
     RDKit          3D

 55 58  0  0  1  0  0  0  0  0999 V2000
   45.0790   28.1130   46.4720 C   0  0  0  0  0  0  0  0  0  0  0  0
   43.1610   28.4990   45.0220 C   0  0  0  0  0  0  0  0  0  0  0  0
   43.7240   27.7370   46.0520 C   0  0  0  0  0  0  0  0  0  0  0  0
   42.8920   26.7490   46.5290 C   0  0  0  0  0  0  0  0  0  0  0  0
   41.6390   26.4840   46.0950 C   0  0  0  0  0  0  0  0  0  0  0  0
   41.1050   27.2630   45.0660 C   0  0  0  0  0  0  0  0  0  0  0  0
   41.8880   28.3120   44.5040 C   0  0  0  0  0  0  0  0  0  0  0  0
   43.7630   29.5460   44.3570 O   0  0  0  0  0  0  0  0  0  0  0  0
   41.2730   28.9590   43.5580 O   0  0  0  0  0  0  0  0  0  0  0  0
   40.9780   30.4380   41.6390 C   0  0  0  0  0  0  0  0  0  0  0  0
   40.6840   29.5790   42.6510 C   0  0  0  0  0  0  0  0  0  0  0  0
   39.3170   29.2400   42.7770 C   0  0  0  0  0  0  0  0  0  0  0  0
   38.2800   29.7180   41.9520 C   0  0  0  0  0  0  0  0  0  0  0  0
   38.6610   30.5860   40.9480 C   0  0  0  0  0  0  0  0  0  0  0  0
   39.9900   30.9150   40.8270 C   0  0  0  0  0  0  0  0  0  0  0  0
   42.6500   30.8810   41.4500 S   0  0  0  0  0  0  0  0  0  0  0  0
   43.1180   31.8580   42.4630 O   0  0  0  0  0  0  0  0  0  0  0  0
   43.5430   29.6780   41.2820 O   0  0  0  0  0  0  0  0  0  0  0  0
   45.0080   29.3420   47.3860 C   0  0  0  0  0  0  0  0  0  0  0  0
   45.3560   30.4750   46.7690 O   0  0  0  0  0  0  0  0  0  0  0  0
   46.5160   32.5490   46.6170 C   0  0  2  0  0  0  0  0  0  0  0  0
   47.1020   32.6540   45.2820 C   0  0  1  0  0  0  0  0  0  0  0  0
   46.8100   31.3250   44.6840 O   0  0  0  0  0  0  0  0  0  0  0  0
   47.4050   30.5610   45.6810 C   0  0  0  0  0  0  0  0  0  0  0  0
   46.5260   31.0950   46.9490 C   0  0  2  0  0  0  0  0  0  0  0  0
   44.8180   35.2350   44.0860 C   0  0  0  0  0  0  0  0  0  0  0  0
   45.3950   35.6690   42.8980 C   0  0  0  0  0  0  0  0  0  0  0  0
   46.5900   35.0650   42.4780 C   0  0  0  0  0  0  0  0  0  0  0  0
   47.1320   34.0900   43.2380 N   0  0  0  0  0  0  0  0  0  0  0  0
   46.5600   33.6790   44.3900 C   0  0  0  0  0  0  0  0  0  0  0  0
   45.3970   34.2470   44.8250 N   0  0  0  0  0  0  0  0  0  0  0  0
   43.6230   35.7970   44.5580 O   0  0  0  0  0  0  0  0  0  0  0  0
   45.1190   32.9540   46.5380 O   0  0  0  0  0  0  0  0  0  0  0  0
   45.6853   28.3500   45.5853 H   0  0  0  0  0  0  0  0  0  0  0  0
   45.5393   27.2762   47.0178 H   0  0  0  0  0  0  0  0  0  0  0  0
   43.2833   26.1159   47.3390 H   0  0  0  0  0  0  0  0  0  0  0  0
   41.0511   25.6699   46.5441 H   0  0  0  0  0  0  0  0  0  0  0  0
   40.0887   27.0682   44.6928 H   0  0  0  0  0  0  0  0  0  0  0  0
   43.2753   30.0223   43.6391 H   0  0  0  0  0  0  0  0  0  0  0  0
   39.0408   28.5466   43.5850 H   0  0  0  0  0  0  0  0  0  0  0  0
   37.2318   29.4184   42.0985 H   0  0  0  0  0  0  0  0  0  0  0  0
   37.9147   31.0064   40.2578 H   0  0  0  0  0  0  0  0  0  0  0  0
   40.2763   31.6085   40.0226 H   0  0  0  0  0  0  0  0  0  0  0  0
   42.7423   31.5659   40.2671 H   0  0  0  0  0  0  0  0  0  0  0  0
   43.9763   29.4460   47.7532 H   0  0  0  0  0  0  0  0  0  0  0  0
   45.7232   29.1823   48.2064 H   0  0  0  0  0  0  0  0  0  0  0  0
   47.0586   33.1640   47.3500 H   0  0  0  0  0  0  0  0  0  0  0  0
   48.1578   32.9434   45.3898 H   0  0  0  0  0  0  0  0  0  0  0  0
   47.2742   29.4822   45.5106 H   0  0  0  0  0  0  0  0  0  0  0  0
   48.4958   30.6655   45.7771 H   0  0  0  0  0  0  0  0  0  0  0  0
   46.8415   30.9263   47.9892 H   0  0  0  0  0  0  0  0  0  0  0  0
   44.9265   36.4661   42.3020 H   0  0  0  0  0  0  0  0  0  0  0  0
   47.0774   35.3812   41.5440 H   0  0  0  0  0  0  0  0  0  0  0  0
   43.1776   36.5166   44.0443 H   0  0  0  0  0  0  0  0  0  0  0  0
   44.7539   33.0598   47.4521 H   0  0  0  0  0  0  0  0  0  0  0  0
  1 19  1  0
  2  3  2  0
  3  1  1  0
  3  4  1  0
  5  4  2  0
  6  5  1  0
  7  2  1  0
  7  6  2  0
  8  2  1  0
  9  7  1  0
 10 11  2  0
 11 12  1  0
 11  9  1  0
 13 12  2  0
 14 13  1  0
 15 14  2  0
 15 10  1  0
 16 10  1  0
 16 17  2  0
 18 16  2  0
 20 25  1  0
 20 19  1  0
 21 25  1  0
 22 21  1  0
 23 22  1  0
 23 24  1  0
 24 25  1  0
 26 32  1  0
 26 31  2  0
 27 26  1  0
 28 27  2  0
 28 29  1  0
 29 30  2  0
 30 31  1  0
 30 22  1  0
 33 21  1  0
  1 34  1  0
  1 35  1  0
  4 36  1  0
  5 37  1  0
  6 38  1  0
  8 39  1  0
 12 40  1  0
 13 41  1  0
 14 42  1  0
 15 43  1  0
 16 44  1  0
 19 45  1  0
 19 46  1  0
 21 47  1  1
 22 48  1  1
 24 49  1  0
 24 50  1  0
 25 51  1  1
 27 52  1  0
 28 53  1  0
 32 54  1  0
 33 55  1  0
M  ISO  8  34   8  35   8  36  14  37  14  38  14  39   3  40  14  41  14
M  ISO  8  42  14  43  14  44  11  45   8  46   8  47  13  48  13  49  13
M  ISO  6  50  13  51  13  52  14  53  14  54   3  55   3
M  END
>  <minimizedAffinity>  (1) 
-6.05918694

>  <minimizedRMSD>  (1) 
1.89469075

$$$$
