
     RDKit          3D

 40 43  0  0  1  0  0  0  0  0999 V2000
   48.1080   33.8900   39.0850 C   0  0  0  0  0  0  0  0  0  0  0  0
   48.6260   34.4890   37.9340 C   0  0  0  0  0  0  0  0  0  0  0  0
   47.7440   34.3000   36.9000 C   0  0  0  0  0  0  0  0  0  0  0  0
   46.7120   33.5900   37.4560 C   0  0  0  0  0  0  0  0  0  0  0  0
   46.9400   33.3570   38.7320 O   0  0  0  0  0  0  0  0  0  0  0  0
   45.5060   33.1460   36.7340 C   0  0  2  0  0  0  0  0  0  0  0  0
   44.7770   31.9550   37.2060 C   0  0  0  0  0  0  0  0  0  0  0  0
   45.6560   31.7960   36.0250 C   0  0  2  0  0  0  0  0  0  0  0  0
   48.0100   31.0870   35.1360 C   0  0  0  0  0  0  0  0  0  0  0  0
   46.9450   31.1290   36.0040 C   0  0  0  0  0  0  0  0  0  0  0  0
   47.0870   30.3340   37.1530 C   0  0  0  0  0  0  0  0  0  0  0  0
   48.2250   29.5590   37.3930 C   0  0  0  0  0  0  0  0  0  0  0  0
   49.2540   29.5530   36.4940 C   0  0  0  0  0  0  0  0  0  0  0  0
   49.1360   30.3260   35.3610 C   0  0  0  0  0  0  0  0  0  0  0  0
   47.8400   32.0930   33.7290 S   0  0  0  0  0  0  0  0  0  0  0  0
   49.0780   32.9980   33.7310 O   0  0  0  0  0  0  0  0  0  0  0  0
   47.9420   31.2680   32.4540 O   0  0  0  0  0  0  0  0  0  0  0  0
   48.6020   33.7930   40.4030 O   0  0  0  0  0  0  0  0  0  0  0  0
   48.3760   34.8690   41.2940 C   0  0  0  0  0  0  0  0  0  0  0  0
   48.9780   35.9500   41.0450 O   0  0  0  0  0  0  0  0  0  0  0  0
   47.4910   34.6040   42.3770 C   0  0  0  0  0  0  0  0  0  0  0  0
   46.3420   35.3410   42.3960 C   0  0  0  0  0  0  0  0  0  0  0  0
   45.4280   35.1360   43.4260 C   0  0  0  0  0  0  0  0  0  0  0  0
   45.7340   34.2150   44.3540 N   0  0  0  0  0  0  0  0  0  0  0  0
   46.8600   33.5040   44.3210 C   0  0  0  0  0  0  0  0  0  0  0  0
   47.7340   33.7120   43.3180 N   0  0  0  0  0  0  0  0  0  0  0  0
   49.5844   35.0247   37.8675 H   0  0  0  0  0  0  0  0  0  0  0  0
   47.8430   34.6415   35.8591 H   0  0  0  0  0  0  0  0  0  0  0  0
   45.1951   34.1696   36.4779 H   0  0  0  0  0  0  0  0  0  0  0  0
   45.0604   31.4878   38.1607 H   0  0  0  0  0  0  0  0  0  0  0  0
   43.7168   31.7376   37.4028 H   0  0  0  0  0  0  0  0  0  0  0  0
   45.4979   31.3706   35.0230 H   0  0  0  0  0  0  0  0  0  0  0  0
   46.2720   30.3208   37.8917 H   0  0  0  0  0  0  0  0  0  0  0  0
   48.2925   28.9522   38.3080 H   0  0  0  0  0  0  0  0  0  0  0  0
   50.1540   28.9458   36.6711 H   0  0  0  0  0  0  0  0  0  0  0  0
   49.9529   30.3361   34.6244 H   0  0  0  0  0  0  0  0  0  0  0  0
   46.6379   32.7493   33.7622 H   0  0  0  0  0  0  0  0  0  0  0  0
   46.1416   36.0845   41.6105 H   0  0  0  0  0  0  0  0  0  0  0  0
   44.4896   35.7076   43.4777 H   0  0  0  0  0  0  0  0  0  0  0  0
   47.0726   32.7583   45.1012 H   0  0  0  0  0  0  0  0  0  0  0  0
  1 18  1  0
  2  1  2  0
  3  4  2  0
  3  2  1  0
  4  5  1  0
  5  1  1  0
  6  7  1  0
  6  4  1  0
  8  6  1  0
  8  7  1  0
  9 14  2  0
  9 10  1  0
 10  8  1  0
 10 11  2  0
 11 12  1  0
 13 12  2  0
 14 13  1  0
 15 16  2  0
 15  9  1  0
 17 15  2  0
 18 19  1  0
 19 21  1  0
 20 19  2  0
 21 22  2  0
 21 26  1  0
 22 23  1  0
 23 24  2  0
 25 24  1  0
 26 25  2  0
  2 27  1  0
  3 28  1  0
  6 29  1  6
  7 30  1  0
  7 31  1  0
  8 32  1  6
 11 33  1  0
 12 34  1  0
 13 35  1  0
 14 36  1  0
 15 37  1  0
 22 38  1  0
 23 39  1  0
 25 40  1  0
M  ISO  8  27  14  28  14  29  13  30  13  31  13  32  13  33  14  34  14
M  ISO  6  35  14  36  14  37  11  38  14  39  14  40  14
M  END
>  <minimizedAffinity>  (1) 
-4.77812815

>  <minimizedRMSD>  (1) 
2.79081225

$$$$
