
     RDKit          3D

 27 28  0  0  0  0  0  0  0  0999 V2000
   45.4790   32.7020   47.4980 O   0  0  0  0  0  0  0  0  0  0  0  0
   44.7020   35.3320   45.1970 C   0  0  0  0  0  0  0  0  0  0  0  0
   45.4560   35.0200   44.0790 C   0  0  0  0  0  0  0  0  0  0  0  0
   46.2510   33.8640   44.1400 C   0  0  0  0  0  0  0  0  0  0  0  0
   46.2430   33.1230   45.2630 N   0  0  0  0  0  0  0  0  0  0  0  0
   45.4990   33.4540   46.3290 C   0  0  0  0  0  0  0  0  0  0  0  0
   44.7290   34.5470   46.3130 N   0  0  0  0  0  0  0  0  0  0  0  0
   45.3660   35.9330   42.9140 C   0  0  0  0  0  0  0  0  0  0  0  0
   45.2230   37.2010   43.4390 F   0  0  0  0  0  0  0  0  0  0  0  0
   44.2780   35.5740   42.1650 F   0  0  0  0  0  0  0  0  0  0  0  0
   46.5450   35.8010   42.1810 F   0  0  0  0  0  0  0  0  0  0  0  0
   46.4580   30.4450   47.6670 C   0  0  0  0  0  0  0  0  0  0  0  0
   46.4620   31.8070   47.8300 C   0  0  0  0  0  0  0  0  0  0  0  0
   47.6170   32.3380   48.4070 C   0  0  0  0  0  0  0  0  0  0  0  0
   48.6730   31.5440   48.7850 C   0  0  0  0  0  0  0  0  0  0  0  0
   48.6550   30.1690   48.6150 C   0  0  0  0  0  0  0  0  0  0  0  0
   47.5100   29.6350   48.0400 C   0  0  0  0  0  0  0  0  0  0  0  0
   45.0470   29.7300   46.9400 S   0  0  0  0  0  0  0  0  0  0  0  0
   45.2030   29.7430   45.4260 O   0  0  0  0  0  0  0  0  0  0  0  0
   44.9530   28.2690   47.3690 O   0  0  0  0  0  0  0  0  0  0  0  0
   44.0681   36.2309   45.1857 H   0  0  0  0  0  0  0  0  0  0  0  0
   46.8718   33.5684   43.2814 H   0  0  0  0  0  0  0  0  0  0  0  0
   47.6838   33.4247   48.5638 H   0  0  0  0  0  0  0  0  0  0  0  0
   49.5592   32.0142   49.2361 H   0  0  0  0  0  0  0  0  0  0  0  0
   49.5014   29.5355   48.9189 H   0  0  0  0  0  0  0  0  0  0  0  0
   47.4407   28.5490   47.8794 H   0  0  0  0  0  0  0  0  0  0  0  0
   43.9360   30.4326   47.3261 H   0  0  0  0  0  0  0  0  0  0  0  0
  1 13  1  0
  2  7  2  0
  3  4  2  0
  3  2  1  0
  4  5  1  0
  5  6  2  0
  6  1  1  0
  7  6  1  0
  8  9  1  0
  8  3  1  0
 10  8  1  0
 11  8  1  0
 12 13  2  0
 12 17  1  0
 13 14  1  0
 14 15  2  0
 16 15  1  0
 17 16  2  0
 18 20  2  0
 18 12  1  0
 19 18  2  0
  2 21  1  0
  4 22  1  0
 14 23  1  0
 15 24  1  0
 16 25  1  0
 17 26  1  0
 18 27  1  0
M  ISO  7  21  14  22  14  23  14  24  14  25  14  26  14  27  11
M  END
>  <minimizedAffinity>  (1) 
-5.21769142

>  <minimizedRMSD>  (1) 
0.677146018

$$$$
