
     RDKit          3D

 40 42  0  0  0  0  0  0  0  0999 V2000
   42.5660   32.8180   38.2490 Cl  0  0  0  0  0  0  0  0  0  0  0  0
   41.5820   33.1860   39.6450 C   0  0  0  0  0  0  0  0  0  0  0  0
   41.8660   34.2340   40.5270 C   0  0  0  0  0  0  0  0  0  0  0  0
   41.0550   34.4660   41.6000 C   0  0  0  0  0  0  0  0  0  0  0  0
   39.9320   33.7120   41.8830 C   0  0  0  0  0  0  0  0  0  0  0  0
   39.6210   32.6640   41.0280 C   0  0  0  0  0  0  0  0  0  0  0  0
   38.2160   31.6390   41.2950 Cl  0  0  0  0  0  0  0  0  0  0  0  0
   40.4630   32.4510   39.9480 C   0  0  0  0  0  0  0  0  0  0  0  0
   39.3010   31.7200   37.9800 C   0  0  0  0  0  0  0  0  0  0  0  0
   40.1520   31.3430   39.0240 C   0  0  0  0  0  0  0  0  0  0  0  0
   40.6190   30.0470   39.1230 C   0  0  0  0  0  0  0  0  0  0  0  0
   40.2360   29.1200   38.1760 C   0  0  0  0  0  0  0  0  0  0  0  0
   39.4000   29.4170   37.1190 C   0  0  0  0  0  0  0  0  0  0  0  0
   38.9510   30.7330   37.0540 C   0  0  0  0  0  0  0  0  0  0  0  0
   38.6420   33.3140   37.7400 S   0  0  0  0  0  0  0  0  0  0  0  0
   37.8250   33.8100   38.8720 O   0  0  0  0  0  0  0  0  0  0  0  0
   37.7070   33.2430   36.5410 O   0  0  0  0  0  0  0  0  0  0  0  0
   43.0070   34.9790   40.2140 O   0  0  0  0  0  0  0  0  0  0  0  0
   44.2060   34.6560   40.8760 C   0  0  0  0  0  0  0  0  0  0  0  0
   45.0600   33.7730   40.5020 O   0  0  0  0  0  0  0  0  0  0  0  0
   44.5940   35.3180   42.0810 N   0  0  0  0  0  0  0  0  0  0  0  0
   45.8660   34.7750   42.5200 C   0  0  0  0  0  0  0  0  0  0  0  0
   45.9990   33.8130   43.4860 C   0  0  0  0  0  0  0  0  0  0  0  0
   47.2970   33.4110   43.7800 C   0  0  0  0  0  0  0  0  0  0  0  0
   48.3070   33.9810   43.1070 N   0  0  0  0  0  0  0  0  0  0  0  0
   48.1270   34.9270   42.1610 C   0  0  0  0  0  0  0  0  0  0  0  0
   46.8780   35.3450   41.8480 N   0  0  0  0  0  0  0  0  0  0  0  0
   44.8240   33.3180   44.0960 N   0  0  0  0  0  0  0  0  0  0  0  0
   41.3086   35.2968   42.2749 H   0  0  0  0  0  0  0  0  0  0  0  0
   39.3044   33.9354   42.7583 H   0  0  0  0  0  0  0  0  0  0  0  0
   41.2881   29.7576   39.9468 H   0  0  0  0  0  0  0  0  0  0  0  0
   40.6162   28.0919   38.2680 H   0  0  0  0  0  0  0  0  0  0  0  0
   39.1070   28.6617   36.3750 H   0  0  0  0  0  0  0  0  0  0  0  0
   38.2824   31.0123   36.2264 H   0  0  0  0  0  0  0  0  0  0  0  0
   39.7067   34.1622   37.5856 H   0  0  0  0  0  0  0  0  0  0  0  0
   44.0597   36.0577   42.5587 H   0  0  0  0  0  0  0  0  0  0  0  0
   47.4905   32.6448   44.5452 H   0  0  0  0  0  0  0  0  0  0  0  0
   48.9964   35.3588   41.6437 H   0  0  0  0  0  0  0  0  0  0  0  0
   44.8884   32.5942   44.8260 H   0  0  0  0  0  0  0  0  0  0  0  0
   43.9033   33.6810   43.8105 H   0  0  0  0  0  0  0  0  0  0  0  0
  1  2  1  0
  2  8  2  0
  2  3  1  0
  3  4  2  0
  4  5  1  0
  6  7  1  0
  6  5  2  0
  8  6  1  0
  9 10  2  0
 10 11  1  0
 10  8  1  0
 12 11  2  0
 13 12  1  0
 14 13  2  0
 14  9  1  0
 15  9  1  0
 15 16  2  0
 17 15  2  0
 18  3  1  0
 18 19  1  0
 19 21  1  0
 20 19  2  0
 21 22  1  0
 22 23  2  0
 23 24  1  0
 23 28  1  0
 25 24  2  0
 26 25  1  0
 27 26  2  0
 27 22  1  0
  4 29  1  0
  5 30  1  0
 11 31  1  0
 12 32  1  0
 13 33  1  0
 14 34  1  0
 15 35  1  0
 21 36  1  0
 24 37  1  0
 26 38  1  0
 28 39  1  0
 28 40  1  0
M  ISO  8  29  14  30  14  31  14  32  14  33  14  34  14  35  11  37  14
M  ISO  1  38  14
M  END
>  <minimizedAffinity>  (1) 
-5.57231379

>  <minimizedRMSD>  (1) 
2.1512773

$$$$
