
     RDKit          3D

 38 39  0  0  0  0  0  0  0  0999 V2000
   40.9710   32.7970   40.9300 C   0  0  0  0  0  0  0  0  0  0  0  0
   42.1610   33.3420   40.5030 C   0  0  0  0  0  0  0  0  0  0  0  0
   42.3820   33.6140   39.1590 C   0  0  0  0  0  0  0  0  0  0  0  0
   41.3720   33.3170   38.3000 N   0  0  0  0  0  0  0  0  0  0  0  0
   40.2220   32.7880   38.7400 C   0  0  0  0  0  0  0  0  0  0  0  0
   40.0080   32.5300   40.0100 N   0  0  0  0  0  0  0  0  0  0  0  0
   39.1230   31.3290   37.0520 C   0  0  0  0  0  0  0  0  0  0  0  0
   39.2070   32.5130   37.7170 C   0  0  0  0  0  0  0  0  0  0  0  0
   38.2940   33.4660   37.3940 C   0  0  0  0  0  0  0  0  0  0  0  0
   37.2790   33.3450   36.4480 C   0  0  0  0  0  0  0  0  0  0  0  0
   37.2230   32.1150   35.7840 C   0  0  0  0  0  0  0  0  0  0  0  0
   38.1420   31.1400   36.1010 C   0  0  0  0  0  0  0  0  0  0  0  0
   40.2500   30.0460   37.3970 S   0  0  0  0  0  0  0  0  0  0  0  0
   41.4720   30.2390   36.5380 O   0  0  0  0  0  0  0  0  0  0  0  0
   39.6690   28.7080   36.9700 O   0  0  0  0  0  0  0  0  0  0  0  0
   43.4660   33.7140   41.6950 S   0  0  0  0  0  0  0  0  0  0  0  0
   43.5220   35.4800   42.0010 C   0  0  0  0  0  0  0  0  0  0  0  0
   43.2840   35.6680   43.4320 N   0  0  0  0  0  0  0  0  0  0  0  0
   44.7410   35.8690   44.3120 S   0  0  0  0  0  0  0  0  0  0  0  0
   45.9340   35.3750   43.5530 O   0  0  0  0  0  0  0  0  0  0  0  0
   44.8800   37.3450   44.5700 O   0  0  0  0  0  0  0  0  0  0  0  0
   44.6200   35.1110   45.7940 O   0  0  0  0  0  0  0  0  0  0  0  0
   45.4050   33.9690   45.8680 C   0  0  0  0  0  0  0  0  0  0  0  0
   40.8033   32.5819   41.9957 H   0  0  0  0  0  0  0  0  0  0  0  0
   43.3291   34.0489   38.8070 H   0  0  0  0  0  0  0  0  0  0  0  0
   38.3630   34.4238   37.9305 H   0  0  0  0  0  0  0  0  0  0  0  0
   36.5707   34.1599   36.2376 H   0  0  0  0  0  0  0  0  0  0  0  0
   36.4549   31.9292   35.0188 H   0  0  0  0  0  0  0  0  0  0  0  0
   38.0920   30.1745   35.5764 H   0  0  0  0  0  0  0  0  0  0  0  0
   40.5284   30.0661   38.7383 H   0  0  0  0  0  0  0  0  0  0  0  0
   44.5084   35.8812   41.7251 H   0  0  0  0  0  0  0  0  0  0  0  0
   42.7660   36.0088   41.4020 H   0  0  0  0  0  0  0  0  0  0  0  0
   42.6993   36.5057   43.5634 H   0  0  0  0  0  0  0  0  0  0  0  0
   46.6339   35.0852   44.1904 H   0  0  0  0  0  0  0  0  0  0  0  0
   44.8955   37.5094   45.5461 H   0  0  0  0  0  0  0  0  0  0  0  0
   45.5811   33.7128   46.9232 H   0  0  0  0  0  0  0  0  0  0  0  0
   44.8879   33.1357   45.3697 H   0  0  0  0  0  0  0  0  0  0  0  0
   46.3682   34.1532   45.3697 H   0  0  0  0  0  0  0  0  0  0  0  0
  2  1  2  0
  2 16  1  0
  3  2  1  0
  4  5  1  0
  4  3  2  0
  5  6  2  0
  6  1  1  0
  7 13  1  0
  7  8  2  0
  8  5  1  0
  9  8  1  0
 10  9  2  0
 11 12  2  0
 11 10  1  0
 12  7  1  0
 14 13  2  0
 15 13  2  0
 16 17  1  0
 17 18  1  0
 18 19  1  0
 19 21  1  0
 19 22  1  0
 20 19  1  0
 22 23  1  0
  1 24  1  0
  3 25  1  0
  9 26  1  0
 10 27  1  0
 11 28  1  0
 12 29  1  0
 13 30  1  0
 17 31  1  0
 17 32  1  0
 18 33  1  0
 20 34  1  0
 21 35  1  0
 23 36  1  0
 23 37  1  0
 23 38  1  0
M  ISO  8  24  14  25  14  26  14  27  14  28  14  29  14  30  11  31   8
M  ISO  7  32   8  33   5  34   3  35   3  36   8  37   8  38   8
M  END
>  <minimizedAffinity>  (1) 
-4.39849329

>  <minimizedRMSD>  (1) 
2.64280248

$$$$
