
     RDKit          3D

 49 52  0  0  1  0  0  0  0  0999 V2000
   44.5570   35.5550   44.6010 C   0  0  0  0  0  0  0  0  0  0  0  0
   45.2550   35.6040   43.3750 C   0  0  0  0  0  0  0  0  0  0  0  0
   46.3750   34.7250   43.2120 C   0  0  0  0  0  0  0  0  0  0  0  0
   46.7060   33.9030   44.2260 N   0  0  0  0  0  0  0  0  0  0  0  0
   46.0160   33.8860   45.3800 C   0  0  0  0  0  0  0  0  0  0  0  0
   44.9380   34.7120   45.5760 N   0  0  0  0  0  0  0  0  0  0  0  0
   46.4210   32.9660   46.4650 C   0  0  2  0  0  0  0  0  0  0  0  0
   46.9380   31.7290   45.7600 C   0  0  0  0  0  0  0  0  0  0  0  0
   46.0390   30.5540   45.7790 C   0  0  0  0  0  0  0  0  0  0  0  0
   45.7780   30.2880   47.2570 C   0  0  0  0  0  0  0  0  0  0  0  0
   44.9920   31.3670   47.8770 C   0  0  0  0  0  0  0  0  0  0  0  0
   45.3760   32.7300   47.4210 C   0  0  0  0  0  0  0  0  0  0  0  0
   44.6920   33.8640   47.9350 N   0  0  0  0  0  0  0  0  0  0  0  0
   47.1060   34.7550   41.9550 C   0  0  0  0  0  0  0  0  0  0  0  0
   48.2340   35.5120   41.8960 C   0  0  0  0  0  0  0  0  0  0  0  0
   48.9050   35.5110   40.6610 C   0  0  0  0  0  0  0  0  0  0  0  0
   48.3450   34.7430   39.6470 C   0  0  0  0  0  0  0  0  0  0  0  0
   47.2110   33.9800   39.7030 C   0  0  0  0  0  0  0  0  0  0  0  0
   46.5980   34.0210   40.9330 N   0  0  0  0  0  0  0  0  0  0  0  0
   46.7330   33.2650   38.6720 O   0  0  0  0  0  0  0  0  0  0  0  0
   45.8150   32.4510   36.9040 C   0  0  0  0  0  0  0  0  0  0  0  0
   47.0270   32.9480   37.4340 C   0  0  0  0  0  0  0  0  0  0  0  0
   48.0680   32.9460   36.5500 C   0  0  0  0  0  0  0  0  0  0  0  0
   48.0510   32.5230   35.2450 C   0  0  0  0  0  0  0  0  0  0  0  0
   46.8410   32.0540   34.7960 C   0  0  0  0  0  0  0  0  0  0  0  0
   45.6980   32.0010   35.5920 C   0  0  0  0  0  0  0  0  0  0  0  0
   44.2360   32.2740   37.6830 S   0  0  0  0  0  0  0  0  0  0  0  0
   44.3630   31.3520   38.8390 O   0  0  0  0  0  0  0  0  0  0  0  0
   43.7740   33.6090   38.1590 O   0  0  0  0  0  0  0  0  0  0  0  0
   43.6911   36.2145   44.7602 H   0  0  0  0  0  0  0  0  0  0  0  0
   44.9500   36.2925   42.5732 H   0  0  0  0  0  0  0  0  0  0  0  0
   47.2092   33.3945   47.1015 H   0  0  0  0  0  0  0  0  0  0  0  0
   47.8842   31.4378   46.2396 H   0  0  0  0  0  0  0  0  0  0  0  0
   47.0408   32.0095   44.7013 H   0  0  0  0  0  0  0  0  0  0  0  0
   45.0988   30.7768   45.2533 H   0  0  0  0  0  0  0  0  0  0  0  0
   46.4818   29.6839   45.2722 H   0  0  0  0  0  0  0  0  0  0  0  0
   45.2247   29.3425   47.3561 H   0  0  0  0  0  0  0  0  0  0  0  0
   46.7490   30.2341   47.7710 H   0  0  0  0  0  0  0  0  0  0  0  0
   44.1934   31.1824   48.6106 H   0  0  0  0  0  0  0  0  0  0  0  0
   43.9354   33.7409   48.6230 H   0  0  0  0  0  0  0  0  0  0  0  0
   44.9526   34.8093   47.6197 H   0  0  0  0  0  0  0  0  0  0  0  0
   48.5980   36.0882   42.7594 H   0  0  0  0  0  0  0  0  0  0  0  0
   49.8276   36.0893   40.5048 H   0  0  0  0  0  0  0  0  0  0  0  0
   48.8773   34.7495   38.6844 H   0  0  0  0  0  0  0  0  0  0  0  0
   49.0288   33.3266   36.9269 H   0  0  0  0  0  0  0  0  0  0  0  0
   48.9439   32.5571   34.6034 H   0  0  0  0  0  0  0  0  0  0  0  0
   46.7702   31.7025   33.7561 H   0  0  0  0  0  0  0  0  0  0  0  0
   44.7437   31.6196   35.1999 H   0  0  0  0  0  0  0  0  0  0  0  0
   43.3296   31.7661   36.7901 H   0  0  0  0  0  0  0  0  0  0  0  0
  1  6  2  0
  2  1  1  0
  3  2  2  0
  3  4  1  0
  4  5  2  0
  5  6  1  0
  5  7  1  0
  7 12  1  0
  8  9  1  0
  8  7  1  0
  9 10  1  0
 10 11  1  0
 12 11  2  0
 12 13  1  0
 14  3  1  0
 15 14  2  0
 16 15  1  0
 17 18  1  0
 17 16  2  0
 18 19  2  0
 19 14  1  0
 20 18  1  0
 21 22  2  0
 21 27  1  0
 22 20  1  0
 23 22  1  0
 24 23  2  0
 25 24  1  0
 25 26  2  0
 26 21  1  0
 27 29  2  0
 27 28  2  0
  1 30  1  0
  2 31  1  0
  7 32  1  1
  8 33  1  0
  8 34  1  0
  9 35  1  0
  9 36  1  0
 10 37  1  0
 10 38  1  0
 11 39  1  0
 13 40  1  0
 13 41  1  0
 15 42  1  0
 16 43  1  0
 17 44  1  0
 23 45  1  0
 24 46  1  0
 25 47  1  0
 26 48  1  0
 27 49  1  0
M  ISO  8  30  14  31  14  32  13  33  13  34  13  35  13  36  13  37  13
M  ISO  8  38  13  39  13  42  14  43  14  44  14  45  14  46  14  47  14
M  ISO  2  48  14  49  11
M  END
>  <minimizedAffinity>  (1) 
-7.32088375

>  <minimizedRMSD>  (1) 
1.17714036

$$$$
