
     RDKit          3D

 50 54  0  0  1  0  0  0  0  0999 V2000
   46.9550   30.8090   43.4200 C   0  0  0  0  0  0  0  0  0  0  0  0
   46.0940   31.6860   44.0220 C   0  0  0  0  0  0  0  0  0  0  0  0
   46.1960   31.8630   45.3780 C   0  0  0  0  0  0  0  0  0  0  0  0
   47.1390   31.1730   46.1020 C   0  0  0  0  0  0  0  0  0  0  0  0
   48.0070   30.2870   45.4840 C   0  0  0  0  0  0  0  0  0  0  0  0
   47.9210   30.0910   44.1080 C   0  0  0  0  0  0  0  0  0  0  0  0
   48.8460   29.7410   46.4780 O   0  0  0  0  0  0  0  0  0  0  0  0
   48.2560   30.0240   47.7250 C   0  0  2  0  0  0  0  0  0  0  0  0
   47.4500   31.1690   47.4780 O   0  0  0  0  0  0  0  0  0  0  0  0
   44.2780   34.4300   42.3700 C   0  0  0  0  0  0  0  0  0  0  0  0
   43.2580   33.7610   41.7010 C   0  0  0  0  0  0  0  0  0  0  0  0
   43.2040   32.3690   41.8250 C   0  0  0  0  0  0  0  0  0  0  0  0
   44.1290   31.7260   42.5780 N   0  0  0  0  0  0  0  0  0  0  0  0
   45.1040   32.4010   43.2130 C   0  0  0  0  0  0  0  0  0  0  0  0
   45.1810   33.7510   43.1120 N   0  0  0  0  0  0  0  0  0  0  0  0
   42.3680   34.5660   40.9540 N   0  0  0  0  0  0  0  0  0  0  0  0
   42.4300   34.4600   39.5150 C   0  0  0  0  0  0  0  0  0  0  0  0
   41.5280   35.4000   38.8040 C   0  0  0  0  0  0  0  0  0  0  0  0
   40.2120   35.4140   39.3310 N   0  0  0  0  0  0  0  0  0  0  0  0
   40.0710   35.3080   40.7350 C   0  0  0  0  0  0  0  0  0  0  0  0
   41.3930   35.4920   41.4510 C   0  0  0  0  0  0  0  0  0  0  0  0
   49.8670   29.0960   49.3360 C   0  0  0  0  0  0  0  0  0  0  0  0
   49.2050   30.1950   48.8310 C   0  0  0  0  0  0  0  0  0  0  0  0
   49.4090   31.4670   49.3370 C   0  0  0  0  0  0  0  0  0  0  0  0
   50.2880   31.6960   50.3750 C   0  0  0  0  0  0  0  0  0  0  0  0
   50.9650   30.6350   50.9050 C   0  0  0  0  0  0  0  0  0  0  0  0
   50.7390   29.3820   50.3770 C   0  0  0  0  0  0  0  0  0  0  0  0
   49.6390   27.4760   48.7240 S   0  0  0  0  0  0  0  0  0  0  0  0
   50.0150   26.5230   49.8480 O   0  0  0  0  0  0  0  0  0  0  0  0
   50.5710   27.1430   47.5960 O   0  0  0  0  0  0  0  0  0  0  0  0
   46.8764   30.6661   42.3322 H   0  0  0  0  0  0  0  0  0  0  0  0
   45.5184   32.5621   45.8900 H   0  0  0  0  0  0  0  0  0  0  0  0
   48.5935   29.3935   43.5871 H   0  0  0  0  0  0  0  0  0  0  0  0
   47.6649   29.1698   48.0869 H   0  0  0  0  0  0  0  0  0  0  0  0
   44.3505   35.5250   42.2942 H   0  0  0  0  0  0  0  0  0  0  0  0
   42.4144   31.7989   41.3137 H   0  0  0  0  0  0  0  0  0  0  0  0
   43.4631   34.6636   39.1968 H   0  0  0  0  0  0  0  0  0  0  0  0
   42.1010   33.4431   39.2550 H   0  0  0  0  0  0  0  0  0  0  0  0
   41.4781   35.1044   37.7456 H   0  0  0  0  0  0  0  0  0  0  0  0
   41.9426   36.4110   38.9302 H   0  0  0  0  0  0  0  0  0  0  0  0
   39.7732   36.3001   39.0426 H   0  0  0  0  0  0  0  0  0  0  0  0
   39.3686   36.0805   41.0812 H   0  0  0  0  0  0  0  0  0  0  0  0
   39.6964   34.2996   40.9648 H   0  0  0  0  0  0  0  0  0  0  0  0
   41.2479   35.3212   42.5279 H   0  0  0  0  0  0  0  0  0  0  0  0
   41.7533   36.5161   41.2738 H   0  0  0  0  0  0  0  0  0  0  0  0
   48.8581   32.3138   48.9018 H   0  0  0  0  0  0  0  0  0  0  0  0
   50.4405   32.7121   50.7677 H   0  0  0  0  0  0  0  0  0  0  0  0
   51.6741   30.7770   51.7339 H   0  0  0  0  0  0  0  0  0  0  0  0
   51.2949   28.5406   50.8164 H   0  0  0  0  0  0  0  0  0  0  0  0
   48.3448   27.3737   48.2864 H   0  0  0  0  0  0  0  0  0  0  0  0
  1  2  2  0
  1  6  1  0
  2  3  1  0
  3  4  2  0
  4  9  1  0
  5  4  1  0
  5  7  1  0
  6  5  2  0
  7  8  1  0
  8 23  1  0
  9  8  1  0
 10 15  2  0
 11 12  2  0
 11 10  1  0
 12 13  1  0
 13 14  2  0
 14  2  1  0
 15 14  1  0
 16 21  1  0
 16 11  1  0
 17 16  1  0
 18 19  1  0
 18 17  1  0
 19 20  1  0
 20 21  1  0
 22 27  2  0
 23 22  1  0
 23 24  2  0
 24 25  1  0
 25 26  2  0
 27 26  1  0
 28 22  1  0
 28 29  2  0
 30 28  2  0
  1 31  1  0
  3 32  1  0
  6 33  1  0
  8 34  1  1
 10 35  1  0
 12 36  1  0
 17 37  1  0
 17 38  1  0
 18 39  1  0
 18 40  1  0
 19 41  1  0
 20 42  1  0
 20 43  1  0
 21 44  1  0
 21 45  1  0
 24 46  1  0
 25 47  1  0
 26 48  1  0
 27 49  1  0
 28 50  1  0
M  ISO  8  31  14  32  14  33  14  34  13  35  14  36  14  37  13  38  13
M  ISO  8  39  13  40  13  41   5  42  13  43  13  44  13  45  13  46  14
M  ISO  4  47  14  48  14  49  14  50  11
M  END
>  <minimizedAffinity>  (1) 
-5.73256493

>  <minimizedRMSD>  (1) 
1.51301372

$$$$
