
     RDKit          3D

 33 35  0  0  0  0  0  0  0  0999 V2000
   45.4040   33.1370   41.1780 F   0  0  0  0  0  0  0  0  0  0  0  0
   46.5210   33.9120   41.0210 C   0  0  0  0  0  0  0  0  0  0  0  0
   46.9410   34.7570   42.0020 C   0  0  0  0  0  0  0  0  0  0  0  0
   48.0840   35.4950   41.7370 C   0  0  0  0  0  0  0  0  0  0  0  0
   48.7820   35.4020   40.5570 C   0  0  0  0  0  0  0  0  0  0  0  0
   48.3120   34.5300   39.6010 C   0  0  0  0  0  0  0  0  0  0  0  0
   47.1770   33.7760   39.8200 C   0  0  0  0  0  0  0  0  0  0  0  0
   44.5100   35.8680   44.6870 C   0  0  0  0  0  0  0  0  0  0  0  0
   45.2340   35.8200   43.4910 C   0  0  0  0  0  0  0  0  0  0  0  0
   46.1760   34.8290   43.2380 C   0  0  0  0  0  0  0  0  0  0  0  0
   46.3510   33.9080   44.2270 N   0  0  0  0  0  0  0  0  0  0  0  0
   45.6480   33.9650   45.3770 C   0  0  0  0  0  0  0  0  0  0  0  0
   44.7440   34.9270   45.6030 N   0  0  0  0  0  0  0  0  0  0  0  0
   47.0450   31.5440   38.6480 C   0  0  0  0  0  0  0  0  0  0  0  0
   46.6940   32.8550   38.7880 C   0  0  0  0  0  0  0  0  0  0  0  0
   45.7950   33.4620   37.9130 C   0  0  0  0  0  0  0  0  0  0  0  0
   45.2350   32.7340   36.8680 C   0  0  0  0  0  0  0  0  0  0  0  0
   45.6060   31.3990   36.7440 C   0  0  0  0  0  0  0  0  0  0  0  0
   46.4960   30.8120   37.6170 C   0  0  0  0  0  0  0  0  0  0  0  0
   48.1880   30.9120   39.8250 S   0  0  0  0  0  0  0  0  0  0  0  0
   48.8750   29.7420   39.1740 O   0  0  0  0  0  0  0  0  0  0  0  0
   47.5310   30.4620   41.0780 O   0  0  0  0  0  0  0  0  0  0  0  0
   48.4499   36.1885   42.5084 H   0  0  0  0  0  0  0  0  0  0  0  0
   49.6859   36.0040   40.3822 H   0  0  0  0  0  0  0  0  0  0  0  0
   48.8501   34.4326   38.6466 H   0  0  0  0  0  0  0  0  0  0  0  0
   43.7681   36.6600   44.8671 H   0  0  0  0  0  0  0  0  0  0  0  0
   45.0525   36.5902   42.7269 H   0  0  0  0  0  0  0  0  0  0  0  0
   45.8218   33.2013   46.1494 H   0  0  0  0  0  0  0  0  0  0  0  0
   45.5273   34.5202   38.0491 H   0  0  0  0  0  0  0  0  0  0  0  0
   44.5255   33.1967   36.1662 H   0  0  0  0  0  0  0  0  0  0  0  0
   45.1782   30.7970   35.9288 H   0  0  0  0  0  0  0  0  0  0  0  0
   46.7697   29.7541   37.4906 H   0  0  0  0  0  0  0  0  0  0  0  0
   49.0633   31.9043   40.1801 H   0  0  0  0  0  0  0  0  0  0  0  0
  2  1  1  0
  2  3  2  0
  3 10  1  0
  4  3  1  0
  5  4  2  0
  6  7  2  0
  6  5  1  0
  7  2  1  0
  8 13  2  0
  9  8  1  0
 10  9  2  0
 10 11  1  0
 11 12  2  0
 12 13  1  0
 14 15  2  0
 14 20  1  0
 15  7  1  0
 16 15  1  0
 17 16  2  0
 18 17  1  0
 18 19  2  0
 19 14  1  0
 20 22  2  0
 21 20  2  0
  4 23  1  0
  5 24  1  0
  6 25  1  0
  8 26  1  0
  9 27  1  0
 12 28  1  0
 16 29  1  0
 17 30  1  0
 18 31  1  0
 19 32  1  0
 20 33  1  0
M  ISO  8  23  14  24  14  25  14  26  14  27  14  28  14  29  14  30  14
M  ISO  3  31  14  32  14  33  11
M  END
>  <minimizedAffinity>  (1) 
-5.24361086

>  <minimizedRMSD>  (1) 
0.491969854

$$$$
