
     RDKit          3D

 36 39  0  0  0  0  0  0  0  0999 V2000
   44.5020   28.8640   44.7660 C   0  0  0  0  0  0  0  0  0  0  0  0
   45.5340   29.4330   45.4630 C   0  0  0  0  0  0  0  0  0  0  0  0
   45.9180   29.0340   46.7500 C   0  0  0  0  0  0  0  0  0  0  0  0
   45.2070   27.9930   47.3630 C   0  0  0  0  0  0  0  0  0  0  0  0
   45.2790   27.3490   48.5530 N   0  0  0  0  0  0  0  0  0  0  0  0
   44.3050   26.3960   48.5950 C   0  0  0  0  0  0  0  0  0  0  0  0
   43.6440   26.4720   47.4110 N   0  0  0  0  0  0  0  0  0  0  0  0
   44.1760   27.4360   46.6480 C   0  0  0  0  0  0  0  0  0  0  0  0
   43.7920   27.8240   45.3790 C   0  0  0  0  0  0  0  0  0  0  0  0
   46.7210   32.7860   44.4710 C   0  0  0  0  0  0  0  0  0  0  0  0
   47.8680   32.4930   43.7330 C   0  0  0  0  0  0  0  0  0  0  0  0
   48.2280   31.1490   43.5800 C   0  0  0  0  0  0  0  0  0  0  0  0
   47.4300   30.2040   44.1630 N   0  0  0  0  0  0  0  0  0  0  0  0
   46.3200   30.5250   44.8740 C   0  0  0  0  0  0  0  0  0  0  0  0
   45.9680   31.7980   45.0290 N   0  0  0  0  0  0  0  0  0  0  0  0
   46.7780   30.7490   48.2470 C   0  0  0  0  0  0  0  0  0  0  0  0
   47.0070   29.6630   47.4410 C   0  0  0  0  0  0  0  0  0  0  0  0
   48.3010   29.1850   47.3030 C   0  0  0  0  0  0  0  0  0  0  0  0
   49.3810   29.7550   47.9430 C   0  0  0  0  0  0  0  0  0  0  0  0
   49.1720   30.8500   48.7610 C   0  0  0  0  0  0  0  0  0  0  0  0
   47.8760   31.3240   48.8960 C   0  0  0  0  0  0  0  0  0  0  0  0
   45.2060   31.4400   48.4970 S   0  0  0  0  0  0  0  0  0  0  0  0
   45.0660   32.8360   48.0070 O   0  0  0  0  0  0  0  0  0  0  0  0
   44.9520   31.4590   49.9880 O   0  0  0  0  0  0  0  0  0  0  0  0
   44.2388   29.2127   43.7565 H   0  0  0  0  0  0  0  0  0  0  0  0
   45.9576   27.5468   49.3022 H   0  0  0  0  0  0  0  0  0  0  0  0
   44.0960   25.7031   49.4234 H   0  0  0  0  0  0  0  0  0  0  0  0
   42.9536   27.3308   44.8653 H   0  0  0  0  0  0  0  0  0  0  0  0
   46.4190   33.8352   44.6048 H   0  0  0  0  0  0  0  0  0  0  0  0
   48.4722   33.2952   43.2842 H   0  0  0  0  0  0  0  0  0  0  0  0
   49.1237   30.8624   43.0094 H   0  0  0  0  0  0  0  0  0  0  0  0
   48.4735   28.3132   46.6548 H   0  0  0  0  0  0  0  0  0  0  0  0
   50.3925   29.3453   47.8051 H   0  0  0  0  0  0  0  0  0  0  0  0
   50.0088   31.3307   49.2889 H   0  0  0  0  0  0  0  0  0  0  0  0
   47.7026   32.1949   49.5452 H   0  0  0  0  0  0  0  0  0  0  0  0
   44.3165   30.6749   47.7897 H   0  0  0  0  0  0  0  0  0  0  0  0
  1  9  2  0
  1  2  1  0
  2  3  2  0
  3  4  1  0
  3 17  1  0
  4  5  1  0
  5  6  1  0
  7  6  2  0
  8  4  2  0
  8  7  1  0
  9  8  1  0
 10 15  2  0
 11 10  1  0
 12 11  2  0
 12 13  1  0
 13 14  2  0
 14 15  1  0
 14  2  1  0
 16 22  1  0
 16 21  2  0
 17 16  1  0
 18 17  2  0
 18 19  1  0
 19 20  2  0
 20 21  1  0
 22 24  2  0
 23 22  2  0
  1 25  1  0
  5 26  1  0
  6 27  1  0
  9 28  1  0
 10 29  1  0
 11 30  1  0
 12 31  1  0
 18 32  1  0
 19 33  1  0
 20 34  1  0
 21 35  1  0
 22 36  1  0
M  ISO  8  25  14  26   9  27  14  28  14  29  14  30  14  31  14  32  14
M  ISO  4  33  14  34  14  35  14  36  11
M  END
>  <minimizedAffinity>  (1) 
-4.88922834

>  <minimizedRMSD>  (1) 
4.84693146

$$$$
