
     RDKit          3D

 39 41  0  0  0  0  0  0  0  0999 V2000
   47.6900   33.9510   42.8840 C   0  0  0  0  0  0  0  0  0  0  0  0
   48.3740   33.0100   42.0990 C   0  0  0  0  0  0  0  0  0  0  0  0
   48.4930   31.7250   42.6060 C   0  0  0  0  0  0  0  0  0  0  0  0
   47.9380   31.4700   43.8250 N   0  0  0  0  0  0  0  0  0  0  0  0
   47.2940   32.3800   44.5500 C   0  0  0  0  0  0  0  0  0  0  0  0
   47.1670   33.6350   44.0750 N   0  0  0  0  0  0  0  0  0  0  0  0
   45.2970   30.0650   44.4990 Cl  0  0  0  0  0  0  0  0  0  0  0  0
   45.8060   30.9930   45.9250 C   0  0  0  0  0  0  0  0  0  0  0  0
   46.7250   32.0320   45.8470 C   0  0  0  0  0  0  0  0  0  0  0  0
   47.0990   32.7290   46.9650 C   0  0  0  0  0  0  0  0  0  0  0  0
   46.5490   32.3880   48.1950 C   0  0  0  0  0  0  0  0  0  0  0  0
   45.6440   31.3570   48.2340 C   0  0  0  0  0  0  0  0  0  0  0  0
   44.9580   30.9420   49.7830 Cl  0  0  0  0  0  0  0  0  0  0  0  0
   45.2460   30.6380   47.1390 C   0  0  0  0  0  0  0  0  0  0  0  0
   48.9200   33.4210   40.8180 C   0  0  0  0  0  0  0  0  0  0  0  0
   47.9460   34.3440   40.1360 C   0  0  0  0  0  0  0  0  0  0  0  0
   47.2200   33.2660   38.0580 C   0  0  0  0  0  0  0  0  0  0  0  0
   46.9180   33.6630   39.3440 C   0  0  0  0  0  0  0  0  0  0  0  0
   45.6740   33.4170   39.8900 C   0  0  0  0  0  0  0  0  0  0  0  0
   44.6750   32.7710   39.2000 C   0  0  0  0  0  0  0  0  0  0  0  0
   45.0050   32.3830   37.9100 C   0  0  0  0  0  0  0  0  0  0  0  0
   46.2260   32.6060   37.3270 C   0  0  0  0  0  0  0  0  0  0  0  0
   48.7390   33.5280   37.2730 S   0  0  0  0  0  0  0  0  0  0  0  0
   49.7890   32.5160   37.6290 O   0  0  0  0  0  0  0  0  0  0  0  0
   48.5250   33.3660   35.7740 O   0  0  0  0  0  0  0  0  0  0  0  0
   47.5803   34.9794   42.5092 H   0  0  0  0  0  0  0  0  0  0  0  0
   49.0173   30.9381   42.0439 H   0  0  0  0  0  0  0  0  0  0  0  0
   47.8271   33.5501   46.8903 H   0  0  0  0  0  0  0  0  0  0  0  0
   46.8308   32.9287   49.1105 H   0  0  0  0  0  0  0  0  0  0  0  0
   44.5169   29.8184   47.2206 H   0  0  0  0  0  0  0  0  0  0  0  0
   49.8740   33.9452   40.9762 H   0  0  0  0  0  0  0  0  0  0  0  0
   49.0911   32.5352   40.1887 H   0  0  0  0  0  0  0  0  0  0  0  0
   47.4432   34.9448   40.9082 H   0  0  0  0  0  0  0  0  0  0  0  0
   48.5318   34.9531   39.4319 H   0  0  0  0  0  0  0  0  0  0  0  0
   45.4738   33.7513   40.9187 H   0  0  0  0  0  0  0  0  0  0  0  0
   43.6856   32.5761   39.6395 H   0  0  0  0  0  0  0  0  0  0  0  0
   44.2384   31.8632   37.3166 H   0  0  0  0  0  0  0  0  0  0  0  0
   46.4215   32.2703   36.2979 H   0  0  0  0  0  0  0  0  0  0  0  0
   49.1644   34.7702   37.6640 H   0  0  0  0  0  0  0  0  0  0  0  0
  1  6  2  0
  2  3  2  0
  2  1  1  0
  3  4  1  0
  4  5  2  0
  5  9  1  0
  6  5  1  0
  7  8  1  0
  8 14  2  0
  9  8  1  0
  9 10  2  0
 10 11  1  0
 11 12  2  0
 12 13  1  0
 14 12  1  0
 15  2  1  0
 16 15  1  0
 17 18  2  0
 18 19  1  0
 18 16  1  0
 20 19  2  0
 21 20  1  0
 22 21  2  0
 22 17  1  0
 23 24  2  0
 23 17  1  0
 25 23  2  0
  1 26  1  0
  3 27  1  0
 10 28  1  0
 11 29  1  0
 14 30  1  0
 15 31  1  0
 15 32  1  0
 16 33  1  0
 16 34  1  0
 19 35  1  0
 20 36  1  0
 21 37  1  0
 22 38  1  0
 23 39  1  0
M  ISO  8  26  14  27  14  28  14  29  14  30  14  31   8  32   8  33   8
M  ISO  6  34   8  35  14  36  14  37  14  38  14  39  11
M  END
>  <minimizedAffinity>  (1) 
-4.90880489

>  <minimizedRMSD>  (1) 
2.8007226

$$$$
