
     RDKit          3D

 43 45  0  0  1  0  0  0  0  0999 V2000
   46.6210   32.5720   46.5120 C   0  0  2  0  0  0  0  0  0  0  0  0
   47.1530   32.6700   45.1360 C   0  0  1  0  0  0  0  0  0  0  0  0
   46.8470   31.3530   44.5530 O   0  0  0  0  0  0  0  0  0  0  0  0
   47.4800   30.5970   45.5630 C   0  0  0  0  0  0  0  0  0  0  0  0
   46.6710   31.0710   46.7810 C   0  0  2  0  0  0  0  0  0  0  0  0
   44.8080   35.2500   44.0750 C   0  0  0  0  0  0  0  0  0  0  0  0
   45.3600   35.7410   42.8900 C   0  0  0  0  0  0  0  0  0  0  0  0
   46.5700   35.1700   42.4330 C   0  0  0  0  0  0  0  0  0  0  0  0
   47.1370   34.1760   43.1620 N   0  0  0  0  0  0  0  0  0  0  0  0
   46.5820   33.7200   44.3040 C   0  0  0  0  0  0  0  0  0  0  0  0
   45.4190   34.2510   44.7680 N   0  0  0  0  0  0  0  0  0  0  0  0
   43.6120   35.7780   44.5780 O   0  0  0  0  0  0  0  0  0  0  0  0
   45.2350   32.9700   46.5100 O   0  0  0  0  0  0  0  0  0  0  0  0
   45.4450   30.5110   46.7280 O   0  0  0  0  0  0  0  0  0  0  0  0
   45.1130   29.5730   47.6620 C   0  0  0  0  0  0  0  0  0  0  0  0
   45.5540   28.1650   47.3000 C   0  0  0  0  0  0  0  0  0  0  0  0
   44.0580   26.3040   47.9060 C   0  0  0  0  0  0  0  0  0  0  0  0
   44.3210   27.3800   47.0640 C   0  0  0  0  0  0  0  0  0  0  0  0
   43.4070   27.6380   46.0650 C   0  0  0  0  0  0  0  0  0  0  0  0
   42.2580   26.9130   45.8400 C   0  0  0  0  0  0  0  0  0  0  0  0
   41.9610   25.8400   46.6510 C   0  0  0  0  0  0  0  0  0  0  0  0
   42.8830   25.5780   47.6600 C   0  0  0  0  0  0  0  0  0  0  0  0
   45.0140   25.7290   49.2340 S   0  0  0  0  0  0  0  0  0  0  0  0
   44.1700   25.8660   50.4990 O   0  0  0  0  0  0  0  0  0  0  0  0
   45.4020   24.3030   49.1610 O   0  0  0  0  0  0  0  0  0  0  0  0
   47.1683   33.1895   47.2395 H   0  0  0  0  0  0  0  0  0  0  0  0
   48.2195   32.9364   45.1767 H   0  0  0  0  0  0  0  0  0  0  0  0
   47.3718   29.5154   45.3944 H   0  0  0  0  0  0  0  0  0  0  0  0
   48.5681   30.7383   45.6405 H   0  0  0  0  0  0  0  0  0  0  0  0
   47.0786   30.8156   47.7702 H   0  0  0  0  0  0  0  0  0  0  0  0
   44.8677   36.5486   42.3284 H   0  0  0  0  0  0  0  0  0  0  0  0
   47.0423   35.5245   41.5050 H   0  0  0  0  0  0  0  0  0  0  0  0
   43.1488   36.5054   44.0917 H   0  0  0  0  0  0  0  0  0  0  0  0
   44.9166   33.0614   47.4429 H   0  0  0  0  0  0  0  0  0  0  0  0
   45.5861   29.8503   48.6155 H   0  0  0  0  0  0  0  0  0  0  0  0
   44.0149   29.5586   47.7256 H   0  0  0  0  0  0  0  0  0  0  0  0
   46.1716   28.1835   46.3899 H   0  0  0  0  0  0  0  0  0  0  0  0
   46.1579   27.7205   48.1048 H   0  0  0  0  0  0  0  0  0  0  0  0
   43.6109   28.4876   45.3967 H   0  0  0  0  0  0  0  0  0  0  0  0
   41.5816   27.1891   45.0177 H   0  0  0  0  0  0  0  0  0  0  0  0
   41.0558   25.2310   46.5106 H   0  0  0  0  0  0  0  0  0  0  0  0
   42.6718   24.7263   48.3233 H   0  0  0  0  0  0  0  0  0  0  0  0
   46.1655   26.4711   49.2156 H   0  0  0  0  0  0  0  0  0  0  0  0
  1  5  1  0
  2  1  1  0
  3  2  1  0
  3  4  1  0
  4  5  1  0
  6 12  1  0
  6 11  2  0
  7  6  1  0
  8  7  2  0
  8  9  1  0
  9 10  2  0
 10 11  1  0
 10  2  1  0
 13  1  1  0
 14  5  1  0
 14 15  1  0
 16 15  1  0
 17 23  1  0
 18 16  1  0
 18 17  2  0
 19 18  1  0
 20 19  2  0
 20 21  1  0
 21 22  2  0
 22 17  1  0
 23 24  2  0
 25 23  2  0
  1 26  1  1
  2 27  1  1
  4 28  1  0
  4 29  1  0
  5 30  1  1
  7 31  1  0
  8 32  1  0
 12 33  1  0
 13 34  1  0
 15 35  1  0
 15 36  1  0
 16 37  1  0
 16 38  1  0
 19 39  1  0
 20 40  1  0
 21 41  1  0
 22 42  1  0
 23 43  1  0
M  ISO  8  26  13  27  13  28  13  29  13  30  13  31  14  32  14  33   3
M  ISO  8  34   3  35   8  36   8  37   8  38   8  39  14  40  14  41  14
M  ISO  2  42  14  43  11
M  END
>  <minimizedAffinity>  (1) 
-6.03584385

>  <minimizedRMSD>  (1) 
1.90680528

$$$$
