
     RDKit          3D

 55 58  0  0  0  0  0  0  0  0999 V2000
   50.4660   31.3420   42.5930 C   0  0  0  0  0  0  0  0  0  0  0  0
   51.4180   31.1700   41.6630 N   0  0  0  0  0  0  0  0  0  0  0  0
   52.0300   29.9710   41.8670 C   0  0  0  0  0  0  0  0  0  0  0  0
   51.4360   29.4140   42.9390 N   0  0  0  0  0  0  0  0  0  0  0  0
   50.4870   30.2400   43.3840 N   0  0  0  0  0  0  0  0  0  0  0  0
   47.7460   33.8060   42.8710 C   0  0  0  0  0  0  0  0  0  0  0  0
   48.4410   34.9820   42.4610 C   0  0  0  0  0  0  0  0  0  0  0  0
   49.7940   34.9090   42.1040 C   0  0  0  0  0  0  0  0  0  0  0  0
   50.3780   33.6740   42.1750 N   0  0  0  0  0  0  0  0  0  0  0  0
   49.6700   32.5600   42.5770 C   0  0  0  0  0  0  0  0  0  0  0  0
   48.3950   32.6450   42.9100 N   0  0  0  0  0  0  0  0  0  0  0  0
   46.3440   34.0170   43.2200 C   0  0  0  0  0  0  0  0  0  0  0  0
   45.6900   35.0760   42.4900 C   0  0  0  0  0  0  0  0  0  0  0  0
   45.2990   36.2470   43.3050 C   0  0  0  0  0  0  0  0  0  0  0  0
   44.4380   35.8270   44.4960 C   0  0  0  0  0  0  0  0  0  0  0  0
   44.9160   34.5960   45.1880 C   0  0  0  0  0  0  0  0  0  0  0  0
   46.3370   34.2460   44.7700 C   0  0  0  0  0  0  0  0  0  0  0  0
   51.7580   28.1530   43.5550 C   0  0  0  0  0  0  0  0  0  0  0  0
   51.4780   28.2240   44.9910 C   0  0  0  0  0  0  0  0  0  0  0  0
   52.1730   28.6320   46.0510 C   0  0  0  0  0  0  0  0  0  0  0  0
   51.6630   28.7040   47.5020 C   0  0  0  0  0  0  0  0  0  0  0  0
   51.3780   30.4340   49.2080 C   0  0  0  0  0  0  0  0  0  0  0  0
   52.0900   29.9430   48.1500 C   0  0  0  0  0  0  0  0  0  0  0  0
   53.2180   30.6380   47.7080 C   0  0  0  0  0  0  0  0  0  0  0  0
   53.6630   31.8080   48.2860 C   0  0  0  0  0  0  0  0  0  0  0  0
   52.9600   32.3090   49.3460 C   0  0  0  0  0  0  0  0  0  0  0  0
   51.8470   31.6170   49.7760 C   0  0  0  0  0  0  0  0  0  0  0  0
   49.9610   29.7370   49.9060 S   0  0  0  0  0  0  0  0  0  0  0  0
   50.1500   29.4810   51.3830 O   0  0  0  0  0  0  0  0  0  0  0  0
   48.7390   30.5950   49.7700 O   0  0  0  0  0  0  0  0  0  0  0  0
   52.8496   29.5414   41.2722 H   0  0  0  0  0  0  0  0  0  0  0  0
   47.9144   35.9471   42.4250 H   0  0  0  0  0  0  0  0  0  0  0  0
   50.3569   35.7980   41.7835 H   0  0  0  0  0  0  0  0  0  0  0  0
   45.7456   33.1411   42.9291 H   0  0  0  0  0  0  0  0  0  0  0  0
   46.3757   35.4218   41.7025 H   0  0  0  0  0  0  0  0  0  0  0  0
   44.7556   34.6481   42.0979 H   0  0  0  0  0  0  0  0  0  0  0  0
   46.2067   36.7454   43.6761 H   0  0  0  0  0  0  0  0  0  0  0  0
   44.7122   36.9309   42.6742 H   0  0  0  0  0  0  0  0  0  0  0  0
   44.4296   36.6515   45.2241 H   0  0  0  0  0  0  0  0  0  0  0  0
   43.4372   35.6001   44.0999 H   0  0  0  0  0  0  0  0  0  0  0  0
   44.8927   34.7635   46.2749 H   0  0  0  0  0  0  0  0  0  0  0  0
   44.2556   33.7614   44.9098 H   0  0  0  0  0  0  0  0  0  0  0  0
   46.6622   33.3295   45.2841 H   0  0  0  0  0  0  0  0  0  0  0  0
   47.0257   35.0606   45.0388 H   0  0  0  0  0  0  0  0  0  0  0  0
   51.1484   27.3575   43.1017 H   0  0  0  0  0  0  0  0  0  0  0  0
   52.8244   27.9318   43.4004 H   0  0  0  0  0  0  0  0  0  0  0  0
   50.4729   27.8604   45.2508 H   0  0  0  0  0  0  0  0  0  0  0  0
   53.2115   28.9480   45.8729 H   0  0  0  0  0  0  0  0  0  0  0  0
   50.5639   28.6607   47.4989 H   0  0  0  0  0  0  0  0  0  0  0  0
   52.0822   27.8549   48.0618 H   0  0  0  0  0  0  0  0  0  0  0  0
   53.7804   30.2309   46.8547 H   0  0  0  0  0  0  0  0  0  0  0  0
   54.5573   32.3231   47.9054 H   0  0  0  0  0  0  0  0  0  0  0  0
   53.2735   33.2391   49.8427 H   0  0  0  0  0  0  0  0  0  0  0  0
   51.2888   32.0290   50.6296 H   0  0  0  0  0  0  0  0  0  0  0  0
   49.7722   28.5726   49.2093 H   0  0  0  0  0  0  0  0  0  0  0  0
  1  5  2  0
  2  3  2  0
  2  1  1  0
  3  4  1  0
  4  5  1  0
  4 18  1  0
  6 11  1  0
  6 12  1  0
  7  6  2  0
  8  9  2  0
  8  7  1  0
  9 10  1  0
 10  1  1  0
 10 11  2  0
 12 17  1  0
 13 12  1  0
 13 14  1  0
 14 15  1  0
 15 16  1  0
 17 16  1  0
 18 19  1  0
 19 20  2  0
 20 21  1  0
 21 23  1  0
 22 27  2  0
 22 28  1  0
 23 22  1  0
 24 23  2  0
 24 25  1  0
 25 26  2  0
 26 27  1  0
 28 29  2  0
 30 28  2  0
  3 31  1  0
  7 32  1  0
  8 33  1  0
 12 34  1  0
 13 35  1  0
 13 36  1  0
 14 37  1  0
 14 38  1  0
 15 39  1  0
 15 40  1  0
 16 41  1  0
 16 42  1  0
 17 43  1  0
 17 44  1  0
 18 45  1  0
 18 46  1  0
 19 47  1  0
 20 48  1  0
 21 49  1  0
 21 50  1  0
 24 51  1  0
 25 52  1  0
 26 53  1  0
 27 54  1  0
 28 55  1  0
M  ISO  8  31  14  32  14  33  14  34  13  35  13  36  13  37  13  38  13
M  ISO  8  39  13  40  13  41  13  42  13  43  13  44  13  45   8  46   8
M  ISO  7  49   8  50   8  51  14  52  14  53  14  54  14  55  11
M  END
>  <minimizedAffinity>  (1) 
-5.09708023

>  <minimizedRMSD>  (1) 
3.21202493

$$$$
