
     RDKit          3D

 40 42  0  0  0  0  0  0  0  0999 V2000
   44.1170   34.9630   41.7830 C   0  0  0  0  0  0  0  0  0  0  0  0
   44.8010   34.8180   40.7490 O   0  0  0  0  0  0  0  0  0  0  0  0
   44.6870   35.1600   44.1590 C   0  0  0  0  0  0  0  0  0  0  0  0
   44.6090   34.3680   43.0220 C   0  0  0  0  0  0  0  0  0  0  0  0
   44.9950   33.0200   43.0460 C   0  0  0  0  0  0  0  0  0  0  0  0
   45.4490   32.5310   44.2460 N   0  0  0  0  0  0  0  0  0  0  0  0
   45.5210   33.3060   45.3380 C   0  0  0  0  0  0  0  0  0  0  0  0
   45.1460   34.5940   45.2900 N   0  0  0  0  0  0  0  0  0  0  0  0
   46.0120   32.7530   46.5920 C   0  0  0  0  0  0  0  0  0  0  0  0
   47.2240   32.1500   46.7030 C   0  0  0  0  0  0  0  0  0  0  0  0
   47.7000   31.6250   47.8700 C   0  0  0  0  0  0  0  0  0  0  0  0
   46.8960   31.7280   48.9560 N   0  0  0  0  0  0  0  0  0  0  0  0
   45.7190   32.3150   48.8400 C   0  0  0  0  0  0  0  0  0  0  0  0
   45.2100   32.8460   47.7110 N   0  0  0  0  0  0  0  0  0  0  0  0
   43.0080   35.6910   41.4710 O   0  0  0  0  0  0  0  0  0  0  0  0
   41.7200   35.1880   41.5730 C   0  0  0  0  0  0  0  0  0  0  0  0
   40.6970   36.0410   40.8730 C   0  0  0  0  0  0  0  0  0  0  0  0
   40.3310   35.3000   38.6120 C   0  0  0  0  0  0  0  0  0  0  0  0
   39.9550   35.1670   39.9260 C   0  0  0  0  0  0  0  0  0  0  0  0
   38.9530   34.2910   40.2800 C   0  0  0  0  0  0  0  0  0  0  0  0
   38.2820   33.5150   39.3610 C   0  0  0  0  0  0  0  0  0  0  0  0
   38.6490   33.6340   38.0140 C   0  0  0  0  0  0  0  0  0  0  0  0
   39.6670   34.5270   37.6710 C   0  0  0  0  0  0  0  0  0  0  0  0
   41.5440   36.2710   37.8300 S   0  0  0  0  0  0  0  0  0  0  0  0
   40.9920   36.6910   36.4830 O   0  0  0  0  0  0  0  0  0  0  0  0
   42.8490   35.5980   37.6270 O   0  0  0  0  0  0  0  0  0  0  0  0
   44.3832   36.2170   44.1362 H   0  0  0  0  0  0  0  0  0  0  0  0
   44.9370   32.3864   42.1487 H   0  0  0  0  0  0  0  0  0  0  0  0
   47.8556   32.0810   45.8050 H   0  0  0  0  0  0  0  0  0  0  0  0
   48.6869   31.1425   47.9259 H   0  0  0  0  0  0  0  0  0  0  0  0
   45.0984   32.3760   49.7462 H   0  0  0  0  0  0  0  0  0  0  0  0
   41.7006   34.1820   41.1284 H   0  0  0  0  0  0  0  0  0  0  0  0
   41.4578   35.1708   42.6412 H   0  0  0  0  0  0  0  0  0  0  0  0
   40.0020   36.4725   41.6083 H   0  0  0  0  0  0  0  0  0  0  0  0
   41.1855   36.8667   40.3349 H   0  0  0  0  0  0  0  0  0  0  0  0
   38.6769   34.2076   41.3415 H   0  0  0  0  0  0  0  0  0  0  0  0
   37.4847   32.8249   39.6740 H   0  0  0  0  0  0  0  0  0  0  0  0
   38.1449   33.0354   37.2410 H   0  0  0  0  0  0  0  0  0  0  0  0
   39.9533   34.6208   36.6131 H   0  0  0  0  0  0  0  0  0  0  0  0
   41.8050   37.3293   38.6599 H   0  0  0  0  0  0  0  0  0  0  0  0
  1  4  1  0
  2  1  2  0
  3  8  2  0
  4  5  2  0
  4  3  1  0
  5  6  1  0
  6  7  2  0
  7  9  1  0
  8  7  1  0
  9 10  2  0
  9 14  1  0
 10 11  1  0
 11 12  2  0
 13 12  1  0
 14 13  2  0
 15 16  1  0
 15  1  1  0
 17 16  1  0
 18 19  2  0
 19 20  1  0
 19 17  1  0
 21 20  2  0
 22 21  1  0
 23 22  2  0
 23 18  1  0
 24 18  1  0
 25 24  2  0
 26 24  2  0
  3 27  1  0
  5 28  1  0
 10 29  1  0
 11 30  1  0
 13 31  1  0
 16 32  1  0
 16 33  1  0
 17 34  1  0
 17 35  1  0
 20 36  1  0
 21 37  1  0
 22 38  1  0
 23 39  1  0
 24 40  1  0
M  ISO  8  27  14  28  14  29  14  30  14  31  14  32   8  33   8  34   8
M  ISO  6  35   8  36  14  37  14  38  14  39  14  40  11
M  END
>  <minimizedAffinity>  (1) 
-6.43919516

>  <minimizedRMSD>  (1) 
1.15297425

$$$$
