
     RDKit          3D

 49 52  0  0  0  0  0  0  0  0999 V2000
   44.9890   35.4490   43.3890 C   0  0  0  0  0  0  0  0  0  0  0  0
   45.4410   34.1400   43.4190 C   0  0  0  0  0  0  0  0  0  0  0  0
   45.4780   33.4520   44.6070 C   0  0  0  0  0  0  0  0  0  0  0  0
   45.0460   34.1270   45.7310 N   0  0  0  0  0  0  0  0  0  0  0  0
   44.6130   35.3840   45.6990 C   0  0  0  0  0  0  0  0  0  0  0  0
   44.5900   36.0350   44.5160 N   0  0  0  0  0  0  0  0  0  0  0  0
   45.9080   32.1190   44.8040 C   0  0  0  0  0  0  0  0  0  0  0  0
   45.6390   31.0710   43.9180 C   0  0  0  0  0  0  0  0  0  0  0  0
   45.9970   29.7660   44.1390 C   0  0  0  0  0  0  0  0  0  0  0  0
   46.6640   29.4280   45.2940 C   0  0  0  0  0  0  0  0  0  0  0  0
   46.9460   30.4750   46.2000 C   0  0  0  0  0  0  0  0  0  0  0  0
   47.6070   30.1550   47.3610 C   0  0  0  0  0  0  0  0  0  0  0  0
   47.9150   31.1250   48.2940 C   0  0  0  0  0  0  0  0  0  0  0  0
   47.5460   32.4570   48.0460 C   0  0  0  0  0  0  0  0  0  0  0  0
   46.8700   32.7430   46.8460 C   0  0  0  0  0  0  0  0  0  0  0  0
   46.5760   31.7570   45.9450 C   0  0  0  0  0  0  0  0  0  0  0  0
   45.8350   33.5870   42.2310 O   0  0  0  0  0  0  0  0  0  0  0  0
   48.1840   32.6120   41.6150 O   0  0  0  0  0  0  0  0  0  0  0  0
   47.3470   33.8380   41.5100 P   0  0  1  0  0  0  0  0  0  0  0  0
   47.1780   34.1770   39.8580 O   0  0  0  0  0  0  0  0  0  0  0  0
   47.1830   32.6070   38.0990 C   0  0  0  0  0  0  0  0  0  0  0  0
   46.4610   33.2970   39.0570 C   0  0  0  0  0  0  0  0  0  0  0  0
   45.1070   33.0820   39.1650 C   0  0  0  0  0  0  0  0  0  0  0  0
   44.4740   32.1860   38.3250 C   0  0  0  0  0  0  0  0  0  0  0  0
   45.1760   31.4850   37.3600 C   0  0  0  0  0  0  0  0  0  0  0  0
   46.5350   31.7060   37.2580 C   0  0  0  0  0  0  0  0  0  0  0  0
   48.9040   32.7680   37.8360 S   0  0  0  0  0  0  0  0  0  0  0  0
   49.1680   34.0580   37.0840 O   0  0  0  0  0  0  0  0  0  0  0  0
   49.4240   31.6360   36.9970 O   0  0  0  0  0  0  0  0  0  0  0  0
   48.0800   35.1450   42.2600 O   0  0  0  0  0  0  0  0  0  0  0  0
   49.3940   35.5570   42.1100 C   0  0  0  0  0  0  0  0  0  0  0  0
   49.3510   36.4370   41.2290 O   0  0  0  0  0  0  0  0  0  0  0  0
   50.2650   34.8300   43.0000 N   0  0  0  0  0  0  0  0  0  0  0  0
   44.9598   36.0018   42.4385 H   0  0  0  0  0  0  0  0  0  0  0  0
   44.2794   35.8847   46.6199 H   0  0  0  0  0  0  0  0  0  0  0  0
   45.1067   31.3085   42.9851 H   0  0  0  0  0  0  0  0  0  0  0  0
   45.7520   28.9926   43.3961 H   0  0  0  0  0  0  0  0  0  0  0  0
   46.9639   28.3904   45.5025 H   0  0  0  0  0  0  0  0  0  0  0  0
   47.8952   29.1104   47.5501 H   0  0  0  0  0  0  0  0  0  0  0  0
   48.4434   30.8575   49.2210 H   0  0  0  0  0  0  0  0  0  0  0  0
   47.7786   33.2531   48.7686 H   0  0  0  0  0  0  0  0  0  0  0  0
   46.5722   33.7793   46.6282 H   0  0  0  0  0  0  0  0  0  0  0  0
   44.5252   33.6259   39.9237 H   0  0  0  0  0  0  0  0  0  0  0  0
   43.3902   32.0266   38.4253 H   0  0  0  0  0  0  0  0  0  0  0  0
   44.6664   30.7730   36.6941 H   0  0  0  0  0  0  0  0  0  0  0  0
   47.1158   31.1610   36.4993 H   0  0  0  0  0  0  0  0  0  0  0  0
   49.5295   32.7613   39.0548 H   0  0  0  0  0  0  0  0  0  0  0  0
   51.2762   35.0257   43.0046 H   0  0  0  0  0  0  0  0  0  0  0  0
   49.8759   34.1150   43.6311 H   0  0  0  0  0  0  0  0  0  0  0  0
  1  2  2  0
  1  6  1  0
  2  3  1  0
  3  7  1  0
  3  4  2  0
  5  4  1  0
  6  5  2  0
  7 16  2  0
  8  9  2  0
  8  7  1  0
  9 10  1  0
 10 11  2  0
 11 12  1  0
 12 13  2  0
 14 13  1  0
 15 14  2  0
 16 11  1  0
 16 15  1  0
 17  2  1  0
 19 18  2  0
 19 17  1  0
 19 30  1  0
 20 19  1  0
 21 22  2  0
 22 23  1  0
 22 20  1  0
 24 23  2  0
 25 24  1  0
 26 25  2  0
 26 21  1  0
 27 21  1  0
 28 27  2  0
 29 27  2  0
 31 30  1  0
 31 33  1  0
 32 31  2  0
  1 34  1  0
  5 35  1  0
  8 36  1  0
  9 37  1  0
 10 38  1  0
 12 39  1  0
 13 40  1  0
 14 41  1  0
 15 42  1  0
 23 43  1  0
 24 44  1  0
 25 45  1  0
 26 46  1  0
 27 47  1  0
 33 48  1  0
 33 49  1  0
M  ISO  8  34  14  35  14  36  14  37  14  38  14  39  14  40  14  41  14
M  ISO  6  42  14  43  14  44  14  45  14  46  14  47  11
M  END
>  <minimizedAffinity>  (1) 
-6.30703259

>  <minimizedRMSD>  (1) 
1.39122236

$$$$
