
     RDKit          3D

 36 38  0  0  0  0  0  0  0  0999 V2000
   45.1960   32.6940   38.9860 Cl  0  0  0  0  0  0  0  0  0  0  0  0
   45.7850   33.7090   40.2740 C   0  0  0  0  0  0  0  0  0  0  0  0
   44.9260   34.2230   41.2080 C   0  0  0  0  0  0  0  0  0  0  0  0
   45.3590   35.0420   42.2580 C   0  0  0  0  0  0  0  0  0  0  0  0
   46.7070   35.2950   42.2890 C   0  0  0  0  0  0  0  0  0  0  0  0
   47.5820   34.7870   41.3590 C   0  0  0  0  0  0  0  0  0  0  0  0
   47.1310   34.0030   40.3630 C   0  0  0  0  0  0  0  0  0  0  0  0
   41.6900   32.4700   41.5380 C   0  0  0  0  0  0  0  0  0  0  0  0
   40.7990   33.3640   40.9090 C   0  0  0  0  0  0  0  0  0  0  0  0
   41.3150   34.5490   40.3840 C   0  0  0  0  0  0  0  0  0  0  0  0
   42.6440   34.7840   40.5020 N   0  0  0  0  0  0  0  0  0  0  0  0
   43.4940   33.9100   41.1120 C   0  0  0  0  0  0  0  0  0  0  0  0
   42.9970   32.7670   41.6190 N   0  0  0  0  0  0  0  0  0  0  0  0
   40.4640   35.5750   39.6940 C   0  0  0  0  0  0  0  0  0  0  0  0
   39.9080   36.4400   40.6130 F   0  0  0  0  0  0  0  0  0  0  0  0
   41.2560   36.2980   38.8260 F   0  0  0  0  0  0  0  0  0  0  0  0
   39.4950   34.8950   39.0050 F   0  0  0  0  0  0  0  0  0  0  0  0
   48.8200   32.3230   39.5510 C   0  0  0  0  0  0  0  0  0  0  0  0
   48.0520   33.4510   39.3620 C   0  0  0  0  0  0  0  0  0  0  0  0
   48.1040   34.1570   38.1770 C   0  0  0  0  0  0  0  0  0  0  0  0
   48.9570   33.6940   37.1780 C   0  0  0  0  0  0  0  0  0  0  0  0
   49.7340   32.5630   37.3510 C   0  0  0  0  0  0  0  0  0  0  0  0
   49.6530   31.8760   38.5650 C   0  0  0  0  0  0  0  0  0  0  0  0
   48.7030   31.4830   41.0690 S   0  0  0  0  0  0  0  0  0  0  0  0
   49.0520   30.0360   40.8320 O   0  0  0  0  0  0  0  0  0  0  0  0
   49.7550   32.0120   42.0130 O   0  0  0  0  0  0  0  0  0  0  0  0
   44.6661   35.4541   43.0064 H   0  0  0  0  0  0  0  0  0  0  0  0
   47.1046   35.9319   43.0929 H   0  0  0  0  0  0  0  0  0  0  0  0
   48.6543   35.0221   41.4291 H   0  0  0  0  0  0  0  0  0  0  0  0
   41.3137   31.5278   41.9630 H   0  0  0  0  0  0  0  0  0  0  0  0
   39.7261   33.1332   40.8344 H   0  0  0  0  0  0  0  0  0  0  0  0
   47.4906   35.0576   38.0263 H   0  0  0  0  0  0  0  0  0  0  0  0
   49.0142   34.2424   36.2262 H   0  0  0  0  0  0  0  0  0  0  0  0
   50.4013   32.2119   36.5501 H   0  0  0  0  0  0  0  0  0  0  0  0
   50.2610   30.9737   38.7270 H   0  0  0  0  0  0  0  0  0  0  0  0
   47.4425   31.6430   41.5813 H   0  0  0  0  0  0  0  0  0  0  0  0
  1  2  1  0
  2  7  2  0
  2  3  1  0
  3  4  2  0
  4  5  1  0
  6  5  2  0
  7  6  1  0
  8 13  2  0
  9  8  1  0
 10 11  1  0
 10  9  2  0
 11 12  2  0
 12  3  1  0
 12 13  1  0
 14 10  1  0
 14 15  1  0
 16 14  1  0
 17 14  1  0
 18 24  1  0
 19 18  2  0
 19  7  1  0
 20 19  1  0
 21 22  1  0
 21 20  2  0
 22 23  2  0
 23 18  1  0
 24 26  2  0
 25 24  2  0
  4 27  1  0
  5 28  1  0
  6 29  1  0
  8 30  1  0
  9 31  1  0
 20 32  1  0
 21 33  1  0
 22 34  1  0
 23 35  1  0
 24 36  1  0
M  ISO  8  27  14  28  14  29  14  30  14  31  14  32  14  33  14  34  14
M  ISO  2  35  14  36  11
M  END
>  <minimizedAffinity>  (1) 
-6.10308599

>  <minimizedRMSD>  (1) 
5.55122852

$$$$
