
     RDKit          3D

 33 35  0  0  0  0  0  0  0  0999 V2000
   46.6000   34.5920   42.1330 C   0  0  0  0  0  0  0  0  0  0  0  0
   47.7530   35.3240   41.9220 C   0  0  0  0  0  0  0  0  0  0  0  0
   48.4670   35.2290   40.7580 C   0  0  0  0  0  0  0  0  0  0  0  0
   47.9910   34.3660   39.7870 C   0  0  0  0  0  0  0  0  0  0  0  0
   46.8390   33.6020   39.9360 C   0  0  0  0  0  0  0  0  0  0  0  0
   46.1720   33.7620   41.1570 C   0  0  0  0  0  0  0  0  0  0  0  0
   44.4700   35.9100   44.9670 C   0  0  0  0  0  0  0  0  0  0  0  0
   45.0650   35.8420   43.6740 C   0  0  0  0  0  0  0  0  0  0  0  0
   45.9320   34.7720   43.4020 C   0  0  0  0  0  0  0  0  0  0  0  0
   46.1450   33.8650   44.4040 N   0  0  0  0  0  0  0  0  0  0  0  0
   45.5710   33.9500   45.6240 C   0  0  0  0  0  0  0  0  0  0  0  0
   44.7330   34.9700   45.9080 N   0  0  0  0  0  0  0  0  0  0  0  0
   43.6370   33.3070   41.0620 C   0  0  0  0  0  0  0  0  0  0  0  0
   44.9580   32.9630   41.3030 C   0  0  0  0  0  0  0  0  0  0  0  0
   45.2600   31.6790   41.7730 C   0  0  0  0  0  0  0  0  0  0  0  0
   44.2390   30.7630   41.9940 C   0  0  0  0  0  0  0  0  0  0  0  0
   42.9130   31.0980   41.7560 C   0  0  0  0  0  0  0  0  0  0  0  0
   42.6520   32.3640   41.2950 C   0  0  0  0  0  0  0  0  0  0  0  0
   43.4290   34.9190   40.4810 S   0  0  0  0  0  0  0  0  0  0  0  0
   42.4760   35.7440   41.2970 O   0  0  0  0  0  0  0  0  0  0  0  0
   42.8180   34.8270   39.0890 O   0  0  0  0  0  0  0  0  0  0  0  0
   48.1072   36.0025   42.7121 H   0  0  0  0  0  0  0  0  0  0  0  0
   49.3838   35.8161   40.6007 H   0  0  0  0  0  0  0  0  0  0  0  0
   48.5545   34.2797   38.8462 H   0  0  0  0  0  0  0  0  0  0  0  0
   46.4775   32.9210   39.1514 H   0  0  0  0  0  0  0  0  0  0  0  0
   43.7865   36.7382   45.2055 H   0  0  0  0  0  0  0  0  0  0  0  0
   44.8512   36.6055   42.9115 H   0  0  0  0  0  0  0  0  0  0  0  0
   45.7865   33.1874   46.3869 H   0  0  0  0  0  0  0  0  0  0  0  0
   46.3050   31.3957   41.9671 H   0  0  0  0  0  0  0  0  0  0  0  0
   44.4852   29.7565   42.3634 H   0  0  0  0  0  0  0  0  0  0  0  0
   42.1019   30.3757   41.9304 H   0  0  0  0  0  0  0  0  0  0  0  0
   41.6059   32.6432   41.1008 H   0  0  0  0  0  0  0  0  0  0  0  0
   44.6605   35.5175   40.5267 H   0  0  0  0  0  0  0  0  0  0  0  0
  1  9  1  0
  2  1  2  0
  3  2  1  0
  4  5  1  0
  4  3  2  0
  5  6  2  0
  6 14  1  0
  6  1  1  0
  7 12  2  0
  8  7  1  0
  9  8  2  0
  9 10  1  0
 10 11  2  0
 11 12  1  0
 13 18  2  0
 13 14  1  0
 14 15  2  0
 15 16  1  0
 17 16  2  0
 18 17  1  0
 19 13  1  0
 19 20  2  0
 21 19  2  0
  2 22  1  0
  3 23  1  0
  4 24  1  0
  5 25  1  0
  7 26  1  0
  8 27  1  0
 11 28  1  0
 15 29  1  0
 16 30  1  0
 17 31  1  0
 18 32  1  0
 19 33  1  0
M  ISO  8  22  14  23  14  24  14  25  14  26  14  27  14  28  14  29  14
M  ISO  4  30  14  31  14  32  14  33  11
M  END
>  <minimizedAffinity>  (1) 
-5.70504761

>  <minimizedRMSD>  (1) 
0.841684937

$$$$
