
     RDKit          3D

 50 53  0  0  1  0  0  0  0  0999 V2000
   47.5430   35.4460   41.9590 C   0  0  0  0  0  0  0  0  0  0  0  0
   48.8380   34.8270   41.5820 C   0  0  1  0  0  0  0  0  0  0  0  0
   50.0070   34.9670   42.5150 C   0  0  0  0  0  0  0  0  0  0  0  0
   49.2940   33.6820   42.3510 C   0  0  2  0  0  0  0  0  0  0  0  0
   50.0350   32.7050   41.5470 N   0  0  0  0  0  0  0  0  0  0  0  0
   49.3790   32.2440   40.4020 C   0  0  0  0  0  0  0  0  0  0  0  0
   50.3290   31.2440   39.7650 C   0  0  0  0  0  0  0  0  0  0  0  0
   50.5610   30.1120   40.6080 N   0  0  0  0  0  0  0  0  0  0  0  0
   50.4290   30.3950   42.0250 C   0  0  0  0  0  0  0  0  0  0  0  0
   50.8550   31.8320   42.3000 C   0  0  0  0  0  0  0  0  0  0  0  0
   46.5480   34.3340   42.1170 C   0  0  0  0  0  0  0  0  0  0  0  0
   44.6090   35.5780   45.0710 C   0  0  0  0  0  0  0  0  0  0  0  0
   45.1700   35.5140   43.7770 C   0  0  0  0  0  0  0  0  0  0  0  0
   45.9390   34.4330   43.4820 C   0  0  0  0  0  0  0  0  0  0  0  0
   46.1310   33.4830   44.4210 N   0  0  0  0  0  0  0  0  0  0  0  0
   45.6160   33.5310   45.6240 C   0  0  0  0  0  0  0  0  0  0  0  0
   44.8470   34.5910   45.9520 N   0  0  0  0  0  0  0  0  0  0  0  0
   46.1450   31.2390   46.5300 C   0  0  0  0  0  0  0  0  0  0  0  0
   45.7680   32.5490   46.6920 C   0  0  0  0  0  0  0  0  0  0  0  0
   45.5290   32.8720   48.0240 C   0  0  0  0  0  0  0  0  0  0  0  0
   45.6390   32.0300   49.0890 C   0  0  0  0  0  0  0  0  0  0  0  0
   46.0200   30.7290   48.8700 C   0  0  0  0  0  0  0  0  0  0  0  0
   46.2670   30.3570   47.5840 C   0  0  0  0  0  0  0  0  0  0  0  0
   46.4920   30.6630   44.9230 S   0  0  0  0  0  0  0  0  0  0  0  0
   46.0220   29.2280   44.7980 O   0  0  0  0  0  0  0  0  0  0  0  0
   47.9980   30.6050   44.7580 O   0  0  0  0  0  0  0  0  0  0  0  0
   47.2125   36.1380   41.1704 H   0  0  0  0  0  0  0  0  0  0  0  0
   47.6412   36.0174   42.8938 H   0  0  0  0  0  0  0  0  0  0  0  0
   48.6713   35.0380   40.5154 H   0  0  0  0  0  0  0  0  0  0  0  0
   51.0240   35.0919   42.1149 H   0  0  0  0  0  0  0  0  0  0  0  0
   50.2660   35.6216   43.3602 H   0  0  0  0  0  0  0  0  0  0  0  0
   48.8127   32.9740   43.0417 H   0  0  0  0  0  0  0  0  0  0  0  0
   48.4312   31.7555   40.6723 H   0  0  0  0  0  0  0  0  0  0  0  0
   49.1310   33.0663   39.7147 H   0  0  0  0  0  0  0  0  0  0  0  0
   49.8947   30.8967   38.8159 H   0  0  0  0  0  0  0  0  0  0  0  0
   51.2928   31.7483   39.6012 H   0  0  0  0  0  0  0  0  0  0  0  0
   49.8820   29.3784   40.3595 H   0  0  0  0  0  0  0  0  0  0  0  0
   49.3808   30.2590   42.3296 H   0  0  0  0  0  0  0  0  0  0  0  0
   51.0701   29.7077   42.5965 H   0  0  0  0  0  0  0  0  0  0  0  0
   51.9064   31.9681   42.0066 H   0  0  0  0  0  0  0  0  0  0  0  0
   50.7492   32.0534   43.3723 H   0  0  0  0  0  0  0  0  0  0  0  0
   45.7626   34.4271   41.3524 H   0  0  0  0  0  0  0  0  0  0  0  0
   47.0469   33.3612   41.9960 H   0  0  0  0  0  0  0  0  0  0  0  0
   43.9790   36.4330   45.3574 H   0  0  0  0  0  0  0  0  0  0  0  0
   44.9917   36.3078   43.0367 H   0  0  0  0  0  0  0  0  0  0  0  0
   45.2218   33.9064   48.2375 H   0  0  0  0  0  0  0  0  0  0  0  0
   45.4261   32.3863   50.1077 H   0  0  0  0  0  0  0  0  0  0  0  0
   46.1216   30.0155   49.7010 H   0  0  0  0  0  0  0  0  0  0  0  0
   46.5735   29.3207   47.3787 H   0  0  0  0  0  0  0  0  0  0  0  0
   45.8861   31.4827   44.0076 H   0  0  0  0  0  0  0  0  0  0  0  0
  1 11  1  0
  2  1  1  0
  2  4  1  0
  2  3  1  0
  4  3  1  0
  5 10  1  0
  5  4  1  0
  6  5  1  0
  7  6  1  0
  7  8  1  0
  8  9  1  0
  9 10  1  0
 11 14  1  0
 12 17  2  0
 13 12  1  0
 14 13  2  0
 14 15  1  0
 15 16  2  0
 16 17  1  0
 16 19  1  0
 18 19  2  0
 18 23  1  0
 19 20  1  0
 20 21  2  0
 22 21  1  0
 23 22  2  0
 24 18  1  0
 25 24  2  0
 26 24  2  0
  1 27  1  0
  1 28  1  0
  2 29  1  6
  3 30  1  0
  3 31  1  0
  4 32  1  1
  6 33  1  0
  6 34  1  0
  7 35  1  0
  7 36  1  0
  8 37  1  0
  9 38  1  0
  9 39  1  0
 10 40  1  0
 10 41  1  0
 11 42  1  0
 11 43  1  0
 12 44  1  0
 13 45  1  0
 20 46  1  0
 21 47  1  0
 22 48  1  0
 23 49  1  0
 24 50  1  0
M  ISO  8  27   8  28   8  29  13  30  13  31  13  32  13  33  13  34  13
M  ISO  8  35  13  36  13  37   5  38  13  39  13  40  13  41  13  42   8
M  ISO  8  43   8  44  14  45  14  46  14  47  14  48  14  49  14  50  11
M  END
>  <minimizedAffinity>  (1) 
-5.84394312

>  <minimizedRMSD>  (1) 
0.71689266

$$$$
