
     RDKit          3D

 30 31  0  0  0  0  0  0  0  0999 V2000
   43.7080   35.5430   42.5260 C   0  0  0  0  0  0  0  0  0  0  0  0
   43.0730   35.0270   41.3800 C   0  0  0  0  0  0  0  0  0  0  0  0
   43.8620   34.3440   40.4450 C   0  0  0  0  0  0  0  0  0  0  0  0
   45.1920   34.2180   40.7000 N   0  0  0  0  0  0  0  0  0  0  0  0
   45.7680   34.7210   41.8000 C   0  0  0  0  0  0  0  0  0  0  0  0
   45.0140   35.3710   42.6870 N   0  0  0  0  0  0  0  0  0  0  0  0
   47.6930   33.4800   42.7640 C   0  0  0  0  0  0  0  0  0  0  0  0
   47.1990   34.5860   42.0720 C   0  0  0  0  0  0  0  0  0  0  0  0
   48.1120   35.5580   41.6490 C   0  0  0  0  0  0  0  0  0  0  0  0
   49.4630   35.4710   41.8840 C   0  0  0  0  0  0  0  0  0  0  0  0
   49.9710   34.3920   42.5610 C   0  0  0  0  0  0  0  0  0  0  0  0
   49.0540   33.4460   42.9690 C   0  0  0  0  0  0  0  0  0  0  0  0
   46.6270   32.2190   43.3280 S   0  0  0  0  0  0  0  0  0  0  0  0
   47.4940   31.0150   43.6540 O   0  0  0  0  0  0  0  0  0  0  0  0
   45.9440   32.6040   44.6080 O   0  0  0  0  0  0  0  0  0  0  0  0
   41.6450   35.1720   41.1270 C   0  0  0  0  0  0  0  0  0  0  0  0
   41.0310   34.9230   39.9970 C   0  0  0  0  0  0  0  0  0  0  0  0
   39.5380   35.1240   39.8910 C   0  0  0  0  0  0  0  0  0  0  0  0
   43.1244   36.0860   43.2840 H   0  0  0  0  0  0  0  0  0  0  0  0
   43.4185   33.9219   39.5311 H   0  0  0  0  0  0  0  0  0  0  0  0
   47.7303   36.4331   41.1026 H   0  0  0  0  0  0  0  0  0  0  0  0
   50.1360   36.2656   41.5296 H   0  0  0  0  0  0  0  0  0  0  0  0
   51.0465   34.2872   42.7665 H   0  0  0  0  0  0  0  0  0  0  0  0
   49.4502   32.5761   43.5134 H   0  0  0  0  0  0  0  0  0  0  0  0
   45.6849   31.9771   42.3632 H   0  0  0  0  0  0  0  0  0  0  0  0
   41.0241   35.5238   41.9641 H   0  0  0  0  0  0  0  0  0  0  0  0
   41.6021   34.5680   39.1265 H   0  0  0  0  0  0  0  0  0  0  0  0
   39.1034   35.1825   40.8998 H   0  0  0  0  0  0  0  0  0  0  0  0
   39.3314   36.0581   39.3480 H   0  0  0  0  0  0  0  0  0  0  0  0
   39.0917   34.2778   39.3480 H   0  0  0  0  0  0  0  0  0  0  0  0
  1  6  2  0
  2  1  1  0
  3  4  1  0
  3  2  2  0
  4  5  2  0
  5  8  1  0
  5  6  1  0
  7 12  2  0
  7 13  1  0
  8  7  1  0
  9 10  1  0
  9  8  2  0
 10 11  2  0
 11 12  1  0
 13 14  2  0
 13 15  2  0
 16  2  1  0
 17 16  2  0
 18 17  1  0
  1 19  1  0
  3 20  1  0
  9 21  1  0
 10 22  1  0
 11 23  1  0
 12 24  1  0
 13 25  1  0
 16 26  1  0
 17 27  1  0
 18 28  1  0
 18 29  1  0
 18 30  1  0
M  ISO  8  19  14  20  14  21  14  22  14  23  14  24  14  25  11  28   8
M  ISO  2  29   8  30   8
M  END
>  <minimizedAffinity>  (1) 
-5.10415173

>  <minimizedRMSD>  (1) 
4.51488209

$$$$
