
     RDKit          3D

 48 51  0  0  1  0  0  0  0  0999 V2000
   44.5530   35.5060   45.3520 C   0  0  0  0  0  0  0  0  0  0  0  0
   44.2790   35.8900   44.0300 C   0  0  0  0  0  0  0  0  0  0  0  0
   44.7300   35.0730   42.9750 C   0  0  0  0  0  0  0  0  0  0  0  0
   45.4120   33.9440   43.3040 N   0  0  0  0  0  0  0  0  0  0  0  0
   45.6580   33.6030   44.5930 C   0  0  0  0  0  0  0  0  0  0  0  0
   45.2280   34.3850   45.6240 N   0  0  0  0  0  0  0  0  0  0  0  0
   46.3860   32.3920   44.8410 N   0  0  0  0  0  0  0  0  0  0  0  0
   46.3720   31.9090   46.2200 C   0  0  0  0  0  0  0  0  0  0  0  0
   47.3800   30.8800   46.5380 C   0  0  0  0  0  0  0  0  0  0  0  0
   47.6580   30.0150   45.3530 C   0  0  0  0  0  0  0  0  0  0  0  0
   48.2050   30.9100   44.2850 C   0  0  0  0  0  0  0  0  0  0  0  0
   47.0760   31.7260   43.7630 C   0  0  2  0  0  0  0  0  0  0  0  0
   46.4000   31.3230   41.0080 F   0  0  0  0  0  0  0  0  0  0  0  0
   47.1550   32.4310   41.3130 C   0  0  0  0  0  0  0  0  0  0  0  0
   47.4760   32.6200   42.6480 C   0  0  0  0  0  0  0  0  0  0  0  0
   48.2410   33.7540   42.9090 C   0  0  0  0  0  0  0  0  0  0  0  0
   48.6580   34.6340   41.9360 C   0  0  0  0  0  0  0  0  0  0  0  0
   48.3110   34.4020   40.6180 C   0  0  0  0  0  0  0  0  0  0  0  0
   47.5640   33.3010   40.3330 C   0  0  0  0  0  0  0  0  0  0  0  0
   47.9970   32.3620   38.0290 C   0  0  0  0  0  0  0  0  0  0  0  0
   47.1630   32.9980   38.9530 C   0  0  0  0  0  0  0  0  0  0  0  0
   45.8860   33.3760   38.5820 C   0  0  0  0  0  0  0  0  0  0  0  0
   45.4000   33.1430   37.3070 C   0  0  0  0  0  0  0  0  0  0  0  0
   46.2450   32.5080   36.4010 C   0  0  0  0  0  0  0  0  0  0  0  0
   47.5080   32.1300   36.7570 C   0  0  0  0  0  0  0  0  0  0  0  0
   49.5840   31.9260   38.5940 S   0  0  0  0  0  0  0  0  0  0  0  0
   49.6500   30.5850   39.2330 O   0  0  0  0  0  0  0  0  0  0  0  0
   50.5340   31.8620   37.4050 O   0  0  0  0  0  0  0  0  0  0  0  0
   44.2052   36.1403   46.1807 H   0  0  0  0  0  0  0  0  0  0  0  0
   43.7208   36.8145   43.8212 H   0  0  0  0  0  0  0  0  0  0  0  0
   44.5377   35.3384   41.9250 H   0  0  0  0  0  0  0  0  0  0  0  0
   46.5440   32.7696   46.8832 H   0  0  0  0  0  0  0  0  0  0  0  0
   45.3924   31.4299   46.3645 H   0  0  0  0  0  0  0  0  0  0  0  0
   48.3123   31.3743   46.8485 H   0  0  0  0  0  0  0  0  0  0  0  0
   46.9893   30.2471   47.3484 H   0  0  0  0  0  0  0  0  0  0  0  0
   48.3952   29.2412   45.6133 H   0  0  0  0  0  0  0  0  0  0  0  0
   46.7445   29.5056   45.0124 H   0  0  0  0  0  0  0  0  0  0  0  0
   48.9799   31.5672   44.7064 H   0  0  0  0  0  0  0  0  0  0  0  0
   48.6595   30.3167   43.4779 H   0  0  0  0  0  0  0  0  0  0  0  0
   46.3467   31.0428   43.3034 H   0  0  0  0  0  0  0  0  0  0  0  0
   48.5282   33.9580   43.9511 H   0  0  0  0  0  0  0  0  0  0  0  0
   49.2616   35.5135   42.2046 H   0  0  0  0  0  0  0  0  0  0  0  0
   48.6304   35.0893   39.8208 H   0  0  0  0  0  0  0  0  0  0  0  0
   45.2395   33.8748   39.3190 H   0  0  0  0  0  0  0  0  0  0  0  0
   44.3830   33.4485   37.0201 H   0  0  0  0  0  0  0  0  0  0  0  0
   45.8888   32.3071   35.3798 H   0  0  0  0  0  0  0  0  0  0  0  0
   48.1496   31.6305   36.0162 H   0  0  0  0  0  0  0  0  0  0  0  0
   49.9188   32.8775   39.5211 H   0  0  0  0  0  0  0  0  0  0  0  0
  1  6  2  0
  2  1  1  0
  3  4  1  0
  3  2  2  0
  4  5  2  0
  5  7  1  0
  5  6  1  0
  7  8  1  0
  8  9  1  0
 10  9  1  0
 11 10  1  0
 12 11  1  0
 12  7  1  0
 13 14  1  0
 14 15  2  0
 15 16  1  0
 15 12  1  0
 17 16  2  0
 18 17  1  0
 19 18  2  0
 19 14  1  0
 20 26  1  0
 20 21  2  0
 21 19  1  0
 22 21  1  0
 23 22  2  0
 24 25  2  0
 24 23  1  0
 25 20  1  0
 26 27  2  0
 28 26  2  0
  1 29  1  0
  2 30  1  0
  3 31  1  0
  8 32  1  0
  8 33  1  0
  9 34  1  0
  9 35  1  0
 10 36  1  0
 10 37  1  0
 11 38  1  0
 11 39  1  0
 12 40  1  6
 16 41  1  0
 17 42  1  0
 18 43  1  0
 22 44  1  0
 23 45  1  0
 24 46  1  0
 25 47  1  0
 26 48  1  0
M  ISO  8  29  14  30  14  31  14  32  13  33  13  34  13  35  13  36  13
M  ISO  8  37  13  38  13  39  13  40  13  41  14  42  14  43  14  44  14
M  ISO  4  45  14  46  14  47  14  48  11
M  END
>  <minimizedAffinity>  (1) 
-5.68169403

>  <minimizedRMSD>  (1) 
2.34261107

$$$$
