
     RDKit          3D

 50 53  0  0  1  0  0  0  0  0999 V2000
   47.2520   34.4500   42.5310 C   0  0  1  0  0  0  0  0  0  0  0  0
   48.2090   33.3560   42.6920 C   0  0  0  0  0  0  0  0  0  0  0  0
   49.2320   33.5130   41.5690 C   0  0  0  0  0  0  0  0  0  0  0  0
   48.5080   33.1800   40.2770 C   0  0  0  0  0  0  0  0  0  0  0  0
   47.2560   33.9720   40.0460 C   0  0  0  0  0  0  0  0  0  0  0  0
   46.4560   34.3380   41.2270 C   0  0  1  0  0  0  0  0  0  0  0  0
   45.4480   33.9820   45.8170 C   0  0  0  0  0  0  0  0  0  0  0  0
   46.3040   33.8240   44.7230 C   0  0  0  0  0  0  0  0  0  0  0  0
   46.3390   34.6930   43.6290 C   0  0  0  0  0  0  0  0  0  0  0  0
   45.4860   35.7160   43.6810 N   0  0  0  0  0  0  0  0  0  0  0  0
   44.6440   35.8890   44.7350 C   0  0  0  0  0  0  0  0  0  0  0  0
   44.6160   35.0520   45.7800 N   0  0  0  0  0  0  0  0  0  0  0  0
   45.2690   33.4990   41.3860 C   0  0  0  0  0  0  0  0  0  0  0  0
   45.2700   32.1320   41.7050 C   0  0  0  0  0  0  0  0  0  0  0  0
   44.0090   31.5410   41.8240 C   0  0  0  0  0  0  0  0  0  0  0  0
   42.8930   32.3290   41.6230 C   0  0  0  0  0  0  0  0  0  0  0  0
   42.9230   33.6690   41.3110 C   0  0  0  0  0  0  0  0  0  0  0  0
   44.1500   34.2500   41.1940 N   0  0  0  0  0  0  0  0  0  0  0  0
   41.6870   34.4370   41.1190 C   0  0  0  0  0  0  0  0  0  0  0  0
   41.5810   35.5430   41.7000 O   0  0  0  0  0  0  0  0  0  0  0  0
   40.6640   34.2520   38.9290 C   0  0  0  0  0  0  0  0  0  0  0  0
   40.5310   34.0600   40.3090 C   0  0  0  0  0  0  0  0  0  0  0  0
   39.3460   33.5410   40.7950 C   0  0  0  0  0  0  0  0  0  0  0  0
   38.3050   33.2140   39.9510 C   0  0  0  0  0  0  0  0  0  0  0  0
   38.4060   33.3920   38.5850 C   0  0  0  0  0  0  0  0  0  0  0  0
   39.5890   33.9100   38.1020 C   0  0  0  0  0  0  0  0  0  0  0  0
   42.1390   34.9040   38.2570 S   0  0  0  0  0  0  0  0  0  0  0  0
   43.2440   33.8930   38.2120 O   0  0  0  0  0  0  0  0  0  0  0  0
   42.5520   36.1990   38.9100 O   0  0  0  0  0  0  0  0  0  0  0  0
   47.9165   35.3263   42.5084 H   0  0  0  0  0  0  0  0  0  0  0  0
   48.7050   33.4248   43.6714 H   0  0  0  0  0  0  0  0  0  0  0  0
   47.7093   32.3772   42.6438 H   0  0  0  0  0  0  0  0  0  0  0  0
   49.6075   34.5465   41.5387 H   0  0  0  0  0  0  0  0  0  0  0  0
   50.0965   32.8504   41.7228 H   0  0  0  0  0  0  0  0  0  0  0  0
   49.1948   33.3702   39.4391 H   0  0  0  0  0  0  0  0  0  0  0  0
   48.2030   32.1257   40.3511 H   0  0  0  0  0  0  0  0  0  0  0  0
   47.5451   34.9057   39.5414 H   0  0  0  0  0  0  0  0  0  0  0  0
   46.6053   33.3041   39.4624 H   0  0  0  0  0  0  0  0  0  0  0  0
   46.1132   35.3607   41.0113 H   0  0  0  0  0  0  0  0  0  0  0  0
   45.4494   33.2770   46.6614 H   0  0  0  0  0  0  0  0  0  0  0  0
   46.9907   32.9647   44.7233 H   0  0  0  0  0  0  0  0  0  0  0  0
   43.9594   36.7499   44.7288 H   0  0  0  0  0  0  0  0  0  0  0  0
   46.2006   31.5641   41.8515 H   0  0  0  0  0  0  0  0  0  0  0  0
   43.9080   30.4740   42.0718 H   0  0  0  0  0  0  0  0  0  0  0  0
   41.9073   31.8503   41.7194 H   0  0  0  0  0  0  0  0  0  0  0  0
   39.2304   33.3853   41.8778 H   0  0  0  0  0  0  0  0  0  0  0  0
   37.3763   32.8035   40.3741 H   0  0  0  0  0  0  0  0  0  0  0  0
   37.5771   33.1313   37.9105 H   0  0  0  0  0  0  0  0  0  0  0  0
   39.6920   34.0611   37.0173 H   0  0  0  0  0  0  0  0  0  0  0  0
   41.8623   35.2173   36.9523 H   0  0  0  0  0  0  0  0  0  0  0  0
  1  2  1  0
  1  9  1  0
  3  2  1  0
  4  3  1  0
  5  4  1  0
  5  6  1  0
  6 13  1  0
  6  1  1  0
  8  7  2  0
  9 10  2  0
  9  8  1  0
 10 11  1  0
 11 12  2  0
 12  7  1  0
 13 14  2  0
 14 15  1  0
 16 15  2  0
 17 16  1  0
 18 17  2  0
 18 13  1  0
 19 17  1  0
 19 20  2  0
 21 22  2  0
 22 23  1  0
 22 19  1  0
 24 23  2  0
 25 24  1  0
 26 25  2  0
 26 21  1  0
 27 29  2  0
 27 21  1  0
 28 27  2  0
  1 30  1  6
  2 31  1  0
  2 32  1  0
  3 33  1  0
  3 34  1  0
  4 35  1  0
  4 36  1  0
  5 37  1  0
  5 38  1  0
  6 39  1  6
  7 40  1  0
  8 41  1  0
 11 42  1  0
 14 43  1  0
 15 44  1  0
 16 45  1  0
 23 46  1  0
 24 47  1  0
 25 48  1  0
 26 49  1  0
 27 50  1  0
M  ISO  8  30  13  31  13  32  13  33  13  34  13  35  13  36  13  37  13
M  ISO  8  38  13  39  13  40  14  41  14  42  14  43  14  44  14  45  14
M  ISO  5  46  14  47  14  48  14  49  14  50  11
M  END
>  <minimizedAffinity>  (1) 
-6.5324316

>  <minimizedRMSD>  (1) 
3.54698706

$$$$
