
     RDKit          3D

 33 35  0  0  0  0  0  0  0  0999 V2000
   46.8470   32.6990   46.9300 C   0  0  0  0  0  0  0  0  0  0  0  0
   46.7560   31.8360   45.8230 C   0  0  0  0  0  0  0  0  0  0  0  0
   47.4700   30.6390   45.7800 C   0  0  0  0  0  0  0  0  0  0  0  0
   48.2620   30.3490   46.8700 N   0  0  0  0  0  0  0  0  0  0  0  0
   48.3360   31.1910   47.9230 C   0  0  0  0  0  0  0  0  0  0  0  0
   47.6450   32.3330   47.9430 N   0  0  0  0  0  0  0  0  0  0  0  0
   49.1950   30.8190   49.0420 C   0  0  0  0  0  0  0  0  0  0  0  0
   49.8060   31.6920   49.8540 C   0  0  0  0  0  0  0  0  0  0  0  0
   50.6120   31.3800   50.9040 C   0  0  0  0  0  0  0  0  0  0  0  0
   50.7910   30.0500   51.1230 N   0  0  0  0  0  0  0  0  0  0  0  0
   50.1880   29.1520   50.3230 C   0  0  0  0  0  0  0  0  0  0  0  0
   49.3890   29.4840   49.2810 N   0  0  0  0  0  0  0  0  0  0  0  0
   45.8910   32.2350   44.7250 C   0  0  0  0  0  0  0  0  0  0  0  0
   45.2290   31.3060   44.1620 O   0  0  0  0  0  0  0  0  0  0  0  0
   46.4570   33.9480   43.1110 C   0  0  0  0  0  0  0  0  0  0  0  0
   45.7300   33.5950   44.2290 C   0  0  0  0  0  0  0  0  0  0  0  0
   44.8850   34.4970   44.8490 C   0  0  0  0  0  0  0  0  0  0  0  0
   44.7770   35.7660   44.3300 C   0  0  0  0  0  0  0  0  0  0  0  0
   45.4790   36.1970   43.2050 C   0  0  0  0  0  0  0  0  0  0  0  0
   46.2890   35.2410   42.6590 C   0  0  0  0  0  0  0  0  0  0  0  0
   47.5340   32.8420   42.2980 S   0  0  0  0  0  0  0  0  0  0  0  0
   48.9100   32.9390   42.9320 O   0  0  0  0  0  0  0  0  0  0  0  0
   47.7250   33.2530   40.8640 O   0  0  0  0  0  0  0  0  0  0  0  0
   46.2824   33.6424   46.9633 H   0  0  0  0  0  0  0  0  0  0  0  0
   47.4043   29.9591   44.9178 H   0  0  0  0  0  0  0  0  0  0  0  0
   49.6403   32.7607   49.6527 H   0  0  0  0  0  0  0  0  0  0  0  0
   51.0856   32.1492   51.5317 H   0  0  0  0  0  0  0  0  0  0  0  0
   50.3539   28.0840   50.5275 H   0  0  0  0  0  0  0  0  0  0  0  0
   44.3102   34.2051   45.7403 H   0  0  0  0  0  0  0  0  0  0  0  0
   44.1021   36.4776   44.8280 H   0  0  0  0  0  0  0  0  0  0  0  0
   45.3891   37.2135   42.7944 H   0  0  0  0  0  0  0  0  0  0  0  0
   46.8657   35.5319   41.7686 H   0  0  0  0  0  0  0  0  0  0  0  0
   46.9956   31.5855   42.3885 H   0  0  0  0  0  0  0  0  0  0  0  0
  1  6  2  0
  2  1  1  0
  3  2  2  0
  3  4  1  0
  4  5  2  0
  5  6  1  0
  5  7  1  0
  7 12  1  0
  7  8  2  0
  8  9  1  0
  9 10  2  0
 11 10  1  0
 12 11  2  0
 13  2  1  0
 14 13  2  0
 15 16  2  0
 16 13  1  0
 16 17  1  0
 18 17  2  0
 19 18  1  0
 20 15  1  0
 20 19  2  0
 21 22  2  0
 21 15  1  0
 23 21  2  0
  1 24  1  0
  3 25  1  0
  8 26  1  0
  9 27  1  0
 11 28  1  0
 17 29  1  0
 18 30  1  0
 19 31  1  0
 20 32  1  0
 21 33  1  0
M  ISO  8  24  14  25  14  26  14  27  14  28  14  29  14  30  14  31  14
M  ISO  2  32  14  33  11
M  END
>  <minimizedAffinity>  (1) 
-5.10502577

>  <minimizedRMSD>  (1) 
4.26959181

$$$$
