
     RDKit          3D

 27 28  0  0  0  0  0  0  0  0999 V2000
   45.7850   32.8010   47.1310 C   0  0  0  0  0  0  0  0  0  0  0  0
   44.8320   33.0280   47.9060 O   0  0  0  0  0  0  0  0  0  0  0  0
   45.0370   35.0030   44.3350 C   0  0  0  0  0  0  0  0  0  0  0  0
   46.0810   34.7150   43.4390 C   0  0  0  0  0  0  0  0  0  0  0  0
   47.0480   33.7610   43.7940 C   0  0  0  0  0  0  0  0  0  0  0  0
   46.9080   33.1720   44.9960 N   0  0  0  0  0  0  0  0  0  0  0  0
   45.9120   33.4520   45.8410 C   0  0  0  0  0  0  0  0  0  0  0  0
   44.9800   34.3720   45.4980 N   0  0  0  0  0  0  0  0  0  0  0  0
   44.0750   35.9670   43.9580 N   0  0  0  0  0  0  0  0  0  0  0  0
   46.7620   30.4840   47.3410 C   0  0  0  0  0  0  0  0  0  0  0  0
   46.7700   31.8350   47.6050 C   0  0  0  0  0  0  0  0  0  0  0  0
   47.7940   32.3590   48.3880 C   0  0  0  0  0  0  0  0  0  0  0  0
   48.7500   31.4660   48.8560 C   0  0  0  0  0  0  0  0  0  0  0  0
   48.7630   30.0920   48.6020 C   0  0  0  0  0  0  0  0  0  0  0  0
   47.7320   29.6330   47.8250 C   0  0  0  0  0  0  0  0  0  0  0  0
   45.4590   29.8670   46.3520 S   0  0  0  0  0  0  0  0  0  0  0  0
   45.0440   28.4880   46.8360 O   0  0  0  0  0  0  0  0  0  0  0  0
   45.8440   29.7540   44.9120 O   0  0  0  0  0  0  0  0  0  0  0  0
   46.1398   35.2317   42.4697 H   0  0  0  0  0  0  0  0  0  0  0  0
   47.8806   33.5070   43.1215 H   0  0  0  0  0  0  0  0  0  0  0  0
   44.1492   36.4392   43.0456 H   0  0  0  0  0  0  0  0  0  0  0  0
   43.2996   36.1975   44.5956 H   0  0  0  0  0  0  0  0  0  0  0  0
   47.8443   33.4318   48.6257 H   0  0  0  0  0  0  0  0  0  0  0  0
   49.5619   31.8734   49.4763 H   0  0  0  0  0  0  0  0  0  0  0  0
   49.5447   29.4267   48.9974 H   0  0  0  0  0  0  0  0  0  0  0  0
   47.6773   28.5615   47.5821 H   0  0  0  0  0  0  0  0  0  0  0  0
   44.4258   30.7596   46.4639 H   0  0  0  0  0  0  0  0  0  0  0  0
  1 11  1  0
  1  2  2  0
  3  8  2  0
  4  5  2  0
  4  3  1  0
  5  6  1  0
  6  7  2  0
  7  1  1  0
  8  7  1  0
  9  3  1  0
 10 11  2  0
 10 15  1  0
 11 12  1  0
 12 13  2  0
 14 13  1  0
 15 14  2  0
 16 17  2  0
 16 10  1  0
 18 16  2  0
  4 19  1  0
  5 20  1  0
  9 21  1  0
  9 22  1  0
 12 23  1  0
 13 24  1  0
 14 25  1  0
 15 26  1  0
 16 27  1  0
M  ISO  7  19  14  20  14  23  14  24  14  25  14  26  14  27  11
M  END
>  <minimizedAffinity>  (1) 
-5.04026222

>  <minimizedRMSD>  (1) 
1.27579808

$$$$
