
     RDKit          3D

 42 44  0  0  0  0  0  0  0  0999 V2000
   48.6870   33.9600   41.2580 C   0  0  0  0  0  0  0  0  0  0  0  0
   48.9160   32.7650   40.6010 C   0  0  0  0  0  0  0  0  0  0  0  0
   50.0640   32.0200   40.8410 C   0  0  0  0  0  0  0  0  0  0  0  0
   50.9470   32.5160   41.7490 N   0  0  0  0  0  0  0  0  0  0  0  0
   50.6900   33.6980   42.3800 C   0  0  0  0  0  0  0  0  0  0  0  0
   49.5850   34.3760   42.1210 N   0  0  0  0  0  0  0  0  0  0  0  0
   47.4480   34.6650   40.9130 C   0  0  0  0  0  0  0  0  0  0  0  0
   46.5770   34.9510   42.1060 C   0  0  0  0  0  0  0  0  0  0  0  0
   45.1270   34.9340   41.8360 C   0  0  0  0  0  0  0  0  0  0  0  0
   44.2330   35.5260   42.7690 C   0  0  0  0  0  0  0  0  0  0  0  0
   42.5890   35.2570   42.0040 S   0  0  0  0  0  0  0  0  0  0  0  0
   43.4040   34.3700   40.5210 C   0  0  0  0  0  0  0  0  0  0  0  0
   44.5110   34.4220   40.8010 N   0  0  0  0  0  0  0  0  0  0  0  0
   42.6780   33.8490   39.4520 O   0  0  0  0  0  0  0  0  0  0  0  0
   40.6880   34.1900   37.7410 O   0  0  0  0  0  0  0  0  0  0  0  0
   41.7390   34.9330   38.5480 P   0  0  0  0  0  0  0  0  0  0  0  0
   40.9670   35.9880   39.6160 O   0  0  0  0  0  0  0  0  0  0  0  0
   42.7470   35.8410   37.5280 O   0  0  0  0  0  0  0  0  0  0  0  0
   47.7350   32.1420   39.3810 S   0  0  0  0  0  0  0  0  0  0  0  0
   45.2250   31.2420   39.2510 C   0  0  0  0  0  0  0  0  0  0  0  0
   46.2770   31.4690   40.1400 C   0  0  0  0  0  0  0  0  0  0  0  0
   46.0540   31.1490   41.4600 C   0  0  0  0  0  0  0  0  0  0  0  0
   44.8700   30.6300   41.9320 C   0  0  0  0  0  0  0  0  0  0  0  0
   43.8290   30.4050   41.0570 C   0  0  0  0  0  0  0  0  0  0  0  0
   44.0280   30.7190   39.7170 C   0  0  0  0  0  0  0  0  0  0  0  0
   45.1750   31.5390   37.5330 S   0  0  0  0  0  0  0  0  0  0  0  0
   43.7510   31.6860   37.0550 O   0  0  0  0  0  0  0  0  0  0  0  0
   45.7360   30.3390   36.8200 O   0  0  0  0  0  0  0  0  0  0  0  0
   50.2508   31.0699   40.3191 H   0  0  0  0  0  0  0  0  0  0  0  0
   51.4103   34.0913   43.1125 H   0  0  0  0  0  0  0  0  0  0  0  0
   47.7108   35.6202   40.4349 H   0  0  0  0  0  0  0  0  0  0  0  0
   46.8756   34.0098   40.2399 H   0  0  0  0  0  0  0  0  0  0  0  0
   46.7902   34.1930   42.8741 H   0  0  0  0  0  0  0  0  0  0  0  0
   46.8188   35.9754   42.4254 H   0  0  0  0  0  0  0  0  0  0  0  0
   44.4703   36.0250   43.7202 H   0  0  0  0  0  0  0  0  0  0  0  0
   41.1648   35.7177   40.5476 H   0  0  0  0  0  0  0  0  0  0  0  0
   43.3597   36.3929   38.0757 H   0  0  0  0  0  0  0  0  0  0  0  0
   46.8691   31.3178   42.1791 H   0  0  0  0  0  0  0  0  0  0  0  0
   44.7551   30.3962   43.0007 H   0  0  0  0  0  0  0  0  0  0  0  0
   42.8721   29.9906   41.4072 H   0  0  0  0  0  0  0  0  0  0  0  0
   43.2090   30.5469   39.0031 H   0  0  0  0  0  0  0  0  0  0  0  0
   45.8863   32.6817   37.2779 H   0  0  0  0  0  0  0  0  0  0  0  0
  1  6  2  0
  2  3  2  0
  2  1  1  0
  3  4  1  0
  4  5  2  0
  6  5  1  0
  7  1  1  0
  7  8  1  0
  9  8  1  0
  9 10  2  0
 11 10  1  0
 12 13  2  0
 12 11  1  0
 13  9  1  0
 14 12  1  0
 15 16  2  0
 16 14  1  0
 16 17  1  0
 18 16  1  0
 19 21  1  0
 19  2  1  0
 20 25  2  0
 20 21  1  0
 21 22  2  0
 22 23  1  0
 24 23  2  0
 25 24  1  0
 26 20  1  0
 27 26  2  0
 28 26  2  0
  3 29  1  0
  5 30  1  0
  7 31  1  0
  7 32  1  0
  8 33  1  0
  8 34  1  0
 10 35  1  0
 17 36  1  0
 18 37  1  0
 22 38  1  0
 23 39  1  0
 24 40  1  0
 25 41  1  0
 26 42  1  0
M  ISO  8  29  14  30  14  31   8  32   8  33   8  34   8  35  14  36   3
M  ISO  6  37   3  38  14  39  14  40  14  41  14  42  11
M  END
>  <minimizedAffinity>  (1) 
-4.50582981

>  <minimizedRMSD>  (1) 
1.03138077

$$$$
