
     RDKit          3D

 41 44  0  0  0  0  0  0  0  0999 V2000
   45.0140   34.5610   41.2840 C   0  0  0  0  0  0  0  0  0  0  0  0
   43.7420   35.0560   41.0590 C   0  0  0  0  0  0  0  0  0  0  0  0
   43.2940   34.3900   39.9750 N   0  0  0  0  0  0  0  0  0  0  0  0
   44.2480   33.5310   39.5650 C   0  0  0  0  0  0  0  0  0  0  0  0
   45.3250   33.6300   40.3740 N   0  0  0  0  0  0  0  0  0  0  0  0
   44.2720   32.6070   38.4770 N   0  0  0  0  0  0  0  0  0  0  0  0
   40.8680   33.8750   39.6730 C   0  0  0  0  0  0  0  0  0  0  0  0
   42.0340   34.5290   39.3310 C   0  0  0  0  0  0  0  0  0  0  0  0
   41.9900   35.4080   38.2640 C   0  0  0  0  0  0  0  0  0  0  0  0
   40.8270   35.6330   37.5540 C   0  0  0  0  0  0  0  0  0  0  0  0
   39.6420   34.9790   37.8880 C   0  0  0  0  0  0  0  0  0  0  0  0
   39.7110   34.1070   38.9580 C   0  0  0  0  0  0  0  0  0  0  0  0
   40.9560   32.7720   41.0270 S   0  0  0  0  0  0  0  0  0  0  0  0
   39.6110   32.8840   41.7300 O   0  0  0  0  0  0  0  0  0  0  0  0
   41.1010   31.3670   40.5040 O   0  0  0  0  0  0  0  0  0  0  0  0
   45.9320   34.9960   42.3940 C   0  0  0  0  0  0  0  0  0  0  0  0
   47.0250   35.6160   42.1970 O   0  0  0  0  0  0  0  0  0  0  0  0
   44.8330   35.6400   44.4830 C   0  0  0  0  0  0  0  0  0  0  0  0
   45.6120   34.7260   43.7500 C   0  0  0  0  0  0  0  0  0  0  0  0
   46.0060   33.6050   44.4440 C   0  0  0  0  0  0  0  0  0  0  0  0
   45.6710   33.4010   45.7320 N   0  0  0  0  0  0  0  0  0  0  0  0
   44.9180   34.3150   46.3950 C   0  0  0  0  0  0  0  0  0  0  0  0
   44.5060   35.4250   45.7660 N   0  0  0  0  0  0  0  0  0  0  0  0
   46.7950   32.6350   43.7790 C   0  0  0  0  0  0  0  0  0  0  0  0
   48.1160   32.5070   43.4800 C   0  0  0  0  0  0  0  0  0  0  0  0
   48.5850   31.4630   42.8310 C   0  0  0  0  0  0  0  0  0  0  0  0
   47.7030   30.5100   42.4640 C   0  0  0  0  0  0  0  0  0  0  0  0
   46.1120   31.1450   43.0840 S   0  0  0  0  0  0  0  0  0  0  0  0
   43.2111   35.8257   41.6384 H   0  0  0  0  0  0  0  0  0  0  0  0
   45.1046   32.0223   38.3162 H   0  0  0  0  0  0  0  0  0  0  0  0
   43.4568   32.5251   37.8528 H   0  0  0  0  0  0  0  0  0  0  0  0
   42.9063   35.9424   37.9730 H   0  0  0  0  0  0  0  0  0  0  0  0
   40.8358   36.3398   36.7112 H   0  0  0  0  0  0  0  0  0  0  0  0
   38.7074   35.1471   37.3328 H   0  0  0  0  0  0  0  0  0  0  0  0
   38.7974   33.5709   39.2546 H   0  0  0  0  0  0  0  0  0  0  0  0
   42.0086   33.0590   41.8556 H   0  0  0  0  0  0  0  0  0  0  0  0
   44.4817   36.5581   43.9893 H   0  0  0  0  0  0  0  0  0  0  0  0
   44.6460   34.1453   47.4472 H   0  0  0  0  0  0  0  0  0  0  0  0
   48.8126   33.2998   43.7900 H   0  0  0  0  0  0  0  0  0  0  0  0
   49.6557   31.3705   42.5964 H   0  0  0  0  0  0  0  0  0  0  0  0
   47.8980   29.5737   41.9205 H   0  0  0  0  0  0  0  0  0  0  0  0
  1 16  1  0
  2  1  2  0
  3  2  1  0
  4  3  1  0
  4  5  2  0
  5  1  1  0
  6  4  1  0
  7 13  1  0
  8  7  2  0
  8  3  1  0
  9  8  1  0
 10 11  1  0
 10  9  2  0
 11 12  2  0
 12  7  1  0
 13 14  2  0
 15 13  2  0
 16 19  1  0
 17 16  2  0
 18 23  2  0
 19 20  2  0
 19 18  1  0
 20 21  1  0
 21 22  2  0
 23 22  1  0
 24 20  1  0
 25 24  2  0
 26 25  1  0
 27 26  2  0
 27 28  1  0
 28 24  1  0
  2 29  1  0
  6 30  1  0
  6 31  1  0
  9 32  1  0
 10 33  1  0
 11 34  1  0
 12 35  1  0
 13 36  1  0
 18 37  1  0
 22 38  1  0
 25 39  1  0
 26 40  1  0
 27 41  1  0
M  ISO  8  29  14  32  14  33  14  34  14  35  14  36  11  37  14  38  14
M  ISO  3  39  14  40  14  41  14
M  END
>  <minimizedAffinity>  (1) 
-6.19737101

>  <minimizedRMSD>  (1) 
1.90222359

$$$$
