
     RDKit          3D

 25 26  0  0  0  0  0  0  0  0999 V2000
   45.6740   33.5190   40.3540 C   0  0  0  0  0  0  0  0  0  0  0  0
   45.4010   34.5400   41.2070 C   0  0  0  0  0  0  0  0  0  0  0  0
   44.1540   35.1370   41.1220 C   0  0  0  0  0  0  0  0  0  0  0  0
   43.1840   34.7520   40.2250 C   0  0  0  0  0  0  0  0  0  0  0  0
   43.4610   33.7140   39.3580 C   0  0  0  0  0  0  0  0  0  0  0  0
   44.7070   33.1250   39.4480 C   0  0  0  0  0  0  0  0  0  0  0  0
   47.1740   32.6590   40.3150 S   0  0  0  0  0  0  0  0  0  0  0  0
   48.3350   33.4790   39.8480 O   0  0  0  0  0  0  0  0  0  0  0  0
   47.4900   32.1240   41.6940 O   0  0  0  0  0  0  0  0  0  0  0  0
   46.4200   34.9650   42.1690 C   0  0  0  0  0  0  0  0  0  0  0  0
   47.5510   35.4590   41.9140 O   0  0  0  0  0  0  0  0  0  0  0  0
   44.5620   35.4940   45.3140 C   0  0  0  0  0  0  0  0  0  0  0  0
   45.0420   35.6920   44.0070 C   0  0  0  0  0  0  0  0  0  0  0  0
   45.9420   34.7330   43.5220 C   0  0  0  0  0  0  0  0  0  0  0  0
   46.2960   33.6940   44.3110 N   0  0  0  0  0  0  0  0  0  0  0  0
   45.8130   33.5430   45.5550 C   0  0  0  0  0  0  0  0  0  0  0  0
   44.9340   34.4530   46.0670 N   0  0  0  0  0  0  0  0  0  0  0  0
   43.9264   35.9648   41.8097 H   0  0  0  0  0  0  0  0  0  0  0  0
   42.2089   35.2604   40.1994 H   0  0  0  0  0  0  0  0  0  0  0  0
   42.7180   33.3693   38.6238 H   0  0  0  0  0  0  0  0  0  0  0  0
   44.9426   32.2980   38.7620 H   0  0  0  0  0  0  0  0  0  0  0  0
   47.0022   31.6485   39.4060 H   0  0  0  0  0  0  0  0  0  0  0  0
   43.8533   36.2234   45.7332 H   0  0  0  0  0  0  0  0  0  0  0  0
   44.7282   36.5528   43.3983 H   0  0  0  0  0  0  0  0  0  0  0  0
   46.1271   32.6824   46.1638 H   0  0  0  0  0  0  0  0  0  0  0  0
  1  2  2  0
  2 10  1  0
  3  2  1  0
  4  3  2  0
  5  6  2  0
  5  4  1  0
  6  1  1  0
  7  1  1  0
  7  9  2  0
  8  7  2  0
 10 14  1  0
 11 10  2  0
 12 17  2  0
 13 12  1  0
 14 13  2  0
 14 15  1  0
 15 16  2  0
 16 17  1  0
  3 18  1  0
  4 19  1  0
  5 20  1  0
  6 21  1  0
  7 22  1  0
 12 23  1  0
 13 24  1  0
 16 25  1  0
M  ISO  8  18  14  19  14  20  14  21  14  22  11  23  14  24  14  25  14
M  END
>  <minimizedAffinity>  (1) 
-4.47629976

>  <minimizedRMSD>  (1) 
1.67401016

$$$$
