
     RDKit          3D

 38 41  0  0  0  0  0  0  0  0999 V2000
   48.3690   33.0180   41.8980 C   0  0  0  0  0  0  0  0  0  0  0  0
   47.9470   34.3190   42.0140 C   0  0  0  0  0  0  0  0  0  0  0  0
   48.8710   35.3020   42.3280 C   0  0  0  0  0  0  0  0  0  0  0  0
   50.1990   34.9470   42.5160 C   0  0  0  0  0  0  0  0  0  0  0  0
   50.5880   33.6450   42.3930 C   0  0  0  0  0  0  0  0  0  0  0  0
   49.6660   32.6380   42.0770 C   0  0  0  0  0  0  0  0  0  0  0  0
   46.5050   34.5420   41.7840 C   0  0  0  0  0  0  0  0  0  0  0  0
   45.8300   34.8400   43.1120 C   0  0  0  0  0  0  0  0  0  0  0  0
   45.9350   33.8900   44.1140 C   0  0  0  0  0  0  0  0  0  0  0  0
   45.3190   34.1710   45.3260 C   0  0  0  0  0  0  0  0  0  0  0  0
   44.6610   35.3450   45.4550 N   0  0  0  0  0  0  0  0  0  0  0  0
   44.5780   36.2530   44.4580 C   0  0  0  0  0  0  0  0  0  0  0  0
   45.1620   36.0000   43.2880 N   0  0  0  0  0  0  0  0  0  0  0  0
   47.5360   31.9410   41.5890 O   0  0  0  0  0  0  0  0  0  0  0  0
   50.1870   31.3440   41.9760 O   0  0  0  0  0  0  0  0  0  0  0  0
   52.0480   30.4600   40.4320 N   0  0  0  0  0  0  0  0  0  0  0  0
   50.9100   31.0600   40.8290 C   0  0  0  0  0  0  0  0  0  0  0  0
   50.3190   31.5160   39.6850 N   0  0  0  0  0  0  0  0  0  0  0  0
   51.0700   31.2070   38.6130 C   0  0  0  0  0  0  0  0  0  0  0  0
   51.0470   31.3670   37.2450 C   0  0  0  0  0  0  0  0  0  0  0  0
   52.0190   30.9070   36.4330 N   0  0  0  0  0  0  0  0  0  0  0  0
   53.0680   30.2590   36.9640 C   0  0  0  0  0  0  0  0  0  0  0  0
   53.1290   30.0780   38.3120 N   0  0  0  0  0  0  0  0  0  0  0  0
   52.1510   30.5450   39.1060 C   0  0  0  0  0  0  0  0  0  0  0  0
   49.9100   32.0680   36.7000 N   0  0  0  0  0  0  0  0  0  0  0  0
   48.5558   36.3512   42.4271 H   0  0  0  0  0  0  0  0  0  0  0  0
   50.9419   35.7190   42.7654 H   0  0  0  0  0  0  0  0  0  0  0  0
   51.6450   33.3808   42.5447 H   0  0  0  0  0  0  0  0  0  0  0  0
   46.3682   35.3941   41.1019 H   0  0  0  0  0  0  0  0  0  0  0  0
   46.0580   33.6429   41.3346 H   0  0  0  0  0  0  0  0  0  0  0  0
   46.4845   32.9503   43.9560 H   0  0  0  0  0  0  0  0  0  0  0  0
   45.3651   33.4561   46.1608 H   0  0  0  0  0  0  0  0  0  0  0  0
   44.0316   37.1952   44.6116 H   0  0  0  0  0  0  0  0  0  0  0  0
   47.9121   31.0277   41.5219 H   0  0  0  0  0  0  0  0  0  0  0  0
   52.7315   30.0066   41.0551 H   0  0  0  0  0  0  0  0  0  0  0  0
   53.8709   29.8778   36.3159 H   0  0  0  0  0  0  0  0  0  0  0  0
   49.8366   32.2187   35.6837 H   0  0  0  0  0  0  0  0  0  0  0  0
   49.1716   32.4178   37.3272 H   0  0  0  0  0  0  0  0  0  0  0  0
  1  2  2  0
  1  6  1  0
  2  3  1  0
  3  4  2  0
  5  4  1  0
  6  5  2  0
  7  2  1  0
  7  8  1  0
  8 13  1  0
  8  9  2  0
  9 10  1  0
 10 11  2  0
 12 11  1  0
 13 12  2  0
 14  1  1  0
 15  6  1  0
 16 17  1  0
 17 15  1  0
 18 17  2  0
 19 24  2  0
 19 18  1  0
 20 19  1  0
 21 22  1  0
 21 20  2  0
 22 23  2  0
 23 24  1  0
 24 16  1  0
 25 20  1  0
  3 26  1  0
  4 27  1  0
  5 28  1  0
  7 29  1  0
  7 30  1  0
  9 31  1  0
 10 32  1  0
 12 33  1  0
 14 34  1  0
 16 35  1  0
 22 36  1  0
 25 37  1  0
 25 38  1  0
M  ISO  8  26  14  27  14  28  14  29   8  30   8  31  14  32  14  33  14
M  ISO  3  34   3  35   9  36  14
M  END
>  <minimizedAffinity>  (1) 
-5.65609932

>  <minimizedRMSD>  (1) 
1.56103718

$$$$
