
     RDKit          3D

 32 34  0  0  0  0  0  0  0  0999 V2000
   47.4740   31.4470   43.3580 O   0  0  0  0  0  0  0  0  0  0  0  0
   46.8740   32.8150   43.5350 P   0  0  2  0  0  0  0  0  0  0  0  0
   48.0100   33.9800   43.9620 O   0  0  0  0  0  0  0  0  0  0  0  0
   45.7140   32.7460   44.7780 O   0  0  0  0  0  0  0  0  0  0  0  0
   46.4050   32.9550   45.9640 C   0  0  0  0  0  0  0  0  0  0  0  0
   45.2710   29.8670   47.7240 C   0  0  0  0  0  0  0  0  0  0  0  0
   45.7000   30.7280   46.6930 C   0  0  0  0  0  0  0  0  0  0  0  0
   45.9580   32.0410   47.0160 C   0  0  0  0  0  0  0  0  0  0  0  0
   45.7920   32.4590   48.3100 N   0  0  0  0  0  0  0  0  0  0  0  0
   45.3790   31.6020   49.2760 C   0  0  0  0  0  0  0  0  0  0  0  0
   45.1190   30.3180   48.9870 N   0  0  0  0  0  0  0  0  0  0  0  0
   46.0720   33.2180   42.1150 O   0  0  0  0  0  0  0  0  0  0  0  0
   47.8990   32.8600   40.4820 N   0  0  0  0  0  0  0  0  0  0  0  0
   46.6420   33.1560   40.8510 C   0  0  0  0  0  0  0  0  0  0  0  0
   45.9420   33.4080   39.7160 N   0  0  0  0  0  0  0  0  0  0  0  0
   46.7600   33.2680   38.6560 C   0  0  0  0  0  0  0  0  0  0  0  0
   46.6650   33.3810   37.2900 C   0  0  0  0  0  0  0  0  0  0  0  0
   47.6950   33.1740   36.4460 N   0  0  0  0  0  0  0  0  0  0  0  0
   48.9080   32.8330   36.9420 C   0  0  0  0  0  0  0  0  0  0  0  0
   49.0080   32.7210   38.2680 N   0  0  0  0  0  0  0  0  0  0  0  0
   48.0020   32.9200   39.1370 C   0  0  0  0  0  0  0  0  0  0  0  0
   45.4090   33.7380   36.7250 N   0  0  0  0  0  0  0  0  0  0  0  0
   48.0674   34.0389   44.9486 H   0  0  0  0  0  0  0  0  0  0  0  0
   47.4785   32.7953   45.7847 H   0  0  0  0  0  0  0  0  0  0  0  0
   46.2116   33.9851   46.2980 H   0  0  0  0  0  0  0  0  0  0  0  0
   45.0571   28.8124   47.4956 H   0  0  0  0  0  0  0  0  0  0  0  0
   45.8246   30.3620   45.6632 H   0  0  0  0  0  0  0  0  0  0  0  0
   45.2558   31.9633   50.3076 H   0  0  0  0  0  0  0  0  0  0  0  0
   48.6669   32.6234   41.1264 H   0  0  0  0  0  0  0  0  0  0  0  0
   49.7707   32.6566   36.2827 H   0  0  0  0  0  0  0  0  0  0  0  0
   45.3110   33.8294   35.7038 H   0  0  0  0  0  0  0  0  0  0  0  0
   44.5977   33.9051   37.3372 H   0  0  0  0  0  0  0  0  0  0  0  0
  2  1  2  0
  2  3  1  0
  2  4  1  0
  4  5  1  0
  5  8  1  0
  6 11  2  0
  7  8  2  0
  7  6  1  0
  8  9  1  0
  9 10  2  0
 11 10  1  0
 12  2  1  0
 13 14  1  0
 14 12  1  0
 15 14  2  0
 16 21  2  0
 16 15  1  0
 17 16  1  0
 18 19  1  0
 18 17  2  0
 19 20  2  0
 20 21  1  0
 21 13  1  0
 22 17  1  0
  3 23  1  0
  5 24  1  0
  5 25  1  0
  6 26  1  0
  7 27  1  0
 10 28  1  0
 13 29  1  0
 19 30  1  0
 22 31  1  0
 22 32  1  0
M  ISO  8  23   3  24   8  25   8  26  14  27  14  28  14  29   9  30  14
M  END
>  <minimizedAffinity>  (1) 
-4.88908577

>  <minimizedRMSD>  (1) 
5.56894875

$$$$
