
     RDKit          3D

 37 40  0  0  0  0  0  0  0  0999 V2000
   48.1430   33.1410   43.0260 C   0  0  0  0  0  0  0  0  0  0  0  0
   48.4630   31.7600   43.0340 C   0  0  0  0  0  0  0  0  0  0  0  0
   49.5840   31.3200   42.4400 C   0  0  0  0  0  0  0  0  0  0  0  0
   50.4370   32.2930   41.8070 C   0  0  0  0  0  0  0  0  0  0  0  0
   49.6190   33.8610   42.0640 S   0  0  0  0  0  0  0  0  0  0  0  0
   47.0930   33.9630   43.5270 C   0  0  0  0  0  0  0  0  0  0  0  0
   46.7380   35.1600   42.7330 C   0  0  0  0  0  0  0  0  0  0  0  0
   45.4800   34.9420   42.0330 C   0  0  0  0  0  0  0  0  0  0  0  0
   44.3000   35.5120   42.4790 C   0  0  0  0  0  0  0  0  0  0  0  0
   43.1370   35.2570   41.7570 C   0  0  0  0  0  0  0  0  0  0  0  0
   43.2250   34.4680   40.6600 N   0  0  0  0  0  0  0  0  0  0  0  0
   44.3950   33.9320   40.2580 C   0  0  0  0  0  0  0  0  0  0  0  0
   45.4910   34.1680   40.9340 N   0  0  0  0  0  0  0  0  0  0  0  0
   51.5560   32.0610   41.1860 O   0  0  0  0  0  0  0  0  0  0  0  0
   50.4300   32.0200   39.2100 N   0  0  0  0  0  0  0  0  0  0  0  0
   51.5870   31.6820   39.8510 C   0  0  0  0  0  0  0  0  0  0  0  0
   52.3660   31.0850   38.9380 N   0  0  0  0  0  0  0  0  0  0  0  0
   51.7610   31.0250   37.7410 C   0  0  0  0  0  0  0  0  0  0  0  0
   52.2680   30.4800   36.5770 C   0  0  0  0  0  0  0  0  0  0  0  0
   51.4350   30.5530   35.4960 N   0  0  0  0  0  0  0  0  0  0  0  0
   50.2090   31.1350   35.6280 C   0  0  0  0  0  0  0  0  0  0  0  0
   49.7640   31.6500   36.7880 N   0  0  0  0  0  0  0  0  0  0  0  0
   50.5280   31.6190   37.9080 C   0  0  0  0  0  0  0  0  0  0  0  0
   53.5630   29.8940   36.5340 N   0  0  0  0  0  0  0  0  0  0  0  0
   47.7895   31.0452   43.5294 H   0  0  0  0  0  0  0  0  0  0  0  0
   49.8426   30.2508   42.4369 H   0  0  0  0  0  0  0  0  0  0  0  0
   46.1913   33.3379   43.6056 H   0  0  0  0  0  0  0  0  0  0  0  0
   47.4702   34.3564   44.4825 H   0  0  0  0  0  0  0  0  0  0  0  0
   46.6352   36.0248   43.4050 H   0  0  0  0  0  0  0  0  0  0  0  0
   47.5316   35.3508   41.9956 H   0  0  0  0  0  0  0  0  0  0  0  0
   44.2816   36.1473   43.3768 H   0  0  0  0  0  0  0  0  0  0  0  0
   42.1729   35.6849   42.0693 H   0  0  0  0  0  0  0  0  0  0  0  0
   44.4287   33.2958   39.3612 H   0  0  0  0  0  0  0  0  0  0  0  0
   49.6216   32.4959   39.6354 H   0  0  0  0  0  0  0  0  0  0  0  0
   49.5541   31.1856   34.7456 H   0  0  0  0  0  0  0  0  0  0  0  0
   53.9184   29.4943   35.6538 H   0  0  0  0  0  0  0  0  0  0  0  0
   54.1455   29.8693   37.3831 H   0  0  0  0  0  0  0  0  0  0  0  0
  1  2  2  0
  1  6  1  0
  3  2  1  0
  4  5  1  0
  4  3  2  0
  5  1  1  0
  7  6  1  0
  8  9  2  0
  8  7  1  0
 10  9  1  0
 11 10  2  0
 12 11  1  0
 12 13  2  0
 13  8  1  0
 14  4  1  0
 15 16  1  0
 16 14  1  0
 17 16  2  0
 18 23  2  0
 18 17  1  0
 19 18  1  0
 20 21  1  0
 20 19  2  0
 21 22  2  0
 22 23  1  0
 23 15  1  0
 24 19  1  0
  2 25  1  0
  3 26  1  0
  6 27  1  0
  6 28  1  0
  7 29  1  0
  7 30  1  0
  9 31  1  0
 10 32  1  0
 12 33  1  0
 15 34  1  0
 21 35  1  0
 24 36  1  0
 24 37  1  0
M  ISO  8  25  14  26  14  27   8  28   8  29   8  30   8  31  14  32  14
M  ISO  3  33  14  34   9  35  14
M  END
>  <minimizedAffinity>  (1) 
-4.69554901

>  <minimizedRMSD>  (1) 
1.86231232

$$$$
