
     RDKit          3D

 48 51  0  0  1  0  0  0  0  0999 V2000
   47.2680   32.8580   46.9210 O   0  0  0  0  0  0  0  0  0  0  0  0
   45.8300   32.6040   46.6380 P   0  0  1  0  0  0  0  0  0  0  0  0
   45.6980   31.6040   45.2780 O   0  0  0  0  0  0  0  0  0  0  0  0
   45.2030   31.8370   47.9580 O   0  0  0  0  0  0  0  0  0  0  0  0
   47.1400   30.4420   48.0240 C   0  0  2  0  0  0  0  0  0  0  0  0
   45.6620   30.5460   48.0220 C   0  0  2  0  0  0  0  0  0  0  0  0
   45.1970   29.7180   46.9300 C   0  0  0  0  0  0  0  0  0  0  0  0
   46.1840   28.7670   46.6360 O   0  0  0  0  0  0  0  0  0  0  0  0
   47.1520   28.9310   47.5660 C   0  0  0  0  0  0  0  0  0  0  0  0
   47.7610   30.5090   49.2130 O   0  0  0  0  0  0  0  0  0  0  0  0
   48.9340   31.0240   49.4380 C   0  0  0  0  0  0  0  0  0  0  0  0
   49.7000   30.1100   50.3810 C   0  0  0  0  0  0  0  0  0  0  0  0
   45.1290   34.1370   46.3680 O   0  0  0  0  0  0  0  0  0  0  0  0
   46.2230   34.9010   43.0380 C   0  0  0  0  0  0  0  0  0  0  0  0
   45.3420   35.9230   42.6100 C   0  0  0  0  0  0  0  0  0  0  0  0
   44.3570   36.3240   43.5380 C   0  0  0  0  0  0  0  0  0  0  0  0
   44.3110   35.7290   44.7470 N   0  0  0  0  0  0  0  0  0  0  0  0
   45.1700   34.7630   45.1090 C   0  0  0  0  0  0  0  0  0  0  0  0
   46.1190   34.3540   44.2550 N   0  0  0  0  0  0  0  0  0  0  0  0
   47.1870   34.4840   42.1700 O   0  0  0  0  0  0  0  0  0  0  0  0
   49.3950   33.2840   42.2120 N   0  0  0  0  0  0  0  0  0  0  0  0
   48.0750   33.4690   42.3880 C   0  0  0  0  0  0  0  0  0  0  0  0
   47.5920   32.3200   42.9130 N   0  0  0  0  0  0  0  0  0  0  0  0
   48.6280   31.4640   43.0430 C   0  0  0  0  0  0  0  0  0  0  0  0
   48.7520   30.1590   43.5130 C   0  0  0  0  0  0  0  0  0  0  0  0
   49.9280   29.5070   43.5410 N   0  0  0  0  0  0  0  0  0  0  0  0
   51.0440   30.1390   43.0940 C   0  0  0  0  0  0  0  0  0  0  0  0
   50.9640   31.4180   42.6260 N   0  0  0  0  0  0  0  0  0  0  0  0
   49.7920   32.0600   42.6020 C   0  0  0  0  0  0  0  0  0  0  0  0
   47.5880   29.4760   43.9890 N   0  0  0  0  0  0  0  0  0  0  0  0
   45.5742   30.6659   45.5690 H   0  0  0  0  0  0  0  0  0  0  0  0
   47.6429   31.2398   47.4579 H   0  0  0  0  0  0  0  0  0  0  0  0
   45.2534   30.1886   48.9787 H   0  0  0  0  0  0  0  0  0  0  0  0
   44.2669   29.2083   47.2218 H   0  0  0  0  0  0  0  0  0  0  0  0
   45.0004   30.3405   46.0447 H   0  0  0  0  0  0  0  0  0  0  0  0
   46.9546   28.2781   48.4290 H   0  0  0  0  0  0  0  0  0  0  0  0
   48.1337   28.6677   47.1453 H   0  0  0  0  0  0  0  0  0  0  0  0
   49.4832   31.1202   48.4898 H   0  0  0  0  0  0  0  0  0  0  0  0
   48.8232   32.0198   49.8920 H   0  0  0  0  0  0  0  0  0  0  0  0
   49.4716   30.3826   51.4219 H   0  0  0  0  0  0  0  0  0  0  0  0
   49.4030   29.0662   50.2017 H   0  0  0  0  0  0  0  0  0  0  0  0
   50.7797   30.2200   50.2017 H   0  0  0  0  0  0  0  0  0  0  0  0
   45.4205   36.3784   41.6118 H   0  0  0  0  0  0  0  0  0  0  0  0
   43.6355   37.1125   43.2779 H   0  0  0  0  0  0  0  0  0  0  0  0
   50.0286   33.9971   41.8235 H   0  0  0  0  0  0  0  0  0  0  0  0
   52.0133   29.6191   43.1093 H   0  0  0  0  0  0  0  0  0  0  0  0
   47.6647   28.5105   44.3395 H   0  0  0  0  0  0  0  0  0  0  0  0
   46.6735   29.9499   43.9811 H   0  0  0  0  0  0  0  0  0  0  0  0
  2  1  2  0
  2  4  1  0
  3  2  1  0
  4  6  1  0
  5 10  1  0
  6  5  1  0
  7  6  1  0
  8  7  1  0
  8  9  1  0
  9  5  1  0
 10 11  1  0
 11 12  1  0
 13  2  1  0
 14 19  1  0
 15 14  2  0
 15 16  1  0
 16 17  2  0
 17 18  1  0
 18 13  1  0
 19 18  2  0
 20 22  1  0
 20 14  1  0
 21 22  1  0
 21 29  1  0
 22 23  2  0
 23 24  1  0
 24 25  2  0
 25 26  1  0
 25 30  1  0
 27 26  2  0
 28 27  1  0
 29 28  2  0
 29 24  1  0
  3 31  1  0
  5 32  1  6
  6 33  1  1
  7 34  1  0
  7 35  1  0
  9 36  1  0
  9 37  1  0
 11 38  1  0
 11 39  1  0
 12 40  1  0
 12 41  1  0
 12 42  1  0
 15 43  1  0
 16 44  1  0
 21 45  1  0
 27 46  1  0
 30 47  1  0
 30 48  1  0
M  ISO  8  31   3  32  13  33  13  34  13  35  13  36  13  37  13  38   8
M  ISO  8  39   8  40   8  41   8  42   8  43  14  44  14  45   9  46  14
M  END
>  <minimizedAffinity>  (1) 
-4.99777889

>  <minimizedRMSD>  (1) 
6.27930212

$$$$
