
     RDKit          3D

 43 46  0  0  1  0  0  0  0  0999 V2000
   45.1200   35.2580   43.3790 C   0  0  0  0  0  0  0  0  0  0  0  0
   46.2500   34.5150   43.0000 C   0  0  0  0  0  0  0  0  0  0  0  0
   46.8620   33.6800   43.9450 C   0  0  0  0  0  0  0  0  0  0  0  0
   46.3290   33.6370   45.1630 N   0  0  0  0  0  0  0  0  0  0  0  0
   45.2400   34.3590   45.5130 C   0  0  0  0  0  0  0  0  0  0  0  0
   44.6330   35.1700   44.6220 N   0  0  0  0  0  0  0  0  0  0  0  0
   49.0060   33.7150   42.6850 C   0  0  2  0  0  0  0  0  0  0  0  0
   48.0310   32.9350   43.4940 C   0  0  2  0  0  0  0  0  0  0  0  0
   47.7250   31.8710   42.5930 O   0  0  0  0  0  0  0  0  0  0  0  0
   48.9850   31.4170   42.2450 C   0  0  0  0  0  0  0  0  0  0  0  0
   49.9610   32.5570   42.3220 C   0  0  1  0  0  0  0  0  0  0  0  0
   49.6090   34.7410   43.3470 O   0  0  0  0  0  0  0  0  0  0  0  0
   50.5750   32.8510   41.1090 O   0  0  0  0  0  0  0  0  0  0  0  0
   44.4810   36.1570   42.3540 C   0  0  0  0  0  0  0  0  0  0  0  0
   43.6340   34.5060   40.5700 C   0  0  0  0  0  0  0  0  0  0  0  0
   44.7920   34.4550   40.0780 O   0  0  0  0  0  0  0  0  0  0  0  0
   43.4640   35.3540   41.6840 N   0  0  0  0  0  0  0  0  0  0  0  0
   42.4740   32.9980   38.9140 N   0  0  0  0  0  0  0  0  0  0  0  0
   42.5120   33.7410   40.0380 C   0  0  0  0  0  0  0  0  0  0  0  0
   41.2940   33.6500   40.6030 N   0  0  0  0  0  0  0  0  0  0  0  0
   40.4850   32.8680   39.8630 C   0  0  0  0  0  0  0  0  0  0  0  0
   39.1670   32.5140   40.0790 C   0  0  0  0  0  0  0  0  0  0  0  0
   38.6390   31.7000   39.1290 N   0  0  0  0  0  0  0  0  0  0  0  0
   39.3310   31.2680   38.0620 C   0  0  0  0  0  0  0  0  0  0  0  0
   40.6270   31.6310   37.8730 N   0  0  0  0  0  0  0  0  0  0  0  0
   41.2330   32.4480   38.7830 C   0  0  0  0  0  0  0  0  0  0  0  0
   38.4240   32.9680   41.2110 N   0  0  0  0  0  0  0  0  0  0  0  0
   46.6486   34.5872   41.9773 H   0  0  0  0  0  0  0  0  0  0  0  0
   44.8445   34.2840   46.5367 H   0  0  0  0  0  0  0  0  0  0  0  0
   48.5739   34.2694   41.8388 H   0  0  0  0  0  0  0  0  0  0  0  0
   48.4355   32.6101   44.4640 H   0  0  0  0  0  0  0  0  0  0  0  0
   48.9627   31.0207   41.2191 H   0  0  0  0  0  0  0  0  0  0  0  0
   49.2939   30.6194   42.9366 H   0  0  0  0  0  0  0  0  0  0  0  0
   50.7917   32.3534   43.0137 H   0  0  0  0  0  0  0  0  0  0  0  0
   49.5252   34.5984   44.3231 H   0  0  0  0  0  0  0  0  0  0  0  0
   51.4548   33.2723   41.2780 H   0  0  0  0  0  0  0  0  0  0  0  0
   44.0182   37.0259   42.8448 H   0  0  0  0  0  0  0  0  0  0  0  0
   45.2238   36.5401   41.6389 H   0  0  0  0  0  0  0  0  0  0  0  0
   42.5107   35.4132   42.0694 H   0  0  0  0  0  0  0  0  0  0  0  0
   43.2575   32.8666   38.2584 H   0  0  0  0  0  0  0  0  0  0  0  0
   38.8410   30.6099   37.3294 H   0  0  0  0  0  0  0  0  0  0  0  0
   37.4428   32.6791   41.3326 H   0  0  0  0  0  0  0  0  0  0  0  0
   38.8693   33.5843   41.9058 H   0  0  0  0  0  0  0  0  0  0  0  0
  1  6  1  0
  2  1  2  0
  2  3  1  0
  3  4  2  0
  4  5  1  0
  6  5  2  0
  7 12  1  0
  7  8  1  0
  8  3  1  0
  9  8  1  0
 10 11  1  0
 10  9  1  0
 11  7  1  0
 13 11  1  0
 14  1  1  0
 15 17  1  0
 16 15  2  0
 17 14  1  0
 18 19  1  0
 19 15  1  0
 19 20  2  0
 21 22  2  0
 21 20  1  0
 22 27  1  0
 23 22  1  0
 24 23  2  0
 25 24  1  0
 25 26  2  0
 26 18  1  0
 26 21  1  0
  2 28  1  0
  5 29  1  0
  7 30  1  6
  8 31  1  1
 10 32  1  0
 10 33  1  0
 11 34  1  1
 12 35  1  0
 13 36  1  0
 14 37  1  0
 14 38  1  0
 17 39  1  0
 18 40  1  0
 24 41  1  0
 27 42  1  0
 27 43  1  0
M  ISO  8  28  14  29  14  30  13  31  13  32  13  33  13  34  13  35   3
M  ISO  5  36   3  37   8  38   8  40   9  41  14
M  END
>  <minimizedAffinity>  (1) 
-6.3024416

>  <minimizedRMSD>  (1) 
8.32307434

$$$$
