
     RDKit          3D

 49 53  0  0  1  0  0  0  0  0999 V2000
   45.1300   30.7060   43.5300 O   0  0  0  0  0  0  0  0  0  0  0  0
   44.7090   30.0280   44.4820 C   0  0  0  0  0  0  0  0  0  0  0  0
   45.1000   29.6310   45.8580 C   0  0  1  0  0  0  0  0  0  0  0  0
   44.6250   28.2010   45.9140 C   0  0  0  0  0  0  0  0  0  0  0  0
   43.1880   28.4420   45.4520 C   0  0  0  0  0  0  0  0  0  0  0  0
   43.4420   29.3540   44.3450 N   0  0  0  0  0  0  0  0  0  0  0  0
   41.9330   30.7250   43.0860 N   0  0  0  0  0  0  0  0  0  0  0  0
   42.4660   29.4870   43.2860 C   0  0  0  0  0  0  0  0  0  0  0  0
   41.9400   28.6190   42.4110 N   0  0  0  0  0  0  0  0  0  0  0  0
   41.0570   29.3170   41.6400 C   0  0  0  0  0  0  0  0  0  0  0  0
   40.2270   29.0060   40.6040 C   0  0  0  0  0  0  0  0  0  0  0  0
   39.4620   29.9460   40.0430 N   0  0  0  0  0  0  0  0  0  0  0  0
   39.4560   31.2380   40.4560 C   0  0  0  0  0  0  0  0  0  0  0  0
   40.2610   31.5830   41.4770 N   0  0  0  0  0  0  0  0  0  0  0  0
   41.0420   30.6520   42.0570 C   0  0  0  0  0  0  0  0  0  0  0  0
   40.2070   27.6630   40.1450 N   0  0  0  0  0  0  0  0  0  0  0  0
   46.7580   29.9010   46.3270 S   0  0  0  0  0  0  0  0  0  0  0  0
   44.5610   35.4300   45.2360 C   0  0  0  0  0  0  0  0  0  0  0  0
   45.1930   35.4900   43.9760 C   0  0  0  0  0  0  0  0  0  0  0  0
   46.1150   34.5510   43.6480 C   0  0  0  0  0  0  0  0  0  0  0  0
   46.3710   33.5980   44.5760 N   0  0  0  0  0  0  0  0  0  0  0  0
   45.7760   33.5430   45.7590 C   0  0  0  0  0  0  0  0  0  0  0  0
   44.8660   34.4530   46.1060 N   0  0  0  0  0  0  0  0  0  0  0  0
   46.1350   32.4820   46.6620 N   0  0  0  0  0  0  0  0  0  0  0  0
   45.4260   32.1650   47.8470 C   0  0  0  0  0  0  0  0  0  0  0  0
   46.5300   31.7820   48.8180 C   0  0  0  0  0  0  0  0  0  0  0  0
   47.7930   31.7260   48.0140 C   0  0  0  0  0  0  0  0  0  0  0  0
   47.2620   31.5840   46.5880 C   0  0  1  0  0  0  0  0  0  0  0  0
   44.8070   36.5690   43.1060 N   0  0  0  0  0  0  0  0  0  0  0  0
   44.6424   30.2777   46.6211 H   0  0  0  0  0  0  0  0  0  0  0  0
   45.1814   27.5489   45.2247 H   0  0  0  0  0  0  0  0  0  0  0  0
   44.7442   27.6880   46.8797 H   0  0  0  0  0  0  0  0  0  0  0  0
   42.7037   27.5133   45.1159 H   0  0  0  0  0  0  0  0  0  0  0  0
   42.5048   28.8228   46.2255 H   0  0  0  0  0  0  0  0  0  0  0  0
   42.1645   31.5734   43.6222 H   0  0  0  0  0  0  0  0  0  0  0  0
   38.8102   31.9836   39.9691 H   0  0  0  0  0  0  0  0  0  0  0  0
   39.5912   27.3947   39.3642 H   0  0  0  0  0  0  0  0  0  0  0  0
   40.8083   26.9567   40.5928 H   0  0  0  0  0  0  0  0  0  0  0  0
   43.8128   36.1891   45.5080 H   0  0  0  0  0  0  0  0  0  0  0  0
   46.6297   34.5627   42.6759 H   0  0  0  0  0  0  0  0  0  0  0  0
   44.8617   33.0350   48.2141 H   0  0  0  0  0  0  0  0  0  0  0  0
   44.6805   31.3688   47.7046 H   0  0  0  0  0  0  0  0  0  0  0  0
   46.6173   32.5370   49.6132 H   0  0  0  0  0  0  0  0  0  0  0  0
   46.3204   30.8171   49.3029 H   0  0  0  0  0  0  0  0  0  0  0  0
   48.3812   32.6482   48.1306 H   0  0  0  0  0  0  0  0  0  0  0  0
   48.4724   30.9149   48.3150 H   0  0  0  0  0  0  0  0  0  0  0  0
   47.9623   31.8108   45.7706 H   0  0  0  0  0  0  0  0  0  0  0  0
   45.2379   36.6590   42.1748 H   0  0  0  0  0  0  0  0  0  0  0  0
   44.0998   37.2514   43.4144 H   0  0  0  0  0  0  0  0  0  0  0  0
  1  2  2  0
  2  3  1  0
  3  4  1  0
  3 17  1  0
  5  4  1  0
  6  2  1  0
  6  5  1  0
  7  8  1  0
  8  6  1  0
  9  8  2  0
 10 15  2  0
 10  9  1  0
 11 10  1  0
 12 13  1  0
 12 11  2  0
 13 14  2  0
 14 15  1  0
 15  7  1  0
 16 11  1  0
 17 28  1  0
 18 23  2  0
 19 18  1  0
 20 19  2  0
 20 21  1  0
 21 22  2  0
 22 23  1  0
 22 24  1  0
 24 25  1  0
 25 26  1  0
 27 26  1  0
 28 24  1  0
 28 27  1  0
 29 19  1  0
  3 30  1  1
  4 31  1  0
  4 32  1  0
  5 33  1  0
  5 34  1  0
  7 35  1  0
 13 36  1  0
 16 37  1  0
 16 38  1  0
 18 39  1  0
 20 40  1  0
 25 41  1  0
 25 42  1  0
 26 43  1  0
 26 44  1  0
 27 45  1  0
 27 46  1  0
 28 47  1  6
 29 48  1  0
 29 49  1  0
M  ISO  8  30  13  31  13  32  13  33  13  34  13  35   9  36  14  39  14
M  ISO  8  40  14  41  13  42  13  43  13  44  13  45  13  46  13  47  13
M  END
>  <minimizedAffinity>  (1) 
-6.33080721

>  <minimizedRMSD>  (1) 
0.797772825

$$$$
