
     RDKit          3D

 42 45  0  0  1  0  0  0  0  0999 V2000
   47.6270   30.1260   48.0890 C   0  0  2  0  0  0  0  0  0  0  0  0
   46.1720   29.9830   47.8550 C   0  0  2  0  0  0  0  0  0  0  0  0
   46.0990   29.1250   46.6470 C   0  0  0  0  0  0  0  0  0  0  0  0
   47.2180   28.3070   46.6460 O   0  0  0  0  0  0  0  0  0  0  0  0
   48.0710   28.7280   47.6140 C   0  0  0  0  0  0  0  0  0  0  0  0
   45.5030   31.1740   47.6930 O   0  0  0  0  0  0  0  0  0  0  0  0
   47.4520   32.8560   47.6080 O   0  0  0  0  0  0  0  0  0  0  0  0
   46.4000   32.2080   46.7480 P   0  0  1  0  0  0  0  0  0  0  0  0
   47.1670   31.3190   45.5290 O   0  0  0  0  0  0  0  0  0  0  0  0
   45.4430   33.4560   46.0680 O   0  0  0  0  0  0  0  0  0  0  0  0
   45.1760   35.6620   43.2850 C   0  0  0  0  0  0  0  0  0  0  0  0
   46.3210   35.3720   42.4930 C   0  0  0  0  0  0  0  0  0  0  0  0
   47.1800   34.3750   42.9820 C   0  0  0  0  0  0  0  0  0  0  0  0
   46.8730   33.7670   44.1460 N   0  0  0  0  0  0  0  0  0  0  0  0
   45.7680   34.0790   44.8650 C   0  0  0  0  0  0  0  0  0  0  0  0
   44.9370   35.0200   44.4250 N   0  0  0  0  0  0  0  0  0  0  0  0
   44.3260   36.6430   42.8120 O   0  0  0  0  0  0  0  0  0  0  0  0
   47.9330   30.3400   49.4240 O   0  0  0  0  0  0  0  0  0  0  0  0
   49.5900   30.0220   51.0390 N   0  0  0  0  0  0  0  0  0  0  0  0
   49.0960   30.7420   49.9980 C   0  0  0  0  0  0  0  0  0  0  0  0
   49.9490   31.7620   49.7700 N   0  0  0  0  0  0  0  0  0  0  0  0
   50.9700   31.7310   50.6180 C   0  0  0  0  0  0  0  0  0  0  0  0
   52.0710   32.5510   50.7660 C   0  0  0  0  0  0  0  0  0  0  0  0
   52.9600   32.2510   51.7490 N   0  0  0  0  0  0  0  0  0  0  0  0
   52.7460   31.1700   52.5440 C   0  0  0  0  0  0  0  0  0  0  0  0
   51.6660   30.3860   52.3780 N   0  0  0  0  0  0  0  0  0  0  0  0
   50.7420   30.6300   51.4180 C   0  0  0  0  0  0  0  0  0  0  0  0
   52.2470   33.6730   49.9040 N   0  0  0  0  0  0  0  0  0  0  0  0
   48.1045   30.9812   47.5884 H   0  0  0  0  0  0  0  0  0  0  0  0
   45.6664   29.5488   48.7301 H   0  0  0  0  0  0  0  0  0  0  0  0
   45.1862   28.5119   46.6769 H   0  0  0  0  0  0  0  0  0  0  0  0
   46.0701   29.7414   45.7364 H   0  0  0  0  0  0  0  0  0  0  0  0
   48.0476   28.0249   48.4596 H   0  0  0  0  0  0  0  0  0  0  0  0
   49.0957   28.7747   47.2167 H   0  0  0  0  0  0  0  0  0  0  0  0
   47.7557   30.6367   45.9388 H   0  0  0  0  0  0  0  0  0  0  0  0
   46.5225   35.8998   41.5492 H   0  0  0  0  0  0  0  0  0  0  0  0
   48.0868   34.0949   42.4259 H   0  0  0  0  0  0  0  0  0  0  0  0
   44.5285   37.1048   41.9600 H   0  0  0  0  0  0  0  0  0  0  0  0
   49.1717   29.1794   51.4584 H   0  0  0  0  0  0  0  0  0  0  0  0
   53.4693   30.9318   53.3378 H   0  0  0  0  0  0  0  0  0  0  0  0
   53.0687   34.2840   50.0153 H   0  0  0  0  0  0  0  0  0  0  0  0
   51.5525   33.8725   49.1700 H   0  0  0  0  0  0  0  0  0  0  0  0
  1 18  1  0
  2  1  1  0
  3  2  1  0
  4  3  1  0
  4  5  1  0
  5  1  1  0
  6  2  1  0
  8  7  2  0
  8  6  1  0
  9  8  1  0
 10  8  1  0
 11 16  2  0
 12 13  2  0
 12 11  1  0
 13 14  1  0
 14 15  2  0
 15 10  1  0
 16 15  1  0
 17 11  1  0
 18 20  1  0
 19 27  1  0
 20 19  1  0
 21 20  2  0
 21 22  1  0
 22 23  1  0
 22 27  2  0
 23 24  2  0
 24 25  1  0
 26 25  2  0
 27 26  1  0
 28 23  1  0
  1 29  1  6
  2 30  1  1
  3 31  1  0
  3 32  1  0
  5 33  1  0
  5 34  1  0
  9 35  1  0
 12 36  1  0
 13 37  1  0
 17 38  1  0
 19 39  1  0
 25 40  1  0
 28 41  1  0
 28 42  1  0
M  ISO  8  29  13  30  13  31  13  32  13  33  13  34  13  35   3  36  14
M  ISO  4  37  14  38   3  39   9  40  14
M  END
>  <minimizedAffinity>  (1) 
-6.16135788

>  <minimizedRMSD>  (1) 
1.15067613

$$$$
