
     RDKit          3D

 53 56  0  0  1  0  0  0  0  0999 V2000
   46.7300   34.3570   43.4730 N   0  0  0  0  0  0  0  0  0  0  0  0
   46.4740   34.9540   42.2130 C   0  0  0  0  0  0  0  0  0  0  0  0
   45.0180   34.9710   41.8200 C   0  0  0  0  0  0  0  0  0  0  0  0
   44.0620   35.1540   42.9840 C   0  0  0  0  0  0  0  0  0  0  0  0
   44.8210   35.3850   44.2810 C   0  0  0  0  0  0  0  0  0  0  0  0
   45.7360   34.0970   44.3840 C   0  0  2  0  0  0  0  0  0  0  0  0
   47.9380   33.5710   43.5230 C   0  0  0  0  0  0  0  0  0  0  0  0
   47.7150   32.3300   42.7390 C   0  0  0  0  0  0  0  0  0  0  0  0
   51.2160   32.1590   41.4030 C   0  0  0  0  0  0  0  0  0  0  0  0
   50.1180   32.3670   42.2600 C   0  0  0  0  0  0  0  0  0  0  0  0
   48.8550   32.1030   41.8210 C   0  0  0  0  0  0  0  0  0  0  0  0
   48.7200   31.6520   40.5760 N   0  0  0  0  0  0  0  0  0  0  0  0
   49.7530   31.4480   39.7460 C   0  0  0  0  0  0  0  0  0  0  0  0
   51.0120   31.6980   40.1470 N   0  0  0  0  0  0  0  0  0  0  0  0
   46.1550   34.1890   45.6990 O   0  0  0  0  0  0  0  0  0  0  0  0
   45.6440   31.5800   45.5880 O   0  0  0  0  0  0  0  0  0  0  0  0
   46.0570   32.7200   46.5150 P   0  0  2  0  0  0  0  0  0  0  0  0
   44.7440   32.8790   47.6000 O   0  0  0  0  0  0  0  0  0  0  0  0
   47.4180   32.3640   47.3970 O   0  0  0  0  0  0  0  0  0  0  0  0
   47.7180   31.0180   47.2650 C   0  0  0  0  0  0  0  0  0  0  0  0
   48.5830   30.6550   48.3790 N   0  0  0  0  0  0  0  0  0  0  0  0
   48.9920   31.6120   49.2520 C   0  0  0  0  0  0  0  0  0  0  0  0
   49.7830   31.0510   50.2010 N   0  0  0  0  0  0  0  0  0  0  0  0
   49.8720   29.7210   49.9190 C   0  0  0  0  0  0  0  0  0  0  0  0
   50.4980   28.6110   50.4630 C   0  0  0  0  0  0  0  0  0  0  0  0
   50.3410   27.4140   49.8700 N   0  0  0  0  0  0  0  0  0  0  0  0
   49.6040   27.2400   48.7740 C   0  0  0  0  0  0  0  0  0  0  0  0
   48.9800   28.2820   48.2110 N   0  0  0  0  0  0  0  0  0  0  0  0
   49.1120   29.4910   48.7710 C   0  0  0  0  0  0  0  0  0  0  0  0
   51.2750   28.8240   51.6280 N   0  0  0  0  0  0  0  0  0  0  0  0
   46.8349   35.9927   42.2440 H   0  0  0  0  0  0  0  0  0  0  0  0
   46.9964   34.3428   41.4623 H   0  0  0  0  0  0  0  0  0  0  0  0
   44.8615   35.7979   41.1117 H   0  0  0  0  0  0  0  0  0  0  0  0
   44.7974   33.9867   41.3813 H   0  0  0  0  0  0  0  0  0  0  0  0
   43.4158   36.0219   42.7858 H   0  0  0  0  0  0  0  0  0  0  0  0
   43.4585   34.2403   43.0890 H   0  0  0  0  0  0  0  0  0  0  0  0
   45.4291   36.3001   44.2270 H   0  0  0  0  0  0  0  0  0  0  0  0
   44.1638   35.5240   45.1521 H   0  0  0  0  0  0  0  0  0  0  0  0
   45.3178   33.1009   44.1770 H   0  0  0  0  0  0  0  0  0  0  0  0
   48.7720   34.1415   43.0884 H   0  0  0  0  0  0  0  0  0  0  0  0
   48.1879   33.3231   44.5652 H   0  0  0  0  0  0  0  0  0  0  0  0
   47.6240   31.4758   43.4260 H   0  0  0  0  0  0  0  0  0  0  0  0
   46.7911   32.4337   42.1510 H   0  0  0  0  0  0  0  0  0  0  0  0
   52.2369   32.3707   41.7536 H   0  0  0  0  0  0  0  0  0  0  0  0
   50.2794   32.7417   43.2815 H   0  0  0  0  0  0  0  0  0  0  0  0
   49.5691   31.0730   38.7284 H   0  0  0  0  0  0  0  0  0  0  0  0
   45.0784   32.8385   48.5309 H   0  0  0  0  0  0  0  0  0  0  0  0
   46.7941   30.4218   47.2961 H   0  0  0  0  0  0  0  0  0  0  0  0
   48.2178   30.8231   46.3047 H   0  0  0  0  0  0  0  0  0  0  0  0
   48.7234   32.6773   49.1979 H   0  0  0  0  0  0  0  0  0  0  0  0
   49.5080   26.2379   48.3306 H   0  0  0  0  0  0  0  0  0  0  0  0
   51.7621   28.0335   52.0738 H   0  0  0  0  0  0  0  0  0  0  0  0
   51.3529   29.7694   52.0293 H   0  0  0  0  0  0  0  0  0  0  0  0
  1  7  1  0
  1  6  1  0
  2  1  1  0
  3  2  1  0
  3  4  1  0
  4  5  1  0
  5  6  1  0
  6 15  1  0
  8  7  1  0
  9 10  2  0
 11 10  1  0
 11  8  1  0
 12 11  2  0
 13 14  2  0
 13 12  1  0
 14  9  1  0
 15 17  1  0
 17 16  2  0
 17 19  1  0
 17 18  1  0
 20 19  1  0
 20 21  1  0
 21 29  1  0
 21 22  1  0
 22 23  2  0
 24 23  1  0
 24 25  2  0
 25 30  1  0
 26 25  1  0
 27 26  2  0
 28 29  2  0
 28 27  1  0
 29 24  1  0
  2 31  1  0
  2 32  1  0
  3 33  1  0
  3 34  1  0
  4 35  1  0
  4 36  1  0
  5 37  1  0
  5 38  1  0
  6 39  1  6
  7 40  1  0
  7 41  1  0
  8 42  1  0
  8 43  1  0
  9 44  1  0
 10 45  1  0
 13 46  1  0
 18 47  1  0
 20 48  1  0
 20 49  1  0
 22 50  1  0
 27 51  1  0
 30 52  1  0
 30 53  1  0
M  ISO  8  31  13  32  13  33  13  34  13  35  13  36  13  37  13  38  13
M  ISO  8  39  13  40   8  41   8  42   8  43   8  44  14  45  14  46  14
M  ISO  5  47   3  48   8  49   8  50  14  51  14
M  END
>  <minimizedAffinity>  (1) 
-5.5294652

>  <minimizedRMSD>  (1) 
3.13655925

$$$$
