
     RDKit          3D

 46 50  0  0  0  0  0  0  0  0999 V2000
   45.8750   33.7990   43.5560 C   0  0  0  0  0  0  0  0  0  0  0  0
   45.2540   32.8910   42.6700 C   0  0  0  0  0  0  0  0  0  0  0  0
   44.9530   31.6120   43.2000 C   0  0  0  0  0  0  0  0  0  0  0  0
   45.2790   31.3640   44.4890 N   0  0  0  0  0  0  0  0  0  0  0  0
   45.8790   32.2860   45.2940 C   0  0  0  0  0  0  0  0  0  0  0  0
   46.1730   33.4960   44.8190 N   0  0  0  0  0  0  0  0  0  0  0  0
   44.9430   33.2280   41.3220 N   0  0  0  0  0  0  0  0  0  0  0  0
   45.5430   32.9810   40.1240 C   0  0  0  0  0  0  0  0  0  0  0  0
   44.8150   33.5400   39.1400 N   0  0  0  0  0  0  0  0  0  0  0  0
   43.7400   34.1510   39.6760 C   0  0  0  0  0  0  0  0  0  0  0  0
   42.6900   34.8630   39.1280 C   0  0  0  0  0  0  0  0  0  0  0  0
   41.7280   35.3750   39.9470 N   0  0  0  0  0  0  0  0  0  0  0  0
   41.8100   35.1820   41.2820 C   0  0  0  0  0  0  0  0  0  0  0  0
   42.8440   34.4850   41.7760 N   0  0  0  0  0  0  0  0  0  0  0  0
   43.8280   33.9530   41.0210 C   0  0  0  0  0  0  0  0  0  0  0  0
   42.5910   35.0750   37.7210 N   0  0  0  0  0  0  0  0  0  0  0  0
   48.2130   30.4820   45.5700 Cl  0  0  0  0  0  0  0  0  0  0  0  0
   47.2650   31.0950   46.9400 C   0  0  0  0  0  0  0  0  0  0  0  0
   46.1970   31.9310   46.6700 C   0  0  0  0  0  0  0  0  0  0  0  0
   45.4850   32.3880   47.7200 C   0  0  0  0  0  0  0  0  0  0  0  0
   45.8470   32.0080   49.0180 C   0  0  0  0  0  0  0  0  0  0  0  0
   46.9210   31.1700   49.2710 C   0  0  0  0  0  0  0  0  0  0  0  0
   47.6630   30.6900   48.1960 C   0  0  0  0  0  0  0  0  0  0  0  0
   49.9760   31.8140   49.1170 F   0  0  0  0  0  0  0  0  0  0  0  0
   49.9160   30.4910   48.8500 C   0  0  0  0  0  0  0  0  0  0  0  0
   48.8110   29.8030   48.3810 C   0  0  0  0  0  0  0  0  0  0  0  0
   48.8710   28.4500   48.1440 C   0  0  0  0  0  0  0  0  0  0  0  0
   50.0560   27.7870   48.3830 C   0  0  0  0  0  0  0  0  0  0  0  0
   51.1870   28.4460   48.8550 C   0  0  0  0  0  0  0  0  0  0  0  0
   51.1040   29.8100   49.0860 C   0  0  0  0  0  0  0  0  0  0  0  0
   44.3090   30.6960   42.2600 C   0  0  0  0  0  0  0  0  0  0  0  0
   43.9640   29.5450   42.9380 F   0  0  0  0  0  0  0  0  0  0  0  0
   45.2670   30.3340   41.3440 F   0  0  0  0  0  0  0  0  0  0  0  0
   43.1770   31.2250   41.7000 F   0  0  0  0  0  0  0  0  0  0  0  0
   46.1246   34.8043   43.1857 H   0  0  0  0  0  0  0  0  0  0  0  0
   46.4752   32.4142   39.9834 H   0  0  0  0  0  0  0  0  0  0  0  0
   41.0403   35.5904   41.9534 H   0  0  0  0  0  0  0  0  0  0  0  0
   41.7993   35.6090   37.3351 H   0  0  0  0  0  0  0  0  0  0  0  0
   43.3113   34.6941   37.0909 H   0  0  0  0  0  0  0  0  0  0  0  0
   44.6254   33.0550   47.5578 H   0  0  0  0  0  0  0  0  0  0  0  0
   45.2585   32.3878   49.8662 H   0  0  0  0  0  0  0  0  0  0  0  0
   47.1822   30.8894   50.3020 H   0  0  0  0  0  0  0  0  0  0  0  0
   47.9903   27.9068   47.7708 H   0  0  0  0  0  0  0  0  0  0  0  0
   50.1089   26.7045   48.1949 H   0  0  0  0  0  0  0  0  0  0  0  0
   52.1229   27.8984   49.0400 H   0  0  0  0  0  0  0  0  0  0  0  0
   51.9832   30.3564   49.4581 H   0  0  0  0  0  0  0  0  0  0  0  0
  1  6  2  0
  2  3  2  0
  2  1  1  0
  3  4  1  0
  4  5  2  0
  5 19  1  0
  6  5  1  0
  7  2  1  0
  8  7  1  0
  9 10  1  0
  9  8  2  0
 10 15  2  0
 11 10  1  0
 11 12  2  0
 12 13  1  0
 13 14  2  0
 15  7  1  0
 15 14  1  0
 16 11  1  0
 17 18  1  0
 18 23  2  0
 19 18  1  0
 19 20  2  0
 20 21  1  0
 21 22  2  0
 23 26  1  0
 23 22  1  0
 25 30  2  0
 25 24  1  0
 26 25  1  0
 27 26  2  0
 27 28  1  0
 28 29  2  0
 29 30  1  0
 31 32  1  0
 31  3  1  0
 33 31  1  0
 34 31  1  0
  1 35  1  0
  8 36  1  0
 13 37  1  0
 16 38  1  0
 16 39  1  0
 20 40  1  0
 21 41  1  0
 22 42  1  0
 27 43  1  0
 28 44  1  0
 29 45  1  0
 30 46  1  0
M  ISO  8  35  14  36  14  37  14  40  14  41  14  42  14  43  14  44  14
M  ISO  2  45  14  46  14
M  END
>  <minimizedAffinity>  (1) 
-5.91306067

>  <minimizedRMSD>  (1) 
3.03610873

$$$$
