
     RDKit          3D

 43 47  0  0  0  0  0  0  0  0999 V2000
   45.5580   32.5110   39.9290 Cl  0  0  0  0  0  0  0  0  0  0  0  0
   46.8870   33.6250   39.8040 C   0  0  0  0  0  0  0  0  0  0  0  0
   47.3830   34.2620   40.9180 C   0  0  0  0  0  0  0  0  0  0  0  0
   48.4440   35.1540   40.8460 C   0  0  0  0  0  0  0  0  0  0  0  0
   48.9760   35.3700   39.5940 C   0  0  0  0  0  0  0  0  0  0  0  0
   48.4810   34.7330   38.4710 C   0  0  0  0  0  0  0  0  0  0  0  0
   47.4560   33.8740   38.5640 C   0  0  0  0  0  0  0  0  0  0  0  0
   46.4360   32.5660   44.0540 C   0  0  0  0  0  0  0  0  0  0  0  0
   45.6080   33.5250   44.6800 C   0  0  0  0  0  0  0  0  0  0  0  0
   45.3890   34.7340   44.0150 C   0  0  0  0  0  0  0  0  0  0  0  0
   45.9810   34.9330   42.8010 N   0  0  0  0  0  0  0  0  0  0  0  0
   46.7730   33.9890   42.2280 C   0  0  0  0  0  0  0  0  0  0  0  0
   46.9880   32.8320   42.8540 N   0  0  0  0  0  0  0  0  0  0  0  0
   44.5330   35.8130   44.5850 C   0  0  0  0  0  0  0  0  0  0  0  0
   45.0640   37.0520   44.3150 F   0  0  0  0  0  0  0  0  0  0  0  0
   43.2730   35.7330   43.9990 F   0  0  0  0  0  0  0  0  0  0  0  0
   44.4140   35.5810   45.9270 F   0  0  0  0  0  0  0  0  0  0  0  0
   46.9170   33.1910   37.3970 C   0  0  0  0  0  0  0  0  0  0  0  0
   45.5760   33.2090   37.0130 C   0  0  0  0  0  0  0  0  0  0  0  0
   45.4340   32.4580   35.8690 C   0  0  0  0  0  0  0  0  0  0  0  0
   46.7090   32.0130   35.6040 C   0  0  0  0  0  0  0  0  0  0  0  0
   47.5620   32.4570   36.5150 O   0  0  0  0  0  0  0  0  0  0  0  0
   47.2470   31.1950   34.5680 N   0  0  0  0  0  0  0  0  0  0  0  0
   47.1830   29.8540   34.3820 C   0  0  0  0  0  0  0  0  0  0  0  0
   47.8490   29.5560   33.2510 N   0  0  0  0  0  0  0  0  0  0  0  0
   48.3150   30.6920   32.7490 C   0  0  0  0  0  0  0  0  0  0  0  0
   49.0620   30.9130   31.5990 C   0  0  0  0  0  0  0  0  0  0  0  0
   49.4100   32.1890   31.3170 N   0  0  0  0  0  0  0  0  0  0  0  0
   49.0460   33.2240   32.1220 C   0  0  0  0  0  0  0  0  0  0  0  0
   48.3220   33.0320   33.2400 N   0  0  0  0  0  0  0  0  0  0  0  0
   47.9560   31.7720   33.5550 C   0  0  0  0  0  0  0  0  0  0  0  0
   49.4650   29.8560   30.7280 N   0  0  0  0  0  0  0  0  0  0  0  0
   48.8382   35.6604   41.7394 H   0  0  0  0  0  0  0  0  0  0  0  0
   49.8183   36.0689   39.4844 H   0  0  0  0  0  0  0  0  0  0  0  0
   48.9340   34.9336   37.4889 H   0  0  0  0  0  0  0  0  0  0  0  0
   46.6300   31.6018   44.5467 H   0  0  0  0  0  0  0  0  0  0  0  0
   45.1503   33.3258   45.6602 H   0  0  0  0  0  0  0  0  0  0  0  0
   44.7660   33.7365   37.5381 H   0  0  0  0  0  0  0  0  0  0  0  0
   44.5147   32.2594   35.2986 H   0  0  0  0  0  0  0  0  0  0  0  0
   46.6751   29.1343   35.0408 H   0  0  0  0  0  0  0  0  0  0  0  0
   49.3519   34.2454   31.8515 H   0  0  0  0  0  0  0  0  0  0  0  0
   50.0188   30.0659   29.8853 H   0  0  0  0  0  0  0  0  0  0  0  0
   49.2020   28.8835   30.9423 H   0  0  0  0  0  0  0  0  0  0  0  0
  2  1  1  0
  2  3  2  0
  3 12  1  0
  4  3  1  0
  5  4  2  0
  6  7  2  0
  6  5  1  0
  7  2  1  0
  8  9  2  0
 10 14  1  0
 10  9  1  0
 11 10  2  0
 12 11  1  0
 12 13  2  0
 13  8  1  0
 14 17  1  0
 15 14  1  0
 16 14  1  0
 18  7  1  0
 19 18  2  0
 20 19  1  0
 21 20  2  0
 21 22  1  0
 22 18  1  0
 23 21  1  0
 24 23  1  0
 25 24  2  0
 26 25  1  0
 26 31  2  0
 27 26  1  0
 28 27  2  0
 28 29  1  0
 29 30  2  0
 30 31  1  0
 31 23  1  0
 32 27  1  0
  4 33  1  0
  5 34  1  0
  6 35  1  0
  8 36  1  0
  9 37  1  0
 19 38  1  0
 20 39  1  0
 24 40  1  0
 29 41  1  0
 32 42  1  0
 32 43  1  0
M  END
>  <minimizedAffinity>  (1) 
-7.13388968

>  <minimizedRMSD>  (1) 
3.1481061

$$$$
