
     RDKit          3D

 22 23  0  0  0  0  0  0  0  0999 V2000
   47.6590   33.8560   42.7590 C   0  0  0  0  0  0  0  0  0  0  0  0
   48.8160   33.6120   43.2430 O   0  0  0  0  0  0  0  0  0  0  0  0
   49.0450   35.8110   41.0610 Cl  0  0  0  0  0  0  0  0  0  0  0  0
   48.0400   34.4730   40.5180 C   0  0  0  0  0  0  0  0  0  0  0  0
   47.3950   33.5600   41.3520 C   0  0  0  0  0  0  0  0  0  0  0  0
   46.6350   32.5530   40.7950 C   0  0  0  0  0  0  0  0  0  0  0  0
   46.5250   32.4660   39.4290 C   0  0  0  0  0  0  0  0  0  0  0  0
   47.1540   33.3560   38.5820 C   0  0  0  0  0  0  0  0  0  0  0  0
   46.9640   33.1760   36.8410 Cl  0  0  0  0  0  0  0  0  0  0  0  0
   47.9160   34.3650   39.1360 C   0  0  0  0  0  0  0  0  0  0  0  0
   46.5620   34.4140   43.5030 C   0  0  0  0  0  0  0  0  0  0  0  0
   45.9540   35.5230   42.8690 C   0  0  0  0  0  0  0  0  0  0  0  0
   44.8880   36.1040   43.5440 C   0  0  0  0  0  0  0  0  0  0  0  0
   44.4990   35.5900   44.7380 N   0  0  0  0  0  0  0  0  0  0  0  0
   45.1030   34.5380   45.3020 C   0  0  0  0  0  0  0  0  0  0  0  0
   46.1330   33.9460   44.6920 N   0  0  0  0  0  0  0  0  0  0  0  0
   46.1209   31.8251   41.4399 H   0  0  0  0  0  0  0  0  0  0  0  0
   45.9151   31.6599   38.9952 H   0  0  0  0  0  0  0  0  0  0  0  0
   48.4274   35.0868   38.4823 H   0  0  0  0  0  0  0  0  0  0  0  0
   46.3049   35.9030   41.8982 H   0  0  0  0  0  0  0  0  0  0  0  0
   44.3648   36.9714   43.1152 H   0  0  0  0  0  0  0  0  0  0  0  0
   44.7497   34.1590   46.2723 H   0  0  0  0  0  0  0  0  0  0  0  0
  1  2  2  0
  1 11  1  0
  4  3  1  0
  4  5  2  0
  5  1  1  0
  6  5  1  0
  7  6  2  0
  8 10  2  0
  8  7  1  0
  9  8  1  0
 10  4  1  0
 11 16  1  0
 12 11  2  0
 12 13  1  0
 13 14  2  0
 14 15  1  0
 16 15  2  0
  6 17  1  0
  7 18  1  0
 10 19  1  0
 12 20  1  0
 13 21  1  0
 15 22  1  0
M  ISO  6  17  14  18  14  19  14  20  14  21  14  22  14
M  END
>  <minimizedAffinity>  (1) 
-4.7849288

>  <minimizedRMSD>  (1) 
1.47176135

$$$$
