
     RDKit          3D

 51 55  0  0  1  0  0  0  0  0999 V2000
   49.0700   29.3690   43.9920 N   0  0  0  0  0  0  0  0  0  0  0  0
   49.3310   30.1040   42.8290 C   0  0  1  0  0  0  0  0  0  0  0  0
   48.6730   29.4140   41.6680 C   0  0  0  0  0  0  0  0  0  0  0  0
   47.2580   29.5070   41.9290 N   0  0  0  0  0  0  0  0  0  0  0  0
   46.8490   28.7240   43.0750 C   0  0  0  0  0  0  0  0  0  0  0  0
   47.8050   28.7910   44.2310 C   0  0  2  0  0  0  0  0  0  0  0  0
   47.5400   33.0890   43.5050 C   0  0  0  0  0  0  0  0  0  0  0  0
   48.4540   33.5710   42.5770 C   0  0  0  0  0  0  0  0  0  0  0  0
   49.2470   32.5250   42.1970 C   0  0  0  0  0  0  0  0  0  0  0  0
   48.8220   31.4430   42.8790 N   0  0  0  0  0  0  0  0  0  0  0  0
   47.7960   31.8010   43.6600 N   0  0  0  0  0  0  0  0  0  0  0  0
   45.1380   34.2960   46.0100 C   0  0  0  0  0  0  0  0  0  0  0  0
   44.5380   35.3840   45.3790 C   0  0  0  0  0  0  0  0  0  0  0  0
   44.9680   35.6880   44.0970 C   0  0  0  0  0  0  0  0  0  0  0  0
   45.9380   34.9180   43.5390 N   0  0  0  0  0  0  0  0  0  0  0  0
   46.5000   33.8720   44.1740 C   0  0  0  0  0  0  0  0  0  0  0  0
   46.1060   33.5490   45.4180 N   0  0  0  0  0  0  0  0  0  0  0  0
   47.0610   29.4460   45.3760 C   0  0  1  0  0  0  0  0  0  0  0  0
   46.8320   28.5420   46.5960 C   0  0  0  0  0  0  0  0  0  0  0  0
   47.6910   29.7430   46.6620 C   0  0  1  0  0  0  0  0  0  0  0  0
   49.2060   29.6120   46.8180 C   0  0  0  0  0  0  0  0  0  0  0  0
   48.5660   31.9680   48.6740 Cl  0  0  0  0  0  0  0  0  0  0  0  0
   49.3280   30.4500   49.1760 C   0  0  0  0  0  0  0  0  0  0  0  0
   49.5730   29.4500   48.2410 C   0  0  0  0  0  0  0  0  0  0  0  0
   50.1790   28.2660   48.6820 C   0  0  0  0  0  0  0  0  0  0  0  0
   50.4810   28.2010   50.0250 C   0  0  0  0  0  0  0  0  0  0  0  0
   50.2560   29.1670   50.9810 C   0  0  0  0  0  0  0  0  0  0  0  0
   50.7280   28.8620   52.6370 Cl  0  0  0  0  0  0  0  0  0  0  0  0
   49.6510   30.3460   50.5320 C   0  0  0  0  0  0  0  0  0  0  0  0
   49.2543   30.0021   44.7833 H   0  0  0  0  0  0  0  0  0  0  0  0
   50.4247   30.1598   42.7256 H   0  0  0  0  0  0  0  0  0  0  0  0
   48.9877   28.3613   41.6155 H   0  0  0  0  0  0  0  0  0  0  0  0
   48.9460   29.8736   40.7066 H   0  0  0  0  0  0  0  0  0  0  0  0
   47.0190   30.4938   42.1019 H   0  0  0  0  0  0  0  0  0  0  0  0
   45.8694   29.0921   43.4140 H   0  0  0  0  0  0  0  0  0  0  0  0
   46.8161   27.6740   42.7487 H   0  0  0  0  0  0  0  0  0  0  0  0
   48.1045   27.7594   44.4679 H   0  0  0  0  0  0  0  0  0  0  0  0
   48.5264   34.6068   42.2138 H   0  0  0  0  0  0  0  0  0  0  0  0
   50.0742   32.5595   41.4728 H   0  0  0  0  0  0  0  0  0  0  0  0
   44.8150   34.0316   47.0277 H   0  0  0  0  0  0  0  0  0  0  0  0
   43.7564   35.9763   45.8772 H   0  0  0  0  0  0  0  0  0  0  0  0
   44.5336   36.5337   43.5438 H   0  0  0  0  0  0  0  0  0  0  0  0
   46.4756   30.0657   44.6808 H   0  0  0  0  0  0  0  0  0  0  0  0
   45.8555   28.5291   47.1022 H   0  0  0  0  0  0  0  0  0  0  0  0
   46.9533   27.4717   46.8191 H   0  0  0  0  0  0  0  0  0  0  0  0
   47.7077   30.6245   47.3198 H   0  0  0  0  0  0  0  0  0  0  0  0
   49.5525   28.7337   46.2535 H   0  0  0  0  0  0  0  0  0  0  0  0
   49.6815   30.5258   46.4321 H   0  0  0  0  0  0  0  0  0  0  0  0
   50.4010   27.4358   47.9953 H   0  0  0  0  0  0  0  0  0  0  0  0
   50.9558   27.2719   50.3733 H   0  0  0  0  0  0  0  0  0  0  0  0
   49.4351   31.1699   51.2282 H   0  0  0  0  0  0  0  0  0  0  0  0
  1  6  1  0
  2 10  1  0
  2  1  1  0
  3  4  1  0
  3  2  1  0
  4  5  1  0
  5  6  1  0
  6 18  1  0
  7 11  2  0
  7 16  1  0
  8  7  1  0
  9  8  2  0
  9 10  1  0
 10 11  1  0
 13 12  2  0
 14 13  1  0
 15 14  2  0
 15 16  1  0
 16 17  2  0
 17 12  1  0
 18 19  1  0
 18 20  1  0
 19 20  1  0
 20 21  1  0
 21 24  1  0
 22 23  1  0
 23 29  2  0
 24 25  2  0
 24 23  1  0
 25 26  1  0
 26 27  2  0
 27 28  1  0
 29 27  1  0
  1 30  1  0
  2 31  1  6
  3 32  1  0
  3 33  1  0
  4 34  1  0
  5 35  1  0
  5 36  1  0
  6 37  1  1
  8 38  1  0
  9 39  1  0
 12 40  1  0
 13 41  1  0
 14 42  1  0
 18 43  1  6
 19 44  1  0
 19 45  1  0
 20 46  1  1
 21 47  1  0
 21 48  1  0
 25 49  1  0
 26 50  1  0
 29 51  1  0
M  ISO  8  30   5  31  13  32  13  33  13  34   5  35  13  36  13  37  13
M  ISO  8  38  14  39  14  40  14  41  14  42  14  43  13  44  13  45  13
M  ISO  6  46  13  47   8  48   8  49  14  50  14  51  14
M  END
>  <minimizedAffinity>  (1) 
-5.13850021

>  <minimizedRMSD>  (1) 
3.57061863

$$$$
