
     RDKit          3D

 22 23  0  0  0  0  0  0  0  0999 V2000
   47.2180   34.9880   41.9340 C   0  0  0  0  0  0  0  0  0  0  0  0
   48.2740   35.6960   41.8680 O   0  0  0  0  0  0  0  0  0  0  0  0
   44.5220   33.6370   41.4500 Cl  0  0  0  0  0  0  0  0  0  0  0  0
   45.8600   33.6880   40.3140 C   0  0  0  0  0  0  0  0  0  0  0  0
   47.0460   34.3310   40.6360 C   0  0  0  0  0  0  0  0  0  0  0  0
   48.0150   34.2930   39.6480 C   0  0  0  0  0  0  0  0  0  0  0  0
   47.8040   33.6610   38.4390 C   0  0  0  0  0  0  0  0  0  0  0  0
   46.6170   33.0380   38.1640 C   0  0  0  0  0  0  0  0  0  0  0  0
   46.4200   32.2530   36.6050 Cl  0  0  0  0  0  0  0  0  0  0  0  0
   45.6320   33.0500   39.1120 C   0  0  0  0  0  0  0  0  0  0  0  0
   44.6550   35.9410   44.4200 C   0  0  0  0  0  0  0  0  0  0  0  0
   45.4790   35.9560   43.2810 C   0  0  0  0  0  0  0  0  0  0  0  0
   46.4080   34.9140   43.1160 C   0  0  0  0  0  0  0  0  0  0  0  0
   46.4350   33.9640   44.0800 N   0  0  0  0  0  0  0  0  0  0  0  0
   45.6400   33.9680   45.1590 C   0  0  0  0  0  0  0  0  0  0  0  0
   44.7320   34.9730   45.3360 N   0  0  0  0  0  0  0  0  0  0  0  0
   48.9832   34.7816   39.8321 H   0  0  0  0  0  0  0  0  0  0  0  0
   48.6037   33.6581   37.6837 H   0  0  0  0  0  0  0  0  0  0  0  0
   44.6682   32.5564   38.9186 H   0  0  0  0  0  0  0  0  0  0  0  0
   43.9247   36.7515   44.5606 H   0  0  0  0  0  0  0  0  0  0  0  0
   45.3988   36.7628   42.5376 H   0  0  0  0  0  0  0  0  0  0  0  0
   45.7188   33.1613   45.9027 H   0  0  0  0  0  0  0  0  0  0  0  0
  1 13  1  0
  2  1  2  0
  4  5  2  0
  4  3  1  0
  5  1  1  0
  6  5  1  0
  7  6  2  0
  8  7  1  0
  8 10  2  0
  9  8  1  0
 10  4  1  0
 11 16  2  0
 12 11  1  0
 13 12  2  0
 13 14  1  0
 14 15  2  0
 15 16  1  0
  6 17  1  0
  7 18  1  0
 10 19  1  0
 11 20  1  0
 12 21  1  0
 15 22  1  0
M  ISO  6  17  14  18  14  19  14  20  14  21  14  22  14
M  END
>  <minimizedAffinity>  (1) 
-4.81943369

>  <minimizedRMSD>  (1) 
0.520522714

$$$$
