
     RDKit          3D

 23 24  0  0  0  0  0  0  0  0999 V2000
   46.7460   34.6440   41.9050 C   0  0  0  0  0  0  0  0  0  0  0  0
   49.3530   36.0440   41.8790 Cl  0  0  0  0  0  0  0  0  0  0  0  0
   49.2090   34.2920   42.0050 C   0  0  0  0  0  0  0  0  0  0  0  0
   47.9210   33.7540   42.0060 C   0  0  0  0  0  0  0  0  0  0  0  0
   47.8110   32.3630   42.1050 C   0  0  0  0  0  0  0  0  0  0  0  0
   48.9080   31.5280   42.2000 C   0  0  0  0  0  0  0  0  0  0  0  0
   50.1910   32.0860   42.1970 C   0  0  0  0  0  0  0  0  0  0  0  0
   51.6090   31.0570   42.3150 Cl  0  0  0  0  0  0  0  0  0  0  0  0
   50.3230   33.4690   42.0980 C   0  0  0  0  0  0  0  0  0  0  0  0
   44.5430   36.2040   44.4530 C   0  0  0  0  0  0  0  0  0  0  0  0
   45.2350   36.0070   43.2450 C   0  0  0  0  0  0  0  0  0  0  0  0
   46.0290   34.8500   43.1550 C   0  0  0  0  0  0  0  0  0  0  0  0
   46.0740   34.0100   44.2290 N   0  0  0  0  0  0  0  0  0  0  0  0
   45.3840   34.2510   45.3680 C   0  0  0  0  0  0  0  0  0  0  0  0
   44.6180   35.3540   45.4740 N   0  0  0  0  0  0  0  0  0  0  0  0
   47.0888   35.6239   41.5413 H   0  0  0  0  0  0  0  0  0  0  0  0
   46.0407   34.1504   41.2203 H   0  0  0  0  0  0  0  0  0  0  0  0
   46.8068   31.9140   42.1073 H   0  0  0  0  0  0  0  0  0  0  0  0
   48.7742   30.4389   42.2770 H   0  0  0  0  0  0  0  0  0  0  0  0
   51.3276   33.9170   42.0934 H   0  0  0  0  0  0  0  0  0  0  0  0
   43.9126   37.0992   44.5586 H   0  0  0  0  0  0  0  0  0  0  0  0
   45.1591   36.7219   42.4124 H   0  0  0  0  0  0  0  0  0  0  0  0
   45.4488   33.5448   46.2089 H   0  0  0  0  0  0  0  0  0  0  0  0
  1  4  1  0
  1 12  1  0
  2  3  1  0
  3  4  2  0
  3  9  1  0
  4  5  1  0
  5  6  2  0
  7  6  1  0
  7  8  1  0
  9  7  2  0
 10 15  2  0
 11 10  1  0
 12 11  2  0
 12 13  1  0
 13 14  2  0
 14 15  1  0
  1 16  1  0
  1 17  1  0
  5 18  1  0
  6 19  1  0
  9 20  1  0
 10 21  1  0
 11 22  1  0
 14 23  1  0
M  ISO  8  16   8  17   8  18  14  19  14  20  14  21  14  22  14  23  14
M  END
>  <minimizedAffinity>  (1) 
-4.8242197

>  <minimizedRMSD>  (1) 
3.005795

$$$$
