
     RDKit          3D

 30 32  0  0  0  0  0  0  0  0999 V2000
   45.0250   36.1400   43.6330 Cl  0  0  0  0  0  0  0  0  0  0  0  0
   45.6210   34.7480   44.4710 C   0  0  0  0  0  0  0  0  0  0  0  0
   46.6050   33.9820   43.9210 C   0  0  0  0  0  0  0  0  0  0  0  0
   47.0250   32.8830   44.6610 C   0  0  0  0  0  0  0  0  0  0  0  0
   46.5080   32.5360   45.8930 C   0  0  0  0  0  0  0  0  0  0  0  0
   45.5190   33.3300   46.4160 C   0  0  0  0  0  0  0  0  0  0  0  0
   44.9110   32.8300   47.9830 Cl  0  0  0  0  0  0  0  0  0  0  0  0
   45.0820   34.4220   45.7120 C   0  0  0  0  0  0  0  0  0  0  0  0
   45.3160   30.1100   44.7520 Cl  0  0  0  0  0  0  0  0  0  0  0  0
   46.5650   30.1680   45.9830 C   0  0  0  0  0  0  0  0  0  0  0  0
   47.1040   31.3290   46.4990 C   0  0  0  0  0  0  0  0  0  0  0  0
   48.0860   31.2830   47.4670 C   0  0  0  0  0  0  0  0  0  0  0  0
   48.5130   30.0530   47.9060 C   0  0  0  0  0  0  0  0  0  0  0  0
   47.9860   28.8930   47.4020 C   0  0  0  0  0  0  0  0  0  0  0  0
   48.6240   27.3840   48.0540 Cl  0  0  0  0  0  0  0  0  0  0  0  0
   47.0020   28.9180   46.4320 C   0  0  0  0  0  0  0  0  0  0  0  0
   48.8990   35.3510   41.4140 C   0  0  0  0  0  0  0  0  0  0  0  0
   48.3690   34.8940   40.2080 C   0  0  0  0  0  0  0  0  0  0  0  0
   47.2060   34.1050   40.2540 C   0  0  0  0  0  0  0  0  0  0  0  0
   46.6590   33.8260   41.4710 N   0  0  0  0  0  0  0  0  0  0  0  0
   47.2030   34.2870   42.6150 C   0  0  0  0  0  0  0  0  0  0  0  0
   48.3210   35.0480   42.5860 N   0  0  0  0  0  0  0  0  0  0  0  0
   47.8192   32.2500   44.2384 H   0  0  0  0  0  0  0  0  0  0  0  0
   44.2884   35.0541   46.1370 H   0  0  0  0  0  0  0  0  0  0  0  0
   48.5166   32.2084   47.8773 H   0  0  0  0  0  0  0  0  0  0  0  0
   49.2944   29.9984   48.6783 H   0  0  0  0  0  0  0  0  0  0  0  0
   46.5775   27.9873   46.0274 H   0  0  0  0  0  0  0  0  0  0  0  0
   49.8075   35.9712   41.4042 H   0  0  0  0  0  0  0  0  0  0  0  0
   48.8466   35.1433   39.2490 H   0  0  0  0  0  0  0  0  0  0  0  0
   46.7485   33.7220   39.3299 H   0  0  0  0  0  0  0  0  0  0  0  0
  1  2  1  0
  2  8  2  0
  3  2  1  0
  3  4  2  0
  4  5  1  0
  5  6  2  0
  5 11  1  0
  6  7  1  0
  8  6  1  0
  9 10  1  0
 10 16  2  0
 10 11  1  0
 11 12  2  0
 12 13  1  0
 14 13  2  0
 14 15  1  0
 16 14  1  0
 17 22  2  0
 18 19  2  0
 18 17  1  0
 19 20  1  0
 20 21  2  0
 21  3  1  0
 22 21  1  0
  4 23  1  0
  8 24  1  0
 12 25  1  0
 13 26  1  0
 16 27  1  0
 17 28  1  0
 18 29  1  0
 19 30  1  0
M  ISO  8  23  14  24  14  25  14  26  14  27  14  28  14  29  14  30  14
M  END
>  <minimizedAffinity>  (1) 
-5.5774312

>  <minimizedRMSD>  (1) 
0.791690588

$$$$
