
     RDKit          3D

 33 36  0  0  0  0  0  0  0  0999 V2000
   46.7740   32.6540   44.8570 C   0  0  0  0  0  0  0  0  0  0  0  0
   45.8980   33.0430   45.8520 C   0  0  0  0  0  0  0  0  0  0  0  0
   45.1220   34.1930   45.7760 C   0  0  0  0  0  0  0  0  0  0  0  0
   45.2360   34.9960   44.6320 C   0  0  0  0  0  0  0  0  0  0  0  0
   44.6540   36.1610   44.2160 N   0  0  0  0  0  0  0  0  0  0  0  0
   45.1640   36.4740   42.9960 C   0  0  0  0  0  0  0  0  0  0  0  0
   46.0470   35.5070   42.6780 N   0  0  0  0  0  0  0  0  0  0  0  0
   46.1140   34.5890   43.6580 C   0  0  0  0  0  0  0  0  0  0  0  0
   46.8820   33.4580   43.7240 C   0  0  0  0  0  0  0  0  0  0  0  0
   45.7560   31.7830   41.5040 Cl  0  0  0  0  0  0  0  0  0  0  0  0
   47.4570   32.2400   41.5880 C   0  0  0  0  0  0  0  0  0  0  0  0
   47.8160   33.0230   42.6890 C   0  0  0  0  0  0  0  0  0  0  0  0
   49.1510   33.3940   42.7710 C   0  0  0  0  0  0  0  0  0  0  0  0
   50.1190   33.0380   41.8480 C   0  0  0  0  0  0  0  0  0  0  0  0
   49.7120   32.2730   40.7930 C   0  0  0  0  0  0  0  0  0  0  0  0
   50.8750   31.7880   39.5910 Cl  0  0  0  0  0  0  0  0  0  0  0  0
   48.4090   31.8790   40.6590 C   0  0  0  0  0  0  0  0  0  0  0  0
   45.6750   32.0270   49.3850 C   0  0  0  0  0  0  0  0  0  0  0  0
   45.4960   30.6290   49.2750 C   0  0  0  0  0  0  0  0  0  0  0  0
   45.4540   30.0460   47.9870 C   0  0  0  0  0  0  0  0  0  0  0  0
   45.5910   30.8880   46.9170 N   0  0  0  0  0  0  0  0  0  0  0  0
   45.7610   32.2230   47.0540 C   0  0  0  0  0  0  0  0  0  0  0  0
   45.8000   32.7660   48.2690 N   0  0  0  0  0  0  0  0  0  0  0  0
   47.3699   31.7348   44.9564 H   0  0  0  0  0  0  0  0  0  0  0  0
   44.4364   34.4663   46.5916 H   0  0  0  0  0  0  0  0  0  0  0  0
   43.9518   36.7061   44.7363 H   0  0  0  0  0  0  0  0  0  0  0  0
   44.9051   37.3506   42.3840 H   0  0  0  0  0  0  0  0  0  0  0  0
   49.4603   34.0122   43.6267 H   0  0  0  0  0  0  0  0  0  0  0  0
   51.1661   33.3562   41.9592 H   0  0  0  0  0  0  0  0  0  0  0  0
   48.1161   31.2638   39.7954 H   0  0  0  0  0  0  0  0  0  0  0  0
   45.7117   32.5057   50.3747 H   0  0  0  0  0  0  0  0  0  0  0  0
   45.3912   30.0056   50.1752 H   0  0  0  0  0  0  0  0  0  0  0  0
   45.3172   28.9630   47.8513 H   0  0  0  0  0  0  0  0  0  0  0  0
  1  2  2  0
  2 22  1  0
  3  2  1  0
  4  3  2  0
  5  4  1  0
  6  5  1  0
  7  6  2  0
  7  8  1  0
  8  9  2  0
  8  4  1  0
  9  1  1  0
 10 11  1  0
 11 12  2  0
 12 13  1  0
 12  9  1  0
 14 13  2  0
 15 14  1  0
 16 15  1  0
 17 15  2  0
 17 11  1  0
 19 18  2  0
 20 19  1  0
 21 22  1  0
 21 20  2  0
 22 23  2  0
 23 18  1  0
  1 24  1  0
  3 25  1  0
  5 26  1  0
  6 27  1  0
 13 28  1  0
 14 29  1  0
 17 30  1  0
 18 31  1  0
 19 32  1  0
 20 33  1  0
M  ISO  8  24  14  25  14  26   9  27  14  28  14  29  14  30  14  31  14
M  ISO  2  32  14  33  14
M  END
>  <minimizedAffinity>  (1) 
-6.28035784

>  <minimizedRMSD>  (1) 
6.30943298

$$$$
