
     RDKit          3D

 42 46  0  0  1  0  0  0  0  0999 V2000
   47.5200   32.9480   40.0350 C   0  0  1  0  0  0  0  0  0  0  0  0
   48.0550   34.2050   39.5510 C   0  0  0  0  0  0  0  0  0  0  0  0
   48.9670   33.0080   39.6130 C   0  0  2  0  0  0  0  0  0  0  0  0
   49.2760   32.3590   38.3140 C   0  0  0  0  0  0  0  0  0  0  0  0
   50.0490   31.2130   38.1780 C   0  0  0  0  0  0  0  0  0  0  0  0
   50.2820   30.6480   36.9310 C   0  0  0  0  0  0  0  0  0  0  0  0
   49.7470   31.2170   35.7990 C   0  0  0  0  0  0  0  0  0  0  0  0
   49.9520   30.6970   34.5640 N   0  0  0  0  0  0  0  0  0  0  0  0
   49.4150   31.2750   33.4660 C   0  0  0  0  0  0  0  0  0  0  0  0
   48.6280   32.4210   33.5090 C   0  0  0  0  0  0  0  0  0  0  0  0
   48.4030   32.9760   34.7650 C   0  0  0  0  0  0  0  0  0  0  0  0
   48.9650   32.3650   35.8880 C   0  0  0  0  0  0  0  0  0  0  0  0
   48.7560   32.9000   37.1470 C   0  0  0  0  0  0  0  0  0  0  0  0
   46.1090   31.9690   41.8830 C   0  0  0  0  0  0  0  0  0  0  0  0
   47.2380   32.7410   41.4810 C   0  0  0  0  0  0  0  0  0  0  0  0
   48.0310   33.2980   42.4670 C   0  0  0  0  0  0  0  0  0  0  0  0
   47.6820   33.0740   43.7640 N   0  0  0  0  0  0  0  0  0  0  0  0
   46.6120   32.3440   44.1240 C   0  0  0  0  0  0  0  0  0  0  0  0
   45.8190   31.7850   43.1800 N   0  0  0  0  0  0  0  0  0  0  0  0
   45.1230   34.5890   45.3550 Cl  0  0  0  0  0  0  0  0  0  0  0  0
   45.5840   33.1300   46.2080 C   0  0  0  0  0  0  0  0  0  0  0  0
   46.2800   32.1340   45.5430 C   0  0  0  0  0  0  0  0  0  0  0  0
   46.6710   30.9510   46.1810 C   0  0  0  0  0  0  0  0  0  0  0  0
   46.3430   30.7770   47.5310 C   0  0  0  0  0  0  0  0  0  0  0  0
   45.6490   31.7850   48.1680 C   0  0  0  0  0  0  0  0  0  0  0  0
   45.2560   31.5350   49.8570 Cl  0  0  0  0  0  0  0  0  0  0  0  0
   45.2590   32.9550   47.5520 C   0  0  0  0  0  0  0  0  0  0  0  0
   46.6375   32.3529   39.7574 H   0  0  0  0  0  0  0  0  0  0  0  0
   48.2028   35.0411   40.2503 H   0  0  0  0  0  0  0  0  0  0  0  0
   47.7646   34.9114   38.7593 H   0  0  0  0  0  0  0  0  0  0  0  0
   49.9412   32.7798   40.0700 H   0  0  0  0  0  0  0  0  0  0  0  0
   50.4840   30.7450   39.0734 H   0  0  0  0  0  0  0  0  0  0  0  0
   50.8979   29.7403   36.8482 H   0  0  0  0  0  0  0  0  0  0  0  0
   49.6110   30.8144   32.4865 H   0  0  0  0  0  0  0  0  0  0  0  0
   48.2049   32.8660   32.5964 H   0  0  0  0  0  0  0  0  0  0  0  0
   47.7908   33.8836   34.8719 H   0  0  0  0  0  0  0  0  0  0  0  0
   48.1409   33.8084   37.2273 H   0  0  0  0  0  0  0  0  0  0  0  0
   45.4638   31.5159   41.1159 H   0  0  0  0  0  0  0  0  0  0  0  0
   48.9144   33.9020   42.2123 H   0  0  0  0  0  0  0  0  0  0  0  0
   47.2245   30.1742   45.6331 H   0  0  0  0  0  0  0  0  0  0  0  0
   46.6307   29.8617   48.0690 H   0  0  0  0  0  0  0  0  0  0  0  0
   44.7068   33.7287   48.1056 H   0  0  0  0  0  0  0  0  0  0  0  0
  1 15  1  0
  2  3  1  0
  2  1  1  0
  3  1  1  0
  4  3  1  0
  5  4  2  0
  6  5  1  0
  7 12  1  0
  7  6  2  0
  8  7  1  0
  9 10  1  0
  9  8  2  0
 10 11  2  0
 11 12  1  0
 12 13  2  0
 13  4  1  0
 14 19  2  0
 15 14  1  0
 15 16  2  0
 16 17  1  0
 17 18  2  0
 18 22  1  0
 19 18  1  0
 20 21  1  0
 21 27  2  0
 22 23  2  0
 22 21  1  0
 23 24  1  0
 24 25  2  0
 25 26  1  0
 27 25  1  0
  1 28  1  6
  2 29  1  0
  2 30  1  0
  3 31  1  1
  5 32  1  0
  6 33  1  0
  9 34  1  0
 10 35  1  0
 11 36  1  0
 13 37  1  0
 14 38  1  0
 16 39  1  0
 23 40  1  0
 24 41  1  0
 27 42  1  0
M  ISO  8  28  13  29  13  30  13  31  13  32  14  33  14  34  14  35  14
M  ISO  7  36  14  37  14  38  14  39  14  40  14  41  14  42  14
M  END
>  <minimizedAffinity>  (1) 
-5.4002614

>  <minimizedRMSD>  (1) 
4.44247103

$$$$
