
     RDKit          3D

 24 25  0  0  0  0  0  0  0  0999 V2000
   43.8570   34.4450   40.4550 C   0  0  0  0  0  0  0  0  0  0  0  0
   41.9330   32.4240   41.4130 Cl  0  0  0  0  0  0  0  0  0  0  0  0
   41.6210   33.5300   40.0710 C   0  0  0  0  0  0  0  0  0  0  0  0
   42.5860   34.4520   39.6870 C   0  0  0  0  0  0  0  0  0  0  0  0
   42.2450   35.2820   38.6170 C   0  0  0  0  0  0  0  0  0  0  0  0
   41.0180   35.1530   38.0170 C   0  0  0  0  0  0  0  0  0  0  0  0
   40.0830   34.2260   38.4250 C   0  0  0  0  0  0  0  0  0  0  0  0
   38.5380   34.0930   37.6400 Cl  0  0  0  0  0  0  0  0  0  0  0  0
   40.3810   33.3890   39.4780 C   0  0  0  0  0  0  0  0  0  0  0  0
   43.8550   35.7210   41.7310 S   0  0  0  0  0  0  0  0  0  0  0  0
   44.3360   35.7320   44.4700 C   0  0  0  0  0  0  0  0  0  0  0  0
   44.4790   35.0070   43.2720 C   0  0  0  0  0  0  0  0  0  0  0  0
   45.0940   33.7490   43.2530 C   0  0  0  0  0  0  0  0  0  0  0  0
   45.5360   33.2890   44.4570 N   0  0  0  0  0  0  0  0  0  0  0  0
   45.3820   34.0040   45.5700 C   0  0  0  0  0  0  0  0  0  0  0  0
   44.8040   35.1960   45.6210 N   0  0  0  0  0  0  0  0  0  0  0  0
   44.6941   34.6285   39.7653 H   0  0  0  0  0  0  0  0  0  0  0  0
   43.9641   33.4648   40.9426 H   0  0  0  0  0  0  0  0  0  0  0  0
   42.9585   36.0374   38.2561 H   0  0  0  0  0  0  0  0  0  0  0  0
   40.7701   35.8167   37.1756 H   0  0  0  0  0  0  0  0  0  0  0  0
   39.6599   32.6379   39.8328 H   0  0  0  0  0  0  0  0  0  0  0  0
   43.8511   36.7194   44.4706 H   0  0  0  0  0  0  0  0  0  0  0  0
   45.2126   33.1694   42.3256 H   0  0  0  0  0  0  0  0  0  0  0  0
   45.7599   33.5766   46.5105 H   0  0  0  0  0  0  0  0  0  0  0  0
  1 10  1  0
  3  2  1  0
  4  3  2  0
  4  1  1  0
  5  4  1  0
  6  7  1  0
  6  5  2  0
  7  9  2  0
  8  7  1  0
  9  3  1  0
 10 12  1  0
 11 16  2  0
 12 11  1  0
 13 12  2  0
 13 14  1  0
 14 15  2  0
 15 16  1  0
  1 17  1  0
  1 18  1  0
  5 19  1  0
  6 20  1  0
  9 21  1  0
 11 22  1  0
 13 23  1  0
 15 24  1  0
M  ISO  8  17   8  18   8  19  14  20  14  21  14  22  14  23  14  24  14
M  END
>  <minimizedAffinity>  (1) 
-4.69634199

>  <minimizedRMSD>  (1) 
2.1557281

$$$$
