
     RDKit          3D

 45 48  0  0  0  0  0  0  0  0999 V2000
   38.5160   31.7880   41.1960 C   0  0  0  0  0  0  0  0  0  0  0  0
   39.8970   31.6860   40.9400 C   0  0  0  0  0  0  0  0  0  0  0  0
   40.3920   30.4540   40.5310 C   0  0  0  0  0  0  0  0  0  0  0  0
   39.5290   29.4310   40.4020 N   0  0  0  0  0  0  0  0  0  0  0  0
   38.2100   29.5570   40.6530 C   0  0  0  0  0  0  0  0  0  0  0  0
   37.6720   30.7110   41.0480 N   0  0  0  0  0  0  0  0  0  0  0  0
   37.3070   28.3830   40.4930 C   0  0  0  0  0  0  0  0  0  0  0  0
   35.9490   28.7920   39.9230 C   0  0  0  0  0  0  0  0  0  0  0  0
   32.9350   28.6440   39.6360 Cl  0  0  0  0  0  0  0  0  0  0  0  0
   34.1630   27.8370   38.6700 C   0  0  0  0  0  0  0  0  0  0  0  0
   35.5340   27.9230   38.8230 C   0  0  0  0  0  0  0  0  0  0  0  0
   36.3560   27.2190   37.9700 C   0  0  0  0  0  0  0  0  0  0  0  0
   35.7890   26.4290   36.9640 C   0  0  0  0  0  0  0  0  0  0  0  0
   34.4160   26.3360   36.8020 C   0  0  0  0  0  0  0  0  0  0  0  0
   33.7550   25.3230   35.5140 Cl  0  0  0  0  0  0  0  0  0  0  0  0
   33.5940   27.0580   37.6760 C   0  0  0  0  0  0  0  0  0  0  0  0
   40.9630   33.0870   41.1370 S   0  0  0  0  0  0  0  0  0  0  0  0
   40.9250   34.1030   39.6970 C   0  0  0  0  0  0  0  0  0  0  0  0
   39.8400   34.1600   38.8290 C   0  0  0  0  0  0  0  0  0  0  0  0
   39.8830   34.9890   37.7080 C   0  0  0  0  0  0  0  0  0  0  0  0
   40.9760   35.7510   37.4430 C   0  0  0  0  0  0  0  0  0  0  0  0
   42.0550   35.6940   38.3090 C   0  0  0  0  0  0  0  0  0  0  0  0
   42.0470   34.8770   39.4380 C   0  0  0  0  0  0  0  0  0  0  0  0
   43.1840   34.8280   40.3340 C   0  0  0  0  0  0  0  0  0  0  0  0
   44.2600   34.0020   40.1650 C   0  0  0  0  0  0  0  0  0  0  0  0
   45.3460   33.9640   41.0300 C   0  0  0  0  0  0  0  0  0  0  0  0
   45.3360   34.7880   42.0960 N   0  0  0  0  0  0  0  0  0  0  0  0
   44.2740   35.6070   42.2670 C   0  0  0  0  0  0  0  0  0  0  0  0
   43.2150   35.6430   41.4220 N   0  0  0  0  0  0  0  0  0  0  0  0
   38.1013   32.7531   41.5226 H   0  0  0  0  0  0  0  0  0  0  0  0
   41.4627   30.3189   40.3181 H   0  0  0  0  0  0  0  0  0  0  0  0
   37.7780   27.6607   39.8101 H   0  0  0  0  0  0  0  0  0  0  0  0
   37.1437   27.9365   41.4849 H   0  0  0  0  0  0  0  0  0  0  0  0
   35.1963   28.7364   40.7233 H   0  0  0  0  0  0  0  0  0  0  0  0
   36.0384   29.8164   39.5323 H   0  0  0  0  0  0  0  0  0  0  0  0
   37.4490   27.2776   38.0791 H   0  0  0  0  0  0  0  0  0  0  0  0
   36.4489   25.8684   36.2856 H   0  0  0  0  0  0  0  0  0  0  0  0
   32.5000   27.0067   37.5735 H   0  0  0  0  0  0  0  0  0  0  0  0
   38.9461   33.5502   39.0268 H   0  0  0  0  0  0  0  0  0  0  0  0
   39.0189   35.0263   37.0283 H   0  0  0  0  0  0  0  0  0  0  0  0
   41.0034   36.4016   36.5564 H   0  0  0  0  0  0  0  0  0  0  0  0
   42.9421   36.3100   38.1002 H   0  0  0  0  0  0  0  0  0  0  0  0
   44.2661   33.3293   39.2947 H   0  0  0  0  0  0  0  0  0  0  0  0
   46.1895   33.2812   40.8501 H   0  0  0  0  0  0  0  0  0  0  0  0
   44.2692   36.2794   43.1376 H   0  0  0  0  0  0  0  0  0  0  0  0
  2 17  1  0
  2  1  2  0
  3  2  1  0
  4  3  2  0
  4  5  1  0
  5  6  2  0
  6  1  1  0
  7  5  1  0
  8  7  1  0
 10 11  2  0
 10  9  1  0
 11  8  1  0
 12 11  1  0
 13 12  2  0
 14 13  1  0
 14 16  2  0
 15 14  1  0
 16 10  1  0
 18 17  1  0
 19 18  2  0
 20 19  1  0
 21 20  2  0
 21 22  1  0
 22 23  2  0
 23 18  1  0
 23 24  1  0
 24 29  1  0
 25 24  2  0
 25 26  1  0
 26 27  2  0
 27 28  1  0
 29 28  2  0
  1 30  1  0
  3 31  1  0
  7 32  1  0
  7 33  1  0
  8 34  1  0
  8 35  1  0
 12 36  1  0
 13 37  1  0
 16 38  1  0
 19 39  1  0
 20 40  1  0
 21 41  1  0
 22 42  1  0
 25 43  1  0
 26 44  1  0
 28 45  1  0
M  ISO  8  30  14  31  14  32   8  33   8  34   8  35   8  36  14  37  14
M  ISO  8  38  14  39  14  40  14  41  14  42  14  43  14  44  14  45  14
M  END
>  <minimizedAffinity>  (1) 
-5.7108326

>  <minimizedRMSD>  (1) 
1.90828407

$$$$
