
     RDKit          3D

 45 48  0  0  1  0  0  0  0  0999 V2000
   42.8160   34.4490   38.7390 C   0  0  1  0  0  0  0  0  0  0  0  0
   43.0070   35.1590   40.0790 C   0  0  1  0  0  0  0  0  0  0  0  0
   41.7430   35.5050   40.5940 O   0  0  0  0  0  0  0  0  0  0  0  0
   40.8280   35.8570   39.5980 C   0  0  0  0  0  0  0  0  0  0  0  0
   40.4250   34.6410   38.7850 C   0  0  2  0  0  0  0  0  0  0  0  0
   41.5630   33.6080   38.9140 C   0  0  1  0  0  0  0  0  0  0  0  0
   42.6270   35.3770   37.7170 O   0  0  0  0  0  0  0  0  0  0  0  0
   40.4380   35.0000   37.4320 O   0  0  0  0  0  0  0  0  0  0  0  0
   43.4890   34.1870   40.9660 O   0  0  0  0  0  0  0  0  0  0  0  0
   44.5950   34.2980   41.7070 C   0  0  0  0  0  0  0  0  0  0  0  0
   45.8470   34.4340   41.1120 C   0  0  0  0  0  0  0  0  0  0  0  0
   46.9610   34.5470   41.9290 C   0  0  0  0  0  0  0  0  0  0  0  0
   46.8080   34.5210   43.3080 N   0  0  0  0  0  0  0  0  0  0  0  0
   45.5850   34.3870   43.8410 C   0  0  0  0  0  0  0  0  0  0  0  0
   44.4820   34.2750   43.0580 N   0  0  0  0  0  0  0  0  0  0  0  0
   48.3390   34.6810   41.3340 C   0  0  0  0  0  0  0  0  0  0  0  0
   49.0490   36.0030   41.5170 C   0  0  0  0  0  0  0  0  0  0  0  0
   49.4930   34.6960   42.1920 C   0  0  0  0  0  0  0  0  0  0  0  0
   41.4300   32.6080   37.9710 O   0  0  0  0  0  0  0  0  0  0  0  0
   42.4420   30.5420   36.1970 Cl  0  0  0  0  0  0  0  0  0  0  0  0
   40.9250   30.5360   37.1090 C   0  0  0  0  0  0  0  0  0  0  0  0
   40.5360   31.5770   37.9290 C   0  0  0  0  0  0  0  0  0  0  0  0
   39.3380   31.4980   38.6070 C   0  0  0  0  0  0  0  0  0  0  0  0
   38.5000   30.3890   38.4880 C   0  0  0  0  0  0  0  0  0  0  0  0
   38.9550   29.3870   37.6490 C   0  0  0  0  0  0  0  0  0  0  0  0
   37.9340   27.9640   37.4630 Cl  0  0  0  0  0  0  0  0  0  0  0  0
   40.1410   29.4100   36.9470 C   0  0  0  0  0  0  0  0  0  0  0  0
   43.6932   33.8432   38.4677 H   0  0  0  0  0  0  0  0  0  0  0  0
   43.6598   36.0366   39.9617 H   0  0  0  0  0  0  0  0  0  0  0  0
   39.9325   36.2904   40.0673 H   0  0  0  0  0  0  0  0  0  0  0  0
   41.3003   36.5898   38.9273 H   0  0  0  0  0  0  0  0  0  0  0  0
   39.4467   34.2661   39.1202 H   0  0  0  0  0  0  0  0  0  0  0  0
   41.5732   33.0661   39.8712 H   0  0  0  0  0  0  0  0  0  0  0  0
   42.4456   36.2676   38.1094 H   0  0  0  0  0  0  0  0  0  0  0  0
   40.4737   35.9862   37.3526 H   0  0  0  0  0  0  0  0  0  0  0  0
   45.9495   34.4514   40.0169 H   0  0  0  0  0  0  0  0  0  0  0  0
   45.4733   34.3674   44.9351 H   0  0  0  0  0  0  0  0  0  0  0  0
   48.0607   34.0617   40.4685 H   0  0  0  0  0  0  0  0  0  0  0  0
   49.6400   36.4393   40.6982 H   0  0  0  0  0  0  0  0  0  0  0  0
   48.7766   37.0178   41.8425 H   0  0  0  0  0  0  0  0  0  0  0  0
   49.3692   34.5714   43.2779 H   0  0  0  0  0  0  0  0  0  0  0  0
   50.4341   34.1278   42.2301 H   0  0  0  0  0  0  0  0  0  0  0  0
   39.0352   32.3309   39.2586 H   0  0  0  0  0  0  0  0  0  0  0  0
   37.5426   30.3160   39.0247 H   0  0  0  0  0  0  0  0  0  0  0  0
   40.4461   28.5786   36.2945 H   0  0  0  0  0  0  0  0  0  0  0  0
  1  6  1  0
  1  2  1  0
  2  3  1  0
  2  9  1  0
  4  3  1  0
  5  6  1  0
  5  4  1  0
  7  1  1  0
  8  5  1  0
  9 10  1  0
 10 15  1  0
 11 10  2  0
 11 12  1  0
 12 13  2  0
 13 14  1  0
 15 14  2  0
 16 17  1  0
 16 12  1  0
 16 18  1  0
 17 18  1  0
 19  6  1  0
 20 21  1  0
 21 22  2  0
 22 19  1  0
 22 23  1  0
 24 23  2  0
 25 24  1  0
 26 25  1  0
 27 21  1  0
 27 25  2  0
  1 28  1  6
  2 29  1  6
  4 30  1  0
  4 31  1  0
  5 32  1  1
  6 33  1  1
  7 34  1  0
  8 35  1  0
 11 36  1  0
 14 37  1  0
 16 38  1  0
 17 39  1  0
 17 40  1  0
 18 41  1  0
 18 42  1  0
 23 43  1  0
 24 44  1  0
 27 45  1  0
M  ISO  8  28  13  29  13  30  13  31  13  32  13  33  13  34   3  35   3
M  ISO  8  36  14  37  14  38  13  39  13  40  13  41  13  42  13  43  14
M  ISO  2  44  14  45  14
M  END
>  <minimizedAffinity>  (1) 
-6.40614319

>  <minimizedRMSD>  (1) 
1.44138765

$$$$
