
     RDKit          3D

 47 49  0  0  0  0  0  0  0  0999 V2000
   45.4160   30.1490   47.3490 C   0  0  0  0  0  0  0  0  0  0  0  0
   45.9730   31.2200   46.7270 C   0  0  0  0  0  0  0  0  0  0  0  0
   46.2080   32.3710   47.4570 C   0  0  0  0  0  0  0  0  0  0  0  0
   45.9000   32.4760   48.7970 C   0  0  0  0  0  0  0  0  0  0  0  0
   45.3320   31.3800   49.4350 C   0  0  0  0  0  0  0  0  0  0  0  0
   45.0980   30.2300   48.6990 C   0  0  0  0  0  0  0  0  0  0  0  0
   45.0850   28.7610   46.3690 S   0  0  0  0  0  0  0  0  0  0  0  0
   43.8380   28.9610   45.5290 O   0  0  0  0  0  0  0  0  0  0  0  0
   44.7420   27.6270   47.3360 O   0  0  0  0  0  0  0  0  0  0  0  0
   48.0150   28.0830   47.5600 Cl  0  0  0  0  0  0  0  0  0  0  0  0
   47.6390   27.7810   45.8730 C   0  0  0  0  0  0  0  0  0  0  0  0
   46.4000   28.1810   45.4170 C   0  0  0  0  0  0  0  0  0  0  0  0
   46.2600   27.9840   44.0390 C   0  0  0  0  0  0  0  0  0  0  0  0
   47.2190   27.4530   43.2010 C   0  0  0  0  0  0  0  0  0  0  0  0
   48.4210   27.0840   43.7700 C   0  0  0  0  0  0  0  0  0  0  0  0
   49.6760   26.4030   42.7570 Cl  0  0  0  0  0  0  0  0  0  0  0  0
   48.6610   27.2400   45.1250 C   0  0  0  0  0  0  0  0  0  0  0  0
   46.3600   31.3210   45.4040 O   0  0  0  0  0  0  0  0  0  0  0  0
   45.2670   34.2830   43.8220 C   0  0  0  0  0  0  0  0  0  0  0  0
   46.4490   34.7380   43.1980 C   0  0  0  0  0  0  0  0  0  0  0  0
   47.6070   34.0170   43.3340 C   0  0  0  0  0  0  0  0  0  0  0  0
   47.5220   32.9070   44.0670 N   0  0  0  0  0  0  0  0  0  0  0  0
   46.4330   32.4690   44.6530 C   0  0  0  0  0  0  0  0  0  0  0  0
   45.2900   33.1630   44.5310 N   0  0  0  0  0  0  0  0  0  0  0  0
   48.8730   34.4060   42.7060 C   0  0  0  0  0  0  0  0  0  0  0  0
   48.7430   35.5820   41.7840 C   0  0  0  0  0  0  0  0  0  0  0  0
   48.6030   35.2120   40.3750 C   0  0  0  0  0  0  0  0  0  0  0  0
   48.0240   34.3150   39.5850 C   0  0  0  0  0  0  0  0  0  0  0  0
   48.2070   34.1960   38.0830 C   0  0  0  0  0  0  0  0  0  0  0  0
   46.6582   33.2365   46.9488 H   0  0  0  0  0  0  0  0  0  0  0  0
   46.0995   33.4066   49.3486 H   0  0  0  0  0  0  0  0  0  0  0  0
   45.0733   31.4247   50.5032 H   0  0  0  0  0  0  0  0  0  0  0  0
   44.6486   29.3580   49.1966 H   0  0  0  0  0  0  0  0  0  0  0  0
   45.3025   28.2779   43.5842 H   0  0  0  0  0  0  0  0  0  0  0  0
   47.0332   27.3289   42.1239 H   0  0  0  0  0  0  0  0  0  0  0  0
   49.6185   26.9469   45.5803 H   0  0  0  0  0  0  0  0  0  0  0  0
   44.3326   34.8544   43.7205 H   0  0  0  0  0  0  0  0  0  0  0  0
   46.4407   35.6653   42.6064 H   0  0  0  0  0  0  0  0  0  0  0  0
   49.5915   34.6619   43.4987 H   0  0  0  0  0  0  0  0  0  0  0  0
   49.2105   33.5529   42.0992 H   0  0  0  0  0  0  0  0  0  0  0  0
   47.8554   36.1599   42.0812 H   0  0  0  0  0  0  0  0  0  0  0  0
   49.6719   36.1644   41.8727 H   0  0  0  0  0  0  0  0  0  0  0  0
   49.1740   35.9211   39.7576 H   0  0  0  0  0  0  0  0  0  0  0  0
   47.3488   33.5907   40.0640 H   0  0  0  0  0  0  0  0  0  0  0  0
   49.1116   33.6078   37.8693 H   0  0  0  0  0  0  0  0  0  0  0  0
   47.3314   33.6940   37.6456 H   0  0  0  0  0  0  0  0  0  0  0  0
   48.3106   35.1999   37.6456 H   0  0  0  0  0  0  0  0  0  0  0  0
  1  6  2  0
  2  1  1  0
  2  3  2  0
  3  4  1  0
  4  5  2  0
  6  5  1  0
  7  9  2  0
  7  1  1  0
  8  7  2  0
 11 10  1  0
 12 11  2  0
 12  7  1  0
 13 12  1  0
 14 15  1  0
 14 13  2  0
 15 17  2  0
 16 15  1  0
 17 11  1  0
 18  2  1  0
 19 24  2  0
 20 21  2  0
 20 19  1  0
 21 22  1  0
 22 23  2  0
 23 18  1  0
 24 23  1  0
 25 21  1  0
 26 25  1  0
 27 26  1  0
 28 27  2  0
 29 28  1  0
  3 30  1  0
  4 31  1  0
  5 32  1  0
  6 33  1  0
 13 34  1  0
 14 35  1  0
 17 36  1  0
 19 37  1  0
 20 38  1  0
 25 39  1  0
 25 40  1  0
 26 41  1  0
 26 42  1  0
 27 43  1  0
 28 44  1  0
 29 45  1  0
 29 46  1  0
 29 47  1  0
M  ISO  8  30  14  31  14  32  14  33  14  34  14  35  14  36  14  37  14
M  ISO  8  38  14  39   8  40   8  41   8  42   8  45   8  46   8  47   8
M  END
>  <minimizedAffinity>  (1) 
-5.6095829

>  <minimizedRMSD>  (1) 
1.4063071

$$$$
