
     RDKit          3D

 33 35  0  0  0  0  0  0  0  0999 V2000
   49.0450   33.1630   41.9410 C   0  0  0  0  0  0  0  0  0  0  0  0
   48.6830   32.2700   40.8870 C   0  0  0  0  0  0  0  0  0  0  0  0
   49.6800   31.5390   40.2960 C   0  0  0  0  0  0  0  0  0  0  0  0
   51.0390   31.7040   40.7630 C   0  0  0  0  0  0  0  0  0  0  0  0
   50.9070   32.9340   42.0840 S   0  0  0  0  0  0  0  0  0  0  0  0
   52.0980   29.7000   42.7420 Cl  0  0  0  0  0  0  0  0  0  0  0  0
   52.7800   30.1660   41.1770 C   0  0  0  0  0  0  0  0  0  0  0  0
   52.2030   31.1030   40.3490 C   0  0  0  0  0  0  0  0  0  0  0  0
   52.7700   31.4270   39.1500 C   0  0  0  0  0  0  0  0  0  0  0  0
   53.9570   30.7930   38.7620 C   0  0  0  0  0  0  0  0  0  0  0  0
   54.5410   29.8420   39.6020 C   0  0  0  0  0  0  0  0  0  0  0  0
   56.0160   29.0900   39.0620 Cl  0  0  0  0  0  0  0  0  0  0  0  0
   53.9610   29.5140   40.8240 C   0  0  0  0  0  0  0  0  0  0  0  0
   48.3680   34.0880   42.7940 C   0  0  0  0  0  0  0  0  0  0  0  0
   47.7490   35.2880   42.1130 C   0  0  0  0  0  0  0  0  0  0  0  0
   46.2980   35.1360   42.1240 C   0  0  0  0  0  0  0  0  0  0  0  0
   45.5060   35.6670   43.1410 C   0  0  0  0  0  0  0  0  0  0  0  0
   44.1370   35.4800   43.0820 C   0  0  0  0  0  0  0  0  0  0  0  0
   43.6340   34.7870   42.0340 N   0  0  0  0  0  0  0  0  0  0  0  0
   44.4170   34.2830   41.0650 C   0  0  0  0  0  0  0  0  0  0  0  0
   45.7190   34.4650   41.1250 N   0  0  0  0  0  0  0  0  0  0  0  0
   47.6373   32.1721   40.5600 H   0  0  0  0  0  0  0  0  0  0  0  0
   49.4506   30.8382   39.4798 H   0  0  0  0  0  0  0  0  0  0  0  0
   52.3002   32.1769   38.4966 H   0  0  0  0  0  0  0  0  0  0  0  0
   54.4275   31.0430   37.7996 H   0  0  0  0  0  0  0  0  0  0  0  0
   54.4185   28.7662   41.4884 H   0  0  0  0  0  0  0  0  0  0  0  0
   47.5645   33.5429   43.3109 H   0  0  0  0  0  0  0  0  0  0  0  0
   49.1406   34.4934   43.4639 H   0  0  0  0  0  0  0  0  0  0  0  0
   48.1068   35.3496   41.0746 H   0  0  0  0  0  0  0  0  0  0  0  0
   48.0332   36.2082   42.6445 H   0  0  0  0  0  0  0  0  0  0  0  0
   45.9608   36.2236   43.9737 H   0  0  0  0  0  0  0  0  0  0  0  0
   43.4764   35.8827   43.8639 H   0  0  0  0  0  0  0  0  0  0  0  0
   43.9733   33.7230   40.2286 H   0  0  0  0  0  0  0  0  0  0  0  0
  1  5  1  0
  1 14  1  0
  2  1  2  0
  3  4  2  0
  3  2  1  0
  4  5  1  0
  7  6  1  0
  8  4  1  0
  8  7  2  0
  9  8  1  0
 10  9  2  0
 10 11  1  0
 11 13  2  0
 12 11  1  0
 13  7  1  0
 15 16  1  0
 15 14  1  0
 16 17  2  0
 18 17  1  0
 19 18  2  0
 20 21  2  0
 20 19  1  0
 21 16  1  0
  2 22  1  0
  3 23  1  0
  9 24  1  0
 10 25  1  0
 13 26  1  0
 14 27  1  0
 14 28  1  0
 15 29  1  0
 15 30  1  0
 17 31  1  0
 18 32  1  0
 20 33  1  0
M  ISO  8  22  14  23  14  24  14  25  14  26  14  27   8  28   8  29   8
M  ISO  4  30   8  31  14  32  14  33  14
M  END
>  <minimizedAffinity>  (1) 
-4.25739956

>  <minimizedRMSD>  (1) 
1.75774384

$$$$
