
     RDKit          3D

 36 39  0  0  0  0  0  0  0  0999 V2000
   46.8930   34.7610   42.8750 C   0  0  0  0  0  0  0  0  0  0  0  0
   45.7100   35.4940   43.0480 C   0  0  0  0  0  0  0  0  0  0  0  0
   44.9220   35.1640   44.1600 C   0  0  0  0  0  0  0  0  0  0  0  0
   45.3500   34.1630   44.9920 N   0  0  0  0  0  0  0  0  0  0  0  0
   46.4990   33.4940   44.7700 C   0  0  0  0  0  0  0  0  0  0  0  0
   47.2670   33.8030   43.7040 N   0  0  0  0  0  0  0  0  0  0  0  0
   47.1590   30.9180   43.3920 Cl  0  0  0  0  0  0  0  0  0  0  0  0
   47.2810   31.1870   45.1150 C   0  0  0  0  0  0  0  0  0  0  0  0
   46.9510   32.4250   45.6640 C   0  0  0  0  0  0  0  0  0  0  0  0
   47.0500   32.6320   47.0360 C   0  0  0  0  0  0  0  0  0  0  0  0
   47.4820   31.5900   47.8320 C   0  0  0  0  0  0  0  0  0  0  0  0
   47.8220   30.3470   47.3420 C   0  0  0  0  0  0  0  0  0  0  0  0
   48.3600   29.0740   48.4050 Cl  0  0  0  0  0  0  0  0  0  0  0  0
   47.7110   30.1760   45.9780 C   0  0  0  0  0  0  0  0  0  0  0  0
   47.6800   35.1110   41.7390 C   0  0  0  0  0  0  0  0  0  0  0  0
   48.5920   35.9760   41.7010 O   0  0  0  0  0  0  0  0  0  0  0  0
   46.3290   33.6890   40.1510 C   0  0  0  0  0  0  0  0  0  0  0  0
   47.4720   34.4460   40.4450 C   0  0  0  0  0  0  0  0  0  0  0  0
   48.4310   34.5650   39.4730 C   0  0  0  0  0  0  0  0  0  0  0  0
   48.3550   33.9930   38.2160 C   0  0  0  0  0  0  0  0  0  0  0  0
   49.1570   33.9850   37.1400 N   0  0  0  0  0  0  0  0  0  0  0  0
   48.5930   33.2660   36.1710 C   0  0  0  0  0  0  0  0  0  0  0  0
   47.3690   32.7860   36.6440 C   0  0  0  0  0  0  0  0  0  0  0  0
   47.2200   33.2500   37.9430 C   0  0  0  0  0  0  0  0  0  0  0  0
   46.2340   33.1040   38.8900 C   0  0  0  0  0  0  0  0  0  0  0  0
   45.4149   36.2882   42.3464 H   0  0  0  0  0  0  0  0  0  0  0  0
   43.9808   35.6971   44.3600 H   0  0  0  0  0  0  0  0  0  0  0  0
   46.7896   33.6053   47.4774 H   0  0  0  0  0  0  0  0  0  0  0  0
   47.5591   31.7608   48.9159 H   0  0  0  0  0  0  0  0  0  0  0  0
   47.9734   29.1975   45.5494 H   0  0  0  0  0  0  0  0  0  0  0  0
   45.5293   33.5605   40.8953 H   0  0  0  0  0  0  0  0  0  0  0  0
   49.3263   35.1586   39.7099 H   0  0  0  0  0  0  0  0  0  0  0  0
   50.0679   34.4613   37.0738 H   0  0  0  0  0  0  0  0  0  0  0  0
   49.0168   33.0822   35.1727 H   0  0  0  0  0  0  0  0  0  0  0  0
   46.6564   32.1574   36.0898 H   0  0  0  0  0  0  0  0  0  0  0  0
   45.3431   32.5072   38.6447 H   0  0  0  0  0  0  0  0  0  0  0  0
  1  2  2  0
  1  6  1  0
  2  3  1  0
  3  4  2  0
  5  4  1  0
  5  9  1  0
  6  5  2  0
  7  8  1  0
  8  9  2  0
  8 14  1  0
  9 10  1  0
 10 11  2  0
 12 11  1  0
 12 13  1  0
 14 12  2  0
 15  1  1  0
 16 15  2  0
 17 18  2  0
 18 15  1  0
 19 18  1  0
 20 19  2  0
 21 20  1  0
 22 23  2  0
 22 21  1  0
 23 24  1  0
 24 20  1  0
 24 25  2  0
 25 17  1  0
  2 26  1  0
  3 27  1  0
 10 28  1  0
 11 29  1  0
 14 30  1  0
 17 31  1  0
 19 32  1  0
 21 33  1  0
 22 34  1  0
 23 35  1  0
 25 36  1  0
M  ISO  8  26  14  27  14  28  14  29  14  30  14  31  14  32  14  33   9
M  ISO  3  34  14  35  14  36  14
M  END
>  <minimizedAffinity>  (1) 
-6.50663185

>  <minimizedRMSD>  (1) 
0.700498998

$$$$
