
     RDKit          3D

 45 49  0  0  0  0  0  0  0  0999 V2000
   49.7930   30.2040   49.3740 C   0  0  0  0  0  0  0  0  0  0  0  0
   50.0380   31.3470   50.0670 N   0  0  0  0  0  0  0  0  0  0  0  0
   50.6670   31.3650   51.2480 C   0  0  0  0  0  0  0  0  0  0  0  0
   51.0690   30.1910   51.7580 N   0  0  0  0  0  0  0  0  0  0  0  0
   50.8700   29.0070   51.1390 C   0  0  0  0  0  0  0  0  0  0  0  0
   51.2870   27.8010   51.6650 C   0  0  0  0  0  0  0  0  0  0  0  0
   51.0610   26.6240   50.9950 C   0  0  0  0  0  0  0  0  0  0  0  0
   50.4040   26.6030   49.7580 C   0  0  0  0  0  0  0  0  0  0  0  0
   50.0070   27.8320   49.2770 C   0  0  0  0  0  0  0  0  0  0  0  0
   50.2220   29.0170   49.9310 C   0  0  0  0  0  0  0  0  0  0  0  0
   51.5680   28.0640   46.6580 Cl  0  0  0  0  0  0  0  0  0  0  0  0
   49.8550   27.7100   46.6890 C   0  0  0  0  0  0  0  0  0  0  0  0
   49.3460   27.6480   47.9940 C   0  0  0  0  0  0  0  0  0  0  0  0
   47.9770   27.3800   48.1510 C   0  0  0  0  0  0  0  0  0  0  0  0
   47.1430   27.1830   47.0750 C   0  0  0  0  0  0  0  0  0  0  0  0
   47.6770   27.2510   45.8090 C   0  0  0  0  0  0  0  0  0  0  0  0
   46.6810   27.0120   44.3870 Cl  0  0  0  0  0  0  0  0  0  0  0  0
   49.0070   27.5100   45.6310 C   0  0  0  0  0  0  0  0  0  0  0  0
   48.9540   30.1500   47.8150 S   0  0  0  0  0  0  0  0  0  0  0  0
   46.0460   32.7550   46.8630 C   0  0  0  0  0  0  0  0  0  0  0  0
   47.1940   31.9820   46.8610 C   0  0  0  0  0  0  0  0  0  0  0  0
   47.4680   31.1060   47.8790 C   0  0  0  0  0  0  0  0  0  0  0  0
   46.5840   30.9810   48.9400 C   0  0  0  0  0  0  0  0  0  0  0  0
   45.4480   31.7230   48.9790 C   0  0  0  0  0  0  0  0  0  0  0  0
   45.1990   32.5960   47.9390 C   0  0  0  0  0  0  0  0  0  0  0  0
   44.5330   35.5460   45.0460 C   0  0  0  0  0  0  0  0  0  0  0  0
   45.1740   35.5000   43.7860 C   0  0  0  0  0  0  0  0  0  0  0  0
   46.1270   34.5070   43.5620 C   0  0  0  0  0  0  0  0  0  0  0  0
   46.4160   33.6120   44.5550 N   0  0  0  0  0  0  0  0  0  0  0  0
   45.7730   33.6910   45.7600 C   0  0  0  0  0  0  0  0  0  0  0  0
   44.8390   34.6520   45.9990 N   0  0  0  0  0  0  0  0  0  0  0  0
   50.8481   32.3095   51.7820 H   0  0  0  0  0  0  0  0  0  0  0  0
   51.8074   27.7825   52.6340 H   0  0  0  0  0  0  0  0  0  0  0  0
   51.4031   25.6775   51.4390 H   0  0  0  0  0  0  0  0  0  0  0  0
   50.2176   25.6689   49.2078 H   0  0  0  0  0  0  0  0  0  0  0  0
   47.5579   27.3258   49.1666 H   0  0  0  0  0  0  0  0  0  0  0  0
   46.0730   26.9757   47.2235 H   0  0  0  0  0  0  0  0  0  0  0  0
   49.4089   27.5594   44.6082 H   0  0  0  0  0  0  0  0  0  0  0  0
   47.9021   32.0726   46.0241 H   0  0  0  0  0  0  0  0  0  0  0  0
   46.8047   30.2761   49.7552 H   0  0  0  0  0  0  0  0  0  0  0  0
   44.7433   31.6309   49.8186 H   0  0  0  0  0  0  0  0  0  0  0  0
   44.2773   33.1956   47.9705 H   0  0  0  0  0  0  0  0  0  0  0  0
   43.7779   36.3204   45.2463 H   0  0  0  0  0  0  0  0  0  0  0  0
   44.9266   36.2302   43.0014 H   0  0  0  0  0  0  0  0  0  0  0  0
   46.6431   34.4439   42.5927 H   0  0  0  0  0  0  0  0  0  0  0  0
  1 10  1  0
  1  2  2  0
  2  3  1  0
  3  4  2  0
  5  6  2  0
  5  4  1  0
  7  6  1  0
  8  7  2  0
  9  8  1  0
  9 10  2  0
 10  5  1  0
 11 12  1  0
 12 13  2  0
 13 14  1  0
 13  9  1  0
 15 14  2  0
 16 15  1  0
 17 16  1  0
 18 16  2  0
 18 12  1  0
 19 22  1  0
 19  1  1  0
 20 25  1  0
 21 20  2  0
 21 22  1  0
 22 23  2  0
 23 24  1  0
 25 24  2  0
 26 31  2  0
 27 26  1  0
 28 27  2  0
 28 29  1  0
 29 30  2  0
 30 31  1  0
 30 20  1  0
  3 32  1  0
  6 33  1  0
  7 34  1  0
  8 35  1  0
 14 36  1  0
 15 37  1  0
 18 38  1  0
 21 39  1  0
 23 40  1  0
 24 41  1  0
 25 42  1  0
 26 43  1  0
 27 44  1  0
 28 45  1  0
M  ISO  8  32  14  33  14  34  14  35  14  36  14  37  14  38  14  39  14
M  ISO  6  40  14  41  14  42  14  43  14  44  14  45  14
M  END
>  <minimizedAffinity>  (1) 
-6.39481497

>  <minimizedRMSD>  (1) 
0.813055813

$$$$
