
     RDKit          3D

 38 40  0  0  1  0  0  0  0  0999 V2000
   44.6560   35.3760   45.3810 C   0  0  0  0  0  0  0  0  0  0  0  0
   44.5280   36.0570   44.1620 C   0  0  0  0  0  0  0  0  0  0  0  0
   45.1100   35.4970   43.0090 C   0  0  0  0  0  0  0  0  0  0  0  0
   45.7620   34.3250   43.1470 N   0  0  0  0  0  0  0  0  0  0  0  0
   45.8740   33.6800   44.3450 C   0  0  0  0  0  0  0  0  0  0  0  0
   45.3170   34.2120   45.4650 N   0  0  0  0  0  0  0  0  0  0  0  0
   46.5870   32.4430   44.3860 N   0  0  0  0  0  0  0  0  0  0  0  0
   46.4240   31.6510   45.6040 C   0  0  0  0  0  0  0  0  0  0  0  0
   47.4220   30.5870   45.7940 C   0  0  0  0  0  0  0  0  0  0  0  0
   47.8480   30.0010   44.4910 C   0  0  0  0  0  0  0  0  0  0  0  0
   48.4820   31.1060   43.7030 C   0  0  0  0  0  0  0  0  0  0  0  0
   47.4050   32.0360   43.2710 C   0  0  2  0  0  0  0  0  0  0  0  0
   46.9970   32.3040   40.4420 F   0  0  0  0  0  0  0  0  0  0  0  0
   47.7170   33.2870   41.0660 C   0  0  0  0  0  0  0  0  0  0  0  0
   47.9140   33.1580   42.4430 C   0  0  0  0  0  0  0  0  0  0  0  0
   48.6500   34.1810   43.0410 C   0  0  0  0  0  0  0  0  0  0  0  0
   49.1600   35.2550   42.3450 C   0  0  0  0  0  0  0  0  0  0  0  0
   48.9430   35.3470   40.9820 C   0  0  0  0  0  0  0  0  0  0  0  0
   48.2260   34.3630   40.3650 C   0  0  0  0  0  0  0  0  0  0  0  0
   47.9390   34.3720   38.9000 C   0  0  0  0  0  0  0  0  0  0  0  0
   44.2047   35.8055   46.2876 H   0  0  0  0  0  0  0  0  0  0  0  0
   43.9830   37.0110   44.1077 H   0  0  0  0  0  0  0  0  0  0  0  0
   45.0356   35.9969   42.0320 H   0  0  0  0  0  0  0  0  0  0  0  0
   46.4848   32.3331   46.4648 H   0  0  0  0  0  0  0  0  0  0  0  0
   45.4509   31.1461   45.5135 H   0  0  0  0  0  0  0  0  0  0  0  0
   48.3022   31.0085   46.3016 H   0  0  0  0  0  0  0  0  0  0  0  0
   46.9665   29.7896   46.3995 H   0  0  0  0  0  0  0  0  0  0  0  0
   48.5740   29.1919   44.6595 H   0  0  0  0  0  0  0  0  0  0  0  0
   46.9892   29.5754   43.9513 H   0  0  0  0  0  0  0  0  0  0  0  0
   49.2095   31.6423   44.3300 H   0  0  0  0  0  0  0  0  0  0  0  0
   49.0099   30.6985   42.8282 H   0  0  0  0  0  0  0  0  0  0  0  0
   46.7367   31.4838   42.5939 H   0  0  0  0  0  0  0  0  0  0  0  0
   48.8326   34.1274   44.1244 H   0  0  0  0  0  0  0  0  0  0  0  0
   49.7350   36.0329   42.8688 H   0  0  0  0  0  0  0  0  0  0  0  0
   49.3404   36.1963   40.4068 H   0  0  0  0  0  0  0  0  0  0  0  0
   46.8513   34.4061   38.7397 H   0  0  0  0  0  0  0  0  0  0  0  0
   48.4053   35.2560   38.4404 H   0  0  0  0  0  0  0  0  0  0  0  0
   48.3490   33.4606   38.4404 H   0  0  0  0  0  0  0  0  0  0  0  0
  1  6  2  0
  2  1  1  0
  3  4  1  0
  3  2  2  0
  4  5  2  0
  5  7  1  0
  5  6  1  0
  7  8  1  0
  8  9  1  0
 10  9  1  0
 11 10  1  0
 12 11  1  0
 12  7  1  0
 13 14  1  0
 14 15  2  0
 15 16  1  0
 15 12  1  0
 17 16  2  0
 18 17  1  0
 19 18  2  0
 19 14  1  0
 20 19  1  0
  1 21  1  0
  2 22  1  0
  3 23  1  0
  8 24  1  0
  8 25  1  0
  9 26  1  0
  9 27  1  0
 10 28  1  0
 10 29  1  0
 11 30  1  0
 11 31  1  0
 12 32  1  6
 16 33  1  0
 17 34  1  0
 18 35  1  0
 20 36  1  0
 20 37  1  0
 20 38  1  0
M  ISO  8  21  14  22  14  23  14  24  13  25  13  26  13  27  13  28  13
M  ISO  8  29  13  30  13  31  13  32  13  33  14  34  14  35  14  36   8
M  ISO  2  37   8  38   8
M  END
>  <minimizedAffinity>  (1) 
-5.8220005

>  <minimizedRMSD>  (1) 
0.352615416

$$$$
