
     RDKit          3D

 25 26  0  0  0  0  0  0  0  0999 V2000
   45.9640   32.0900   44.8230 C   0  0  0  0  0  0  0  0  0  0  0  0
   44.7770   35.5490   44.7960 C   0  0  0  0  0  0  0  0  0  0  0  0
   45.2570   36.0660   43.5780 C   0  0  0  0  0  0  0  0  0  0  0  0
   45.9850   35.2090   42.7810 C   0  0  0  0  0  0  0  0  0  0  0  0
   46.1990   33.9440   43.1980 N   0  0  0  0  0  0  0  0  0  0  0  0
   45.7220   33.4810   44.3760 C   0  0  0  0  0  0  0  0  0  0  0  0
   45.0000   34.2980   45.1880 N   0  0  0  0  0  0  0  0  0  0  0  0
   44.9320   37.4050   43.3170 N   0  0  0  0  0  0  0  0  0  0  0  0
   46.1540   32.0390   46.3120 C   0  0  0  0  0  0  0  0  0  0  0  0
   47.3020   32.4760   46.9660 C   0  0  0  0  0  0  0  0  0  0  0  0
   47.1060   32.2690   48.3290 C   0  0  0  0  0  0  0  0  0  0  0  0
   45.8270   31.7110   48.4230 C   0  0  0  0  0  0  0  0  0  0  0  0
   45.3400   31.6090   47.2180 O   0  0  0  0  0  0  0  0  0  0  0  0
   45.0800   31.2840   49.6130 C   0  0  0  0  0  0  0  0  0  0  0  0
   46.8682   31.7038   44.3297 H   0  0  0  0  0  0  0  0  0  0  0  0
   45.0924   31.4747   44.5553 H   0  0  0  0  0  0  0  0  0  0  0  0
   44.1914   36.2091   45.4528 H   0  0  0  0  0  0  0  0  0  0  0  0
   46.3868   35.5524   41.8163 H   0  0  0  0  0  0  0  0  0  0  0  0
   45.2493   37.8513   42.4446 H   0  0  0  0  0  0  0  0  0  0  0  0
   44.3760   37.9421   43.9977 H   0  0  0  0  0  0  0  0  0  0  0  0
   48.1980   32.9053   46.4939 H   0  0  0  0  0  0  0  0  0  0  0  0
   47.8027   32.4944   49.1499 H   0  0  0  0  0  0  0  0  0  0  0  0
   45.6231   31.5945   50.5178 H   0  0  0  0  0  0  0  0  0  0  0  0
   44.0829   31.7486   49.6063 H   0  0  0  0  0  0  0  0  0  0  0  0
   44.9744   30.1891   49.6063 H   0  0  0  0  0  0  0  0  0  0  0  0
  1  9  1  0
  2  7  2  0
  3  2  1  0
  4  5  1  0
  4  3  2  0
  5  6  2  0
  6  1  1  0
  6  7  1  0
  8  3  1  0
  9 10  2  0
  9 13  1  0
 10 11  1  0
 11 12  2  0
 12 14  1  0
 13 12  1  0
  1 15  1  0
  1 16  1  0
  2 17  1  0
  4 18  1  0
  8 19  1  0
  8 20  1  0
 10 21  1  0
 11 22  1  0
 14 23  1  0
 14 24  1  0
 14 25  1  0
M  ISO  8  15   8  16   8  17  14  18  14  21  14  22  14  23   8  24   8
M  ISO  1  25   8
M  END
>  <minimizedAffinity>  (1) 
-4.45661831

>  <minimizedRMSD>  (1) 
0.398190647

$$$$
