
     RDKit          3D

 21 22  0  0  0  0  0  0  0  0999 V2000
   44.4780   35.1700   46.0020 C   0  0  0  0  0  0  0  0  0  0  0  0
   44.9600   35.2300   44.6820 C   0  0  0  0  0  0  0  0  0  0  0  0
   45.7920   34.2250   44.2550 C   0  0  0  0  0  0  0  0  0  0  0  0
   46.0970   33.2250   45.1590 N   0  0  0  0  0  0  0  0  0  0  0  0
   45.6180   33.2090   46.4060 C   0  0  0  0  0  0  0  0  0  0  0  0
   44.8060   34.1870   46.8250 N   0  0  0  0  0  0  0  0  0  0  0  0
   46.3410   34.2100   42.8810 C   0  0  0  0  0  0  0  0  0  0  0  0
   45.8240   33.4160   41.8930 C   0  0  0  0  0  0  0  0  0  0  0  0
   46.9010   33.8210   40.4450 S   0  0  0  0  0  0  0  0  0  0  0  0
   47.8840   35.0400   41.5010 C   0  0  0  0  0  0  0  0  0  0  0  0
   47.3490   34.9380   42.5050 N   0  0  0  0  0  0  0  0  0  0  0  0
   49.0350   35.8360   40.9670 C   0  0  0  0  0  0  0  0  0  0  0  0
   44.5480   36.3330   43.8980 N   0  0  0  0  0  0  0  0  0  0  0  0
   43.8077   35.9647   46.3613 H   0  0  0  0  0  0  0  0  0  0  0  0
   45.8912   32.3912   47.0891 H   0  0  0  0  0  0  0  0  0  0  0  0
   44.9795   32.7132   41.9468 H   0  0  0  0  0  0  0  0  0  0  0  0
   49.6209   36.2412   41.8052 H   0  0  0  0  0  0  0  0  0  0  0  0
   49.6756   35.1870   40.3518 H   0  0  0  0  0  0  0  0  0  0  0  0
   48.6538   36.6644   40.3518 H   0  0  0  0  0  0  0  0  0  0  0  0
   44.8732   36.4233   42.9249 H   0  0  0  0  0  0  0  0  0  0  0  0
   43.9228   37.0459   44.3003 H   0  0  0  0  0  0  0  0  0  0  0  0
  1  6  2  0
  2  1  1  0
  3  2  2  0
  3  4  1  0
  4  5  2  0
  5  6  1  0
  7  3  1  0
  8  7  2  0
  9 10  1  0
  9  8  1  0
 10 11  2  0
 11  7  1  0
 12 10  1  0
 13  2  1  0
  1 14  1  0
  5 15  1  0
  8 16  1  0
 12 17  1  0
 12 18  1  0
 12 19  1  0
 13 20  1  0
 13 21  1  0
M  ISO  6  14  14  15  14  16  14  17   8  18   8  19   8
M  END
>  <minimizedAffinity>  (1) 
-4.16434622

>  <minimizedRMSD>  (1) 
1.05017686

$$$$
