
     RDKit          3D

 36 38  0  0  0  0  0  0  0  0999 V2000
   45.3860   35.3180   43.2180 Cl  0  0  0  0  0  0  0  0  0  0  0  0
   45.2120   34.5650   41.6610 C   0  0  0  0  0  0  0  0  0  0  0  0
   46.2930   34.1640   40.9550 C   0  0  0  0  0  0  0  0  0  0  0  0
   46.0410   33.5680   39.7220 C   0  0  0  0  0  0  0  0  0  0  0  0
   44.7690   33.3920   39.2360 C   0  0  0  0  0  0  0  0  0  0  0  0
   43.7020   33.8050   39.9660 C   0  0  0  0  0  0  0  0  0  0  0  0
   43.9320   34.3940   41.1860 C   0  0  0  0  0  0  0  0  0  0  0  0
   47.6190   31.8220   38.8740 C   0  0  0  0  0  0  0  0  0  0  0  0
   47.1680   33.1070   38.9250 C   0  0  0  0  0  0  0  0  0  0  0  0
   47.8180   34.0620   38.1650 C   0  0  0  0  0  0  0  0  0  0  0  0
   48.8940   33.7140   37.3790 C   0  0  0  0  0  0  0  0  0  0  0  0
   49.3620   32.4050   37.3180 C   0  0  0  0  0  0  0  0  0  0  0  0
   48.7000   31.4530   38.0880 C   0  0  0  0  0  0  0  0  0  0  0  0
   46.8470   30.5990   39.7520 S   0  0  0  0  0  0  0  0  0  0  0  0
   45.5700   30.1260   39.0880 O   0  0  0  0  0  0  0  0  0  0  0  0
   47.7900   29.3700   39.6400 O   0  0  0  0  0  0  0  0  0  0  0  0
   46.5060   30.6380   41.4120 C   0  0  0  0  0  0  0  0  0  0  0  0
   49.5820   35.7230   41.9410 C   0  0  0  0  0  0  0  0  0  0  0  0
   48.3080   35.5480   41.4020 C   0  0  0  0  0  0  0  0  0  0  0  0
   47.6120   34.3580   41.5010 C   0  0  0  0  0  0  0  0  0  0  0  0
   48.2680   33.3800   42.1620 N   0  0  0  0  0  0  0  0  0  0  0  0
   49.4960   33.5340   42.6850 C   0  0  0  0  0  0  0  0  0  0  0  0
   50.1440   34.6970   42.5750 N   0  0  0  0  0  0  0  0  0  0  0  0
   44.6149   32.9168   38.2560 H   0  0  0  0  0  0  0  0  0  0  0  0
   42.6770   33.6714   39.5898 H   0  0  0  0  0  0  0  0  0  0  0  0
   43.0795   34.7341   41.7923 H   0  0  0  0  0  0  0  0  0  0  0  0
   47.4734   35.1064   38.1884 H   0  0  0  0  0  0  0  0  0  0  0  0
   49.3964   34.4909   36.7841 H   0  0  0  0  0  0  0  0  0  0  0  0
   50.2208   32.1334   36.6865 H   0  0  0  0  0  0  0  0  0  0  0  0
   49.0352   30.4054   38.0729 H   0  0  0  0  0  0  0  0  0  0  0  0
   47.4413   30.5310   41.9811 H   0  0  0  0  0  0  0  0  0  0  0  0
   46.0298   31.5965   41.6661 H   0  0  0  0  0  0  0  0  0  0  0  0
   45.8257   29.8118   41.6661 H   0  0  0  0  0  0  0  0  0  0  0  0
   50.1086   36.6839   41.8446 H   0  0  0  0  0  0  0  0  0  0  0  0
   47.8374   36.3919   40.8763 H   0  0  0  0  0  0  0  0  0  0  0  0
   49.9731   32.6931   43.2096 H   0  0  0  0  0  0  0  0  0  0  0  0
  2  1  1  0
  3 20  1  0
  3  2  2  0
  4  3  1  0
  5  4  2  0
  5  6  1  0
  6  7  2  0
  7  2  1  0
  8  9  2  0
  8 14  1  0
  9  4  1  0
 10  9  1  0
 11 10  2  0
 12 11  1  0
 12 13  2  0
 13  8  1  0
 14 17  1  0
 15 14  2  0
 16 14  2  0
 18 23  2  0
 19 20  2  0
 19 18  1  0
 20 21  1  0
 21 22  2  0
 23 22  1  0
  5 24  1  0
  6 25  1  0
  7 26  1  0
 10 27  1  0
 11 28  1  0
 12 29  1  0
 13 30  1  0
 17 31  1  0
 17 32  1  0
 17 33  1  0
 18 34  1  0
 19 35  1  0
 22 36  1  0
M  ISO  8  24  14  25  14  26  14  27  14  28  14  29  14  30  14  31   8
M  ISO  5  32   8  33   8  34  14  35  14  36  14
M  END
>  <minimizedAffinity>  (1) 
-4.59937096

>  <minimizedRMSD>  (1) 
0.499320745

$$$$
