
     RDKit          3D

 27 28  0  0  0  0  0  0  0  0999 V2000
   43.8270   35.6630   41.3710 C   0  0  0  0  0  0  0  0  0  0  0  0
   42.5380   35.0800   41.0620 N   0  0  0  0  0  0  0  0  0  0  0  0
   41.4560   35.4030   41.7520 C   0  0  0  0  0  0  0  0  0  0  0  0
   40.2630   34.8120   41.4060 C   0  0  0  0  0  0  0  0  0  0  0  0
   40.1700   33.9100   40.3800 C   0  0  0  0  0  0  0  0  0  0  0  0
   39.0760   33.3910   40.0910 O   0  0  0  0  0  0  0  0  0  0  0  0
   41.2970   33.5910   39.6820 N   0  0  0  0  0  0  0  0  0  0  0  0
   42.4760   34.1760   40.0230 C   0  0  0  0  0  0  0  0  0  0  0  0
   43.4850   33.8390   39.3380 O   0  0  0  0  0  0  0  0  0  0  0  0
   44.4100   35.8680   43.7440 C   0  0  0  0  0  0  0  0  0  0  0  0
   44.3290   35.0520   42.6030 C   0  0  0  0  0  0  0  0  0  0  0  0
   44.7380   33.7520   42.7540 C   0  0  0  0  0  0  0  0  0  0  0  0
   45.1880   33.3080   43.9450 N   0  0  0  0  0  0  0  0  0  0  0  0
   45.2400   34.1540   45.0130 C   0  0  0  0  0  0  0  0  0  0  0  0
   44.8560   35.4430   44.9420 N   0  0  0  0  0  0  0  0  0  0  0  0
   45.7030   33.7290   46.2560 O   0  0  0  0  0  0  0  0  0  0  0  0
   46.6530   32.7340   46.4750 C   0  0  0  0  0  0  0  0  0  0  0  0
   43.7192   36.7486   41.5122 H   0  0  0  0  0  0  0  0  0  0  0  0
   44.5310   35.4809   40.5456 H   0  0  0  0  0  0  0  0  0  0  0  0
   41.5092   36.1249   42.5803 H   0  0  0  0  0  0  0  0  0  0  0  0
   39.3557   35.0720   41.9710 H   0  0  0  0  0  0  0  0  0  0  0  0
   41.2557   32.9151   38.9059 H   0  0  0  0  0  0  0  0  0  0  0  0
   44.0901   36.9166   43.6536 H   0  0  0  0  0  0  0  0  0  0  0  0
   44.6987   33.0651   41.8958 H   0  0  0  0  0  0  0  0  0  0  0  0
   46.7905   32.5900   47.5568 H   0  0  0  0  0  0  0  0  0  0  0  0
   46.3098   31.7929   46.0205 H   0  0  0  0  0  0  0  0  0  0  0  0
   47.6090   33.0334   46.0205 H   0  0  0  0  0  0  0  0  0  0  0  0
  1 11  1  0
  2  1  1  0
  2  3  1  0
  4  3  2  0
  5  4  1  0
  6  5  2  0
  7  8  1  0
  7  5  1  0
  8  2  1  0
  9  8  2  0
 10 15  2  0
 11 12  2  0
 11 10  1  0
 12 13  1  0
 13 14  2  0
 14 16  1  0
 15 14  1  0
 16 17  1  0
  1 18  1  0
  1 19  1  0
  3 20  1  0
  4 21  1  0
  7 22  1  0
 10 23  1  0
 12 24  1  0
 17 25  1  0
 17 26  1  0
 17 27  1  0
M  ISO  8  18   8  19   8  20  14  21  14  22   9  23  14  24  14  25   8
M  ISO  2  26   8  27   8
M  END
>  <minimizedAffinity>  (1) 
-4.59469414

>  <minimizedRMSD>  (1) 
0.220104098

$$$$
