
     RDKit          3D

 23 23  0  0  0  0  0  0  0  0999 V2000
   44.9060   35.1270   44.1520 C   0  0  0  0  0  0  0  0  0  0  0  0
   45.6910   35.3880   43.0190 C   0  0  0  0  0  0  0  0  0  0  0  0
   46.8800   34.6880   42.8710 C   0  0  0  0  0  0  0  0  0  0  0  0
   47.2380   33.7950   43.8070 N   0  0  0  0  0  0  0  0  0  0  0  0
   46.4560   33.5690   44.8900 C   0  0  0  0  0  0  0  0  0  0  0  0
   45.3150   34.2320   45.0420 N   0  0  0  0  0  0  0  0  0  0  0  0
   43.6740   35.8350   44.3290 N   0  0  0  0  0  0  0  0  0  0  0  0
   47.6480   34.9990   41.6800 C   0  0  0  0  0  0  0  0  0  0  0  0
   48.7290   35.6310   41.6530 O   0  0  0  0  0  0  0  0  0  0  0  0
   47.0190   34.4950   40.5330 O   0  0  0  0  0  0  0  0  0  0  0  0
   48.9470   32.7580   39.8820 O   0  0  0  0  0  0  0  0  0  0  0  0
   47.8500   33.6090   39.3370 P   0  0  1  0  0  0  0  0  0  0  0  0
   46.6860   32.5720   38.6410 O   0  0  0  0  0  0  0  0  0  0  0  0
   48.4150   34.6460   38.1490 O   0  0  0  0  0  0  0  0  0  0  0  0
   48.4590   34.0030   36.9100 C   0  0  0  0  0  0  0  0  0  0  0  0
   45.3729   36.1269   42.2688 H   0  0  0  0  0  0  0  0  0  0  0  0
   46.7672   32.8335   45.6465 H   0  0  0  0  0  0  0  0  0  0  0  0
   43.3720   36.5264   43.6278 H   0  0  0  0  0  0  0  0  0  0  0  0
   43.0898   35.6528   45.1575 H   0  0  0  0  0  0  0  0  0  0  0  0
   46.1769   32.1184   39.3588 H   0  0  0  0  0  0  0  0  0  0  0  0
   48.5334   32.9163   37.0633 H   0  0  0  0  0  0  0  0  0  0  0  0
   47.5431   34.2318   36.3454 H   0  0  0  0  0  0  0  0  0  0  0  0
   49.3352   34.3545   36.3454 H   0  0  0  0  0  0  0  0  0  0  0  0
  1  7  1  0
  1  6  2  0
  2  1  1  0
  3  2  2  0
  3  4  1  0
  4  5  2  0
  5  6  1  0
  8  3  1  0
  9  8  2  0
 10  8  1  0
 12 11  2  0
 12 10  1  0
 13 12  1  0
 14 12  1  0
 15 14  1  0
  2 16  1  0
  5 17  1  0
  7 18  1  0
  7 19  1  0
 13 20  1  0
 15 21  1  0
 15 22  1  0
 15 23  1  0
M  ISO  6  16  14  17  14  20   3  21   8  22   8  23   8
M  END
>  <minimizedAffinity>  (1) 
-4.52944994

>  <minimizedRMSD>  (1) 
0.815881968

$$$$
