
     RDKit          3D

 39 41  0  0  1  0  0  0  0  0999 V2000
   47.0650   34.8130   41.9490 C   0  0  2  0  0  0  0  0  0  0  0  0
   46.2890   34.2010   40.7790 C   0  0  0  0  0  0  0  0  0  0  0  0
   47.4890   34.0010   39.8270 C   0  0  0  0  0  0  0  0  0  0  0  0
   48.6240   33.6020   40.7180 C   0  0  1  0  0  0  0  0  0  0  0  0
   48.1170   33.7520   42.1240 C   0  0  0  0  0  0  0  0  0  0  0  0
   44.5460   36.0140   44.4790 C   0  0  0  0  0  0  0  0  0  0  0  0
   45.2840   35.9830   43.3000 C   0  0  0  0  0  0  0  0  0  0  0  0
   46.1980   34.9440   43.1560 C   0  0  0  0  0  0  0  0  0  0  0  0
   46.3510   33.9860   44.1680 N   0  0  0  0  0  0  0  0  0  0  0  0
   45.6000   34.0730   45.2960 C   0  0  0  0  0  0  0  0  0  0  0  0
   44.7030   35.0840   45.4460 N   0  0  0  0  0  0  0  0  0  0  0  0
   49.0740   32.1670   40.5560 C   0  0  2  0  0  0  0  0  0  0  0  0
   49.7520   31.5760   41.7000 C   0  0  0  0  0  0  0  0  0  0  0  0
   50.4880   31.8200   40.4200 C   0  0  1  0  0  0  0  0  0  0  0  0
   50.8070   30.6830   39.6370 O   0  0  0  0  0  0  0  0  0  0  0  0
   52.0780   30.0610   37.4460 O   0  0  0  0  0  0  0  0  0  0  0  0
   51.9510   31.1400   38.4920 P   0  0  1  0  0  0  0  0  0  0  0  0
   51.4460   32.5730   37.6950 O   0  0  0  0  0  0  0  0  0  0  0  0
   53.4590   31.4460   39.1190 O   0  0  0  0  0  0  0  0  0  0  0  0
   53.8570   30.2910   39.8260 C   0  0  0  0  0  0  0  0  0  0  0  0
   47.4533   35.8295   41.7877 H   0  0  0  0  0  0  0  0  0  0  0  0
   45.8049   33.2507   41.0485 H   0  0  0  0  0  0  0  0  0  0  0  0
   45.4484   34.7928   40.3876 H   0  0  0  0  0  0  0  0  0  0  0  0
   47.7230   34.9362   39.2972 H   0  0  0  0  0  0  0  0  0  0  0  0
   47.2835   33.2457   39.0541 H   0  0  0  0  0  0  0  0  0  0  0  0
   49.4888   34.2329   40.4647 H   0  0  0  0  0  0  0  0  0  0  0  0
   48.9139   34.0842   42.8057 H   0  0  0  0  0  0  0  0  0  0  0  0
   47.7437   32.8180   42.5693 H   0  0  0  0  0  0  0  0  0  0  0  0
   43.8126   36.8201   44.6282 H   0  0  0  0  0  0  0  0  0  0  0  0
   45.1510   36.7448   42.5178 H   0  0  0  0  0  0  0  0  0  0  0  0
   45.7177   33.3226   46.0917 H   0  0  0  0  0  0  0  0  0  0  0  0
   48.1958   31.9309   39.9371 H   0  0  0  0  0  0  0  0  0  0  0  0
   49.9713   32.1874   42.5877 H   0  0  0  0  0  0  0  0  0  0  0  0
   49.5773   30.7037   42.3470 H   0  0  0  0  0  0  0  0  0  0  0  0
   51.4011   32.3590   40.1271 H   0  0  0  0  0  0  0  0  0  0  0  0
   51.2048   33.2575   38.3683 H   0  0  0  0  0  0  0  0  0  0  0  0
   53.7912   30.4821   40.9073 H   0  0  0  0  0  0  0  0  0  0  0  0
   53.1959   29.4528   39.5609 H   0  0  0  0  0  0  0  0  0  0  0  0
   54.8942   30.0380   39.5609 H   0  0  0  0  0  0  0  0  0  0  0  0
  1  5  1  0
  1  8  1  0
  2  1  1  0
  3  4  1  0
  3  2  1  0
  4  5  1  0
  6 11  2  0
  7  6  1  0
  8  7  2  0
  8  9  1  0
  9 10  2  0
 10 11  1  0
 12  4  1  0
 12 13  1  0
 14 12  1  0
 14 13  1  0
 15 14  1  0
 17 16  2  0
 17 19  1  0
 17 15  1  0
 18 17  1  0
 19 20  1  0
  1 21  1  6
  2 22  1  0
  2 23  1  0
  3 24  1  0
  3 25  1  0
  4 26  1  1
  5 27  1  0
  5 28  1  0
  6 29  1  0
  7 30  1  0
 10 31  1  0
 12 32  1  6
 13 33  1  0
 13 34  1  0
 14 35  1  1
 18 36  1  0
 20 37  1  0
 20 38  1  0
 20 39  1  0
M  ISO  8  21  13  22  13  23  13  24  13  25  13  26  13  27  13  28  13
M  ISO  8  29  14  30  14  31  14  32  13  33  13  34  13  35  13  36   3
M  ISO  3  37   8  38   8  39   8
M  END
>  <minimizedAffinity>  (1) 
-5.02136707

>  <minimizedRMSD>  (1) 
0.199828669

$$$$
