
     RDKit          3D

 40 43  0  0  1  0  0  0  0  0999 V2000
   47.5050   32.5370   44.3430 C   0  0  0  0  0  0  0  0  0  0  0  0
   46.7980   33.5030   43.6290 C   0  0  0  0  0  0  0  0  0  0  0  0
   45.7500   34.2400   44.1800 C   0  0  0  0  0  0  0  0  0  0  0  0
   45.3830   34.0090   45.5020 C   0  0  0  0  0  0  0  0  0  0  0  0
   44.4580   34.5050   46.3460 N   0  0  0  0  0  0  0  0  0  0  0  0
   44.5530   33.8970   47.5490 C   0  0  0  0  0  0  0  0  0  0  0  0
   45.5550   33.0170   47.4270 N   0  0  0  0  0  0  0  0  0  0  0  0
   46.0810   33.0600   46.1950 C   0  0  0  0  0  0  0  0  0  0  0  0
   47.1280   32.3100   45.6800 C   0  0  0  0  0  0  0  0  0  0  0  0
   47.0430   33.1760   39.9930 C   0  0  0  0  0  0  0  0  0  0  0  0
   47.8690   34.2330   39.6260 C   0  0  0  0  0  0  0  0  0  0  0  0
   48.3370   35.0550   40.6430 C   0  0  0  0  0  0  0  0  0  0  0  0
   47.9810   34.8070   41.9500 N   0  0  0  0  0  0  0  0  0  0  0  0
   47.1720   33.7580   42.2370 C   0  0  0  0  0  0  0  0  0  0  0  0
   46.6810   32.9170   41.2860 N   0  0  0  0  0  0  0  0  0  0  0  0
   44.8700   35.4610   43.2490 S   0  0  0  0  0  0  0  0  0  0  0  0
   42.3660   35.2870   42.4860 N   0  0  0  0  0  0  0  0  0  0  0  0
   43.6660   34.7820   42.0920 C   0  0  1  0  0  0  0  0  0  0  0  0
   44.0620   35.2910   40.7110 C   0  0  0  0  0  0  0  0  0  0  0  0
   43.0310   35.2530   39.7930 O   0  0  0  0  0  0  0  0  0  0  0  0
   41.9080   34.5760   40.1920 C   0  0  0  0  0  0  0  0  0  0  0  0
   41.3790   35.2060   41.4590 C   0  0  1  0  0  0  0  0  0  0  0  0
   40.1140   34.5620   41.9430 C   0  0  0  0  0  0  0  0  0  0  0  0
   48.3273   31.9728   43.8787 H   0  0  0  0  0  0  0  0  0  0  0  0
   43.7772   35.2407   46.1090 H   0  0  0  0  0  0  0  0  0  0  0  0
   43.9370   34.0853   48.4407 H   0  0  0  0  0  0  0  0  0  0  0  0
   47.6472   31.5616   46.2968 H   0  0  0  0  0  0  0  0  0  0  0  0
   46.6610   32.5139   39.2020 H   0  0  0  0  0  0  0  0  0  0  0  0
   48.1402   34.4105   38.5748 H   0  0  0  0  0  0  0  0  0  0  0  0
   48.9928   35.9052   40.4042 H   0  0  0  0  0  0  0  0  0  0  0  0
   42.0376   34.7410   43.2952 H   0  0  0  0  0  0  0  0  0  0  0  0
   43.6341   33.6825   42.0841 H   0  0  0  0  0  0  0  0  0  0  0  0
   44.4032   36.3322   40.8084 H   0  0  0  0  0  0  0  0  0  0  0  0
   44.8537   34.6257   40.3359 H   0  0  0  0  0  0  0  0  0  0  0  0
   41.1428   34.6339   39.4039 H   0  0  0  0  0  0  0  0  0  0  0  0
   42.1561   33.5204   40.3770 H   0  0  0  0  0  0  0  0  0  0  0  0
   41.1189   36.2409   41.1919 H   0  0  0  0  0  0  0  0  0  0  0  0
   40.1030   34.5564   43.0429 H   0  0  0  0  0  0  0  0  0  0  0  0
   39.2481   35.1290   41.5705 H   0  0  0  0  0  0  0  0  0  0  0  0
   40.0631   33.5282   41.5705 H   0  0  0  0  0  0  0  0  0  0  0  0
  1  9  2  0
  2  3  2  0
  2  1  1  0
  3  4  1  0
  4  8  2  0
  4  5  1  0
  5  6  1  0
  7  6  2  0
  8  7  1  0
  9  8  1  0
 10 15  2  0
 11 10  1  0
 11 12  2  0
 12 13  1  0
 13 14  2  0
 14  2  1  0
 15 14  1  0
 16  3  1  0
 18 17  1  0
 18 16  1  0
 19 18  1  0
 20 21  1  0
 20 19  1  0
 21 22  1  0
 22 23  1  0
 22 17  1  0
  1 24  1  0
  5 25  1  0
  6 26  1  0
  9 27  1  0
 10 28  1  0
 11 29  1  0
 12 30  1  0
 17 31  1  0
 18 32  1  6
 19 33  1  0
 19 34  1  0
 21 35  1  0
 21 36  1  0
 22 37  1  6
 23 38  1  0
 23 39  1  0
 23 40  1  0
M  ISO  8  24  14  25   9  26  14  27  14  28  14  29  14  30  14  31   5
M  ISO  8  32  13  33  13  34  13  35  13  36  13  37  13  38   8  39   8
M  ISO  1  40   8
M  END
>  <minimizedAffinity>  (1) 
-5.66007948

>  <minimizedRMSD>  (1) 
0.298985809

$$$$
