
     RDKit          3D

 26 27  0  0  0  0  0  0  0  0999 V2000
   43.6850   35.5880   41.1560 C   0  0  0  0  0  0  0  0  0  0  0  0
   42.3750   35.0250   40.8830 N   0  0  0  0  0  0  0  0  0  0  0  0
   41.3530   35.3090   41.7080 C   0  0  0  0  0  0  0  0  0  0  0  0
   40.1130   34.7440   41.4060 C   0  0  0  0  0  0  0  0  0  0  0  0
   39.9490   33.9300   40.3040 C   0  0  0  0  0  0  0  0  0  0  0  0
   38.8190   33.4480   40.0780 O   0  0  0  0  0  0  0  0  0  0  0  0
   41.0060   33.6780   39.5120 N   0  0  0  0  0  0  0  0  0  0  0  0
   42.2180   34.2230   39.7960 C   0  0  0  0  0  0  0  0  0  0  0  0
   43.1600   33.9440   39.0100 O   0  0  0  0  0  0  0  0  0  0  0  0
   44.4600   35.7470   43.4500 C   0  0  0  0  0  0  0  0  0  0  0  0
   44.2430   34.9350   42.3430 C   0  0  0  0  0  0  0  0  0  0  0  0
   44.5740   33.6030   42.4790 C   0  0  0  0  0  0  0  0  0  0  0  0
   45.0800   33.1650   43.6490 N   0  0  0  0  0  0  0  0  0  0  0  0
   45.2740   33.9900   44.6970 C   0  0  0  0  0  0  0  0  0  0  0  0
   44.9710   35.3040   44.6310 N   0  0  0  0  0  0  0  0  0  0  0  0
   45.8370   33.4760   45.9820 C   0  0  0  0  0  0  0  0  0  0  0  0
   43.5920   36.6688   41.3383 H   0  0  0  0  0  0  0  0  0  0  0  0
   44.3483   35.4249   40.2938 H   0  0  0  0  0  0  0  0  0  0  0  0
   41.4880   35.9596   42.5847 H   0  0  0  0  0  0  0  0  0  0  0  0
   39.2515   34.9512   42.0578 H   0  0  0  0  0  0  0  0  0  0  0  0
   40.8967   33.0701   38.6877 H   0  0  0  0  0  0  0  0  0  0  0  0
   44.2029   36.8133   43.3664 H   0  0  0  0  0  0  0  0  0  0  0  0
   44.4266   32.9054   41.6414 H   0  0  0  0  0  0  0  0  0  0  0  0
   45.3165   33.9512   46.8265 H   0  0  0  0  0  0  0  0  0  0  0  0
   45.6990   32.3859   46.0328 H   0  0  0  0  0  0  0  0  0  0  0  0
   46.9101   33.7125   46.0328 H   0  0  0  0  0  0  0  0  0  0  0  0
  1 11  1  0
  2  1  1  0
  2  3  1  0
  4  3  2  0
  5  4  1  0
  6  5  2  0
  7  8  1  0
  7  5  1  0
  8  2  1  0
  9  8  2  0
 10 15  2  0
 11 12  2  0
 11 10  1  0
 12 13  1  0
 13 14  2  0
 14 16  1  0
 15 14  1  0
  1 17  1  0
  1 18  1  0
  3 19  1  0
  4 20  1  0
  7 21  1  0
 10 22  1  0
 12 23  1  0
 16 24  1  0
 16 25  1  0
 16 26  1  0
M  ISO  8  17   8  18   8  19  14  20  14  21   9  22  14  23  14  24   8
M  ISO  2  25   8  26   8
M  END
>  <minimizedAffinity>  (1) 
-4.52995205

>  <minimizedRMSD>  (1) 
0.670541942

$$$$
