
     RDKit          3D

 28 28  0  0  0  0  0  0  0  0999 V2000
   43.4300   35.5110   41.6690 C   0  0  0  0  0  0  0  0  0  0  0  0
   43.2640   35.5890   43.1170 N   0  0  0  0  0  0  0  0  0  0  0  0
   44.7480   35.8660   43.9410 S   0  0  0  0  0  0  0  0  0  0  0  0
   45.9130   35.3180   43.2110 O   0  0  0  0  0  0  0  0  0  0  0  0
   44.8820   37.3800   44.0520 O   0  0  0  0  0  0  0  0  0  0  0  0
   44.6590   35.2720   45.4870 O   0  0  0  0  0  0  0  0  0  0  0  0
   45.3920   34.1060   45.6570 C   0  0  0  0  0  0  0  0  0  0  0  0
   43.0880   33.8090   41.2080 S   0  0  0  0  0  0  0  0  0  0  0  0
   40.5470   33.0260   40.4250 C   0  0  0  0  0  0  0  0  0  0  0  0
   41.6790   33.7700   40.0910 C   0  0  0  0  0  0  0  0  0  0  0  0
   41.7270   34.4850   38.8940 C   0  0  0  0  0  0  0  0  0  0  0  0
   40.6310   34.4160   38.0900 N   0  0  0  0  0  0  0  0  0  0  0  0
   39.5650   33.6890   38.4530 C   0  0  0  0  0  0  0  0  0  0  0  0
   39.4950   33.0040   39.5770 N   0  0  0  0  0  0  0  0  0  0  0  0
   38.3970   33.6620   37.5170 C   0  0  0  0  0  0  0  0  0  0  0  0
   42.7238   36.1897   41.1683 H   0  0  0  0  0  0  0  0  0  0  0  0
   44.4454   35.8084   41.3682 H   0  0  0  0  0  0  0  0  0  0  0  0
   42.6177   36.3612   43.3335 H   0  0  0  0  0  0  0  0  0  0  0  0
   46.5894   34.9999   43.8602 H   0  0  0  0  0  0  0  0  0  0  0  0
   44.9050   37.6401   45.0069 H   0  0  0  0  0  0  0  0  0  0  0  0
   45.5181   33.9055   46.7312 H   0  0  0  0  0  0  0  0  0  0  0  0
   44.8591   33.2661   45.1873 H   0  0  0  0  0  0  0  0  0  0  0  0
   46.3799   34.2221   45.1873 H   0  0  0  0  0  0  0  0  0  0  0  0
   40.5111   32.4629   41.3693 H   0  0  0  0  0  0  0  0  0  0  0  0
   42.6102   35.0774   38.6129 H   0  0  0  0  0  0  0  0  0  0  0  0
   37.4627   33.6404   38.0971 H   0  0  0  0  0  0  0  0  0  0  0  0
   38.4143   34.5608   36.8831 H   0  0  0  0  0  0  0  0  0  0  0  0
   38.4558   32.7650   36.8831 H   0  0  0  0  0  0  0  0  0  0  0  0
  1  2  1  0
  2  3  1  0
  3  5  1  0
  3  6  1  0
  4  3  1  0
  6  7  1  0
  8  1  1  0
 10  9  2  0
 10  8  1  0
 11 10  1  0
 12 13  1  0
 12 11  2  0
 13 14  2  0
 14  9  1  0
 15 13  1  0
  1 16  1  0
  1 17  1  0
  2 18  1  0
  4 19  1  0
  5 20  1  0
  7 21  1  0
  7 22  1  0
  7 23  1  0
  9 24  1  0
 11 25  1  0
 15 26  1  0
 15 27  1  0
 15 28  1  0
M  ISO  8  16   8  17   8  18   5  19   3  20   3  21   8  22   8  23   8
M  ISO  5  24  14  25  14  26   8  27   8  28   8
M  END
>  <minimizedAffinity>  (1) 
-4.6857276

>  <minimizedRMSD>  (1) 
1.06259477

$$$$
