
     RDKit          3D

 51 54  0  0  1  0  0  0  0  0999 V2000
   46.3260   32.2240   47.8170 C   0  0  0  0  0  0  0  0  0  0  0  0
   45.8810   31.8150   49.0410 C   0  0  0  0  0  0  0  0  0  0  0  0
   46.8820   31.1370   49.6100 N   0  0  0  0  0  0  0  0  0  0  0  0
   47.9430   31.0930   48.8060 C   0  0  0  0  0  0  0  0  0  0  0  0
   47.5910   31.7750   47.6850 N   0  0  0  0  0  0  0  0  0  0  0  0
   49.2230   30.4980   48.9670 N   0  0  0  0  0  0  0  0  0  0  0  0
   50.2780   31.2940   49.6080 C   0  0  0  0  0  0  0  0  0  0  0  0
   50.3950   30.7130   51.0160 C   0  0  0  0  0  0  0  0  0  0  0  0
   50.4880   29.2110   50.9470 C   0  0  0  0  0  0  0  0  0  0  0  0
   50.8300   28.7650   49.5340 C   0  0  0  0  0  0  0  0  0  0  0  0
   49.7240   29.1950   48.6040 C   0  0  0  0  0  0  0  0  0  0  0  0
   45.5760   33.0150   46.8050 C   0  0  0  0  0  0  0  0  0  0  0  0
   45.9420   33.8440   44.5080 C   0  0  0  0  0  0  0  0  0  0  0  0
   46.4040   33.2490   45.5980 C   0  0  0  0  0  0  0  0  0  0  0  0
   46.8630   34.0150   43.3790 C   0  0  0  0  0  0  0  0  0  0  0  0
   46.8640   35.1860   42.5970 C   0  0  0  0  0  0  0  0  0  0  0  0
   47.7680   35.2630   41.5480 C   0  0  0  0  0  0  0  0  0  0  0  0
   48.6020   34.2330   41.3180 N   0  0  0  0  0  0  0  0  0  0  0  0
   48.5850   33.1040   42.0890 C   0  0  0  0  0  0  0  0  0  0  0  0
   47.7350   33.0110   43.0870 N   0  0  0  0  0  0  0  0  0  0  0  0
   50.9150   32.2800   42.3410 C   0  0  1  0  0  0  0  0  0  0  0  0
   49.5420   32.0160   41.7590 C   0  0  2  0  0  0  0  0  0  0  0  0
   49.8520   32.0180   40.2930 C   0  0  0  0  0  0  0  0  0  0  0  0
   51.1430   31.5410   40.1350 O   0  0  0  0  0  0  0  0  0  0  0  0
   51.7710   31.4960   41.3560 C   0  0  0  0  0  0  0  0  0  0  0  0
   51.2720   33.6220   42.2430 O   0  0  0  0  0  0  0  0  0  0  0  0
   44.8888   32.0068   49.4755 H   0  0  0  0  0  0  0  0  0  0  0  0
   46.8389   30.7063   50.5446 H   0  0  0  0  0  0  0  0  0  0  0  0
   51.2284   31.1893   49.0642 H   0  0  0  0  0  0  0  0  0  0  0  0
   50.0431   32.3686   49.6176 H   0  0  0  0  0  0  0  0  0  0  0  0
   51.2981   31.1121   51.5010 H   0  0  0  0  0  0  0  0  0  0  0  0
   49.5045   30.9935   51.5977 H   0  0  0  0  0  0  0  0  0  0  0  0
   51.2722   28.8644   51.6362 H   0  0  0  0  0  0  0  0  0  0  0  0
   49.5168   28.7801   51.2318 H   0  0  0  0  0  0  0  0  0  0  0  0
   51.7772   29.2279   49.2199 H   0  0  0  0  0  0  0  0  0  0  0  0
   50.9367   27.6706   49.5046 H   0  0  0  0  0  0  0  0  0  0  0  0
   48.9028   28.4652   48.6595 H   0  0  0  0  0  0  0  0  0  0  0  0
   50.1251   29.2454   47.5810 H   0  0  0  0  0  0  0  0  0  0  0  0
   44.6681   32.4643   46.5179 H   0  0  0  0  0  0  0  0  0  0  0  0
   45.3118   33.9882   47.2444 H   0  0  0  0  0  0  0  0  0  0  0  0
   44.9021   34.1981   44.4515 H   0  0  0  0  0  0  0  0  0  0  0  0
   47.4513   32.9128   45.6077 H   0  0  0  0  0  0  0  0  0  0  0  0
   46.1705   36.0126   42.8111 H   0  0  0  0  0  0  0  0  0  0  0  0
   47.8027   36.1583   40.9099 H   0  0  0  0  0  0  0  0  0  0  0  0
   50.9999   32.0147   43.4051 H   0  0  0  0  0  0  0  0  0  0  0  0
   49.0671   31.0979   42.1352 H   0  0  0  0  0  0  0  0  0  0  0  0
   49.1440   31.3668   39.7595 H   0  0  0  0  0  0  0  0  0  0  0  0
   49.7638   33.0345   39.8819 H   0  0  0  0  0  0  0  0  0  0  0  0
   51.8675   30.4525   41.6903 H   0  0  0  0  0  0  0  0  0  0  0  0
   52.7795   31.9300   41.2888 H   0  0  0  0  0  0  0  0  0  0  0  0
   51.3735   34.0036   43.1508 H   0  0  0  0  0  0  0  0  0  0  0  0
  1  2  2  0
  2  3  1  0
  4  6  1  0
  4  3  1  0
  5  1  1  0
  5  4  2  0
  6  7  1  0
  7  8  1  0
  9  8  1  0
 10  9  1  0
 11  6  1  0
 11 10  1  0
 12  1  1  0
 13 14  2  0
 14 12  1  0
 15 13  1  0
 16 15  2  0
 17 16  1  0
 18 17  2  0
 18 19  1  0
 19 20  2  0
 20 15  1  0
 21 26  1  0
 22 19  1  0
 22 21  1  0
 23 22  1  0
 24 23  1  0
 24 25  1  0
 25 21  1  0
  2 27  1  0
  3 28  1  0
  7 29  1  0
  7 30  1  0
  8 31  1  0
  8 32  1  0
  9 33  1  0
  9 34  1  0
 10 35  1  0
 10 36  1  0
 11 37  1  0
 11 38  1  0
 12 39  1  0
 12 40  1  0
 13 41  1  0
 14 42  1  0
 16 43  1  0
 17 44  1  0
 21 45  1  1
 22 46  1  1
 23 47  1  0
 23 48  1  0
 25 49  1  0
 25 50  1  0
 26 51  1  0
M  ISO  8  27  14  28   9  29  13  30  13  31  13  32  13  33  13  34  13
M  ISO  8  35  13  36  13  37  13  38  13  39   8  40   8  43  14  44  14
M  ISO  7  45  13  46  13  47  13  48  13  49  13  50  13  51   3
M  END
>  <minimizedAffinity>  (1) 
-6.44291592

>  <minimizedRMSD>  (1) 
0.560193419

$$$$
