
     RDKit          3D

 38 41  0  0  1  0  0  0  0  0999 V2000
   46.7330   34.7360   41.9750 C   0  0  0  0  0  0  0  0  0  0  0  0
   47.9180   35.3890   41.6950 C   0  0  0  0  0  0  0  0  0  0  0  0
   48.6510   35.2440   40.5520 C   0  0  0  0  0  0  0  0  0  0  0  0
   48.1990   34.3810   39.5730 C   0  0  0  0  0  0  0  0  0  0  0  0
   47.0150   33.7340   39.8620 C   0  0  0  0  0  0  0  0  0  0  0  0
   46.3350   33.9090   40.9960 N   0  0  0  0  0  0  0  0  0  0  0  0
   44.4890   35.9800   44.7300 C   0  0  0  0  0  0  0  0  0  0  0  0
   45.1240   35.9610   43.4760 C   0  0  0  0  0  0  0  0  0  0  0  0
   45.9890   34.9240   43.2090 C   0  0  0  0  0  0  0  0  0  0  0  0
   46.1790   33.9840   44.1730 N   0  0  0  0  0  0  0  0  0  0  0  0
   45.5550   34.0270   45.3740 C   0  0  0  0  0  0  0  0  0  0  0  0
   44.7140   35.0320   45.6340 N   0  0  0  0  0  0  0  0  0  0  0  0
   46.4820   32.7880   38.8340 C   0  0  2  0  0  0  0  0  0  0  0  0
   47.5030   32.2880   37.8510 C   0  0  0  0  0  0  0  0  0  0  0  0
   46.3910   33.2320   37.4490 C   0  0  1  0  0  0  0  0  0  0  0  0
   45.6760   31.9330   35.4190 C   0  0  1  0  0  0  0  0  0  0  0  0
   45.2300   32.7450   36.6350 C   0  0  1  0  0  0  0  0  0  0  0  0
   44.3790   31.7040   37.3170 C   0  0  0  0  0  0  0  0  0  0  0  0
   43.6270   31.1930   36.2720 O   0  0  0  0  0  0  0  0  0  0  0  0
   44.4230   31.1710   35.1420 C   0  0  0  0  0  0  0  0  0  0  0  0
   45.9930   32.8500   34.4250 O   0  0  0  0  0  0  0  0  0  0  0  0
   48.3030   36.0835   42.4562 H   0  0  0  0  0  0  0  0  0  0  0  0
   49.5866   35.8056   40.4132 H   0  0  0  0  0  0  0  0  0  0  0  0
   48.7436   34.2210   38.6308 H   0  0  0  0  0  0  0  0  0  0  0  0
   43.7914   36.7965   44.9681 H   0  0  0  0  0  0  0  0  0  0  0  0
   44.9358   36.7493   42.7322 H   0  0  0  0  0  0  0  0  0  0  0  0
   45.7381   33.2449   46.1255 H   0  0  0  0  0  0  0  0  0  0  0  0
   45.7524   32.3348   39.5213 H   0  0  0  0  0  0  0  0  0  0  0  0
   48.5430   32.6429   37.9005 H   0  0  0  0  0  0  0  0  0  0  0  0
   47.8637   31.3038   37.5176 H   0  0  0  0  0  0  0  0  0  0  0  0
   46.3732   34.2010   36.9286 H   0  0  0  0  0  0  0  0  0  0  0  0
   46.5506   31.2737   35.5214 H   0  0  0  0  0  0  0  0  0  0  0  0
   44.7028   33.6873   36.4250 H   0  0  0  0  0  0  0  0  0  0  0  0
   45.0013   30.9223   37.7772 H   0  0  0  0  0  0  0  0  0  0  0  0
   43.7680   32.1088   38.1373 H   0  0  0  0  0  0  0  0  0  0  0  0
   43.8856   31.6364   34.3026 H   0  0  0  0  0  0  0  0  0  0  0  0
   44.6690   30.1315   34.8794 H   0  0  0  0  0  0  0  0  0  0  0  0
   46.2865   33.6991   34.8408 H   0  0  0  0  0  0  0  0  0  0  0  0
  1  9  1  0
  2  1  2  0
  3  2  1  0
  4  5  1  0
  4  3  2  0
  5  6  2  0
  6  1  1  0
  7 12  2  0
  8  7  1  0
  9  8  2  0
  9 10  1  0
 10 11  2  0
 11 12  1  0
 13  5  1  0
 14 13  1  0
 15 14  1  0
 15 13  1  0
 16 21  1  0
 16 17  1  0
 17 18  1  0
 17 15  1  0
 19 18  1  0
 20 16  1  0
 20 19  1  0
  2 22  1  0
  3 23  1  0
  4 24  1  0
  7 25  1  0
  8 26  1  0
 11 27  1  0
 13 28  1  1
 14 29  1  0
 14 30  1  0
 15 31  1  1
 16 32  1  1
 17 33  1  6
 18 34  1  0
 18 35  1  0
 20 36  1  0
 20 37  1  0
 21 38  1  0
M  ISO  8  22  14  23  14  24  14  25  14  26  14  27  14  28  13  29  13
M  ISO  8  30  13  31  13  32  13  33  13  34  13  35  13  36  13  37  13
M  ISO  1  38   3
M  END
>  <minimizedAffinity>  (1) 
-5.86366463

>  <minimizedRMSD>  (1) 
0.780202925

$$$$
