
     RDKit          3D

 23 24  0  0  1  0  0  0  0  0999 V2000
   45.0220   35.8420   43.7970 C   0  0  0  0  0  0  0  0  0  0  0  0
   45.9580   34.9110   43.3190 C   0  0  0  0  0  0  0  0  0  0  0  0
   46.3220   33.8630   44.1790 C   0  0  0  0  0  0  0  0  0  0  0  0
   45.7590   33.8050   45.4080 N   0  0  0  0  0  0  0  0  0  0  0  0
   44.8630   34.7180   45.8330 C   0  0  0  0  0  0  0  0  0  0  0  0
   44.4980   35.7310   45.0270 N   0  0  0  0  0  0  0  0  0  0  0  0
   46.3020   33.8690   41.0800 C   0  0  2  0  0  0  0  0  0  0  0  0
   46.5180   35.0460   41.9800 C   0  0  2  0  0  0  0  0  0  0  0  0
   47.9920   35.2880   41.9090 C   0  0  0  0  0  0  0  0  0  0  0  0
   48.2660   34.9380   40.5650 O   0  0  0  0  0  0  0  0  0  0  0  0
   47.7300   33.6340   40.5790 C   0  0  0  0  0  0  0  0  0  0  0  0
   45.5580   34.2140   39.9420 O   0  0  0  0  0  0  0  0  0  0  0  0
   44.6550   36.8720   42.9720 O   0  0  0  0  0  0  0  0  0  0  0  0
   47.0509   33.1035   43.8599 H   0  0  0  0  0  0  0  0  0  0  0  0
   44.4297   34.6344   46.8406 H   0  0  0  0  0  0  0  0  0  0  0  0
   45.7865   33.0400   41.5870 H   0  0  0  0  0  0  0  0  0  0  0  0
   45.9542   35.9299   41.6470 H   0  0  0  0  0  0  0  0  0  0  0  0
   48.2372   36.3415   42.1088 H   0  0  0  0  0  0  0  0  0  0  0  0
   48.5774   34.7237   42.6498 H   0  0  0  0  0  0  0  0  0  0  0  0
   47.7304   33.1930   39.5712 H   0  0  0  0  0  0  0  0  0  0  0  0
   48.3031   32.9306   41.2009 H   0  0  0  0  0  0  0  0  0  0  0  0
   44.6960   34.6137   40.2200 H   0  0  0  0  0  0  0  0  0  0  0  0
   45.0477   36.9447   42.0661 H   0  0  0  0  0  0  0  0  0  0  0  0
  1  6  2  0
  2  1  1  0
  2  3  2  0
  3  4  1  0
  4  5  2  0
  6  5  1  0
  7 12  1  0
  7  8  1  0
  8  2  1  0
  9  8  1  0
 10 11  1  0
 10  9  1  0
 11  7  1  0
 13  1  1  0
  3 14  1  0
  5 15  1  0
  7 16  1  1
  8 17  1  6
  9 18  1  0
  9 19  1  0
 11 20  1  0
 11 21  1  0
 12 22  1  0
 13 23  1  0
M  ISO  8  14  14  15  14  16  13  17  13  18  13  19  13  20  13  21  13
M  ISO  2  22   3  23   3
M  END
>  <minimizedAffinity>  (1) 
-4.80142212

>  <minimizedRMSD>  (1) 
0.915096045

$$$$
