
     RDKit          3D

 26 27  0  0  1  0  0  0  0  0999 V2000
   44.8640   34.9570   44.0940 C   0  0  0  0  0  0  0  0  0  0  0  0
   45.7000   35.4790   43.1060 C   0  0  0  0  0  0  0  0  0  0  0  0
   46.9690   34.9440   42.8920 C   0  0  0  0  0  0  0  0  0  0  0  0
   47.3290   33.9070   43.6900 N   0  0  0  0  0  0  0  0  0  0  0  0
   46.5260   33.4060   44.6400 C   0  0  0  0  0  0  0  0  0  0  0  0
   45.2960   33.9370   44.8350 N   0  0  0  0  0  0  0  0  0  0  0  0
   46.1330   31.0750   45.4410 C   0  0  1  0  0  0  0  0  0  0  0  0
   47.0100   32.2800   45.4530 C   0  0  2  0  0  0  0  0  0  0  0  0
   46.9680   32.7260   46.9130 C   0  0  0  0  0  0  0  0  0  0  0  0
   45.6510   32.4070   47.2810 O   0  0  0  0  0  0  0  0  0  0  0  0
   45.5620   31.0640   46.8460 C   0  0  0  0  0  0  0  0  0  0  0  0
   45.1120   31.1190   44.4930 O   0  0  0  0  0  0  0  0  0  0  0  0
   47.8810   35.3620   41.9600 O   0  0  0  0  0  0  0  0  0  0  0  0
   47.9200   34.6300   40.7320 C   0  0  0  0  0  0  0  0  0  0  0  0
   46.6290   34.3830   40.2880 F   0  0  0  0  0  0  0  0  0  0  0  0
   48.5690   35.4120   39.7790 F   0  0  0  0  0  0  0  0  0  0  0  0
   48.6560   33.4450   40.8640 F   0  0  0  0  0  0  0  0  0  0  0  0
   43.8627   35.3814   44.2588 H   0  0  0  0  0  0  0  0  0  0  0  0
   45.3537   36.3217   42.4896 H   0  0  0  0  0  0  0  0  0  0  0  0
   46.6974   30.1720   45.1652 H   0  0  0  0  0  0  0  0  0  0  0  0
   47.9961   32.0200   45.0406 H   0  0  0  0  0  0  0  0  0  0  0  0
   47.6978   32.1713   47.5210 H   0  0  0  0  0  0  0  0  0  0  0  0
   47.2237   33.7858   47.0592 H   0  0  0  0  0  0  0  0  0  0  0  0
   44.5146   30.7281   46.8363 H   0  0  0  0  0  0  0  0  0  0  0  0
   46.1045   30.3749   47.5100 H   0  0  0  0  0  0  0  0  0  0  0  0
   44.2361   31.1567   44.9529 H   0  0  0  0  0  0  0  0  0  0  0  0
  1  6  2  0
  2  1  1  0
  3  2  2  0
  3  4  1  0
  4  5  2  0
  5  6  1  0
  7 12  1  0
  7  8  1  0
  7 11  1  0
  8  5  1  0
  8  9  1  0
  9 10  1  0
 11 10  1  0
 13  3  1  0
 14 17  1  0
 14 13  1  0
 15 14  1  0
 16 14  1  0
  1 18  1  0
  2 19  1  0
  7 20  1  6
  8 21  1  6
  9 22  1  0
  9 23  1  0
 11 24  1  0
 11 25  1  0
 12 26  1  0
M  ISO  8  18  14  19  14  20  13  21  13  22  13  23  13  24  13  25  13
M  ISO  1  26   3
M  END
>  <minimizedAffinity>  (1) 
-4.87377119

>  <minimizedRMSD>  (1) 
1.38730299

$$$$
