
     RDKit          3D

 29 31  0  0  1  0  0  0  0  0999 V2000
   47.9020   34.5120   41.5240 C   0  0  1  0  0  0  0  0  0  0  0  0
   48.3900   34.1010   40.2160 C   0  0  2  0  0  0  0  0  0  0  0  0
   48.6840   35.4820   40.6710 C   0  0  0  0  0  0  0  0  0  0  0  0
   45.5040   34.2490   40.9590 C   0  0  0  0  0  0  0  0  0  0  0  0
   46.4760   34.7960   41.7950 C   0  0  0  0  0  0  0  0  0  0  0  0
   46.0390   35.6140   42.8600 C   0  0  0  0  0  0  0  0  0  0  0  0
   44.7020   35.8060   42.9910 N   0  0  0  0  0  0  0  0  0  0  0  0
   43.7920   35.2690   42.1730 C   0  0  0  0  0  0  0  0  0  0  0  0
   44.2040   34.4780   41.1420 N   0  0  0  0  0  0  0  0  0  0  0  0
   48.3810   34.4250   37.6910 C   0  0  2  0  0  0  0  0  0  0  0  0
   47.7210   33.9170   38.9410 C   0  0  1  0  0  0  0  0  0  0  0  0
   47.8740   32.4150   38.5670 C   0  0  0  0  0  0  0  0  0  0  0  0
   47.2670   32.4200   37.3150 O   0  0  0  0  0  0  0  0  0  0  0  0
   47.5000   33.6320   36.7060 C   0  0  0  0  0  0  0  0  0  0  0  0
   49.6590   33.8570   37.4810 O   0  0  0  0  0  0  0  0  0  0  0  0
   47.9892   34.0779   42.5310 H   0  0  0  0  0  0  0  0  0  0  0  0
   48.9028   33.1692   39.9355 H   0  0  0  0  0  0  0  0  0  0  0  0
   49.7084   35.7674   40.9523 H   0  0  0  0  0  0  0  0  0  0  0  0
   48.5181   36.4947   40.2749 H   0  0  0  0  0  0  0  0  0  0  0  0
   45.8198   33.6085   40.1223 H   0  0  0  0  0  0  0  0  0  0  0  0
   46.7540   36.0772   43.5558 H   0  0  0  0  0  0  0  0  0  0  0  0
   42.7208   35.4633   42.3300 H   0  0  0  0  0  0  0  0  0  0  0  0
   48.4747   35.5203   37.6521 H   0  0  0  0  0  0  0  0  0  0  0  0
   46.7522   34.4027   39.1295 H   0  0  0  0  0  0  0  0  0  0  0  0
   48.9303   32.1135   38.5084 H   0  0  0  0  0  0  0  0  0  0  0  0
   47.4416   31.7087   39.2910 H   0  0  0  0  0  0  0  0  0  0  0  0
   48.0257   33.4874   35.7506 H   0  0  0  0  0  0  0  0  0  0  0  0
   46.5630   34.1616   36.4791 H   0  0  0  0  0  0  0  0  0  0  0  0
   50.0839   33.6682   38.3550 H   0  0  0  0  0  0  0  0  0  0  0  0
  1  5  1  0
  2  3  1  0
  2  1  1  0
  3  1  1  0
  4  9  2  0
  4  5  1  0
  5  6  2  0
  6  7  1  0
  8  7  2  0
  9  8  1  0
 10 15  1  0
 10 11  1  0
 11 12  1  0
 11  2  1  0
 13 12  1  0
 14 13  1  0
 14 10  1  0
  1 16  1  1
  2 17  1  1
  3 18  1  0
  3 19  1  0
  4 20  1  0
  6 21  1  0
  8 22  1  0
 10 23  1  6
 11 24  1  1
 12 25  1  0
 12 26  1  0
 14 27  1  0
 14 28  1  0
 15 29  1  0
M  ISO  8  16  13  17  13  18  13  19  13  20  14  21  14  22  14  23  13
M  ISO  6  24  13  25  13  26  13  27  13  28  13  29   3
M  END
>  <minimizedAffinity>  (1) 
-4.62287998

>  <minimizedRMSD>  (1) 
4.78839445

$$$$
