
     RDKit          3D

 31 33  0  0  1  0  0  0  0  0999 V2000
   45.9320   32.0440   44.9490 C   0  0  1  0  0  0  0  0  0  0  0  0
   47.1860   31.2430   45.0890 C   0  0  0  0  0  0  0  0  0  0  0  0
   46.7070   32.0560   46.2330 C   0  0  2  0  0  0  0  0  0  0  0  0
   46.8590   34.7200   42.6160 C   0  0  0  0  0  0  0  0  0  0  0  0
   45.9550   35.7470   42.9250 C   0  0  0  0  0  0  0  0  0  0  0  0
   45.0080   35.5120   43.9540 C   0  0  0  0  0  0  0  0  0  0  0  0
   45.0360   34.3040   44.5780 N   0  0  0  0  0  0  0  0  0  0  0  0
   45.9440   33.3530   44.2240 C   0  0  0  0  0  0  0  0  0  0  0  0
   46.8460   33.5340   43.2680 N   0  0  0  0  0  0  0  0  0  0  0  0
   47.7750   35.0500   41.5740 C   0  0  0  0  0  0  0  0  0  0  0  0
   48.7390   35.8670   41.6690 O   0  0  0  0  0  0  0  0  0  0  0  0
   46.5250   32.0900   48.7550 C   0  0  2  0  0  0  0  0  0  0  0  0
   46.0980   31.4830   47.4660 C   0  0  2  0  0  0  0  0  0  0  0  0
   46.5010   30.0350   47.6580 C   0  0  0  0  0  0  0  0  0  0  0  0
   47.7310   30.1440   48.3040 O   0  0  0  0  0  0  0  0  0  0  0  0
   47.6700   31.2030   49.1820 C   0  0  0  0  0  0  0  0  0  0  0  0
   45.5020   32.0070   49.7280 O   0  0  0  0  0  0  0  0  0  0  0  0
   44.9198   31.7866   44.6037 H   0  0  0  0  0  0  0  0  0  0  0  0
   47.1335   30.1453   45.1359 H   0  0  0  0  0  0  0  0  0  0  0  0
   48.1294   31.1758   44.5272 H   0  0  0  0  0  0  0  0  0  0  0  0
   47.1893   32.8092   46.8734 H   0  0  0  0  0  0  0  0  0  0  0  0
   45.9799   36.7054   42.3856 H   0  0  0  0  0  0  0  0  0  0  0  0
   44.2750   36.2814   44.2381 H   0  0  0  0  0  0  0  0  0  0  0  0
   47.6324   34.5521   40.6035 H   0  0  0  0  0  0  0  0  0  0  0  0
   46.7797   33.1549   48.6498 H   0  0  0  0  0  0  0  0  0  0  0  0
   45.0288   31.6641   47.2818 H   0  0  0  0  0  0  0  0  0  0  0  0
   45.7708   29.4992   48.2823 H   0  0  0  0  0  0  0  0  0  0  0  0
   46.5500   29.4665   46.7176 H   0  0  0  0  0  0  0  0  0  0  0  0
   48.6130   31.7687   49.1524 H   0  0  0  0  0  0  0  0  0  0  0  0
   47.5146   30.8423   50.2095 H   0  0  0  0  0  0  0  0  0  0  0  0
   45.9034   32.0396   50.6324 H   0  0  0  0  0  0  0  0  0  0  0  0
  1  2  1  0
  1  3  1  0
  2  3  1  0
  3 13  1  0
  4  5  2  0
  4  9  1  0
  5  6  1  0
  6  7  2  0
  8  7  1  0
  8  1  1  0
  9  8  2  0
 10 11  2  0
 10  4  1  0
 12 16  1  0
 12 17  1  0
 13 14  1  0
 13 12  1  0
 14 15  1  0
 15 16  1  0
  1 18  1  1
  2 19  1  0
  2 20  1  0
  3 21  1  1
  5 22  1  0
  6 23  1  0
 10 24  1  0
 12 25  1  6
 13 26  1  6
 14 27  1  0
 14 28  1  0
 16 29  1  0
 16 30  1  0
 17 31  1  0
M  ISO  8  18  13  19  13  20  13  21  13  22  14  23  14  24   6  25  13
M  ISO  6  26  13  27  13  28  13  29  13  30  13  31   3
M  END
>  <minimizedAffinity>  (1) 
-4.80684805

>  <minimizedRMSD>  (1) 
1.57190585

$$$$
