
     RDKit          3D

 29 31  0  0  1  0  0  0  0  0999 V2000
   45.8650   33.1380   46.1800 C   0  0  0  0  0  0  0  0  0  0  0  0
   45.2920   32.9890   47.4710 C   0  0  0  0  0  0  0  0  0  0  0  0
   45.6800   31.9540   48.2400 C   0  0  0  0  0  0  0  0  0  0  0  0
   46.6460   31.0500   47.7380 C   0  0  0  0  0  0  0  0  0  0  0  0
   47.0100   31.7230   46.0820 S   0  0  0  0  0  0  0  0  0  0  0  0
   44.4760   36.1440   44.5080 C   0  0  0  0  0  0  0  0  0  0  0  0
   45.1380   36.0550   43.2610 C   0  0  0  0  0  0  0  0  0  0  0  0
   46.0230   34.9790   43.0520 C   0  0  0  0  0  0  0  0  0  0  0  0
   46.1900   34.0770   44.0770 N   0  0  0  0  0  0  0  0  0  0  0  0
   45.5280   34.2160   45.2470 C   0  0  0  0  0  0  0  0  0  0  0  0
   44.6710   35.2430   45.4720 N   0  0  0  0  0  0  0  0  0  0  0  0
   48.6750   30.2430   48.7330 C   0  0  2  0  0  0  0  0  0  0  0  0
   47.3120   29.8790   48.1840 C   0  0  2  0  0  0  0  0  0  0  0  0
   47.6910   29.0170   47.0230 C   0  0  0  0  0  0  0  0  0  0  0  0
   48.8710   28.3610   47.3460 O   0  0  0  0  0  0  0  0  0  0  0  0
   49.3760   28.9000   48.5150 C   0  0  0  0  0  0  0  0  0  0  0  0
   48.6300   30.5210   50.0960 O   0  0  0  0  0  0  0  0  0  0  0  0
   44.5435   33.7074   47.8367 H   0  0  0  0  0  0  0  0  0  0  0  0
   45.2523   31.8133   49.2436 H   0  0  0  0  0  0  0  0  0  0  0  0
   43.7820   36.9784   44.6874 H   0  0  0  0  0  0  0  0  0  0  0  0
   44.9664   36.8058   42.4756 H   0  0  0  0  0  0  0  0  0  0  0  0
   46.5627   34.8639   42.1004 H   0  0  0  0  0  0  0  0  0  0  0  0
   49.1342   31.1311   48.2743 H   0  0  0  0  0  0  0  0  0  0  0  0
   46.6353   29.3956   48.9040 H   0  0  0  0  0  0  0  0  0  0  0  0
   47.8422   29.6396   46.1289 H   0  0  0  0  0  0  0  0  0  0  0  0
   46.8941   28.2894   46.8097 H   0  0  0  0  0  0  0  0  0  0  0  0
   49.1712   28.2263   49.3601 H   0  0  0  0  0  0  0  0  0  0  0  0
   50.4654   29.0347   48.4445 H   0  0  0  0  0  0  0  0  0  0  0  0
   48.7654   29.6846   50.6080 H   0  0  0  0  0  0  0  0  0  0  0  0
  1  2  2  0
  2  3  1  0
  4  3  2  0
  5  1  1  0
  5  4  1  0
  6 11  2  0
  7  6  1  0
  8  7  2  0
  8  9  1  0
  9 10  2  0
 10 11  1  0
 10  1  1  0
 12 17  1  0
 13  4  1  0
 13 12  1  0
 14 15  1  0
 14 13  1  0
 15 16  1  0
 16 12  1  0
  2 18  1  0
  3 19  1  0
  6 20  1  0
  7 21  1  0
  8 22  1  0
 12 23  1  6
 13 24  1  1
 14 25  1  0
 14 26  1  0
 16 27  1  0
 16 28  1  0
 17 29  1  0
M  ISO  8  18  14  19  14  20  14  21  14  22  14  23  13  24  13  25  13
M  ISO  4  26  13  27  13  28  13  29   3
M  END
>  <minimizedAffinity>  (1) 
-5.17710304

>  <minimizedRMSD>  (1) 
1.17391145

$$$$
