
     RDKit          3D

 45 48  0  0  1  0  0  0  0  0999 V2000
   40.3920   35.0850   40.2970 C   0  0  0  0  0  0  0  0  0  0  0  0
   41.4130   34.4180   40.9730 C   0  0  0  0  0  0  0  0  0  0  0  0
   41.2490   33.1250   41.4310 C   0  0  0  0  0  0  0  0  0  0  0  0
   40.0590   32.4650   41.2230 C   0  0  0  0  0  0  0  0  0  0  0  0
   39.0450   33.1140   40.5560 C   0  0  0  0  0  0  0  0  0  0  0  0
   39.1760   34.3950   40.0910 C   0  0  0  0  0  0  0  0  0  0  0  0
   37.9690   32.1970   40.4970 O   0  0  0  0  0  0  0  0  0  0  0  0
   38.2390   31.1660   41.3660 C   0  0  2  0  0  0  0  0  0  0  0  0
   39.6310   31.1860   41.5670 O   0  0  0  0  0  0  0  0  0  0  0  0
   37.4520   28.8720   42.0400 C   0  0  1  0  0  0  0  0  0  0  0  0
   37.7190   29.8450   40.8980 C   0  0  2  0  0  0  0  0  0  0  0  0
   38.7270   29.0410   40.1200 C   0  0  0  0  0  0  0  0  0  0  0  0
   38.2700   27.7410   40.1680 O   0  0  0  0  0  0  0  0  0  0  0  0
   37.4770   27.5680   41.2830 C   0  0  0  0  0  0  0  0  0  0  0  0
   38.5650   28.8680   42.8940 O   0  0  0  0  0  0  0  0  0  0  0  0
   42.8900   35.4180   41.1320 S   0  0  0  0  0  0  0  0  0  0  0  0
   44.3360   34.4890   40.5170 C   0  0  0  0  0  0  0  0  0  0  0  0
   44.1470   33.7970   39.3770 C   0  0  0  0  0  0  0  0  0  0  0  0
   45.2530   33.0690   38.9350 C   0  0  0  0  0  0  0  0  0  0  0  0
   46.4150   33.0720   39.6090 N   0  0  0  0  0  0  0  0  0  0  0  0
   46.5550   33.7850   40.7450 C   0  0  0  0  0  0  0  0  0  0  0  0
   45.4940   34.4760   41.1640 N   0  0  0  0  0  0  0  0  0  0  0  0
   45.1560   32.2650   37.7390 N   0  0  0  0  0  0  0  0  0  0  0  0
   43.0070   33.6360   38.4180 C   0  0  0  0  0  0  0  0  0  0  0  0
   47.7040   33.8510   41.4990 O   0  0  0  0  0  0  0  0  0  0  0  0
   48.5360   34.9860   41.3250 C   0  0  0  0  0  0  0  0  0  0  0  0
   49.8030   34.7500   41.7610 F   0  0  0  0  0  0  0  0  0  0  0  0
   48.5120   35.2990   39.9570 F   0  0  0  0  0  0  0  0  0  0  0  0
   48.0200   36.0230   42.0790 F   0  0  0  0  0  0  0  0  0  0  0  0
   40.5286   36.1150   39.9357 H   0  0  0  0  0  0  0  0  0  0  0  0
   42.0704   32.6222   41.9626 H   0  0  0  0  0  0  0  0  0  0  0  0
   38.3433   34.8822   39.5625 H   0  0  0  0  0  0  0  0  0  0  0  0
   37.7095   31.3084   42.3196 H   0  0  0  0  0  0  0  0  0  0  0  0
   36.5477   29.0823   42.6299 H   0  0  0  0  0  0  0  0  0  0  0  0
   36.8320   30.1491   40.3230 H   0  0  0  0  0  0  0  0  0  0  0  0
   38.7799   29.3927   39.0791 H   0  0  0  0  0  0  0  0  0  0  0  0
   39.7394   29.1358   40.5396 H   0  0  0  0  0  0  0  0  0  0  0  0
   36.4566   27.2936   40.9772 H   0  0  0  0  0  0  0  0  0  0  0  0
   37.8778   26.7638   41.9176 H   0  0  0  0  0  0  0  0  0  0  0  0
   38.2586   28.8691   43.8354 H   0  0  0  0  0  0  0  0  0  0  0  0
   45.9716   31.7275   37.4122 H   0  0  0  0  0  0  0  0  0  0  0  0
   44.2712   32.2291   37.2129 H   0  0  0  0  0  0  0  0  0  0  0  0
   42.0708   33.5038   38.9802 H   0  0  0  0  0  0  0  0  0  0  0  0
   42.9311   34.5323   37.7849 H   0  0  0  0  0  0  0  0  0  0  0  0
   43.1822   32.7537   37.7849 H   0  0  0  0  0  0  0  0  0  0  0  0
  1  2  2  0
  2 16  1  0
  2  3  1  0
  4  3  2  0
  4  9  1  0
  5  4  1  0
  6  1  1  0
  6  5  2  0
  7  5  1  0
  7  8  1  0
  8  9  1  0
 10 15  1  0
 11 12  1  0
 11  8  1  0
 11 10  1  0
 12 13  1  0
 13 14  1  0
 14 10  1  0
 17 16  1  0
 17 22  1  0
 18 17  2  0
 19 18  1  0
 19 20  2  0
 20 21  1  0
 21 22  2  0
 21 25  1  0
 23 19  1  0
 24 18  1  0
 26 25  1  0
 26 27  1  0
 26 29  1  0
 28 26  1  0
  1 30  1  0
  3 31  1  0
  6 32  1  0
  8 33  1  1
 10 34  1  1
 11 35  1  6
 12 36  1  0
 12 37  1  0
 14 38  1  0
 14 39  1  0
 15 40  1  0
 23 41  1  0
 23 42  1  0
 24 43  1  0
 24 44  1  0
 24 45  1  0
M  ISO  8  30  14  31  14  32  14  33  13  34  13  35  13  36  13  37  13
M  ISO  6  38  13  39  13  40   3  43   8  44   8  45   8
M  END
>  <minimizedAffinity>  (1) 
-6.39707947

>  <minimizedRMSD>  (1) 
0.748306334

$$$$
