
     RDKit          3D

 41 44  0  0  1  0  0  0  0  0999 V2000
   46.1200   33.7200   40.6240 C   0  0  0  0  0  0  0  0  0  0  0  0
   46.7020   34.5680   41.5430 C   0  0  0  0  0  0  0  0  0  0  0  0
   47.8960   35.1380   41.1900 C   0  0  0  0  0  0  0  0  0  0  0  0
   48.4980   34.8830   39.9710 C   0  0  0  0  0  0  0  0  0  0  0  0
   47.9100   34.0400   39.0680 C   0  0  0  0  0  0  0  0  0  0  0  0
   46.6860   33.4340   39.3870 C   0  0  0  0  0  0  0  0  0  0  0  0
   44.6670   36.1210   44.3030 C   0  0  0  0  0  0  0  0  0  0  0  0
   45.3090   35.9360   43.0730 C   0  0  0  0  0  0  0  0  0  0  0  0
   46.0300   34.7940   42.7940 C   0  0  0  0  0  0  0  0  0  0  0  0
   46.0600   33.8840   43.8000 N   0  0  0  0  0  0  0  0  0  0  0  0
   45.4500   34.0480   44.9870 C   0  0  0  0  0  0  0  0  0  0  0  0
   44.7530   35.1740   45.2310 N   0  0  0  0  0  0  0  0  0  0  0  0
   44.9060   33.1120   40.9280 O   0  0  0  0  0  0  0  0  0  0  0  0
   46.0320   32.5760   38.5360 O   0  0  0  0  0  0  0  0  0  0  0  0
   46.3620   32.3530   37.2500 C   0  0  0  0  0  0  0  0  0  0  0  0
   45.6050   32.4970   36.1060 C   0  0  0  0  0  0  0  0  0  0  0  0
   46.1520   32.2090   34.8920 C   0  0  0  0  0  0  0  0  0  0  0  0
   47.5040   31.7680   34.8890 C   0  0  0  0  0  0  0  0  0  0  0  0
   47.9550   31.7790   36.6430 S   0  0  0  0  0  0  0  0  0  0  0  0
   48.6120   32.5060   32.8790 C   0  0  1  0  0  0  0  0  0  0  0  0
   48.4300   31.3720   33.8600 C   0  0  2  0  0  0  0  0  0  0  0  0
   47.8750   30.2550   33.0380 C   0  0  0  0  0  0  0  0  0  0  0  0
   47.8740   30.6280   31.7110 O   0  0  0  0  0  0  0  0  0  0  0  0
   48.6070   31.7870   31.5590 C   0  0  0  0  0  0  0  0  0  0  0  0
   47.5570   33.3870   32.9570 O   0  0  0  0  0  0  0  0  0  0  0  0
   48.3915   35.8194   41.8973 H   0  0  0  0  0  0  0  0  0  0  0  0
   49.4574   35.3619   39.7256 H   0  0  0  0  0  0  0  0  0  0  0  0
   48.3930   33.8393   38.1003 H   0  0  0  0  0  0  0  0  0  0  0  0
   44.0970   37.0411   44.4993 H   0  0  0  0  0  0  0  0  0  0  0  0
   45.2364   36.7231   42.3080 H   0  0  0  0  0  0  0  0  0  0  0  0
   45.5201   33.2649   45.7563 H   0  0  0  0  0  0  0  0  0  0  0  0
   44.4807   32.5018   40.2746 H   0  0  0  0  0  0  0  0  0  0  0  0
   44.5631   32.8432   36.1737 H   0  0  0  0  0  0  0  0  0  0  0  0
   45.5765   32.3124   33.9603 H   0  0  0  0  0  0  0  0  0  0  0  0
   49.5176   33.1054   33.0540 H   0  0  0  0  0  0  0  0  0  0  0  0
   49.3627   31.0820   34.3660 H   0  0  0  0  0  0  0  0  0  0  0  0
   48.4978   29.3576   33.1678 H   0  0  0  0  0  0  0  0  0  0  0  0
   46.8472   30.0328   33.3610 H   0  0  0  0  0  0  0  0  0  0  0  0
   49.6376   31.5415   31.2631 H   0  0  0  0  0  0  0  0  0  0  0  0
   48.1630   32.4219   30.7781 H   0  0  0  0  0  0  0  0  0  0  0  0
   47.3447   33.5643   33.9076 H   0  0  0  0  0  0  0  0  0  0  0  0
  1 13  1  0
  1  2  2  0
  2  9  1  0
  3  2  1  0
  4  3  2  0
  5  6  2  0
  5  4  1  0
  6  1  1  0
  7 12  2  0
  8  7  1  0
  9  8  2  0
  9 10  1  0
 10 11  2  0
 11 12  1  0
 14  6  1  0
 15 14  1  0
 16 15  2  0
 17 16  1  0
 18 17  2  0
 18 19  1  0
 19 15  1  0
 20 25  1  0
 20 21  1  0
 21 18  1  0
 22 21  1  0
 23 22  1  0
 24 23  1  0
 24 20  1  0
  3 26  1  0
  4 27  1  0
  5 28  1  0
  7 29  1  0
  8 30  1  0
 11 31  1  0
 13 32  1  0
 16 33  1  0
 17 34  1  0
 20 35  1  1
 21 36  1  1
 22 37  1  0
 22 38  1  0
 24 39  1  0
 24 40  1  0
 25 41  1  0
M  ISO  8  26  14  27  14  28  14  29  14  30  14  31  14  32   3  33  14
M  ISO  8  34  14  35  13  36  13  37  13  38  13  39  13  40  13  41   3
M  END
>  <minimizedAffinity>  (1) 
-6.67025423

>  <minimizedRMSD>  (1) 
1.20969474

$$$$
