
     RDKit          3D

 34 36  0  0  1  0  0  0  0  0999 V2000
   47.3230   34.5800   42.5670 N   0  0  0  0  0  0  0  0  0  0  0  0
   48.7520   34.3370   42.6450 C   0  0  0  0  0  0  0  0  0  0  0  0
   49.1940   35.3070   41.5740 C   0  0  0  0  0  0  0  0  0  0  0  0
   48.2790   34.8740   40.4350 C   0  0  0  0  0  0  0  0  0  0  0  0
   47.0010   34.6130   41.1510 C   0  0  1  0  0  0  0  0  0  0  0  0
   44.4720   35.8290   44.6060 C   0  0  0  0  0  0  0  0  0  0  0  0
   45.3750   35.7570   43.5360 C   0  0  0  0  0  0  0  0  0  0  0  0
   46.3550   34.7620   43.5780 C   0  0  0  0  0  0  0  0  0  0  0  0
   46.3860   33.9110   44.6540 N   0  0  0  0  0  0  0  0  0  0  0  0
   45.4930   34.0110   45.6740 C   0  0  0  0  0  0  0  0  0  0  0  0
   44.5360   34.9760   45.6420 N   0  0  0  0  0  0  0  0  0  0  0  0
   45.5840   33.3010   39.5110 C   0  0  1  0  0  0  0  0  0  0  0  0
   46.2960   33.3590   40.8250 C   0  0  1  0  0  0  0  0  0  0  0  0
   47.1370   32.1290   40.7340 C   0  0  0  0  0  0  0  0  0  0  0  0
   46.3210   31.1720   40.1750 O   0  0  0  0  0  0  0  0  0  0  0  0
   45.2940   31.7940   39.4900 C   0  0  0  0  0  0  0  0  0  0  0  0
   44.3750   33.9910   39.6170 O   0  0  0  0  0  0  0  0  0  0  0  0
   49.1639   34.5919   43.6326 H   0  0  0  0  0  0  0  0  0  0  0  0
   49.0704   33.2929   42.5093 H   0  0  0  0  0  0  0  0  0  0  0  0
   49.0136   36.3513   41.8687 H   0  0  0  0  0  0  0  0  0  0  0  0
   50.2688   35.2833   41.3409 H   0  0  0  0  0  0  0  0  0  0  0  0
   48.6551   33.9648   39.9432 H   0  0  0  0  0  0  0  0  0  0  0  0
   48.1928   35.6158   39.6274 H   0  0  0  0  0  0  0  0  0  0  0  0
   46.3114   35.4111   40.8390 H   0  0  0  0  0  0  0  0  0  0  0  0
   43.6911   36.6037   44.5971 H   0  0  0  0  0  0  0  0  0  0  0  0
   45.3140   36.4599   42.6921 H   0  0  0  0  0  0  0  0  0  0  0  0
   45.5446   33.3132   46.5227 H   0  0  0  0  0  0  0  0  0  0  0  0
   46.1181   33.7151   38.6431 H   0  0  0  0  0  0  0  0  0  0  0  0
   45.6159   33.3742   41.6894 H   0  0  0  0  0  0  0  0  0  0  0  0
   48.0143   32.3084   40.0951 H   0  0  0  0  0  0  0  0  0  0  0  0
   47.5183   31.8190   41.7181 H   0  0  0  0  0  0  0  0  0  0  0  0
   44.3326   31.5880   39.9833 H   0  0  0  0  0  0  0  0  0  0  0  0
   45.2315   31.4221   38.4567 H   0  0  0  0  0  0  0  0  0  0  0  0
   44.1508   34.1190   40.5727 H   0  0  0  0  0  0  0  0  0  0  0  0
  1  2  1  0
  1  8  1  0
  3  2  1  0
  4  5  1  0
  4  3  1  0
  5  1  1  0
  6 11  2  0
  7  8  2  0
  7  6  1  0
  8  9  1  0
  9 10  2  0
 11 10  1  0
 12 17  1  0
 12 13  1  0
 13 14  1  0
 13  5  1  0
 15 14  1  0
 16 12  1  0
 16 15  1  0
  2 18  1  0
  2 19  1  0
  3 20  1  0
  3 21  1  0
  4 22  1  0
  4 23  1  0
  5 24  1  1
  6 25  1  0
  7 26  1  0
 10 27  1  0
 12 28  1  6
 13 29  1  1
 14 30  1  0
 14 31  1  0
 16 32  1  0
 16 33  1  0
 17 34  1  0
M  ISO  8  18  13  19  13  20  13  21  13  22  13  23  13  24  13  25  14
M  ISO  8  26  14  27  14  28  13  29  13  30  13  31  13  32  13  33  13
M  ISO  1  34   3
M  END
>  <minimizedAffinity>  (1) 
-4.82465458

>  <minimizedRMSD>  (1) 
1.29447412

$$$$
