
     RDKit          3D

 25 26  0  0  1  0  0  0  0  0999 V2000
   45.7110   34.0860   43.1400 C   0  0  0  0  0  0  0  0  0  0  0  0
   46.5770   34.2560   41.9370 C   0  0  0  0  0  0  0  0  0  0  0  0
   47.6850   35.1170   42.1020 C   0  0  0  0  0  0  0  0  0  0  0  0
   48.5260   35.2980   40.9770 C   0  0  0  0  0  0  0  0  0  0  0  0
   48.2140   34.6430   39.8390 N   0  0  0  0  0  0  0  0  0  0  0  0
   47.1330   33.8250   39.7350 C   0  0  0  0  0  0  0  0  0  0  0  0
   46.3230   33.6390   40.7900 N   0  0  0  0  0  0  0  0  0  0  0  0
   46.0350   32.9270   46.5090 C   0  0  2  0  0  0  0  0  0  0  0  0
   45.5470   34.0010   45.5580 C   0  0  0  0  0  0  0  0  0  0  0  0
   46.5060   33.8350   44.4000 C   0  0  1  0  0  0  0  0  0  0  0  0
   47.0070   32.5510   44.4310 O   0  0  0  0  0  0  0  0  0  0  0  0
   46.4640   31.8760   45.4960 C   0  0  0  0  0  0  0  0  0  0  0  0
   44.9990   32.4570   47.3160 O   0  0  0  0  0  0  0  0  0  0  0  0
   45.1147   35.0002   43.2764 H   0  0  0  0  0  0  0  0  0  0  0  0
   45.0733   33.2062   42.9687 H   0  0  0  0  0  0  0  0  0  0  0  0
   47.8848   35.6225   43.0583 H   0  0  0  0  0  0  0  0  0  0  0  0
   49.4079   35.9534   41.0292 H   0  0  0  0  0  0  0  0  0  0  0  0
   46.9212   33.3141   38.7841 H   0  0  0  0  0  0  0  0  0  0  0  0
   46.8129   33.2439   47.2193 H   0  0  0  0  0  0  0  0  0  0  0  0
   44.5071   33.8210   45.2478 H   0  0  0  0  0  0  0  0  0  0  0  0
   45.5360   35.0124   45.9904 H   0  0  0  0  0  0  0  0  0  0  0  0
   47.3546   34.5332   44.4490 H   0  0  0  0  0  0  0  0  0  0  0  0
   45.5938   31.2884   45.1682 H   0  0  0  0  0  0  0  0  0  0  0  0
   47.1928   31.1787   45.9348 H   0  0  0  0  0  0  0  0  0  0  0  0
   45.2457   32.5689   48.2682 H   0  0  0  0  0  0  0  0  0  0  0  0
  2  3  2  0
  2  1  1  0
  4  3  1  0
  5  4  2  0
  6  5  1  0
  6  7  2  0
  7  2  1  0
  8 13  1  0
  9  8  1  0
 10  1  1  0
 10 11  1  0
 10  9  1  0
 11 12  1  0
 12  8  1  0
  1 14  1  0
  1 15  1  0
  3 16  1  0
  4 17  1  0
  6 18  1  0
  8 19  1  1
  9 20  1  0
  9 21  1  0
 10 22  1  1
 12 23  1  0
 12 24  1  0
 13 25  1  0
M  ISO  8  14   8  15   8  16  14  17  14  18  14  19  13  20  13  21  13
M  ISO  4  22  13  23  13  24  13  25   3
M  END
>  <minimizedAffinity>  (1) 
-3.84473968

>  <minimizedRMSD>  (1) 
5.87771273

$$$$
