
     RDKit          3D

 49 51  0  0  1  0  0  0  0  0999 V2000
   46.7050   34.5680   43.4740 N   0  0  0  0  0  0  0  0  0  0  0  0
   46.2080   35.6350   42.6660 C   0  0  0  0  0  0  0  0  0  0  0  0
   44.7100   35.7990   42.6870 C   0  0  0  0  0  0  0  0  0  0  0  0
   44.0540   35.4420   43.9880 C   0  0  0  0  0  0  0  0  0  0  0  0
   45.0680   35.0730   45.0440 C   0  0  0  0  0  0  0  0  0  0  0  0
   45.8810   33.9100   44.3720 C   0  0  2  0  0  0  0  0  0  0  0  0
   47.8020   33.8520   42.8810 C   0  0  0  0  0  0  0  0  0  0  0  0
   47.2490   32.7720   42.0010 C   0  0  0  0  0  0  0  0  0  0  0  0
   49.1150   32.0760   38.8140 C   0  0  0  0  0  0  0  0  0  0  0  0
   48.5850   31.9320   40.1040 C   0  0  0  0  0  0  0  0  0  0  0  0
   47.8100   32.9310   40.6270 C   0  0  0  0  0  0  0  0  0  0  0  0
   47.5880   34.0160   39.8760 N   0  0  0  0  0  0  0  0  0  0  0  0
   48.1050   34.1460   38.6320 C   0  0  0  0  0  0  0  0  0  0  0  0
   48.8710   33.1770   38.0940 N   0  0  0  0  0  0  0  0  0  0  0  0
   46.5930   33.4010   45.4440 O   0  0  0  0  0  0  0  0  0  0  0  0
   45.5500   31.1220   44.5900 O   0  0  0  0  0  0  0  0  0  0  0  0
   46.2300   31.7950   45.7770 P   0  0  2  0  0  0  0  0  0  0  0  0
   45.0540   31.8150   47.0210 O   0  0  0  0  0  0  0  0  0  0  0  0
   47.5480   30.9480   46.3340 O   0  0  0  0  0  0  0  0  0  0  0  0
   47.2040   28.9370   47.5580 C   0  0  2  0  0  0  0  0  0  0  0  0
   47.2830   29.5830   46.2120 C   0  0  1  0  0  0  0  0  0  0  0  0
   45.8820   29.3990   45.6660 C   0  0  0  0  0  0  0  0  0  0  0  0
   45.5650   28.1130   46.1070 O   0  0  0  0  0  0  0  0  0  0  0  0
   45.8980   28.1740   47.4760 C   0  0  0  0  0  0  0  0  0  0  0  0
   47.1000   29.9210   48.5390 O   0  0  0  0  0  0  0  0  0  0  0  0
   46.5174   35.4500   41.6268 H   0  0  0  0  0  0  0  0  0  0  0  0
   46.6268   36.5618   43.0852 H   0  0  0  0  0  0  0  0  0  0  0  0
   44.4782   36.8511   42.4648 H   0  0  0  0  0  0  0  0  0  0  0  0
   44.3123   35.0981   41.9383 H   0  0  0  0  0  0  0  0  0  0  0  0
   43.4701   36.3048   44.3410 H   0  0  0  0  0  0  0  0  0  0  0  0
   43.4059   34.5699   43.8164 H   0  0  0  0  0  0  0  0  0  0  0  0
   45.7213   35.9264   45.2785 H   0  0  0  0  0  0  0  0  0  0  0  0
   44.6080   34.7809   45.9996 H   0  0  0  0  0  0  0  0  0  0  0  0
   45.3263   33.1149   43.8523 H   0  0  0  0  0  0  0  0  0  0  0  0
   48.4136   34.5419   42.2810 H   0  0  0  0  0  0  0  0  0  0  0  0
   48.4311   33.4100   43.6677 H   0  0  0  0  0  0  0  0  0  0  0  0
   47.5312   31.7878   42.4031 H   0  0  0  0  0  0  0  0  0  0  0  0
   46.1521   32.8461   41.9658 H   0  0  0  0  0  0  0  0  0  0  0  0
   49.7381   31.2752   38.3893 H   0  0  0  0  0  0  0  0  0  0  0  0
   48.7904   31.0242   40.6903 H   0  0  0  0  0  0  0  0  0  0  0  0
   47.8966   35.0567   38.0513 H   0  0  0  0  0  0  0  0  0  0  0  0
   45.5055   31.8073   47.9020 H   0  0  0  0  0  0  0  0  0  0  0  0
   48.0748   28.3118   47.8046 H   0  0  0  0  0  0  0  0  0  0  0  0
   48.0760   29.1558   45.5806 H   0  0  0  0  0  0  0  0  0  0  0  0
   45.8700   29.4591   44.5677 H   0  0  0  0  0  0  0  0  0  0  0  0
   45.1714   30.1698   45.9992 H   0  0  0  0  0  0  0  0  0  0  0  0
   45.1122   28.7013   48.0368 H   0  0  0  0  0  0  0  0  0  0  0  0
   45.9926   27.1683   47.9114 H   0  0  0  0  0  0  0  0  0  0  0  0
   47.1444   29.5005   49.4342 H   0  0  0  0  0  0  0  0  0  0  0  0
  1  6  1  0
  2  3  1  0
  2  1  1  0
  3  4  1  0
  4  5  1  0
  6  5  1  0
  6 15  1  0
  7  1  1  0
  8  7  1  0
  9 10  2  0
 10 11  1  0
 11  8  1  0
 12 11  2  0
 13 12  1  0
 14 13  2  0
 14  9  1  0
 15 17  1  0
 17 16  2  0
 17 19  1  0
 17 18  1  0
 20 25  1  0
 21 19  1  0
 21 20  1  0
 22 23  1  0
 22 21  1  0
 23 24  1  0
 24 20  1  0
  2 26  1  0
  2 27  1  0
  3 28  1  0
  3 29  1  0
  4 30  1  0
  4 31  1  0
  5 32  1  0
  5 33  1  0
  6 34  1  6
  7 35  1  0
  7 36  1  0
  8 37  1  0
  8 38  1  0
  9 39  1  0
 10 40  1  0
 13 41  1  0
 18 42  1  0
 20 43  1  1
 21 44  1  6
 22 45  1  0
 22 46  1  0
 24 47  1  0
 24 48  1  0
 25 49  1  0
M  ISO  8  26  13  27  13  28  13  29  13  30  13  31  13  32  13  33  13
M  ISO  8  34  13  35   8  36   8  37   8  38   8  39  14  40  14  41  14
M  ISO  8  42   3  43  13  44  13  45  13  46  13  47  13  48  13  49   3
M  END
>  <minimizedAffinity>  (1) 
-4.47905064

>  <minimizedRMSD>  (1) 
1.00863636

$$$$
