
     RDKit          3D

 23 24  0  0  1  0  0  0  0  0999 V2000
   43.7620   35.2940   41.2060 S   0  0  0  0  0  0  0  0  0  0  0  0
   44.2700   35.8110   43.8760 C   0  0  0  0  0  0  0  0  0  0  0  0
   44.3700   34.8690   42.8450 C   0  0  0  0  0  0  0  0  0  0  0  0
   44.9380   33.6100   43.0950 C   0  0  0  0  0  0  0  0  0  0  0  0
   45.3660   33.3920   44.3710 N   0  0  0  0  0  0  0  0  0  0  0  0
   45.2590   34.3110   45.3460 C   0  0  0  0  0  0  0  0  0  0  0  0
   44.7210   35.5060   45.1090 N   0  0  0  0  0  0  0  0  0  0  0  0
   41.7000   35.1060   39.5120 C   0  0  2  0  0  0  0  0  0  0  0  0
   42.0780   34.7770   40.9430 C   0  0  2  0  0  0  0  0  0  0  0  0
   41.0430   35.5180   41.7230 C   0  0  0  0  0  0  0  0  0  0  0  0
   40.1980   36.1500   40.8190 O   0  0  0  0  0  0  0  0  0  0  0  0
   40.2110   35.3280   39.6740 C   0  0  0  0  0  0  0  0  0  0  0  0
   42.0060   34.1050   38.6080 O   0  0  0  0  0  0  0  0  0  0  0  0
   43.8245   36.7975   43.6802 H   0  0  0  0  0  0  0  0  0  0  0  0
   45.0321   32.8458   42.3094 H   0  0  0  0  0  0  0  0  0  0  0  0
   45.6219   34.0721   46.3566 H   0  0  0  0  0  0  0  0  0  0  0  0
   42.2502   35.9579   39.0859 H   0  0  0  0  0  0  0  0  0  0  0  0
   42.0749   33.7158   41.2324 H   0  0  0  0  0  0  0  0  0  0  0  0
   40.4679   34.8148   42.3433 H   0  0  0  0  0  0  0  0  0  0  0  0
   41.5182   36.2573   42.3845 H   0  0  0  0  0  0  0  0  0  0  0  0
   39.7792   35.8400   38.8014 H   0  0  0  0  0  0  0  0  0  0  0  0
   39.6168   34.4066   39.7639 H   0  0  0  0  0  0  0  0  0  0  0  0
   42.2574   33.2827   39.0987 H   0  0  0  0  0  0  0  0  0  0  0  0
  1  3  1  0
  2  7  2  0
  3  4  2  0
  3  2  1  0
  4  5  1  0
  5  6  2  0
  7  6  1  0
  8 13  1  0
  8 12  1  0
  8  9  1  0
  9  1  1  0
  9 10  1  0
 11 10  1  0
 12 11  1  0
  2 14  1  0
  4 15  1  0
  6 16  1  0
  8 17  1  6
  9 18  1  6
 10 19  1  0
 10 20  1  0
 12 21  1  0
 12 22  1  0
 13 23  1  0
M  ISO  8  14  14  15  14  16  14  17  13  18  13  19  13  20  13  21  13
M  ISO  2  22  13  23   3
M  END
>  <minimizedAffinity>  (1) 
-3.99666095

>  <minimizedRMSD>  (1) 
3.20557404

$$$$
