
     RDKit          3D

 52 55  0  0  1  0  0  0  0  0999 V2000
   45.1160   36.0060   43.4860 C   0  0  0  0  0  0  0  0  0  0  0  0
   45.9510   34.9140   43.2480 C   0  0  0  0  0  0  0  0  0  0  0  0
   46.0920   33.9560   44.2060 C   0  0  0  0  0  0  0  0  0  0  0  0
   45.3890   34.1350   45.3680 N   0  0  0  0  0  0  0  0  0  0  0  0
   44.5910   35.1760   45.6000 C   0  0  0  0  0  0  0  0  0  0  0  0
   44.4590   36.0970   44.6690 N   0  0  0  0  0  0  0  0  0  0  0  0
   46.6210   34.8770   42.0230 N   0  0  0  0  0  0  0  0  0  0  0  0
   47.9360   35.4010   41.8670 C   0  0  0  0  0  0  0  0  0  0  0  0
   48.5740   35.1310   40.5360 C   0  0  0  0  0  0  0  0  0  0  0  0
   48.3330   33.8530   40.0150 N   0  0  0  0  0  0  0  0  0  0  0  0
   47.0440   33.3690   40.1280 C   0  0  0  0  0  0  0  0  0  0  0  0
   46.1170   34.3450   40.8170 C   0  0  0  0  0  0  0  0  0  0  0  0
   46.5250   31.9980   45.4350 C   0  0  0  0  0  0  0  0  0  0  0  0
   46.8240   32.7690   44.2910 C   0  0  0  0  0  0  0  0  0  0  0  0
   47.8190   32.1810   43.5500 C   0  0  0  0  0  0  0  0  0  0  0  0
   48.4630   31.0220   43.8320 C   0  0  0  0  0  0  0  0  0  0  0  0
   48.1100   30.3240   44.9820 C   0  0  0  0  0  0  0  0  0  0  0  0
   47.1240   30.8240   45.7930 C   0  0  0  0  0  0  0  0  0  0  0  0
   48.9350   29.2110   44.9920 O   0  0  0  0  0  0  0  0  0  0  0  0
   49.7480   29.1940   43.8360 C   0  0  2  0  0  0  0  0  0  0  0  0
   49.4620   30.3900   43.1170 O   0  0  0  0  0  0  0  0  0  0  0  0
   49.3200   28.0990   43.0600 O   0  0  0  0  0  0  0  0  0  0  0  0
   51.6220   27.9290   43.1000 C   0  0  0  0  0  0  0  0  0  0  0  0
   50.3210   27.2750   42.6370 C   0  0  2  0  0  0  0  0  0  0  0  0
   50.5390   27.2630   41.1480 C   0  0  0  0  0  0  0  0  0  0  0  0
   51.5270   28.1740   40.8590 O   0  0  0  0  0  0  0  0  0  0  0  0
   51.7730   28.9480   41.9640 C   0  0  0  0  0  0  0  0  0  0  0  0
   51.4380   28.6930   44.2510 O   0  0  0  0  0  0  0  0  0  0  0  0
   44.9916   36.7864   42.7208 H   0  0  0  0  0  0  0  0  0  0  0  0
   44.0510   35.2645   46.5543 H   0  0  0  0  0  0  0  0  0  0  0  0
   47.8875   36.4910   42.0070 H   0  0  0  0  0  0  0  0  0  0  0  0
   48.5602   34.8910   42.6155 H   0  0  0  0  0  0  0  0  0  0  0  0
   48.1915   35.8707   39.8173 H   0  0  0  0  0  0  0  0  0  0  0  0
   49.6603   35.1997   40.6948 H   0  0  0  0  0  0  0  0  0  0  0  0
   48.9573   33.1946   40.5025 H   0  0  0  0  0  0  0  0  0  0  0  0
   46.6545   33.1643   39.1199 H   0  0  0  0  0  0  0  0  0  0  0  0
   47.0825   32.4558   40.7400 H   0  0  0  0  0  0  0  0  0  0  0  0
   45.9227   35.1798   40.1276 H   0  0  0  0  0  0  0  0  0  0  0  0
   45.2080   33.7831   41.0779 H   0  0  0  0  0  0  0  0  0  0  0  0
   45.7358   32.3783   46.1003 H   0  0  0  0  0  0  0  0  0  0  0  0
   48.1254   32.7046   42.6324 H   0  0  0  0  0  0  0  0  0  0  0  0
   46.8232   30.2933   46.7083 H   0  0  0  0  0  0  0  0  0  0  0  0
   50.8199   29.1202   44.0720 H   0  0  0  0  0  0  0  0  0  0  0  0
   51.5169   28.4138   44.0818 H   0  0  0  0  0  0  0  0  0  0  0  0
   52.4735   27.2494   43.2518 H   0  0  0  0  0  0  0  0  0  0  0  0
   50.0639   26.2711   43.0058 H   0  0  0  0  0  0  0  0  0  0  0  0
   50.8498   26.2589   40.8237 H   0  0  0  0  0  0  0  0  0  0  0  0
   49.6093   27.5258   40.6222 H   0  0  0  0  0  0  0  0  0  0  0  0
   52.7877   29.3719   41.9383 H   0  0  0  0  0  0  0  0  0  0  0  0
   51.1074   29.8190   42.0552 H   0  0  0  0  0  0  0  0  0  0  0  0
   51.4380   28.6930   45.2410 H   0  0  0  0  0  0  0  0  0  0  0  0
   51.4380   29.6264   43.9210 H   0  0  0  0  0  0  0  0  0  0  0  0
  1  6  2  0
  2  1  1  0
  2  3  2  0
  3 14  1  0
  3  4  1  0
  4  5  2  0
  6  5  1  0
  7  2  1  0
  8  7  1  0
  9  8  1  0
 10 11  1  0
 10  9  1  0
 11 12  1  0
 12  7  1  0
 13 18  2  0
 14 13  1  0
 15 16  1  0
 15 14  2  0
 16 17  2  0
 17 19  1  0
 17 18  1  0
 20 22  1  0
 20 19  1  0
 21 16  1  0
 21 20  1  0
 24 22  1  0
 24 23  1  0
 25 24  1  0
 26 25  1  0
 26 27  1  0
 27 23  1  0
  1 29  1  0
  5 30  1  0
  8 31  1  0
  8 32  1  0
  9 33  1  0
  9 34  1  0
 10 35  1  0
 11 36  1  0
 11 37  1  0
 12 38  1  0
 12 39  1  0
 13 40  1  0
 15 41  1  0
 18 42  1  0
 20 43  1  1
 23 44  1  0
 23 45  1  0
 24 46  1  1
 25 47  1  0
 25 48  1  0
 27 49  1  0
 27 50  1  0
 28 51  1  0
 28 52  1  0
M  ISO  8  29  14  30  14  31  13  32  13  33  13  34  13  35   5  36  13
M  ISO  8  37  13  38  13  39  13  40  14  41  14  42  14  43  13  44  13
M  ISO  8  45  13  46  13  47  13  48  13  49  13  50  13  51   3  52   3
M  END
>  <minimizedAffinity>  (1) 
-4.81779385

>  <minimizedRMSD>  (1) 
0.255035788

$$$$
