
     RDKit          3D

 38 40  0  0  1  0  0  0  0  0999 V2000
   47.5920   35.2610   41.7060 C   0  0  1  0  0  0  0  0  0  0  0  0
   49.0910   35.5190   41.6160 C   0  0  0  0  0  0  0  0  0  0  0  0
   48.3320   34.9600   40.4360 C   0  0  1  0  0  0  0  0  0  0  0  0
   47.1650   34.0840   42.4830 C   0  0  0  0  0  0  0  0  0  0  0  0
   46.2870   34.3860   43.6270 C   0  0  0  0  0  0  0  0  0  0  0  0
   45.4870   35.4780   43.4360 C   0  0  0  0  0  0  0  0  0  0  0  0
   44.6080   35.8990   44.4470 C   0  0  0  0  0  0  0  0  0  0  0  0
   44.6270   35.1380   45.5950 N   0  0  0  0  0  0  0  0  0  0  0  0
   45.4250   34.0640   45.7600 C   0  0  0  0  0  0  0  0  0  0  0  0
   46.2420   33.7010   44.7790 N   0  0  0  0  0  0  0  0  0  0  0  0
   48.5110   33.6390   40.1170 O   0  0  0  0  0  0  0  0  0  0  0  0
   48.5260   34.6630   37.6520 O   0  0  0  0  0  0  0  0  0  0  0  0
   48.5310   33.3690   38.4480 P   0  0  1  0  0  0  0  0  0  0  0  0
   50.0070   32.5790   38.0820 O   0  0  0  0  0  0  0  0  0  0  0  0
   47.2560   32.3890   38.0000 O   0  0  0  0  0  0  0  0  0  0  0  0
   45.4440   33.2340   36.8600 C   0  0  1  0  0  0  0  0  0  0  0  0
   46.0000   32.8620   38.2430 C   0  0  1  0  0  0  0  0  0  0  0  0
   45.0170   31.7940   38.6580 C   0  0  0  0  0  0  0  0  0  0  0  0
   44.1810   31.5360   37.5880 O   0  0  0  0  0  0  0  0  0  0  0  0
   44.9000   31.8720   36.4410 C   0  0  0  0  0  0  0  0  0  0  0  0
   44.4560   34.1880   36.9230 O   0  0  0  0  0  0  0  0  0  0  0  0
   46.7197   35.8708   41.9839 H   0  0  0  0  0  0  0  0  0  0  0  0
   49.4730   36.5502   41.5883 H   0  0  0  0  0  0  0  0  0  0  0  0
   49.9738   35.2106   42.1952 H   0  0  0  0  0  0  0  0  0  0  0  0
   48.2263   35.2569   39.3821 H   0  0  0  0  0  0  0  0  0  0  0  0
   46.6251   33.4047   41.8069 H   0  0  0  0  0  0  0  0  0  0  0  0
   48.0800   33.6406   42.9027 H   0  0  0  0  0  0  0  0  0  0  0  0
   45.5321   36.0297   42.4854 H   0  0  0  0  0  0  0  0  0  0  0  0
   43.9514   36.7738   44.3305 H   0  0  0  0  0  0  0  0  0  0  0  0
   45.3992   33.4932   46.7000 H   0  0  0  0  0  0  0  0  0  0  0  0
   50.4670   32.3328   38.9234 H   0  0  0  0  0  0  0  0  0  0  0  0
   46.1744   33.6857   36.1726 H   0  0  0  0  0  0  0  0  0  0  0  0
   46.0885   33.6414   39.0142 H   0  0  0  0  0  0  0  0  0  0  0  0
   45.5584   30.8779   38.9367 H   0  0  0  0  0  0  0  0  0  0  0  0
   44.4307   32.1338   39.5245 H   0  0  0  0  0  0  0  0  0  0  0  0
   44.2485   31.9466   35.5578 H   0  0  0  0  0  0  0  0  0  0  0  0
   45.6642   31.1396   36.1417 H   0  0  0  0  0  0  0  0  0  0  0  0
   44.2496   34.3873   37.8705 H   0  0  0  0  0  0  0  0  0  0  0  0
  1  4  1  0
  2  1  1  0
  3  2  1  0
  3  1  1  0
  4  5  1  0
  5 10  1  0
  6  5  2  0
  6  7  1  0
  7  8  2  0
  8  9  1  0
 10  9  2  0
 11  3  1  0
 13 12  2  0
 13 11  1  0
 14 13  1  0
 15 13  1  0
 16 21  1  0
 16 17  1  0
 17 15  1  0
 17 18  1  0
 19 18  1  0
 20 16  1  0
 20 19  1  0
  1 22  1  6
  2 23  1  0
  2 24  1  0
  3 25  1  6
  4 26  1  0
  4 27  1  0
  6 28  1  0
  7 29  1  0
  9 30  1  0
 14 31  1  0
 16 32  1  6
 17 33  1  1
 18 34  1  0
 18 35  1  0
 20 36  1  0
 20 37  1  0
 21 38  1  0
M  ISO  8  22  13  23  13  24  13  25  13  26   8  27   8  28  14  29  14
M  ISO  8  30  14  31   3  32  13  33  13  34  13  35  13  36  13  37  13
M  ISO  1  38   3
M  END
>  <minimizedAffinity>  (1) 
-5.34161282

>  <minimizedRMSD>  (1) 
2.03508234

$$$$
