
     RDKit          3D

 52 56  0  0  1  0  0  0  0  0999 V2000
   46.4220   32.9830   44.6770 C   0  0  0  0  0  0  0  0  0  0  0  0
   46.3240   33.4600   45.9830 C   0  0  0  0  0  0  0  0  0  0  0  0
   46.0980   32.6290   47.0850 C   0  0  0  0  0  0  0  0  0  0  0  0
   45.9620   31.2790   46.9190 C   0  0  0  0  0  0  0  0  0  0  0  0
   46.0490   30.7650   45.6060 C   0  0  0  0  0  0  0  0  0  0  0  0
   45.8550   29.4280   45.4800 C   0  0  0  0  0  0  0  0  0  0  0  0
   45.8630   28.9020   44.1860 C   0  0  0  0  0  0  0  0  0  0  0  0
   46.0650   29.7980   43.0790 C   0  0  0  0  0  0  0  0  0  0  0  0
   46.2450   31.1300   43.3760 C   0  0  0  0  0  0  0  0  0  0  0  0
   46.2690   31.6850   44.5780 C   0  0  0  0  0  0  0  0  0  0  0  0
   44.5840   31.8250   41.8950 C   0  0  0  0  0  0  0  0  0  0  0  0
   45.9990   31.5360   42.0080 C   0  0  0  0  0  0  0  0  0  0  0  0
   46.5860   31.5960   40.8140 C   0  0  0  0  0  0  0  0  0  0  0  0
   45.9570   31.8860   39.6180 C   0  0  0  0  0  0  0  0  0  0  0  0
   44.6140   32.1510   39.5390 C   0  0  0  0  0  0  0  0  0  0  0  0
   43.9240   32.1160   40.7190 C   0  0  0  0  0  0  0  0  0  0  0  0
   43.6430   31.8610   42.9590 O   0  0  0  0  0  0  0  0  0  0  0  0
   42.5810   32.3830   40.5730 O   0  0  0  0  0  0  0  0  0  0  0  0
   42.5960   34.7460   41.1080 C   0  0  2  0  0  0  0  0  0  0  0  0
   41.9370   33.5780   40.3840 C   0  0  2  0  0  0  0  0  0  0  0  0
   40.6490   33.5040   41.2250 C   0  0  0  0  0  0  0  0  0  0  0  0
   40.2990   34.7830   41.5450 O   0  0  0  0  0  0  0  0  0  0  0  0
   41.4170   35.5900   41.4620 C   0  0  0  0  0  0  0  0  0  0  0  0
   43.4050   35.4810   40.2460 O   0  0  0  0  0  0  0  0  0  0  0  0
   47.0030   35.3560   41.8570 C   0  0  0  0  0  0  0  0  0  0  0  0
   48.4160   35.4050   41.8700 C   0  0  0  0  0  0  0  0  0  0  0  0
   49.0440   34.6160   42.8070 C   0  0  0  0  0  0  0  0  0  0  0  0
   48.2340   33.9060   43.5880 N   0  0  0  0  0  0  0  0  0  0  0  0
   46.9080   33.8380   43.6060 C   0  0  0  0  0  0  0  0  0  0  0  0
   46.3270   34.5840   42.7140 N   0  0  0  0  0  0  0  0  0  0  0  0
   50.4560   34.5170   42.8930 N   0  0  0  0  0  0  0  0  0  0  0  0
   46.4294   34.5413   46.1551 H   0  0  0  0  0  0  0  0  0  0  0  0
   46.0292   33.0649   48.0926 H   0  0  0  0  0  0  0  0  0  0  0  0
   45.7905   30.6150   47.7791 H   0  0  0  0  0  0  0  0  0  0  0  0
   45.6981   28.7858   46.3592 H   0  0  0  0  0  0  0  0  0  0  0  0
   45.7178   27.8248   44.0170 H   0  0  0  0  0  0  0  0  0  0  0  0
   46.0752   29.4347   42.0408 H   0  0  0  0  0  0  0  0  0  0  0  0
   47.6672   31.3971   40.7764 H   0  0  0  0  0  0  0  0  0  0  0  0
   46.5558   31.9049   38.6955 H   0  0  0  0  0  0  0  0  0  0  0  0
   44.1206   32.3784   38.5825 H   0  0  0  0  0  0  0  0  0  0  0  0
   42.6934   32.0700   42.7731 H   0  0  0  0  0  0  0  0  0  0  0  0
   43.2261   34.4245   41.9504 H   0  0  0  0  0  0  0  0  0  0  0  0
   41.8751   33.7222   39.2953 H   0  0  0  0  0  0  0  0  0  0  0  0
   39.8460   33.0286   40.6426 H   0  0  0  0  0  0  0  0  0  0  0  0
   40.8113   32.9059   42.1338 H   0  0  0  0  0  0  0  0  0  0  0  0
   41.5914   36.0805   42.4310 H   0  0  0  0  0  0  0  0  0  0  0  0
   41.2648   36.3603   40.6917 H   0  0  0  0  0  0  0  0  0  0  0  0
   44.0246   36.0439   40.7745 H   0  0  0  0  0  0  0  0  0  0  0  0
   46.4490   35.9650   41.1275 H   0  0  0  0  0  0  0  0  0  0  0  0
   48.9817   36.0381   41.1706 H   0  0  0  0  0  0  0  0  0  0  0  0
   50.8874   33.9151   43.6089 H   0  0  0  0  0  0  0  0  0  0  0  0
   51.0502   35.0470   42.2396 H   0  0  0  0  0  0  0  0  0  0  0  0
  1  2  2  0
  2  3  1  0
  4  3  2  0
  5  4  1  0
  6  5  2  0
  7  6  1  0
  8  9  1  0
  8  7  2  0
  9 10  2  0
 10  1  1  0
 10  5  1  0
 11 12  2  0
 11 17  1  0
 12  9  1  0
 13 12  1  0
 14 13  2  0
 15 14  1  0
 15 16  2  0
 16 11  1  0
 18 16  1  0
 19 24  1  0
 19 23  1  0
 20 18  1  0
 20 19  1  0
 20 21  1  0
 21 22  1  0
 23 22  1  0
 25 26  2  0
 25 30  1  0
 26 27  1  0
 27 31  1  0
 27 28  2  0
 28 29  1  0
 29  1  1  0
 30 29  2  0
  2 32  1  0
  3 33  1  0
  4 34  1  0
  6 35  1  0
  7 36  1  0
  8 37  1  0
 13 38  1  0
 14 39  1  0
 15 40  1  0
 17 41  1  0
 19 42  1  1
 20 43  1  6
 21 44  1  0
 21 45  1  0
 23 46  1  0
 23 47  1  0
 24 48  1  0
 25 49  1  0
 26 50  1  0
 31 51  1  0
 31 52  1  0
M  ISO  8  32  14  33  14  34  14  35  14  36  14  37  14  38  14  39  14
M  ISO  8  40  14  41   3  42  13  43  13  44  13  45  13  46  13  47  13
M  ISO  3  48   3  49  14  50  14
M  END
>  <minimizedAffinity>  (1) 
-6.54698467

>  <minimizedRMSD>  (1) 
3.83095145

$$$$
