
     RDKit          3D

 46 48  0  0  1  0  0  0  0  0999 V2000
   42.2120   35.1710   40.4630 O   0  0  0  0  0  0  0  0  0  0  0  0
   41.0500   35.3600   41.1440 C   0  0  0  0  0  0  0  0  0  0  0  0
   40.4000   33.1120   41.8370 C   0  0  0  0  0  0  0  0  0  0  0  0
   40.0920   34.2170   41.0130 C   0  0  0  0  0  0  0  0  0  0  0  0
   38.9940   34.1300   40.2240 C   0  0  0  0  0  0  0  0  0  0  0  0
   38.2870   33.0030   40.2860 N   0  0  0  0  0  0  0  0  0  0  0  0
   38.5640   31.9660   41.0500 C   0  0  0  0  0  0  0  0  0  0  0  0
   39.6760   31.9810   41.8880 N   0  0  0  0  0  0  0  0  0  0  0  0
   38.2880   29.6720   41.8800 C   0  0  2  0  0  0  0  0  0  0  0  0
   37.6970   30.7570   41.0350 C   0  0  2  0  0  0  0  0  0  0  0  0
   37.8430   30.1520   39.6350 C   0  0  0  0  0  0  0  0  0  0  0  0
   37.8460   28.7600   39.8340 O   0  0  0  0  0  0  0  0  0  0  0  0
   38.8070   28.6670   40.8540 C   0  0  0  0  0  0  0  0  0  0  0  0
   37.2690   29.0230   42.5780 O   0  0  0  0  0  0  0  0  0  0  0  0
   43.5100   35.2940   40.9340 C   0  0  0  0  0  0  0  0  0  0  0  0
   43.6480   35.3710   42.2530 C   0  0  0  0  0  0  0  0  0  0  0  0
   44.9600   35.5070   43.0000 C   0  0  0  0  0  0  0  0  0  0  0  0
   44.8810   34.7200   44.1280 O   0  0  0  0  0  0  0  0  0  0  0  0
   45.7210   32.5990   42.7480 O   0  0  0  0  0  0  0  0  0  0  0  0
   45.9260   33.4020   44.0120 P   0  0  1  0  0  0  0  0  0  0  0  0
   47.5440   33.9440   43.9960 O   0  0  0  0  0  0  0  0  0  0  0  0
   45.7580   32.4060   45.3630 O   0  0  0  0  0  0  0  0  0  0  0  0
   46.0620   33.0610   46.5400 C   0  0  0  0  0  0  0  0  0  0  0  0
   47.0150   32.4180   47.5020 C   0  0  0  0  0  0  0  0  0  0  0  0
   45.5320   32.4130   47.7950 C   0  0  0  0  0  0  0  0  0  0  0  0
   41.2881   35.4951   42.2094 H   0  0  0  0  0  0  0  0  0  0  0  0
   40.5605   36.2454   40.7121 H   0  0  0  0  0  0  0  0  0  0  0  0
   41.2906   33.1817   42.4789 H   0  0  0  0  0  0  0  0  0  0  0  0
   38.6988   34.9557   39.5599 H   0  0  0  0  0  0  0  0  0  0  0  0
   39.0406   30.0538   42.5855 H   0  0  0  0  0  0  0  0  0  0  0  0
   36.6852   31.0467   41.3549 H   0  0  0  0  0  0  0  0  0  0  0  0
   38.7855   30.4774   39.1704 H   0  0  0  0  0  0  0  0  0  0  0  0
   37.0322   30.4697   38.9630 H   0  0  0  0  0  0  0  0  0  0  0  0
   38.8449   27.6513   41.2747 H   0  0  0  0  0  0  0  0  0  0  0  0
   39.8326   28.8733   40.5140 H   0  0  0  0  0  0  0  0  0  0  0  0
   37.4218   29.1203   43.5513 H   0  0  0  0  0  0  0  0  0  0  0  0
   44.3750   35.3260   40.2553 H   0  0  0  0  0  0  0  0  0  0  0  0
   42.7291   35.3327   42.8564 H   0  0  0  0  0  0  0  0  0  0  0  0
   45.7908   35.1680   42.3636 H   0  0  0  0  0  0  0  0  0  0  0  0
   45.1416   36.5569   43.2736 H   0  0  0  0  0  0  0  0  0  0  0  0
   47.8652   34.0516   44.9262 H   0  0  0  0  0  0  0  0  0  0  0  0
   46.0140   34.0571   46.0757 H   0  0  0  0  0  0  0  0  0  0  0  0
   47.5243   31.4822   47.2284 H   0  0  0  0  0  0  0  0  0  0  0  0
   47.9130   32.7489   48.0443 H   0  0  0  0  0  0  0  0  0  0  0  0
   45.1286   33.0343   48.6082 H   0  0  0  0  0  0  0  0  0  0  0  0
   44.7828   31.6389   48.0173 H   0  0  0  0  0  0  0  0  0  0  0  0
  1 15  1  0
  1  2  1  0
  3  8  2  0
  4  2  1  0
  4  3  1  0
  5  6  1  0
  5  4  2  0
  6  7  2  0
  7  8  1  0
  9 14  1  0
 10  7  1  0
 10  9  1  0
 11 12  1  0
 11 10  1  0
 12 13  1  0
 13  9  1  0
 15 16  2  0
 16 17  1  0
 17 18  1  0
 20 19  2  0
 20 18  1  0
 20 22  1  0
 21 20  1  0
 22 23  1  0
 23 24  1  0
 23 25  1  0
 24 25  1  0
  2 26  1  0
  2 27  1  0
  3 28  1  0
  5 29  1  0
  9 30  1  1
 10 31  1  1
 11 32  1  0
 11 33  1  0
 13 34  1  0
 13 35  1  0
 14 36  1  0
 15 37  1  0
 16 38  1  0
 17 39  1  0
 17 40  1  0
 21 41  1  0
 23 42  1  0
 24 43  1  0
 24 44  1  0
 25 45  1  0
 25 46  1  0
M  ISO  8  26   8  27   8  28  14  29  14  30  13  31  13  32  13  33  13
M  ISO  8  34  13  35  13  36   3  39   8  40   8  41   3  42  13  43  13
M  ISO  3  44  13  45  13  46  13
M  END
>  <minimizedAffinity>  (1) 
-5.48149204

>  <minimizedRMSD>  (1) 
1.31978405

$$$$
