
     RDKit          3D

 48 50  0  0  1  0  0  0  0  0999 V2000
   45.5280   33.6940   41.6670 C   0  0  1  0  0  0  0  0  0  0  0  0
   44.5410   34.3260   40.7040 C   0  0  0  0  0  0  0  0  0  0  0  0
   44.5170   33.3080   39.5920 C   0  0  0  0  0  0  0  0  0  0  0  0
   45.8530   32.6180   39.6280 C   0  0  0  0  0  0  0  0  0  0  0  0
   46.6500   33.3170   40.7190 C   0  0  1  0  0  0  0  0  0  0  0  0
   47.3870   34.5170   40.1980 C   0  0  0  0  0  0  0  0  0  0  0  0
   48.8610   34.4860   40.5210 C   0  0  0  0  0  0  0  0  0  0  0  0
   49.1200   35.7100   41.4020 C   0  0  0  0  0  0  0  0  0  0  0  0
   49.3940   35.1250   42.7870 C   0  0  0  0  0  0  0  0  0  0  0  0
   50.1790   33.8780   42.3760 C   0  0  0  0  0  0  0  0  0  0  0  0
   49.2520   33.2890   41.3340 C   0  0  0  0  0  0  0  0  0  0  0  0
   45.9490   34.5780   42.6500 O   0  0  0  0  0  0  0  0  0  0  0  0
   44.7730   35.0990   44.9050 O   0  0  0  0  0  0  0  0  0  0  0  0
   45.4910   33.9990   44.1590 P   0  0  1  0  0  0  0  0  0  0  0  0
   44.5460   32.6130   44.0030 O   0  0  0  0  0  0  0  0  0  0  0  0
   46.8620   33.5290   45.0100 O   0  0  0  0  0  0  0  0  0  0  0  0
   46.8270   32.1840   45.1970 C   0  0  0  0  0  0  0  0  0  0  0  0
   46.0110   32.0420   48.8210 C   0  0  0  0  0  0  0  0  0  0  0  0
   45.9620   32.4170   47.4690 C   0  0  0  0  0  0  0  0  0  0  0  0
   46.8590   31.8050   46.6200 C   0  0  0  0  0  0  0  0  0  0  0  0
   47.7380   30.8800   47.1250 N   0  0  0  0  0  0  0  0  0  0  0  0
   47.7590   30.5440   48.4250 C   0  0  0  0  0  0  0  0  0  0  0  0
   46.8980   31.1240   49.2620 N   0  0  0  0  0  0  0  0  0  0  0  0
   45.1174   32.8520   42.2437 H   0  0  0  0  0  0  0  0  0  0  0  0
   43.5487   34.4429   41.1640 H   0  0  0  0  0  0  0  0  0  0  0  0
   44.8162   35.3403   40.3793 H   0  0  0  0  0  0  0  0  0  0  0  0
   44.3706   33.8058   38.6221 H   0  0  0  0  0  0  0  0  0  0  0  0
   43.6918   32.5921   39.7208 H   0  0  0  0  0  0  0  0  0  0  0  0
   45.7274   31.5520   39.8684 H   0  0  0  0  0  0  0  0  0  0  0  0
   46.3635   32.6723   38.6552 H   0  0  0  0  0  0  0  0  0  0  0  0
   47.4476   32.7099   41.1721 H   0  0  0  0  0  0  0  0  0  0  0  0
   46.9482   35.4205   40.6464 H   0  0  0  0  0  0  0  0  0  0  0  0
   47.2887   34.5151   39.1024 H   0  0  0  0  0  0  0  0  0  0  0  0
   49.4299   34.4632   39.5798 H   0  0  0  0  0  0  0  0  0  0  0  0
   49.9908   36.2751   41.0381 H   0  0  0  0  0  0  0  0  0  0  0  0
   48.2754   36.4148   41.4023 H   0  0  0  0  0  0  0  0  0  0  0  0
   49.9962   35.8039   43.4086 H   0  0  0  0  0  0  0  0  0  0  0  0
   48.5026   34.9380   43.4038 H   0  0  0  0  0  0  0  0  0  0  0  0
   51.1573   34.1391   41.9461 H   0  0  0  0  0  0  0  0  0  0  0  0
   50.4209   33.1983   43.2063 H   0  0  0  0  0  0  0  0  0  0  0  0
   48.3723   32.8248   41.8037 H   0  0  0  0  0  0  0  0  0  0  0  0
   49.7189   32.4915   40.7373 H   0  0  0  0  0  0  0  0  0  0  0  0
   44.3122   32.2701   44.9018 H   0  0  0  0  0  0  0  0  0  0  0  0
   45.9024   31.7908   44.7492 H   0  0  0  0  0  0  0  0  0  0  0  0
   47.7233   31.7598   44.7208 H   0  0  0  0  0  0  0  0  0  0  0  0
   45.3136   32.5047   49.5348 H   0  0  0  0  0  0  0  0  0  0  0  0
   45.2417   33.1641   47.1043 H   0  0  0  0  0  0  0  0  0  0  0  0
   48.4783   29.7987   48.7953 H   0  0  0  0  0  0  0  0  0  0  0  0
  1 12  1  0
  2  1  1  0
  3  4  1  0
  3  2  1  0
  4  5  1  0
  5  1  1  0
  6  7  1  0
  6  5  1  0
  7 11  1  0
  7  8  1  0
  8  9  1  0
 10  9  1  0
 11 10  1  0
 12 14  1  0
 14 13  2  0
 14 16  1  0
 15 14  1  0
 16 17  1  0
 17 20  1  0
 18 23  2  0
 19 18  1  0
 20 21  1  0
 20 19  2  0
 21 22  2  0
 22 23  1  0
  1 24  1  1
  2 25  1  0
  2 26  1  0
  3 27  1  0
  3 28  1  0
  4 29  1  0
  4 30  1  0
  5 31  1  1
  6 32  1  0
  6 33  1  0
  7 34  1  0
  8 35  1  0
  8 36  1  0
  9 37  1  0
  9 38  1  0
 10 39  1  0
 10 40  1  0
 11 41  1  0
 11 42  1  0
 15 43  1  0
 17 44  1  0
 17 45  1  0
 18 46  1  0
 19 47  1  0
 22 48  1  0
M  ISO  8  24  13  25  13  26  13  27  13  28  13  29  13  30  13  31  13
M  ISO  8  32   8  33   8  34  13  35  13  36  13  37  13  38  13  39  13
M  ISO  8  40  13  41  13  42  13  43   3  44   8  45   8  46  14  47  14
M  ISO  1  48  14
M  END
>  <minimizedAffinity>  (1) 
-5.20331192

>  <minimizedRMSD>  (1) 
1.85990417

$$$$
