
     RDKit          3D

 39 41  0  0  1  0  0  0  0  0999 V2000
   44.6460   35.3830   45.1860 C   0  0  0  0  0  0  0  0  0  0  0  0
   45.3900   35.2340   44.0060 C   0  0  0  0  0  0  0  0  0  0  0  0
   46.2310   34.1170   43.9270 C   0  0  0  0  0  0  0  0  0  0  0  0
   46.2920   33.2520   44.9570 N   0  0  0  0  0  0  0  0  0  0  0  0
   45.5660   33.4250   46.0740 C   0  0  0  0  0  0  0  0  0  0  0  0
   44.7270   34.4980   46.2080 N   0  0  0  0  0  0  0  0  0  0  0  0
   47.1880   32.1550   47.4800 C   0  0  2  0  0  0  0  0  0  0  0  0
   45.7090   32.4080   47.1150 C   0  0  1  0  0  0  0  0  0  0  0  0
   45.2170   32.7630   48.3400 O   0  0  0  0  0  0  0  0  0  0  0  0
   45.7140   31.8830   49.2560 C   0  0  0  0  0  0  0  0  0  0  0  0
   46.9220   31.1980   48.6550 C   0  0  2  0  0  0  0  0  0  0  0  0
   47.7200   33.2830   48.0110 O   0  0  0  0  0  0  0  0  0  0  0  0
   47.9930   31.0850   49.4920 O   0  0  0  0  0  0  0  0  0  0  0  0
   45.2120   36.2630   42.9740 C   0  0  0  0  0  0  0  0  0  0  0  0
   44.5500   35.6680   41.7520 C   0  0  0  0  0  0  0  0  0  0  0  0
   43.1530   35.1530   42.0890 C   0  0  0  0  0  0  0  0  0  0  0  0
   43.0470   33.7770   41.4890 C   0  0  0  0  0  0  0  0  0  0  0  0
   44.1180   33.8120   40.4170 C   0  0  0  0  0  0  0  0  0  0  0  0
   45.2650   34.4700   41.1950 C   0  0  0  0  0  0  0  0  0  0  0  0
   43.9739   36.2482   45.2845 H   0  0  0  0  0  0  0  0  0  0  0  0
   46.8396   33.9469   43.0266 H   0  0  0  0  0  0  0  0  0  0  0  0
   47.8446   31.8223   46.6625 H   0  0  0  0  0  0  0  0  0  0  0  0
   45.1730   31.5598   46.6642 H   0  0  0  0  0  0  0  0  0  0  0  0
   46.0087   32.4230   50.1679 H   0  0  0  0  0  0  0  0  0  0  0  0
   44.9485   31.1376   49.5175 H   0  0  0  0  0  0  0  0  0  0  0  0
   46.7521   30.1434   48.3922 H   0  0  0  0  0  0  0  0  0  0  0  0
   47.6935   33.2269   48.9991 H   0  0  0  0  0  0  0  0  0  0  0  0
   47.6825   31.1178   50.4315 H   0  0  0  0  0  0  0  0  0  0  0  0
   44.5808   37.0713   43.3719 H   0  0  0  0  0  0  0  0  0  0  0  0
   46.1975   36.6610   42.6903 H   0  0  0  0  0  0  0  0  0  0  0  0
   44.5514   36.4905   41.0216 H   0  0  0  0  0  0  0  0  0  0  0  0
   43.0196   35.1030   43.1797 H   0  0  0  0  0  0  0  0  0  0  0  0
   42.3762   35.8215   41.6894 H   0  0  0  0  0  0  0  0  0  0  0  0
   43.2568   32.9984   42.2372 H   0  0  0  0  0  0  0  0  0  0  0  0
   42.0444   33.5391   41.1040 H   0  0  0  0  0  0  0  0  0  0  0  0
   43.8100   34.4207   39.5541 H   0  0  0  0  0  0  0  0  0  0  0  0
   44.3618   32.8332   39.9783 H   0  0  0  0  0  0  0  0  0  0  0  0
   45.6459   33.8149   41.9923 H   0  0  0  0  0  0  0  0  0  0  0  0
   46.1581   34.7011   40.5959 H   0  0  0  0  0  0  0  0  0  0  0  0
  1  6  2  0
  2  1  1  0
  3  2  2  0
  3  4  1  0
  4  5  2  0
  5  6  1  0
  5  8  1  0
  7 12  1  0
  7 11  1  0
  8  7  1  0
  8  9  1  0
  9 10  1  0
 11 10  1  0
 11 13  1  0
 14  2  1  0
 15 16  1  0
 15 14  1  0
 17 16  1  0
 18 19  1  0
 18 17  1  0
 19 15  1  0
  1 20  1  0
  3 21  1  0
  7 22  1  6
  8 23  1  6
 10 24  1  0
 10 25  1  0
 11 26  1  6
 12 27  1  0
 13 28  1  0
 14 29  1  0
 14 30  1  0
 15 31  1  0
 16 32  1  0
 16 33  1  0
 17 34  1  0
 17 35  1  0
 18 36  1  0
 18 37  1  0
 19 38  1  0
 19 39  1  0
M  ISO  8  20  14  21  14  22  13  23  13  24  13  25  13  26  13  27   3
M  ISO  8  28   3  29   8  30   8  31  13  32  13  33  13  34  13  35  13
M  ISO  4  36  13  37  13  38  13  39  13
M  END
>  <minimizedAffinity>  (1) 
-5.99363804

>  <minimizedRMSD>  (1) 
0.497184485

$$$$
