
     RDKit          3D

 47 49  0  0  1  0  0  0  0  0999 V2000
   46.1170   31.2810   46.4750 C   0  0  2  0  0  0  0  0  0  0  0  0
   45.0540   30.8250   47.4220 C   0  0  0  0  0  0  0  0  0  0  0  0
   44.7300   29.4170   47.0720 C   0  0  0  0  0  0  0  0  0  0  0  0
   45.4300   28.8710   45.8730 C   0  0  0  0  0  0  0  0  0  0  0  0
   46.9180   29.0210   46.0250 C   0  0  0  0  0  0  0  0  0  0  0  0
   47.2910   30.3240   46.5600 C   0  0  2  0  0  0  0  0  0  0  0  0
   47.6690   30.0950   47.9820 C   0  0  0  0  0  0  0  0  0  0  0  0
   49.1180   30.3050   48.3110 C   0  0  0  0  0  0  0  0  0  0  0  0
   49.3370   31.1440   49.5450 C   0  0  0  0  0  0  0  0  0  0  0  0
   50.8620   31.0190   49.6270 C   0  0  0  0  0  0  0  0  0  0  0  0
   51.0090   29.5110   49.5040 C   0  0  0  0  0  0  0  0  0  0  0  0
   49.7660   29.0090   48.8130 C   0  0  0  0  0  0  0  0  0  0  0  0
   46.5240   32.6980   46.6540 C   0  0  0  0  0  0  0  0  0  0  0  0
   47.2120   33.0970   47.6190 O   0  0  0  0  0  0  0  0  0  0  0  0
   44.6490   35.3320   44.9490 C   0  0  0  0  0  0  0  0  0  0  0  0
   45.2390   35.4040   43.6590 C   0  0  0  0  0  0  0  0  0  0  0  0
   46.2860   34.5330   43.4140 C   0  0  0  0  0  0  0  0  0  0  0  0
   46.6090   33.7300   44.4280 N   0  0  0  0  0  0  0  0  0  0  0  0
   46.0730   33.6510   45.6240 C   0  0  0  0  0  0  0  0  0  0  0  0
   45.0550   34.4860   45.8880 N   0  0  0  0  0  0  0  0  0  0  0  0
   46.8870   34.5990   42.0940 C   0  0  0  0  0  0  0  0  0  0  0  0
   47.6010   33.4300   41.8480 F   0  0  0  0  0  0  0  0  0  0  0  0
   47.7510   35.6460   42.1010 F   0  0  0  0  0  0  0  0  0  0  0  0
   45.9390   34.6770   41.0810 F   0  0  0  0  0  0  0  0  0  0  0  0
   45.6947   31.2581   45.4595 H   0  0  0  0  0  0  0  0  0  0  0  0
   45.4217   30.8812   48.4572 H   0  0  0  0  0  0  0  0  0  0  0  0
   44.1611   31.4627   47.3441 H   0  0  0  0  0  0  0  0  0  0  0  0
   44.9928   28.7855   47.9335 H   0  0  0  0  0  0  0  0  0  0  0  0
   43.6585   29.4088   46.8233 H   0  0  0  0  0  0  0  0  0  0  0  0
   45.0994   29.4194   44.9786 H   0  0  0  0  0  0  0  0  0  0  0  0
   45.1863   27.8032   45.7714 H   0  0  0  0  0  0  0  0  0  0  0  0
   47.2842   28.2403   46.7079 H   0  0  0  0  0  0  0  0  0  0  0  0
   47.3694   28.9256   45.0264 H   0  0  0  0  0  0  0  0  0  0  0  0
   48.1205   30.7699   45.9916 H   0  0  0  0  0  0  0  0  0  0  0  0
   47.0778   30.7831   48.6041 H   0  0  0  0  0  0  0  0  0  0  0  0
   47.4674   29.0317   48.1788 H   0  0  0  0  0  0  0  0  0  0  0  0
   49.5174   30.7355   47.3809 H   0  0  0  0  0  0  0  0  0  0  0  0
   49.0123   32.1853   49.4028 H   0  0  0  0  0  0  0  0  0  0  0  0
   48.7804   30.8343   50.4418 H   0  0  0  0  0  0  0  0  0  0  0  0
   51.3601   31.5467   48.8003 H   0  0  0  0  0  0  0  0  0  0  0  0
   51.3154   31.4572   50.5283 H   0  0  0  0  0  0  0  0  0  0  0  0
   51.8999   29.2644   48.9078 H   0  0  0  0  0  0  0  0  0  0  0  0
   51.1283   29.0433   50.4924 H   0  0  0  0  0  0  0  0  0  0  0  0
   49.1057   28.4813   49.5169 H   0  0  0  0  0  0  0  0  0  0  0  0
   49.9724   28.2836   48.0123 H   0  0  0  0  0  0  0  0  0  0  0  0
   43.8149   36.0104   45.1813 H   0  0  0  0  0  0  0  0  0  0  0  0
   44.8833   36.1129   42.8968 H   0  0  0  0  0  0  0  0  0  0  0  0
  1  6  1  0
  1 13  1  0
  1  2  1  0
  3  2  1  0
  4  5  1  0
  4  3  1  0
  5  6  1  0
  6  7  1  0
  7  8  1  0
  8 12  1  0
  8  9  1  0
  9 10  1  0
 11 10  1  0
 12 11  1  0
 13 14  2  0
 15 20  2  0
 16 15  1  0
 17 16  2  0
 17 18  1  0
 18 19  2  0
 19 20  1  0
 19 13  1  0
 21 23  1  0
 21 17  1  0
 22 21  1  0
 24 21  1  0
  1 25  1  6
  2 26  1  0
  2 27  1  0
  3 28  1  0
  3 29  1  0
  4 30  1  0
  4 31  1  0
  5 32  1  0
  5 33  1  0
  6 34  1  6
  7 35  1  0
  7 36  1  0
  8 37  1  0
  9 38  1  0
  9 39  1  0
 10 40  1  0
 10 41  1  0
 11 42  1  0
 11 43  1  0
 12 44  1  0
 12 45  1  0
 15 46  1  0
 16 47  1  0
M  ISO  8  25  13  26  13  27  13  28  13  29  13  30  13  31  13  32  13
M  ISO  8  33  13  34  13  35   8  36   8  37  13  38  13  39  13  40  13
M  ISO  7  41  13  42  13  43  13  44  13  45  13  46  14  47  14
M  END
>  <minimizedAffinity>  (1) 
-5.58642149

>  <minimizedRMSD>  (1) 
2.224226

$$$$
