
     RDKit          3D

 39 42  0  0  0  0  0  0  0  0999 V2000
   46.0380   31.7090   45.1710 C   0  0  0  0  0  0  0  0  0  0  0  0
   45.7680   33.0180   45.5760 C   0  0  0  0  0  0  0  0  0  0  0  0
   45.4850   33.2760   46.8920 C   0  0  0  0  0  0  0  0  0  0  0  0
   45.4680   32.2380   47.8000 C   0  0  0  0  0  0  0  0  0  0  0  0
   45.2340   32.1650   49.1160 N   0  0  0  0  0  0  0  0  0  0  0  0
   45.3340   30.9140   49.5710 C   0  0  0  0  0  0  0  0  0  0  0  0
   45.6560   30.0990   48.4950 C   0  0  0  0  0  0  0  0  0  0  0  0
   45.7360   30.9320   47.4010 C   0  0  0  0  0  0  0  0  0  0  0  0
   46.0210   30.6780   46.0710 C   0  0  0  0  0  0  0  0  0  0  0  0
   46.7800   34.9440   42.6490 C   0  0  0  0  0  0  0  0  0  0  0  0
   45.8790   36.0070   42.6150 C   0  0  0  0  0  0  0  0  0  0  0  0
   44.9100   36.0580   43.6170 C   0  0  0  0  0  0  0  0  0  0  0  0
   44.9000   35.0810   44.5550 N   0  0  0  0  0  0  0  0  0  0  0  0
   45.8050   34.0580   44.5480 C   0  0  0  0  0  0  0  0  0  0  0  0
   46.7400   33.9960   43.5940 N   0  0  0  0  0  0  0  0  0  0  0  0
   47.7500   34.9560   41.5880 C   0  0  0  0  0  0  0  0  0  0  0  0
   48.6780   35.7970   41.4210 O   0  0  0  0  0  0  0  0  0  0  0  0
   47.7100   33.8890   40.5410 C   0  0  0  0  0  0  0  0  0  0  0  0
   46.2970   33.4780   40.2220 C   0  0  0  0  0  0  0  0  0  0  0  0
   46.3000   33.2850   38.7370 C   0  0  0  0  0  0  0  0  0  0  0  0
   47.6540   33.6300   38.2060 C   0  0  0  0  0  0  0  0  0  0  0  0
   48.2740   34.4810   39.2660 C   0  0  0  0  0  0  0  0  0  0  0  0
   46.2673   31.5039   44.1149 H   0  0  0  0  0  0  0  0  0  0  0  0
   45.2729   34.3038   47.2217 H   0  0  0  0  0  0  0  0  0  0  0  0
   45.0043   32.9769   49.7068 H   0  0  0  0  0  0  0  0  0  0  0  0
   45.1876   30.5880   50.6113 H   0  0  0  0  0  0  0  0  0  0  0  0
   45.8148   29.0107   48.5122 H   0  0  0  0  0  0  0  0  0  0  0  0
   46.2331   29.6512   45.7382 H   0  0  0  0  0  0  0  0  0  0  0  0
   45.9301   36.7751   41.8292 H   0  0  0  0  0  0  0  0  0  0  0  0
   44.1713   36.8726   43.6448 H   0  0  0  0  0  0  0  0  0  0  0  0
   48.2738   33.0198   40.9106 H   0  0  0  0  0  0  0  0  0  0  0  0
   46.0368   32.5415   40.7371 H   0  0  0  0  0  0  0  0  0  0  0  0
   45.5563   34.2222   40.5498 H   0  0  0  0  0  0  0  0  0  0  0  0
   46.0670   32.2363   38.5006 H   0  0  0  0  0  0  0  0  0  0  0  0
   45.5422   33.9351   38.2754 H   0  0  0  0  0  0  0  0  0  0  0  0
   48.2495   32.7198   38.0422 H   0  0  0  0  0  0  0  0  0  0  0  0
   47.6005   34.1472   37.2367 H   0  0  0  0  0  0  0  0  0  0  0  0
   49.3711   34.4045   39.2447 H   0  0  0  0  0  0  0  0  0  0  0  0
   48.0554   35.5526   39.1485 H   0  0  0  0  0  0  0  0  0  0  0  0
  1  2  2  0
  1  9  1  0
  2  3  1  0
  3  4  2  0
  4  5  1  0
  5  6  1  0
  7  6  2  0
  8  4  1  0
  8  7  1  0
  9  8  2  0
 10 15  1  0
 11 10  2  0
 11 12  1  0
 12 13  2  0
 14 13  1  0
 14  2  1  0
 15 14  2  0
 16 10  1  0
 17 16  2  0
 18 16  1  0
 19 18  1  0
 20 19  1  0
 21 20  1  0
 21 22  1  0
 22 18  1  0
  1 23  1  0
  3 24  1  0
  5 25  1  0
  6 26  1  0
  7 27  1  0
  9 28  1  0
 11 29  1  0
 12 30  1  0
 18 31  1  0
 19 32  1  0
 19 33  1  0
 20 34  1  0
 20 35  1  0
 21 36  1  0
 21 37  1  0
 22 38  1  0
 22 39  1  0
M  ISO  8  23  14  24  14  25   9  26  14  27  14  28  14  29  14  30  14
M  ISO  8  31  13  32  13  33  13  34  13  35  13  36  13  37  13  38  13
M  ISO  1  39  13
M  END
>  <minimizedAffinity>  (1) 
-6.16602039

>  <minimizedRMSD>  (1) 
0.523183405

$$$$
