
     RDKit          3D

 52 55  0  0  0  0  0  0  0  0999 V2000
   46.1080   31.7770   45.3650 C   0  0  0  0  0  0  0  0  0  0  0  0
   47.1590   32.5220   47.4780 C   0  0  0  0  0  0  0  0  0  0  0  0
   47.0130   31.5310   46.4810 C   0  0  0  0  0  0  0  0  0  0  0  0
   47.7230   30.3560   46.6340 C   0  0  0  0  0  0  0  0  0  0  0  0
   48.5140   30.2110   47.7210 N   0  0  0  0  0  0  0  0  0  0  0  0
   48.6290   31.1610   48.6430 C   0  0  0  0  0  0  0  0  0  0  0  0
   47.9580   32.3320   48.5440 N   0  0  0  0  0  0  0  0  0  0  0  0
   49.5230   30.9220   49.8290 C   0  0  0  0  0  0  0  0  0  0  0  0
   50.8070   31.6060   49.7400 C   0  0  0  0  0  0  0  0  0  0  0  0
   51.9770   31.0640   49.2420 C   0  0  0  0  0  0  0  0  0  0  0  0
   52.9680   32.0040   49.3170 C   0  0  0  0  0  0  0  0  0  0  0  0
   52.3650   33.1000   49.8630 N   0  0  0  0  0  0  0  0  0  0  0  0
   51.0780   32.8680   50.1170 N   0  0  0  0  0  0  0  0  0  0  0  0
   46.7600   32.7350   44.4230 C   0  0  0  0  0  0  0  0  0  0  0  0
   46.4310   34.7700   43.1270 C   0  0  0  0  0  0  0  0  0  0  0  0
   46.0750   34.0300   44.2430 C   0  0  0  0  0  0  0  0  0  0  0  0
   45.1530   34.3790   45.1500 C   0  0  0  0  0  0  0  0  0  0  0  0
   44.4960   35.5680   44.9730 C   0  0  0  0  0  0  0  0  0  0  0  0
   44.7650   36.3740   43.9090 C   0  0  0  0  0  0  0  0  0  0  0  0
   45.7190   35.9630   43.0120 C   0  0  0  0  0  0  0  0  0  0  0  0
   47.5900   34.3800   41.9350 S   0  0  0  0  0  0  0  0  0  0  0  0
   48.4190   35.6710   41.6080 O   0  0  0  0  0  0  0  0  0  0  0  0
   46.8920   34.0970   40.6350 O   0  0  0  0  0  0  0  0  0  0  0  0
   48.8660   33.3060   42.0900 C   0  0  0  0  0  0  0  0  0  0  0  0
   50.2520   33.8900   42.3310 C   0  0  0  0  0  0  0  0  0  0  0  0
   51.0750   32.6090   42.1440 C   0  0  0  0  0  0  0  0  0  0  0  0
   50.3890   31.9650   40.9320 C   0  0  0  0  0  0  0  0  0  0  0  0
   49.2000   32.8460   40.6570 C   0  0  0  0  0  0  0  0  0  0  0  0
   45.8968   30.8314   44.8442 H   0  0  0  0  0  0  0  0  0  0  0  0
   45.1623   32.1998   45.7351 H   0  0  0  0  0  0  0  0  0  0  0  0
   46.6077   33.4689   47.3805 H   0  0  0  0  0  0  0  0  0  0  0  0
   47.6463   29.5534   45.8857 H   0  0  0  0  0  0  0  0  0  0  0  0
   49.0035   31.2740   50.7324 H   0  0  0  0  0  0  0  0  0  0  0  0
   49.7342   29.8430   49.8610 H   0  0  0  0  0  0  0  0  0  0  0  0
   52.0924   30.0430   48.8493 H   0  0  0  0  0  0  0  0  0  0  0  0
   54.0180   31.8997   49.0062 H   0  0  0  0  0  0  0  0  0  0  0  0
   52.8435   33.9918   50.0541 H   0  0  0  0  0  0  0  0  0  0  0  0
   47.7736   32.9393   44.7982 H   0  0  0  0  0  0  0  0  0  0  0  0
   46.7359   32.2463   43.4378 H   0  0  0  0  0  0  0  0  0  0  0  0
   44.9303   33.7308   46.0104 H   0  0  0  0  0  0  0  0  0  0  0  0
   43.7358   35.8779   45.7052 H   0  0  0  0  0  0  0  0  0  0  0  0
   44.2330   37.3271   43.7723 H   0  0  0  0  0  0  0  0  0  0  0  0
   45.9345   36.6134   42.1515 H   0  0  0  0  0  0  0  0  0  0  0  0
   48.5277   32.6325   42.8912 H   0  0  0  0  0  0  0  0  0  0  0  0
   50.5113   34.6609   41.5904 H   0  0  0  0  0  0  0  0  0  0  0  0
   50.3905   34.4107   43.2900 H   0  0  0  0  0  0  0  0  0  0  0  0
   52.1295   32.8386   41.9314 H   0  0  0  0  0  0  0  0  0  0  0  0
   51.1007   31.9637   43.0345 H   0  0  0  0  0  0  0  0  0  0  0  0
   51.0673   31.9465   40.0662 H   0  0  0  0  0  0  0  0  0  0  0  0
   50.0998   30.9209   41.1221 H   0  0  0  0  0  0  0  0  0  0  0  0
   49.4625   33.6940   40.0074 H   0  0  0  0  0  0  0  0  0  0  0  0
   48.3728   32.3529   40.1255 H   0  0  0  0  0  0  0  0  0  0  0  0
  1  3  1  0
  2  7  2  0
  3  4  2  0
  3  2  1  0
  4  5  1  0
  5  6  2  0
  6  8  1  0
  7  6  1  0
  9  8  1  0
  9 13  2  0
 10 11  2  0
 10  9  1  0
 11 12  1  0
 12 13  1  0
 14  1  1  0
 15 16  1  0
 16 14  1  0
 16 17  2  0
 18 17  1  0
 19 18  2  0
 20 15  2  0
 20 19  1  0
 21 24  1  0
 21 15  1  0
 22 21  2  0
 23 21  2  0
 24 25  1  0
 26 25  1  0
 27 26  1  0
 28 27  1  0
 28 24  1  0
  1 29  1  0
  1 30  1  0
  2 31  1  0
  4 32  1  0
  8 33  1  0
  8 34  1  0
 10 35  1  0
 11 36  1  0
 12 37  1  0
 14 38  1  0
 14 39  1  0
 17 40  1  0
 18 41  1  0
 19 42  1  0
 20 43  1  0
 24 44  1  0
 25 45  1  0
 25 46  1  0
 26 47  1  0
 26 48  1  0
 27 49  1  0
 27 50  1  0
 28 51  1  0
 28 52  1  0
M  ISO  8  29   8  30   8  31  14  32  14  33   8  34   8  35  14  36  14
M  ISO  8  37   9  38   8  39   8  40  14  41  14  42  14  43  14  44  13
M  ISO  8  45  13  46  13  47  13  48  13  49  13  50  13  51  13  52  13
M  END
>  <minimizedAffinity>  (1) 
-6.52090883

>  <minimizedRMSD>  (1) 
0.984415054

$$$$
