
     RDKit          3D

 33 35  0  0  1  0  0  0  0  0999 V2000
   45.2660   33.6970   44.6110 C   0  0  0  0  0  0  0  0  0  0  0  0
   45.0350   34.9410   45.2560 C   0  0  0  0  0  0  0  0  0  0  0  0
   44.5680   36.0000   44.4870 C   0  0  0  0  0  0  0  0  0  0  0  0
   44.3560   35.7930   43.1590 N   0  0  0  0  0  0  0  0  0  0  0  0
   44.5890   34.5900   42.5810 C   0  0  0  0  0  0  0  0  0  0  0  0
   45.0440   33.5480   43.3200 N   0  0  0  0  0  0  0  0  0  0  0  0
   45.7730   32.5420   45.3950 C   0  0  1  0  0  0  0  0  0  0  0  0
   47.2580   32.2140   45.1230 C   0  0  0  0  0  0  0  0  0  0  0  0
   46.7810   32.7150   46.4440 C   0  0  2  0  0  0  0  0  0  0  0  0
   46.6210   31.8630   47.6480 C   0  0  0  0  0  0  0  0  0  0  0  0
   45.5770   32.3910   48.5930 C   0  0  0  0  0  0  0  0  0  0  0  0
   45.4020   31.1840   49.5180 C   0  0  0  0  0  0  0  0  0  0  0  0
   45.1730   30.0970   48.4690 C   0  0  0  0  0  0  0  0  0  0  0  0
   46.1790   30.4490   47.3840 C   0  0  0  0  0  0  0  0  0  0  0  0
   44.3050   34.5690   41.1090 C   0  0  0  0  0  0  0  0  0  0  0  0
   43.4930   33.5180   40.7580 F   0  0  0  0  0  0  0  0  0  0  0  0
   45.5050   34.4520   40.4030 F   0  0  0  0  0  0  0  0  0  0  0  0
   43.7680   35.7970   40.7430 F   0  0  0  0  0  0  0  0  0  0  0  0
   45.2204   35.0627   46.3334 H   0  0  0  0  0  0  0  0  0  0  0  0
   44.3742   36.9829   44.9413 H   0  0  0  0  0  0  0  0  0  0  0  0
   44.7981   32.0325   45.3860 H   0  0  0  0  0  0  0  0  0  0  0  0
   47.5853   31.1700   45.0091 H   0  0  0  0  0  0  0  0  0  0  0  0
   48.0142   32.5222   44.3860 H   0  0  0  0  0  0  0  0  0  0  0  0
   47.1600   33.5338   47.0733 H   0  0  0  0  0  0  0  0  0  0  0  0
   47.6396   31.8795   48.0630 H   0  0  0  0  0  0  0  0  0  0  0  0
   45.9354   33.2745   49.1416 H   0  0  0  0  0  0  0  0  0  0  0  0
   44.6515   32.7348   48.1080 H   0  0  0  0  0  0  0  0  0  0  0  0
   46.3037   30.9923   50.1182 H   0  0  0  0  0  0  0  0  0  0  0  0
   44.6079   31.2825   50.2727 H   0  0  0  0  0  0  0  0  0  0  0  0
   45.3733   29.0984   48.8846 H   0  0  0  0  0  0  0  0  0  0  0  0
   44.1364   30.0604   48.1028 H   0  0  0  0  0  0  0  0  0  0  0  0
   45.7080   30.3777   46.3925 H   0  0  0  0  0  0  0  0  0  0  0  0
   47.0344   29.7575   47.3975 H   0  0  0  0  0  0  0  0  0  0  0  0
  1  2  2  0
  1  7  1  0
  3  2  1  0
  4  3  2  0
  5  4  1  0
  5  6  2  0
  6  1  1  0
  7  9  1  0
  8  7  1  0
  8  9  1  0
  9 10  1  0
 10 11  1  0
 11 12  1  0
 13 12  1  0
 14 10  1  0
 14 13  1  0
 15  5  1  0
 16 15  1  0
 17 15  1  0
 18 15  1  0
  2 19  1  0
  3 20  1  0
  7 21  1  1
  8 22  1  0
  8 23  1  0
  9 24  1  1
 10 25  1  0
 11 26  1  0
 11 27  1  0
 12 28  1  0
 12 29  1  0
 13 30  1  0
 13 31  1  0
 14 32  1  0
 14 33  1  0
M  ISO  8  19  14  20  14  21  13  22  13  23  13  24  13  25  13  26  13
M  ISO  7  27  13  28  13  29  13  30  13  31  13  32  13  33  13
M  END
>  <minimizedAffinity>  (1) 
-5.34168196

>  <minimizedRMSD>  (1) 
6.88540411

$$$$
