
     RDKit          3D

 39 41  0  0  1  0  0  0  0  0999 V2000
   46.0370   34.4570   43.3990 C   0  0  0  0  0  0  0  0  0  0  0  0
   47.0250   33.4600   43.5000 C   0  0  0  0  0  0  0  0  0  0  0  0
   47.1730   32.8210   44.7240 C   0  0  0  0  0  0  0  0  0  0  0  0
   46.3710   33.1730   45.7710 N   0  0  0  0  0  0  0  0  0  0  0  0
   45.4360   34.1360   45.6270 C   0  0  0  0  0  0  0  0  0  0  0  0
   45.2590   34.7800   44.4590 N   0  0  0  0  0  0  0  0  0  0  0  0
   49.1100   33.9920   42.2290 C   0  0  2  0  0  0  0  0  0  0  0  0
   47.8820   33.0990   42.3370 C   0  0  1  0  0  0  0  0  0  0  0  0
   48.2970   31.8030   42.3320 O   0  0  0  0  0  0  0  0  0  0  0  0
   49.6430   31.7310   42.5590 C   0  0  0  0  0  0  0  0  0  0  0  0
   50.1780   32.9460   41.8620 C   0  0  1  0  0  0  0  0  0  0  0  0
   49.4700   34.6280   43.3790 O   0  0  0  0  0  0  0  0  0  0  0  0
   50.1600   32.6880   40.4970 O   0  0  0  0  0  0  0  0  0  0  0  0
   45.8600   35.1340   42.0940 C   0  0  0  0  0  0  0  0  0  0  0  0
   44.6750   34.6970   41.3040 C   0  0  0  0  0  0  0  0  0  0  0  0
   44.0100   33.4630   41.8940 C   0  0  0  0  0  0  0  0  0  0  0  0
   42.6720   33.4590   41.1480 C   0  0  0  0  0  0  0  0  0  0  0  0
   42.3780   34.8990   40.8320 C   0  0  0  0  0  0  0  0  0  0  0  0
   43.5250   35.6860   41.4150 C   0  0  0  0  0  0  0  0  0  0  0  0
   47.9326   32.0353   44.8492 H   0  0  0  0  0  0  0  0  0  0  0  0
   44.8027   34.4009   46.4865 H   0  0  0  0  0  0  0  0  0  0  0  0
   48.9527   34.8230   41.5257 H   0  0  0  0  0  0  0  0  0  0  0  0
   47.2233   33.2505   41.4691 H   0  0  0  0  0  0  0  0  0  0  0  0
   49.8630   31.7662   43.6362 H   0  0  0  0  0  0  0  0  0  0  0  0
   50.0907   30.7946   42.1945 H   0  0  0  0  0  0  0  0  0  0  0  0
   51.2004   33.2502   42.1304 H   0  0  0  0  0  0  0  0  0  0  0  0
   49.1691   34.0965   44.1581 H   0  0  0  0  0  0  0  0  0  0  0  0
   50.0919   31.7119   40.3465 H   0  0  0  0  0  0  0  0  0  0  0  0
   45.7635   36.2135   42.2818 H   0  0  0  0  0  0  0  0  0  0  0  0
   46.7412   34.8676   41.4919 H   0  0  0  0  0  0  0  0  0  0  0  0
   45.0817   34.5618   40.2909 H   0  0  0  0  0  0  0  0  0  0  0  0
   44.5911   32.5529   41.6840 H   0  0  0  0  0  0  0  0  0  0  0  0
   43.9153   33.4821   42.9898 H   0  0  0  0  0  0  0  0  0  0  0  0
   42.7513   32.8715   40.2214 H   0  0  0  0  0  0  0  0  0  0  0  0
   41.8723   33.0043   41.7511 H   0  0  0  0  0  0  0  0  0  0  0  0
   42.3232   35.0496   39.7437 H   0  0  0  0  0  0  0  0  0  0  0  0
   41.4120   35.2179   41.2505 H   0  0  0  0  0  0  0  0  0  0  0  0
   43.3314   35.9580   42.4631 H   0  0  0  0  0  0  0  0  0  0  0  0
   43.7115   36.6425   40.9048 H   0  0  0  0  0  0  0  0  0  0  0  0
  1  2  1  0
  1  6  2  0
  2  3  2  0
  3  4  1  0
  5  4  2  0
  6  5  1  0
  7  8  1  0
  7 12  1  0
  8  2  1  0
  9  8  1  0
  9 10  1  0
 11  7  1  0
 11 10  1  0
 13 11  1  0
 14  1  1  0
 15 19  1  0
 15 16  1  0
 15 14  1  0
 17 16  1  0
 18 17  1  0
 18 19  1  0
  3 20  1  0
  5 21  1  0
  7 22  1  6
  8 23  1  6
 10 24  1  0
 10 25  1  0
 11 26  1  1
 12 27  1  0
 13 28  1  0
 14 29  1  0
 14 30  1  0
 15 31  1  0
 16 32  1  0
 16 33  1  0
 17 34  1  0
 17 35  1  0
 18 36  1  0
 18 37  1  0
 19 38  1  0
 19 39  1  0
M  ISO  8  20  14  21  14  22  13  23  13  24  13  25  13  26  13  27   3
M  ISO  8  28   3  29   8  30   8  31  13  32  13  33  13  34  13  35  13
M  ISO  4  36  13  37  13  38  13  39  13
M  END
>  <minimizedAffinity>  (1) 
-5.21770096

>  <minimizedRMSD>  (1) 
1.73797929

$$$$
