
     RDKit          3D

 24 25  0  0  0  0  0  0  0  0999 V2000
   44.5520   35.9730   44.5440 C   0  0  0  0  0  0  0  0  0  0  0  0
   45.2830   35.7700   43.3620 C   0  0  0  0  0  0  0  0  0  0  0  0
   46.1350   34.6630   43.3200 C   0  0  0  0  0  0  0  0  0  0  0  0
   46.2010   33.8630   44.4150 N   0  0  0  0  0  0  0  0  0  0  0  0
   45.4870   34.0930   45.5230 C   0  0  0  0  0  0  0  0  0  0  0  0
   44.6690   35.1440   45.5800 N   0  0  0  0  0  0  0  0  0  0  0  0
   45.5510   33.2720   46.6540 O   0  0  0  0  0  0  0  0  0  0  0  0
   46.5890   32.2990   46.6570 C   0  0  0  0  0  0  0  0  0  0  0  0
   47.4180   32.4270   47.9310 C   0  0  0  0  0  0  0  0  0  0  0  0
   46.7580   31.3680   48.8190 C   0  0  0  0  0  0  0  0  0  0  0  0
   46.6640   30.2290   47.8060 C   0  0  0  0  0  0  0  0  0  0  0  0
   45.9420   30.9480   46.6810 C   0  0  0  0  0  0  0  0  0  0  0  0
   43.8699   36.8330   44.6155 H   0  0  0  0  0  0  0  0  0  0  0  0
   45.1889   36.4536   42.5054 H   0  0  0  0  0  0  0  0  0  0  0  0
   46.7356   34.4458   42.4244 H   0  0  0  0  0  0  0  0  0  0  0  0
   47.2311   32.4382   45.7748 H   0  0  0  0  0  0  0  0  0  0  0  0
   48.4779   32.1966   47.7478 H   0  0  0  0  0  0  0  0  0  0  0  0
   47.4292   33.4380   48.3642 H   0  0  0  0  0  0  0  0  0  0  0  0
   47.3877   31.1022   49.6809 H   0  0  0  0  0  0  0  0  0  0  0  0
   45.8067   31.6670   49.2832 H   0  0  0  0  0  0  0  0  0  0  0  0
   47.6577   29.8746   47.4946 H   0  0  0  0  0  0  0  0  0  0  0  0
   46.1675   29.3183   48.1723 H   0  0  0  0  0  0  0  0  0  0  0  0
   44.8661   31.0311   46.8942 H   0  0  0  0  0  0  0  0  0  0  0  0
   46.0159   30.4205   45.7185 H   0  0  0  0  0  0  0  0  0  0  0  0
  1  6  2  0
  2  1  1  0
  3  2  2  0
  3  4  1  0
  4  5  2  0
  5  6  1  0
  5  7  1  0
  7  8  1  0
  8 12  1  0
  8  9  1  0
  9 10  1  0
 11 10  1  0
 12 11  1  0
  1 13  1  0
  2 14  1  0
  3 15  1  0
  8 16  1  0
  9 17  1  0
  9 18  1  0
 10 19  1  0
 10 20  1  0
 11 21  1  0
 11 22  1  0
 12 23  1  0
 12 24  1  0
M  ISO  8  13  14  14  14  15  14  16  13  17  13  18  13  19  13  20  13
M  ISO  4  21  13  22  13  23  13  24  13
M  END
>  <minimizedAffinity>  (1) 
-4.20497894

>  <minimizedRMSD>  (1) 
1.65425074

$$$$
