
     RDKit          3D

 39 41  0  0  0  0  0  0  0  0999 V2000
   46.6320   33.6830   43.1380 C   0  0  0  0  0  0  0  0  0  0  0  0
   45.9180   34.6750   42.3110 C   0  0  0  0  0  0  0  0  0  0  0  0
   45.4770   35.8880   43.0720 C   0  0  0  0  0  0  0  0  0  0  0  0
   44.6280   35.5320   44.2770 C   0  0  0  0  0  0  0  0  0  0  0  0
   45.1360   34.3490   45.0490 C   0  0  0  0  0  0  0  0  0  0  0  0
   46.5330   33.9550   44.6340 C   0  0  0  0  0  0  0  0  0  0  0  0
   48.0660   33.5830   42.8040 C   0  0  0  0  0  0  0  0  0  0  0  0
   48.7850   34.8090   42.7820 C   0  0  0  0  0  0  0  0  0  0  0  0
   50.1470   34.7820   42.4830 C   0  0  0  0  0  0  0  0  0  0  0  0
   50.7070   33.5470   42.2240 N   0  0  0  0  0  0  0  0  0  0  0  0
   49.9940   32.4020   42.2530 C   0  0  0  0  0  0  0  0  0  0  0  0
   48.6910   32.4270   42.5400 N   0  0  0  0  0  0  0  0  0  0  0  0
   50.6490   31.1000   41.9670 C   0  0  0  0  0  0  0  0  0  0  0  0
   51.7810   31.2760   40.9510 C   0  0  0  0  0  0  0  0  0  0  0  0
   52.4180   29.9020   41.0030 C   0  0  0  0  0  0  0  0  0  0  0  0
   52.3980   29.5840   42.4670 C   0  0  0  0  0  0  0  0  0  0  0  0
   51.4420   30.5610   43.1340 C   0  0  0  0  0  0  0  0  0  0  0  0
   46.1214   32.7376   42.9025 H   0  0  0  0  0  0  0  0  0  0  0  0
   45.0281   34.1924   41.8808 H   0  0  0  0  0  0  0  0  0  0  0  0
   46.6235   35.0182   41.5399 H   0  0  0  0  0  0  0  0  0  0  0  0
   46.3681   36.4338   43.4155 H   0  0  0  0  0  0  0  0  0  0  0  0
   44.8643   36.5047   42.3980 H   0  0  0  0  0  0  0  0  0  0  0  0
   44.6017   36.4007   44.9514 H   0  0  0  0  0  0  0  0  0  0  0  0
   43.6312   35.2625   43.8978 H   0  0  0  0  0  0  0  0  0  0  0  0
   45.1422   34.6008   46.1198 H   0  0  0  0  0  0  0  0  0  0  0  0
   44.4695   33.4988   44.8418 H   0  0  0  0  0  0  0  0  0  0  0  0
   46.8215   33.0446   45.1798 H   0  0  0  0  0  0  0  0  0  0  0  0
   47.2054   34.7927   44.8709 H   0  0  0  0  0  0  0  0  0  0  0  0
   48.2770   35.7607   42.9967 H   0  0  0  0  0  0  0  0  0  0  0  0
   50.7478   35.7030   42.4548 H   0  0  0  0  0  0  0  0  0  0  0  0
   49.8123   30.4550   41.6604 H   0  0  0  0  0  0  0  0  0  0  0  0
   52.4856   32.0619   41.2607 H   0  0  0  0  0  0  0  0  0  0  0  0
   51.4521   31.5902   39.9494 H   0  0  0  0  0  0  0  0  0  0  0  0
   51.8295   29.1702   40.4302 H   0  0  0  0  0  0  0  0  0  0  0  0
   53.4260   29.8716   40.5638 H   0  0  0  0  0  0  0  0  0  0  0  0
   52.0496   28.5523   42.6225 H   0  0  0  0  0  0  0  0  0  0  0  0
   53.4065   29.6742   42.8969 H   0  0  0  0  0  0  0  0  0  0  0  0
   51.9905   31.3654   43.6460 H   0  0  0  0  0  0  0  0  0  0  0  0
   50.8154   30.0971   43.9100 H   0  0  0  0  0  0  0  0  0  0  0  0
  1  6  1  0
  2  3  1  0
  2  1  1  0
  3  4  1  0
  4  5  1  0
  6  5  1  0
  7  1  1  0
  8  7  2  0
  9  8  1  0
 10 11  1  0
 10  9  2  0
 11 12  2  0
 12  7  1  0
 13 11  1  0
 13 17  1  0
 14 15  1  0
 14 13  1  0
 15 16  1  0
 16 17  1  0
  1 18  1  0
  2 19  1  0
  2 20  1  0
  3 21  1  0
  3 22  1  0
  4 23  1  0
  4 24  1  0
  5 25  1  0
  5 26  1  0
  6 27  1  0
  6 28  1  0
  8 29  1  0
  9 30  1  0
 13 31  1  0
 14 32  1  0
 14 33  1  0
 15 34  1  0
 15 35  1  0
 16 36  1  0
 16 37  1  0
 17 38  1  0
 17 39  1  0
M  ISO  8  18  13  19  13  20  13  21  13  22  13  23  13  24  13  25  13
M  ISO  8  26  13  27  13  28  13  29  14  30  14  31  13  32  13  33  13
M  ISO  6  34  13  35  13  36  13  37  13  38  13  39  13
M  END
>  <minimizedAffinity>  (1) 
-4.40040779

>  <minimizedRMSD>  (1) 
2.54491305

$$$$
