
     RDKit          3D

 39 41  0  0  1  0  0  0  0  0999 V2000
   46.5410   33.6010   43.1650 C   0  0  2  0  0  0  0  0  0  0  0  0
   45.8720   34.6260   42.3440 C   0  0  0  0  0  0  0  0  0  0  0  0
   45.4950   35.8620   43.1000 C   0  0  0  0  0  0  0  0  0  0  0  0
   44.6890   35.5800   44.3580 C   0  0  0  0  0  0  0  0  0  0  0  0
   45.1300   34.3520   45.0990 C   0  0  0  0  0  0  0  0  0  0  0  0
   46.4940   33.8880   44.6590 C   0  0  1  0  0  0  0  0  0  0  0  0
   47.9580   33.4190   42.7970 C   0  0  0  0  0  0  0  0  0  0  0  0
   48.7500   34.5830   42.8190 C   0  0  0  0  0  0  0  0  0  0  0  0
   50.1090   34.5220   42.4870 C   0  0  0  0  0  0  0  0  0  0  0  0
   50.5910   33.2840   42.1480 N   0  0  0  0  0  0  0  0  0  0  0  0
   49.8080   32.1770   42.1340 C   0  0  0  0  0  0  0  0  0  0  0  0
   48.4930   32.2470   42.4580 N   0  0  0  0  0  0  0  0  0  0  0  0
   46.8850   32.6380   45.3760 C   0  0  0  0  0  0  0  0  0  0  0  0
   46.9620   32.7800   46.8760 C   0  0  0  0  0  0  0  0  0  0  0  0
   45.7820   31.9520   47.3790 C   0  0  0  0  0  0  0  0  0  0  0  0
   45.7820   30.7740   46.4440 C   0  0  0  0  0  0  0  0  0  0  0  0
   46.0250   31.4490   45.1070 C   0  0  0  0  0  0  0  0  0  0  0  0
   45.9685   32.6856   42.9543 H   0  0  0  0  0  0  0  0  0  0  0  0
   44.9566   34.1868   41.9209 H   0  0  0  0  0  0  0  0  0  0  0  0
   46.5914   34.9333   41.5707 H   0  0  0  0  0  0  0  0  0  0  0  0
   46.4166   36.3892   43.3876 H   0  0  0  0  0  0  0  0  0  0  0  0
   44.8591   36.4664   42.4364 H   0  0  0  0  0  0  0  0  0  0  0  0
   44.7845   36.4443   45.0317 H   0  0  0  0  0  0  0  0  0  0  0  0
   43.6505   35.4058   44.0400 H   0  0  0  0  0  0  0  0  0  0  0  0
   45.1617   34.5785   46.1750 H   0  0  0  0  0  0  0  0  0  0  0  0
   44.4111   33.5479   44.8832 H   0  0  0  0  0  0  0  0  0  0  0  0
   47.1913   34.7048   44.8972 H   0  0  0  0  0  0  0  0  0  0  0  0
   48.2984   35.5462   43.0987 H   0  0  0  0  0  0  0  0  0  0  0  0
   50.7519   35.4145   42.4975 H   0  0  0  0  0  0  0  0  0  0  0  0
   50.2462   31.2072   41.8555 H   0  0  0  0  0  0  0  0  0  0  0  0
   47.8855   32.4673   44.9519 H   0  0  0  0  0  0  0  0  0  0  0  0
   47.9128   32.3813   47.2595 H   0  0  0  0  0  0  0  0  0  0  0  0
   46.9196   33.8279   47.2077 H   0  0  0  0  0  0  0  0  0  0  0  0
   45.9370   31.6321   48.4200 H   0  0  0  0  0  0  0  0  0  0  0  0
   44.8313   32.5052   47.3840 H   0  0  0  0  0  0  0  0  0  0  0  0
   46.5877   30.0664   46.6892 H   0  0  0  0  0  0  0  0  0  0  0  0
   44.8624   30.1715   46.4817 H   0  0  0  0  0  0  0  0  0  0  0  0
   45.0696   31.7651   44.6629 H   0  0  0  0  0  0  0  0  0  0  0  0
   46.5114   30.7613   44.3996 H   0  0  0  0  0  0  0  0  0  0  0  0
  1  6  1  0
  2  3  1  0
  2  1  1  0
  3  4  1  0
  4  5  1  0
  6  5  1  0
  6 13  1  0
  7  8  2  0
  7  1  1  0
  9  8  1  0
 10  9  2  0
 11 10  1  0
 11 12  2  0
 12  7  1  0
 13 14  1  0
 14 15  1  0
 16 15  1  0
 17 13  1  0
 17 16  1  0
  1 18  1  1
  2 19  1  0
  2 20  1  0
  3 21  1  0
  3 22  1  0
  4 23  1  0
  4 24  1  0
  5 25  1  0
  5 26  1  0
  6 27  1  6
  8 28  1  0
  9 29  1  0
 11 30  1  0
 13 31  1  0
 14 32  1  0
 14 33  1  0
 15 34  1  0
 15 35  1  0
 16 36  1  0
 16 37  1  0
 17 38  1  0
 17 39  1  0
M  ISO  8  18  13  19  13  20  13  21  13  22  13  23  13  24  13  25  13
M  ISO  8  26  13  27  13  28  14  29  14  30  14  31  13  32  13  33  13
M  ISO  6  34  13  35  13  36  13  37  13  38  13  39  13
M  END
>  <minimizedAffinity>  (1) 
-5.06067896

>  <minimizedRMSD>  (1) 
1.6622175

$$$$
