
     RDKit          3D

 41 43  0  0  1  0  0  0  0  0999 V2000
   45.8970   32.9420   46.5360 N   0  0  0  0  0  0  0  0  0  0  0  0
   45.0860   32.9260   47.7220 C   0  0  0  0  0  0  0  0  0  0  0  0
   45.9550   32.3470   48.8330 C   0  0  0  0  0  0  0  0  0  0  0  0
   46.0610   30.8850   48.5540 C   0  0  0  0  0  0  0  0  0  0  0  0
   46.8300   30.7940   47.2550 C   0  0  0  0  0  0  0  0  0  0  0  0
   46.8930   31.9120   46.3770 C   0  0  1  0  0  0  0  0  0  0  0  0
   46.1670   34.7920   43.3510 C   0  0  0  0  0  0  0  0  0  0  0  0
   46.4470   33.8430   44.3380 C   0  0  0  0  0  0  0  0  0  0  0  0
   45.7420   33.8860   45.5250 C   0  0  0  0  0  0  0  0  0  0  0  0
   44.8040   34.8600   45.6900 N   0  0  0  0  0  0  0  0  0  0  0  0
   44.5430   35.7820   44.7220 C   0  0  0  0  0  0  0  0  0  0  0  0
   45.2230   35.7390   43.5660 N   0  0  0  0  0  0  0  0  0  0  0  0
   46.9150   34.6650   42.0550 C   0  0  0  0  0  0  0  0  0  0  0  0
   46.0500   34.6620   40.9660 F   0  0  0  0  0  0  0  0  0  0  0  0
   47.8040   35.7120   41.9950 F   0  0  0  0  0  0  0  0  0  0  0  0
   47.6410   33.4800   42.0510 F   0  0  0  0  0  0  0  0  0  0  0  0
   46.7240   31.2800   44.9640 C   0  0  0  0  0  0  0  0  0  0  0  0
   45.6490   30.2270   44.9140 C   0  0  0  0  0  0  0  0  0  0  0  0
   46.0570   29.5470   43.5900 C   0  0  0  0  0  0  0  0  0  0  0  0
   47.4620   29.1590   44.0030 C   0  0  0  0  0  0  0  0  0  0  0  0
   47.9480   30.4810   44.5610 C   0  0  0  0  0  0  0  0  0  0  0  0
   44.7700   33.9475   47.9801 H   0  0  0  0  0  0  0  0  0  0  0  0
   44.1768   32.3248   47.5740 H   0  0  0  0  0  0  0  0  0  0  0  0
   46.9519   32.8117   48.8197 H   0  0  0  0  0  0  0  0  0  0  0  0
   45.5194   32.5369   49.8251 H   0  0  0  0  0  0  0  0  0  0  0  0
   46.6047   30.3747   49.3627 H   0  0  0  0  0  0  0  0  0  0  0  0
   45.0747   30.4026   48.4871 H   0  0  0  0  0  0  0  0  0  0  0  0
   47.8674   30.5409   47.5191 H   0  0  0  0  0  0  0  0  0  0  0  0
   46.2556   30.0553   46.6768 H   0  0  0  0  0  0  0  0  0  0  0  0
   47.8344   32.4443   46.5780 H   0  0  0  0  0  0  0  0  0  0  0  0
   47.2163   33.0744   44.1723 H   0  0  0  0  0  0  0  0  0  0  0  0
   43.7798   36.5568   44.8868 H   0  0  0  0  0  0  0  0  0  0  0  0
   46.5108   32.1468   44.3212 H   0  0  0  0  0  0  0  0  0  0  0  0
   45.7046   29.5369   45.7688 H   0  0  0  0  0  0  0  0  0  0  0  0
   44.6144   30.5976   44.9619 H   0  0  0  0  0  0  0  0  0  0  0  0
   46.0464   30.2439   42.7390 H   0  0  0  0  0  0  0  0  0  0  0  0
   45.4072   28.7335   43.2351 H   0  0  0  0  0  0  0  0  0  0  0  0
   47.4588   28.3693   44.7688 H   0  0  0  0  0  0  0  0  0  0  0  0
   48.0826   28.7407   43.1968 H   0  0  0  0  0  0  0  0  0  0  0  0
   48.5886   30.3063   45.4380 H   0  0  0  0  0  0  0  0  0  0  0  0
   48.5381   31.0264   43.8098 H   0  0  0  0  0  0  0  0  0  0  0  0
  1  2  1  0
  2  3  1  0
  4  3  1  0
  5  4  1  0
  6  1  1  0
  6  5  1  0
  7 12  2  0
  7  8  1  0
  8  9  2  0
  9 10  1  0
  9  1  1  0
 11 10  2  0
 12 11  1  0
 13  7  1  0
 14 13  1  0
 15 13  1  0
 16 13  1  0
 17  6  1  0
 18 17  1  0
 19 20  1  0
 19 18  1  0
 20 21  1  0
 21 17  1  0
  2 22  1  0
  2 23  1  0
  3 24  1  0
  3 25  1  0
  4 26  1  0
  4 27  1  0
  5 28  1  0
  5 29  1  0
  6 30  1  6
  8 31  1  0
 11 32  1  0
 17 33  1  0
 18 34  1  0
 18 35  1  0
 19 36  1  0
 19 37  1  0
 20 38  1  0
 20 39  1  0
 21 40  1  0
 21 41  1  0
M  ISO  8  22  13  23  13  24  13  25  13  26  13  27  13  28  13  29  13
M  ISO  8  30  13  31  14  32  14  33  13  34  13  35  13  36  13  37  13
M  ISO  4  38  13  39  13  40  13  41  13
M  END
>  <minimizedAffinity>  (1) 
-5.57268047

>  <minimizedRMSD>  (1) 
0.997119486

$$$$
