
     RDKit          3D

 24 25  0  0  0  0  0  0  0  0999 V2000
   45.0690   35.2560   44.4160 C   0  0  0  0  0  0  0  0  0  0  0  0
   46.0630   34.6960   43.5650 C   0  0  0  0  0  0  0  0  0  0  0  0
   46.7840   33.6150   44.0880 C   0  0  0  0  0  0  0  0  0  0  0  0
   46.5140   33.1690   45.3310 N   0  0  0  0  0  0  0  0  0  0  0  0
   45.5600   33.7350   46.1000 C   0  0  0  0  0  0  0  0  0  0  0  0
   44.8430   34.7660   45.6540 N   0  0  0  0  0  0  0  0  0  0  0  0
   46.2490   35.2930   42.2180 C   0  0  0  0  0  0  0  0  0  0  0  0
   45.5330   34.4660   41.1750 C   0  0  0  0  0  0  0  0  0  0  0  0
   46.5980   33.6870   40.4420 C   0  0  0  0  0  0  0  0  0  0  0  0
   47.9340   34.3000   40.7870 C   0  0  0  0  0  0  0  0  0  0  0  0
   47.7000   35.3200   41.8750 C   0  0  0  0  0  0  0  0  0  0  0  0
   44.3480   36.3130   43.9350 O   0  0  0  0  0  0  0  0  0  0  0  0
   47.5679   33.1317   43.4864 H   0  0  0  0  0  0  0  0  0  0  0  0
   45.3717   33.3397   47.1091 H   0  0  0  0  0  0  0  0  0  0  0  0
   45.8390   36.3136   42.2323 H   0  0  0  0  0  0  0  0  0  0  0  0
   44.8228   33.7781   41.6571 H   0  0  0  0  0  0  0  0  0  0  0  0
   44.9604   35.1037   40.4854 H   0  0  0  0  0  0  0  0  0  0  0  0
   46.4268   33.7478   39.3571 H   0  0  0  0  0  0  0  0  0  0  0  0
   46.5724   32.6276   40.7370 H   0  0  0  0  0  0  0  0  0  0  0  0
   48.6231   33.5209   41.1450 H   0  0  0  0  0  0  0  0  0  0  0  0
   48.3817   34.7750   39.9016 H   0  0  0  0  0  0  0  0  0  0  0  0
   48.2993   35.0660   42.7617 H   0  0  0  0  0  0  0  0  0  0  0  0
   47.9962   36.3226   41.5330 H   0  0  0  0  0  0  0  0  0  0  0  0
   44.5259   36.6605   43.0252 H   0  0  0  0  0  0  0  0  0  0  0  0
  1  6  2  0
  2  3  2  0
  2  1  1  0
  3  4  1  0
  4  5  2  0
  6  5  1  0
  7  2  1  0
  8  7  1  0
  9 10  1  0
  9  8  1  0
 10 11  1  0
 11  7  1  0
 12  1  1  0
  3 13  1  0
  5 14  1  0
  7 15  1  0
  8 16  1  0
  8 17  1  0
  9 18  1  0
  9 19  1  0
 10 20  1  0
 10 21  1  0
 11 22  1  0
 11 23  1  0
 12 24  1  0
M  ISO  8  13  14  14  14  15  13  16  13  17  13  18  13  19  13  20  13
M  ISO  4  21  13  22  13  23  13  24   3
M  END
>  <minimizedAffinity>  (1) 
-4.51276827

>  <minimizedRMSD>  (1) 
1.525545

$$$$
