
     RDKit          3D

 30 32  0  0  0  0  0  0  0  0999 V2000
   45.9080   34.4100   42.7550 C   0  0  0  0  0  0  0  0  0  0  0  0
   47.2590   34.0480   42.8520 C   0  0  0  0  0  0  0  0  0  0  0  0
   47.6780   33.4710   44.0500 C   0  0  0  0  0  0  0  0  0  0  0  0
   46.7520   33.2930   45.0570 N   0  0  0  0  0  0  0  0  0  0  0  0
   45.4580   33.6610   44.9170 C   0  0  0  0  0  0  0  0  0  0  0  0
   45.0430   34.2270   43.7450 N   0  0  0  0  0  0  0  0  0  0  0  0
   48.2530   34.3480   41.7860 C   0  0  0  0  0  0  0  0  0  0  0  0
   48.7280   35.6700   41.5370 C   0  0  0  0  0  0  0  0  0  0  0  0
   49.6840   34.7590   42.2390 C   0  0  0  0  0  0  0  0  0  0  0  0
   45.1850   34.9020   41.5800 C   0  0  0  0  0  0  0  0  0  0  0  0
   44.7920   33.6840   40.6730 C   0  0  0  0  0  0  0  0  0  0  0  0
   43.5730   34.2170   39.9420 C   0  0  0  0  0  0  0  0  0  0  0  0
   43.1090   35.4500   40.6650 C   0  0  0  0  0  0  0  0  0  0  0  0
   43.8320   35.3610   41.9800 C   0  0  0  0  0  0  0  0  0  0  0  0
   48.7251   33.1641   44.1894 H   0  0  0  0  0  0  0  0  0  0  0  0
   44.7454   33.5057   45.7404 H   0  0  0  0  0  0  0  0  0  0  0  0
   47.7999   33.5813   41.1404 H   0  0  0  0  0  0  0  0  0  0  0  0
   48.9407   35.9791   40.5030 H   0  0  0  0  0  0  0  0  0  0  0  0
   48.3305   36.6683   41.7726 H   0  0  0  0  0  0  0  0  0  0  0  0
   49.9162   34.9020   43.3046 H   0  0  0  0  0  0  0  0  0  0  0  0
   50.7106   34.3971   42.0803 H   0  0  0  0  0  0  0  0  0  0  0  0
   45.8216   35.6663   41.1102 H   0  0  0  0  0  0  0  0  0  0  0  0
   45.6002   33.4309   39.9711 H   0  0  0  0  0  0  0  0  0  0  0  0
   44.6035   32.7561   41.2328 H   0  0  0  0  0  0  0  0  0  0  0  0
   42.7751   33.4598   39.9427 H   0  0  0  0  0  0  0  0  0  0  0  0
   43.8236   34.4544   38.8976 H   0  0  0  0  0  0  0  0  0  0  0  0
   43.3941   36.3605   40.1176 H   0  0  0  0  0  0  0  0  0  0  0  0
   42.0157   35.5042   40.7734 H   0  0  0  0  0  0  0  0  0  0  0  0
   43.3488   34.6342   42.6496 H   0  0  0  0  0  0  0  0  0  0  0  0
   43.8406   36.3092   42.5376 H   0  0  0  0  0  0  0  0  0  0  0  0
  1  2  1  0
  1  6  2  0
  2  3  2  0
  3  4  1  0
  5  4  2  0
  6  5  1  0
  7  9  1  0
  7  2  1  0
  8  7  1  0
  8  9  1  0
 10 14  1  0
 10  1  1  0
 11 10  1  0
 12 13  1  0
 12 11  1  0
 13 14  1  0
  3 15  1  0
  5 16  1  0
  7 17  1  0
  8 18  1  0
  8 19  1  0
  9 20  1  0
  9 21  1  0
 10 22  1  0
 11 23  1  0
 11 24  1  0
 12 25  1  0
 12 26  1  0
 13 27  1  0
 13 28  1  0
 14 29  1  0
 14 30  1  0
M  ISO  8  15  14  16  14  17  13  18  13  19  13  20  13  21  13  22  13
M  ISO  8  23  13  24  13  25  13  26  13  27  13  28  13  29  13  30  13
M  END
>  <minimizedAffinity>  (1) 
-4.40218878

>  <minimizedRMSD>  (1) 
1.70023155

$$$$
