
     RDKit          3D

 26 27  0  0  0  0  0  0  0  0999 V2000
   45.1830   34.3320   45.6800 C   0  0  0  0  0  0  0  0  0  0  0  0
   45.3860   34.8300   44.3970 C   0  0  0  0  0  0  0  0  0  0  0  0
   46.3750   34.2530   43.6150 C   0  0  0  0  0  0  0  0  0  0  0  0
   47.0970   33.2340   44.1300 N   0  0  0  0  0  0  0  0  0  0  0  0
   46.8700   32.7730   45.3910 C   0  0  0  0  0  0  0  0  0  0  0  0
   45.9150   33.3100   46.1820 N   0  0  0  0  0  0  0  0  0  0  0  0
   46.5600   34.8120   42.2550 C   0  0  0  0  0  0  0  0  0  0  0  0
   46.5790   33.6340   41.3070 C   0  0  0  0  0  0  0  0  0  0  0  0
   47.3160   34.2170   40.1180 C   0  0  0  0  0  0  0  0  0  0  0  0
   48.5320   34.8000   40.8230 C   0  0  0  0  0  0  0  0  0  0  0  0
   47.9660   35.3950   42.0960 C   0  0  0  0  0  0  0  0  0  0  0  0
   44.5050   35.9440   44.0020 C   0  0  0  0  0  0  0  0  0  0  0  0
   44.4011   34.7841   46.3079 H   0  0  0  0  0  0  0  0  0  0  0  0
   47.4797   31.9421   45.7757 H   0  0  0  0  0  0  0  0  0  0  0  0
   45.7778   35.5639   42.0737 H   0  0  0  0  0  0  0  0  0  0  0  0
   47.1224   32.7800   41.7376 H   0  0  0  0  0  0  0  0  0  0  0  0
   45.5825   33.2352   41.0662 H   0  0  0  0  0  0  0  0  0  0  0  0
   46.7250   34.9949   39.6124 H   0  0  0  0  0  0  0  0  0  0  0  0
   47.5443   33.4993   39.3163 H   0  0  0  0  0  0  0  0  0  0  0  0
   49.2661   34.0134   41.0516 H   0  0  0  0  0  0  0  0  0  0  0  0
   49.0632   35.5416   40.2083 H   0  0  0  0  0  0  0  0  0  0  0  0
   48.5925   35.1186   42.9569 H   0  0  0  0  0  0  0  0  0  0  0  0
   47.9399   36.4936   42.0465 H   0  0  0  0  0  0  0  0  0  0  0  0
   44.1135   36.4390   44.9029 H   0  0  0  0  0  0  0  0  0  0  0  0
   45.0765   36.6692   43.4042 H   0  0  0  0  0  0  0  0  0  0  0  0
   43.6676   35.5550   43.4042 H   0  0  0  0  0  0  0  0  0  0  0  0
  1  6  2  0
  2  1  1  0
  3  4  1  0
  3  2  2  0
  4  5  2  0
  5  6  1  0
  7  3  1  0
  8  7  1  0
  9 10  1  0
  9  8  1  0
 10 11  1  0
 11  7  1  0
 12  2  1  0
  1 13  1  0
  5 14  1  0
  7 15  1  0
  8 16  1  0
  8 17  1  0
  9 18  1  0
  9 19  1  0
 10 20  1  0
 10 21  1  0
 11 22  1  0
 11 23  1  0
 12 24  1  0
 12 25  1  0
 12 26  1  0
M  ISO  8  13  14  14  14  15  13  16  13  17  13  18  13  19  13  20  13
M  ISO  6  21  13  22  13  23  13  24   8  25   8  26   8
M  END
>  <minimizedAffinity>  (1) 
-4.3078599

>  <minimizedRMSD>  (1) 
2.27566481

$$$$
