
     RDKit          3D

 36 38  0  0  1  0  0  0  0  0999 V2000
   47.0510   34.2370   41.4780 N   0  0  0  0  0  0  0  0  0  0  0  0
   47.2810   34.1900   40.0610 C   0  0  0  0  0  0  0  0  0  0  0  0
   48.4650   35.0910   39.9330 C   0  0  0  0  0  0  0  0  0  0  0  0
   48.9000   35.5320   41.2950 C   0  0  0  0  0  0  0  0  0  0  0  0
   48.1350   34.6260   42.2650 C   0  0  2  0  0  0  0  0  0  0  0  0
   49.0570   33.5610   42.7890 C   0  0  0  0  0  0  0  0  0  0  0  0
   50.4820   33.6850   42.3010 C   0  0  0  0  0  0  0  0  0  0  0  0
   51.1400   32.3610   42.3630 C   0  0  0  0  0  0  0  0  0  0  0  0
   50.0330   31.3840   42.6160 C   0  0  0  0  0  0  0  0  0  0  0  0
   48.7380   32.1590   42.3270 C   0  0  0  0  0  0  0  0  0  0  0  0
   45.7610   33.9970   41.8730 C   0  0  0  0  0  0  0  0  0  0  0  0
   44.4590   36.0790   44.7520 C   0  0  0  0  0  0  0  0  0  0  0  0
   44.8020   35.7710   43.4220 C   0  0  0  0  0  0  0  0  0  0  0  0
   45.3820   34.5560   43.1730 C   0  0  0  0  0  0  0  0  0  0  0  0
   45.5890   33.7390   44.2120 N   0  0  0  0  0  0  0  0  0  0  0  0
   45.2510   34.0430   45.5150 C   0  0  0  0  0  0  0  0  0  0  0  0
   44.6810   35.2290   45.7600 N   0  0  0  0  0  0  0  0  0  0  0  0
   46.7336   33.6397   39.2816 H   0  0  0  0  0  0  0  0  0  0  0  0
   48.9423   35.3843   38.9863 H   0  0  0  0  0  0  0  0  0  0  0  0
   49.9853   35.4001   41.4164 H   0  0  0  0  0  0  0  0  0  0  0  0
   48.6918   36.5976   41.4717 H   0  0  0  0  0  0  0  0  0  0  0  0
   47.7639   35.0639   43.2033 H   0  0  0  0  0  0  0  0  0  0  0  0
   48.9262   33.7133   43.8705 H   0  0  0  0  0  0  0  0  0  0  0  0
   51.0276   34.3962   42.9386 H   0  0  0  0  0  0  0  0  0  0  0  0
   50.4844   34.0481   41.2627 H   0  0  0  0  0  0  0  0  0  0  0  0
   51.6436   32.1355   41.4114 H   0  0  0  0  0  0  0  0  0  0  0  0
   51.9108   32.3211   43.1468 H   0  0  0  0  0  0  0  0  0  0  0  0
   50.1221   30.5176   41.9442 H   0  0  0  0  0  0  0  0  0  0  0  0
   50.0572   30.9923   43.6436 H   0  0  0  0  0  0  0  0  0  0  0  0
   48.5014   32.1430   41.2529 H   0  0  0  0  0  0  0  0  0  0  0  0
   47.8598   31.7304   42.8321 H   0  0  0  0  0  0  0  0  0  0  0  0
   45.0896   34.4230   41.1129 H   0  0  0  0  0  0  0  0  0  0  0  0
   45.6773   32.9053   41.9793 H   0  0  0  0  0  0  0  0  0  0  0  0
   43.9928   37.0513   44.9693 H   0  0  0  0  0  0  0  0  0  0  0  0
   44.6099   36.4848   42.6074 H   0  0  0  0  0  0  0  0  0  0  0  0
   45.4447   33.3301   46.3300 H   0  0  0  0  0  0  0  0  0  0  0  0
  1 11  1  0
  1  5  1  0
  2  1  1  0
  3  2  2  0
  3  4  1  0
  4  5  1  0
  5  6  1  0
  7  8  1  0
  7  6  1  0
  8  9  1  0
 10  9  1  0
 10  6  1  0
 11 14  1  0
 12 17  2  0
 13 12  1  0
 14 13  2  0
 14 15  1  0
 15 16  2  0
 16 17  1  0
  2 18  1  0
  3 19  1  0
  4 20  1  0
  4 21  1  0
  5 22  1  1
  6 23  1  0
  7 24  1  0
  7 25  1  0
  8 26  1  0
  8 27  1  0
  9 28  1  0
  9 29  1  0
 10 30  1  0
 10 31  1  0
 11 32  1  0
 11 33  1  0
 12 34  1  0
 13 35  1  0
 16 36  1  0
M  ISO  8  18  13  19  13  20  13  21  13  22  13  23  13  24  13  25  13
M  ISO  8  26  13  27  13  28  13  29  13  30  13  31  13  32   8  33   8
M  ISO  3  34  14  35  14  36  14
M  END
>  <minimizedAffinity>  (1) 
-5.11161518

>  <minimizedRMSD>  (1) 
1.15623939

$$$$
