
     RDKit          3D

 39 41  0  0  0  0  0  0  0  0999 V2000
   46.8460   34.6670   42.8670 C   0  0  0  0  0  0  0  0  0  0  0  0
   47.9460   34.1940   42.1370 C   0  0  0  0  0  0  0  0  0  0  0  0
   48.5900   33.0450   42.6220 C   0  0  0  0  0  0  0  0  0  0  0  0
   48.1000   32.4760   43.7590 N   0  0  0  0  0  0  0  0  0  0  0  0
   47.0520   32.9540   44.4250 C   0  0  0  0  0  0  0  0  0  0  0  0
   46.4260   34.0510   43.9760 N   0  0  0  0  0  0  0  0  0  0  0  0
   45.5970   30.3090   43.9930 Cl  0  0  0  0  0  0  0  0  0  0  0  0
   45.9120   31.0890   45.5440 C   0  0  0  0  0  0  0  0  0  0  0  0
   46.5810   32.2920   45.6400 C   0  0  0  0  0  0  0  0  0  0  0  0
   46.8110   32.8760   46.8670 C   0  0  0  0  0  0  0  0  0  0  0  0
   46.3690   32.2560   48.0240 C   0  0  0  0  0  0  0  0  0  0  0  0
   45.7070   31.0620   47.8870 C   0  0  0  0  0  0  0  0  0  0  0  0
   45.1490   30.2800   49.3530 Cl  0  0  0  0  0  0  0  0  0  0  0  0
   45.4610   30.4530   46.6880 C   0  0  0  0  0  0  0  0  0  0  0  0
   48.3820   34.8840   40.9320 C   0  0  0  0  0  0  0  0  0  0  0  0
   47.5430   34.3620   39.7690 C   0  0  0  0  0  0  0  0  0  0  0  0
   48.4930   33.9880   38.6660 C   0  0  0  0  0  0  0  0  0  0  0  0
   48.8740   32.5230   38.6730 C   0  0  0  0  0  0  0  0  0  0  0  0
   49.5810   32.4180   37.3150 C   0  0  0  0  0  0  0  0  0  0  0  0
   48.6750   33.2000   36.4150 C   0  0  0  0  0  0  0  0  0  0  0  0
   47.8770   34.1370   37.2950 C   0  0  0  0  0  0  0  0  0  0  0  0
   46.3165   35.5661   42.5186 H   0  0  0  0  0  0  0  0  0  0  0  0
   49.4605   32.6185   42.1020 H   0  0  0  0  0  0  0  0  0  0  0  0
   47.3460   33.8352   46.9275 H   0  0  0  0  0  0  0  0  0  0  0  0
   46.5419   32.7033   49.0140 H   0  0  0  0  0  0  0  0  0  0  0  0
   44.9250   29.4939   46.6343 H   0  0  0  0  0  0  0  0  0  0  0  0
   48.2316   35.9677   41.0457 H   0  0  0  0  0  0  0  0  0  0  0  0
   49.4510   34.7007   40.7486 H   0  0  0  0  0  0  0  0  0  0  0  0
   46.9678   33.4796   40.0859 H   0  0  0  0  0  0  0  0  0  0  0  0
   46.8312   35.1279   39.4273 H   0  0  0  0  0  0  0  0  0  0  0  0
   49.3454   34.6588   38.8490 H   0  0  0  0  0  0  0  0  0  0  0  0
   49.5524   32.2827   39.5049 H   0  0  0  0  0  0  0  0  0  0  0  0
   48.0318   31.8285   38.8089 H   0  0  0  0  0  0  0  0  0  0  0  0
   50.5851   32.8656   37.3542 H   0  0  0  0  0  0  0  0  0  0  0  0
   49.7399   31.3814   36.9830 H   0  0  0  0  0  0  0  0  0  0  0  0
   47.9986   32.5198   35.8766 H   0  0  0  0  0  0  0  0  0  0  0  0
   49.2543   33.7620   35.6676 H   0  0  0  0  0  0  0  0  0  0  0  0
   47.9664   35.1742   36.9396 H   0  0  0  0  0  0  0  0  0  0  0  0
   46.8030   33.8994   37.2918 H   0  0  0  0  0  0  0  0  0  0  0  0
  1  6  2  0
  2  3  2  0
  2  1  1  0
  3  4  1  0
  4  5  2  0
  5  9  1  0
  6  5  1  0
  7  8  1  0
  8  9  2  0
  8 14  1  0
  9 10  1  0
 10 11  2  0
 12 11  1  0
 12 13  1  0
 14 12  2  0
 15  2  1  0
 16 15  1  0
 17 18  1  0
 17 16  1  0
 19 18  1  0
 20 21  1  0
 20 19  1  0
 21 17  1  0
  1 22  1  0
  3 23  1  0
 10 24  1  0
 11 25  1  0
 14 26  1  0
 15 27  1  0
 15 28  1  0
 16 29  1  0
 16 30  1  0
 17 31  1  0
 18 32  1  0
 18 33  1  0
 19 34  1  0
 19 35  1  0
 20 36  1  0
 20 37  1  0
 21 38  1  0
 21 39  1  0
M  ISO  8  22  14  23  14  24  14  25  14  26  14  27   8  28   8  29   8
M  ISO  8  30   8  31  13  32  13  33  13  34  13  35  13  36  13  37  13
M  ISO  2  38  13  39  13
M  END
>  <minimizedAffinity>  (1) 
-4.96192837

>  <minimizedRMSD>  (1) 
1.21666646

$$$$
