
     RDKit          3D

 44 47  0  0  1  0  0  0  0  0999 V2000
   47.2440   31.2240   46.6600 C   0  0  0  0  0  0  0  0  0  0  0  0
   46.7530   31.6260   48.0300 C   0  0  1  0  0  0  0  0  0  0  0  0
   46.2330   30.5390   48.9000 C   0  0  0  0  0  0  0  0  0  0  0  0
   47.4890   31.1820   49.2390 C   0  0  1  0  0  0  0  0  0  0  0  0
   48.8210   30.5690   49.0440 C   0  0  0  0  0  0  0  0  0  0  0  0
   49.6070   30.2950   50.3560 C   0  0  0  0  0  0  0  0  0  0  0  0
   50.0360   31.4050   49.4890 C   0  0  0  0  0  0  0  0  0  0  0  0
   46.0040   33.1330   46.0110 C   0  0  0  0  0  0  0  0  0  0  0  0
   46.9130   32.3120   45.6520 C   0  0  0  0  0  0  0  0  0  0  0  0
   44.4230   36.1290   44.5620 C   0  0  0  0  0  0  0  0  0  0  0  0
   44.9810   36.2040   43.2910 C   0  0  0  0  0  0  0  0  0  0  0  0
   45.8960   35.2210   42.9550 C   0  0  0  0  0  0  0  0  0  0  0  0
   46.1650   34.2900   43.8710 N   0  0  0  0  0  0  0  0  0  0  0  0
   45.6370   34.2120   45.0840 C   0  0  0  0  0  0  0  0  0  0  0  0
   44.7620   35.1520   45.4100 N   0  0  0  0  0  0  0  0  0  0  0  0
   46.6070   35.1050   41.6670 C   0  0  0  0  0  0  0  0  0  0  0  0
   46.5450   33.7450   41.0410 C   0  0  0  0  0  0  0  0  0  0  0  0
   47.6210   33.8510   39.9540 C   0  0  0  0  0  0  0  0  0  0  0  0
   48.5590   34.9550   40.3990 C   0  0  0  0  0  0  0  0  0  0  0  0
   48.0960   35.3220   41.8070 C   0  0  0  0  0  0  0  0  0  0  0  0
   48.3335   31.0757   46.6920 H   0  0  0  0  0  0  0  0  0  0  0  0
   46.7501   30.2885   46.3584 H   0  0  0  0  0  0  0  0  0  0  0  0
   46.3991   32.5995   47.6599 H   0  0  0  0  0  0  0  0  0  0  0  0
   45.3426   30.7132   49.5219 H   0  0  0  0  0  0  0  0  0  0  0  0
   45.9162   29.4989   48.7333 H   0  0  0  0  0  0  0  0  0  0  0  0
   47.8553   31.6254   50.1767 H   0  0  0  0  0  0  0  0  0  0  0  0
   48.5391   30.0106   48.1392 H   0  0  0  0  0  0  0  0  0  0  0  0
   49.1397   30.5098   51.3284 H   0  0  0  0  0  0  0  0  0  0  0  0
   50.1071   29.4145   50.7857 H   0  0  0  0  0  0  0  0  0  0  0  0
   50.9826   31.3276   48.9340 H   0  0  0  0  0  0  0  0  0  0  0  0
   50.2086   32.4794   49.6498 H   0  0  0  0  0  0  0  0  0  0  0  0
   45.5087   33.0352   46.9883 H   0  0  0  0  0  0  0  0  0  0  0  0
   47.4219   32.3869   44.6797 H   0  0  0  0  0  0  0  0  0  0  0  0
   43.6897   36.8866   44.8758 H   0  0  0  0  0  0  0  0  0  0  0  0
   44.7090   37.0045   42.5873 H   0  0  0  0  0  0  0  0  0  0  0  0
   46.0943   35.8653   41.0595 H   0  0  0  0  0  0  0  0  0  0  0  0
   46.7877   32.9573   41.7694 H   0  0  0  0  0  0  0  0  0  0  0  0
   45.5496   33.4758   40.6579 H   0  0  0  0  0  0  0  0  0  0  0  0
   47.1631   34.1056   38.9868 H   0  0  0  0  0  0  0  0  0  0  0  0
   48.1548   32.8983   39.8221 H   0  0  0  0  0  0  0  0  0  0  0  0
   49.5987   34.5961   40.4150 H   0  0  0  0  0  0  0  0  0  0  0  0
   48.5346   35.8181   39.7175 H   0  0  0  0  0  0  0  0  0  0  0  0
   48.3335   36.3673   42.0539 H   0  0  0  0  0  0  0  0  0  0  0  0
   48.5716   34.7442   42.6132 H   0  0  0  0  0  0  0  0  0  0  0  0
  1  2  1  0
  2  3  1  0
  2  4  1  0
  3  4  1  0
  5  4  1  0
  5  7  1  0
  5  6  1  0
  7  6  1  0
  9  8  2  0
  9  1  1  0
 10 15  2  0
 11 10  1  0
 12 11  2  0
 12 13  1  0
 13 14  2  0
 14 15  1  0
 14  8  1  0
 16 20  1  0
 16 12  1  0
 17 16  1  0
 18 19  1  0
 18 17  1  0
 19 20  1  0
  1 21  1  0
  1 22  1  0
  2 23  1  6
  3 24  1  0
  3 25  1  0
  4 26  1  1
  5 27  1  0
  6 28  1  0
  6 29  1  0
  7 30  1  0
  7 31  1  0
  8 32  1  0
  9 33  1  0
 10 34  1  0
 11 35  1  0
 16 36  1  0
 17 37  1  0
 17 38  1  0
 18 39  1  0
 18 40  1  0
 19 41  1  0
 19 42  1  0
 20 43  1  0
 20 44  1  0
M  ISO  8  21   8  22   8  23  13  24  13  25  13  26  13  27  13  28  13
M  ISO  8  29  13  30  13  31  13  34  14  35  14  36  13  37  13  38  13
M  ISO  6  39  13  40  13  41  13  42  13  43  13  44  13
M  END
>  <minimizedAffinity>  (1) 
-5.86671925

>  <minimizedRMSD>  (1) 
0.465701133

$$$$
