
     RDKit          3D

 37 40  0  0  0  0  0  0  0  0999 V2000
   41.5110   35.2220   41.9130 C   0  0  0  0  0  0  0  0  0  0  0  0
   42.6620   35.2840   41.1220 C   0  0  0  0  0  0  0  0  0  0  0  0
   42.5740   35.1810   39.7510 C   0  0  0  0  0  0  0  0  0  0  0  0
   41.3630   35.0160   39.1310 C   0  0  0  0  0  0  0  0  0  0  0  0
   40.1980   34.9510   39.9100 C   0  0  0  0  0  0  0  0  0  0  0  0
   40.2810   35.0550   41.2900 C   0  0  0  0  0  0  0  0  0  0  0  0
   39.0920   34.7800   39.0510 O   0  0  0  0  0  0  0  0  0  0  0  0
   39.6520   34.4100   37.8000 C   0  0  0  0  0  0  0  0  0  0  0  0
   40.9750   34.8840   37.7850 O   0  0  0  0  0  0  0  0  0  0  0  0
   44.2140   35.5020   41.9940 S   0  0  0  0  0  0  0  0  0  0  0  0
   45.3680   34.1870   41.4860 C   0  0  0  0  0  0  0  0  0  0  0  0
   45.0890   32.9390   42.0690 C   0  0  0  0  0  0  0  0  0  0  0  0
   45.9520   31.8780   41.7130 C   0  0  0  0  0  0  0  0  0  0  0  0
   46.9590   32.1160   40.8610 N   0  0  0  0  0  0  0  0  0  0  0  0
   47.1870   33.3340   40.3260 C   0  0  0  0  0  0  0  0  0  0  0  0
   46.3890   34.3520   40.6450 N   0  0  0  0  0  0  0  0  0  0  0  0
   48.3160   33.5310   39.3930 C   0  0  0  0  0  0  0  0  0  0  0  0
   48.9800   32.2100   39.0310 C   0  0  0  0  0  0  0  0  0  0  0  0
   49.4810   32.3740   37.6190 C   0  0  0  0  0  0  0  0  0  0  0  0
   48.8870   33.6420   37.0840 C   0  0  0  0  0  0  0  0  0  0  0  0
   47.8490   34.1000   38.0870 C   0  0  0  0  0  0  0  0  0  0  0  0
   41.5782   35.3039   43.0079 H   0  0  0  0  0  0  0  0  0  0  0  0
   43.4902   35.2320   39.1444 H   0  0  0  0  0  0  0  0  0  0  0  0
   39.3648   35.0048   41.8967 H   0  0  0  0  0  0  0  0  0  0  0  0
   39.6417   33.3155   37.6905 H   0  0  0  0  0  0  0  0  0  0  0  0
   39.0725   34.8381   36.9688 H   0  0  0  0  0  0  0  0  0  0  0  0
   44.2472   32.7962   42.7626 H   0  0  0  0  0  0  0  0  0  0  0  0
   45.7995   30.8712   42.1292 H   0  0  0  0  0  0  0  0  0  0  0  0
   49.0112   34.2070   39.9124 H   0  0  0  0  0  0  0  0  0  0  0  0
   49.8180   32.0032   39.7129 H   0  0  0  0  0  0  0  0  0  0  0  0
   48.2774   31.3678   39.1154 H   0  0  0  0  0  0  0  0  0  0  0  0
   50.5790   32.4403   37.6137 H   0  0  0  0  0  0  0  0  0  0  0  0
   49.1902   31.5136   36.9984 H   0  0  0  0  0  0  0  0  0  0  0  0
   49.6686   34.4079   36.9722 H   0  0  0  0  0  0  0  0  0  0  0  0
   48.4332   33.4774   36.0956 H   0  0  0  0  0  0  0  0  0  0  0  0
   47.8099   35.1984   38.1327 H   0  0  0  0  0  0  0  0  0  0  0  0
   46.8347   33.7661   37.8229 H   0  0  0  0  0  0  0  0  0  0  0  0
  2  1  2  0
  2 10  1  0
  3  2  1  0
  4  3  2  0
  4  5  1  0
  5  6  2  0
  6  1  1  0
  7  5  1  0
  8  7  1  0
  9  8  1  0
  9  4  1  0
 11 10  1  0
 11 12  2  0
 13 12  1  0
 14 13  2  0
 15 16  2  0
 15 14  1  0
 16 11  1  0
 17 15  1  0
 18 17  1  0
 19 18  1  0
 20 19  1  0
 20 21  1  0
 21 17  1  0
  1 22  1  0
  3 23  1  0
  6 24  1  0
  8 25  1  0
  8 26  1  0
 12 27  1  0
 13 28  1  0
 17 29  1  0
 18 30  1  0
 18 31  1  0
 19 32  1  0
 19 33  1  0
 20 34  1  0
 20 35  1  0
 21 36  1  0
 21 37  1  0
M  ISO  8  22  14  23  14  24  14  25  13  26  13  27  14  28  14  29  13
M  ISO  8  30  13  31  13  32  13  33  13  34  13  35  13  36  13  37  13
M  END
>  <minimizedAffinity>  (1) 
-4.99747419

>  <minimizedRMSD>  (1) 
5.59443951

$$$$
