
     RDKit          3D

 26 27  0  0  0  0  0  0  0  0999 V2000
   44.7680   36.1640   44.0880 C   0  0  0  0  0  0  0  0  0  0  0  0
   45.2540   35.6610   42.8560 C   0  0  0  0  0  0  0  0  0  0  0  0
   45.7540   34.3580   42.8610 C   0  0  0  0  0  0  0  0  0  0  0  0
   45.7520   33.6420   44.0320 N   0  0  0  0  0  0  0  0  0  0  0  0
   45.2710   34.1860   45.1790 C   0  0  0  0  0  0  0  0  0  0  0  0
   44.7860   35.4290   45.2080 N   0  0  0  0  0  0  0  0  0  0  0  0
   46.2580   33.8250   41.5970 C   0  0  0  0  0  0  0  0  0  0  0  0
   47.7640   33.9770   41.6230 C   0  0  0  0  0  0  0  0  0  0  0  0
   48.2140   35.0950   40.7170 C   0  0  0  0  0  0  0  0  0  0  0  0
   49.1790   35.9490   41.5210 C   0  0  0  0  0  0  0  0  0  0  0  0
   49.6480   34.9440   42.5830 C   0  0  0  0  0  0  0  0  0  0  0  0
   48.2850   34.3870   42.9640 C   0  0  0  0  0  0  0  0  0  0  0  0
   44.3646   37.1866   44.1261 H   0  0  0  0  0  0  0  0  0  0  0  0
   45.2380   36.2685   41.9391 H   0  0  0  0  0  0  0  0  0  0  0  0
   45.2812   33.5900   46.1035 H   0  0  0  0  0  0  0  0  0  0  0  0
   45.8356   34.3903   40.7532 H   0  0  0  0  0  0  0  0  0  0  0  0
   45.9715   32.7702   41.4731 H   0  0  0  0  0  0  0  0  0  0  0  0
   48.1401   32.9880   41.3222 H   0  0  0  0  0  0  0  0  0  0  0  0
   47.3495   35.6967   40.3998 H   0  0  0  0  0  0  0  0  0  0  0  0
   48.6970   34.6994   39.8114 H   0  0  0  0  0  0  0  0  0  0  0  0
   50.0168   36.3028   40.9022 H   0  0  0  0  0  0  0  0  0  0  0  0
   48.7358   36.8680   41.9320 H   0  0  0  0  0  0  0  0  0  0  0  0
   50.3106   34.1729   42.1631 H   0  0  0  0  0  0  0  0  0  0  0  0
   50.2481   35.3573   43.4071 H   0  0  0  0  0  0  0  0  0  0  0  0
   47.6490   35.1555   43.4276 H   0  0  0  0  0  0  0  0  0  0  0  0
   48.3161   33.5768   43.7073 H   0  0  0  0  0  0  0  0  0  0  0  0
  1  6  2  0
  2  3  2  0
  2  1  1  0
  3  4  1  0
  4  5  2  0
  5  6  1  0
  7  8  1  0
  7  3  1  0
  8 12  1  0
  9 10  1  0
  9  8  1  0
 10 11  1  0
 11 12  1  0
  1 13  1  0
  2 14  1  0
  5 15  1  0
  7 16  1  0
  7 17  1  0
  8 18  1  0
  9 19  1  0
  9 20  1  0
 10 21  1  0
 10 22  1  0
 11 23  1  0
 11 24  1  0
 12 25  1  0
 12 26  1  0
M  ISO  8  13  14  14  14  15  14  16   8  17   8  18  13  19  13  20  13
M  ISO  6  21  13  22  13  23  13  24  13  25  13  26  13
M  END
>  <minimizedAffinity>  (1) 
-4.67860699

>  <minimizedRMSD>  (1) 
1.72082925

$$$$
