
     RDKit          3D

 33 35  0  0  1  0  0  0  0  0999 V2000
   47.0260   33.9800   42.4520 C   0  0  0  0  0  0  0  0  0  0  0  0
   46.1690   34.4090   43.5900 C   0  0  0  0  0  0  0  0  0  0  0  0
   45.4570   35.5640   43.3640 C   0  0  0  0  0  0  0  0  0  0  0  0
   44.6180   36.0800   44.3630 C   0  0  0  0  0  0  0  0  0  0  0  0
   44.5660   35.3750   45.5310 N   0  0  0  0  0  0  0  0  0  0  0  0
   45.2830   34.2370   45.7180 C   0  0  0  0  0  0  0  0  0  0  0  0
   46.0780   33.7540   44.7630 N   0  0  0  0  0  0  0  0  0  0  0  0
   47.7160   35.1300   41.8030 C   0  0  1  0  0  0  0  0  0  0  0  0
   49.2270   34.9490   41.6520 C   0  0  0  0  0  0  0  0  0  0  0  0
   48.3200   34.9520   40.4560 C   0  0  1  0  0  0  0  0  0  0  0  0
   47.9640   33.7050   39.7090 C   0  0  0  0  0  0  0  0  0  0  0  0
   49.0570   32.6580   39.7880 C   0  0  0  0  0  0  0  0  0  0  0  0
   49.1400   32.0920   38.3720 C   0  0  0  0  0  0  0  0  0  0  0  0
   48.9600   33.3360   37.5680 C   0  0  0  0  0  0  0  0  0  0  0  0
   47.8380   34.0610   38.2560 C   0  0  0  0  0  0  0  0  0  0  0  0
   47.7847   33.2764   42.8253 H   0  0  0  0  0  0  0  0  0  0  0  0
   46.3773   33.5070   41.7000 H   0  0  0  0  0  0  0  0  0  0  0  0
   45.5456   36.0838   42.3986 H   0  0  0  0  0  0  0  0  0  0  0  0
   44.0349   37.0007   44.2137 H   0  0  0  0  0  0  0  0  0  0  0  0
   45.2063   33.7030   46.6766 H   0  0  0  0  0  0  0  0  0  0  0  0
   47.0271   35.8772   42.2240 H   0  0  0  0  0  0  0  0  0  0  0  0
   49.9065   35.7948   41.8333 H   0  0  0  0  0  0  0  0  0  0  0  0
   49.9804   34.2616   42.0642 H   0  0  0  0  0  0  0  0  0  0  0  0
   48.3513   35.5139   39.5109 H   0  0  0  0  0  0  0  0  0  0  0  0
   47.0392   33.3039   40.1492 H   0  0  0  0  0  0  0  0  0  0  0  0
   50.0136   33.1147   40.0819 H   0  0  0  0  0  0  0  0  0  0  0  0
   48.8432   31.8829   40.5387 H   0  0  0  0  0  0  0  0  0  0  0  0
   50.1158   31.6222   38.1795 H   0  0  0  0  0  0  0  0  0  0  0  0
   48.4117   31.2971   38.1538 H   0  0  0  0  0  0  0  0  0  0  0  0
   48.6891   33.0936   36.5298 H   0  0  0  0  0  0  0  0  0  0  0  0
   49.8789   33.9381   37.5123 H   0  0  0  0  0  0  0  0  0  0  0  0
   47.9389   35.1474   38.1159 H   0  0  0  0  0  0  0  0  0  0  0  0
   46.8567   33.7759   37.8489 H   0  0  0  0  0  0  0  0  0  0  0  0
  1  2  1  0
  2  7  1  0
  3  2  2  0
  3  4  1  0
  4  5  2  0
  5  6  1  0
  7  6  2  0
  8  1  1  0
  9  8  1  0
 10  9  1  0
 10  8  1  0
 11 12  1  0
 11 10  1  0
 13 12  1  0
 14 15  1  0
 14 13  1  0
 15 11  1  0
  1 16  1  0
  1 17  1  0
  3 18  1  0
  4 19  1  0
  6 20  1  0
  8 21  1  6
  9 22  1  0
  9 23  1  0
 10 24  1  6
 11 25  1  0
 12 26  1  0
 12 27  1  0
 13 28  1  0
 13 29  1  0
 14 30  1  0
 14 31  1  0
 15 32  1  0
 15 33  1  0
M  ISO  8  16   8  17   8  18  14  19  14  20  14  21  13  22  13  23  13
M  ISO  8  24  13  25  13  26  13  27  13  28  13  29  13  30  13  31  13
M  ISO  2  32  13  33  13
M  END
>  <minimizedAffinity>  (1) 
-4.77161312

>  <minimizedRMSD>  (1) 
1.68235302

$$$$
