
     RDKit          3D

 41 44  0  0  0  0  0  0  0  0999 V2000
   45.8980   32.6780   46.6010 C   0  0  0  0  0  0  0  0  0  0  0  0
   45.6330   32.9930   47.9400 C   0  0  0  0  0  0  0  0  0  0  0  0
   46.0570   32.2230   49.0060 C   0  0  0  0  0  0  0  0  0  0  0  0
   46.7730   31.0910   48.7930 C   0  0  0  0  0  0  0  0  0  0  0  0
   47.0560   30.7300   47.4870 C   0  0  0  0  0  0  0  0  0  0  0  0
   47.7900   29.5940   47.3110 C   0  0  0  0  0  0  0  0  0  0  0  0
   48.0930   29.2030   46.0100 C   0  0  0  0  0  0  0  0  0  0  0  0
   47.6410   29.9560   44.9780 C   0  0  0  0  0  0  0  0  0  0  0  0
   46.9120   31.0800   45.2150 C   0  0  0  0  0  0  0  0  0  0  0  0
   46.6080   31.5190   46.4440 C   0  0  0  0  0  0  0  0  0  0  0  0
   44.4740   35.5920   45.0690 C   0  0  0  0  0  0  0  0  0  0  0  0
   45.2500   35.7660   43.8760 C   0  0  0  0  0  0  0  0  0  0  0  0
   46.2710   34.8330   43.5550 C   0  0  0  0  0  0  0  0  0  0  0  0
   46.4260   33.8320   44.4310 N   0  0  0  0  0  0  0  0  0  0  0  0
   45.7250   33.6530   45.5290 C   0  0  0  0  0  0  0  0  0  0  0  0
   44.7340   34.5350   45.8650 N   0  0  0  0  0  0  0  0  0  0  0  0
   44.9080   36.8970   43.0870 N   0  0  0  0  0  0  0  0  0  0  0  0
   46.3500   31.5500   43.9210 C   0  0  0  0  0  0  0  0  0  0  0  0
   46.9910   31.0800   42.6840 C   0  0  0  0  0  0  0  0  0  0  0  0
   45.9220   31.4830   41.6520 C   0  0  0  0  0  0  0  0  0  0  0  0
   44.6730   30.9280   42.3060 C   0  0  0  0  0  0  0  0  0  0  0  0
   45.1460   30.5340   43.6870 C   0  0  0  0  0  0  0  0  0  0  0  0
   45.0552   33.9041   48.1547 H   0  0  0  0  0  0  0  0  0  0  0  0
   45.8124   32.5299   50.0336 H   0  0  0  0  0  0  0  0  0  0  0  0
   47.1198   30.4757   49.6363 H   0  0  0  0  0  0  0  0  0  0  0  0
   48.1330   29.0033   48.1732 H   0  0  0  0  0  0  0  0  0  0  0  0
   48.6894   28.2979   45.8227 H   0  0  0  0  0  0  0  0  0  0  0  0
   47.8647   29.6569   43.9433 H   0  0  0  0  0  0  0  0  0  0  0  0
   43.6808   36.3079   45.3303 H   0  0  0  0  0  0  0  0  0  0  0  0
   46.8907   34.9258   42.6509 H   0  0  0  0  0  0  0  0  0  0  0  0
   45.4201   37.0901   42.2145 H   0  0  0  0  0  0  0  0  0  0  0  0
   44.1479   37.5238   43.3876 H   0  0  0  0  0  0  0  0  0  0  0  0
   46.3002   32.6442   44.0224 H   0  0  0  0  0  0  0  0  0  0  0  0
   47.9473   31.5919   42.5009 H   0  0  0  0  0  0  0  0  0  0  0  0
   47.2571   30.0127   42.6794 H   0  0  0  0  0  0  0  0  0  0  0  0
   46.1079   31.0166   40.6733 H   0  0  0  0  0  0  0  0  0  0  0  0
   45.8820   32.5606   41.4346 H   0  0  0  0  0  0  0  0  0  0  0  0
   43.8853   31.6937   42.3633 H   0  0  0  0  0  0  0  0  0  0  0  0
   44.2324   30.0890   41.7474 H   0  0  0  0  0  0  0  0  0  0  0  0
   44.3532   30.6730   44.4367 H   0  0  0  0  0  0  0  0  0  0  0  0
   45.4327   29.4756   43.7746 H   0  0  0  0  0  0  0  0  0  0  0  0
  1  2  2  0
  2  3  1  0
  4  3  2  0
  5  4  1  0
  6  5  2  0
  7  6  1  0
  8  9  1  0
  8  7  2  0
  9 10  2  0
 10  1  1  0
 10  5  1  0
 11 16  2  0
 12 11  1  0
 13 12  2  0
 13 14  1  0
 14 15  2  0
 15 16  1  0
 15  1  1  0
 17 12  1  0
 18  9  1  0
 19 18  1  0
 20 21  1  0
 20 19  1  0
 21 22  1  0
 22 18  1  0
  2 23  1  0
  3 24  1  0
  4 25  1  0
  6 26  1  0
  7 27  1  0
  8 28  1  0
 11 29  1  0
 13 30  1  0
 17 31  1  0
 17 32  1  0
 18 33  1  0
 19 34  1  0
 19 35  1  0
 20 36  1  0
 20 37  1  0
 21 38  1  0
 21 39  1  0
 22 40  1  0
 22 41  1  0
M  ISO  8  23  14  24  14  25  14  26  14  27  14  28  14  29  14  30  14
M  ISO  8  33  13  34  13  35  13  36  13  37  13  38  13  39  13  40  13
M  ISO  1  41  13
M  END
>  <minimizedAffinity>  (1) 
-5.30598021

>  <minimizedRMSD>  (1) 
0.60366869

$$$$
