
     RDKit          3D

 33 35  0  0  0  0  0  0  0  0999 V2000
   44.5210   35.6200   45.2730 C   0  0  0  0  0  0  0  0  0  0  0  0
   45.1440   35.5760   44.0270 C   0  0  0  0  0  0  0  0  0  0  0  0
   46.0010   34.5540   43.6400 C   0  0  0  0  0  0  0  0  0  0  0  0
   46.2040   33.5680   44.5690 N   0  0  0  0  0  0  0  0  0  0  0  0
   45.5990   33.6110   45.7780 C   0  0  0  0  0  0  0  0  0  0  0  0
   44.7800   34.6120   46.1190 N   0  0  0  0  0  0  0  0  0  0  0  0
   44.4710   33.0340   41.6600 Cl  0  0  0  0  0  0  0  0  0  0  0  0
   46.0060   33.8220   41.3330 C   0  0  0  0  0  0  0  0  0  0  0  0
   46.6480   34.5150   42.3360 C   0  0  0  0  0  0  0  0  0  0  0  0
   47.8610   35.1270   42.0440 C   0  0  0  0  0  0  0  0  0  0  0  0
   48.4100   35.0460   40.7830 C   0  0  0  0  0  0  0  0  0  0  0  0
   47.7200   34.3310   39.7980 C   0  0  0  0  0  0  0  0  0  0  0  0
   48.4130   34.2250   38.2010 Cl  0  0  0  0  0  0  0  0  0  0  0  0
   46.5120   33.7080   40.0520 C   0  0  0  0  0  0  0  0  0  0  0  0
   45.8990   32.4810   46.7070 C   0  0  0  0  0  0  0  0  0  0  0  0
   45.0560   32.5740   47.9680 C   0  0  0  0  0  0  0  0  0  0  0  0
   45.7740   31.7770   49.0120 C   0  0  0  0  0  0  0  0  0  0  0  0
   47.2220   31.8470   48.6160 C   0  0  0  0  0  0  0  0  0  0  0  0
   47.2980   32.5570   47.2810 C   0  0  0  0  0  0  0  0  0  0  0  0
   43.8473   36.4442   45.5500 H   0  0  0  0  0  0  0  0  0  0  0  0
   44.9472   36.3910   43.3150 H   0  0  0  0  0  0  0  0  0  0  0  0
   48.3904   35.6841   42.8310 H   0  0  0  0  0  0  0  0  0  0  0  0
   49.3698   35.5328   40.5556 H   0  0  0  0  0  0  0  0  0  0  0  0
   45.9783   33.1474   39.2704 H   0  0  0  0  0  0  0  0  0  0  0  0
   45.7245   31.5812   46.0988 H   0  0  0  0  0  0  0  0  0  0  0  0
   44.9618   33.6225   48.2869 H   0  0  0  0  0  0  0  0  0  0  0  0
   44.0396   32.1888   47.7992 H   0  0  0  0  0  0  0  0  0  0  0  0
   45.6226   32.2173   50.0086 H   0  0  0  0  0  0  0  0  0  0  0  0
   45.4079   30.7414   49.0701 H   0  0  0  0  0  0  0  0  0  0  0  0
   47.7909   32.4080   49.3721 H   0  0  0  0  0  0  0  0  0  0  0  0
   47.6512   30.8369   48.5412 H   0  0  0  0  0  0  0  0  0  0  0  0
   48.0149   32.0523   46.6166 H   0  0  0  0  0  0  0  0  0  0  0  0
   47.6408   33.5966   47.3887 H   0  0  0  0  0  0  0  0  0  0  0  0
  1  6  2  0
  2  1  1  0
  3  2  2  0
  3  4  1  0
  4  5  2  0
  5  6  1  0
  5 15  1  0
  8  7  1  0
  8  9  2  0
  9  3  1  0
 10  9  1  0
 11 10  2  0
 12 14  2  0
 12 11  1  0
 13 12  1  0
 14  8  1  0
 15 19  1  0
 15 16  1  0
 16 17  1  0
 18 17  1  0
 19 18  1  0
  1 20  1  0
  2 21  1  0
 10 22  1  0
 11 23  1  0
 14 24  1  0
 15 25  1  0
 16 26  1  0
 16 27  1  0
 17 28  1  0
 17 29  1  0
 18 30  1  0
 18 31  1  0
 19 32  1  0
 19 33  1  0
M  ISO  8  20  14  21  14  22  14  23  14  24  14  25  13  26  13  27  13
M  ISO  6  28  13  29  13  30  13  31  13  32  13  33  13
M  END
>  <minimizedAffinity>  (1) 
-6.40284252

>  <minimizedRMSD>  (1) 
0.632069528

$$$$
