
     RDKit          3D

 50 53  0  0  1  0  0  0  0  0999 V2000
   42.8120   34.2930   39.0190 C   0  0  1  0  0  0  0  0  0  0  0  0
   43.0470   35.1720   40.2410 C   0  0  1  0  0  0  0  0  0  0  0  0
   41.8000   35.6600   40.6790 O   0  0  0  0  0  0  0  0  0  0  0  0
   40.9310   35.9370   39.6210 C   0  0  0  0  0  0  0  0  0  0  0  0
   40.4630   34.6740   38.9280 C   0  0  2  0  0  0  0  0  0  0  0  0
   41.5280   33.5680   39.2630 C   0  0  1  0  0  0  0  0  0  0  0  0
   42.7290   35.0680   37.8550 O   0  0  0  0  0  0  0  0  0  0  0  0
   40.5360   34.8390   37.5540 O   0  0  0  0  0  0  0  0  0  0  0  0
   43.4400   34.2900   41.2590 O   0  0  0  0  0  0  0  0  0  0  0  0
   44.6000   34.3590   41.9220 C   0  0  0  0  0  0  0  0  0  0  0  0
   45.8190   34.5010   41.2420 C   0  0  0  0  0  0  0  0  0  0  0  0
   46.9850   34.5680   41.9870 C   0  0  0  0  0  0  0  0  0  0  0  0
   46.9160   34.4970   43.3680 N   0  0  0  0  0  0  0  0  0  0  0  0
   45.7220   34.3600   43.9890 C   0  0  0  0  0  0  0  0  0  0  0  0
   44.5700   34.2920   43.2720 N   0  0  0  0  0  0  0  0  0  0  0  0
   48.3240   34.7080   41.3300 C   0  0  0  0  0  0  0  0  0  0  0  0
   49.0590   36.0290   41.5450 C   0  0  0  0  0  0  0  0  0  0  0  0
   49.5260   34.6810   42.0990 C   0  0  0  0  0  0  0  0  0  0  0  0
   41.2690   32.5020   38.4830 O   0  0  0  0  0  0  0  0  0  0  0  0
   40.3150   31.5530   38.6390 C   0  0  0  0  0  0  0  0  0  0  0  0
   39.7660   30.9810   37.5960 O   0  0  0  0  0  0  0  0  0  0  0  0
   39.4890   30.7460   39.5900 C   0  0  0  0  0  0  0  0  0  0  0  0
   38.2520   30.3090   38.8020 C   0  0  0  0  0  0  0  0  0  0  0  0
   37.4530   29.6540   39.9080 C   0  0  0  0  0  0  0  0  0  0  0  0
   37.6140   30.6590   41.0270 C   0  0  0  0  0  0  0  0  0  0  0  0
   38.8600   31.4810   40.7030 C   0  0  0  0  0  0  0  0  0  0  0  0
   43.6450   33.5897   38.8725 H   0  0  0  0  0  0  0  0  0  0  0  0
   43.7606   35.9796   40.0207 H   0  0  0  0  0  0  0  0  0  0  0  0
   40.0541   36.4735   40.0124 H   0  0  0  0  0  0  0  0  0  0  0  0
   41.4743   36.5480   38.8851 H   0  0  0  0  0  0  0  0  0  0  0  0
   39.4385   34.4284   39.2443 H   0  0  0  0  0  0  0  0  0  0  0  0
   41.5397   33.1462   40.2788 H   0  0  0  0  0  0  0  0  0  0  0  0
   42.6269   36.0217   38.1001 H   0  0  0  0  0  0  0  0  0  0  0  0
   40.9278   35.7246   37.3483 H   0  0  0  0  0  0  0  0  0  0  0  0
   45.8481   34.5578   40.1439 H   0  0  0  0  0  0  0  0  0  0  0  0
   45.6834   34.3030   45.0868 H   0  0  0  0  0  0  0  0  0  0  0  0
   47.9899   34.1227   40.4606 H   0  0  0  0  0  0  0  0  0  0  0  0
   49.5979   36.5131   40.7172 H   0  0  0  0  0  0  0  0  0  0  0  0
   48.8201   37.0236   41.9497 H   0  0  0  0  0  0  0  0  0  0  0  0
   49.4756   34.4904   43.1812 H   0  0  0  0  0  0  0  0  0  0  0  0
   50.4639   34.1100   42.0338 H   0  0  0  0  0  0  0  0  0  0  0  0
   40.1778   29.9870   39.9894 H   0  0  0  0  0  0  0  0  0  0  0  0
   37.7199   31.1684   38.3680 H   0  0  0  0  0  0  0  0  0  0  0  0
   38.4590   29.6636   37.9356 H   0  0  0  0  0  0  0  0  0  0  0  0
   36.3971   29.5332   39.6244 H   0  0  0  0  0  0  0  0  0  0  0  0
   37.7880   28.6380   40.1640 H   0  0  0  0  0  0  0  0  0  0  0  0
   36.7312   31.3132   41.0789 H   0  0  0  0  0  0  0  0  0  0  0  0
   37.7143   30.1553   41.9997 H   0  0  0  0  0  0  0  0  0  0  0  0
   39.5340   31.5290   41.5710 H   0  0  0  0  0  0  0  0  0  0  0  0
   38.6252   32.5240   40.4441 H   0  0  0  0  0  0  0  0  0  0  0  0
  1  6  1  0
  1  2  1  0
  2  3  1  0
  2  9  1  0
  4  3  1  0
  5  6  1  0
  5  4  1  0
  7  1  1  0
  8  5  1  0
  9 10  1  0
 10 15  1  0
 11 10  2  0
 11 12  1  0
 12 13  2  0
 13 14  1  0
 15 14  2  0
 16 17  1  0
 16 12  1  0
 16 18  1  0
 17 18  1  0
 19 20  1  0
 19  6  1  0
 20 22  1  0
 21 20  2  0
 22 26  1  0
 23 22  1  0
 23 24  1  0
 24 25  1  0
 26 25  1  0
  1 27  1  6
  2 28  1  6
  4 29  1  0
  4 30  1  0
  5 31  1  6
  6 32  1  1
  7 33  1  0
  8 34  1  0
 11 35  1  0
 14 36  1  0
 16 37  1  0
 17 38  1  0
 17 39  1  0
 18 40  1  0
 18 41  1  0
 22 42  1  0
 23 43  1  0
 23 44  1  0
 24 45  1  0
 24 46  1  0
 25 47  1  0
 25 48  1  0
 26 49  1  0
 26 50  1  0
M  ISO  8  27  13  28  13  29  13  30  13  31  13  32  13  33   3  34   3
M  ISO  8  35  14  36  14  37  13  38  13  39  13  40  13  41  13  42  13
M  ISO  8  43  13  44  13  45  13  46  13  47  13  48  13  49  13  50  13
M  END
>  <minimizedAffinity>  (1) 
-6.33586168

>  <minimizedRMSD>  (1) 
1.42533708

$$$$
