
     RDKit          3D

 36 38  0  0  1  0  0  0  0  0999 V2000
   46.6900   32.7710   46.5520 C   0  0  2  0  0  0  0  0  0  0  0  0
   47.0490   32.7140   45.1220 C   0  0  1  0  0  0  0  0  0  0  0  0
   46.5000   31.4270   44.6820 O   0  0  0  0  0  0  0  0  0  0  0  0
   47.1550   30.6420   45.6600 C   0  0  0  0  0  0  0  0  0  0  0  0
   46.5780   31.3010   46.9340 C   0  0  2  0  0  0  0  0  0  0  0  0
   44.7200   35.2780   43.9750 C   0  0  0  0  0  0  0  0  0  0  0  0
   45.3590   35.8410   42.8680 C   0  0  0  0  0  0  0  0  0  0  0  0
   46.6190   35.3300   42.4960 C   0  0  0  0  0  0  0  0  0  0  0  0
   47.1700   34.3040   43.2290 N   0  0  0  0  0  0  0  0  0  0  0  0
   46.5160   33.7890   44.2930 C   0  0  0  0  0  0  0  0  0  0  0  0
   45.2960   34.2640   44.6750 N   0  0  0  0  0  0  0  0  0  0  0  0
   43.4670   35.7390   44.3980 O   0  0  0  0  0  0  0  0  0  0  0  0
   45.3860   33.3590   46.6950 O   0  0  0  0  0  0  0  0  0  0  0  0
   45.2820   30.9110   47.0580 O   0  0  0  0  0  0  0  0  0  0  0  0
   44.9960   29.9660   48.0050 C   0  0  0  0  0  0  0  0  0  0  0  0
   45.6190   28.5980   47.7400 C   0  0  0  0  0  0  0  0  0  0  0  0
   44.5540   27.6670   47.2990 C   0  0  0  0  0  0  0  0  0  0  0  0
   43.8160   27.8040   46.1070 C   0  0  0  0  0  0  0  0  0  0  0  0
   42.7030   26.3630   46.1570 S   0  0  0  0  0  0  0  0  0  0  0  0
   43.4150   25.7910   47.8020 C   0  0  0  0  0  0  0  0  0  0  0  0
   44.2580   26.6170   48.0620 N   0  0  0  0  0  0  0  0  0  0  0  0
   47.4067   33.3492   47.1536 H   0  0  0  0  0  0  0  0  0  0  0  0
   48.1375   32.8266   45.0104 H   0  0  0  0  0  0  0  0  0  0  0  0
   46.8807   29.5793   45.5861 H   0  0  0  0  0  0  0  0  0  0  0  0
   48.2529   30.6268   45.5937 H   0  0  0  0  0  0  0  0  0  0  0  0
   47.0693   31.0567   47.8874 H   0  0  0  0  0  0  0  0  0  0  0  0
   44.8919   36.6605   42.3021 H   0  0  0  0  0  0  0  0  0  0  0  0
   47.1552   35.7463   41.6304 H   0  0  0  0  0  0  0  0  0  0  0  0
   43.0202   36.4758   43.9105 H   0  0  0  0  0  0  0  0  0  0  0  0
   45.1713   33.4558   47.6566 H   0  0  0  0  0  0  0  0  0  0  0  0
   45.3644   30.3294   48.9757 H   0  0  0  0  0  0  0  0  0  0  0  0
   43.9055   29.8230   47.9860 H   0  0  0  0  0  0  0  0  0  0  0  0
   46.3829   28.6855   46.9534 H   0  0  0  0  0  0  0  0  0  0  0  0
   46.0919   28.2180   48.6576 H   0  0  0  0  0  0  0  0  0  0  0  0
   43.8927   28.5864   45.3376 H   0  0  0  0  0  0  0  0  0  0  0  0
   43.1295   24.9075   48.3918 H   0  0  0  0  0  0  0  0  0  0  0  0
  1 13  1  0
  1  5  1  0
  2  1  1  0
  3  2  1  0
  3  4  1  0
  4  5  1  0
  5 14  1  0
  6 12  1  0
  6 11  2  0
  7  6  1  0
  8  7  2  0
  8  9  1  0
  9 10  2  0
 10 11  1  0
 10  2  1  0
 14 15  1  0
 16 15  1  0
 17 16  1  0
 17 21  1  0
 18 19  1  0
 18 17  2  0
 19 20  1  0
 20 21  2  0
  1 22  1  1
  2 23  1  1
  4 24  1  0
  4 25  1  0
  5 26  1  1
  7 27  1  0
  8 28  1  0
 12 29  1  0
 13 30  1  0
 15 31  1  0
 15 32  1  0
 16 33  1  0
 16 34  1  0
 18 35  1  0
 20 36  1  0
M  ISO  8  22  13  23  13  24  13  25  13  26  13  27  14  28  14  29   3
M  ISO  7  30   3  31   8  32   8  33   8  34   8  35  14  36  14
M  END
>  <minimizedAffinity>  (1) 
-5.18836689

>  <minimizedRMSD>  (1) 
0.860975802

$$$$
