
     RDKit          3D

 25 27  0  0  1  0  0  0  0  0999 V2000
   46.5230   35.0200   41.8660 C   0  0  1  0  0  0  0  0  0  0  0  0
   48.0470   35.3040   41.8280 C   0  0  0  0  0  0  0  0  0  0  0  0
   47.3370   34.0360   41.2510 C   0  0  2  0  0  0  0  0  0  0  0  0
   44.6810   35.3820   45.1170 C   0  0  0  0  0  0  0  0  0  0  0  0
   45.1240   35.6840   43.7900 C   0  0  0  0  0  0  0  0  0  0  0  0
   46.0640   34.8230   43.2880 C   0  0  0  0  0  0  0  0  0  0  0  0
   46.5370   33.7540   44.0240 N   0  0  0  0  0  0  0  0  0  0  0  0
   46.0870   33.5170   45.2660 C   0  0  0  0  0  0  0  0  0  0  0  0
   45.1520   34.3380   45.8130 N   0  0  0  0  0  0  0  0  0  0  0  0
   44.6500   36.8100   43.0550 N   0  0  0  0  0  0  0  0  0  0  0  0
   47.3560   33.9100   39.7710 C   0  0  0  0  0  0  0  0  0  0  0  0
   46.2920   33.1570   39.1400 C   0  0  0  0  0  0  0  0  0  0  0  0
   46.7120   33.2590   37.3120 S   0  0  0  0  0  0  0  0  0  0  0  0
   48.2390   34.2960   37.7520 C   0  0  0  0  0  0  0  0  0  0  0  0
   48.2150   34.3850   38.8700 N   0  0  0  0  0  0  0  0  0  0  0  0
   45.5975   35.4942   41.5075 H   0  0  0  0  0  0  0  0  0  0  0  0
   48.4625   36.0727   41.1598 H   0  0  0  0  0  0  0  0  0  0  0  0
   48.8481   35.5273   42.5480 H   0  0  0  0  0  0  0  0  0  0  0  0
   47.4192   32.9491   41.3990 H   0  0  0  0  0  0  0  0  0  0  0  0
   43.9254   36.0313   45.5833 H   0  0  0  0  0  0  0  0  0  0  0  0
   46.4735   32.6614   45.8392 H   0  0  0  0  0  0  0  0  0  0  0  0
   44.9984   36.9866   42.1019 H   0  0  0  0  0  0  0  0  0  0  0  0
   43.9592   37.4468   43.4771 H   0  0  0  0  0  0  0  0  0  0  0  0
   45.4417   32.6475   39.6169 H   0  0  0  0  0  0  0  0  0  0  0  0
   48.9846   34.7176   37.0618 H   0  0  0  0  0  0  0  0  0  0  0  0
  1  6  1  0
  2  1  1  0
  3  2  1  0
  3  1  1  0
  4  9  2  0
  5  4  1  0
  6  5  2  0
  6  7  1  0
  7  8  2  0
  8  9  1  0
 10  5  1  0
 11  3  1  0
 12 11  2  0
 13 14  1  0
 13 12  1  0
 14 15  2  0
 15 11  1  0
  1 16  1  6
  2 17  1  0
  2 18  1  0
  3 19  1  1
  4 20  1  0
  8 21  1  0
 10 22  1  0
 10 23  1  0
 12 24  1  0
 14 25  1  0
M  ISO  8  16  13  17  13  18  13  19  13  20  14  21  14  24  14  25  14
M  END
>  <minimizedAffinity>  (1) 
-5.038311

>  <minimizedRMSD>  (1) 
0.188957408

$$$$
