
     RDKit          3D

 40 43  0  0  1  0  0  0  0  0999 V2000
   49.6140   33.4370   41.5180 N   0  0  0  0  0  0  0  0  0  0  0  0
   50.7350   33.0720   42.3510 C   0  0  0  0  0  0  0  0  0  0  0  0
   51.3230   31.7260   42.0240 C   0  0  0  0  0  0  0  0  0  0  0  0
   50.3070   30.6580   42.3850 C   0  0  0  0  0  0  0  0  0  0  0  0
   48.9090   31.1390   42.0940 C   0  0  0  0  0  0  0  0  0  0  0  0
   48.9600   32.2560   41.0650 C   0  0  2  0  0  0  0  0  0  0  0  0
   47.3640   34.5990   41.9700 C   0  0  1  0  0  0  0  0  0  0  0  0
   48.3980   35.5870   41.6520 C   0  0  0  0  0  0  0  0  0  0  0  0
   48.7980   34.3120   42.2980 C   0  0  2  0  0  0  0  0  0  0  0  0
   45.6010   36.0140   43.0800 C   0  0  0  0  0  0  0  0  0  0  0  0
   46.4050   34.8520   43.0740 C   0  0  0  0  0  0  0  0  0  0  0  0
   46.2650   33.9580   44.1420 C   0  0  0  0  0  0  0  0  0  0  0  0
   45.3710   34.2640   45.1050 N   0  0  0  0  0  0  0  0  0  0  0  0
   44.6150   35.3660   45.1030 C   0  0  0  0  0  0  0  0  0  0  0  0
   44.7230   36.2640   44.0790 N   0  0  0  0  0  0  0  0  0  0  0  0
   49.4690   31.7150   39.8320 N   0  0  0  0  0  0  0  0  0  0  0  0
   48.9660   32.5010   38.7290 C   0  0  0  0  0  0  0  0  0  0  0  0
   49.2330   31.8460   37.4700 C   0  0  0  0  0  0  0  0  0  0  0  0
   48.5060   33.0330   36.1800 S   0  0  0  0  0  0  0  0  0  0  0  0
   47.9870   34.1810   37.6040 C   0  0  0  0  0  0  0  0  0  0  0  0
   48.3420   33.6340   38.5130 N   0  0  0  0  0  0  0  0  0  0  0  0
   51.5203   33.8324   42.2281 H   0  0  0  0  0  0  0  0  0  0  0  0
   50.3610   33.0154   43.3839 H   0  0  0  0  0  0  0  0  0  0  0  0
   51.5526   31.6721   40.9496 H   0  0  0  0  0  0  0  0  0  0  0  0
   52.2517   31.5714   42.5929 H   0  0  0  0  0  0  0  0  0  0  0  0
   50.5085   29.7523   41.7941 H   0  0  0  0  0  0  0  0  0  0  0  0
   50.3904   30.4365   43.4592 H   0  0  0  0  0  0  0  0  0  0  0  0
   48.3092   30.3052   41.7003 H   0  0  0  0  0  0  0  0  0  0  0  0
   48.4511   31.5155   43.0206 H   0  0  0  0  0  0  0  0  0  0  0  0
   47.9396   32.6246   40.8834 H   0  0  0  0  0  0  0  0  0  0  0  0
   46.5766   34.0928   41.3923 H   0  0  0  0  0  0  0  0  0  0  0  0
   48.6687   35.7771   40.6029 H   0  0  0  0  0  0  0  0  0  0  0  0
   48.5467   36.6511   41.8877 H   0  0  0  0  0  0  0  0  0  0  0  0
   49.2998   33.9765   43.2176 H   0  0  0  0  0  0  0  0  0  0  0  0
   45.6910   36.7330   42.2524 H   0  0  0  0  0  0  0  0  0  0  0  0
   46.8639   33.0368   44.1944 H   0  0  0  0  0  0  0  0  0  0  0  0
   43.9069   35.5498   45.9245 H   0  0  0  0  0  0  0  0  0  0  0  0
   50.0917   30.8987   39.7494 H   0  0  0  0  0  0  0  0  0  0  0  0
   49.7391   30.8845   37.2988 H   0  0  0  0  0  0  0  0  0  0  0  0
   47.4649   35.1476   37.5478 H   0  0  0  0  0  0  0  0  0  0  0  0
  1  9  1  0
  1  2  1  0
  3  2  1  0
  3  4  1  0
  5  4  1  0
  6  1  1  0
  6  5  1  0
  7  9  1  0
  7 11  1  0
  8  7  1  0
  8  9  1  0
 10 15  2  0
 11 10  1  0
 11 12  2  0
 12 13  1  0
 14 13  2  0
 15 14  1  0
 16  6  1  0
 17 16  1  0
 18 17  2  0
 19 18  1  0
 19 20  1  0
 20 21  2  0
 21 17  1  0
  2 22  1  0
  2 23  1  0
  3 24  1  0
  3 25  1  0
  4 26  1  0
  4 27  1  0
  5 28  1  0
  5 29  1  0
  6 30  1  6
  7 31  1  6
  8 32  1  0
  8 33  1  0
  9 34  1  1
 10 35  1  0
 12 36  1  0
 14 37  1  0
 16 38  1  0
 18 39  1  0
 20 40  1  0
M  ISO  8  22  13  23  13  24  13  25  13  26  13  27  13  28  13  29  13
M  ISO  8  30  13  31  13  32  13  33  13  34  13  35  14  36  14  37  14
M  ISO  2  39  14  40  14
M  END
>  <minimizedAffinity>  (1) 
-5.19697475

>  <minimizedRMSD>  (1) 
2.62909031

$$$$
