
     RDKit          3D

 35 37  0  0  0  0  0  0  0  0999 V2000
   46.9770   34.3060   40.9990 C   0  0  0  0  0  0  0  0  0  0  0  0
   48.3460   34.0200   41.4620 C   0  0  0  0  0  0  0  0  0  0  0  0
   48.9300   32.8430   41.0120 C   0  0  0  0  0  0  0  0  0  0  0  0
   50.2220   32.5010   41.4040 C   0  0  0  0  0  0  0  0  0  0  0  0
   50.8700   33.3640   42.2360 N   0  0  0  0  0  0  0  0  0  0  0  0
   50.2760   34.4980   42.6550 C   0  0  0  0  0  0  0  0  0  0  0  0
   49.0430   34.8130   42.2730 N   0  0  0  0  0  0  0  0  0  0  0  0
   48.0230   31.7460   39.9150 S   0  0  0  0  0  0  0  0  0  0  0  0
   48.2140   32.2770   38.1980 C   0  0  0  0  0  0  0  0  0  0  0  0
   48.1140   31.4070   37.0910 C   0  0  0  0  0  0  0  0  0  0  0  0
   48.4030   32.5660   35.6840 S   0  0  0  0  0  0  0  0  0  0  0  0
   48.6090   34.0300   36.8730 C   0  0  0  0  0  0  0  0  0  0  0  0
   48.4620   33.5480   37.9370 N   0  0  0  0  0  0  0  0  0  0  0  0
   46.1450   35.0220   42.0260 C   0  0  0  0  0  0  0  0  0  0  0  0
   44.6820   34.9790   41.7580 C   0  0  0  0  0  0  0  0  0  0  0  0
   43.7620   35.4550   42.7400 C   0  0  0  0  0  0  0  0  0  0  0  0
   42.1300   35.1910   41.9430 S   0  0  0  0  0  0  0  0  0  0  0  0
   42.9730   34.4730   40.3980 C   0  0  0  0  0  0  0  0  0  0  0  0
   44.0730   34.5440   40.6890 N   0  0  0  0  0  0  0  0  0  0  0  0
   42.2550   34.0260   39.2900 O   0  0  0  0  0  0  0  0  0  0  0  0
   40.3420   34.5520   37.5420 O   0  0  0  0  0  0  0  0  0  0  0  0
   41.4460   35.1990   38.3530 P   0  0  0  0  0  0  0  0  0  0  0  0
   40.7620   36.3120   39.4280 O   0  0  0  0  0  0  0  0  0  0  0  0
   42.5450   36.0170   37.3630 O   0  0  0  0  0  0  0  0  0  0  0  0
   47.0362   34.9332   40.0972 H   0  0  0  0  0  0  0  0  0  0  0  0
   46.4903   33.3403   40.7977 H   0  0  0  0  0  0  0  0  0  0  0  0
   50.6994   31.5729   41.0565 H   0  0  0  0  0  0  0  0  0  0  0  0
   50.8224   35.1766   43.3266 H   0  0  0  0  0  0  0  0  0  0  0  0
   47.9163   30.3251   37.0719 H   0  0  0  0  0  0  0  0  0  0  0  0
   48.8169   35.0816   36.6263 H   0  0  0  0  0  0  0  0  0  0  0  0
   46.3307   34.5580   43.0059 H   0  0  0  0  0  0  0  0  0  0  0  0
   46.4429   36.0804   41.9946 H   0  0  0  0  0  0  0  0  0  0  0  0
   43.9784   35.8771   43.7325 H   0  0  0  0  0  0  0  0  0  0  0  0
   40.9391   36.0238   40.3584 H   0  0  0  0  0  0  0  0  0  0  0  0
   43.1981   36.5031   37.9262 H   0  0  0  0  0  0  0  0  0  0  0  0
  1  2  1  0
  1 14  1  0
  2  7  2  0
  3  4  2  0
  3  2  1  0
  4  5  1  0
  5  6  2  0
  7  6  1  0
  8  3  1  0
  9  8  1  0
 10  9  2  0
 11 12  1  0
 11 10  1  0
 12 13  2  0
 13  9  1  0
 15 14  1  0
 15 16  2  0
 17 16  1  0
 18 19  2  0
 18 17  1  0
 19 15  1  0
 20 18  1  0
 21 22  2  0
 22 20  1  0
 22 23  1  0
 24 22  1  0
  1 25  1  0
  1 26  1  0
  4 27  1  0
  6 28  1  0
 10 29  1  0
 12 30  1  0
 14 31  1  0
 14 32  1  0
 16 33  1  0
 23 34  1  0
 24 35  1  0
M  ISO  8  25   8  26   8  27  14  28  14  29  14  30  14  31   8  32   8
M  ISO  3  33  14  34   3  35   3
M  END
>  <minimizedAffinity>  (1) 
-4.86687613

>  <minimizedRMSD>  (1) 
0.489289194

$$$$
