
     RDKit          3D

 43 45  0  0  1  0  0  0  0  0999 V2000
   46.7740   34.4080   43.6000 N   0  0  0  0  0  0  0  0  0  0  0  0
   46.3650   35.3240   42.5950 C   0  0  0  0  0  0  0  0  0  0  0  0
   44.8690   35.5000   42.4610 C   0  0  0  0  0  0  0  0  0  0  0  0
   44.0970   35.3500   43.7440 C   0  0  0  0  0  0  0  0  0  0  0  0
   45.0300   35.1900   44.9230 C   0  0  0  0  0  0  0  0  0  0  0  0
   45.8770   33.9230   44.5360 C   0  0  2  0  0  0  0  0  0  0  0  0
   47.8950   33.5960   43.2340 C   0  0  0  0  0  0  0  0  0  0  0  0
   47.4090   32.4170   42.4550 C   0  0  0  0  0  0  0  0  0  0  0  0
   49.8300   31.6860   39.6750 C   0  0  0  0  0  0  0  0  0  0  0  0
   49.2090   31.6880   40.9380 C   0  0  0  0  0  0  0  0  0  0  0  0
   48.0570   32.4200   41.1170 C   0  0  0  0  0  0  0  0  0  0  0  0
   47.5790   33.1020   40.0630 N   0  0  0  0  0  0  0  0  0  0  0  0
   48.1790   33.0930   38.8620 C   0  0  0  0  0  0  0  0  0  0  0  0
   49.3060   32.3880   38.6530 N   0  0  0  0  0  0  0  0  0  0  0  0
   46.4960   33.6210   45.7400 O   0  0  0  0  0  0  0  0  0  0  0  0
   45.5940   31.1930   45.1430 O   0  0  0  0  0  0  0  0  0  0  0  0
   46.1760   32.0580   46.2660 P   0  0  2  0  0  0  0  0  0  0  0  0
   44.9120   32.1930   47.4110 O   0  0  0  0  0  0  0  0  0  0  0  0
   47.4800   31.3600   47.0160 O   0  0  0  0  0  0  0  0  0  0  0  0
   47.7230   29.9980   47.1030 C   0  0  0  0  0  0  0  0  0  0  0  0
   46.7860   28.9740   47.5100 C   0  0  0  0  0  0  0  0  0  0  0  0
   47.8610   27.4240   47.3660 S   0  0  0  0  0  0  0  0  0  0  0  0
   49.3300   28.4820   46.7910 C   0  0  0  0  0  0  0  0  0  0  0  0
   48.9490   29.6000   46.7750 N   0  0  0  0  0  0  0  0  0  0  0  0
   46.8044   36.3051   42.8283 H   0  0  0  0  0  0  0  0  0  0  0  0
   46.7122   34.9061   41.6385 H   0  0  0  0  0  0  0  0  0  0  0  0
   44.6776   36.5073   42.0626 H   0  0  0  0  0  0  0  0  0  0  0  0
   44.5217   34.6959   41.7956 H   0  0  0  0  0  0  0  0  0  0  0  0
   43.4753   36.2446   43.8963 H   0  0  0  0  0  0  0  0  0  0  0  0
   43.4677   34.4508   43.6709 H   0  0  0  0  0  0  0  0  0  0  0  0
   45.6733   36.0745   45.0407 H   0  0  0  0  0  0  0  0  0  0  0  0
   44.5017   35.0814   45.8817 H   0  0  0  0  0  0  0  0  0  0  0  0
   45.3569   33.0446   44.1261 H   0  0  0  0  0  0  0  0  0  0  0  0
   48.5905   34.1841   42.6172 H   0  0  0  0  0  0  0  0  0  0  0  0
   48.4166   33.2532   44.1397 H   0  0  0  0  0  0  0  0  0  0  0  0
   47.6683   31.4905   42.9882 H   0  0  0  0  0  0  0  0  0  0  0  0
   46.3166   32.4732   42.3388 H   0  0  0  0  0  0  0  0  0  0  0  0
   50.7518   31.1056   39.5217 H   0  0  0  0  0  0  0  0  0  0  0  0
   49.6385   31.1122   41.7711 H   0  0  0  0  0  0  0  0  0  0  0  0
   47.7420   33.6717   38.0349 H   0  0  0  0  0  0  0  0  0  0  0  0
   45.2893   32.1527   48.3254 H   0  0  0  0  0  0  0  0  0  0  0  0
   45.7347   29.0703   47.8191 H   0  0  0  0  0  0  0  0  0  0  0  0
   50.3359   28.1245   46.5256 H   0  0  0  0  0  0  0  0  0  0  0  0
  1  6  1  0
  2  1  1  0
  3  2  1  0
  3  4  1  0
  4  5  1  0
  6  5  1  0
  6 15  1  0
  7  1  1  0
  8  7  1  0
  9 10  2  0
 10 11  1  0
 11  8  1  0
 12 11  2  0
 13 12  1  0
 14 13  2  0
 14  9  1  0
 15 17  1  0
 17 16  2  0
 17 19  1  0
 17 18  1  0
 19 20  1  0
 20 21  2  0
 22 21  1  0
 23 22  1  0
 24 23  2  0
 24 20  1  0
  2 25  1  0
  2 26  1  0
  3 27  1  0
  3 28  1  0
  4 29  1  0
  4 30  1  0
  5 31  1  0
  5 32  1  0
  6 33  1  6
  7 34  1  0
  7 35  1  0
  8 36  1  0
  8 37  1  0
  9 38  1  0
 10 39  1  0
 13 40  1  0
 18 41  1  0
 21 42  1  0
 23 43  1  0
M  ISO  8  25  13  26  13  27  13  28  13  29  13  30  13  31  13  32  13
M  ISO  8  33  13  34   8  35   8  36   8  37   8  38  14  39  14  40  14
M  ISO  3  41   3  42  14  43  14
M  END
>  <minimizedAffinity>  (1) 
-4.23027086

>  <minimizedRMSD>  (1) 
1.34246325

$$$$
