
     RDKit          3D

 41 45  0  0  1  0  0  0  0  0999 V2000
   47.1050   32.8650   44.2230 C   0  0  0  0  0  0  0  0  0  0  0  0
   47.1420   32.0890   45.3710 C   0  0  0  0  0  0  0  0  0  0  0  0
   46.3740   32.3530   46.5030 C   0  0  0  0  0  0  0  0  0  0  0  0
   45.5200   33.4400   46.5090 C   0  0  0  0  0  0  0  0  0  0  0  0
   45.4630   34.2170   45.4030 C   0  0  0  0  0  0  0  0  0  0  0  0
   44.6300   35.3260   45.3750 C   0  0  0  0  0  0  0  0  0  0  0  0
   44.5260   36.1680   44.3050 C   0  0  0  0  0  0  0  0  0  0  0  0
   45.3040   35.8630   43.2220 C   0  0  0  0  0  0  0  0  0  0  0  0
   46.1510   34.7580   43.2120 C   0  0  0  0  0  0  0  0  0  0  0  0
   46.2430   33.9220   44.2950 C   0  0  0  0  0  0  0  0  0  0  0  0
   46.9330   34.6740   41.9470 C   0  0  0  0  0  0  0  0  0  0  0  0
   46.6350   34.0630   40.6980 C   0  0  0  0  0  0  0  0  0  0  0  0
   48.0780   34.5200   39.6710 S   0  0  0  0  0  0  0  0  0  0  0  0
   48.8670   35.4760   41.1060 C   0  0  0  0  0  0  0  0  0  0  0  0
   48.0790   35.3330   41.9680 N   0  0  0  0  0  0  0  0  0  0  0  0
   47.9200   32.4990   43.1500 N   0  0  0  0  0  0  0  0  0  0  0  0
   49.9630   31.1730   42.4600 C   0  0  1  0  0  0  0  0  0  0  0  0
   48.7600   30.5230   41.8110 C   0  0  0  0  0  0  0  0  0  0  0  0
   48.6730   31.2710   43.1320 C   0  0  2  0  0  0  0  0  0  0  0  0
   53.1770   29.3500   42.6950 C   0  0  0  0  0  0  0  0  0  0  0  0
   53.0260   28.6600   43.9370 C   0  0  0  0  0  0  0  0  0  0  0  0
   51.8220   28.8480   44.6640 C   0  0  0  0  0  0  0  0  0  0  0  0
   50.8750   29.6570   44.1720 N   0  0  0  0  0  0  0  0  0  0  0  0
   51.0480   30.3010   42.9890 C   0  0  0  0  0  0  0  0  0  0  0  0
   52.1950   30.1430   42.2620 N   0  0  0  0  0  0  0  0  0  0  0  0
   47.8137   31.2181   45.3892 H   0  0  0  0  0  0  0  0  0  0  0  0
   46.4467   31.7010   47.3859 H   0  0  0  0  0  0  0  0  0  0  0  0
   44.9026   33.6674   47.3905 H   0  0  0  0  0  0  0  0  0  0  0  0
   44.0190   35.5390   46.2646 H   0  0  0  0  0  0  0  0  0  0  0  0
   43.8559   37.0403   44.3135 H   0  0  0  0  0  0  0  0  0  0  0  0
   45.2591   36.5095   42.3332 H   0  0  0  0  0  0  0  0  0  0  0  0
   45.7554   33.4644   40.4188 H   0  0  0  0  0  0  0  0  0  0  0  0
   49.8199   36.0251   41.1272 H   0  0  0  0  0  0  0  0  0  0  0  0
   47.9854   33.1316   42.3398 H   0  0  0  0  0  0  0  0  0  0  0  0
   50.7116   31.9191   42.1551 H   0  0  0  0  0  0  0  0  0  0  0  0
   48.3201   30.9514   40.8983 H   0  0  0  0  0  0  0  0  0  0  0  0
   48.5006   29.5162   41.4517 H   0  0  0  0  0  0  0  0  0  0  0  0
   48.3465   31.0427   44.1573 H   0  0  0  0  0  0  0  0  0  0  0  0
   54.0948   29.2286   42.1009 H   0  0  0  0  0  0  0  0  0  0  0  0
   53.8204   28.0018   44.3187 H   0  0  0  0  0  0  0  0  0  0  0  0
   51.6678   28.3334   45.6239 H   0  0  0  0  0  0  0  0  0  0  0  0
  1 10  1  0
  1  2  2  0
  2  3  1  0
  3  4  2  0
  5  4  1  0
  6  5  2  0
  7  6  1  0
  8  7  2  0
  9  8  1  0
  9 10  2  0
 10  5  1  0
 11 15  1  0
 11  9  1  0
 12 11  2  0
 13 12  1  0
 13 14  1  0
 14 15  2  0
 16  1  1  0
 17 24  1  0
 17 19  1  0
 18 17  1  0
 18 19  1  0
 19 16  1  0
 20 21  2  0
 21 22  1  0
 23 22  2  0
 24 23  1  0
 25 20  1  0
 25 24  2  0
  2 26  1  0
  3 27  1  0
  4 28  1  0
  6 29  1  0
  7 30  1  0
  8 31  1  0
 12 32  1  0
 14 33  1  0
 16 34  1  0
 17 35  1  6
 18 36  1  0
 18 37  1  0
 19 38  1  1
 20 39  1  0
 21 40  1  0
 22 41  1  0
M  ISO  8  26  14  27  14  28  14  29  14  30  14  31  14  32  14  33  14
M  ISO  7  35  13  36  13  37  13  38  13  39  14  40  14  41  14
M  END
>  <minimizedAffinity>  (1) 
-5.58333206

>  <minimizedRMSD>  (1) 
2.4082365

$$$$
