
     RDKit          3D

 37 39  0  0  0  0  0  0  0  0999 V2000
   45.3910   32.8700   41.5950 F   0  0  0  0  0  0  0  0  0  0  0  0
   46.4420   33.6170   41.3220 C   0  0  0  0  0  0  0  0  0  0  0  0
   46.7910   34.6130   42.2120 C   0  0  0  0  0  0  0  0  0  0  0  0
   47.8950   35.4710   42.0210 C   0  0  0  0  0  0  0  0  0  0  0  0
   48.6780   35.3000   40.8670 C   0  0  0  0  0  0  0  0  0  0  0  0
   48.2930   34.2970   40.0130 C   0  0  0  0  0  0  0  0  0  0  0  0
   47.2380   33.4720   40.1860 C   0  0  0  0  0  0  0  0  0  0  0  0
   45.4460   34.0990   45.5810 C   0  0  0  0  0  0  0  0  0  0  0  0
   44.5710   35.2040   45.7220 C   0  0  0  0  0  0  0  0  0  0  0  0
   44.4530   36.1240   44.6410 C   0  0  0  0  0  0  0  0  0  0  0  0
   45.2040   35.8750   43.5230 N   0  0  0  0  0  0  0  0  0  0  0  0
   46.0100   34.8290   43.4340 C   0  0  0  0  0  0  0  0  0  0  0  0
   46.1330   33.9450   44.4520 N   0  0  0  0  0  0  0  0  0  0  0  0
   45.5440   33.2070   46.6630 N   0  0  0  0  0  0  0  0  0  0  0  0
   46.9530   32.5080   39.2630 O   0  0  0  0  0  0  0  0  0  0  0  0
   44.8500   33.2130   37.8210 O   0  0  0  0  0  0  0  0  0  0  0  0
   46.2830   32.7280   37.7440 P   0  0  2  0  0  0  0  0  0  0  0  0
   46.3500   31.2750   36.8680 O   0  0  0  0  0  0  0  0  0  0  0  0
   45.2230   30.8920   36.1110 C   0  0  0  0  0  0  0  0  0  0  0  0
   44.8830   31.3660   34.7970 C   0  0  0  0  0  0  0  0  0  0  0  0
   43.3130   30.4000   34.5390 S   0  0  0  0  0  0  0  0  0  0  0  0
   43.4330   29.5640   36.2320 C   0  0  0  0  0  0  0  0  0  0  0  0
   44.4620   30.0010   36.7640 N   0  0  0  0  0  0  0  0  0  0  0  0
   47.1550   33.8390   36.8010 O   0  0  0  0  0  0  0  0  0  0  0  0
   48.4780   33.3900   36.6040 C   0  0  0  0  0  0  0  0  0  0  0  0
   48.5810   33.2240   35.2210 F   0  0  0  0  0  0  0  0  0  0  0  0
   49.3840   34.3620   36.9730 F   0  0  0  0  0  0  0  0  0  0  0  0
   48.7790   32.2480   37.2920 F   0  0  0  0  0  0  0  0  0  0  0  0
   48.1361   36.2530   42.7561 H   0  0  0  0  0  0  0  0  0  0  0  0
   49.5517   35.9352   40.6594 H   0  0  0  0  0  0  0  0  0  0  0  0
   48.8983   34.1521   39.1060 H   0  0  0  0  0  0  0  0  0  0  0  0
   43.9944   35.3487   46.6475 H   0  0  0  0  0  0  0  0  0  0  0  0
   43.7870   36.9974   44.7015 H   0  0  0  0  0  0  0  0  0  0  0  0
   46.1686   32.3903   46.6022 H   0  0  0  0  0  0  0  0  0  0  0  0
   44.9912   33.3701   47.5166 H   0  0  0  0  0  0  0  0  0  0  0  0
   45.3966   32.0841   34.1409 H   0  0  0  0  0  0  0  0  0  0  0  0
   42.7287   28.8348   36.6587 H   0  0  0  0  0  0  0  0  0  0  0  0
  2  1  1  0
  2  3  2  0
  3 12  1  0
  4  3  1  0
  5  4  2  0
  6  7  2  0
  6  5  1  0
  7  2  1  0
  8  9  2  0
  8 14  1  0
 10  9  1  0
 11 10  2  0
 12 11  1  0
 12 13  2  0
 13  8  1  0
 15  7  1  0
 17 16  2  0
 17 15  1  0
 18 17  1  0
 19 23  1  0
 19 18  1  0
 20 19  2  0
 21 20  1  0
 21 22  1  0
 22 23  2  0
 24 17  1  0
 25 24  1  0
 25 27  1  0
 25 28  1  0
 26 25  1  0
  4 29  1  0
  5 30  1  0
  6 31  1  0
  9 32  1  0
 10 33  1  0
 14 34  1  0
 14 35  1  0
 20 36  1  0
 22 37  1  0
M  ISO  7  29  14  30  14  31  14  32  14  33  14  36  14  37  14
M  END
>  <minimizedAffinity>  (1) 
-5.73026514

>  <minimizedRMSD>  (1) 
2.64901161

$$$$
