
     RDKit          3D

 40 43  0  0  1  0  0  0  0  0999 V2000
   44.2240   34.3680   41.5430 C   0  0  0  0  0  0  0  0  0  0  0  0
   45.1010   34.2530   40.6150 O   0  0  0  0  0  0  0  0  0  0  0  0
   42.0390   33.2850   41.1270 C   0  0  0  0  0  0  0  0  0  0  0  0
   42.7740   34.4180   41.3210 C   0  0  0  0  0  0  0  0  0  0  0  0
   42.1240   35.6600   41.2890 C   0  0  0  0  0  0  0  0  0  0  0  0
   40.7770   35.7970   41.0720 C   0  0  0  0  0  0  0  0  0  0  0  0
   40.0360   34.6640   40.8790 C   0  0  0  0  0  0  0  0  0  0  0  0
   40.6600   33.4570   40.9070 C   0  0  0  0  0  0  0  0  0  0  0  0
   42.7000   31.7290   41.1950 S   0  0  0  0  0  0  0  0  0  0  0  0
   41.5730   30.9000   40.5490 O   0  0  0  0  0  0  0  0  0  0  0  0
   42.8260   31.2320   42.5950 O   0  0  0  0  0  0  0  0  0  0  0  0
   43.7980   31.0710   40.0610 C   0  0  0  0  0  0  0  0  0  0  0  0
   43.0690   30.7360   38.7130 C   0  0  0  0  0  0  0  0  0  0  0  0
   44.3020   30.1770   37.7010 S   0  0  0  0  0  0  0  0  0  0  0  0
   45.6630   30.3580   38.9230 C   0  0  0  0  0  0  0  0  0  0  0  0
   45.0430   30.7740   39.8230 N   0  0  0  0  0  0  0  0  0  0  0  0
   44.5720   34.4630   42.9300 C   0  0  0  0  0  0  0  0  0  0  0  0
   44.3060   35.7140   43.5600 C   0  0  0  0  0  0  0  0  0  0  0  0
   44.6340   35.8160   44.9010 C   0  0  0  0  0  0  0  0  0  0  0  0
   45.1790   34.7410   45.5280 N   0  0  0  0  0  0  0  0  0  0  0  0
   45.4180   33.5550   44.8820 C   0  0  0  0  0  0  0  0  0  0  0  0
   45.1060   33.4850   43.6410 N   0  0  0  0  0  0  0  0  0  0  0  0
   46.0070   32.4370   45.6430 C   0  0  1  0  0  0  0  0  0  0  0  0
   46.9700   32.7550   46.7670 C   0  0  0  0  0  0  0  0  0  0  0  0
   45.5450   32.3500   47.0550 C   0  0  1  0  0  0  0  0  0  0  0  0
   44.7660   33.4030   47.6380 N   0  0  0  0  0  0  0  0  0  0  0  0
   42.7238   36.5687   41.4456 H   0  0  0  0  0  0  0  0  0  0  0  0
   40.3056   36.7907   41.0537 H   0  0  0  0  0  0  0  0  0  0  0  0
   38.9520   34.7285   40.7038 H   0  0  0  0  0  0  0  0  0  0  0  0
   40.0479   32.5571   40.7475 H   0  0  0  0  0  0  0  0  0  0  0  0
   41.9992   30.8410   38.4796 H   0  0  0  0  0  0  0  0  0  0  0  0
   46.7376   30.1404   38.8344 H   0  0  0  0  0  0  0  0  0  0  0  0
   43.8624   36.5559   43.0082 H   0  0  0  0  0  0  0  0  0  0  0  0
   44.4562   36.7524   45.4501 H   0  0  0  0  0  0  0  0  0  0  0  0
   46.0614   31.7646   44.7741 H   0  0  0  0  0  0  0  0  0  0  0  0
   47.7973   32.0676   46.9972 H   0  0  0  0  0  0  0  0  0  0  0  0
   47.6109   33.6088   47.0319 H   0  0  0  0  0  0  0  0  0  0  0  0
   45.0138   31.5574   47.6024 H   0  0  0  0  0  0  0  0  0  0  0  0
   44.8143   33.3377   48.6648 H   0  0  0  0  0  0  0  0  0  0  0  0
   45.1381   34.3141   47.3340 H   0  0  0  0  0  0  0  0  0  0  0  0
  1 17  1  0
  2  1  2  0
  3  9  1  0
  3  4  1  0
  4  1  1  0
  5  4  2  0
  6  5  1  0
  7  8  1  0
  7  6  2  0
  8  3  2  0
  9 11  2  0
 10  9  2  0
 12  9  1  0
 13 12  2  0
 14 13  1  0
 14 15  1  0
 15 16  2  0
 16 12  1  0
 17 18  2  0
 17 22  1  0
 18 19  1  0
 19 20  2  0
 21 20  1  0
 21 23  1  0
 22 21  2  0
 23 24  1  0
 23 25  1  0
 24 25  1  0
 25 26  1  0
  5 27  1  0
  6 28  1  0
  7 29  1  0
  8 30  1  0
 13 31  1  0
 15 32  1  0
 18 33  1  0
 19 34  1  0
 23 35  1  6
 24 36  1  0
 24 37  1  0
 25 38  1  1
 26 39  1  0
 26 40  1  0
M  ISO  8  27  14  28  14  29  14  30  14  31  14  32  14  33  14  34  14
M  ISO  6  35  13  36  13  37  13  38  13  39   5  40   5
M  END
>  <minimizedAffinity>  (1) 
-5.73757076

>  <minimizedRMSD>  (1) 
1.33067334

$$$$
