
     RDKit          3D

 36 40  0  0  0  0  0  0  0  0999 V2000
   47.2860   31.3100   45.2190 C   0  0  0  0  0  0  0  0  0  0  0  0
   46.9130   32.6390   45.1250 C   0  0  0  0  0  0  0  0  0  0  0  0
   46.2910   33.3080   46.1510 C   0  0  0  0  0  0  0  0  0  0  0  0
   46.0090   32.6610   47.3430 C   0  0  0  0  0  0  0  0  0  0  0  0
   45.4260   32.9860   48.5320 N   0  0  0  0  0  0  0  0  0  0  0  0
   45.4390   31.8890   49.3370 C   0  0  0  0  0  0  0  0  0  0  0  0
   46.0320   30.9010   48.6300 N   0  0  0  0  0  0  0  0  0  0  0  0
   46.3890   31.3430   47.4090 C   0  0  0  0  0  0  0  0  0  0  0  0
   47.0070   30.6370   46.4230 C   0  0  0  0  0  0  0  0  0  0  0  0
   46.6610   35.0660   42.3710 C   0  0  0  0  0  0  0  0  0  0  0  0
   47.7300   34.7240   41.5590 C   0  0  0  0  0  0  0  0  0  0  0  0
   48.5410   33.6540   41.9580 C   0  0  0  0  0  0  0  0  0  0  0  0
   48.2400   33.0060   43.1230 N   0  0  0  0  0  0  0  0  0  0  0  0
   47.1860   33.3690   43.8910 C   0  0  0  0  0  0  0  0  0  0  0  0
   46.3990   34.3930   43.5190 N   0  0  0  0  0  0  0  0  0  0  0  0
   47.3740   29.2300   46.5930 C   0  0  0  0  0  0  0  0  0  0  0  0
   48.5930   28.6920   46.2680 C   0  0  0  0  0  0  0  0  0  0  0  0
   48.4510   27.3370   46.6100 C   0  0  0  0  0  0  0  0  0  0  0  0
   47.1720   27.1300   47.1160 C   0  0  0  0  0  0  0  0  0  0  0  0
   46.5960   28.3110   47.0700 O   0  0  0  0  0  0  0  0  0  0  0  0
   46.5810   25.8660   47.6010 C   0  0  0  0  0  0  0  0  0  0  0  0
   47.2620   25.1560   48.7280 C   0  0  0  0  0  0  0  0  0  0  0  0
   46.0770   23.6890   48.8700 S   0  0  0  0  0  0  0  0  0  0  0  0
   44.9770   24.3100   47.4570 C   0  0  0  0  0  0  0  0  0  0  0  0
   45.4900   25.3530   47.0780 N   0  0  0  0  0  0  0  0  0  0  0  0
   47.7831   30.7975   44.3822 H   0  0  0  0  0  0  0  0  0  0  0  0
   46.0148   34.3653   46.0251 H   0  0  0  0  0  0  0  0  0  0  0  0
   45.0400   33.9083   48.7796 H   0  0  0  0  0  0  0  0  0  0  0  0
   45.0446   31.8197   50.3615 H   0  0  0  0  0  0  0  0  0  0  0  0
   46.0097   35.9026   42.0780 H   0  0  0  0  0  0  0  0  0  0  0  0
   47.9355   35.2756   40.6298 H   0  0  0  0  0  0  0  0  0  0  0  0
   49.4011   33.3422   41.3472 H   0  0  0  0  0  0  0  0  0  0  0  0
   49.4709   29.1996   45.8419 H   0  0  0  0  0  0  0  0  0  0  0  0
   49.2259   26.5646   46.4961 H   0  0  0  0  0  0  0  0  0  0  0  0
   48.1691   25.4085   49.2967 H   0  0  0  0  0  0  0  0  0  0  0  0
   44.0684   23.8326   47.0613 H   0  0  0  0  0  0  0  0  0  0  0  0
  1  9  2  0
  2  1  1  0
  2  3  2  0
  3  4  1  0
  4  8  2  0
  4  5  1  0
  5  6  1  0
  7  6  2  0
  8  7  1  0
  9 16  1  0
  9  8  1  0
 10 15  2  0
 11 12  2  0
 11 10  1  0
 12 13  1  0
 13 14  2  0
 14  2  1  0
 15 14  1  0
 16 20  1  0
 17 16  2  0
 17 18  1  0
 18 19  2  0
 19 21  1  0
 20 19  1  0
 21 22  2  0
 22 23  1  0
 24 23  1  0
 25 24  2  0
 25 21  1  0
  1 26  1  0
  3 27  1  0
  5 28  1  0
  6 29  1  0
 10 30  1  0
 11 31  1  0
 12 32  1  0
 17 33  1  0
 18 34  1  0
 22 35  1  0
 24 36  1  0
M  ISO  8  26  14  27  14  28   9  29  14  30  14  31  14  32  14  33  14
M  ISO  3  34  14  35  14  36  14
M  END
>  <minimizedAffinity>  (1) 
-5.66316652

>  <minimizedRMSD>  (1) 
0.855299234

$$$$
