
     RDKit          3D

 43 47  0  0  1  0  0  0  0  0999 V2000
   47.2170   32.9660   43.1380 C   0  0  0  0  0  0  0  0  0  0  0  0
   46.4230   33.6710   42.2290 C   0  0  0  0  0  0  0  0  0  0  0  0
   45.3780   34.4900   42.6230 C   0  0  0  0  0  0  0  0  0  0  0  0
   45.0980   34.6200   43.9920 C   0  0  0  0  0  0  0  0  0  0  0  0
   44.1950   35.2990   44.7300 N   0  0  0  0  0  0  0  0  0  0  0  0
   44.3890   35.0490   46.0410 C   0  0  0  0  0  0  0  0  0  0  0  0
   45.4290   34.2040   46.0930 N   0  0  0  0  0  0  0  0  0  0  0  0
   45.8890   33.9190   44.8640 C   0  0  0  0  0  0  0  0  0  0  0  0
   46.9420   33.0920   44.4990 C   0  0  0  0  0  0  0  0  0  0  0  0
   46.2490   32.5140   38.7600 C   0  0  0  0  0  0  0  0  0  0  0  0
   47.2250   33.3010   38.1190 C   0  0  0  0  0  0  0  0  0  0  0  0
   47.9280   34.2230   38.9060 C   0  0  0  0  0  0  0  0  0  0  0  0
   47.6500   34.3270   40.2450 N   0  0  0  0  0  0  0  0  0  0  0  0
   46.7030   33.5460   40.8040 C   0  0  0  0  0  0  0  0  0  0  0  0
   45.9880   32.6330   40.0970 N   0  0  0  0  0  0  0  0  0  0  0  0
   44.3840   35.3760   41.4650 S   0  0  0  0  0  0  0  0  0  0  0  0
   42.1780   33.9790   41.7680 N   0  0  0  0  0  0  0  0  0  0  0  0
   43.0730   34.3830   40.7130 C   0  0  1  0  0  0  0  0  0  0  0  0
   42.3820   35.2920   39.7010 C   0  0  0  0  0  0  0  0  0  0  0  0
   41.1040   34.8830   39.3810 O   0  0  0  0  0  0  0  0  0  0  0  0
   40.7580   33.6340   39.8060 C   0  0  0  0  0  0  0  0  0  0  0  0
   40.8830   33.5460   41.2920 C   0  0  1  0  0  0  0  0  0  0  0  0
   40.6640   32.1350   41.6940 C   0  0  0  0  0  0  0  0  0  0  0  0
   41.8270   31.3750   42.2270 C   0  0  0  0  0  0  0  0  0  0  0  0
   41.1060   29.6820   42.5960 S   0  0  0  0  0  0  0  0  0  0  0  0
   39.4210   30.2960   41.9820 C   0  0  0  0  0  0  0  0  0  0  0  0
   39.5810   31.3710   41.6740 N   0  0  0  0  0  0  0  0  0  0  0  0
   48.0403   32.3262   42.7875 H   0  0  0  0  0  0  0  0  0  0  0  0
   43.4650   35.9172   44.3482 H   0  0  0  0  0  0  0  0  0  0  0  0
   43.8155   35.4528   46.8884 H   0  0  0  0  0  0  0  0  0  0  0  0
   47.5365   32.5568   45.2541 H   0  0  0  0  0  0  0  0  0  0  0  0
   45.6799   31.7821   38.1679 H   0  0  0  0  0  0  0  0  0  0  0  0
   47.4276   33.1962   37.0429 H   0  0  0  0  0  0  0  0  0  0  0  0
   48.7001   34.8611   38.4514 H   0  0  0  0  0  0  0  0  0  0  0  0
   42.6126   33.2006   42.2839 H   0  0  0  0  0  0  0  0  0  0  0  0
   43.4383   33.4779   40.2057 H   0  0  0  0  0  0  0  0  0  0  0  0
   42.3282   36.3064   40.1231 H   0  0  0  0  0  0  0  0  0  0  0  0
   42.9754   35.2580   38.7754 H   0  0  0  0  0  0  0  0  0  0  0  0
   39.7178   33.4256   39.5151 H   0  0  0  0  0  0  0  0  0  0  0  0
   41.4302   32.8965   39.3432 H   0  0  0  0  0  0  0  0  0  0  0  0
   40.1327   34.2157   41.7377 H   0  0  0  0  0  0  0  0  0  0  0  0
   42.8609   31.7221   42.3703 H   0  0  0  0  0  0  0  0  0  0  0  0
   38.4824   29.7243   41.9353 H   0  0  0  0  0  0  0  0  0  0  0  0
  1  9  2  0
  2  3  2  0
  2  1  1  0
  3  4  1  0
  4  5  1  0
  4  8  2  0
  5  6  1  0
  6  7  2  0
  8  7  1  0
  9  8  1  0
 10 15  2  0
 11 10  1  0
 11 12  2  0
 12 13  1  0
 13 14  2  0
 14  2  1  0
 15 14  1  0
 16  3  1  0
 18 16  1  0
 18 17  1  0
 19 18  1  0
 20 19  1  0
 20 21  1  0
 21 22  1  0
 22 23  1  0
 22 17  1  0
 23 24  2  0
 24 25  1  0
 26 25  1  0
 27 23  1  0
 27 26  2  0
  1 28  1  0
  5 29  1  0
  6 30  1  0
  9 31  1  0
 10 32  1  0
 11 33  1  0
 12 34  1  0
 17 35  1  0
 18 36  1  6
 19 37  1  0
 19 38  1  0
 21 39  1  0
 21 40  1  0
 22 41  1  1
 24 42  1  0
 26 43  1  0
M  ISO  8  28  14  29   9  30  14  31  14  32  14  33  14  34  14  35   5
M  ISO  8  36  13  37  13  38  13  39  13  40  13  41  13  42  14  43  14
M  END
>  <minimizedAffinity>  (1) 
-5.86385441

>  <minimizedRMSD>  (1) 
2.20839214

$$$$
