
     RDKit          3D

 32 35  0  0  0  0  0  0  0  0999 V2000
   47.5560   35.1400   41.9760 C   0  0  0  0  0  0  0  0  0  0  0  0
   48.6070   35.8500   41.9910 O   0  0  0  0  0  0  0  0  0  0  0  0
   46.1840   33.7250   40.4040 C   0  0  0  0  0  0  0  0  0  0  0  0
   47.3270   34.4810   40.6860 C   0  0  0  0  0  0  0  0  0  0  0  0
   48.2690   34.6140   39.7010 C   0  0  0  0  0  0  0  0  0  0  0  0
   48.1810   34.0520   38.4340 C   0  0  0  0  0  0  0  0  0  0  0  0
   48.9670   34.0590   37.3490 N   0  0  0  0  0  0  0  0  0  0  0  0
   48.3860   33.3440   36.3810 C   0  0  0  0  0  0  0  0  0  0  0  0
   47.1740   32.8590   36.8720 C   0  0  0  0  0  0  0  0  0  0  0  0
   47.0440   33.3070   38.1690 C   0  0  0  0  0  0  0  0  0  0  0  0
   46.0690   33.1500   39.1370 C   0  0  0  0  0  0  0  0  0  0  0  0
   46.6470   34.9540   43.0610 C   0  0  0  0  0  0  0  0  0  0  0  0
   45.5560   35.8360   43.0990 C   0  0  0  0  0  0  0  0  0  0  0  0
   44.6550   35.6550   44.1700 C   0  0  0  0  0  0  0  0  0  0  0  0
   44.8950   34.6650   45.0710 N   0  0  0  0  0  0  0  0  0  0  0  0
   45.9540   33.8620   44.9730 C   0  0  0  0  0  0  0  0  0  0  0  0
   46.8350   34.0060   43.9630 N   0  0  0  0  0  0  0  0  0  0  0  0
   46.1100   32.8200   46.0150 C   0  0  0  0  0  0  0  0  0  0  0  0
   46.9400   31.6810   45.9430 C   0  0  0  0  0  0  0  0  0  0  0  0
   46.5990   30.8900   47.5770 S   0  0  0  0  0  0  0  0  0  0  0  0
   45.3830   32.2710   48.0520 C   0  0  0  0  0  0  0  0  0  0  0  0
   45.3950   32.9830   47.1220 N   0  0  0  0  0  0  0  0  0  0  0  0
   45.3971   33.5874   41.1602 H   0  0  0  0  0  0  0  0  0  0  0  0
   49.1635   35.2115   39.9308 H   0  0  0  0  0  0  0  0  0  0  0  0
   49.8750   34.5393   37.2730 H   0  0  0  0  0  0  0  0  0  0  0  0
   48.7923   33.1688   35.3739 H   0  0  0  0  0  0  0  0  0  0  0  0
   46.4537   32.2335   36.3244 H   0  0  0  0  0  0  0  0  0  0  0  0
   45.1752   32.5536   38.9015 H   0  0  0  0  0  0  0  0  0  0  0  0
   45.4121   36.6199   42.3409 H   0  0  0  0  0  0  0  0  0  0  0  0
   43.7730   36.3040   44.2743 H   0  0  0  0  0  0  0  0  0  0  0  0
   47.6087   31.3531   45.1334 H   0  0  0  0  0  0  0  0  0  0  0  0
   44.8042   32.3768   48.9814 H   0  0  0  0  0  0  0  0  0  0  0  0
  1  2  2  0
  1 12  1  0
  3  4  2  0
  4  1  1  0
  5  4  1  0
  6  5  2  0
  7  6  1  0
  8  9  2  0
  8  7  1  0
  9 10  1  0
 10  6  1  0
 10 11  2  0
 11  3  1  0
 12 13  2  0
 12 17  1  0
 13 14  1  0
 14 15  2  0
 16 15  1  0
 16 18  1  0
 17 16  2  0
 18 22  1  0
 19 18  2  0
 19 20  1  0
 20 21  1  0
 22 21  2  0
  3 23  1  0
  5 24  1  0
  7 25  1  0
  8 26  1  0
  9 27  1  0
 11 28  1  0
 13 29  1  0
 14 30  1  0
 19 31  1  0
 21 32  1  0
M  ISO  8  23  14  24  14  25   9  26  14  27  14  28  14  29  14  30  14
M  ISO  2  31  14  32  14
M  END
>  <minimizedAffinity>  (1) 
-6.30851698

>  <minimizedRMSD>  (1) 
0.465868682

$$$$
