
     RDKit          3D

 28 30  0  0  1  0  0  0  0  0999 V2000
   47.2630   34.6640   42.3380 N   0  0  0  0  0  0  0  0  0  0  0  0
   48.7030   34.7060   42.3030 C   0  0  0  0  0  0  0  0  0  0  0  0
   48.8670   35.5180   41.0280 C   0  0  0  0  0  0  0  0  0  0  0  0
   48.0360   34.6230   40.0980 C   0  0  0  0  0  0  0  0  0  0  0  0
   46.8400   34.3820   40.9690 C   0  0  1  0  0  0  0  0  0  0  0  0
   44.5080   35.9590   44.4750 C   0  0  0  0  0  0  0  0  0  0  0  0
   45.3830   35.8710   43.3940 C   0  0  0  0  0  0  0  0  0  0  0  0
   46.3450   34.8360   43.3850 C   0  0  0  0  0  0  0  0  0  0  0  0
   46.3710   33.9710   44.4370 N   0  0  0  0  0  0  0  0  0  0  0  0
   45.5050   34.0840   45.4740 C   0  0  0  0  0  0  0  0  0  0  0  0
   44.5780   35.0780   45.4870 N   0  0  0  0  0  0  0  0  0  0  0  0
   46.2100   33.0650   40.8240 C   0  0  0  0  0  0  0  0  0  0  0  0
   47.0400   31.9600   40.4970 C   0  0  0  0  0  0  0  0  0  0  0  0
   45.8100   30.5750   40.4320 S   0  0  0  0  0  0  0  0  0  0  0  0
   44.3920   31.7640   40.8630 C   0  0  0  0  0  0  0  0  0  0  0  0
   44.9350   32.7670   40.9640 N   0  0  0  0  0  0  0  0  0  0  0  0
   49.1252   35.2191   43.1796 H   0  0  0  0  0  0  0  0  0  0  0  0
   49.2124   33.7312   42.3204 H   0  0  0  0  0  0  0  0  0  0  0  0
   48.4443   36.5293   41.1206 H   0  0  0  0  0  0  0  0  0  0  0  0
   49.9015   35.7159   40.7108 H   0  0  0  0  0  0  0  0  0  0  0  0
   48.5605   33.6867   39.8565 H   0  0  0  0  0  0  0  0  0  0  0  0
   47.8118   35.0595   39.1135 H   0  0  0  0  0  0  0  0  0  0  0  0
   46.0282   35.0528   40.6513 H   0  0  0  0  0  0  0  0  0  0  0  0
   43.7523   36.7579   44.5000 H   0  0  0  0  0  0  0  0  0  0  0  0
   45.3260   36.5920   42.5652 H   0  0  0  0  0  0  0  0  0  0  0  0
   45.5528   33.3685   46.3081 H   0  0  0  0  0  0  0  0  0  0  0  0
   48.1265   31.9332   40.3271 H   0  0  0  0  0  0  0  0  0  0  0  0
   43.3210   31.5445   40.9846 H   0  0  0  0  0  0  0  0  0  0  0  0
  1  8  1  0
  2  1  1  0
  3  2  1  0
  4  5  1  0
  4  3  1  0
  5  1  1  0
  6 11  2  0
  7  6  1  0
  8  7  2  0
  8  9  1  0
  9 10  2  0
 10 11  1  0
 12 16  1  0
 12  5  1  0
 13 12  2  0
 14 13  1  0
 14 15  1  0
 15 16  2  0
  2 17  1  0
  2 18  1  0
  3 19  1  0
  3 20  1  0
  4 21  1  0
  4 22  1  0
  5 23  1  6
  6 24  1  0
  7 25  1  0
 10 26  1  0
 13 27  1  0
 15 28  1  0
M  ISO  8  17  13  18  13  19  13  20  13  21  13  22  13  23  13  24  14
M  ISO  4  25  14  26  14  27  14  28  14
M  END
>  <minimizedAffinity>  (1) 
-4.58552217

>  <minimizedRMSD>  (1) 
0.420240283

$$$$
