
     RDKit          3D

 35 38  0  0  0  0  0  0  0  0999 V2000
   41.0780   35.5180   42.0260 Cl  0  0  0  0  0  0  0  0  0  0  0  0
   41.7220   34.7600   40.5860 C   0  0  0  0  0  0  0  0  0  0  0  0
   43.0110   34.3360   40.5270 C   0  0  0  0  0  0  0  0  0  0  0  0
   43.4020   33.7540   39.3400 C   0  0  0  0  0  0  0  0  0  0  0  0
   42.5820   33.5960   38.2740 C   0  0  0  0  0  0  0  0  0  0  0  0
   41.2790   34.0290   38.3440 C   0  0  0  0  0  0  0  0  0  0  0  0
   40.8620   34.6130   39.5160 C   0  0  0  0  0  0  0  0  0  0  0  0
   45.2640   35.8610   43.1500 C   0  0  0  0  0  0  0  0  0  0  0  0
   44.4420   35.7160   42.0280 C   0  0  0  0  0  0  0  0  0  0  0  0
   43.8610   34.5150   41.6730 C   0  0  0  0  0  0  0  0  0  0  0  0
   44.1540   33.4650   42.5120 N   0  0  0  0  0  0  0  0  0  0  0  0
   44.9400   33.5970   43.5860 C   0  0  0  0  0  0  0  0  0  0  0  0
   45.4960   34.7740   43.9150 N   0  0  0  0  0  0  0  0  0  0  0  0
   44.7890   33.2820   39.2420 C   0  0  0  0  0  0  0  0  0  0  0  0
   45.0790   32.2650   38.3470 C   0  0  0  0  0  0  0  0  0  0  0  0
   46.3900   31.8900   38.3220 C   0  0  0  0  0  0  0  0  0  0  0  0
   47.3880   32.4370   39.0960 C   0  0  0  0  0  0  0  0  0  0  0  0
   47.0260   33.4500   39.9690 C   0  0  0  0  0  0  0  0  0  0  0  0
   45.7410   33.8070   39.9830 N   0  0  0  0  0  0  0  0  0  0  0  0
   48.0510   34.0500   40.8000 C   0  0  0  0  0  0  0  0  0  0  0  0
   48.9450   33.1790   41.5660 C   0  0  0  0  0  0  0  0  0  0  0  0
   50.0850   34.3770   42.4730 S   0  0  0  0  0  0  0  0  0  0  0  0
   49.1450   35.8040   41.6540 C   0  0  0  0  0  0  0  0  0  0  0  0
   48.3560   35.3070   41.0150 N   0  0  0  0  0  0  0  0  0  0  0  0
   42.9573   33.1226   37.3547 H   0  0  0  0  0  0  0  0  0  0  0  0
   40.5939   33.9120   37.4914 H   0  0  0  0  0  0  0  0  0  0  0  0
   39.8250   34.9695   39.6031 H   0  0  0  0  0  0  0  0  0  0  0  0
   45.7093   36.8347   43.4021 H   0  0  0  0  0  0  0  0  0  0  0  0
   44.2497   36.5985   41.4001 H   0  0  0  0  0  0  0  0  0  0  0  0
   45.1363   32.7175   44.2169 H   0  0  0  0  0  0  0  0  0  0  0  0
   44.3144   31.7982   37.7087 H   0  0  0  0  0  0  0  0  0  0  0  0
   46.6726   31.0854   37.6272 H   0  0  0  0  0  0  0  0  0  0  0  0
   48.4278   32.0852   39.0246 H   0  0  0  0  0  0  0  0  0  0  0  0
   48.9504   32.0797   41.6037 H   0  0  0  0  0  0  0  0  0  0  0  0
   49.3275   36.8821   41.7743 H   0  0  0  0  0  0  0  0  0  0  0  0
  2  1  1  0
  3  2  2  0
  3 10  1  0
  4  3  1  0
  5  6  1  0
  5  4  2  0
  6  7  2  0
  7  2  1  0
  8 13  2  0
  9  8  1  0
 10  9  2  0
 10 11  1  0
 11 12  2  0
 12 13  1  0
 14  4  1  0
 14 19  1  0
 15 14  2  0
 16 15  1  0
 16 17  2  0
 17 18  1  0
 18 19  2  0
 18 20  1  0
 20 24  1  0
 20 21  2  0
 21 22  1  0
 23 22  1  0
 24 23  2  0
  5 25  1  0
  6 26  1  0
  7 27  1  0
  8 28  1  0
  9 29  1  0
 12 30  1  0
 15 31  1  0
 16 32  1  0
 17 33  1  0
 21 34  1  0
 23 35  1  0
M  ISO  8  25  14  26  14  27  14  28  14  29  14  30  14  31  14  32  14
M  ISO  3  33  14  34  14  35  14
M  END
>  <minimizedAffinity>  (1) 
-5.54887342

>  <minimizedRMSD>  (1) 
3.53789377

$$$$
