
     RDKit          3D

 20 21  0  0  0  0  0  0  0  0999 V2000
   44.6060   36.5380   43.8500 C   0  0  0  0  0  0  0  0  0  0  0  0
   45.3040   36.1250   42.6810 C   0  0  0  0  0  0  0  0  0  0  0  0
   46.0130   34.9310   42.7290 C   0  0  0  0  0  0  0  0  0  0  0  0
   46.0020   34.2250   43.8890 N   0  0  0  0  0  0  0  0  0  0  0  0
   45.3370   34.6400   44.9710 C   0  0  0  0  0  0  0  0  0  0  0  0
   44.6320   35.7950   44.9710 N   0  0  0  0  0  0  0  0  0  0  0  0
   46.3780   32.8450   46.2220 C   0  0  0  0  0  0  0  0  0  0  0  0
   47.2190   32.6100   45.3380 O   0  0  0  0  0  0  0  0  0  0  0  0
   45.3680   33.8400   46.1680 N   0  0  0  0  0  0  0  0  0  0  0  0
   46.3770   32.0550   47.4510 C   0  0  0  0  0  0  0  0  0  0  0  0
   45.0310   31.9780   48.0120 C   0  0  0  0  0  0  0  0  0  0  0  0
   45.2870   30.9240   49.5700 S   0  0  0  0  0  0  0  0  0  0  0  0
   47.1390   30.8060   49.1460 C   0  0  0  0  0  0  0  0  0  0  0  0
   47.2440   31.3970   48.1910 N   0  0  0  0  0  0  0  0  0  0  0  0
   44.0365   37.4790   43.8369 H   0  0  0  0  0  0  0  0  0  0  0  0
   45.2829   36.7338   41.7651 H   0  0  0  0  0  0  0  0  0  0  0  0
   46.5679   34.5676   41.8515 H   0  0  0  0  0  0  0  0  0  0  0  0
   44.6982   33.9814   46.9376 H   0  0  0  0  0  0  0  0  0  0  0  0
   44.1003   32.4206   47.6275 H   0  0  0  0  0  0  0  0  0  0  0  0
   47.9275   30.2809   49.7051 H   0  0  0  0  0  0  0  0  0  0  0  0
  1  6  2  0
  2  3  2  0
  2  1  1  0
  3  4  1  0
  4  5  2  0
  5  6  1  0
  5  9  1  0
  7 10  1  0
  8  7  2  0
  9  7  1  0
 10 11  2  0
 10 14  1  0
 11 12  1  0
 13 12  1  0
 14 13  2  0
  1 15  1  0
  2 16  1  0
  3 17  1  0
  9 18  1  0
 11 19  1  0
 13 20  1  0
M  ISO  5  15  14  16  14  17  14  19  14  20  14
M  END
>  <minimizedAffinity>  (1) 
-4.46664143

>  <minimizedRMSD>  (1) 
1.15457451

$$$$
