
     RDKit          3D

 49 53  0  0  0  0  0  0  0  0999 V2000
   45.2150   35.5020   43.0530 C   0  0  0  0  0  0  0  0  0  0  0  0
   45.5750   34.1670   43.1560 C   0  0  0  0  0  0  0  0  0  0  0  0
   45.4610   33.5170   44.3610 C   0  0  0  0  0  0  0  0  0  0  0  0
   44.9790   34.2510   45.4270 N   0  0  0  0  0  0  0  0  0  0  0  0
   44.6350   35.5320   45.3210 C   0  0  0  0  0  0  0  0  0  0  0  0
   44.7590   36.1470   44.1240 N   0  0  0  0  0  0  0  0  0  0  0  0
   45.7850   32.1680   44.6320 C   0  0  0  0  0  0  0  0  0  0  0  0
   45.4440   31.1000   43.7980 C   0  0  0  0  0  0  0  0  0  0  0  0
   45.6950   29.7840   44.0860 C   0  0  0  0  0  0  0  0  0  0  0  0
   46.3250   29.4550   45.2680 C   0  0  0  0  0  0  0  0  0  0  0  0
   46.6830   30.5260   46.1330 C   0  0  0  0  0  0  0  0  0  0  0  0
   47.3050   30.2080   47.3060 C   0  0  0  0  0  0  0  0  0  0  0  0
   47.6820   31.2010   48.1910 C   0  0  0  0  0  0  0  0  0  0  0  0
   47.4200   32.5430   47.8710 C   0  0  0  0  0  0  0  0  0  0  0  0
   46.7770   32.8190   46.6510 C   0  0  0  0  0  0  0  0  0  0  0  0
   46.4120   31.8150   45.7990 C   0  0  0  0  0  0  0  0  0  0  0  0
   46.0330   33.5530   42.0250 O   0  0  0  0  0  0  0  0  0  0  0  0
   48.1890   32.3700   41.1280 O   0  0  0  0  0  0  0  0  0  0  0  0
   47.6030   33.7060   41.4150 P   0  0  1  0  0  0  0  0  0  0  0  0
   47.6100   34.5710   39.9590 O   0  0  0  0  0  0  0  0  0  0  0  0
   48.5360   33.9090   37.8710 C   0  0  0  0  0  0  0  0  0  0  0  0
   47.4640   33.8670   38.7520 C   0  0  0  0  0  0  0  0  0  0  0  0
   46.2780   33.2060   38.5530 C   0  0  0  0  0  0  0  0  0  0  0  0
   46.1440   32.5150   37.3580 C   0  0  0  0  0  0  0  0  0  0  0  0
   45.1000   31.7830   36.8990 N   0  0  0  0  0  0  0  0  0  0  0  0
   45.4770   31.3230   35.6870 C   0  0  0  0  0  0  0  0  0  0  0  0
   46.7230   31.7590   35.4010 N   0  0  0  0  0  0  0  0  0  0  0  0
   47.1730   32.5140   36.4360 C   0  0  0  0  0  0  0  0  0  0  0  0
   48.3350   33.2040   36.7120 C   0  0  0  0  0  0  0  0  0  0  0  0
   48.5280   34.5390   42.5410 O   0  0  0  0  0  0  0  0  0  0  0  0
   49.7220   35.2050   42.3090 C   0  0  0  0  0  0  0  0  0  0  0  0
   49.3800   36.2960   41.8190 O   0  0  0  0  0  0  0  0  0  0  0  0
   50.8470   34.3990   42.7130 N   0  0  0  0  0  0  0  0  0  0  0  0
   45.3059   36.0258   42.0900 H   0  0  0  0  0  0  0  0  0  0  0  0
   44.2554   36.0822   46.1946 H   0  0  0  0  0  0  0  0  0  0  0  0
   44.9408   31.3309   42.8475 H   0  0  0  0  0  0  0  0  0  0  0  0
   45.3962   28.9956   43.3795 H   0  0  0  0  0  0  0  0  0  0  0  0
   46.5414   28.4090   45.5306 H   0  0  0  0  0  0  0  0  0  0  0  0
   47.5076   29.1544   47.5486 H   0  0  0  0  0  0  0  0  0  0  0  0
   48.1820   30.9425   49.1361 H   0  0  0  0  0  0  0  0  0  0  0  0
   47.7093   33.3547   48.5547 H   0  0  0  0  0  0  0  0  0  0  0  0
   46.5639   33.8629   46.3775 H   0  0  0  0  0  0  0  0  0  0  0  0
   49.4645   34.4591   38.0837 H   0  0  0  0  0  0  0  0  0  0  0  0
   45.4740   33.2233   39.3035 H   0  0  0  0  0  0  0  0  0  0  0  0
   44.2034   31.6126   37.3765 H   0  0  0  0  0  0  0  0  0  0  0  0
   44.8622   30.6888   35.0314 H   0  0  0  0  0  0  0  0  0  0  0  0
   49.1416   33.1880   35.9643 H   0  0  0  0  0  0  0  0  0  0  0  0
   51.8053   34.7599   42.6022 H   0  0  0  0  0  0  0  0  0  0  0  0
   50.6924   33.4623   43.1124 H   0  0  0  0  0  0  0  0  0  0  0  0
  1  2  2  0
  1  6  1  0
  2  3  1  0
  3  7  1  0
  3  4  2  0
  5  4  1  0
  6  5  2  0
  7 16  2  0
  8  9  2  0
  8  7  1  0
  9 10  1  0
 10 11  2  0
 11 12  1  0
 12 13  2  0
 14 13  1  0
 15 14  2  0
 16 11  1  0
 16 15  1  0
 17  2  1  0
 19 18  2  0
 19 17  1  0
 19 30  1  0
 20 19  1  0
 21 22  2  0
 22 20  1  0
 23 22  1  0
 24 23  2  0
 25 24  1  0
 26 25  1  0
 27 26  2  0
 27 28  1  0
 28 29  2  0
 28 24  1  0
 29 21  1  0
 31 30  1  0
 31 33  1  0
 32 31  2  0
  1 34  1  0
  5 35  1  0
  8 36  1  0
  9 37  1  0
 10 38  1  0
 12 39  1  0
 13 40  1  0
 14 41  1  0
 15 42  1  0
 21 43  1  0
 23 44  1  0
 25 45  1  0
 26 46  1  0
 29 47  1  0
 33 48  1  0
 33 49  1  0
M  ISO  8  34  14  35  14  36  14  37  14  38  14  39  14  40  14  41  14
M  ISO  6  42  14  43  14  44  14  45   9  46  14  47  14
M  END
>  <minimizedAffinity>  (1) 
-6.59863615

>  <minimizedRMSD>  (1) 
2.29123759

$$$$
