
     RDKit          3D

 30 32  0  0  0  0  0  0  0  0999 V2000
   42.7470   35.2950   39.8670 C   0  0  0  0  0  0  0  0  0  0  0  0
   40.2240   35.3130   39.7300 C   0  0  0  0  0  0  0  0  0  0  0  0
   41.4520   34.7050   39.4490 C   0  0  0  0  0  0  0  0  0  0  0  0
   41.4740   33.5170   38.7640 C   0  0  0  0  0  0  0  0  0  0  0  0
   40.3160   32.8770   38.3250 C   0  0  0  0  0  0  0  0  0  0  0  0
   40.0570   31.7410   37.6520 N   0  0  0  0  0  0  0  0  0  0  0  0
   38.7160   31.6500   37.5220 C   0  0  0  0  0  0  0  0  0  0  0  0
   38.1390   32.7230   38.1090 N   0  0  0  0  0  0  0  0  0  0  0  0
   39.0990   33.4890   38.6080 C   0  0  0  0  0  0  0  0  0  0  0  0
   39.0840   34.6830   39.2990 C   0  0  0  0  0  0  0  0  0  0  0  0
   44.0140   35.3730   41.9800 C   0  0  0  0  0  0  0  0  0  0  0  0
   43.1850   34.7420   41.1850 C   0  0  0  0  0  0  0  0  0  0  0  0
   44.3110   35.6940   44.4150 C   0  0  0  0  0  0  0  0  0  0  0  0
   44.4960   34.9250   43.2690 C   0  0  0  0  0  0  0  0  0  0  0  0
   45.1550   33.7140   43.3980 C   0  0  0  0  0  0  0  0  0  0  0  0
   45.5960   33.3220   44.6330 N   0  0  0  0  0  0  0  0  0  0  0  0
   45.3980   34.0990   45.7280 C   0  0  0  0  0  0  0  0  0  0  0  0
   44.7580   35.2790   45.6150 N   0  0  0  0  0  0  0  0  0  0  0  0
   42.6344   36.3858   39.9537 H   0  0  0  0  0  0  0  0  0  0  0  0
   43.5067   35.0457   39.1115 H   0  0  0  0  0  0  0  0  0  0  0  0
   40.1740   36.2651   40.2786 H   0  0  0  0  0  0  0  0  0  0  0  0
   42.4468   33.0493   38.5520 H   0  0  0  0  0  0  0  0  0  0  0  0
   40.7520   31.0666   37.3014 H   0  0  0  0  0  0  0  0  0  0  0  0
   38.1784   30.8329   37.0186 H   0  0  0  0  0  0  0  0  0  0  0  0
   38.1125   35.1518   39.5145 H   0  0  0  0  0  0  0  0  0  0  0  0
   44.3833   36.3482   41.6299 H   0  0  0  0  0  0  0  0  0  0  0  0
   42.7947   33.7634   41.5011 H   0  0  0  0  0  0  0  0  0  0  0  0
   43.7894   36.6594   44.3382 H   0  0  0  0  0  0  0  0  0  0  0  0
   45.3221   33.0747   42.5185 H   0  0  0  0  0  0  0  0  0  0  0  0
   45.7612   33.7642   46.7108 H   0  0  0  0  0  0  0  0  0  0  0  0
  1 12  1  0
  3  2  2  0
  3  1  1  0
  4  3  1  0
  5  9  1  0
  5  4  2  0
  6  5  1  0
  7  6  1  0
  7  8  2  0
  8  9  1  0
  9 10  2  0
 10  2  1  0
 11 14  1  0
 12 11  2  0
 13 18  2  0
 14 15  2  0
 14 13  1  0
 15 16  1  0
 16 17  2  0
 18 17  1  0
  1 19  1  0
  1 20  1  0
  2 21  1  0
  4 22  1  0
  6 23  1  0
  7 24  1  0
 10 25  1  0
 11 26  1  0
 12 27  1  0
 13 28  1  0
 15 29  1  0
 17 30  1  0
M  ISO  8  19   8  20   8  21  14  22  14  23   9  24  14  25  14  28  14
M  ISO  2  29  14  30  14
M  END
>  <minimizedAffinity>  (1) 
-5.2069726

>  <minimizedRMSD>  (1) 
2.24265409

$$$$
