
     RDKit          3D

 46 50  0  0  0  0  0  0  0  0999 V2000
   47.9440   34.4370   40.9860 C   0  0  0  0  0  0  0  0  0  0  0  0
   48.2060   33.0610   40.9280 C   0  0  0  0  0  0  0  0  0  0  0  0
   47.1530   32.1530   41.2050 C   0  0  0  0  0  0  0  0  0  0  0  0
   45.9470   32.7040   41.5120 N   0  0  0  0  0  0  0  0  0  0  0  0
   45.7230   34.0230   41.5600 C   0  0  0  0  0  0  0  0  0  0  0  0
   46.7190   34.8640   41.2970 N   0  0  0  0  0  0  0  0  0  0  0  0
   48.9970   35.3360   40.7080 N   0  0  0  0  0  0  0  0  0  0  0  0
   49.5120   32.5070   40.5940 C   0  0  0  0  0  0  0  0  0  0  0  0
   50.5910   32.3000   41.4140 C   0  0  0  0  0  0  0  0  0  0  0  0
   51.7600   31.7560   40.9130 C   0  0  0  0  0  0  0  0  0  0  0  0
   51.8940   31.4020   39.5810 C   0  0  0  0  0  0  0  0  0  0  0  0
   53.0550   30.8860   39.1810 N   0  0  0  0  0  0  0  0  0  0  0  0
   53.2080   30.5290   37.8710 C   0  0  0  0  0  0  0  0  0  0  0  0
   52.1250   30.7310   37.0230 C   0  0  0  0  0  0  0  0  0  0  0  0
   50.9180   31.2620   37.4160 C   0  0  0  0  0  0  0  0  0  0  0  0
   50.8010   31.6130   38.7540 C   0  0  0  0  0  0  0  0  0  0  0  0
   49.6180   32.1570   39.2410 C   0  0  0  0  0  0  0  0  0  0  0  0
   44.3520   34.4770   41.9030 C   0  0  0  0  0  0  0  0  0  0  0  0
   43.3520   33.3190   41.7040 C   0  0  0  0  0  0  0  0  0  0  0  0
   41.3500   33.0110   40.3120 C   0  0  0  0  0  0  0  0  0  0  0  0
   42.4640   33.7610   40.5720 C   0  0  0  0  0  0  0  0  0  0  0  0
   42.7380   34.8720   39.8100 C   0  0  0  0  0  0  0  0  0  0  0  0
   41.8680   35.2200   38.7740 C   0  0  0  0  0  0  0  0  0  0  0  0
   41.8750   36.2400   37.8700 N   0  0  0  0  0  0  0  0  0  0  0  0
   40.7860   36.0940   37.0930 C   0  0  0  0  0  0  0  0  0  0  0  0
   40.1040   35.0020   37.4980 N   0  0  0  0  0  0  0  0  0  0  0  0
   40.7450   34.4300   38.5420 C   0  0  0  0  0  0  0  0  0  0  0  0
   40.4560   33.3050   39.3050 C   0  0  0  0  0  0  0  0  0  0  0  0
   47.3024   31.0637   41.1735 H   0  0  0  0  0  0  0  0  0  0  0  0
   49.9324   34.9760   40.4708 H   0  0  0  0  0  0  0  0  0  0  0  0
   48.8296   36.3517   40.7424 H   0  0  0  0  0  0  0  0  0  0  0  0
   50.5267   32.5686   42.4788 H   0  0  0  0  0  0  0  0  0  0  0  0
   52.6096   31.5997   41.5939 H   0  0  0  0  0  0  0  0  0  0  0  0
   54.1507   30.0988   37.5020 H   0  0  0  0  0  0  0  0  0  0  0  0
   52.2408   30.4472   35.9666 H   0  0  0  0  0  0  0  0  0  0  0  0
   50.0888   31.4012   36.7068 H   0  0  0  0  0  0  0  0  0  0  0  0
   48.7649   32.3128   38.5643 H   0  0  0  0  0  0  0  0  0  0  0  0
   44.3277   34.8039   42.9530 H   0  0  0  0  0  0  0  0  0  0  0  0
   44.0724   35.3146   41.2471 H   0  0  0  0  0  0  0  0  0  0  0  0
   43.8818   32.3917   41.4403 H   0  0  0  0  0  0  0  0  0  0  0  0
   42.7797   33.1056   42.6188 H   0  0  0  0  0  0  0  0  0  0  0  0
   41.1578   32.1278   40.9389 H   0  0  0  0  0  0  0  0  0  0  0  0
   43.6319   35.4798   40.0137 H   0  0  0  0  0  0  0  0  0  0  0  0
   42.5827   36.9846   37.7954 H   0  0  0  0  0  0  0  0  0  0  0  0
   40.4986   36.7565   36.2632 H   0  0  0  0  0  0  0  0  0  0  0  0
   39.5665   32.6859   39.1165 H   0  0  0  0  0  0  0  0  0  0  0  0
  1  6  2  0
  2  1  1  0
  2  3  2  0
  3  4  1  0
  4  5  2  0
  5 18  1  0
  6  5  1  0
  7  1  1  0
  8  2  1  0
  8  9  2  0
 10  9  1  0
 11 10  2  0
 12 11  1  0
 13 12  2  0
 14 15  2  0
 14 13  1  0
 15 16  1  0
 16 17  2  0
 16 11  1  0
 17  8  1  0
 19 18  1  0
 20 21  2  0
 21 19  1  0
 22 21  1  0
 23 22  2  0
 24 23  1  0
 25 26  2  0
 25 24  1  0
 26 27  1  0
 27 23  1  0
 27 28  2  0
 28 20  1  0
  3 29  1  0
  7 30  1  0
  7 31  1  0
  9 32  1  0
 10 33  1  0
 13 34  1  0
 14 35  1  0
 15 36  1  0
 17 37  1  0
 18 38  1  0
 18 39  1  0
 19 40  1  0
 19 41  1  0
 20 42  1  0
 22 43  1  0
 24 44  1  0
 25 45  1  0
 28 46  1  0
M  ISO  8  29  14  32  14  33  14  34  14  35  14  36  14  37  14  38   8
M  ISO  8  39   8  40   8  41   8  42  14  43  14  44   9  45  14  46  14
M  END
>  <minimizedAffinity>  (1) 
-5.64681864

>  <minimizedRMSD>  (1) 
8.36699867

$$$$
