
     RDKit          3D

 40 43  0  0  0  0  0  0  0  0999 V2000
   47.6600   30.0480   44.9210 F   0  0  0  0  0  0  0  0  0  0  0  0
   47.5230   30.8150   46.0560 C   0  0  0  0  0  0  0  0  0  0  0  0
   46.9400   32.0660   45.9610 C   0  0  0  0  0  0  0  0  0  0  0  0
   46.8340   32.7880   47.1490 C   0  0  0  0  0  0  0  0  0  0  0  0
   47.2890   32.2670   48.3370 C   0  0  0  0  0  0  0  0  0  0  0  0
   47.8630   31.0070   48.3630 C   0  0  0  0  0  0  0  0  0  0  0  0
   47.9960   30.2450   47.2180 C   0  0  0  0  0  0  0  0  0  0  0  0
   49.9670   28.9010   47.0490 C   0  0  0  0  0  0  0  0  0  0  0  0
   48.5980   28.9140   47.2220 C   0  0  0  0  0  0  0  0  0  0  0  0
   47.9400   27.7120   47.3780 C   0  0  0  0  0  0  0  0  0  0  0  0
   48.6290   26.5180   47.3620 C   0  0  0  0  0  0  0  0  0  0  0  0
   48.2190   25.2400   47.4910 N   0  0  0  0  0  0  0  0  0  0  0  0
   49.2940   24.4490   47.4020 C   0  0  0  0  0  0  0  0  0  0  0  0
   50.4180   25.1820   47.2160 N   0  0  0  0  0  0  0  0  0  0  0  0
   50.0170   26.4680   47.1890 C   0  0  0  0  0  0  0  0  0  0  0  0
   50.6530   27.6980   47.0350 C   0  0  0  0  0  0  0  0  0  0  0  0
   46.7770   34.1210   42.9660 C   0  0  0  0  0  0  0  0  0  0  0  0
   45.6410   33.6690   42.3020 C   0  0  0  0  0  0  0  0  0  0  0  0
   44.9140   32.6260   42.9080 C   0  0  0  0  0  0  0  0  0  0  0  0
   45.3480   32.1220   44.0870 N   0  0  0  0  0  0  0  0  0  0  0  0
   46.4630   32.6010   44.6900 C   0  0  0  0  0  0  0  0  0  0  0  0
   47.1610   33.5940   44.1220 N   0  0  0  0  0  0  0  0  0  0  0  0
   45.2330   34.2720   41.0180 C   0  0  0  0  0  0  0  0  0  0  0  0
   44.9120   35.6010   41.1990 F   0  0  0  0  0  0  0  0  0  0  0  0
   46.3420   34.2460   40.1700 F   0  0  0  0  0  0  0  0  0  0  0  0
   44.1960   33.6620   40.3920 F   0  0  0  0  0  0  0  0  0  0  0  0
   47.4650   35.1260   42.3700 O   0  0  0  0  0  0  0  0  0  0  0  0
   48.7930   35.0700   41.8870 C   0  0  0  0  0  0  0  0  0  0  0  0
   49.6380   35.3420   42.9660 F   0  0  0  0  0  0  0  0  0  0  0  0
   49.0370   33.8450   41.3210 F   0  0  0  0  0  0  0  0  0  0  0  0
   49.0100   36.1130   41.0100 F   0  0  0  0  0  0  0  0  0  0  0  0
   46.3794   33.7896   47.1355 H   0  0  0  0  0  0  0  0  0  0  0  0
   47.1973   32.8499   49.2653 H   0  0  0  0  0  0  0  0  0  0  0  0
   48.2226   30.6021   49.3205 H   0  0  0  0  0  0  0  0  0  0  0  0
   50.5139   29.8470   46.9221 H   0  0  0  0  0  0  0  0  0  0  0  0
   46.8489   27.7059   47.5173 H   0  0  0  0  0  0  0  0  0  0  0  0
   47.2479   24.9275   47.6332 H   0  0  0  0  0  0  0  0  0  0  0  0
   49.2688   23.3514   47.4706 H   0  0  0  0  0  0  0  0  0  0  0  0
   51.7441   27.7143   46.8967 H   0  0  0  0  0  0  0  0  0  0  0  0
   44.0070   32.2269   42.4304 H   0  0  0  0  0  0  0  0  0  0  0  0
  1  2  1  0
  2  7  2  0
  3  2  1  0
  3  4  2  0
  4  5  1  0
  5  6  2  0
  7  9  1  0
  7  6  1  0
  8  9  2  0
  9 10  1  0
 11 10  2  0
 11 12  1  0
 13 12  1  0
 14 13  2  0
 15 14  1  0
 15 11  1  0
 16  8  1  0
 16 15  2  0
 17 22  2  0
 18 19  2  0
 18 17  1  0
 19 20  1  0
 20 21  2  0
 21  3  1  0
 22 21  1  0
 23 24  1  0
 23 18  1  0
 25 23  1  0
 26 23  1  0
 27 17  1  0
 28 27  1  0
 28 29  1  0
 30 28  1  0
 31 28  1  0
  4 32  1  0
  5 33  1  0
  6 34  1  0
  8 35  1  0
 10 36  1  0
 12 37  1  0
 13 38  1  0
 16 39  1  0
 19 40  1  0
M  ISO  8  32  14  33  14  34  14  35  14  36  14  37   9  38  14  39  14
M  ISO  1  40  14
M  END
>  <minimizedAffinity>  (1) 
-5.77137041

>  <minimizedRMSD>  (1) 
0.555885375

$$$$
