
     RDKit          3D

 30 33  0  0  0  0  0  0  0  0999 V2000
   47.1530   31.1840   45.6910 C   0  0  0  0  0  0  0  0  0  0  0  0
   47.9100   30.1200   45.1890 C   0  0  0  0  0  0  0  0  0  0  0  0
   48.3800   30.4850   43.9670 C   0  0  0  0  0  0  0  0  0  0  0  0
   47.9270   31.7280   43.7250 N   0  0  0  0  0  0  0  0  0  0  0  0
   47.1910   32.1450   44.7620 N   0  0  0  0  0  0  0  0  0  0  0  0
   48.1860   34.0430   42.8710 C   0  0  0  0  0  0  0  0  0  0  0  0
   48.0470   32.6680   42.6610 C   0  0  0  0  0  0  0  0  0  0  0  0
   48.0210   32.1810   41.3560 C   0  0  0  0  0  0  0  0  0  0  0  0
   48.1310   33.0250   40.2500 C   0  0  0  0  0  0  0  0  0  0  0  0
   48.1350   32.8090   38.9240 N   0  0  0  0  0  0  0  0  0  0  0  0
   48.2680   33.9820   38.3040 C   0  0  0  0  0  0  0  0  0  0  0  0
   48.3500   34.9410   39.2600 N   0  0  0  0  0  0  0  0  0  0  0  0
   48.2660   34.3630   40.4840 C   0  0  0  0  0  0  0  0  0  0  0  0
   48.2950   34.8820   41.7670 C   0  0  0  0  0  0  0  0  0  0  0  0
   45.9160   32.3590   48.9430 C   0  0  0  0  0  0  0  0  0  0  0  0
   45.1840   31.2490   49.3980 C   0  0  0  0  0  0  0  0  0  0  0  0
   45.1170   30.0880   48.5740 C   0  0  0  0  0  0  0  0  0  0  0  0
   45.7740   30.1240   47.3810 N   0  0  0  0  0  0  0  0  0  0  0  0
   46.4700   31.2120   46.9800 C   0  0  0  0  0  0  0  0  0  0  0  0
   46.5400   32.3190   47.7510 N   0  0  0  0  0  0  0  0  0  0  0  0
   48.0923   29.1595   45.6932 H   0  0  0  0  0  0  0  0  0  0  0  0
   49.0117   29.8783   43.3015 H   0  0  0  0  0  0  0  0  0  0  0  0
   48.2088   34.4541   43.8910 H   0  0  0  0  0  0  0  0  0  0  0  0
   47.9105   31.0989   41.1925 H   0  0  0  0  0  0  0  0  0  0  0  0
   48.0497   31.8915   38.4637 H   0  0  0  0  0  0  0  0  0  0  0  0
   48.3045   34.1426   37.2164 H   0  0  0  0  0  0  0  0  0  0  0  0
   48.4051   35.9665   41.9146 H   0  0  0  0  0  0  0  0  0  0  0  0
   45.9793   33.2648   49.5639 H   0  0  0  0  0  0  0  0  0  0  0  0
   44.6725   31.2757   50.3715 H   0  0  0  0  0  0  0  0  0  0  0  0
   44.5557   29.1961   48.8895 H   0  0  0  0  0  0  0  0  0  0  0  0
  1 19  1  0
  2  1  1  0
  3  2  2  0
  4  3  1  0
  4  5  1  0
  5  1  2  0
  7  6  2  0
  7  4  1  0
  8  7  1  0
  9 13  1  0
  9  8  2  0
 10  9  1  0
 11 10  1  0
 11 12  2  0
 12 13  1  0
 13 14  2  0
 14  6  1  0
 15 16  2  0
 17 16  1  0
 18 17  2  0
 19 18  1  0
 19 20  2  0
 20 15  1  0
  2 21  1  0
  3 22  1  0
  6 23  1  0
  8 24  1  0
 10 25  1  0
 11 26  1  0
 14 27  1  0
 15 28  1  0
 16 29  1  0
 17 30  1  0
M  ISO  8  21  14  22  14  23  14  24  14  25   9  26  14  27  14  28  14
M  ISO  2  29  14  30  14
M  END
>  <minimizedAffinity>  (1) 
-4.91772175

>  <minimizedRMSD>  (1) 
9.2850771

$$$$
