
     RDKit          3D

 48 51  0  0  1  0  0  0  0  0999 V2000
   47.1060   32.9850   47.0530 O   0  0  0  0  0  0  0  0  0  0  0  0
   45.6600   32.6560   46.9360 P   0  0  1  0  0  0  0  0  0  0  0  0
   45.4400   31.5480   45.6740 O   0  0  0  0  0  0  0  0  0  0  0  0
   45.1980   31.9730   48.3650 O   0  0  0  0  0  0  0  0  0  0  0  0
   47.1100   30.5470   48.2680 C   0  0  2  0  0  0  0  0  0  0  0  0
   45.6450   30.6780   48.4410 C   0  0  2  0  0  0  0  0  0  0  0  0
   45.0400   29.8050   47.4580 C   0  0  0  0  0  0  0  0  0  0  0  0
   45.9720   28.8230   47.0930 O   0  0  0  0  0  0  0  0  0  0  0  0
   47.0490   29.0130   47.8910 C   0  0  0  0  0  0  0  0  0  0  0  0
   47.8760   30.6600   49.3660 O   0  0  0  0  0  0  0  0  0  0  0  0
   49.1230   31.0350   49.3980 C   0  0  0  0  0  0  0  0  0  0  0  0
   49.8500   30.2050   50.4450 C   0  0  0  0  0  0  0  0  0  0  0  0
   44.8650   34.1320   46.6220 O   0  0  0  0  0  0  0  0  0  0  0  0
   45.2200   34.4900   43.0680 C   0  0  0  0  0  0  0  0  0  0  0  0
   45.0210   35.8720   42.8400 C   0  0  0  0  0  0  0  0  0  0  0  0
   44.7590   36.6610   43.9820 C   0  0  0  0  0  0  0  0  0  0  0  0
   44.7150   36.0690   45.1920 N   0  0  0  0  0  0  0  0  0  0  0  0
   44.9110   34.7530   45.3610 C   0  0  0  0  0  0  0  0  0  0  0  0
   45.1600   33.9810   44.2970 N   0  0  0  0  0  0  0  0  0  0  0  0
   45.4750   33.6820   41.9970 O   0  0  0  0  0  0  0  0  0  0  0  0
   43.1710   33.0990   41.5660 C   0  0  0  0  0  0  0  0  0  0  0  0
   44.4930   33.1800   41.1630 C   0  0  0  0  0  0  0  0  0  0  0  0
   44.9620   32.7770   39.9190 C   0  0  0  0  0  0  0  0  0  0  0  0
   44.0350   32.2590   39.0230 C   0  0  0  0  0  0  0  0  0  0  0  0
   44.1750   31.7880   37.7570 N   0  0  0  0  0  0  0  0  0  0  0  0
   42.9450   31.4080   37.3510 C   0  0  0  0  0  0  0  0  0  0  0  0
   42.0520   31.6300   38.3260 N   0  0  0  0  0  0  0  0  0  0  0  0
   42.7050   32.1580   39.3780 C   0  0  0  0  0  0  0  0  0  0  0  0
   42.2750   32.5740   40.6360 C   0  0  0  0  0  0  0  0  0  0  0  0
   45.2617   30.6500   46.0506 H   0  0  0  0  0  0  0  0  0  0  0  0
   47.5466   31.3080   47.6045 H   0  0  0  0  0  0  0  0  0  0  0  0
   45.3520   30.3769   49.4576 H   0  0  0  0  0  0  0  0  0  0  0  0
   44.1475   29.3265   47.8876 H   0  0  0  0  0  0  0  0  0  0  0  0
   44.7433   30.3868   46.5729 H   0  0  0  0  0  0  0  0  0  0  0  0
   46.9492   28.4075   48.8039 H   0  0  0  0  0  0  0  0  0  0  0  0
   47.9695   28.7094   47.3709 H   0  0  0  0  0  0  0  0  0  0  0  0
   49.5840   30.8751   48.4121 H   0  0  0  0  0  0  0  0  0  0  0  0
   49.1889   32.1033   49.6517 H   0  0  0  0  0  0  0  0  0  0  0  0
   49.5549   30.5419   51.4497 H   0  0  0  0  0  0  0  0  0  0  0  0
   49.5848   29.1446   50.3212 H   0  0  0  0  0  0  0  0  0  0  0  0
   50.9361   30.3282   50.3212 H   0  0  0  0  0  0  0  0  0  0  0  0
   45.0676   36.3073   41.8309 H   0  0  0  0  0  0  0  0  0  0  0  0
   44.5931   37.7441   43.8851 H   0  0  0  0  0  0  0  0  0  0  0  0
   42.8461   33.4301   42.5634 H   0  0  0  0  0  0  0  0  0  0  0  0
   46.0259   32.8646   39.6537 H   0  0  0  0  0  0  0  0  0  0  0  0
   45.0481   31.7318   37.2134 H   0  0  0  0  0  0  0  0  0  0  0  0
   42.7100   30.9794   36.3656 H   0  0  0  0  0  0  0  0  0  0  0  0
   41.2107   32.4868   40.8999 H   0  0  0  0  0  0  0  0  0  0  0  0
  2  1  2  0
  2  4  1  0
  3  2  1  0
  4  6  1  0
  5  6  1  0
  5 10  1  0
  7  6  1  0
  8  7  1  0
  8  9  1  0
  9  5  1  0
 10 11  1  0
 11 12  1  0
 13  2  1  0
 14 19  1  0
 15 14  2  0
 15 16  1  0
 16 17  2  0
 17 18  1  0
 18 13  1  0
 19 18  2  0
 20 14  1  0
 22 21  2  0
 22 20  1  0
 23 22  1  0
 24 28  1  0
 24 23  2  0
 25 24  1  0
 26 25  1  0
 26 27  2  0
 27 28  1  0
 28 29  2  0
 29 21  1  0
  3 30  1  0
  5 31  1  6
  6 32  1  1
  7 33  1  0
  7 34  1  0
  9 35  1  0
  9 36  1  0
 11 37  1  0
 11 38  1  0
 12 39  1  0
 12 40  1  0
 12 41  1  0
 15 42  1  0
 16 43  1  0
 21 44  1  0
 23 45  1  0
 25 46  1  0
 26 47  1  0
 29 48  1  0
M  ISO  8  30   3  31  13  32  13  33  13  34  13  35  13  36  13  37   8
M  ISO  8  38   8  39   8  40   8  41   8  42  14  43  14  44  14  45  14
M  ISO  3  46   9  47  14  48  14
M  END
>  <minimizedAffinity>  (1) 
-4.98975706

>  <minimizedRMSD>  (1) 
6.05387974

$$$$
