
     RDKit          3D

 46 49  0  0  1  0  0  0  0  0999 V2000
   46.5300   34.4030   43.8360 C   0  0  2  0  0  0  0  0  0  0  0  0
   46.0590   33.1770   44.5540 C   0  0  0  0  0  0  0  0  0  0  0  0
   45.4720   33.8090   45.7900 C   0  0  0  0  0  0  0  0  0  0  0  0
   44.8380   35.0400   45.3160 C   0  0  0  0  0  0  0  0  0  0  0  0
   45.2640   35.2190   43.7770 C   0  0  2  0  0  0  0  0  0  0  0  0
   48.1940   34.7360   40.4910 C   0  0  0  0  0  0  0  0  0  0  0  0
   47.7130   35.1270   41.7580 C   0  0  0  0  0  0  0  0  0  0  0  0
   47.0770   34.1770   42.4820 C   0  0  0  0  0  0  0  0  0  0  0  0
   46.9380   32.8940   41.9450 N   0  0  0  0  0  0  0  0  0  0  0  0
   47.4050   32.5540   40.7410 C   0  0  0  0  0  0  0  0  0  0  0  0
   48.0330   33.4760   40.0130 N   0  0  0  0  0  0  0  0  0  0  0  0
   44.2590   34.6290   43.0330 O   0  0  0  0  0  0  0  0  0  0  0  0
   43.5360   35.2100   42.0290 C   0  0  0  0  0  0  0  0  0  0  0  0
   44.1960   36.2590   41.6530 O   0  0  0  0  0  0  0  0  0  0  0  0
   42.3680   35.2510   41.1410 C   0  0  0  0  0  0  0  0  0  0  0  0
   41.1940   35.8750   41.2960 C   0  0  0  0  0  0  0  0  0  0  0  0
   39.9800   35.9790   40.4540 C   0  0  0  0  0  0  0  0  0  0  0  0
   39.4470   34.3820   38.5690 C   0  0  0  0  0  0  0  0  0  0  0  0
   39.5140   34.6820   39.9140 C   0  0  0  0  0  0  0  0  0  0  0  0
   39.1180   33.6950   40.8240 C   0  0  0  0  0  0  0  0  0  0  0  0
   38.6750   32.4660   40.3460 C   0  0  0  0  0  0  0  0  0  0  0  0
   38.2390   31.3480   40.9600 N   0  0  0  0  0  0  0  0  0  0  0  0
   37.9180   30.4070   40.0490 C   0  0  0  0  0  0  0  0  0  0  0  0
   38.1680   30.9730   38.8380 N   0  0  0  0  0  0  0  0  0  0  0  0
   38.6290   32.2260   39.0060 C   0  0  0  0  0  0  0  0  0  0  0  0
   39.0140   33.1750   38.0600 C   0  0  0  0  0  0  0  0  0  0  0  0
   47.3814   34.8704   44.3524 H   0  0  0  0  0  0  0  0  0  0  0  0
   45.3001   32.6306   43.9748 H   0  0  0  0  0  0  0  0  0  0  0  0
   46.8368   32.4226   44.7434 H   0  0  0  0  0  0  0  0  0  0  0  0
   44.7278   33.1422   46.2499 H   0  0  0  0  0  0  0  0  0  0  0  0
   46.2345   34.0042   46.5584 H   0  0  0  0  0  0  0  0  0  0  0  0
   43.7442   34.9588   45.3991 H   0  0  0  0  0  0  0  0  0  0  0  0
   45.1566   35.9046   45.9168 H   0  0  0  0  0  0  0  0  0  0  0  0
   45.4055   36.2230   43.3503 H   0  0  0  0  0  0  0  0  0  0  0  0
   48.7173   35.4774   39.8693 H   0  0  0  0  0  0  0  0  0  0  0  0
   47.8478   36.1506   42.1377 H   0  0  0  0  0  0  0  0  0  0  0  0
   47.2735   31.5314   40.3575 H   0  0  0  0  0  0  0  0  0  0  0  0
   42.4736   34.6822   40.2054 H   0  0  0  0  0  0  0  0  0  0  0  0
   41.1143   36.4245   42.2456 H   0  0  0  0  0  0  0  0  0  0  0  0
   39.1721   36.4116   41.0624 H   0  0  0  0  0  0  0  0  0  0  0  0
   40.2417   36.6095   39.5914 H   0  0  0  0  0  0  0  0  0  0  0  0
   39.7599   35.1574   37.8543 H   0  0  0  0  0  0  0  0  0  0  0  0
   39.1567   33.8891   41.9060 H   0  0  0  0  0  0  0  0  0  0  0  0
   38.1620   31.2293   41.9802 H   0  0  0  0  0  0  0  0  0  0  0  0
   37.5346   29.3946   40.2443 H   0  0  0  0  0  0  0  0  0  0  0  0
   38.9751   32.9746   36.9791 H   0  0  0  0  0  0  0  0  0  0  0  0
  1  2  1  0
  2  3  1  0
  4  3  1  0
  5  1  1  0
  5  4  1  0
  6  7  2  0
  7  8  1  0
  8  1  1  0
  9  8  2  0
 10  9  1  0
 11  6  1  0
 11 10  2  0
 12  5  1  0
 13 12  1  0
 14 13  2  0
 15 16  2  0
 15 13  1  0
 17 16  1  0
 18 19  2  0
 19 17  1  0
 19 20  1  0
 21 20  2  0
 21 22  1  0
 23 22  1  0
 24 25  1  0
 24 23  2  0
 25 21  1  0
 26 18  1  0
 26 25  2  0
  1 27  1  1
  2 28  1  0
  2 29  1  0
  3 30  1  0
  3 31  1  0
  4 32  1  0
  4 33  1  0
  5 34  1  6
  6 35  1  0
  7 36  1  0
 10 37  1  0
 15 38  1  0
 16 39  1  0
 17 40  1  0
 17 41  1  0
 18 42  1  0
 20 43  1  0
 22 44  1  0
 23 45  1  0
 26 46  1  0
M  ISO  8  27  13  28  13  29  13  30  13  31  13  32  13  33  13  34  13
M  ISO  8  35  14  36  14  37  14  40   8  41   8  42  14  43  14  44   9
M  ISO  2  45  14  46  14
M  END
>  <minimizedAffinity>  (1) 
-6.56583118

>  <minimizedRMSD>  (1) 
0.808985174

$$$$
