
     RDKit          3D

 41 44  0  0  1  0  0  0  0  0999 V2000
   45.9900   32.9280   46.2130 N   0  0  0  0  0  0  0  0  0  0  0  0
   45.2780   33.0760   47.4860 C   0  0  0  0  0  0  0  0  0  0  0  0
   46.0960   32.3060   48.5150 C   0  0  0  0  0  0  0  0  0  0  0  0
   45.9080   30.8410   48.2240 C   0  0  0  0  0  0  0  0  0  0  0  0
   46.3230   30.5960   46.8060 C   0  0  0  0  0  0  0  0  0  0  0  0
   46.7950   31.7750   46.0570 C   0  0  1  0  0  0  0  0  0  0  0  0
   45.4410   30.9660   44.0790 C   0  0  0  0  0  0  0  0  0  0  0  0
   46.6730   31.3020   44.6060 C   0  0  0  0  0  0  0  0  0  0  0  0
   47.7980   31.1510   43.7810 C   0  0  0  0  0  0  0  0  0  0  0  0
   47.6430   30.6840   42.5010 C   0  0  0  0  0  0  0  0  0  0  0  0
   48.6120   30.4730   41.5620 N   0  0  0  0  0  0  0  0  0  0  0  0
   47.9560   30.0110   40.4700 C   0  0  0  0  0  0  0  0  0  0  0  0
   46.6340   29.9400   40.7300 N   0  0  0  0  0  0  0  0  0  0  0  0
   46.4010   30.3560   41.9990 C   0  0  0  0  0  0  0  0  0  0  0  0
   45.2890   30.4970   42.7900 C   0  0  0  0  0  0  0  0  0  0  0  0
   46.5500   34.8780   43.1290 C   0  0  0  0  0  0  0  0  0  0  0  0
   46.7460   33.9300   44.1380 C   0  0  0  0  0  0  0  0  0  0  0  0
   45.8640   33.8780   45.2030 C   0  0  0  0  0  0  0  0  0  0  0  0
   44.8360   34.7680   45.2180 N   0  0  0  0  0  0  0  0  0  0  0  0
   44.6520   35.6880   44.2400 C   0  0  0  0  0  0  0  0  0  0  0  0
   45.5150   35.7370   43.1940 N   0  0  0  0  0  0  0  0  0  0  0  0
   47.5100   34.8690   41.9760 C   0  0  0  0  0  0  0  0  0  0  0  0
   46.8570   34.6570   40.7670 F   0  0  0  0  0  0  0  0  0  0  0  0
   48.1650   36.0810   41.9830 F   0  0  0  0  0  0  0  0  0  0  0  0
   48.4530   33.8680   42.1650 F   0  0  0  0  0  0  0  0  0  0  0  0
   45.2124   34.1377   47.7663 H   0  0  0  0  0  0  0  0  0  0  0  0
   44.2491   32.6927   47.4198 H   0  0  0  0  0  0  0  0  0  0  0  0
   47.1593   32.5743   48.4290 H   0  0  0  0  0  0  0  0  0  0  0  0
   45.7672   32.5475   49.5365 H   0  0  0  0  0  0  0  0  0  0  0  0
   46.5309   30.2419   48.9045 H   0  0  0  0  0  0  0  0  0  0  0  0
   44.8565   30.5533   48.3705 H   0  0  0  0  0  0  0  0  0  0  0  0
   47.1371   29.8563   46.8168 H   0  0  0  0  0  0  0  0  0  0  0  0
   45.4145   30.2587   46.2856 H   0  0  0  0  0  0  0  0  0  0  0  0
   47.7960   32.0784   46.3974 H   0  0  0  0  0  0  0  0  0  0  0  0
   44.5473   31.0765   44.7107 H   0  0  0  0  0  0  0  0  0  0  0  0
   48.7990   31.4059   44.1591 H   0  0  0  0  0  0  0  0  0  0  0  0
   49.6248   30.6312   41.6624 H   0  0  0  0  0  0  0  0  0  0  0  0
   48.4296   29.7356   39.5161 H   0  0  0  0  0  0  0  0  0  0  0  0
   44.2919   30.2403   42.4029 H   0  0  0  0  0  0  0  0  0  0  0  0
   47.5941   33.2315   44.0856 H   0  0  0  0  0  0  0  0  0  0  0  0
   43.8078   36.3911   44.2938 H   0  0  0  0  0  0  0  0  0  0  0  0
  1  2  1  0
  2  3  1  0
  4  3  1  0
  5  4  1  0
  6  1  1  0
  6  5  1  0
  7  8  2  0
  8  6  1  0
  9  8  1  0
 10  9  2  0
 11 10  1  0
 12 13  2  0
 12 11  1  0
 13 14  1  0
 14 10  1  0
 14 15  2  0
 15  7  1  0
 16 21  2  0
 16 17  1  0
 17 18  2  0
 18 19  1  0
 18  1  1  0
 20 19  2  0
 21 20  1  0
 22 24  1  0
 22 25  1  0
 22 16  1  0
 23 22  1  0
  2 26  1  0
  2 27  1  0
  3 28  1  0
  3 29  1  0
  4 30  1  0
  4 31  1  0
  5 32  1  0
  5 33  1  0
  6 34  1  1
  7 35  1  0
  9 36  1  0
 11 37  1  0
 12 38  1  0
 15 39  1  0
 17 40  1  0
 20 41  1  0
M  ISO  8  26  13  27  13  28  13  29  13  30  13  31  13  32  13  33  13
M  ISO  8  34  13  35  14  36  14  37   9  38  14  39  14  40  14  41  14
M  END
>  <minimizedAffinity>  (1) 
-5.50372362

>  <minimizedRMSD>  (1) 
0.938008368

$$$$
