
     RDKit          3D

 44 47  0  0  0  0  0  0  0  0999 V2000
   44.8110   34.7130   42.1020 C   0  0  0  0  0  0  0  0  0  0  0  0
   46.0700   34.2780   41.6420 C   0  0  0  0  0  0  0  0  0  0  0  0
   47.0230   33.8930   42.5640 C   0  0  0  0  0  0  0  0  0  0  0  0
   46.6950   33.9560   43.8790 N   0  0  0  0  0  0  0  0  0  0  0  0
   45.4950   34.3720   44.3160 C   0  0  0  0  0  0  0  0  0  0  0  0
   44.5700   34.7440   43.4270 N   0  0  0  0  0  0  0  0  0  0  0  0
   49.5150   33.8860   42.7430 C   0  0  0  0  0  0  0  0  0  0  0  0
   48.3500   33.4290   42.1690 C   0  0  0  0  0  0  0  0  0  0  0  0
   48.4680   32.4880   41.1740 C   0  0  0  0  0  0  0  0  0  0  0  0
   49.6930   32.0240   40.7700 C   0  0  0  0  0  0  0  0  0  0  0  0
   50.0040   31.1170   39.8240 N   0  0  0  0  0  0  0  0  0  0  0  0
   51.3460   30.9920   39.7910 C   0  0  0  0  0  0  0  0  0  0  0  0
   51.8880   31.8210   40.7150 N   0  0  0  0  0  0  0  0  0  0  0  0
   50.8710   32.4660   41.3290 C   0  0  0  0  0  0  0  0  0  0  0  0
   50.7700   33.4190   42.3370 C   0  0  0  0  0  0  0  0  0  0  0  0
   45.2710   34.3940   45.7340 C   0  0  0  0  0  0  0  0  0  0  0  0
   44.4320   35.1770   46.2000 O   0  0  0  0  0  0  0  0  0  0  0  0
   46.0250   33.5090   46.5540 N   0  0  0  0  0  0  0  0  0  0  0  0
   43.6140   35.1820   40.8570 S   0  0  0  0  0  0  0  0  0  0  0  0
   41.9250   35.1300   41.4710 C   0  0  0  0  0  0  0  0  0  0  0  0
   41.0010   36.0190   40.7290 C   0  0  0  0  0  0  0  0  0  0  0  0
   41.8850   36.2310   37.8220 Cl  0  0  0  0  0  0  0  0  0  0  0  0
   40.5210   35.2960   38.3620 C   0  0  0  0  0  0  0  0  0  0  0  0
   40.1970   35.2640   39.7300 C   0  0  0  0  0  0  0  0  0  0  0  0
   39.1170   34.5110   40.0800 C   0  0  0  0  0  0  0  0  0  0  0  0
   38.3120   33.7800   39.2320 C   0  0  0  0  0  0  0  0  0  0  0  0
   38.6390   33.8190   37.8930 C   0  0  0  0  0  0  0  0  0  0  0  0
   37.6700   32.9170   36.7410 Cl  0  0  0  0  0  0  0  0  0  0  0  0
   39.7210   34.5640   37.4830 C   0  0  0  0  0  0  0  0  0  0  0  0
   46.2902   34.2457   40.5647 H   0  0  0  0  0  0  0  0  0  0  0  0
   49.4576   34.6390   43.5428 H   0  0  0  0  0  0  0  0  0  0  0  0
   47.5594   32.0987   40.6913 H   0  0  0  0  0  0  0  0  0  0  0  0
   49.3340   30.6081   39.2299 H   0  0  0  0  0  0  0  0  0  0  0  0
   51.9095   30.3249   39.1221 H   0  0  0  0  0  0  0  0  0  0  0  0
   51.6804   33.8072   42.8170 H   0  0  0  0  0  0  0  0  0  0  0  0
   45.8830   33.5054   47.5742 H   0  0  0  0  0  0  0  0  0  0  0  0
   46.7129   32.8719   46.1275 H   0  0  0  0  0  0  0  0  0  0  0  0
   41.5559   34.0970   41.3889 H   0  0  0  0  0  0  0  0  0  0  0  0
   41.9475   35.4823   42.5128 H   0  0  0  0  0  0  0  0  0  0  0  0
   40.3190   36.5019   41.4444 H   0  0  0  0  0  0  0  0  0  0  0  0
   41.6018   36.7675   40.1916 H   0  0  0  0  0  0  0  0  0  0  0  0
   38.8607   34.4833   41.1494 H   0  0  0  0  0  0  0  0  0  0  0  0
   37.4559   33.1977   39.6034 H   0  0  0  0  0  0  0  0  0  0  0  0
   39.9673   34.5836   36.4111 H   0  0  0  0  0  0  0  0  0  0  0  0
  1  6  1  0
  2  1  2  0
  2  3  1  0
  3  4  2  0
  4  5  1  0
  5 16  1  0
  6  5  2  0
  8  3  1  0
  8  7  2  0
  9  8  1  0
 10  9  2  0
 10 14  1  0
 11 10  1  0
 12 11  1  0
 12 13  2  0
 13 14  1  0
 14 15  2  0
 15  7  1  0
 16 17  2  0
 16 18  1  0
 19 20  1  0
 19  1  1  0
 21 20  1  0
 22 23  1  0
 23 24  2  0
 24 25  1  0
 24 21  1  0
 26 25  2  0
 27 26  1  0
 28 27  1  0
 29 27  2  0
 29 23  1  0
  2 30  1  0
  7 31  1  0
  9 32  1  0
 11 33  1  0
 12 34  1  0
 15 35  1  0
 18 36  1  0
 18 37  1  0
 20 38  1  0
 20 39  1  0
 21 40  1  0
 21 41  1  0
 25 42  1  0
 26 43  1  0
 29 44  1  0
M  ISO  8  30  14  31  14  32  14  33   9  34  14  35  14  38   8  39   8
M  ISO  5  40   8  41   8  42  14  43  14  44  14
M  END
>  <minimizedAffinity>  (1) 
-7.62987328

>  <minimizedRMSD>  (1) 
0.632474124

$$$$
