
     RDKit          3D

 35 38  0  0  0  0  0  0  0  0999 V2000
   45.2510   33.4140   40.9190 F   0  0  0  0  0  0  0  0  0  0  0  0
   46.4250   34.0400   40.8110 C   0  0  0  0  0  0  0  0  0  0  0  0
   46.9020   34.7790   41.8610 C   0  0  0  0  0  0  0  0  0  0  0  0
   48.1140   35.4480   41.8030 C   0  0  0  0  0  0  0  0  0  0  0  0
   48.9010   35.3950   40.6640 C   0  0  0  0  0  0  0  0  0  0  0  0
   48.3730   34.6360   39.6320 C   0  0  0  0  0  0  0  0  0  0  0  0
   47.1810   33.9590   39.6490 C   0  0  0  0  0  0  0  0  0  0  0  0
   46.7820   31.7950   38.6950 C   0  0  0  0  0  0  0  0  0  0  0  0
   46.6840   33.1830   38.5410 C   0  0  0  0  0  0  0  0  0  0  0  0
   46.1290   33.6330   37.3600 C   0  0  0  0  0  0  0  0  0  0  0  0
   45.6930   32.7680   36.3800 C   0  0  0  0  0  0  0  0  0  0  0  0
   45.1290   32.9970   35.1720 N   0  0  0  0  0  0  0  0  0  0  0  0
   44.8940   31.7900   34.6120 C   0  0  0  0  0  0  0  0  0  0  0  0
   45.3080   30.8250   35.4630 N   0  0  0  0  0  0  0  0  0  0  0  0
   45.8080   31.3870   36.5700 C   0  0  0  0  0  0  0  0  0  0  0  0
   46.3580   30.8970   37.7370 C   0  0  0  0  0  0  0  0  0  0  0  0
   45.5000   33.9990   45.1650 C   0  0  0  0  0  0  0  0  0  0  0  0
   44.6750   35.1240   45.3970 C   0  0  0  0  0  0  0  0  0  0  0  0
   44.6100   36.1310   44.4240 C   0  0  0  0  0  0  0  0  0  0  0  0
   45.3600   35.9540   43.2970 N   0  0  0  0  0  0  0  0  0  0  0  0
   46.1290   34.8850   43.1030 C   0  0  0  0  0  0  0  0  0  0  0  0
   46.2020   33.9120   44.0270 N   0  0  0  0  0  0  0  0  0  0  0  0
   45.5670   32.9800   46.1470 N   0  0  0  0  0  0  0  0  0  0  0  0
   48.4557   36.0287   42.6725 H   0  0  0  0  0  0  0  0  0  0  0  0
   49.8677   35.9140   40.5853 H   0  0  0  0  0  0  0  0  0  0  0  0
   48.9682   34.5702   38.7093 H   0  0  0  0  0  0  0  0  0  0  0  0
   47.2182   31.4012   39.6249 H   0  0  0  0  0  0  0  0  0  0  0  0
   46.0317   34.7163   37.1960 H   0  0  0  0  0  0  0  0  0  0  0  0
   44.9187   33.9164   34.7579 H   0  0  0  0  0  0  0  0  0  0  0  0
   44.4398   31.6204   33.6246 H   0  0  0  0  0  0  0  0  0  0  0  0
   46.4563   29.8136   37.9000 H   0  0  0  0  0  0  0  0  0  0  0  0
   44.0932   35.2075   46.3268 H   0  0  0  0  0  0  0  0  0  0  0  0
   43.9827   37.0240   44.5623 H   0  0  0  0  0  0  0  0  0  0  0  0
   46.1633   32.1545   45.9927 H   0  0  0  0  0  0  0  0  0  0  0  0
   45.0194   33.0647   47.0153 H   0  0  0  0  0  0  0  0  0  0  0  0
  2  1  1  0
  2  3  2  0
  3 21  1  0
  4  3  1  0
  5  4  2  0
  6  7  2  0
  6  5  1  0
  7  2  1  0
  9  8  2  0
  9  7  1  0
 10  9  1  0
 11 15  1  0
 11 10  2  0
 12 11  1  0
 13 12  1  0
 13 14  2  0
 14 15  1  0
 15 16  2  0
 16  8  1  0
 17 18  2  0
 17 23  1  0
 19 18  1  0
 20 19  2  0
 21 20  1  0
 21 22  2  0
 22 17  1  0
  4 24  1  0
  5 25  1  0
  6 26  1  0
  8 27  1  0
 10 28  1  0
 12 29  1  0
 13 30  1  0
 16 31  1  0
 18 32  1  0
 19 33  1  0
 23 34  1  0
 23 35  1  0
M  ISO  8  24  14  25  14  26  14  27  14  28  14  29   9  30  14  31  14
M  ISO  2  32  14  33  14
M  END
>  <minimizedAffinity>  (1) 
-6.79526043

>  <minimizedRMSD>  (1) 
0.857386589

$$$$
