
     RDKit          3D

 37 40  0  0  0  0  0  0  0  0999 V2000
   45.2650   36.0720   43.3020 C   0  0  0  0  0  0  0  0  0  0  0  0
   46.0780   34.9600   43.1400 C   0  0  0  0  0  0  0  0  0  0  0  0
   46.1120   34.0570   44.1680 C   0  0  0  0  0  0  0  0  0  0  0  0
   45.3630   34.2830   45.2960 N   0  0  0  0  0  0  0  0  0  0  0  0
   44.5860   35.3760   45.4120 C   0  0  0  0  0  0  0  0  0  0  0  0
   44.5420   36.2560   44.4230 N   0  0  0  0  0  0  0  0  0  0  0  0
   46.8370   34.8280   41.9750 N   0  0  0  0  0  0  0  0  0  0  0  0
   48.1670   35.3240   41.8810 C   0  0  0  0  0  0  0  0  0  0  0  0
   48.6860   35.2340   40.4360 C   0  0  0  0  0  0  0  0  0  0  0  0
   48.6030   33.8820   39.9920 N   0  0  0  0  0  0  0  0  0  0  0  0
   47.3810   33.2150   40.2180 C   0  0  0  0  0  0  0  0  0  0  0  0
   46.3310   34.1770   40.7600 C   0  0  0  0  0  0  0  0  0  0  0  0
   46.6310   32.2490   45.5960 C   0  0  0  0  0  0  0  0  0  0  0  0
   46.8450   32.8580   44.3340 C   0  0  0  0  0  0  0  0  0  0  0  0
   47.6800   32.0520   43.5780 C   0  0  0  0  0  0  0  0  0  0  0  0
   48.2410   30.8540   43.9330 C   0  0  0  0  0  0  0  0  0  0  0  0
   49.0460   30.0660   43.2230 N   0  0  0  0  0  0  0  0  0  0  0  0
   49.2910   29.0210   44.0600 C   0  0  0  0  0  0  0  0  0  0  0  0
   48.6380   29.2010   45.2400 N   0  0  0  0  0  0  0  0  0  0  0  0
   47.9690   30.3510   45.1830 C   0  0  0  0  0  0  0  0  0  0  0  0
   47.1570   31.0330   46.0470 C   0  0  0  0  0  0  0  0  0  0  0  0
   45.2096   36.8199   42.4972 H   0  0  0  0  0  0  0  0  0  0  0  0
   43.9909   35.5375   46.3230 H   0  0  0  0  0  0  0  0  0  0  0  0
   48.1829   36.3752   42.2045 H   0  0  0  0  0  0  0  0  0  0  0  0
   48.8160   34.7134   42.5260 H   0  0  0  0  0  0  0  0  0  0  0  0
   48.0728   35.8737   39.7842 H   0  0  0  0  0  0  0  0  0  0  0  0
   49.7319   35.5725   40.3970 H   0  0  0  0  0  0  0  0  0  0  0  0
   49.3426   33.3498   40.4723 H   0  0  0  0  0  0  0  0  0  0  0  0
   47.0230   32.7873   39.2699 H   0  0  0  0  0  0  0  0  0  0  0  0
   47.5458   32.4192   40.9593 H   0  0  0  0  0  0  0  0  0  0  0  0
   46.1089   34.9415   40.0009 H   0  0  0  0  0  0  0  0  0  0  0  0
   45.4145   33.6183   41.0006 H   0  0  0  0  0  0  0  0  0  0  0  0
   45.9803   32.7915   46.2976 H   0  0  0  0  0  0  0  0  0  0  0  0
   47.9221   32.4187   42.5696 H   0  0  0  0  0  0  0  0  0  0  0  0
   49.3996   30.2126   42.2668 H   0  0  0  0  0  0  0  0  0  0  0  0
   49.9254   28.1557   43.8174 H   0  0  0  0  0  0  0  0  0  0  0  0
   46.9280   30.6437   47.0500 H   0  0  0  0  0  0  0  0  0  0  0  0
  1  6  2  0
  2  1  1  0
  2  3  2  0
  3 14  1  0
  3  4  1  0
  4  5  2  0
  6  5  1  0
  7  2  1  0
  8  7  1  0
  9  8  1  0
 10 11  1  0
 10  9  1  0
 11 12  1  0
 12  7  1  0
 13 21  2  0
 14 13  1  0
 15 16  1  0
 15 14  2  0
 16 20  2  0
 17 16  1  0
 17 18  1  0
 18 19  2  0
 20 19  1  0
 20 21  1  0
  1 22  1  0
  5 23  1  0
  8 24  1  0
  8 25  1  0
  9 26  1  0
  9 27  1  0
 10 28  1  0
 11 29  1  0
 11 30  1  0
 12 31  1  0
 12 32  1  0
 13 33  1  0
 15 34  1  0
 17 35  1  0
 18 36  1  0
 21 37  1  0
M  ISO  8  22  14  23  14  24  13  25  13  26  13  27  13  28   5  29  13
M  ISO  8  30  13  31  13  32  13  33  14  34  14  35   9  36  14  37  14
M  END
>  <minimizedAffinity>  (1) 
-5.31267214

>  <minimizedRMSD>  (1) 
3.65380955

$$$$
