
     RDKit          3D

 54 59  0  0  1  0  0  0  0  0999 V2000
   46.6520   31.5510   48.2580 C   0  0  1  0  0  0  0  0  0  0  0  0
   46.2730   30.4780   49.2210 C   0  0  0  0  0  0  0  0  0  0  0  0
   47.4890   31.2520   49.4370 C   0  0  1  0  0  0  0  0  0  0  0  0
   48.8550   30.6830   49.2060 C   0  0  2  0  0  0  0  0  0  0  0  0
   49.4840   30.0730   50.4840 C   0  0  0  0  0  0  0  0  0  0  0  0
   50.0170   31.3370   49.9470 C   0  0  1  0  0  0  0  0  0  0  0  0
   51.7920   30.3050   48.5350 C   0  0  0  0  0  0  0  0  0  0  0  0
   51.3610   31.3200   49.3630 C   0  0  0  0  0  0  0  0  0  0  0  0
   52.2860   32.3370   49.6170 C   0  0  0  0  0  0  0  0  0  0  0  0
   53.5620   32.3840   49.1030 C   0  0  0  0  0  0  0  0  0  0  0  0
   54.5460   33.2990   49.2660 N   0  0  0  0  0  0  0  0  0  0  0  0
   55.5650   32.8400   48.5410 C   0  0  0  0  0  0  0  0  0  0  0  0
   55.2380   31.6640   47.9330 N   0  0  0  0  0  0  0  0  0  0  0  0
   53.9730   31.3600   48.2770 C   0  0  0  0  0  0  0  0  0  0  0  0
   53.0760   30.3360   48.0090 C   0  0  0  0  0  0  0  0  0  0  0  0
   47.0580   31.0680   46.9120 C   0  0  0  0  0  0  0  0  0  0  0  0
   46.0010   33.0430   46.1830 C   0  0  0  0  0  0  0  0  0  0  0  0
   46.8220   32.1320   45.8660 C   0  0  0  0  0  0  0  0  0  0  0  0
   44.5400   35.9600   44.4660 C   0  0  0  0  0  0  0  0  0  0  0  0
   45.1950   35.9680   43.2480 C   0  0  0  0  0  0  0  0  0  0  0  0
   46.1130   34.9770   43.0440 C   0  0  0  0  0  0  0  0  0  0  0  0
   46.3360   34.0530   44.0220 N   0  0  0  0  0  0  0  0  0  0  0  0
   45.6820   34.0760   45.1940 C   0  0  0  0  0  0  0  0  0  0  0  0
   44.7930   35.0380   45.3870 N   0  0  0  0  0  0  0  0  0  0  0  0
   46.8800   34.8540   41.8130 C   0  0  0  0  0  0  0  0  0  0  0  0
   48.0860   35.4530   41.5900 C   0  0  0  0  0  0  0  0  0  0  0  0
   48.8050   35.3290   40.4160 C   0  0  0  0  0  0  0  0  0  0  0  0
   48.3040   34.5630   39.3900 C   0  0  0  0  0  0  0  0  0  0  0  0
   47.0970   33.9400   39.5590 C   0  0  0  0  0  0  0  0  0  0  0  0
   46.4300   34.1030   40.7530 C   0  0  0  0  0  0  0  0  0  0  0  0
   46.2165   32.4782   47.8572 H   0  0  0  0  0  0  0  0  0  0  0  0
   45.4077   30.6166   49.8859 H   0  0  0  0  0  0  0  0  0  0  0  0
   46.0381   29.4066   49.1380 H   0  0  0  0  0  0  0  0  0  0  0  0
   47.8740   31.8096   50.3035 H   0  0  0  0  0  0  0  0  0  0  0  0
   48.6729   30.3873   48.1623 H   0  0  0  0  0  0  0  0  0  0  0  0
   48.9184   30.0731   51.4274 H   0  0  0  0  0  0  0  0  0  0  0  0
   49.9195   29.0966   50.7427 H   0  0  0  0  0  0  0  0  0  0  0  0
   50.1776   32.3473   50.3514 H   0  0  0  0  0  0  0  0  0  0  0  0
   51.1180   29.4705   48.2913 H   0  0  0  0  0  0  0  0  0  0  0  0
   51.9711   33.1597   50.2757 H   0  0  0  0  0  0  0  0  0  0  0  0
   54.5139   34.1617   49.8278 H   0  0  0  0  0  0  0  0  0  0  0  0
   56.5391   33.3420   48.4456 H   0  0  0  0  0  0  0  0  0  0  0  0
   53.3960   29.5140   47.3519 H   0  0  0  0  0  0  0  0  0  0  0  0
   48.1272   30.8099   46.9289 H   0  0  0  0  0  0  0  0  0  0  0  0
   46.4545   30.1841   46.6580 H   0  0  0  0  0  0  0  0  0  0  0  0
   45.5370   33.0583   47.1803 H   0  0  0  0  0  0  0  0  0  0  0  0
   47.3308   32.1166   44.8909 H   0  0  0  0  0  0  0  0  0  0  0  0
   43.7906   36.7371   44.6769 H   0  0  0  0  0  0  0  0  0  0  0  0
   44.9878   36.7318   42.4840 H   0  0  0  0  0  0  0  0  0  0  0  0
   48.5117   36.0721   42.3934 H   0  0  0  0  0  0  0  0  0  0  0  0
   49.7724   35.8402   40.3032 H   0  0  0  0  0  0  0  0  0  0  0  0
   48.8636   34.4527   38.4494 H   0  0  0  0  0  0  0  0  0  0  0  0
   46.6681   33.3213   38.7570 H   0  0  0  0  0  0  0  0  0  0  0  0
   45.4622   33.5927   40.8673 H   0  0  0  0  0  0  0  0  0  0  0  0
  1  2  1  0
  1  3  1  0
  2  3  1  0
  4  3  1  0
  4  6  1  0
  4  5  1  0
  6  5  1  0
  7  8  2  0
  8  9  1  0
  8  6  1  0
 10 11  1  0
 10  9  2  0
 12 11  1  0
 13 14  1  0
 13 12  2  0
 14 10  1  0
 15 14  2  0
 15  7  1  0
 16  1  1  0
 18 17  2  0
 18 16  1  0
 19 24  2  0
 20 19  1  0
 21 20  2  0
 21 22  1  0
 22 23  2  0
 23 24  1  0
 23 17  1  0
 25 21  1  0
 26 25  2  0
 27 26  1  0
 28 29  1  0
 28 27  2  0
 29 30  2  0
 30 25  1  0
  1 31  1  6
  2 32  1  0
  2 33  1  0
  3 34  1  1
  4 35  1  6
  5 36  1  0
  5 37  1  0
  6 38  1  1
  7 39  1  0
  9 40  1  0
 11 41  1  0
 12 42  1  0
 15 43  1  0
 16 44  1  0
 16 45  1  0
 17 46  1  0
 18 47  1  0
 19 48  1  0
 20 49  1  0
 26 50  1  0
 27 51  1  0
 28 52  1  0
 29 53  1  0
 30 54  1  0
M  ISO  8  31  13  32  13  33  13  34  13  35  13  36  13  37  13  38  13
M  ISO  8  39  14  40  14  41   9  42  14  43  14  44   8  45   8  48  14
M  ISO  6  49  14  50  14  51  14  52  14  53  14  54  14
M  END
>  <minimizedAffinity>  (1) 
-6.97921467

>  <minimizedRMSD>  (1) 
1.04753232

$$$$
