
     RDKit          3D

 33 36  0  0  0  0  0  0  0  0999 V2000
   45.2390   33.3080   41.0150 F   0  0  0  0  0  0  0  0  0  0  0  0
   46.4210   33.9910   40.8870 C   0  0  0  0  0  0  0  0  0  0  0  0
   46.9070   34.7890   41.8890 C   0  0  0  0  0  0  0  0  0  0  0  0
   48.1050   35.4250   41.6440 C   0  0  0  0  0  0  0  0  0  0  0  0
   48.8180   35.2990   40.4750 C   0  0  0  0  0  0  0  0  0  0  0  0
   48.2820   34.4840   39.5040 C   0  0  0  0  0  0  0  0  0  0  0  0
   47.0920   33.8270   39.6950 C   0  0  0  0  0  0  0  0  0  0  0  0
   46.3920   31.6160   38.8020 C   0  0  0  0  0  0  0  0  0  0  0  0
   46.5590   32.9710   38.6370 C   0  0  0  0  0  0  0  0  0  0  0  0
   46.2050   33.5360   37.4140 C   0  0  0  0  0  0  0  0  0  0  0  0
   45.6980   32.7280   36.4020 C   0  0  0  0  0  0  0  0  0  0  0  0
   45.2960   33.0670   35.1520 N   0  0  0  0  0  0  0  0  0  0  0  0
   44.8820   31.9250   34.5480 C   0  0  0  0  0  0  0  0  0  0  0  0
   45.0360   30.9190   35.4280 N   0  0  0  0  0  0  0  0  0  0  0  0
   45.5370   31.3820   36.5800 C   0  0  0  0  0  0  0  0  0  0  0  0
   45.8860   30.8110   37.7920 C   0  0  0  0  0  0  0  0  0  0  0  0
   44.4900   35.9830   44.5330 C   0  0  0  0  0  0  0  0  0  0  0  0
   45.2170   35.9160   43.3400 C   0  0  0  0  0  0  0  0  0  0  0  0
   46.1310   34.9010   43.1100 C   0  0  0  0  0  0  0  0  0  0  0  0
   46.2630   33.9910   44.1190 N   0  0  0  0  0  0  0  0  0  0  0  0
   45.5610   34.0650   45.2620 C   0  0  0  0  0  0  0  0  0  0  0  0
   44.6870   35.0430   45.4720 N   0  0  0  0  0  0  0  0  0  0  0  0
   48.5160   36.0732   42.4320 H   0  0  0  0  0  0  0  0  0  0  0  0
   49.7721   35.8249   40.3230 H   0  0  0  0  0  0  0  0  0  0  0  0
   48.8197   34.3562   38.5529 H   0  0  0  0  0  0  0  0  0  0  0  0
   46.6677   31.1571   39.7629 H   0  0  0  0  0  0  0  0  0  0  0  0
   46.3260   34.6169   37.2493 H   0  0  0  0  0  0  0  0  0  0  0  0
   45.3036   34.0110   34.7400 H   0  0  0  0  0  0  0  0  0  0  0  0
   44.4910   31.8373   33.5236 H   0  0  0  0  0  0  0  0  0  0  0  0
   45.7633   29.7297   37.9524 H   0  0  0  0  0  0  0  0  0  0  0  0
   43.7666   36.7946   44.7000 H   0  0  0  0  0  0  0  0  0  0  0  0
   45.0598   36.6847   42.5690 H   0  0  0  0  0  0  0  0  0  0  0  0
   45.7129   33.3011   46.0388 H   0  0  0  0  0  0  0  0  0  0  0  0
  2  1  1  0
  2  3  2  0
  3 19  1  0
  4  3  1  0
  5  4  2  0
  6  7  2  0
  6  5  1  0
  7  2  1  0
  9  8  2  0
  9  7  1  0
 10  9  1  0
 11 15  1  0
 11 10  2  0
 12 11  1  0
 13 12  1  0
 13 14  2  0
 14 15  1  0
 15 16  2  0
 16  8  1  0
 17 22  2  0
 18 17  1  0
 19 18  2  0
 19 20  1  0
 20 21  2  0
 21 22  1  0
  4 23  1  0
  5 24  1  0
  6 25  1  0
  8 26  1  0
 10 27  1  0
 12 28  1  0
 13 29  1  0
 16 30  1  0
 17 31  1  0
 18 32  1  0
 21 33  1  0
M  ISO  8  23  14  24  14  25  14  26  14  27  14  28   9  29  14  30  14
M  ISO  3  31  14  32  14  33  14
M  END
>  <minimizedAffinity>  (1) 
-6.41554213

>  <minimizedRMSD>  (1) 
0.35569194

$$$$
