
     RDKit          3D

 40 43  0  0  0  0  0  0  0  0999 V2000
   44.2940   35.0310   42.8750 C   0  0  0  0  0  0  0  0  0  0  0  0
   43.5980   34.2690   41.9250 C   0  0  0  0  0  0  0  0  0  0  0  0
   43.7060   32.8940   41.9850 C   0  0  0  0  0  0  0  0  0  0  0  0
   44.4830   32.3680   42.9620 N   0  0  0  0  0  0  0  0  0  0  0  0
   45.1500   33.1060   43.8710 C   0  0  0  0  0  0  0  0  0  0  0  0
   45.0340   34.4330   43.7990 N   0  0  0  0  0  0  0  0  0  0  0  0
   46.3570   31.1460   44.6800 C   0  0  0  0  0  0  0  0  0  0  0  0
   45.9660   32.4540   44.8920 C   0  0  0  0  0  0  0  0  0  0  0  0
   46.3160   33.1620   46.0240 C   0  0  0  0  0  0  0  0  0  0  0  0
   47.0880   32.4770   46.9420 C   0  0  0  0  0  0  0  0  0  0  0  0
   47.5990   32.8530   48.1330 N   0  0  0  0  0  0  0  0  0  0  0  0
   48.3040   31.8270   48.6890 C   0  0  0  0  0  0  0  0  0  0  0  0
   48.2130   30.8120   47.8090 N   0  0  0  0  0  0  0  0  0  0  0  0
   47.4850   31.1720   46.7430 C   0  0  0  0  0  0  0  0  0  0  0  0
   47.1290   30.4670   45.6030 C   0  0  0  0  0  0  0  0  0  0  0  0
   42.7680   34.8840   40.8840 C   0  0  0  0  0  0  0  0  0  0  0  0
   41.6030   35.4390   41.0400 C   0  0  0  0  0  0  0  0  0  0  0  0
   40.8140   36.0460   39.9390 C   0  0  0  0  0  0  0  0  0  0  0  0
   40.6750   35.6190   37.1830 F   0  0  0  0  0  0  0  0  0  0  0  0
   39.8510   34.9000   37.9720 C   0  0  0  0  0  0  0  0  0  0  0  0
   39.8790   35.0770   39.3690 C   0  0  0  0  0  0  0  0  0  0  0  0
   38.9930   34.2850   40.0340 C   0  0  0  0  0  0  0  0  0  0  0  0
   38.1150   33.3750   39.5160 C   0  0  0  0  0  0  0  0  0  0  0  0
   38.1610   33.2680   38.1130 C   0  0  0  0  0  0  0  0  0  0  0  0
   39.0040   34.0040   37.3160 C   0  0  0  0  0  0  0  0  0  0  0  0
   44.2258   36.1287   42.8536 H   0  0  0  0  0  0  0  0  0  0  0  0
   43.1802   32.2490   41.2656 H   0  0  0  0  0  0  0  0  0  0  0  0
   46.0471   30.6343   43.7569 H   0  0  0  0  0  0  0  0  0  0  0  0
   46.0008   34.2036   46.1846 H   0  0  0  0  0  0  0  0  0  0  0  0
   47.4743   33.7817   48.5606 H   0  0  0  0  0  0  0  0  0  0  0  0
   48.8348   31.8282   49.6525 H   0  0  0  0  0  0  0  0  0  0  0  0
   47.4437   29.4253   45.4426 H   0  0  0  0  0  0  0  0  0  0  0  0
   43.1748   34.8746   39.8620 H   0  0  0  0  0  0  0  0  0  0  0  0
   41.1744   35.4602   42.0528 H   0  0  0  0  0  0  0  0  0  0  0  0
   40.2483   36.9036   40.3321 H   0  0  0  0  0  0  0  0  0  0  0  0
   41.5069   36.3712   39.1490 H   0  0  0  0  0  0  0  0  0  0  0  0
   38.9828   34.3915   41.1288 H   0  0  0  0  0  0  0  0  0  0  0  0
   37.4328   32.7789   40.1399 H   0  0  0  0  0  0  0  0  0  0  0  0
   37.4818   32.5528   37.6261 H   0  0  0  0  0  0  0  0  0  0  0  0
   39.0114   33.8937   36.2216 H   0  0  0  0  0  0  0  0  0  0  0  0
  1  6  2  0
  2  3  2  0
  2  1  1  0
  3  4  1  0
  4  5  2  0
  5  8  1  0
  6  5  1  0
  7  8  2  0
  7 15  1  0
  8  9  1  0
  9 10  2  0
 10 11  1  0
 11 12  1  0
 13 12  2  0
 14 10  1  0
 14 13  1  0
 15 14  2  0
 16 17  2  0
 16  2  1  0
 18 17  1  0
 19 20  1  0
 20 21  2  0
 21 18  1  0
 21 22  1  0
 23 22  2  0
 24 23  1  0
 25 20  1  0
 25 24  2  0
  1 26  1  0
  3 27  1  0
  7 28  1  0
  9 29  1  0
 11 30  1  0
 12 31  1  0
 15 32  1  0
 16 33  1  0
 17 34  1  0
 18 35  1  0
 18 36  1  0
 22 37  1  0
 23 38  1  0
 24 39  1  0
 25 40  1  0
M  ISO  8  26  14  27  14  28  14  29  14  30   9  31  14  32  14  35   8
M  ISO  5  36   8  37  14  38  14  39  14  40  14
M  END
>  <minimizedAffinity>  (1) 
-7.06418991

>  <minimizedRMSD>  (1) 
1.3646121

$$$$
