
     RDKit          3D

 43 48  0  0  0  0  0  0  0  0999 V2000
   47.4110   31.4070   45.1760 C   0  0  0  0  0  0  0  0  0  0  0  0
   46.9160   32.7030   45.0650 C   0  0  0  0  0  0  0  0  0  0  0  0
   46.2140   33.3170   46.0740 C   0  0  0  0  0  0  0  0  0  0  0  0
   45.9650   32.6540   47.2690 C   0  0  0  0  0  0  0  0  0  0  0  0
   45.3270   32.9390   48.4440 N   0  0  0  0  0  0  0  0  0  0  0  0
   45.4260   31.8520   49.2540 C   0  0  0  0  0  0  0  0  0  0  0  0
   46.1180   30.9180   48.5740 N   0  0  0  0  0  0  0  0  0  0  0  0
   46.4590   31.3760   47.3650 C   0  0  0  0  0  0  0  0  0  0  0  0
   47.1590   30.7370   46.3850 C   0  0  0  0  0  0  0  0  0  0  0  0
   46.5730   35.1670   42.3610 C   0  0  0  0  0  0  0  0  0  0  0  0
   47.6230   34.8140   41.4980 C   0  0  0  0  0  0  0  0  0  0  0  0
   48.4310   33.7400   41.8500 C   0  0  0  0  0  0  0  0  0  0  0  0
   48.1760   33.0700   43.0230 N   0  0  0  0  0  0  0  0  0  0  0  0
   47.1500   33.4450   43.8280 C   0  0  0  0  0  0  0  0  0  0  0  0
   46.3520   34.4790   43.5130 N   0  0  0  0  0  0  0  0  0  0  0  0
   47.6530   29.3570   46.5780 C   0  0  0  0  0  0  0  0  0  0  0  0
   48.7320   28.8140   45.8880 C   0  0  0  0  0  0  0  0  0  0  0  0
   48.8140   27.5120   46.4030 C   0  0  0  0  0  0  0  0  0  0  0  0
   47.8110   27.3470   47.3470 C   0  0  0  0  0  0  0  0  0  0  0  0
   47.1480   28.4900   47.4060 O   0  0  0  0  0  0  0  0  0  0  0  0
   46.4030   25.4210   48.0490 C   0  0  0  0  0  0  0  0  0  0  0  0
   47.5990   26.1090   48.0880 C   0  0  0  0  0  0  0  0  0  0  0  0
   48.6370   25.5930   48.8690 C   0  0  0  0  0  0  0  0  0  0  0  0
   48.4000   24.4200   49.5560 C   0  0  0  0  0  0  0  0  0  0  0  0
   49.1530   23.6470   50.3890 N   0  0  0  0  0  0  0  0  0  0  0  0
   48.4580   22.5760   50.8160 C   0  0  0  0  0  0  0  0  0  0  0  0
   47.2280   22.6440   50.2560 N   0  0  0  0  0  0  0  0  0  0  0  0
   47.1880   23.7460   49.5010 C   0  0  0  0  0  0  0  0  0  0  0  0
   46.1740   24.2640   48.7290 C   0  0  0  0  0  0  0  0  0  0  0  0
   47.9716   30.9310   44.3580 H   0  0  0  0  0  0  0  0  0  0  0  0
   45.8455   34.3439   45.9341 H   0  0  0  0  0  0  0  0  0  0  0  0
   44.8534   33.8239   48.6753 H   0  0  0  0  0  0  0  0  0  0  0  0
   45.0186   31.7539   50.2710 H   0  0  0  0  0  0  0  0  0  0  0  0
   45.9194   36.0128   42.1013 H   0  0  0  0  0  0  0  0  0  0  0  0
   47.8011   35.3732   40.5676 H   0  0  0  0  0  0  0  0  0  0  0  0
   49.2624   33.4304   41.1997 H   0  0  0  0  0  0  0  0  0  0  0  0
   49.3659   29.2895   45.1251 H   0  0  0  0  0  0  0  0  0  0  0  0
   49.5501   26.7497   46.1079 H   0  0  0  0  0  0  0  0  0  0  0  0
   45.5886   25.8308   47.4335 H   0  0  0  0  0  0  0  0  0  0  0  0
   49.6089   26.1041   48.9337 H   0  0  0  0  0  0  0  0  0  0  0  0
   50.1257   23.8550   50.6565 H   0  0  0  0  0  0  0  0  0  0  0  0
   48.8226   21.7908   51.4946 H   0  0  0  0  0  0  0  0  0  0  0  0
   45.2010   23.7553   48.6627 H   0  0  0  0  0  0  0  0  0  0  0  0
  1  9  2  0
  2  1  1  0
  2  3  2  0
  3  4  1  0
  4  8  2  0
  4  5  1  0
  5  6  1  0
  7  6  2  0
  8  7  1  0
  9 16  1  0
  9  8  1  0
 10 15  2  0
 11 12  2  0
 11 10  1  0
 12 13  1  0
 13 14  2  0
 14  2  1  0
 15 14  1  0
 16 20  1  0
 17 18  1  0
 17 16  2  0
 18 19  2  0
 19 20  1  0
 19 22  1  0
 21 22  2  0
 21 29  1  0
 22 23  1  0
 23 24  2  0
 24 25  1  0
 25 26  1  0
 27 26  2  0
 28 24  1  0
 28 27  1  0
 29 28  2  0
  1 30  1  0
  3 31  1  0
  5 32  1  0
  6 33  1  0
 10 34  1  0
 11 35  1  0
 12 36  1  0
 17 37  1  0
 18 38  1  0
 21 39  1  0
 23 40  1  0
 25 41  1  0
 26 42  1  0
 29 43  1  0
M  ISO  8  30  14  31  14  32   9  33  14  34  14  35  14  36  14  37  14
M  ISO  6  38  14  39  14  40  14  41   9  42  14  43  14
M  END
>  <minimizedAffinity>  (1) 
-6.442307

>  <minimizedRMSD>  (1) 
1.90933645

$$$$
