
     RDKit          3D

 28 30  0  0  0  0  0  0  0  0999 V2000
   45.5300   33.3960   46.6640 C   0  0  0  0  0  0  0  0  0  0  0  0
   44.6620   33.5970   47.5320 O   0  0  0  0  0  0  0  0  0  0  0  0
   46.6620   31.2430   46.2240 C   0  0  0  0  0  0  0  0  0  0  0  0
   46.4580   32.3400   47.0420 C   0  0  0  0  0  0  0  0  0  0  0  0
   47.1800   32.3490   48.2170 C   0  0  0  0  0  0  0  0  0  0  0  0
   48.0640   31.3610   48.6130 C   0  0  0  0  0  0  0  0  0  0  0  0
   48.8390   31.2190   49.7150 N   0  0  0  0  0  0  0  0  0  0  0  0
   49.5040   30.0470   49.5670 C   0  0  0  0  0  0  0  0  0  0  0  0
   49.1530   29.4810   48.4070 N   0  0  0  0  0  0  0  0  0  0  0  0
   48.2530   30.2760   47.7820 C   0  0  0  0  0  0  0  0  0  0  0  0
   47.5490   30.2320   46.6000 C   0  0  0  0  0  0  0  0  0  0  0  0
   44.7200   35.8580   44.1160 C   0  0  0  0  0  0  0  0  0  0  0  0
   45.6520   35.6300   43.0810 C   0  0  0  0  0  0  0  0  0  0  0  0
   46.5620   34.5990   43.2930 C   0  0  0  0  0  0  0  0  0  0  0  0
   46.4840   33.9080   44.4540 N   0  0  0  0  0  0  0  0  0  0  0  0
   45.5860   34.1470   45.4250 C   0  0  0  0  0  0  0  0  0  0  0  0
   44.6950   35.1340   45.2500 N   0  0  0  0  0  0  0  0  0  0  0  0
   47.5190   34.3640   42.2290 C   0  0  0  0  0  0  0  0  0  0  0  0
   48.6570   33.7420   42.7450 F   0  0  0  0  0  0  0  0  0  0  0  0
   47.9620   35.6270   41.8100 F   0  0  0  0  0  0  0  0  0  0  0  0
   47.0540   33.6290   41.2020 F   0  0  0  0  0  0  0  0  0  0  0  0
   46.1209   31.1665   45.2693 H   0  0  0  0  0  0  0  0  0  0  0  0
   47.0426   33.2074   48.8910 H   0  0  0  0  0  0  0  0  0  0  0  0
   48.9091   31.8722   50.5083 H   0  0  0  0  0  0  0  0  0  0  0  0
   50.2205   29.6270   50.2883 H   0  0  0  0  0  0  0  0  0  0  0  0
   47.6898   29.3717   45.9291 H   0  0  0  0  0  0  0  0  0  0  0  0
   43.9813   36.6632   43.9901 H   0  0  0  0  0  0  0  0  0  0  0  0
   45.6586   36.2322   42.1605 H   0  0  0  0  0  0  0  0  0  0  0  0
  1  4  1  0
  1  2  2  0
  3 11  2  0
  3  4  1  0
  4  5  2  0
  5  6  1  0
  6  7  1  0
  8  7  1  0
  9  8  2  0
 10  9  1  0
 10  6  2  0
 11 10  1  0
 12 17  2  0
 13 14  2  0
 13 12  1  0
 14 15  1  0
 15 16  2  0
 16  1  1  0
 17 16  1  0
 18 19  1  0
 18 14  1  0
 20 18  1  0
 21 18  1  0
  3 22  1  0
  5 23  1  0
  7 24  1  0
  8 25  1  0
 11 26  1  0
 12 27  1  0
 13 28  1  0
M  ISO  7  22  14  23  14  24   9  25  14  26  14  27  14  28  14
M  END
>  <minimizedAffinity>  (1) 
-6.04372025

>  <minimizedRMSD>  (1) 
0.858366311

$$$$
