
     RDKit          3D

 47 49  0  0  1  0  0  0  0  0999 V2000
   47.2910   33.0370   46.6510 O   0  0  0  0  0  0  0  0  0  0  0  0
   45.8580   32.7600   46.3530 P   0  0  1  0  0  0  0  0  0  0  0  0
   45.7570   31.4680   45.2700 O   0  0  0  0  0  0  0  0  0  0  0  0
   45.1340   32.3530   47.7800 O   0  0  0  0  0  0  0  0  0  0  0  0
   46.8680   30.7340   48.0670 C   0  0  2  0  0  0  0  0  0  0  0  0
   45.4180   31.0510   48.1000 C   0  0  2  0  0  0  0  0  0  0  0  0
   44.7760   30.0870   47.2320 C   0  0  0  0  0  0  0  0  0  0  0  0
   45.6040   28.9660   47.1060 O   0  0  0  0  0  0  0  0  0  0  0  0
   46.6430   29.1750   47.9480 C   0  0  0  0  0  0  0  0  0  0  0  0
   47.5710   30.9570   49.1900 O   0  0  0  0  0  0  0  0  0  0  0  0
   48.8320   31.2860   49.2430 C   0  0  0  0  0  0  0  0  0  0  0  0
   49.5410   30.3160   50.1820 C   0  0  0  0  0  0  0  0  0  0  0  0
   45.2300   34.1930   45.6800 O   0  0  0  0  0  0  0  0  0  0  0  0
   44.1300   35.1480   42.3990 C   0  0  0  0  0  0  0  0  0  0  0  0
   45.3070   35.0300   41.6030 C   0  0  0  0  0  0  0  0  0  0  0  0
   46.4700   34.6100   42.2660 C   0  0  0  0  0  0  0  0  0  0  0  0
   46.4150   34.3460   43.5890 N   0  0  0  0  0  0  0  0  0  0  0  0
   45.2880   34.4670   44.3060 C   0  0  0  0  0  0  0  0  0  0  0  0
   44.1610   34.8650   43.7110 N   0  0  0  0  0  0  0  0  0  0  0  0
   42.9750   35.5530   41.8070 O   0  0  0  0  0  0  0  0  0  0  0  0
   42.0700   33.5980   40.9550 C   0  0  0  0  0  0  0  0  0  0  0  0
   42.4800   34.8920   40.7040 C   0  0  0  0  0  0  0  0  0  0  0  0
   42.3620   35.3960   39.4260 C   0  0  0  0  0  0  0  0  0  0  0  0
   41.8510   34.6590   38.3790 C   0  0  0  0  0  0  0  0  0  0  0  0
   41.4440   33.3680   38.6330 C   0  0  0  0  0  0  0  0  0  0  0  0
   41.5490   32.8360   39.9040 C   0  0  0  0  0  0  0  0  0  0  0  0
   42.0850   32.8730   42.1420 O   0  0  0  0  0  0  0  0  0  0  0  0
   41.0970   31.5090   40.0230 O   0  0  0  0  0  0  0  0  0  0  0  0
   45.6906   30.6188   45.7746 H   0  0  0  0  0  0  0  0  0  0  0  0
   47.4349   31.3119   47.3223 H   0  0  0  0  0  0  0  0  0  0  0  0
   45.0275   30.9666   49.1249 H   0  0  0  0  0  0  0  0  0  0  0  0
   43.8108   29.7859   47.6652 H   0  0  0  0  0  0  0  0  0  0  0  0
   44.6031   30.5348   46.2423 H   0  0  0  0  0  0  0  0  0  0  0  0
   46.4119   28.7544   48.9378 H   0  0  0  0  0  0  0  0  0  0  0  0
   47.5505   28.6858   47.5643 H   0  0  0  0  0  0  0  0  0  0  0  0
   49.2755   31.2224   48.2384 H   0  0  0  0  0  0  0  0  0  0  0  0
   48.9395   32.3169   49.6114 H   0  0  0  0  0  0  0  0  0  0  0  0
   49.3346   30.5983   51.2249 H   0  0  0  0  0  0  0  0  0  0  0  0
   49.1748   29.2950   49.9992 H   0  0  0  0  0  0  0  0  0  0  0  0
   50.6250   30.3550   49.9992 H   0  0  0  0  0  0  0  0  0  0  0  0
   45.3034   35.2562   40.5265 H   0  0  0  0  0  0  0  0  0  0  0  0
   47.4151   34.4972   41.7147 H   0  0  0  0  0  0  0  0  0  0  0  0
   42.6890   36.4286   39.2340 H   0  0  0  0  0  0  0  0  0  0  0  0
   41.7707   35.0896   37.3700 H   0  0  0  0  0  0  0  0  0  0  0  0
   41.0320   32.7554   37.8175 H   0  0  0  0  0  0  0  0  0  0  0  0
   41.7510   31.9412   42.1571 H   0  0  0  0  0  0  0  0  0  0  0  0
   41.1358   31.0495   40.8991 H   0  0  0  0  0  0  0  0  0  0  0  0
  2  1  2  0
  2  4  1  0
  3  2  1  0
  4  6  1  0
  5  6  1  0
  5 10  1  0
  7  6  1  0
  8  7  1  0
  8  9  1  0
  9  5  1  0
 10 11  1  0
 11 12  1  0
 13  2  1  0
 14 19  2  0
 15 16  2  0
 15 14  1  0
 16 17  1  0
 17 18  2  0
 18 13  1  0
 19 18  1  0
 20 14  1  0
 21 27  1  0
 22 21  2  0
 22 20  1  0
 23 22  1  0
 24 25  1  0
 24 23  2  0
 25 26  2  0
 26 28  1  0
 26 21  1  0
  3 29  1  0
  5 30  1  6
  6 31  1  1
  7 32  1  0
  7 33  1  0
  9 34  1  0
  9 35  1  0
 11 36  1  0
 11 37  1  0
 12 38  1  0
 12 39  1  0
 12 40  1  0
 15 41  1  0
 16 42  1  0
 23 43  1  0
 24 44  1  0
 25 45  1  0
 27 46  1  0
 28 47  1  0
M  ISO  8  29   3  30  13  31  13  32  13  33  13  34  13  35  13  36   8
M  ISO  8  37   8  38   8  39   8  40   8  41  14  42  14  43  14  44  14
M  ISO  3  45  14  46   3  47   3
M  END
>  <minimizedAffinity>  (1) 
-5.25849962

>  <minimizedRMSD>  (1) 
3.10121107

$$$$
