
     RDKit          3D

 45 47  0  0  0  0  0  0  0  0999 V2000
   44.5700   35.6730   42.8810 C   0  0  0  0  0  0  0  0  0  0  0  0
   44.1490   35.2540   41.5800 C   0  0  0  0  0  0  0  0  0  0  0  0
   44.9500   34.3990   40.8570 C   0  0  0  0  0  0  0  0  0  0  0  0
   46.1130   33.9990   41.4410 N   0  0  0  0  0  0  0  0  0  0  0  0
   46.5070   34.3900   42.6550 C   0  0  0  0  0  0  0  0  0  0  0  0
   45.7240   35.2290   43.3690 N   0  0  0  0  0  0  0  0  0  0  0  0
   47.7460   33.9950   43.3420 C   0  0  0  0  0  0  0  0  0  0  0  0
   47.9780   32.5060   43.2030 C   0  0  0  0  0  0  0  0  0  0  0  0
   46.6240   32.0370   45.3340 C   0  0  0  0  0  0  0  0  0  0  0  0
   47.1030   31.7220   44.1090 C   0  0  0  0  0  0  0  0  0  0  0  0
   46.7210   30.4740   43.6070 C   0  0  0  0  0  0  0  0  0  0  0  0
   45.9060   29.5930   44.2930 C   0  0  0  0  0  0  0  0  0  0  0  0
   45.4750   30.0090   45.5290 C   0  0  0  0  0  0  0  0  0  0  0  0
   45.8090   31.2250   46.0910 C   0  0  0  0  0  0  0  0  0  0  0  0
   47.0300   33.2980   45.8040 O   0  0  0  0  0  0  0  0  0  0  0  0
   45.3730   31.6420   47.3410 O   0  0  0  0  0  0  0  0  0  0  0  0
   42.8670   35.7460   41.0430 C   0  0  0  0  0  0  0  0  0  0  0  0
   41.6870   35.4490   41.5450 C   0  0  0  0  0  0  0  0  0  0  0  0
   40.4080   35.9560   40.9900 C   0  0  0  0  0  0  0  0  0  0  0  0
   41.0090   36.1260   38.2640 F   0  0  0  0  0  0  0  0  0  0  0  0
   40.1650   35.1590   38.6680 C   0  0  0  0  0  0  0  0  0  0  0  0
   39.8350   35.0340   40.0160 C   0  0  0  0  0  0  0  0  0  0  0  0
   38.9690   34.0130   40.2930 C   0  0  0  0  0  0  0  0  0  0  0  0
   38.4160   33.1310   39.3940 C   0  0  0  0  0  0  0  0  0  0  0  0
   38.7870   33.3110   38.0640 C   0  0  0  0  0  0  0  0  0  0  0  0
   39.6480   34.3050   37.6830 C   0  0  0  0  0  0  0  0  0  0  0  0
   43.9441   36.3570   43.4729 H   0  0  0  0  0  0  0  0  0  0  0  0
   44.6632   34.0545   39.8525 H   0  0  0  0  0  0  0  0  0  0  0  0
   48.5944   34.5365   42.8981 H   0  0  0  0  0  0  0  0  0  0  0  0
   47.6549   34.2425   44.4099 H   0  0  0  0  0  0  0  0  0  0  0  0
   47.7709   32.2094   42.1642 H   0  0  0  0  0  0  0  0  0  0  0  0
   49.0234   32.2974   43.4745 H   0  0  0  0  0  0  0  0  0  0  0  0
   47.0885   30.1776   42.6135 H   0  0  0  0  0  0  0  0  0  0  0  0
   45.6197   28.6170   43.8740 H   0  0  0  0  0  0  0  0  0  0  0  0
   44.8254   29.3335   46.1050 H   0  0  0  0  0  0  0  0  0  0  0  0
   47.6161   33.8688   45.2466 H   0  0  0  0  0  0  0  0  0  0  0  0
   44.7872   31.0553   47.8820 H   0  0  0  0  0  0  0  0  0  0  0  0
   42.8988   36.4058   40.1634 H   0  0  0  0  0  0  0  0  0  0  0  0
   41.6470   34.7889   42.4240 H   0  0  0  0  0  0  0  0  0  0  0  0
   39.6922   36.0932   41.8139 H   0  0  0  0  0  0  0  0  0  0  0  0
   40.6116   36.9087   40.4792 H   0  0  0  0  0  0  0  0  0  0  0  0
   38.6840   33.8830   41.3475 H   0  0  0  0  0  0  0  0  0  0  0  0
   37.7247   32.3342   39.7058 H   0  0  0  0  0  0  0  0  0  0  0  0
   38.3770   32.6360   37.2983 H   0  0  0  0  0  0  0  0  0  0  0  0
   39.9283   34.4311   36.6268 H   0  0  0  0  0  0  0  0  0  0  0  0
  1  6  2  0
  2  1  1  0
  3  4  1  0
  3  2  2  0
  4  5  2  0
  5  7  1  0
  5  6  1  0
  8  7  1  0
  8 10  1  0
  9 15  1  0
  9 14  2  0
 10  9  1  0
 11 10  2  0
 11 12  1  0
 12 13  2  0
 13 14  1  0
 14 16  1  0
 17 18  2  0
 17  2  1  0
 19 18  1  0
 20 21  1  0
 21 22  2  0
 22 23  1  0
 22 19  1  0
 24 23  2  0
 25 24  1  0
 26 25  2  0
 26 21  1  0
  1 27  1  0
  3 28  1  0
  7 29  1  0
  7 30  1  0
  8 31  1  0
  8 32  1  0
 11 33  1  0
 12 34  1  0
 13 35  1  0
 15 36  1  0
 16 37  1  0
 17 38  1  0
 18 39  1  0
 19 40  1  0
 19 41  1  0
 23 42  1  0
 24 43  1  0
 25 44  1  0
 26 45  1  0
M  ISO  8  27  14  28  14  29   8  30   8  31   8  32   8  33  14  34  14
M  ISO  8  35  14  36   3  37   3  40   8  41   8  42  14  43  14  44  14
M  ISO  1  45  14
M  END
>  <minimizedAffinity>  (1) 
-6.5615406

>  <minimizedRMSD>  (1) 
3.24608755

$$$$
