
     RDKit          3D

 48 51  0  0  1  0  0  0  0  0999 V2000
   49.0860   32.1760   40.5680 C   0  0  2  0  0  0  0  0  0  0  0  0
   49.9590   31.6500   41.6040 C   0  0  0  0  0  0  0  0  0  0  0  0
   50.4660   31.8460   40.2100 C   0  0  1  0  0  0  0  0  0  0  0  0
   47.0660   34.8120   41.9630 C   0  0  2  0  0  0  0  0  0  0  0  0
   46.2960   34.2120   40.7850 C   0  0  0  0  0  0  0  0  0  0  0  0
   47.4980   34.0040   39.8390 C   0  0  0  0  0  0  0  0  0  0  0  0
   48.6310   33.6080   40.7370 C   0  0  1  0  0  0  0  0  0  0  0  0
   48.1120   33.7440   42.1380 C   0  0  0  0  0  0  0  0  0  0  0  0
   44.5390   36.0100   44.4870 C   0  0  0  0  0  0  0  0  0  0  0  0
   45.2790   35.9790   43.3100 C   0  0  0  0  0  0  0  0  0  0  0  0
   46.1960   34.9430   43.1660 C   0  0  0  0  0  0  0  0  0  0  0  0
   46.3490   33.9850   44.1780 N   0  0  0  0  0  0  0  0  0  0  0  0
   45.5970   34.0710   45.3050 C   0  0  0  0  0  0  0  0  0  0  0  0
   44.7010   35.0740   45.4530 N   0  0  0  0  0  0  0  0  0  0  0  0
   50.6730   30.6800   39.4320 O   0  0  0  0  0  0  0  0  0  0  0  0
   51.9200   30.0010   37.2440 O   0  0  0  0  0  0  0  0  0  0  0  0
   51.9770   30.9570   38.4080 P   0  0  1  0  0  0  0  0  0  0  0  0
   51.8940   32.5470   37.7690 O   0  0  0  0  0  0  0  0  0  0  0  0
   53.4620   30.8100   39.1390 O   0  0  0  0  0  0  0  0  0  0  0  0
   55.2840   29.4290   39.0390 C   0  0  0  0  0  0  0  0  0  0  0  0
   54.5830   30.4470   38.4230 C   0  0  0  0  0  0  0  0  0  0  0  0
   55.0670   30.9430   37.2310 C   0  0  0  0  0  0  0  0  0  0  0  0
   56.2170   30.4390   36.6710 C   0  0  0  0  0  0  0  0  0  0  0  0
   56.9100   29.4140   37.3080 C   0  0  0  0  0  0  0  0  0  0  0  0
   56.4520   28.9070   38.4850 C   0  0  0  0  0  0  0  0  0  0  0  0
   54.9210   28.8190   40.2540 O   0  0  0  0  0  0  0  0  0  0  0  0
   57.1880   27.8880   39.0680 O   0  0  0  0  0  0  0  0  0  0  0  0
   48.1218   31.8970   40.1180 H   0  0  0  0  0  0  0  0  0  0  0  0
   50.3090   32.3052   42.4153 H   0  0  0  0  0  0  0  0  0  0  0  0
   49.9153   30.8056   42.3076 H   0  0  0  0  0  0  0  0  0  0  0  0
   51.3057   32.3845   39.7463 H   0  0  0  0  0  0  0  0  0  0  0  0
   47.4589   35.8279   41.8092 H   0  0  0  0  0  0  0  0  0  0  0  0
   45.8016   33.2651   41.0474 H   0  0  0  0  0  0  0  0  0  0  0  0
   45.4648   34.8145   40.3899 H   0  0  0  0  0  0  0  0  0  0  0  0
   47.7354   34.9354   39.3041 H   0  0  0  0  0  0  0  0  0  0  0  0
   47.2936   33.2442   39.0703 H   0  0  0  0  0  0  0  0  0  0  0  0
   49.4941   34.2462   40.4967 H   0  0  0  0  0  0  0  0  0  0  0  0
   48.9034   34.0653   42.8311 H   0  0  0  0  0  0  0  0  0  0  0  0
   47.7309   32.8069   42.5700 H   0  0  0  0  0  0  0  0  0  0  0  0
   43.8039   36.8144   44.6374 H   0  0  0  0  0  0  0  0  0  0  0  0
   45.1451   36.7402   42.5273 H   0  0  0  0  0  0  0  0  0  0  0  0
   45.7167   33.3218   46.1015 H   0  0  0  0  0  0  0  0  0  0  0  0
   51.8599   33.2000   38.5123 H   0  0  0  0  0  0  0  0  0  0  0  0
   54.5254   31.7533   36.7210 H   0  0  0  0  0  0  0  0  0  0  0  0
   56.5894   30.8460   35.7193 H   0  0  0  0  0  0  0  0  0  0  0  0
   57.8304   29.0125   36.8590 H   0  0  0  0  0  0  0  0  0  0  0  0
   55.4796   28.0931   40.6297 H   0  0  0  0  0  0  0  0  0  0  0  0
   56.8908   27.4903   39.9245 H   0  0  0  0  0  0  0  0  0  0  0  0
  1  7  1  0
  1  2  1  0
  3  1  1  0
  3  2  1  0
  4  8  1  0
  4 11  1  0
  5  4  1  0
  6  7  1  0
  6  5  1  0
  7  8  1  0
  9 14  2  0
 10  9  1  0
 11 10  2  0
 11 12  1  0
 12 13  2  0
 13 14  1  0
 15  3  1  0
 17 16  2  0
 17 19  1  0
 17 15  1  0
 18 17  1  0
 20 26  1  0
 21 20  2  0
 21 19  1  0
 22 21  1  0
 23 22  2  0
 23 24  1  0
 24 25  2  0
 25 20  1  0
 25 27  1  0
  1 28  1  6
  2 29  1  0
  2 30  1  0
  3 31  1  1
  4 32  1  6
  5 33  1  0
  5 34  1  0
  6 35  1  0
  6 36  1  0
  7 37  1  1
  8 38  1  0
  8 39  1  0
  9 40  1  0
 10 41  1  0
 13 42  1  0
 18 43  1  0
 22 44  1  0
 23 45  1  0
 24 46  1  0
 26 47  1  0
 27 48  1  0
M  ISO  8  28  13  29  13  30  13  31  13  32  13  33  13  34  13  35  13
M  ISO  8  36  13  37  13  38  13  39  13  40  14  41  14  42  14  43   3
M  ISO  5  44  14  45  14  46  14  47   3  48   3
M  END
>  <minimizedAffinity>  (1) 
-5.60607052

>  <minimizedRMSD>  (1) 
2.01202202

$$$$
