
     RDKit          3D

 41 43  0  0  0  0  0  0  0  0999 V2000
   45.5790   29.9970   44.6370 Br  0  0  0  0  0  0  0  0  0  0  0  0
   45.6650   30.6200   46.4620 C   0  0  0  0  0  0  0  0  0  0  0  0
   46.3590   31.7790   46.6680 C   0  0  0  0  0  0  0  0  0  0  0  0
   46.4000   32.1980   48.0010 C   0  0  0  0  0  0  0  0  0  0  0  0
   45.7940   31.5120   49.0390 C   0  0  0  0  0  0  0  0  0  0  0  0
   45.1170   30.3580   48.7490 C   0  0  0  0  0  0  0  0  0  0  0  0
   45.0400   29.8890   47.4490 C   0  0  0  0  0  0  0  0  0  0  0  0
   47.0420   32.6000   45.6770 C   0  0  0  0  0  0  0  0  0  0  0  0
   44.5430   35.3540   45.3460 C   0  0  0  0  0  0  0  0  0  0  0  0
   44.7510   35.7860   44.0410 C   0  0  0  0  0  0  0  0  0  0  0  0
   45.7350   35.1360   43.2950 C   0  0  0  0  0  0  0  0  0  0  0  0
   46.4300   34.1360   43.8610 N   0  0  0  0  0  0  0  0  0  0  0  0
   46.2180   33.7210   45.1380 C   0  0  0  0  0  0  0  0  0  0  0  0
   45.2600   34.3610   45.8480 N   0  0  0  0  0  0  0  0  0  0  0  0
   44.3440   28.7070   47.1700 O   0  0  0  0  0  0  0  0  0  0  0  0
   44.1160   26.1520   46.7520 O   0  0  0  0  0  0  0  0  0  0  0  0
   44.9800   27.1660   47.5110 P   0  0  2  0  0  0  0  0  0  0  0  0
   44.8560   26.9020   49.1500 O   0  0  0  0  0  0  0  0  0  0  0  0
   46.5540   26.9870   46.9480 O   0  0  0  0  0  0  0  0  0  0  0  0
   48.2400   26.2440   48.3120 C   0  0  0  0  0  0  0  0  0  0  0  0
   47.7110   27.3440   47.6280 C   0  0  0  0  0  0  0  0  0  0  0  0
   48.3520   28.5610   47.7030 C   0  0  0  0  0  0  0  0  0  0  0  0
   49.5040   28.6780   48.4500 C   0  0  0  0  0  0  0  0  0  0  0  0
   50.0360   27.5980   49.1300 C   0  0  0  0  0  0  0  0  0  0  0  0
   49.4040   26.3730   49.0630 C   0  0  0  0  0  0  0  0  0  0  0  0
   47.6990   24.9540   48.3240 O   0  0  0  0  0  0  0  0  0  0  0  0
   49.9680   25.3070   49.7610 O   0  0  0  0  0  0  0  0  0  0  0  0
   46.9440   33.1242   48.2380 H   0  0  0  0  0  0  0  0  0  0  0  0
   45.8548   31.8850   50.0721 H   0  0  0  0  0  0  0  0  0  0  0  0
   44.6283   29.7966   49.5590 H   0  0  0  0  0  0  0  0  0  0  0  0
   47.9419   33.0269   46.1439 H   0  0  0  0  0  0  0  0  0  0  0  0
   47.2741   31.9415   44.8270 H   0  0  0  0  0  0  0  0  0  0  0  0
   43.7764   35.8413   45.9664 H   0  0  0  0  0  0  0  0  0  0  0  0
   44.1616   36.6099   43.6123 H   0  0  0  0  0  0  0  0  0  0  0  0
   45.9386   35.4387   42.2573 H   0  0  0  0  0  0  0  0  0  0  0  0
   45.2221   27.6814   49.6384 H   0  0  0  0  0  0  0  0  0  0  0  0
   47.9469   29.4338   47.1700 H   0  0  0  0  0  0  0  0  0  0  0  0
   50.0116   29.6522   48.5066 H   0  0  0  0  0  0  0  0  0  0  0  0
   50.9568   27.7144   49.7204 H   0  0  0  0  0  0  0  0  0  0  0  0
   46.8699   24.7602   47.8189 H   0  0  0  0  0  0  0  0  0  0  0  0
   50.7979   25.4414   50.2839 H   0  0  0  0  0  0  0  0  0  0  0  0
  1  2  1  0
  2  3  2  0
  2  7  1  0
  3  4  1  0
  4  5  2  0
  6  5  1  0
  7  6  2  0
  8  3  1  0
  9 14  2  0
 10  9  1  0
 11 12  1  0
 11 10  2  0
 12 13  2  0
 13  8  1  0
 13 14  1  0
 15  7  1  0
 15 17  1  0
 17 16  2  0
 17 18  1  0
 19 17  1  0
 19 21  1  0
 20 26  1  0
 20 25  2  0
 21 22  2  0
 21 20  1  0
 22 23  1  0
 23 24  2  0
 25 24  1  0
 25 27  1  0
  4 28  1  0
  5 29  1  0
  6 30  1  0
  8 31  1  0
  8 32  1  0
  9 33  1  0
 10 34  1  0
 11 35  1  0
 18 36  1  0
 22 37  1  0
 23 38  1  0
 24 39  1  0
 26 40  1  0
 27 41  1  0
M  ISO  8  28  14  29  14  30  14  31   8  32   8  33  14  34  14  35  14
M  ISO  6  36   3  37  14  38  14  39  14  40   3  41   3
M  END
>  <minimizedAffinity>  (1) 
-5.49435282

>  <minimizedRMSD>  (1) 
0.899112403

$$$$
