
     RDKit          3D

 25 26  0  0  0  0  0  0  0  0999 V2000
   44.6060   35.4710   45.0950 C   0  0  0  0  0  0  0  0  0  0  0  0
   45.2880   35.4420   43.8690 C   0  0  0  0  0  0  0  0  0  0  0  0
   46.2180   34.4350   43.6750 C   0  0  0  0  0  0  0  0  0  0  0  0
   46.4140   33.5650   44.6550 N   0  0  0  0  0  0  0  0  0  0  0  0
   45.7670   33.5890   45.8280 C   0  0  0  0  0  0  0  0  0  0  0  0
   44.8440   34.5500   46.0730 N   0  0  0  0  0  0  0  0  0  0  0  0
   46.5190   34.0310   41.1700 C   0  0  0  0  0  0  0  0  0  0  0  0
   46.8720   34.5070   42.3950 C   0  0  0  0  0  0  0  0  0  0  0  0
   48.0710   35.2420   42.4640 C   0  0  0  0  0  0  0  0  0  0  0  0
   48.8560   35.4770   41.3660 C   0  0  0  0  0  0  0  0  0  0  0  0
   48.4310   34.9600   40.1390 C   0  0  0  0  0  0  0  0  0  0  0  0
   47.2730   34.2340   40.0040 C   0  0  0  0  0  0  0  0  0  0  0  0
   45.3140   33.3140   41.2010 O   0  0  0  0  0  0  0  0  0  0  0  0
   46.7420   33.6700   38.8600 O   0  0  0  0  0  0  0  0  0  0  0  0
   44.9300   36.5530   42.9320 C   0  0  0  0  0  0  0  0  0  0  0  0
   43.8586   36.2583   45.2725 H   0  0  0  0  0  0  0  0  0  0  0  0
   45.9852   32.8284   46.5921 H   0  0  0  0  0  0  0  0  0  0  0  0
   48.3898   35.6431   43.4374 H   0  0  0  0  0  0  0  0  0  0  0  0
   49.7894   36.0532   41.4474 H   0  0  0  0  0  0  0  0  0  0  0  0
   49.0480   35.1417   39.2467 H   0  0  0  0  0  0  0  0  0  0  0  0
   44.9524   32.9175   40.3691 H   0  0  0  0  0  0  0  0  0  0  0  0
   45.8905   33.1670   38.9054 H   0  0  0  0  0  0  0  0  0  0  0  0
   44.6432   37.4431   43.5112 H   0  0  0  0  0  0  0  0  0  0  0  0
   45.7967   36.7917   42.2981 H   0  0  0  0  0  0  0  0  0  0  0  0
   44.0870   36.2407   42.2981 H   0  0  0  0  0  0  0  0  0  0  0  0
  1  6  2  0
  2  1  1  0
  3  2  2  0
  3  4  1  0
  4  5  2  0
  5  6  1  0
  7 13  1  0
  7  8  2  0
  8  9  1  0
  8  3  1  0
 10  9  2  0
 11 10  1  0
 12 11  2  0
 12  7  1  0
 14 12  1  0
 15  2  1  0
  1 16  1  0
  5 17  1  0
  9 18  1  0
 10 19  1  0
 11 20  1  0
 13 21  1  0
 14 22  1  0
 15 23  1  0
 15 24  1  0
 15 25  1  0
M  ISO  8  16  14  17  14  18  14  19  14  20  14  21   3  22   3  23   8
M  ISO  2  24   8  25   8
M  END
>  <minimizedAffinity>  (1) 
-5.32649565

>  <minimizedRMSD>  (1) 
2.14635944

$$$$
