
     RDKit          3D

 46 48  0  0  1  0  0  0  0  0999 V2000
   41.1490   33.6730   40.6510 C   0  0  2  0  0  0  0  0  0  0  0  0
   39.8610   34.4030   40.7100 C   0  0  0  0  0  0  0  0  0  0  0  0
   38.7650   33.5380   40.1540 C   0  0  0  0  0  0  0  0  0  0  0  0
   38.4830   32.4470   40.9700 O   0  0  0  0  0  0  0  0  0  0  0  0
   39.5980   32.0590   41.6800 C   0  0  0  0  0  0  0  0  0  0  0  0
   40.8570   32.2020   40.8560 C   0  0  1  0  0  0  0  0  0  0  0  0
   41.7440   31.7050   38.6860 C   0  0  0  0  0  0  0  0  0  0  0  0
   40.9460   31.2860   39.7710 C   0  0  0  0  0  0  0  0  0  0  0  0
   40.3890   30.0490   39.5300 C   0  0  0  0  0  0  0  0  0  0  0  0
   40.5430   29.2660   38.4090 C   0  0  0  0  0  0  0  0  0  0  0  0
   41.3400   29.7510   37.3970 C   0  0  0  0  0  0  0  0  0  0  0  0
   41.9270   30.9670   37.5570 C   0  0  0  0  0  0  0  0  0  0  0  0
   42.4150   32.9440   38.7080 O   0  0  0  0  0  0  0  0  0  0  0  0
   42.7180   31.4040   36.5030 O   0  0  0  0  0  0  0  0  0  0  0  0
   42.1230   34.1080   41.4680 O   0  0  0  0  0  0  0  0  0  0  0  0
   43.5910   36.2770   41.6390 O   0  0  0  0  0  0  0  0  0  0  0  0
   43.3220   35.0580   40.8480 P   0  0  2  0  0  0  0  0  0  0  0  0
   42.8480   35.5630   39.2910 O   0  0  0  0  0  0  0  0  0  0  0  0
   44.7680   34.1380   40.6520 O   0  0  0  0  0  0  0  0  0  0  0  0
   45.2570   33.1420   42.7310 C   0  0  0  0  0  0  0  0  0  0  0  0
   45.6530   33.9530   41.6940 C   0  0  0  0  0  0  0  0  0  0  0  0
   46.9360   34.5550   41.7390 C   0  0  0  0  0  0  0  0  0  0  0  0
   47.7040   34.2830   42.8240 N   0  0  0  0  0  0  0  0  0  0  0  0
   47.2870   33.4940   43.8100 C   0  0  0  0  0  0  0  0  0  0  0  0
   46.0560   32.9280   43.7470 N   0  0  0  0  0  0  0  0  0  0  0  0
   43.8240   31.1350   42.3950 C   0  0  0  0  0  0  0  0  0  0  0  0
   44.4800   30.7330   41.3730 O   0  0  0  0  0  0  0  0  0  0  0  0
   44.1490   32.3570   43.1430 N   0  0  0  0  0  0  0  0  0  0  0  0
   41.5770   33.8702   39.6571 H   0  0  0  0  0  0  0  0  0  0  0  0
   39.6319   34.6572   41.7554 H   0  0  0  0  0  0  0  0  0  0  0  0
   39.9362   35.3249   40.1147 H   0  0  0  0  0  0  0  0  0  0  0  0
   37.8541   34.1458   40.0500 H   0  0  0  0  0  0  0  0  0  0  0  0
   39.1049   33.1503   39.1823 H   0  0  0  0  0  0  0  0  0  0  0  0
   39.6858   32.6871   42.5788 H   0  0  0  0  0  0  0  0  0  0  0  0
   39.4823   30.9995   41.9523 H   0  0  0  0  0  0  0  0  0  0  0  0
   41.7444   31.8434   41.3982 H   0  0  0  0  0  0  0  0  0  0  0  0
   39.7477   29.6405   40.3249 H   0  0  0  0  0  0  0  0  0  0  0  0
   40.0471   28.2878   38.3247 H   0  0  0  0  0  0  0  0  0  0  0  0
   41.4987   29.1672   36.4783 H   0  0  0  0  0  0  0  0  0  0  0  0
   42.9704   33.2199   37.9363 H   0  0  0  0  0  0  0  0  0  0  0  0
   43.1737   32.2812   36.5567 H   0  0  0  0  0  0  0  0  0  0  0  0
   42.1726   36.2826   39.3688 H   0  0  0  0  0  0  0  0  0  0  0  0
   47.2921   35.2120   40.9318 H   0  0  0  0  0  0  0  0  0  0  0  0
   47.9389   33.3009   44.6747 H   0  0  0  0  0  0  0  0  0  0  0  0
   42.9684   30.5318   42.7328 H   0  0  0  0  0  0  0  0  0  0  0  0
   43.5810   32.6397   43.9544 H   0  0  0  0  0  0  0  0  0  0  0  0
  1  2  1  0
  1  6  1  0
  1 15  1  0
  3  2  1  0
  3  4  1  0
  4  5  1  0
  6  5  1  0
  7 13  1  0
  7  8  2  0
  8  6  1  0
  9  8  1  0
 10  9  2  0
 11 12  2  0
 11 10  1  0
 12  7  1  0
 14 12  1  0
 17 15  1  0
 17 16  2  0
 18 17  1  0
 19 17  1  0
 19 21  1  0
 20 28  1  0
 20 25  2  0
 21 22  2  0
 21 20  1  0
 22 23  1  0
 23 24  2  0
 25 24  1  0
 26 28  1  0
 27 26  2  0
  1 29  1  6
  2 30  1  0
  2 31  1  0
  3 32  1  0
  3 33  1  0
  5 34  1  0
  5 35  1  0
  6 36  1  1
  9 37  1  0
 10 38  1  0
 11 39  1  0
 13 40  1  0
 14 41  1  0
 18 42  1  0
 22 43  1  0
 24 44  1  0
 26 45  1  0
 28 46  1  0
M  ISO  8  29  13  30  13  31  13  32  13  33  13  34  13  35  13  36  13
M  ISO  8  37  14  38  14  39  14  40   3  41   3  42   3  43  14  44  14
M  ISO  1  45   6
M  END
>  <minimizedAffinity>  (1) 
-5.39050961

>  <minimizedRMSD>  (1) 
5.55090189

$$$$
