
     RDKit          3D

 39 41  0  0  0  0  0  0  0  0999 V2000
   44.6470   34.9140   42.0850 C   0  0  0  0  0  0  0  0  0  0  0  0
   45.3690   34.7100   41.0880 O   0  0  0  0  0  0  0  0  0  0  0  0
   44.9250   35.0150   44.5070 C   0  0  0  0  0  0  0  0  0  0  0  0
   45.0140   34.2900   43.3460 C   0  0  0  0  0  0  0  0  0  0  0  0
   45.4540   32.9480   43.3540 C   0  0  0  0  0  0  0  0  0  0  0  0
   45.7830   32.4280   44.5820 N   0  0  0  0  0  0  0  0  0  0  0  0
   45.6930   33.1380   45.7000 C   0  0  0  0  0  0  0  0  0  0  0  0
   45.2680   34.4200   45.6610 N   0  0  0  0  0  0  0  0  0  0  0  0
   46.0520   32.5490   46.9810 C   0  0  0  0  0  0  0  0  0  0  0  0
   47.3330   32.2370   47.3120 C   0  0  0  0  0  0  0  0  0  0  0  0
   47.6860   31.6830   48.5120 C   0  0  0  0  0  0  0  0  0  0  0  0
   46.6890   31.4450   49.3930 N   0  0  0  0  0  0  0  0  0  0  0  0
   45.4350   31.7510   49.0650 C   0  0  0  0  0  0  0  0  0  0  0  0
   45.0630   32.2940   47.8980 N   0  0  0  0  0  0  0  0  0  0  0  0
   43.6210   35.7310   41.7060 O   0  0  0  0  0  0  0  0  0  0  0  0
   42.6010   35.3480   40.8750 C   0  0  0  0  0  0  0  0  0  0  0  0
   41.2210   35.8170   41.3200 C   0  0  0  0  0  0  0  0  0  0  0  0
   39.5270   33.9450   41.2520 C   0  0  0  0  0  0  0  0  0  0  0  0
   40.2340   34.9460   40.6060 C   0  0  0  0  0  0  0  0  0  0  0  0
   39.9900   35.1190   39.2460 C   0  0  0  0  0  0  0  0  0  0  0  0
   39.0900   34.3500   38.5200 C   0  0  0  0  0  0  0  0  0  0  0  0
   38.4020   33.3590   39.2030 C   0  0  0  0  0  0  0  0  0  0  0  0
   38.6200   33.1650   40.5390 C   0  0  0  0  0  0  0  0  0  0  0  0
   39.7260   33.7270   42.6000 O   0  0  0  0  0  0  0  0  0  0  0  0
   37.8880   32.1510   41.1410 O   0  0  0  0  0  0  0  0  0  0  0  0
   44.5806   36.0596   44.4931 H   0  0  0  0  0  0  0  0  0  0  0  0
   45.5288   32.3542   42.4311 H   0  0  0  0  0  0  0  0  0  0  0  0
   48.1262   32.4404   46.5775 H   0  0  0  0  0  0  0  0  0  0  0  0
   48.7329   31.4424   48.7489 H   0  0  0  0  0  0  0  0  0  0  0  0
   44.6483   31.5430   49.8052 H   0  0  0  0  0  0  0  0  0  0  0  0
   42.5918   34.2492   40.8243 H   0  0  0  0  0  0  0  0  0  0  0  0
   42.7949   35.8189   39.9000 H   0  0  0  0  0  0  0  0  0  0  0  0
   41.1123   35.7035   42.4087 H   0  0  0  0  0  0  0  0  0  0  0  0
   41.0629   36.8796   41.0835 H   0  0  0  0  0  0  0  0  0  0  0  0
   40.5416   35.9099   38.7166 H   0  0  0  0  0  0  0  0  0  0  0  0
   38.9293   34.5205   37.4452 H   0  0  0  0  0  0  0  0  0  0  0  0
   37.6781   32.7264   38.6683 H   0  0  0  0  0  0  0  0  0  0  0  0
   39.2228   33.0127   43.0655 H   0  0  0  0  0  0  0  0  0  0  0  0
   38.0030   31.9635   42.1062 H   0  0  0  0  0  0  0  0  0  0  0  0
  1  4  1  0
  2  1  2  0
  3  8  2  0
  4  5  2  0
  4  3  1  0
  5  6  1  0
  6  7  2  0
  7  9  1  0
  8  7  1  0
  9 10  2  0
  9 14  1  0
 10 11  1  0
 11 12  2  0
 13 12  1  0
 14 13  2  0
 15  1  1  0
 16 17  1  0
 16 15  1  0
 18 24  1  0
 19 18  2  0
 19 17  1  0
 20 19  1  0
 21 22  1  0
 21 20  2  0
 22 23  2  0
 23 25  1  0
 23 18  1  0
  3 26  1  0
  5 27  1  0
 10 28  1  0
 11 29  1  0
 13 30  1  0
 16 31  1  0
 16 32  1  0
 17 33  1  0
 17 34  1  0
 20 35  1  0
 21 36  1  0
 22 37  1  0
 24 38  1  0
 25 39  1  0
M  ISO  8  26  14  27  14  28  14  29  14  30  14  31   8  32   8  33   8
M  ISO  6  34   8  35  14  36  14  37  14  38   3  39   3
M  END
>  <minimizedAffinity>  (1) 
-7.34499884

>  <minimizedRMSD>  (1) 
0.948615432

$$$$
