
     RDKit          3D

 45 48  0  0  0  0  0  0  0  0999 V2000
   48.1270   34.6090   41.6900 C   0  0  0  0  0  0  0  0  0  0  0  0
   49.0080   35.8330   41.4410 C   0  0  0  0  0  0  0  0  0  0  0  0
   49.5030   34.6520   42.1620 C   0  0  0  0  0  0  0  0  0  0  0  0
   47.8270   33.8270   40.4440 C   0  0  0  0  0  0  0  0  0  0  0  0
   48.2570   34.4930   39.1530 C   0  0  0  0  0  0  0  0  0  0  0  0
   47.9790   33.4550   38.0620 C   0  0  0  0  0  0  0  0  0  0  0  0
   46.5950   33.4510   37.8630 O   0  0  0  0  0  0  0  0  0  0  0  0
   46.1110   32.7790   39.0160 C   0  0  0  0  0  0  0  0  0  0  0  0
   46.3090   33.6710   40.2390 C   0  0  0  0  0  0  0  0  0  0  0  0
   46.2580   35.9670   42.6470 C   0  0  0  0  0  0  0  0  0  0  0  0
   47.0160   34.8090   42.6640 C   0  0  0  0  0  0  0  0  0  0  0  0
   46.6550   33.8460   43.6150 C   0  0  0  0  0  0  0  0  0  0  0  0
   45.6260   34.0500   44.4530 N   0  0  0  0  0  0  0  0  0  0  0  0
   44.9270   35.2040   44.3820 C   0  0  0  0  0  0  0  0  0  0  0  0
   45.2220   36.1470   43.5070 N   0  0  0  0  0  0  0  0  0  0  0  0
   43.8330   35.4930   45.2310 N   0  0  0  0  0  0  0  0  0  0  0  0
   46.8030   31.8730   44.9870 C   0  0  0  0  0  0  0  0  0  0  0  0
   47.2400   32.5440   43.8330 C   0  0  0  0  0  0  0  0  0  0  0  0
   48.2240   31.8890   43.1300 C   0  0  0  0  0  0  0  0  0  0  0  0
   48.7790   30.6900   43.4520 C   0  0  0  0  0  0  0  0  0  0  0  0
   48.3600   30.0350   44.5680 C   0  0  0  0  0  0  0  0  0  0  0  0
   47.3640   30.6380   45.3350 C   0  0  0  0  0  0  0  0  0  0  0  0
   45.8110   32.4140   45.7930 O   0  0  0  0  0  0  0  0  0  0  0  0
   46.8990   30.0040   46.4910 O   0  0  0  0  0  0  0  0  0  0  0  0
   49.3723   36.0582   40.4278 H   0  0  0  0  0  0  0  0  0  0  0  0
   48.9374   36.9112   41.6471 H   0  0  0  0  0  0  0  0  0  0  0  0
   49.7033   34.7211   43.2414 H   0  0  0  0  0  0  0  0  0  0  0  0
   50.3722   33.9908   42.0306 H   0  0  0  0  0  0  0  0  0  0  0  0
   48.3755   32.8887   40.6137 H   0  0  0  0  0  0  0  0  0  0  0  0
   47.6715   35.4072   38.9755 H   0  0  0  0  0  0  0  0  0  0  0  0
   49.3141   34.7964   39.1759 H   0  0  0  0  0  0  0  0  0  0  0  0
   48.4961   33.7332   37.1318 H   0  0  0  0  0  0  0  0  0  0  0  0
   48.3418   32.4595   38.3576 H   0  0  0  0  0  0  0  0  0  0  0  0
   45.0405   32.5589   38.8910 H   0  0  0  0  0  0  0  0  0  0  0  0
   46.6628   31.8373   39.1530 H   0  0  0  0  0  0  0  0  0  0  0  0
   45.8483   34.6550   40.0670 H   0  0  0  0  0  0  0  0  0  0  0  0
   45.8372   33.2271   41.1281 H   0  0  0  0  0  0  0  0  0  0  0  0
   46.4996   36.7581   41.9219 H   0  0  0  0  0  0  0  0  0  0  0  0
   43.3313   36.3877   45.1380 H   0  0  0  0  0  0  0  0  0  0  0  0
   43.5382   34.8087   45.9421 H   0  0  0  0  0  0  0  0  0  0  0  0
   48.5978   32.3820   42.2205 H   0  0  0  0  0  0  0  0  0  0  0  0
   49.5614   30.2528   42.8143 H   0  0  0  0  0  0  0  0  0  0  0  0
   48.7913   29.0647   44.8550 H   0  0  0  0  0  0  0  0  0  0  0  0
   45.4048   33.2863   45.5600 H   0  0  0  0  0  0  0  0  0  0  0  0
   47.2767   29.1300   46.7623 H   0  0  0  0  0  0  0  0  0  0  0  0
  1  3  1  0
  1 11  1  0
  2  1  1  0
  2  3  1  0
  4  1  1  0
  5  4  1  0
  6  5  1  0
  7  6  1  0
  7  8  1  0
  8  9  1  0
  9  4  1  0
 10 11  2  0
 10 15  1  0
 11 12  1  0
 12 18  1  0
 12 13  2  0
 14 13  1  0
 14 16  1  0
 15 14  2  0
 17 22  2  0
 17 23  1  0
 18 17  1  0
 19 20  1  0
 19 18  2  0
 20 21  2  0
 21 22  1  0
 22 24  1  0
  2 25  1  0
  2 26  1  0
  3 27  1  0
  3 28  1  0
  4 29  1  0
  5 30  1  0
  5 31  1  0
  6 32  1  0
  6 33  1  0
  8 34  1  0
  8 35  1  0
  9 36  1  0
  9 37  1  0
 10 38  1  0
 16 39  1  0
 16 40  1  0
 19 41  1  0
 20 42  1  0
 21 43  1  0
 23 44  1  0
 24 45  1  0
M  ISO  8  25  13  26  13  27  13  28  13  29  13  30  13  31  13  32  13
M  ISO  8  33  13  34  13  35  13  36  13  37  13  38  14  41  14  42  14
M  ISO  3  43  14  44   3  45   3
M  END
>  <minimizedAffinity>  (1) 
-6.22571611

>  <minimizedRMSD>  (1) 
0.627482831

$$$$
