
     RDKit          3D

 48 51  0  0  1  0  0  0  0  0999 V2000
   49.1020   32.8710   37.6440 C   0  0  1  0  0  0  0  0  0  0  0  0
   48.0860   33.7190   38.5670 C   0  0  1  0  0  0  0  0  0  0  0  0
   47.3450   34.2590   37.5800 O   0  0  0  0  0  0  0  0  0  0  0  0
   46.8800   33.0740   36.9500 C   0  0  0  0  0  0  0  0  0  0  0  0
   48.1760   32.4120   36.5580 C   0  0  1  0  0  0  0  0  0  0  0  0
   49.9520   33.8410   37.0960 O   0  0  0  0  0  0  0  0  0  0  0  0
   47.3460   32.7300   39.2130 O   0  0  0  0  0  0  0  0  0  0  0  0
   47.7630   33.3070   41.4720 C   0  0  2  0  0  0  0  0  0  0  0  0
   46.2250   33.1910   41.6410 C   0  0  1  0  0  0  0  0  0  0  0  0
   46.1400   31.8670   41.9610 O   0  0  0  0  0  0  0  0  0  0  0  0
   46.8840   31.2250   40.9500 C   0  0  0  0  0  0  0  0  0  0  0  0
   47.8760   32.2670   40.3810 C   0  0  1  0  0  0  0  0  0  0  0  0
   44.8140   36.0710   43.6810 C   0  0  0  0  0  0  0  0  0  0  0  0
   45.2650   35.3970   42.5500 C   0  0  0  0  0  0  0  0  0  0  0  0
   45.7330   34.1090   42.6720 C   0  0  0  0  0  0  0  0  0  0  0  0
   45.7250   33.5620   43.9290 N   0  0  0  0  0  0  0  0  0  0  0  0
   45.2850   34.2290   45.0110 C   0  0  0  0  0  0  0  0  0  0  0  0
   44.8300   35.4840   44.8850 N   0  0  0  0  0  0  0  0  0  0  0  0
   48.4110   32.7930   42.5650 O   0  0  0  0  0  0  0  0  0  0  0  0
   48.5670   32.8790   35.3190 O   0  0  0  0  0  0  0  0  0  0  0  0
   48.4440   32.4540   33.0770 C   0  0  0  0  0  0  0  0  0  0  0  0
   49.1020   32.1820   34.2760 C   0  0  0  0  0  0  0  0  0  0  0  0
   50.1540   31.2870   34.2450 C   0  0  0  0  0  0  0  0  0  0  0  0
   50.5480   30.6780   33.0730 C   0  0  0  0  0  0  0  0  0  0  0  0
   49.8930   30.9460   31.8680 C   0  0  0  0  0  0  0  0  0  0  0  0
   48.8400   31.8380   31.8840 C   0  0  0  0  0  0  0  0  0  0  0  0
   47.3630   33.3290   32.9210 O   0  0  0  0  0  0  0  0  0  0  0  0
   48.2190   32.0770   30.6750 O   0  0  0  0  0  0  0  0  0  0  0  0
   49.6706   32.0621   38.1261 H   0  0  0  0  0  0  0  0  0  0  0  0
   48.4775   34.4428   39.2969 H   0  0  0  0  0  0  0  0  0  0  0  0
   46.3041   32.4479   37.6474 H   0  0  0  0  0  0  0  0  0  0  0  0
   46.1959   33.2535   36.1075 H   0  0  0  0  0  0  0  0  0  0  0  0
   48.1346   31.3163   36.4700 H   0  0  0  0  0  0  0  0  0  0  0  0
   50.3927   34.3439   37.8260 H   0  0  0  0  0  0  0  0  0  0  0  0
   48.1582   34.3203   41.3076 H   0  0  0  0  0  0  0  0  0  0  0  0
   45.6061   33.4716   40.7760 H   0  0  0  0  0  0  0  0  0  0  0  0
   47.4347   30.3713   41.3717 H   0  0  0  0  0  0  0  0  0  0  0  0
   46.2210   30.8442   40.1591 H   0  0  0  0  0  0  0  0  0  0  0  0
   48.9030   31.9378   40.1643 H   0  0  0  0  0  0  0  0  0  0  0  0
   44.4390   37.1006   43.5849 H   0  0  0  0  0  0  0  0  0  0  0  0
   45.2474   35.8899   41.5668 H   0  0  0  0  0  0  0  0  0  0  0  0
   45.2984   33.7451   45.9988 H   0  0  0  0  0  0  0  0  0  0  0  0
   47.9839   33.1318   43.3914 H   0  0  0  0  0  0  0  0  0  0  0  0
   50.6896   31.0550   35.1774 H   0  0  0  0  0  0  0  0  0  0  0  0
   51.3903   29.9707   33.0863 H   0  0  0  0  0  0  0  0  0  0  0  0
   50.2079   30.4596   30.9330 H   0  0  0  0  0  0  0  0  0  0  0  0
   46.9574   33.4603   32.0275 H   0  0  0  0  0  0  0  0  0  0  0  0
   47.4575   32.7077   30.6258 H   0  0  0  0  0  0  0  0  0  0  0  0
  1  2  1  0
  2  7  1  0
  3  2  1  0
  4  3  1  0
  5  4  1  0
  5  1  1  0
  6  1  1  0
  7 12  1  0
  8  9  1  0
  8 19  1  0
  9 10  1  0
  9 15  1  0
 11 10  1  0
 12 11  1  0
 12  8  1  0
 13 18  2  0
 14 15  2  0
 14 13  1  0
 15 16  1  0
 16 17  2  0
 18 17  1  0
 20  5  1  0
 21 22  2  0
 22 20  1  0
 23 22  1  0
 24 23  2  0
 25 26  2  0
 25 24  1  0
 26 21  1  0
 27 21  1  0
 28 26  1  0
  1 29  1  1
  2 30  1  1
  4 31  1  0
  4 32  1  0
  5 33  1  6
  6 34  1  0
  8 35  1  6
  9 36  1  6
 11 37  1  0
 11 38  1  0
 12 39  1  6
 13 40  1  0
 14 41  1  0
 17 42  1  0
 19 43  1  0
 23 44  1  0
 24 45  1  0
 25 46  1  0
 27 47  1  0
 28 48  1  0
M  ISO  8  29  13  30  13  31  13  32  13  33  13  34   3  35  13  36  13
M  ISO  8  37  13  38  13  39  13  40  14  41  14  42  14  43   3  44  14
M  ISO  4  45  14  46  14  47   3  48   3
M  END
>  <minimizedAffinity>  (1) 
-6.50062609

>  <minimizedRMSD>  (1) 
2.56495428

$$$$
