
     RDKit          3D

 25 26  0  0  0  0  0  0  0  0999 V2000
   44.9110   35.2640   44.5560 C   0  0  0  0  0  0  0  0  0  0  0  0
   44.7570   34.7060   43.2850 C   0  0  0  0  0  0  0  0  0  0  0  0
   45.0910   33.3680   43.1250 C   0  0  0  0  0  0  0  0  0  0  0  0
   45.5450   32.6780   44.2050 N   0  0  0  0  0  0  0  0  0  0  0  0
   45.6830   33.2380   45.4150 C   0  0  0  0  0  0  0  0  0  0  0  0
   45.3680   34.5340   45.6070 N   0  0  0  0  0  0  0  0  0  0  0  0
   45.5850   32.5420   47.7750 C   0  0  0  0  0  0  0  0  0  0  0  0
   46.1750   32.4560   46.5440 C   0  0  0  0  0  0  0  0  0  0  0  0
   47.2450   31.6060   46.4140 C   0  0  0  0  0  0  0  0  0  0  0  0
   47.6920   30.8750   47.5040 C   0  0  0  0  0  0  0  0  0  0  0  0
   47.0780   30.9800   48.7390 C   0  0  0  0  0  0  0  0  0  0  0  0
   45.9970   31.8330   48.8830 C   0  0  0  0  0  0  0  0  0  0  0  0
   44.4880   33.4160   47.8960 O   0  0  0  0  0  0  0  0  0  0  0  0
   45.2980   32.0190   50.0850 O   0  0  0  0  0  0  0  0  0  0  0  0
   44.2470   35.6440   42.2610 C   0  0  0  0  0  0  0  0  0  0  0  0
   44.6555   36.3227   44.7104 H   0  0  0  0  0  0  0  0  0  0  0  0
   44.9905   32.8768   42.1459 H   0  0  0  0  0  0  0  0  0  0  0  0
   47.7495   31.5045   45.4418 H   0  0  0  0  0  0  0  0  0  0  0  0
   48.5512   30.1987   47.3844 H   0  0  0  0  0  0  0  0  0  0  0  0
   47.4436   30.3938   49.5950 H   0  0  0  0  0  0  0  0  0  0  0  0
   44.1783   33.9333   47.1108 H   0  0  0  0  0  0  0  0  0  0  0  0
   45.5704   31.5237   50.8978 H   0  0  0  0  0  0  0  0  0  0  0  0
   43.7777   36.5072   42.7557 H   0  0  0  0  0  0  0  0  0  0  0  0
   45.0811   35.9902   41.6330 H   0  0  0  0  0  0  0  0  0  0  0  0
   43.5030   35.1321   41.6330 H   0  0  0  0  0  0  0  0  0  0  0  0
  1  6  2  0
  2  1  1  0
  3  2  2  0
  3  4  1  0
  4  5  2  0
  5  6  1  0
  5  8  1  0
  7 13  1  0
  7 12  2  0
  8  7  1  0
  9  8  2  0
  9 10  1  0
 10 11  2  0
 11 12  1  0
 12 14  1  0
 15  2  1  0
  1 16  1  0
  3 17  1  0
  9 18  1  0
 10 19  1  0
 11 20  1  0
 13 21  1  0
 14 22  1  0
 15 23  1  0
 15 24  1  0
 15 25  1  0
M  ISO  8  16  14  17  14  18  14  19  14  20  14  21   3  22   3  23   8
M  ISO  2  24   8  25   8
M  END
>  <minimizedAffinity>  (1) 
-5.70583963

>  <minimizedRMSD>  (1) 
1.52649319

$$$$
