
     RDKit          3D

 31 32  0  0  0  0  0  0  0  0999 V2000
   45.3700   30.5560   46.8340 O   0  0  0  0  0  0  0  0  0  0  0  0
   45.1080   29.6680   47.8360 C   0  0  0  0  0  0  0  0  0  0  0  0
   44.6520   27.2170   48.2480 C   0  0  0  0  0  0  0  0  0  0  0  0
   44.9200   28.2630   47.3940 C   0  0  0  0  0  0  0  0  0  0  0  0
   45.0250   27.9830   46.0400 C   0  0  0  0  0  0  0  0  0  0  0  0
   44.8760   26.7180   45.4910 C   0  0  0  0  0  0  0  0  0  0  0  0
   44.6060   25.6790   46.3670 C   0  0  0  0  0  0  0  0  0  0  0  0
   44.5020   25.9670   47.7270 C   0  0  0  0  0  0  0  0  0  0  0  0
   44.5460   27.5000   49.6020 O   0  0  0  0  0  0  0  0  0  0  0  0
   44.2330   24.9360   48.6110 O   0  0  0  0  0  0  0  0  0  0  0  0
   46.7360   31.6930   48.7120 O   0  0  0  0  0  0  0  0  0  0  0  0
   45.8100   32.0320   47.5440 P   0  0  2  0  0  0  0  0  0  0  0  0
   44.3920   32.7810   48.0670 O   0  0  0  0  0  0  0  0  0  0  0  0
   46.6650   33.0280   46.4960 O   0  0  0  0  0  0  0  0  0  0  0  0
   44.5410   35.4050   44.9560 C   0  0  0  0  0  0  0  0  0  0  0  0
   44.9830   35.4940   43.6150 C   0  0  0  0  0  0  0  0  0  0  0  0
   46.0780   34.6630   43.2790 C   0  0  0  0  0  0  0  0  0  0  0  0
   46.6120   33.8590   44.2570 N   0  0  0  0  0  0  0  0  0  0  0  0
   46.1420   33.8270   45.5030 C   0  0  0  0  0  0  0  0  0  0  0  0
   45.1160   34.5960   45.8420 N   0  0  0  0  0  0  0  0  0  0  0  0
   45.9496   29.6937   48.5438 H   0  0  0  0  0  0  0  0  0  0  0  0
   44.1528   29.9808   48.2830 H   0  0  0  0  0  0  0  0  0  0  0  0
   45.2404   28.8181   45.3572 H   0  0  0  0  0  0  0  0  0  0  0  0
   44.9681   26.5472   44.4082 H   0  0  0  0  0  0  0  0  0  0  0  0
   44.4767   24.6509   45.9979 H   0  0  0  0  0  0  0  0  0  0  0  0
   44.3541   26.7731   50.2461 H   0  0  0  0  0  0  0  0  0  0  0  0
   44.1558   25.1225   49.5802 H   0  0  0  0  0  0  0  0  0  0  0  0
   44.3705   32.7924   49.0567 H   0  0  0  0  0  0  0  0  0  0  0  0
   43.6922   36.0265   45.2774 H   0  0  0  0  0  0  0  0  0  0  0  0
   44.5077   36.1637   42.8832 H   0  0  0  0  0  0  0  0  0  0  0  0
   46.4916   34.6607   42.2597 H   0  0  0  0  0  0  0  0  0  0  0  0
  1 12  1  0
  1  2  1  0
  3  9  1  0
  4  2  1  0
  4  3  2  0
  5  4  1  0
  6  5  2  0
  6  7  1  0
  7  8  2  0
  8  3  1  0
  8 10  1  0
 12 13  1  0
 12 11  2  0
 14 12  1  0
 15 20  2  0
 16 15  1  0
 17 16  2  0
 17 18  1  0
 18 19  2  0
 19 20  1  0
 19 14  1  0
  2 21  1  0
  2 22  1  0
  5 23  1  0
  6 24  1  0
  7 25  1  0
  9 26  1  0
 10 27  1  0
 13 28  1  0
 15 29  1  0
 16 30  1  0
 17 31  1  0
M  ISO  8  21   8  22   8  23  14  24  14  25  14  26   3  27   3  28   3
M  ISO  3  29  14  30  14  31  14
M  END
>  <minimizedAffinity>  (1) 
-5.10550642

>  <minimizedRMSD>  (1) 
1.31731093

$$$$
