
     RDKit          3D

 43 46  0  0  1  0  0  0  0  0999 V2000
   45.9330   33.4990   45.4930 C   0  0  0  0  0  0  0  0  0  0  0  0
   46.7880   33.6120   44.3720 C   0  0  0  0  0  0  0  0  0  0  0  0
   47.5080   32.4520   43.9620 C   0  0  0  0  0  0  0  0  0  0  0  0
   47.3400   31.2920   44.6690 N   0  0  0  0  0  0  0  0  0  0  0  0
   46.5060   31.2460   45.7340 C   0  0  0  0  0  0  0  0  0  0  0  0
   45.8150   32.3400   46.1350 N   0  0  0  0  0  0  0  0  0  0  0  0
   46.3990   30.0200   46.3950 N   0  0  0  0  0  0  0  0  0  0  0  0
   47.5430   29.4000   46.9740 C   0  0  2  0  0  0  0  0  0  0  0  0
   47.3490   27.9880   47.4060 C   0  0  0  0  0  0  0  0  0  0  0  0
   46.0470   27.6220   47.8240 N   0  0  0  0  0  0  0  0  0  0  0  0
   45.1050   28.6810   47.8370 C   0  0  0  0  0  0  0  0  0  0  0  0
   45.1140   29.3660   46.4980 C   0  0  0  0  0  0  0  0  0  0  0  0
   48.1630   30.2480   48.0270 C   0  0  0  0  0  0  0  0  0  0  0  0
   48.0490   31.5830   48.3320 C   0  0  0  0  0  0  0  0  0  0  0  0
   48.7990   31.9130   49.3920 N   0  0  0  0  0  0  0  0  0  0  0  0
   49.3960   30.7830   49.7670 C   0  0  0  0  0  0  0  0  0  0  0  0
   49.0200   29.7880   48.9570 N   0  0  0  0  0  0  0  0  0  0  0  0
   51.1520   31.5580   51.4020 C   0  0  0  0  0  0  0  0  0  0  0  0
   50.3390   30.5610   50.8860 C   0  0  0  0  0  0  0  0  0  0  0  0
   50.3800   29.2720   51.4170 C   0  0  0  0  0  0  0  0  0  0  0  0
   51.2450   29.0530   52.4490 C   0  0  0  0  0  0  0  0  0  0  0  0
   52.0510   30.0310   52.9660 C   0  0  0  0  0  0  0  0  0  0  0  0
   52.0150   31.3220   52.4400 C   0  0  0  0  0  0  0  0  0  0  0  0
   51.0530   32.8240   50.8170 O   0  0  0  0  0  0  0  0  0  0  0  0
   52.8160   32.3170   52.9440 O   0  0  0  0  0  0  0  0  0  0  0  0
   45.3623   34.3746   45.8359 H   0  0  0  0  0  0  0  0  0  0  0  0
   46.8941   34.5652   43.8334 H   0  0  0  0  0  0  0  0  0  0  0  0
   48.1846   32.4883   43.0954 H   0  0  0  0  0  0  0  0  0  0  0  0
   48.2647   29.3199   46.1478 H   0  0  0  0  0  0  0  0  0  0  0  0
   47.6211   27.3405   46.5594 H   0  0  0  0  0  0  0  0  0  0  0  0
   47.9817   27.8702   48.2981 H   0  0  0  0  0  0  0  0  0  0  0  0
   45.6993   26.8922   47.1857 H   0  0  0  0  0  0  0  0  0  0  0  0
   44.1012   28.2783   48.0377 H   0  0  0  0  0  0  0  0  0  0  0  0
   45.3704   29.4027   48.6236 H   0  0  0  0  0  0  0  0  0  0  0  0
   44.3025   30.1064   46.4418 H   0  0  0  0  0  0  0  0  0  0  0  0
   44.9589   28.6500   45.6775 H   0  0  0  0  0  0  0  0  0  0  0  0
   47.4199   32.2928   47.7749 H   0  0  0  0  0  0  0  0  0  0  0  0
   48.8938   32.8428   49.8249 H   0  0  0  0  0  0  0  0  0  0  0  0
   49.7429   28.4674   51.0211 H   0  0  0  0  0  0  0  0  0  0  0  0
   51.2971   28.0446   52.8854 H   0  0  0  0  0  0  0  0  0  0  0  0
   52.7298   29.7977   53.7996 H   0  0  0  0  0  0  0  0  0  0  0  0
   50.4237   32.9753   50.0679 H   0  0  0  0  0  0  0  0  0  0  0  0
   53.4322   32.1240   53.6944 H   0  0  0  0  0  0  0  0  0  0  0  0
  1  6  2  0
  2  1  1  0
  3  2  2  0
  3  4  1  0
  4  5  2  0
  5  6  1  0
  5  7  1  0
  7 12  1  0
  7  8  1  0
  8  9  1  0
  8 13  1  0
  9 10  1  0
 10 11  1  0
 12 11  1  0
 13 14  2  0
 13 17  1  0
 14 15  1  0
 15 16  1  0
 16 19  1  0
 17 16  2  0
 18 23  2  0
 19 18  1  0
 19 20  2  0
 20 21  1  0
 21 22  2  0
 23 25  1  0
 23 22  1  0
 24 18  1  0
  1 26  1  0
  2 27  1  0
  3 28  1  0
  8 29  1  6
  9 30  1  0
  9 31  1  0
 10 32  1  0
 11 33  1  0
 11 34  1  0
 12 35  1  0
 12 36  1  0
 14 37  1  0
 15 38  1  0
 20 39  1  0
 21 40  1  0
 22 41  1  0
 24 42  1  0
 25 43  1  0
M  ISO  8  26  14  27  14  28  14  29  13  30  13  31  13  32   5  33  13
M  ISO  8  34  13  35  13  36  13  37  14  38   9  39  14  40  14  41  14
M  ISO  2  42   3  43   3
M  END
>  <minimizedAffinity>  (1) 
-6.1023798

>  <minimizedRMSD>  (1) 
1.81959903

$$$$
