
     RDKit          3D

 47 49  0  0  0  0  0  0  0  0999 V2000
   51.4070   31.7780   50.9470 C   0  0  0  0  0  0  0  0  0  0  0  0
   51.5930   30.5810   51.6920 C   0  0  0  0  0  0  0  0  0  0  0  0
   50.6820   29.5440   51.5470 C   0  0  0  0  0  0  0  0  0  0  0  0
   49.6670   29.7330   50.7040 N   0  0  0  0  0  0  0  0  0  0  0  0
   49.4900   30.8680   49.9990 C   0  0  0  0  0  0  0  0  0  0  0  0
   50.3560   31.8890   50.1170 N   0  0  0  0  0  0  0  0  0  0  0  0
   52.4050   30.7540   53.8620 C   0  0  0  0  0  0  0  0  0  0  0  0
   52.7840   30.6790   52.5140 C   0  0  0  0  0  0  0  0  0  0  0  0
   54.1320   30.7280   52.2250 C   0  0  0  0  0  0  0  0  0  0  0  0
   55.0630   30.8470   53.2330 C   0  0  0  0  0  0  0  0  0  0  0  0
   54.6820   30.9210   54.5550 C   0  0  0  0  0  0  0  0  0  0  0  0
   53.3460   30.8750   54.8840 C   0  0  0  0  0  0  0  0  0  0  0  0
   51.0960   30.7230   54.3790 O   0  0  0  0  0  0  0  0  0  0  0  0
   53.0630   30.9540   56.2200 O   0  0  0  0  0  0  0  0  0  0  0  0
   48.3450   31.0140   49.1010 C   0  0  0  0  0  0  0  0  0  0  0  0
   47.9870   32.1760   48.6060 C   0  0  0  0  0  0  0  0  0  0  0  0
   46.8200   32.2880   47.6980 C   0  0  0  0  0  0  0  0  0  0  0  0
   46.8940   32.6530   45.3910 C   0  0  0  0  0  0  0  0  0  0  0  0
   46.6140   31.5220   44.9550 O   0  0  0  0  0  0  0  0  0  0  0  0
   47.0190   33.2110   46.6650 N   0  0  0  0  0  0  0  0  0  0  0  0
   45.0190   34.9030   44.5200 Cl  0  0  0  0  0  0  0  0  0  0  0  0
   46.3720   34.3960   43.5560 C   0  0  0  0  0  0  0  0  0  0  0  0
   47.0910   33.3690   44.1260 C   0  0  0  0  0  0  0  0  0  0  0  0
   48.2110   32.8470   43.4710 C   0  0  0  0  0  0  0  0  0  0  0  0
   48.6060   33.3650   42.2350 C   0  0  0  0  0  0  0  0  0  0  0  0
   47.8690   34.3950   41.6820 C   0  0  0  0  0  0  0  0  0  0  0  0
   48.3090   35.0860   40.1390 Cl  0  0  0  0  0  0  0  0  0  0  0  0
   46.7650   34.9020   42.3390 C   0  0  0  0  0  0  0  0  0  0  0  0
   50.8240   28.3910   52.2350 O   0  0  0  0  0  0  0  0  0  0  0  0
   51.6580   27.3710   51.6420 C   0  0  0  0  0  0  0  0  0  0  0  0
   52.1210   27.8170   50.4110 F   0  0  0  0  0  0  0  0  0  0  0  0
   52.7510   27.2430   52.5020 F   0  0  0  0  0  0  0  0  0  0  0  0
   51.0230   26.1370   51.5480 F   0  0  0  0  0  0  0  0  0  0  0  0
   52.1202   32.6092   51.0497 H   0  0  0  0  0  0  0  0  0  0  0  0
   54.4668   30.6714   51.1787 H   0  0  0  0  0  0  0  0  0  0  0  0
   56.1323   30.8837   52.9774 H   0  0  0  0  0  0  0  0  0  0  0  0
   55.4422   31.0164   55.3443 H   0  0  0  0  0  0  0  0  0  0  0  0
   50.3234   30.6396   53.7656 H   0  0  0  0  0  0  0  0  0  0  0  0
   53.7982   31.0386   56.8776 H   0  0  0  0  0  0  0  0  0  0  0  0
   47.7640   30.1198   48.8312 H   0  0  0  0  0  0  0  0  0  0  0  0
   48.5598   33.0778   48.8681 H   0  0  0  0  0  0  0  0  0  0  0  0
   46.6253   31.3008   47.2536 H   0  0  0  0  0  0  0  0  0  0  0  0
   45.9687   32.6428   48.2976 H   0  0  0  0  0  0  0  0  0  0  0  0
   47.2363   34.2045   46.8284 H   0  0  0  0  0  0  0  0  0  0  0  0
   48.7823   32.0267   43.9300 H   0  0  0  0  0  0  0  0  0  0  0  0
   49.4858   32.9612   41.7126 H   0  0  0  0  0  0  0  0  0  0  0  0
   46.1918   35.7223   41.8823 H   0  0  0  0  0  0  0  0  0  0  0  0
  1  2  2  0
  2  8  1  0
  3  2  1  0
  3 29  1  0
  4  3  2  0
  5  6  2  0
  5  4  1  0
  6  1  1  0
  7 13  1  0
  7 12  2  0
  8  7  1  0
  9  8  2  0
  9 10  1  0
 10 11  2  0
 11 12  1  0
 12 14  1  0
 15  5  1  0
 16 15  2  0
 17 16  1  0
 18 20  1  0
 19 18  2  0
 20 17  1  0
 22 23  2  0
 22 21  1  0
 23 18  1  0
 24 23  1  0
 25 24  2  0
 26 25  1  0
 26 28  2  0
 27 26  1  0
 28 22  1  0
 30 29  1  0
 30 32  1  0
 31 30  1  0
 33 30  1  0
  1 34  1  0
  9 35  1  0
 10 36  1  0
 11 37  1  0
 13 38  1  0
 14 39  1  0
 15 40  1  0
 16 41  1  0
 17 42  1  0
 17 43  1  0
 20 44  1  0
 24 45  1  0
 25 46  1  0
 28 47  1  0
M  END
>  <minimizedAffinity>  (1) 
-7.72768879

>  <minimizedRMSD>  (1) 
0.55262059

$$$$
