
     RDKit          3D

 25 26  0  0  0  0  0  0  0  0999 V2000
   46.9660   31.6760   44.8200 C   0  0  0  0  0  0  0  0  0  0  0  0
   45.9640   34.9410   43.3360 C   0  0  0  0  0  0  0  0  0  0  0  0
   44.8190   34.5830   42.6210 C   0  0  0  0  0  0  0  0  0  0  0  0
   44.4240   33.2470   42.6640 C   0  0  0  0  0  0  0  0  0  0  0  0
   45.1440   32.3500   43.3840 N   0  0  0  0  0  0  0  0  0  0  0  0
   46.2630   32.7480   44.0720 C   0  0  0  0  0  0  0  0  0  0  0  0
   46.6400   34.0310   44.0280 N   0  0  0  0  0  0  0  0  0  0  0  0
   46.3660   32.2500   47.1930 C   0  0  0  0  0  0  0  0  0  0  0  0
   46.3080   31.4010   46.1110 C   0  0  0  0  0  0  0  0  0  0  0  0
   45.5860   30.2310   46.2650 C   0  0  0  0  0  0  0  0  0  0  0  0
   44.9240   29.8650   47.4360 C   0  0  0  0  0  0  0  0  0  0  0  0
   45.0010   30.7400   48.5090 C   0  0  0  0  0  0  0  0  0  0  0  0
   45.7180   31.9100   48.3670 C   0  0  0  0  0  0  0  0  0  0  0  0
   47.0710   33.4280   47.0950 O   0  0  0  0  0  0  0  0  0  0  0  0
   45.7810   32.7680   49.4510 O   0  0  0  0  0  0  0  0  0  0  0  0
   48.0033   31.9909   45.0068 H   0  0  0  0  0  0  0  0  0  0  0  0
   46.9401   30.7575   44.2154 H   0  0  0  0  0  0  0  0  0  0  0  0
   46.3089   35.9855   43.3259 H   0  0  0  0  0  0  0  0  0  0  0  0
   44.2500   35.3278   42.0452 H   0  0  0  0  0  0  0  0  0  0  0  0
   43.5290   32.9199   42.1145 H   0  0  0  0  0  0  0  0  0  0  0  0
   45.5307   29.5445   45.4073 H   0  0  0  0  0  0  0  0  0  0  0  0
   44.3637   28.9210   47.5059 H   0  0  0  0  0  0  0  0  0  0  0  0
   44.4982   30.5048   49.4587 H   0  0  0  0  0  0  0  0  0  0  0  0
   47.5308   33.6609   46.2497 H   0  0  0  0  0  0  0  0  0  0  0  0
   45.3205   32.5334   50.2954 H   0  0  0  0  0  0  0  0  0  0  0  0
  1  9  1  0
  2  7  2  0
  3  4  2  0
  3  2  1  0
  4  5  1  0
  5  6  2  0
  6  1  1  0
  7  6  1  0
  8 13  2  0
  9 10  2  0
  9  8  1  0
 10 11  1  0
 11 12  2  0
 13 12  1  0
 13 15  1  0
 14  8  1  0
  1 16  1  0
  1 17  1  0
  2 18  1  0
  3 19  1  0
  4 20  1  0
 10 21  1  0
 11 22  1  0
 12 23  1  0
 14 24  1  0
 15 25  1  0
M  ISO  8  16   8  17   8  18  14  19  14  20  14  21  14  22  14  23  14
M  ISO  2  24   3  25   3
M  END
>  <minimizedAffinity>  (1) 
-4.69169712

>  <minimizedRMSD>  (1) 
3.03546453

$$$$
