
     RDKit          3D

 26 27  0  0  0  0  0  0  0  0999 V2000
   43.0730   33.9540   40.6760 C   0  0  0  0  0  0  0  0  0  0  0  0
   40.6760   33.4470   40.9660 C   0  0  0  0  0  0  0  0  0  0  0  0
   41.6450   34.1430   40.2770 C   0  0  0  0  0  0  0  0  0  0  0  0
   41.2450   34.9860   39.2410 C   0  0  0  0  0  0  0  0  0  0  0  0
   39.9180   35.1090   38.9300 C   0  0  0  0  0  0  0  0  0  0  0  0
   38.9280   34.4170   39.6120 C   0  0  0  0  0  0  0  0  0  0  0  0
   39.3400   33.5720   40.6490 C   0  0  0  0  0  0  0  0  0  0  0  0
   41.0310   32.5920   42.0100 O   0  0  0  0  0  0  0  0  0  0  0  0
   38.3100   32.8970   41.3060 O   0  0  0  0  0  0  0  0  0  0  0  0
   43.6970   35.3960   41.5650 S   0  0  0  0  0  0  0  0  0  0  0  0
   44.2210   35.7380   44.2650 C   0  0  0  0  0  0  0  0  0  0  0  0
   44.3630   34.8910   43.1510 C   0  0  0  0  0  0  0  0  0  0  0  0
   45.0080   33.6750   43.2540 C   0  0  0  0  0  0  0  0  0  0  0  0
   45.4930   33.3490   44.4900 N   0  0  0  0  0  0  0  0  0  0  0  0
   45.3420   34.1830   45.5400 C   0  0  0  0  0  0  0  0  0  0  0  0
   44.7270   35.3560   45.4700 N   0  0  0  0  0  0  0  0  0  0  0  0
   43.6807   33.7986   39.7724 H   0  0  0  0  0  0  0  0  0  0  0  0
   43.1368   33.0798   41.3406 H   0  0  0  0  0  0  0  0  0  0  0  0
   41.9971   35.5530   38.6728 H   0  0  0  0  0  0  0  0  0  0  0  0
   39.6259   35.7809   38.1095 H   0  0  0  0  0  0  0  0  0  0  0  0
   37.8655   34.5275   39.3493 H   0  0  0  0  0  0  0  0  0  0  0  0
   40.3308   32.0941   42.5019 H   0  0  0  0  0  0  0  0  0  0  0  0
   38.5191   32.2801   42.0515 H   0  0  0  0  0  0  0  0  0  0  0  0
   43.7040   36.7036   44.1633 H   0  0  0  0  0  0  0  0  0  0  0  0
   45.1253   33.0052   42.3894 H   0  0  0  0  0  0  0  0  0  0  0  0
   45.7533   33.8716   46.5115 H   0  0  0  0  0  0  0  0  0  0  0  0
  1 10  1  0
  2  8  1  0
  3  1  1  0
  3  2  2  0
  4  3  1  0
  5  4  2  0
  5  6  1  0
  6  7  2  0
  7  2  1  0
  7  9  1  0
 10 12  1  0
 11 16  2  0
 12 13  2  0
 12 11  1  0
 13 14  1  0
 14 15  2  0
 16 15  1  0
  1 17  1  0
  1 18  1  0
  4 19  1  0
  5 20  1  0
  6 21  1  0
  8 22  1  0
  9 23  1  0
 11 24  1  0
 13 25  1  0
 15 26  1  0
M  ISO  8  17   8  18   8  19  14  20  14  21  14  22   3  23   3  24  14
M  ISO  2  25  14  26  14
M  END
>  <minimizedAffinity>  (1) 
-5.30694485

>  <minimizedRMSD>  (1) 
2.63992691

$$$$
