
     RDKit          3D

 48 52  0  0  1  0  0  0  0  0999 V2000
   50.0790   31.6800   42.3890 C   0  0  1  0  0  0  0  0  0  0  0  0
   49.6960   31.9290   40.9530 C   0  0  0  0  0  0  0  0  0  0  0  0
   48.6510   31.7860   42.0870 C   0  0  2  0  0  0  0  0  0  0  0  0
   50.3590   28.0750   43.1740 C   0  0  0  0  0  0  0  0  0  0  0  0
   51.7660   27.9470   43.4510 C   0  0  0  0  0  0  0  0  0  0  0  0
   52.5610   29.1010   43.3570 C   0  0  0  0  0  0  0  0  0  0  0  0
   51.9960   30.2570   43.0170 N   0  0  0  0  0  0  0  0  0  0  0  0
   50.6700   30.3460   42.7630 C   0  0  0  0  0  0  0  0  0  0  0  0
   49.8220   29.2560   42.8350 N   0  0  0  0  0  0  0  0  0  0  0  0
   54.5430   29.8470   44.5970 C   0  0  0  0  0  0  0  0  0  0  0  0
   53.9900   29.0450   43.6220 C   0  0  0  0  0  0  0  0  0  0  0  0
   54.8850   28.2330   42.9660 C   0  0  0  0  0  0  0  0  0  0  0  0
   56.2240   28.1700   43.2050 C   0  0  0  0  0  0  0  0  0  0  0  0
   56.7500   28.9890   44.1920 C   0  0  0  0  0  0  0  0  0  0  0  0
   55.9020   29.8270   44.8870 C   0  0  0  0  0  0  0  0  0  0  0  0
   53.6720   30.6930   45.2940 O   0  0  0  0  0  0  0  0  0  0  0  0
   56.3110   30.6970   45.9010 O   0  0  0  0  0  0  0  0  0  0  0  0
   47.9560   32.9800   42.4730 N   0  0  0  0  0  0  0  0  0  0  0  0
   47.1970   33.0500   43.6520 C   0  0  0  0  0  0  0  0  0  0  0  0
   47.3900   32.1120   44.6350 C   0  0  0  0  0  0  0  0  0  0  0  0
   46.7310   32.1550   45.8540 C   0  0  0  0  0  0  0  0  0  0  0  0
   45.8350   33.1620   46.1370 C   0  0  0  0  0  0  0  0  0  0  0  0
   45.6220   34.1200   45.1620 C   0  0  0  0  0  0  0  0  0  0  0  0
   44.7370   35.1420   45.4330 C   0  0  0  0  0  0  0  0  0  0  0  0
   44.4850   36.1200   44.5220 C   0  0  0  0  0  0  0  0  0  0  0  0
   45.1570   36.0440   43.3090 C   0  0  0  0  0  0  0  0  0  0  0  0
   46.0320   35.0250   43.0560 C   0  0  0  0  0  0  0  0  0  0  0  0
   46.2940   34.0450   43.9620 C   0  0  0  0  0  0  0  0  0  0  0  0
   46.6660   34.9910   41.8370 O   0  0  0  0  0  0  0  0  0  0  0  0
   50.7386   32.1903   43.1064 H   0  0  0  0  0  0  0  0  0  0  0  0
   49.8129   31.1364   40.1993 H   0  0  0  0  0  0  0  0  0  0  0  0
   49.9372   32.6795   40.1858 H   0  0  0  0  0  0  0  0  0  0  0  0
   47.7766   31.1469   42.2795 H   0  0  0  0  0  0  0  0  0  0  0  0
   49.7126   27.1876   43.2417 H   0  0  0  0  0  0  0  0  0  0  0  0
   52.2042   26.9767   43.7274 H   0  0  0  0  0  0  0  0  0  0  0  0
   54.4842   27.5769   42.1793 H   0  0  0  0  0  0  0  0  0  0  0  0
   56.8697   27.4888   42.6314 H   0  0  0  0  0  0  0  0  0  0  0  0
   57.8265   28.9712   44.4177 H   0  0  0  0  0  0  0  0  0  0  0  0
   52.7061   30.6967   45.0768 H   0  0  0  0  0  0  0  0  0  0  0  0
   57.2648   30.7382   46.1630 H   0  0  0  0  0  0  0  0  0  0  0  0
   48.0156   33.8108   41.8671 H   0  0  0  0  0  0  0  0  0  0  0  0
   48.0978   31.2910   44.4477 H   0  0  0  0  0  0  0  0  0  0  0  0
   46.9262   31.3750   46.6047 H   0  0  0  0  0  0  0  0  0  0  0  0
   45.3086   33.2030   47.1020 H   0  0  0  0  0  0  0  0  0  0  0  0
   44.2243   35.1669   46.4059 H   0  0  0  0  0  0  0  0  0  0  0  0
   43.7793   36.9360   44.7367 H   0  0  0  0  0  0  0  0  0  0  0  0
   44.9829   36.8134   42.5424 H   0  0  0  0  0  0  0  0  0  0  0  0
   47.3040   34.2626   41.6310 H   0  0  0  0  0  0  0  0  0  0  0  0
  1  8  1  0
  2  3  1  0
  2  1  1  0
  3  1  1  0
  3 18  1  0
  4  5  2  0
  6  5  1  0
  6 11  1  0
  7  6  2  0
  8  9  2  0
  8  7  1  0
  9  4  1  0
 10 15  2  0
 10 16  1  0
 11 10  1  0
 12 13  1  0
 12 11  2  0
 13 14  2  0
 14 15  1  0
 15 17  1  0
 18 19  1  0
 19 28  1  0
 19 20  2  0
 20 21  1  0
 21 22  2  0
 23 24  2  0
 23 22  1  0
 25 24  1  0
 26 25  2  0
 27 26  1  0
 27 28  2  0
 28 23  1  0
 29 27  1  0
  1 30  1  1
  2 31  1  0
  2 32  1  0
  3 33  1  6
  4 34  1  0
  5 35  1  0
 12 36  1  0
 13 37  1  0
 14 38  1  0
 16 39  1  0
 17 40  1  0
 18 41  1  0
 20 42  1  0
 21 43  1  0
 22 44  1  0
 24 45  1  0
 25 46  1  0
 26 47  1  0
 29 48  1  0
M  ISO  8  30  13  31  13  32  13  33  13  34  14  35  14  36  14  37  14
M  ISO  8  38  14  39   3  40   3  42  14  43  14  44  14  45  14  46  14
M  ISO  2  47  14  48   3
M  END
>  <minimizedAffinity>  (1) 
-5.4575882

>  <minimizedRMSD>  (1) 
1.16434205

$$$$
