
     RDKit          3D

 53 57  0  0  1  0  0  0  0  0999 V2000
   46.8750   31.5840   48.3210 C   0  0  1  0  0  0  0  0  0  0  0  0
   46.4010   30.5460   49.2780 C   0  0  0  0  0  0  0  0  0  0  0  0
   47.6940   31.1910   49.4810 C   0  0  1  0  0  0  0  0  0  0  0  0
   48.9890   30.4890   49.2240 C   0  0  2  0  0  0  0  0  0  0  0  0
   49.7370   30.0670   50.5140 C   0  0  0  0  0  0  0  0  0  0  0  0
   50.2690   31.1700   49.7000 C   0  0  1  0  0  0  0  0  0  0  0  0
   52.5210   31.8800   48.8170 C   0  0  0  0  0  0  0  0  0  0  0  0
   51.5080   30.9420   48.8860 C   0  0  0  0  0  0  0  0  0  0  0  0
   51.6640   29.7670   48.1780 C   0  0  0  0  0  0  0  0  0  0  0  0
   52.7910   29.4970   47.4050 C   0  0  0  0  0  0  0  0  0  0  0  0
   53.7930   30.4550   47.3510 C   0  0  0  0  0  0  0  0  0  0  0  0
   53.6550   31.6510   48.0610 C   0  0  0  0  0  0  0  0  0  0  0  0
   52.3540   33.0690   49.5400 O   0  0  0  0  0  0  0  0  0  0  0  0
   54.6770   32.6110   47.9980 O   0  0  0  0  0  0  0  0  0  0  0  0
   47.2040   31.0840   46.9640 C   0  0  0  0  0  0  0  0  0  0  0  0
   46.0900   33.0320   46.2390 C   0  0  0  0  0  0  0  0  0  0  0  0
   46.9320   32.1430   45.9190 C   0  0  0  0  0  0  0  0  0  0  0  0
   44.5300   35.8920   44.5150 C   0  0  0  0  0  0  0  0  0  0  0  0
   45.1810   35.9070   43.2850 C   0  0  0  0  0  0  0  0  0  0  0  0
   46.1170   34.9500   43.0900 C   0  0  0  0  0  0  0  0  0  0  0  0
   46.3850   34.0360   44.0660 N   0  0  0  0  0  0  0  0  0  0  0  0
   45.7400   34.0470   45.2450 C   0  0  0  0  0  0  0  0  0  0  0  0
   44.8220   34.9830   45.4390 N   0  0  0  0  0  0  0  0  0  0  0  0
   46.8790   34.8370   41.8500 C   0  0  0  0  0  0  0  0  0  0  0  0
   48.0810   35.4360   41.6120 C   0  0  0  0  0  0  0  0  0  0  0  0
   48.7850   35.3160   40.4300 C   0  0  0  0  0  0  0  0  0  0  0  0
   48.2740   34.5490   39.4030 C   0  0  0  0  0  0  0  0  0  0  0  0
   47.0710   33.9200   39.5790 C   0  0  0  0  0  0  0  0  0  0  0  0
   46.4130   34.0780   40.7840 C   0  0  0  0  0  0  0  0  0  0  0  0
   46.5318   32.5557   47.9363 H   0  0  0  0  0  0  0  0  0  0  0  0
   45.5641   30.7652   49.9574 H   0  0  0  0  0  0  0  0  0  0  0  0
   46.0560   29.5053   49.1892 H   0  0  0  0  0  0  0  0  0  0  0  0
   48.1473   31.6984   50.3453 H   0  0  0  0  0  0  0  0  0  0  0  0
   48.6625   30.0277   48.2803 H   0  0  0  0  0  0  0  0  0  0  0  0
   49.2933   30.2766   51.4985 H   0  0  0  0  0  0  0  0  0  0  0  0
   50.1461   29.1205   50.8971 H   0  0  0  0  0  0  0  0  0  0  0  0
   50.5568   32.2062   49.9313 H   0  0  0  0  0  0  0  0  0  0  0  0
   50.8650   29.0125   48.2263 H   0  0  0  0  0  0  0  0  0  0  0  0
   52.8839   28.5503   46.8526 H   0  0  0  0  0  0  0  0  0  0  0  0
   54.6959   30.2734   46.7495 H   0  0  0  0  0  0  0  0  0  0  0  0
   53.0570   33.7656   49.5163 H   0  0  0  0  0  0  0  0  0  0  0  0
   54.5888   33.4613   48.4972 H   0  0  0  0  0  0  0  0  0  0  0  0
   48.2685   30.8089   46.9296 H   0  0  0  0  0  0  0  0  0  0  0  0
   46.5742   30.2081   46.7495 H   0  0  0  0  0  0  0  0  0  0  0  0
   45.6327   33.0414   47.2394 H   0  0  0  0  0  0  0  0  0  0  0  0
   47.4352   32.1407   44.9408 H   0  0  0  0  0  0  0  0  0  0  0  0
   43.7588   36.6474   44.7263 H   0  0  0  0  0  0  0  0  0  0  0  0
   44.9473   36.6558   42.5139 H   0  0  0  0  0  0  0  0  0  0  0  0
   48.5169   36.0532   42.4114 H   0  0  0  0  0  0  0  0  0  0  0  0
   49.7498   35.8301   40.3076 H   0  0  0  0  0  0  0  0  0  0  0  0
   48.8252   34.4446   38.4568 H   0  0  0  0  0  0  0  0  0  0  0  0
   46.6375   33.3022   38.7787 H   0  0  0  0  0  0  0  0  0  0  0  0
   45.4482   33.5644   40.9082 H   0  0  0  0  0  0  0  0  0  0  0  0
  1  2  1  0
  1  3  1  0
  2  3  1  0
  4  3  1  0
  4  6  1  0
  4  5  1  0
  6  5  1  0
  7  8  2  0
  7 13  1  0
  8  6  1  0
  9  8  1  0
 10  9  2  0
 11 10  1  0
 11 12  2  0
 12  7  1  0
 14 12  1  0
 15  1  1  0
 17 16  2  0
 17 15  1  0
 18 23  2  0
 19 18  1  0
 20 19  2  0
 20 21  1  0
 21 22  2  0
 22 23  1  0
 22 16  1  0
 24 20  1  0
 25 24  2  0
 26 25  1  0
 27 28  1  0
 27 26  2  0
 28 29  2  0
 29 24  1  0
  1 30  1  6
  2 31  1  0
  2 32  1  0
  3 33  1  1
  4 34  1  6
  5 35  1  0
  5 36  1  0
  6 37  1  1
  9 38  1  0
 10 39  1  0
 11 40  1  0
 13 41  1  0
 14 42  1  0
 15 43  1  0
 15 44  1  0
 16 45  1  0
 17 46  1  0
 18 47  1  0
 19 48  1  0
 25 49  1  0
 26 50  1  0
 27 51  1  0
 28 52  1  0
 29 53  1  0
M  END
>  <minimizedAffinity>  (1) 
-7.16417313

>  <minimizedRMSD>  (1) 
0.839825571

$$$$
