
     RDKit          3D

 38 41  0  0  0  0  0  0  0  0999 V2000
   46.1410   32.6960   47.0900 C   0  0  0  0  0  0  0  0  0  0  0  0
   44.9790   32.3900   47.7880 C   0  0  0  0  0  0  0  0  0  0  0  0
   45.0700   31.6010   48.9160 C   0  0  0  0  0  0  0  0  0  0  0  0
   46.3230   31.1570   49.2920 C   0  0  0  0  0  0  0  0  0  0  0  0
   47.4510   31.4920   48.5600 C   0  0  0  0  0  0  0  0  0  0  0  0
   47.3550   32.2720   47.4470 N   0  0  0  0  0  0  0  0  0  0  0  0
   44.8990   35.1510   44.6200 C   0  0  0  0  0  0  0  0  0  0  0  0
   45.8000   35.0120   43.5490 C   0  0  0  0  0  0  0  0  0  0  0  0
   46.8090   34.0850   43.7170 C   0  0  0  0  0  0  0  0  0  0  0  0
   46.9110   33.3470   44.8770 N   0  0  0  0  0  0  0  0  0  0  0  0
   46.0120   33.5170   45.8890 C   0  0  0  0  0  0  0  0  0  0  0  0
   45.0170   34.4210   45.7400 N   0  0  0  0  0  0  0  0  0  0  0  0
   47.8010   33.8320   42.6270 C   0  0  0  0  0  0  0  0  0  0  0  0
   48.0110   35.0340   41.7070 C   0  0  0  0  0  0  0  0  0  0  0  0
   49.0920   34.4590   42.6840 C   0  0  0  0  0  0  0  0  0  0  0  0
   49.1570   29.7160   48.7710 C   0  0  0  0  0  0  0  0  0  0  0  0
   48.7740   31.0280   48.9510 C   0  0  0  0  0  0  0  0  0  0  0  0
   49.7450   31.8220   49.5190 C   0  0  0  0  0  0  0  0  0  0  0  0
   50.9940   31.3620   49.8820 C   0  0  0  0  0  0  0  0  0  0  0  0
   51.3160   30.0340   49.6760 C   0  0  0  0  0  0  0  0  0  0  0  0
   50.3910   29.2100   49.1170 C   0  0  0  0  0  0  0  0  0  0  0  0
   48.2660   28.8150   48.2070 O   0  0  0  0  0  0  0  0  0  0  0  0
   50.7040   27.8630   48.9020 O   0  0  0  0  0  0  0  0  0  0  0  0
   44.0045   32.7699   47.4474 H   0  0  0  0  0  0  0  0  0  0  0  0
   44.1747   31.3343   49.4967 H   0  0  0  0  0  0  0  0  0  0  0  0
   46.4271   30.5269   50.1876 H   0  0  0  0  0  0  0  0  0  0  0  0
   44.0765   35.8767   44.5375 H   0  0  0  0  0  0  0  0  0  0  0  0
   45.7060   35.6083   42.6294 H   0  0  0  0  0  0  0  0  0  0  0  0
   47.5183   32.7765   42.5007 H   0  0  0  0  0  0  0  0  0  0  0  0
   48.1074   34.9000   40.6195 H   0  0  0  0  0  0  0  0  0  0  0  0
   47.5241   36.0038   41.5268 H   0  0  0  0  0  0  0  0  0  0  0  0
   49.3830   35.0321   43.5766 H   0  0  0  0  0  0  0  0  0  0  0  0
   50.1274   34.1060   42.5682 H   0  0  0  0  0  0  0  0  0  0  0  0
   49.5117   32.8828   49.6931 H   0  0  0  0  0  0  0  0  0  0  0  0
   51.7278   32.0470   50.3319 H   0  0  0  0  0  0  0  0  0  0  0  0
   52.3066   29.6494   49.9603 H   0  0  0  0  0  0  0  0  0  0  0  0
   48.5337   27.8711   48.0745 H   0  0  0  0  0  0  0  0  0  0  0  0
   51.5953   27.5152   49.1563 H   0  0  0  0  0  0  0  0  0  0  0  0
  1  6  1  0
  1  2  2  0
  2  3  1  0
  3  4  2  0
  5 17  1  0
  5  4  1  0
  6  5  2  0
  7 12  2  0
  8  9  2  0
  8  7  1  0
  9 10  1  0
 10 11  2  0
 11  1  1  0
 12 11  1  0
 13 15  1  0
 13  9  1  0
 14 13  1  0
 14 15  1  0
 16 17  2  0
 16 21  1  0
 17 18  1  0
 18 19  2  0
 20 19  1  0
 21 20  2  0
 22 16  1  0
 23 21  1  0
  2 24  1  0
  3 25  1  0
  4 26  1  0
  7 27  1  0
  8 28  1  0
 13 29  1  0
 14 30  1  0
 14 31  1  0
 15 32  1  0
 15 33  1  0
 18 34  1  0
 19 35  1  0
 20 36  1  0
 22 37  1  0
 23 38  1  0
M  ISO  8  24  14  25  14  26  14  27  14  28  14  29  13  30  13  31  13
M  ISO  7  32  13  33  13  34  14  35  14  36  14  37   3  38   3
M  END
>  <minimizedAffinity>  (1) 
-6.7274003

>  <minimizedRMSD>  (1) 
1.67354846

$$$$
