
     RDKit          3D

 45 49  0  0  1  0  0  0  0  0999 V2000
   49.1070   33.8720   40.9620 C   0  0  2  0  0  0  0  0  0  0  0  0
   48.6350   35.3730   40.8900 C   0  0  0  0  0  0  0  0  0  0  0  0
   47.8220   34.2360   40.3590 C   0  0  1  0  0  0  0  0  0  0  0  0
   48.0420   33.2290   43.1430 N   0  0  0  0  0  0  0  0  0  0  0  0
   49.1860   33.2630   42.3520 C   0  0  0  0  0  0  0  0  0  0  0  0
   50.3540   32.8570   42.5800 O   0  0  0  0  0  0  0  0  0  0  0  0
   46.3120   32.1110   44.5060 C   0  0  1  0  0  0  0  0  0  0  0  0
   46.4450   31.3420   43.3430 C   0  0  0  0  0  0  0  0  0  0  0  0
   47.6760   32.1020   43.9250 C   0  0  1  0  0  0  0  0  0  0  0  0
   45.0660   33.9590   43.1570 C   0  0  0  0  0  0  0  0  0  0  0  0
   45.5540   33.4430   44.4030 C   0  0  0  0  0  0  0  0  0  0  0  0
   45.3440   34.2050   45.5370 C   0  0  0  0  0  0  0  0  0  0  0  0
   44.6980   35.3860   45.4270 N   0  0  0  0  0  0  0  0  0  0  0  0
   44.2410   35.8620   44.2310 C   0  0  0  0  0  0  0  0  0  0  0  0
   44.4370   35.1170   43.0690 N   0  0  0  0  0  0  0  0  0  0  0  0
   47.6970   34.1050   38.8600 C   0  0  0  0  0  0  0  0  0  0  0  0
   48.4950   34.6810   38.1270 O   0  0  0  0  0  0  0  0  0  0  0  0
   46.6390   33.2980   38.2560 C   0  0  0  0  0  0  0  0  0  0  0  0
   45.5810   32.7110   38.9160 C   0  0  0  0  0  0  0  0  0  0  0  0
   44.6130   31.9620   38.2890 C   0  0  0  0  0  0  0  0  0  0  0  0
   44.6650   31.7620   36.9270 C   0  0  0  0  0  0  0  0  0  0  0  0
   43.7260   31.0350   36.3170 N   0  0  0  0  0  0  0  0  0  0  0  0
   43.7780   30.8370   34.9690 C   0  0  0  0  0  0  0  0  0  0  0  0
   44.8130   31.3950   34.2280 C   0  0  0  0  0  0  0  0  0  0  0  0
   45.7820   32.1460   34.8630 C   0  0  0  0  0  0  0  0  0  0  0  0
   45.7000   32.3260   36.2220 C   0  0  0  0  0  0  0  0  0  0  0  0
   46.6410   33.0660   36.8960 C   0  0  0  0  0  0  0  0  0  0  0  0
   49.9576   33.2664   40.6160 H   0  0  0  0  0  0  0  0  0  0  0  0
   48.3233   35.9045   41.8012 H   0  0  0  0  0  0  0  0  0  0  0  0
   49.0392   36.3156   40.4924 H   0  0  0  0  0  0  0  0  0  0  0  0
   46.7870   33.9070   40.5340 H   0  0  0  0  0  0  0  0  0  0  0  0
   47.4328   34.0593   43.1621 H   0  0  0  0  0  0  0  0  0  0  0  0
   45.9096   31.8702   45.5010 H   0  0  0  0  0  0  0  0  0  0  0  0
   45.9830   31.6801   42.4037 H   0  0  0  0  0  0  0  0  0  0  0  0
   46.2317   30.2977   43.0712 H   0  0  0  0  0  0  0  0  0  0  0  0
   48.6883   31.8841   44.2961 H   0  0  0  0  0  0  0  0  0  0  0  0
   45.2212   33.3690   42.2416 H   0  0  0  0  0  0  0  0  0  0  0  0
   45.6987   33.8538   46.5172 H   0  0  0  0  0  0  0  0  0  0  0  0
   43.7201   36.8298   44.1849 H   0  0  0  0  0  0  0  0  0  0  0  0
   45.5068   32.8493   40.0047 H   0  0  0  0  0  0  0  0  0  0  0  0
   43.7945   31.5211   38.8770 H   0  0  0  0  0  0  0  0  0  0  0  0
   43.0030   30.2373   34.4693 H   0  0  0  0  0  0  0  0  0  0  0  0
   44.8599   31.2389   33.1401 H   0  0  0  0  0  0  0  0  0  0  0  0
   46.6070   32.5933   34.2892 H   0  0  0  0  0  0  0  0  0  0  0  0
   47.4582   33.5071   36.3065 H   0  0  0  0  0  0  0  0  0  0  0  0
  1  5  1  0
  2  1  1  0
  3  2  1  0
  3  1  1  0
  4  9  1  0
  5  6  2  0
  5  4  1  0
  8  9  1  0
  8  7  1  0
  9  7  1  0
 10 11  2  0
 11  7  1  0
 11 12  1  0
 13 12  2  0
 14 13  1  0
 15 10  1  0
 15 14  2  0
 16  3  1  0
 17 16  2  0
 18 16  1  0
 18 19  2  0
 20 19  1  0
 21 20  2  0
 22 21  1  0
 23 22  2  0
 24 25  2  0
 24 23  1  0
 25 26  1  0
 26 27  2  0
 26 21  1  0
 27 18  1  0
  1 28  1  6
  2 29  1  0
  2 30  1  0
  3 31  1  1
  4 32  1  0
  7 33  1  1
  8 34  1  0
  8 35  1  0
  9 36  1  1
 10 37  1  0
 12 38  1  0
 14 39  1  0
 19 40  1  0
 20 41  1  0
 23 42  1  0
 24 43  1  0
 25 44  1  0
 27 45  1  0
M  ISO  8  28  13  29  13  30  13  31  13  33  13  34  13  35  13  36  13
M  ISO  8  37  14  38  14  39  14  40  14  41  14  42  14  43  14  44  14
M  ISO  1  45  14
M  END
>  <minimizedAffinity>  (1) 
-5.58496141

>  <minimizedRMSD>  (1) 
0.503651261

$$$$
