
     RDKit          3D

 55 58  0  0  1  0  0  0  0  0999 V2000
   46.7530   34.3570   43.4740 N   0  0  0  0  0  0  0  0  0  0  0  0
   46.4670   34.9350   42.2130 C   0  0  0  0  0  0  0  0  0  0  0  0
   44.9930   34.9690   41.8510 C   0  0  0  0  0  0  0  0  0  0  0  0
   44.0710   35.1730   43.0280 C   0  0  0  0  0  0  0  0  0  0  0  0
   44.8440   35.3830   44.3180 C   0  0  0  0  0  0  0  0  0  0  0  0
   45.7590   34.1060   44.3910 C   0  0  2  0  0  0  0  0  0  0  0  0
   47.9440   33.5410   43.4960 C   0  0  0  0  0  0  0  0  0  0  0  0
   47.6950   32.3260   42.6740 C   0  0  0  0  0  0  0  0  0  0  0  0
   51.2200   32.1520   41.3860 C   0  0  0  0  0  0  0  0  0  0  0  0
   50.1150   32.3680   42.2290 C   0  0  0  0  0  0  0  0  0  0  0  0
   48.8560   32.0930   41.7710 C   0  0  0  0  0  0  0  0  0  0  0  0
   48.7420   31.6270   40.5300 N   0  0  0  0  0  0  0  0  0  0  0  0
   49.7800   31.4170   39.7170 C   0  0  0  0  0  0  0  0  0  0  0  0
   51.0410   31.6780   40.1350 N   0  0  0  0  0  0  0  0  0  0  0  0
   46.2080   34.1650   45.7000 O   0  0  0  0  0  0  0  0  0  0  0  0
   45.6270   31.5690   45.5750 O   0  0  0  0  0  0  0  0  0  0  0  0
   46.0690   32.7110   46.5110 P   0  0  2  0  0  0  0  0  0  0  0  0
   44.7440   32.8750   47.5970 O   0  0  0  0  0  0  0  0  0  0  0  0
   47.4010   32.2980   47.3990 O   0  0  0  0  0  0  0  0  0  0  0  0
   47.7170   30.9550   47.1680 C   0  0  0  0  0  0  0  0  0  0  0  0
   48.5840   30.5540   48.3140 C   0  0  0  0  0  0  0  0  0  0  0  0
   49.0480   31.3810   49.3170 C   0  0  0  0  0  0  0  0  0  0  0  0
   49.8460   30.8730   50.3210 C   0  0  0  0  0  0  0  0  0  0  0  0
   50.1670   29.5300   50.2950 C   0  0  0  0  0  0  0  0  0  0  0  0
   50.9340   28.9840   51.2360 N   0  0  0  0  0  0  0  0  0  0  0  0
   51.2800   27.6850   51.2640 C   0  0  0  0  0  0  0  0  0  0  0  0
   50.8380   26.8180   50.2780 C   0  0  0  0  0  0  0  0  0  0  0  0
   50.0420   27.3220   49.2770 C   0  0  0  0  0  0  0  0  0  0  0  0
   49.7300   28.6650   49.3150 C   0  0  0  0  0  0  0  0  0  0  0  0
   48.9230   29.1970   48.3090 C   0  0  0  0  0  0  0  0  0  0  0  0
   46.8430   35.9687   42.2166 H   0  0  0  0  0  0  0  0  0  0  0  0
   46.9572   34.2991   41.4611 H   0  0  0  0  0  0  0  0  0  0  0  0
   44.8315   35.7923   41.1396 H   0  0  0  0  0  0  0  0  0  0  0  0
   44.7494   33.9841   41.4259 H   0  0  0  0  0  0  0  0  0  0  0  0
   43.4439   36.0570   42.8404 H   0  0  0  0  0  0  0  0  0  0  0  0
   43.4547   34.2689   43.1412 H   0  0  0  0  0  0  0  0  0  0  0  0
   45.4485   36.3009   44.2722 H   0  0  0  0  0  0  0  0  0  0  0  0
   44.1955   35.5037   45.1983 H   0  0  0  0  0  0  0  0  0  0  0  0
   45.3180   33.1225   44.1710 H   0  0  0  0  0  0  0  0  0  0  0  0
   48.7896   34.1062   43.0771 H   0  0  0  0  0  0  0  0  0  0  0  0
   48.1876   33.2550   44.5298 H   0  0  0  0  0  0  0  0  0  0  0  0
   47.5638   31.4564   43.3348 H   0  0  0  0  0  0  0  0  0  0  0  0
   46.7850   32.4694   42.0728 H   0  0  0  0  0  0  0  0  0  0  0  0
   52.2354   32.3705   41.7482 H   0  0  0  0  0  0  0  0  0  0  0  0
   50.2622   32.7549   43.2481 H   0  0  0  0  0  0  0  0  0  0  0  0
   49.6097   31.0297   38.7016 H   0  0  0  0  0  0  0  0  0  0  0  0
   45.0745   32.8341   48.5293 H   0  0  0  0  0  0  0  0  0  0  0  0
   46.8035   30.3427   47.1428 H   0  0  0  0  0  0  0  0  0  0  0  0
   48.2217   30.8120   46.2011 H   0  0  0  0  0  0  0  0  0  0  0  0
   48.7807   32.4480   49.3157 H   0  0  0  0  0  0  0  0  0  0  0  0
   50.2189   31.5240   51.1255 H   0  0  0  0  0  0  0  0  0  0  0  0
   51.9189   27.3078   52.0761 H   0  0  0  0  0  0  0  0  0  0  0  0
   51.1167   25.7540   50.2957 H   0  0  0  0  0  0  0  0  0  0  0  0
   49.6657   26.6747   48.4711 H   0  0  0  0  0  0  0  0  0  0  0  0
   48.5505   28.5443   47.5058 H   0  0  0  0  0  0  0  0  0  0  0  0
  1  7  1  0
  1  6  1  0
  2  1  1  0
  3  2  1  0
  3  4  1  0
  4  5  1  0
  5  6  1  0
  6 15  1  0
  8  7  1  0
  9 10  2  0
 11 10  1  0
 11  8  1  0
 12 11  2  0
 13 14  2  0
 13 12  1  0
 14  9  1  0
 15 17  1  0
 17 16  2  0
 17 19  1  0
 17 18  1  0
 20 19  1  0
 20 21  1  0
 21 22  2  0
 22 23  1  0
 24 23  2  0
 24 25  1  0
 25 26  2  0
 27 26  1  0
 28 29  1  0
 28 27  2  0
 29 24  1  0
 30 21  1  0
 30 29  2  0
  2 31  1  0
  2 32  1  0
  3 33  1  0
  3 34  1  0
  4 35  1  0
  4 36  1  0
  5 37  1  0
  5 38  1  0
  6 39  1  6
  7 40  1  0
  7 41  1  0
  8 42  1  0
  8 43  1  0
  9 44  1  0
 10 45  1  0
 13 46  1  0
 18 47  1  0
 20 48  1  0
 20 49  1  0
 22 50  1  0
 23 51  1  0
 26 52  1  0
 27 53  1  0
 28 54  1  0
 30 55  1  0
M  ISO  8  31  13  32  13  33  13  34  13  35  13  36  13  37  13  38  13
M  ISO  8  39  13  40   8  41   8  42   8  43   8  44  14  45  14  46  14
M  ISO  8  47   3  48   8  49   8  50  14  51  14  52  14  53  14  54  14
M  ISO  1  55  14
M  END
>  <minimizedAffinity>  (1) 
-5.68221092

>  <minimizedRMSD>  (1) 
3.09686017

$$$$
