
     RDKit          3D

 46 50  0  0  1  0  0  0  0  0999 V2000
   46.0110   33.3350   45.2420 C   0  0  0  0  0  0  0  0  0  0  0  0
   46.9530   33.4380   44.2000 C   0  0  0  0  0  0  0  0  0  0  0  0
   47.7090   32.2750   43.8650 C   0  0  0  0  0  0  0  0  0  0  0  0
   47.4850   31.1220   44.5680 N   0  0  0  0  0  0  0  0  0  0  0  0
   46.5680   31.0870   45.5560 C   0  0  0  0  0  0  0  0  0  0  0  0
   45.8440   32.1860   45.8830 N   0  0  0  0  0  0  0  0  0  0  0  0
   46.4040   29.8680   46.2230 N   0  0  0  0  0  0  0  0  0  0  0  0
   47.4970   29.2570   46.9060 C   0  0  2  0  0  0  0  0  0  0  0  0
   47.2710   27.8520   47.3440 C   0  0  0  0  0  0  0  0  0  0  0  0
   45.9390   27.4830   47.6390 N   0  0  0  0  0  0  0  0  0  0  0  0
   45.0000   28.5400   47.5650 C   0  0  0  0  0  0  0  0  0  0  0  0
   45.1190   29.2110   46.2290 C   0  0  0  0  0  0  0  0  0  0  0  0
   48.0260   30.1220   47.9970 C   0  0  0  0  0  0  0  0  0  0  0  0
   47.4430   31.0900   48.7760 C   0  0  0  0  0  0  0  0  0  0  0  0
   48.3030   31.6120   49.6530 N   0  0  0  0  0  0  0  0  0  0  0  0
   49.4580   30.9700   49.4320 C   0  0  0  0  0  0  0  0  0  0  0  0
   49.2940   30.0820   48.4460 N   0  0  0  0  0  0  0  0  0  0  0  0
   50.6860   31.2310   50.1790 C   0  0  0  0  0  0  0  0  0  0  0  0
   51.6920   31.9880   49.6130 C   0  0  0  0  0  0  0  0  0  0  0  0
   52.8750   32.2700   50.2660 C   0  0  0  0  0  0  0  0  0  0  0  0
   53.0430   31.7620   51.5530 C   0  0  0  0  0  0  0  0  0  0  0  0
   54.2150   32.0680   52.1450 N   0  0  0  0  0  0  0  0  0  0  0  0
   54.4510   31.6150   53.3840 C   0  0  0  0  0  0  0  0  0  0  0  0
   53.5080   30.8400   54.0570 C   0  0  0  0  0  0  0  0  0  0  0  0
   52.3260   30.5530   53.4140 C   0  0  0  0  0  0  0  0  0  0  0  0
   52.0490   30.9950   52.1550 C   0  0  0  0  0  0  0  0  0  0  0  0
   50.8880   30.7450   51.4540 C   0  0  0  0  0  0  0  0  0  0  0  0
   45.4107   34.2121   45.5256 H   0  0  0  0  0  0  0  0  0  0  0  0
   47.1013   34.3855   43.6612 H   0  0  0  0  0  0  0  0  0  0  0  0
   48.4564   32.3044   43.0584 H   0  0  0  0  0  0  0  0  0  0  0  0
   48.2826   29.1656   46.1415 H   0  0  0  0  0  0  0  0  0  0  0  0
   47.6292   27.1913   46.5408 H   0  0  0  0  0  0  0  0  0  0  0  0
   47.8138   27.7564   48.2960 H   0  0  0  0  0  0  0  0  0  0  0  0
   45.6532   26.7531   46.9708 H   0  0  0  0  0  0  0  0  0  0  0  0
   43.9832   28.1382   47.6859 H   0  0  0  0  0  0  0  0  0  0  0  0
   45.1995   29.2689   48.3643 H   0  0  0  0  0  0  0  0  0  0  0  0
   44.3129   29.9481   46.0991 H   0  0  0  0  0  0  0  0  0  0  0  0
   45.0353   28.4854   45.4065 H   0  0  0  0  0  0  0  0  0  0  0  0
   46.3910   31.3991   48.6879 H   0  0  0  0  0  0  0  0  0  0  0  0
   48.1187   32.3487   50.3489 H   0  0  0  0  0  0  0  0  0  0  0  0
   51.5445   32.3838   48.5973 H   0  0  0  0  0  0  0  0  0  0  0  0
   53.6587   32.8752   49.7868 H   0  0  0  0  0  0  0  0  0  0  0  0
   55.4035   31.8585   53.8774 H   0  0  0  0  0  0  0  0  0  0  0  0
   53.7033   30.4683   55.0737 H   0  0  0  0  0  0  0  0  0  0  0  0
   51.5749   29.9427   53.9368 H   0  0  0  0  0  0  0  0  0  0  0  0
   50.0996   30.1400   51.9256 H   0  0  0  0  0  0  0  0  0  0  0  0
  1  6  2  0
  2  1  1  0
  3  2  2  0
  3  4  1  0
  4  5  2  0
  5  6  1  0
  5  7  1  0
  7 12  1  0
  7  8  1  0
  8  9  1  0
  8 13  1  0
  9 10  1  0
 11 10  1  0
 12 11  1  0
 13 17  1  0
 13 14  2  0
 14 15  1  0
 16 15  1  0
 16 18  1  0
 17 16  2  0
 18 27  1  0
 19 18  2  0
 19 20  1  0
 20 21  2  0
 21 22  1  0
 21 26  1  0
 22 23  2  0
 23 24  1  0
 25 24  2  0
 26 25  1  0
 27 26  2  0
  1 28  1  0
  2 29  1  0
  3 30  1  0
  8 31  1  6
  9 32  1  0
  9 33  1  0
 10 34  1  0
 11 35  1  0
 11 36  1  0
 12 37  1  0
 12 38  1  0
 14 39  1  0
 15 40  1  0
 19 41  1  0
 20 42  1  0
 23 43  1  0
 24 44  1  0
 25 45  1  0
 27 46  1  0
M  ISO  8  28  14  29  14  30  14  31  13  32  13  33  13  34   5  35  13
M  ISO  8  36  13  37  13  38  13  39  14  40   9  41  14  42  14  43  14
M  ISO  3  44  14  45  14  46  14
M  END
>  <minimizedAffinity>  (1) 
-5.825243

>  <minimizedRMSD>  (1) 
1.29855931

$$$$
