
     RDKit          3D

 40 43  0  0  1  0  0  0  0  0999 V2000
   46.6200   34.4130   42.3220 N   0  0  0  0  0  0  0  0  0  0  0  0
   47.9810   33.9350   42.3750 C   0  0  0  0  0  0  0  0  0  0  0  0
   48.6800   34.6520   41.2010 C   0  0  0  0  0  0  0  0  0  0  0  0
   48.0950   34.2420   39.8920 C   0  0  0  0  0  0  0  0  0  0  0  0
   46.6360   33.9750   39.9180 C   0  0  0  0  0  0  0  0  0  0  0  0
   45.9140   34.6000   41.0800 C   0  0  1  0  0  0  0  0  0  0  0  0
   44.5250   34.0860   41.1300 C   0  0  0  0  0  0  0  0  0  0  0  0
   44.1530   32.8210   41.5360 C   0  0  0  0  0  0  0  0  0  0  0  0
   42.8180   32.4510   41.5390 C   0  0  0  0  0  0  0  0  0  0  0  0
   41.8520   33.3520   41.1350 C   0  0  0  0  0  0  0  0  0  0  0  0
   40.5640   32.9560   41.1530 N   0  0  0  0  0  0  0  0  0  0  0  0
   39.5980   33.8340   40.7560 C   0  0  0  0  0  0  0  0  0  0  0  0
   39.9250   35.1090   40.3420 C   0  0  0  0  0  0  0  0  0  0  0  0
   41.2340   35.5490   40.3120 C   0  0  0  0  0  0  0  0  0  0  0  0
   42.1750   34.6360   40.7180 C   0  0  0  0  0  0  0  0  0  0  0  0
   43.5130   34.9650   40.7290 C   0  0  0  0  0  0  0  0  0  0  0  0
   44.4920   36.1510   44.8680 C   0  0  0  0  0  0  0  0  0  0  0  0
   45.1630   35.9190   43.6620 C   0  0  0  0  0  0  0  0  0  0  0  0
   45.9090   34.7260   43.5140 C   0  0  0  0  0  0  0  0  0  0  0  0
   45.9170   33.8800   44.5770 N   0  0  0  0  0  0  0  0  0  0  0  0
   45.2590   34.1330   45.7300 C   0  0  0  0  0  0  0  0  0  0  0  0
   44.5460   35.2750   45.8670 N   0  0  0  0  0  0  0  0  0  0  0  0
   48.4518   34.2036   43.3322 H   0  0  0  0  0  0  0  0  0  0  0  0
   48.0461   32.8396   42.2985 H   0  0  0  0  0  0  0  0  0  0  0  0
   48.5608   35.7388   41.3224 H   0  0  0  0  0  0  0  0  0  0  0  0
   49.7445   34.3748   41.2083 H   0  0  0  0  0  0  0  0  0  0  0  0
   48.6047   33.3248   39.5618 H   0  0  0  0  0  0  0  0  0  0  0  0
   48.2419   35.0910   39.2081 H   0  0  0  0  0  0  0  0  0  0  0  0
   46.1973   34.3668   38.9885 H   0  0  0  0  0  0  0  0  0  0  0  0
   46.5163   32.8864   40.0209 H   0  0  0  0  0  0  0  0  0  0  0  0
   45.8741   35.6889   40.9297 H   0  0  0  0  0  0  0  0  0  0  0  0
   44.9206   32.1023   41.8591 H   0  0  0  0  0  0  0  0  0  0  0  0
   42.5275   31.4407   41.8628 H   0  0  0  0  0  0  0  0  0  0  0  0
   38.5435   33.5210   40.7661 H   0  0  0  0  0  0  0  0  0  0  0  0
   39.1226   35.7926   40.0278 H   0  0  0  0  0  0  0  0  0  0  0  0
   41.5043   36.5637   39.9845 H   0  0  0  0  0  0  0  0  0  0  0  0
   43.8017   35.9755   40.4043 H   0  0  0  0  0  0  0  0  0  0  0  0
   43.9089   37.0755   44.9919 H   0  0  0  0  0  0  0  0  0  0  0  0
   45.1113   36.6517   42.8431 H   0  0  0  0  0  0  0  0  0  0  0  0
   45.3030   33.4100   46.5579 H   0  0  0  0  0  0  0  0  0  0  0  0
  1  2  1  0
  1 19  1  0
  3  2  1  0
  4  5  1  0
  4  3  1  0
  5  6  1  0
  6  7  1  0
  6  1  1  0
  7  8  2  0
  8  9  1  0
 10 11  1  0
 10  9  2  0
 12 11  2  0
 13 12  1  0
 14 13  2  0
 14 15  1  0
 15 16  2  0
 15 10  1  0
 16  7  1  0
 17 22  2  0
 18 17  1  0
 19 18  2  0
 19 20  1  0
 20 21  2  0
 21 22  1  0
  2 23  1  0
  2 24  1  0
  3 25  1  0
  3 26  1  0
  4 27  1  0
  4 28  1  0
  5 29  1  0
  5 30  1  0
  6 31  1  6
  8 32  1  0
  9 33  1  0
 12 34  1  0
 13 35  1  0
 14 36  1  0
 16 37  1  0
 17 38  1  0
 18 39  1  0
 21 40  1  0
M  ISO  8  23  13  24  13  25  13  26  13  27  13  28  13  29  13  30  13
M  ISO  8  31  13  32  14  33  14  34  14  35  14  36  14  37  14  38  14
M  ISO  2  39  14  40  14
M  END
>  <minimizedAffinity>  (1) 
-6.57986593

>  <minimizedRMSD>  (1) 
2.01556444

$$$$
