
     RDKit          3D

 41 45  0  0  1  0  0  0  0  0999 V2000
   46.6390   33.7990   42.5280 C   0  0  2  0  0  0  0  0  0  0  0  0
   47.4970   34.8870   41.9600 C   0  0  0  0  0  0  0  0  0  0  0  0
   46.1810   34.4790   41.3180 C   0  0  1  0  0  0  0  0  0  0  0  0
   46.2440   33.8450   39.9690 C   0  0  0  0  0  0  0  0  0  0  0  0
   45.1860   33.1180   39.4600 C   0  0  0  0  0  0  0  0  0  0  0  0
   45.3620   32.5730   38.1890 C   0  0  0  0  0  0  0  0  0  0  0  0
   46.5170   32.7490   37.4890 C   0  0  0  0  0  0  0  0  0  0  0  0
   46.6150   32.1930   36.2670 N   0  0  0  0  0  0  0  0  0  0  0  0
   47.7590   32.3540   35.5480 C   0  0  0  0  0  0  0  0  0  0  0  0
   48.8480   33.0740   36.0140 C   0  0  0  0  0  0  0  0  0  0  0  0
   48.7180   33.6270   37.2590 C   0  0  0  0  0  0  0  0  0  0  0  0
   47.5650   33.4730   38.0030 C   0  0  0  0  0  0  0  0  0  0  0  0
   47.4350   34.0320   39.2590 C   0  0  0  0  0  0  0  0  0  0  0  0
   45.7040   33.5220   46.0920 C   0  0  0  0  0  0  0  0  0  0  0  0
   44.8690   34.6180   46.1490 C   0  0  0  0  0  0  0  0  0  0  0  0
   44.5840   35.4550   45.0950 C   0  0  0  0  0  0  0  0  0  0  0  0
   45.1710   35.1930   43.8720 C   0  0  0  0  0  0  0  0  0  0  0  0
   45.9950   34.1040   43.8350 C   0  0  0  0  0  0  0  0  0  0  0  0
   46.2410   33.3210   44.8840 N   0  0  0  0  0  0  0  0  0  0  0  0
   45.4480   31.3030   49.1290 C   0  0  0  0  0  0  0  0  0  0  0  0
   45.0190   32.1110   48.0590 C   0  0  0  0  0  0  0  0  0  0  0  0
   45.9730   32.6670   47.2360 C   0  0  0  0  0  0  0  0  0  0  0  0
   47.2800   32.4080   47.4990 N   0  0  0  0  0  0  0  0  0  0  0  0
   47.6720   31.6230   48.5410 C   0  0  0  0  0  0  0  0  0  0  0  0
   46.7380   31.0800   49.3420 N   0  0  0  0  0  0  0  0  0  0  0  0
   46.7707   32.7360   42.7785 H   0  0  0  0  0  0  0  0  0  0  0  0
   47.5861   35.8526   42.4793 H   0  0  0  0  0  0  0  0  0  0  0  0
   48.5424   34.9772   41.6297 H   0  0  0  0  0  0  0  0  0  0  0  0
   45.2305   34.9629   41.0487 H   0  0  0  0  0  0  0  0  0  0  0  0
   44.2542   32.9765   40.0271 H   0  0  0  0  0  0  0  0  0  0  0  0
   44.5473   31.9859   37.7400 H   0  0  0  0  0  0  0  0  0  0  0  0
   47.8225   31.8918   34.5518 H   0  0  0  0  0  0  0  0  0  0  0  0
   49.7642   33.1940   35.4172 H   0  0  0  0  0  0  0  0  0  0  0  0
   49.5527   34.2086   37.6774 H   0  0  0  0  0  0  0  0  0  0  0  0
   48.2577   34.6171   39.6959 H   0  0  0  0  0  0  0  0  0  0  0  0
   44.3924   34.8410   47.1150 H   0  0  0  0  0  0  0  0  0  0  0  0
   43.9057   36.3115   45.2228 H   0  0  0  0  0  0  0  0  0  0  0  0
   44.9871   35.8197   42.9869 H   0  0  0  0  0  0  0  0  0  0  0  0
   44.7021   30.8498   49.7985 H   0  0  0  0  0  0  0  0  0  0  0  0
   43.9484   32.2937   47.8846 H   0  0  0  0  0  0  0  0  0  0  0  0
   48.7401   31.4354   48.7252 H   0  0  0  0  0  0  0  0  0  0  0  0
  1 18  1  0
  2  1  1  0
  3  2  1  0
  3  1  1  0
  4  3  1  0
  5  4  2  0
  6  5  1  0
  7 12  1  0
  7  6  2  0
  8  7  1  0
  9 10  1  0
  9  8  2  0
 10 11  2  0
 11 12  1  0
 12 13  2  0
 13  4  1  0
 14 15  2  0
 14 22  1  0
 16 15  1  0
 17 16  2  0
 18 17  1  0
 18 19  2  0
 19 14  1  0
 20 25  2  0
 21 20  1  0
 22 23  1  0
 22 21  2  0
 23 24  2  0
 24 25  1  0
  1 26  1  6
  2 27  1  0
  2 28  1  0
  3 29  1  1
  5 30  1  0
  6 31  1  0
  9 32  1  0
 10 33  1  0
 11 34  1  0
 13 35  1  0
 15 36  1  0
 16 37  1  0
 17 38  1  0
 20 39  1  0
 21 40  1  0
 24 41  1  0
M  ISO  8  26  13  27  13  28  13  29  13  30  14  31  14  32  14  33  14
M  ISO  8  34  14  35  14  36  14  37  14  38  14  39  14  40  14  41  14
M  END
>  <minimizedAffinity>  (1) 
-6.66290855

>  <minimizedRMSD>  (1) 
4.99725103

$$$$
