
     RDKit          3D

 49 52  0  0  0  0  0  0  0  0999 V2000
   41.6270   35.6260   41.1540 C   0  0  0  0  0  0  0  0  0  0  0  0
   41.0950   33.2630   41.2890 C   0  0  0  0  0  0  0  0  0  0  0  0
   40.6640   34.5200   40.8540 C   0  0  0  0  0  0  0  0  0  0  0  0
   39.4640   34.6270   40.2480 C   0  0  0  0  0  0  0  0  0  0  0  0
   38.7670   33.4990   40.1100 N   0  0  0  0  0  0  0  0  0  0  0  0
   39.1470   32.2980   40.5110 C   0  0  0  0  0  0  0  0  0  0  0  0
   40.3790   32.1420   41.1400 N   0  0  0  0  0  0  0  0  0  0  0  0
   38.3040   31.1110   40.3130 C   0  0  0  0  0  0  0  0  0  0  0  0
   37.4360   30.7140   41.3090 C   0  0  0  0  0  0  0  0  0  0  0  0
   36.6700   29.5870   41.0570 C   0  0  0  0  0  0  0  0  0  0  0  0
   36.7810   28.8970   39.8510 C   0  0  0  0  0  0  0  0  0  0  0  0
   36.0450   27.7870   39.5710 N   0  0  0  0  0  0  0  0  0  0  0  0
   36.1700   27.1380   38.3990 C   0  0  0  0  0  0  0  0  0  0  0  0
   37.0580   27.5740   37.4220 C   0  0  0  0  0  0  0  0  0  0  0  0
   37.8120   28.6870   37.6740 C   0  0  0  0  0  0  0  0  0  0  0  0
   37.6730   29.3470   38.8860 C   0  0  0  0  0  0  0  0  0  0  0  0
   38.4610   30.4740   39.1000 C   0  0  0  0  0  0  0  0  0  0  0  0
   42.8700   35.4400   40.6460 O   0  0  0  0  0  0  0  0  0  0  0  0
   44.0670   35.3390   41.3330 C   0  0  0  0  0  0  0  0  0  0  0  0
   44.0300   35.6220   42.6310 C   0  0  0  0  0  0  0  0  0  0  0  0
   45.2070   35.5790   43.5870 C   0  0  0  0  0  0  0  0  0  0  0  0
   44.9440   34.5920   44.5180 O   0  0  0  0  0  0  0  0  0  0  0  0
   45.5850   32.4600   43.0620 O   0  0  0  0  0  0  0  0  0  0  0  0
   45.9510   33.2580   44.2930 P   0  0  1  0  0  0  0  0  0  0  0  0
   47.5660   33.7650   44.0930 O   0  0  0  0  0  0  0  0  0  0  0  0
   45.9100   32.2670   45.6580 O   0  0  0  0  0  0  0  0  0  0  0  0
   46.2030   32.9600   46.8180 C   0  0  0  0  0  0  0  0  0  0  0  0
   47.0630   32.3080   47.8550 C   0  0  0  0  0  0  0  0  0  0  0  0
   45.5610   32.4110   48.0720 C   0  0  0  0  0  0  0  0  0  0  0  0
   41.2206   36.5588   40.7359 H   0  0  0  0  0  0  0  0  0  0  0  0
   41.7368   35.6582   42.2480 H   0  0  0  0  0  0  0  0  0  0  0  0
   42.0764   33.1915   41.7807 H   0  0  0  0  0  0  0  0  0  0  0  0
   39.0810   35.5929   39.8870 H   0  0  0  0  0  0  0  0  0  0  0  0
   37.3558   31.2654   42.2574 H   0  0  0  0  0  0  0  0  0  0  0  0
   35.9630   29.2312   41.8210 H   0  0  0  0  0  0  0  0  0  0  0  0
   35.5572   26.2443   38.2100 H   0  0  0  0  0  0  0  0  0  0  0  0
   37.1521   27.0357   36.4674 H   0  0  0  0  0  0  0  0  0  0  0  0
   38.5236   29.0561   36.9208 H   0  0  0  0  0  0  0  0  0  0  0  0
   39.1709   30.8372   38.3423 H   0  0  0  0  0  0  0  0  0  0  0  0
   44.9994   35.0404   40.8315 H   0  0  0  0  0  0  0  0  0  0  0  0
   43.0562   35.9143   43.0508 H   0  0  0  0  0  0  0  0  0  0  0  0
   46.1299   35.3419   43.0375 H   0  0  0  0  0  0  0  0  0  0  0  0
   45.3444   36.5528   44.0798 H   0  0  0  0  0  0  0  0  0  0  0  0
   47.9832   33.8960   44.9812 H   0  0  0  0  0  0  0  0  0  0  0  0
   46.2493   33.9328   46.3067 H   0  0  0  0  0  0  0  0  0  0  0  0
   47.5232   31.3298   47.6516 H   0  0  0  0  0  0  0  0  0  0  0  0
   47.9532   32.6084   48.4271 H   0  0  0  0  0  0  0  0  0  0  0  0
   45.1584   33.0967   48.8321 H   0  0  0  0  0  0  0  0  0  0  0  0
   44.7508   31.6995   48.2896 H   0  0  0  0  0  0  0  0  0  0  0  0
  3  1  1  0
  3  2  2  0
  4  3  1  0
  5  4  2  0
  5  6  1  0
  6  7  2  0
  7  2  1  0
  8  6  1  0
  8  9  2  0
 10  9  1  0
 11 10  2  0
 12 11  1  0
 13 12  2  0
 14 15  2  0
 14 13  1  0
 15 16  1  0
 16 17  2  0
 16 11  1  0
 17  8  1  0
 18  1  1  0
 18 19  1  0
 19 20  2  0
 20 21  1  0
 21 22  1  0
 24 23  2  0
 24 22  1  0
 24 26  1  0
 25 24  1  0
 26 27  1  0
 27 28  1  0
 27 29  1  0
 28 29  1  0
  1 30  1  0
  1 31  1  0
  2 32  1  0
  4 33  1  0
  9 34  1  0
 10 35  1  0
 13 36  1  0
 14 37  1  0
 15 38  1  0
 17 39  1  0
 19 40  1  0
 20 41  1  0
 21 42  1  0
 21 43  1  0
 25 44  1  0
 27 45  1  0
 28 46  1  0
 28 47  1  0
 29 48  1  0
 29 49  1  0
M  ISO  8  30   8  31   8  32  14  33  14  34  14  35  14  36  14  37  14
M  ISO  8  38  14  39  14  42   8  43   8  44   3  45  13  46  13  47  13
M  ISO  2  48  13  49  13
M  END
>  <minimizedAffinity>  (1) 
-5.63225508

>  <minimizedRMSD>  (1) 
1.14607787

$$$$
