
     RDKit          3D

 44 48  0  0  0  0  0  0  0  0999 V2000
   45.5590   33.1220   46.5160 C   0  0  0  0  0  0  0  0  0  0  0  0
   44.4320   36.2490   44.8270 C   0  0  0  0  0  0  0  0  0  0  0  0
   45.0320   36.0880   43.5590 C   0  0  0  0  0  0  0  0  0  0  0  0
   45.7870   34.9380   43.3280 C   0  0  0  0  0  0  0  0  0  0  0  0
   45.9340   34.0080   44.3010 N   0  0  0  0  0  0  0  0  0  0  0  0
   45.3400   34.1940   45.5190 C   0  0  0  0  0  0  0  0  0  0  0  0
   44.6120   35.2930   45.7560 N   0  0  0  0  0  0  0  0  0  0  0  0
   46.4470   34.6720   42.0590 C   0  0  0  0  0  0  0  0  0  0  0  0
   47.7300   35.1410   41.8720 C   0  0  0  0  0  0  0  0  0  0  0  0
   48.4440   34.9400   40.7010 C   0  0  0  0  0  0  0  0  0  0  0  0
   47.8460   34.2310   39.6550 C   0  0  0  0  0  0  0  0  0  0  0  0
   48.5330   34.0310   38.5120 N   0  0  0  0  0  0  0  0  0  0  0  0
   47.9840   33.3510   37.4860 C   0  0  0  0  0  0  0  0  0  0  0  0
   46.6870   32.8400   37.5910 C   0  0  0  0  0  0  0  0  0  0  0  0
   45.9870   33.0550   38.7830 C   0  0  0  0  0  0  0  0  0  0  0  0
   46.5660   33.7580   39.8330 C   0  0  0  0  0  0  0  0  0  0  0  0
   45.8830   33.9760   41.0120 C   0  0  0  0  0  0  0  0  0  0  0  0
   46.7910   31.9900   45.8380 S   0  0  0  0  0  0  0  0  0  0  0  0
   47.7320   31.2310   47.1450 C   0  0  0  0  0  0  0  0  0  0  0  0
   47.9760   31.9820   48.2720 C   0  0  0  0  0  0  0  0  0  0  0  0
   48.7000   31.4100   49.2850 C   0  0  0  0  0  0  0  0  0  0  0  0
   49.1890   30.0980   49.1960 C   0  0  0  0  0  0  0  0  0  0  0  0
   49.8940   29.5800   50.2180 N   0  0  0  0  0  0  0  0  0  0  0  0
   50.3730   28.3250   50.1590 C   0  0  0  0  0  0  0  0  0  0  0  0
   50.1320   27.5680   49.0320 C   0  0  0  0  0  0  0  0  0  0  0  0
   49.4080   28.1070   47.9870 C   0  0  0  0  0  0  0  0  0  0  0  0
   48.9030   29.4120   48.0350 C   0  0  0  0  0  0  0  0  0  0  0  0
   48.1830   29.9430   46.9970 C   0  0  0  0  0  0  0  0  0  0  0  0
   45.9259   33.5552   47.4582 H   0  0  0  0  0  0  0  0  0  0  0  0
   44.6189   32.5903   46.7245 H   0  0  0  0  0  0  0  0  0  0  0  0
   43.8280   37.1406   45.0512 H   0  0  0  0  0  0  0  0  0  0  0  0
   44.9074   36.8489   42.7745 H   0  0  0  0  0  0  0  0  0  0  0  0
   48.2088   35.7002   42.6893 H   0  0  0  0  0  0  0  0  0  0  0  0
   49.4662   35.3326   40.5963 H   0  0  0  0  0  0  0  0  0  0  0  0
   48.5594   33.1973   36.5612 H   0  0  0  0  0  0  0  0  0  0  0  0
   46.2295   32.2842   36.7593 H   0  0  0  0  0  0  0  0  0  0  0  0
   44.9650   32.6626   38.8907 H   0  0  0  0  0  0  0  0  0  0  0  0
   44.8609   33.5837   41.1189 H   0  0  0  0  0  0  0  0  0  0  0  0
   47.6004   33.0124   48.3572 H   0  0  0  0  0  0  0  0  0  0  0  0
   48.9035   31.9959   50.1935 H   0  0  0  0  0  0  0  0  0  0  0  0
   50.9491   27.9080   50.9982 H   0  0  0  0  0  0  0  0  0  0  0  0
   50.5149   26.5389   48.9657 H   0  0  0  0  0  0  0  0  0  0  0  0
   49.2229   27.4943   47.0923 H   0  0  0  0  0  0  0  0  0  0  0  0
   47.9757   29.3629   46.0857 H   0  0  0  0  0  0  0  0  0  0  0  0
  2  7  2  0
  3  2  1  0
  4  3  2  0
  4  5  1  0
  5  6  2  0
  6  7  1  0
  6  1  1  0
  8  4  1  0
  9  8  2  0
 10  9  1  0
 11 16  1  0
 11 10  2  0
 12 11  1  0
 13 14  1  0
 13 12  2  0
 14 15  2  0
 15 16  1  0
 16 17  2  0
 17  8  1  0
 18  1  1  0
 18 19  1  0
 19 20  2  0
 20 21  1  0
 22 21  2  0
 22 23  1  0
 24 23  2  0
 25 24  1  0
 26 27  1  0
 26 25  2  0
 27 22  1  0
 28 19  1  0
 28 27  2  0
  1 29  1  0
  1 30  1  0
  2 31  1  0
  3 32  1  0
  9 33  1  0
 10 34  1  0
 13 35  1  0
 14 36  1  0
 15 37  1  0
 17 38  1  0
 20 39  1  0
 21 40  1  0
 24 41  1  0
 25 42  1  0
 26 43  1  0
 28 44  1  0
M  ISO  8  29   8  30   8  31  14  32  14  33  14  34  14  35  14  36  14
M  ISO  8  37  14  38  14  39  14  40  14  41  14  42  14  43  14  44  14
M  END
>  <minimizedAffinity>  (1) 
-7.02523088

>  <minimizedRMSD>  (1) 
1.12189186

$$$$
