
     RDKit          3D

 49 53  0  0  1  0  0  0  0  0999 V2000
   46.1630   33.5690   41.1040 N   0  0  0  0  0  0  0  0  0  0  0  0
   47.2550   33.4910   40.1660 C   0  0  0  0  0  0  0  0  0  0  0  0
   48.6040   33.5470   40.8240 C   0  0  0  0  0  0  0  0  0  0  0  0
   48.7940   34.9300   41.4060 C   0  0  0  0  0  0  0  0  0  0  0  0
   47.4940   35.4580   41.9690 C   0  0  0  0  0  0  0  0  0  0  0  0
   46.5780   34.2840   42.2870 C   0  0  2  0  0  0  0  0  0  0  0  0
   43.6600   33.5580   40.4590 C   0  0  1  0  0  0  0  0  0  0  0  0
   44.4970   33.3160   39.2920 C   0  0  0  0  0  0  0  0  0  0  0  0
   45.0560   34.1370   40.4100 C   0  0  2  0  0  0  0  0  0  0  0  0
   41.8690   34.7400   39.1540 C   0  0  0  0  0  0  0  0  0  0  0  0
   42.5010   34.4650   40.3910 C   0  0  0  0  0  0  0  0  0  0  0  0
   41.9890   35.0700   41.5340 C   0  0  0  0  0  0  0  0  0  0  0  0
   40.9130   35.8900   41.4040 N   0  0  0  0  0  0  0  0  0  0  0  0
   40.3260   36.1400   40.2280 C   0  0  0  0  0  0  0  0  0  0  0  0
   40.8020   35.5620   39.0810 N   0  0  0  0  0  0  0  0  0  0  0  0
   47.1800   33.4770   43.2990 N   0  0  0  0  0  0  0  0  0  0  0  0
   46.7060   33.2460   44.6000 C   0  0  0  0  0  0  0  0  0  0  0  0
   45.7190   33.9590   45.2250 C   0  0  0  0  0  0  0  0  0  0  0  0
   45.2400   33.7600   46.4950 C   0  0  0  0  0  0  0  0  0  0  0  0
   45.8060   32.7260   47.2390 C   0  0  0  0  0  0  0  0  0  0  0  0
   45.4110   32.4450   48.4910 N   0  0  0  0  0  0  0  0  0  0  0  0
   45.9520   31.4510   49.2150 C   0  0  0  0  0  0  0  0  0  0  0  0
   46.9670   30.6490   48.6920 C   0  0  0  0  0  0  0  0  0  0  0  0
   47.3650   30.9460   47.4050 C   0  0  0  0  0  0  0  0  0  0  0  0
   46.8000   31.9680   46.6780 C   0  0  0  0  0  0  0  0  0  0  0  0
   47.2190   32.2370   45.4030 C   0  0  0  0  0  0  0  0  0  0  0  0
   47.1744   32.5433   39.6134 H   0  0  0  0  0  0  0  0  0  0  0  0
   47.1785   34.3641   39.5013 H   0  0  0  0  0  0  0  0  0  0  0  0
   48.6577   32.7959   41.6258 H   0  0  0  0  0  0  0  0  0  0  0  0
   49.3930   33.3352   40.0874 H   0  0  0  0  0  0  0  0  0  0  0  0
   49.5429   34.8832   42.2103 H   0  0  0  0  0  0  0  0  0  0  0  0
   49.1327   35.6057   40.6068 H   0  0  0  0  0  0  0  0  0  0  0  0
   47.6948   36.0285   42.8878 H   0  0  0  0  0  0  0  0  0  0  0  0
   47.0109   36.1173   41.2328 H   0  0  0  0  0  0  0  0  0  0  0  0
   45.6291   34.6576   42.6992 H   0  0  0  0  0  0  0  0  0  0  0  0
   43.1030   32.9061   41.1481 H   0  0  0  0  0  0  0  0  0  0  0  0
   44.2490   33.7960   38.3338 H   0  0  0  0  0  0  0  0  0  0  0  0
   44.8314   32.4129   38.7604 H   0  0  0  0  0  0  0  0  0  0  0  0
   45.4514   35.1487   40.5834 H   0  0  0  0  0  0  0  0  0  0  0  0
   42.2555   34.2745   38.2353 H   0  0  0  0  0  0  0  0  0  0  0  0
   42.4439   34.8892   42.5191 H   0  0  0  0  0  0  0  0  0  0  0  0
   39.4570   36.8129   40.1820 H   0  0  0  0  0  0  0  0  0  0  0  0
   48.0629   33.0110   43.0457 H   0  0  0  0  0  0  0  0  0  0  0  0
   45.2621   34.7771   44.6488 H   0  0  0  0  0  0  0  0  0  0  0  0
   44.4407   34.3916   46.9099 H   0  0  0  0  0  0  0  0  0  0  0  0
   45.5889   31.2664   50.2368 H   0  0  0  0  0  0  0  0  0  0  0  0
   47.4215   29.8309   49.2700 H   0  0  0  0  0  0  0  0  0  0  0  0
   48.1622   30.3444   46.9439 H   0  0  0  0  0  0  0  0  0  0  0  0
   48.0193   31.6087   44.9851 H   0  0  0  0  0  0  0  0  0  0  0  0
  1  2  1  0
  1  6  1  0
  2  3  1  0
  3  4  1  0
  4  5  1  0
  5  6  1  0
  6 16  1  0
  8  9  1  0
  8  7  1  0
  9  7  1  0
  9  1  1  0
 10 11  2  0
 11  7  1  0
 11 12  1  0
 13 12  2  0
 14 13  1  0
 15 10  1  0
 15 14  2  0
 16 17  1  0
 17 18  2  0
 17 26  1  0
 18 19  1  0
 19 20  2  0
 20 21  1  0
 21 22  2  0
 23 22  1  0
 24 23  2  0
 25 20  1  0
 25 24  1  0
 26 25  2  0
  2 27  1  0
  2 28  1  0
  3 29  1  0
  3 30  1  0
  4 31  1  0
  4 32  1  0
  5 33  1  0
  5 34  1  0
  6 35  1  1
  7 36  1  1
  8 37  1  0
  8 38  1  0
  9 39  1  6
 10 40  1  0
 12 41  1  0
 14 42  1  0
 16 43  1  0
 18 44  1  0
 19 45  1  0
 22 46  1  0
 23 47  1  0
 24 48  1  0
 26 49  1  0
M  ISO  8  27  13  28  13  29  13  30  13  31  13  32  13  33  13  34  13
M  ISO  8  35  13  36  13  37  13  38  13  39  13  40  14  41  14  42  14
M  ISO  6  44  14  45  14  46  14  47  14  48  14  49  14
M  END
>  <minimizedAffinity>  (1) 
-6.29098749

>  <minimizedRMSD>  (1) 
7.93160868

$$$$
