
     RDKit          3D

 51 55  0  0  1  0  0  0  0  0999 V2000
   46.1750   35.3830   42.6300 C   0  0  0  0  0  0  0  0  0  0  0  0
   45.0660   35.0880   41.7160 C   0  0  0  0  0  0  0  0  0  0  0  0
   43.7980   35.6090   41.8150 C   0  0  0  0  0  0  0  0  0  0  0  0
   42.7820   35.2840   40.9420 C   0  0  0  0  0  0  0  0  0  0  0  0
   43.0520   34.4010   39.9290 C   0  0  0  0  0  0  0  0  0  0  0  0
   44.3310   33.8610   39.8080 C   0  0  0  0  0  0  0  0  0  0  0  0
   45.3600   34.2020   40.7070 C   0  0  0  0  0  0  0  0  0  0  0  0
   46.5570   33.5130   40.2690 C   0  0  0  0  0  0  0  0  0  0  0  0
   46.7910   32.8650   39.0770 C   0  0  0  0  0  0  0  0  0  0  0  0
   47.9720   32.2550   38.7380 C   0  0  0  0  0  0  0  0  0  0  0  0
   48.9980   32.2900   39.6520 C   0  0  0  0  0  0  0  0  0  0  0  0
   50.1650   31.6980   39.3410 N   0  0  0  0  0  0  0  0  0  0  0  0
   51.2130   31.7060   40.2160 C   0  0  0  0  0  0  0  0  0  0  0  0
   51.0620   32.3410   41.4500 C   0  0  0  0  0  0  0  0  0  0  0  0
   49.8860   32.9690   41.8300 C   0  0  0  0  0  0  0  0  0  0  0  0
   48.8880   32.9070   40.8800 C   0  0  0  0  0  0  0  0  0  0  0  0
   47.6620   33.4890   41.1230 C   0  0  0  0  0  0  0  0  0  0  0  0
   45.1580   34.7990   44.8120 C   0  0  0  0  0  0  0  0  0  0  0  0
   46.0980   34.5450   43.8180 C   0  0  0  0  0  0  0  0  0  0  0  0
   46.9540   33.4610   44.0150 C   0  0  0  0  0  0  0  0  0  0  0  0
   46.8670   32.6930   45.1240 N   0  0  0  0  0  0  0  0  0  0  0  0
   45.9340   32.9760   46.0670 C   0  0  0  0  0  0  0  0  0  0  0  0
   45.0850   34.0190   45.9170 N   0  0  0  0  0  0  0  0  0  0  0  0
   47.2960   31.7260   47.7320 C   0  0  2  0  0  0  0  0  0  0  0  0
   45.8690   32.1150   47.2470 C   0  0  1  0  0  0  0  0  0  0  0  0
   45.4140   32.6980   48.3810 O   0  0  0  0  0  0  0  0  0  0  0  0
   45.7380   31.8840   49.4290 C   0  0  0  0  0  0  0  0  0  0  0  0
   46.8570   30.9720   48.9950 C   0  0  2  0  0  0  0  0  0  0  0  0
   47.9710   32.8200   48.1230 O   0  0  0  0  0  0  0  0  0  0  0  0
   47.8660   30.8490   49.9150 O   0  0  0  0  0  0  0  0  0  0  0  0
   46.1248   36.4402   42.9297 H   0  0  0  0  0  0  0  0  0  0  0  0
   47.1241   35.1782   42.1130 H   0  0  0  0  0  0  0  0  0  0  0  0
   43.5841   36.3180   42.6284 H   0  0  0  0  0  0  0  0  0  0  0  0
   41.7795   35.7223   41.0555 H   0  0  0  0  0  0  0  0  0  0  0  0
   42.2634   34.1201   39.2154 H   0  0  0  0  0  0  0  0  0  0  0  0
   44.5414   33.1531   38.9927 H   0  0  0  0  0  0  0  0  0  0  0  0
   45.9718   32.8342   38.3435 H   0  0  0  0  0  0  0  0  0  0  0  0
   48.0940   31.7541   37.7663 H   0  0  0  0  0  0  0  0  0  0  0  0
   52.1633   31.2188   39.9523 H   0  0  0  0  0  0  0  0  0  0  0  0
   51.9109   32.3431   42.1495 H   0  0  0  0  0  0  0  0  0  0  0  0
   49.7603   33.4710   42.8007 H   0  0  0  0  0  0  0  0  0  0  0  0
   47.5409   33.9889   42.0953 H   0  0  0  0  0  0  0  0  0  0  0  0
   44.4644   35.6452   44.6988 H   0  0  0  0  0  0  0  0  0  0  0  0
   47.7133   33.2271   43.2542 H   0  0  0  0  0  0  0  0  0  0  0  0
   47.9331   31.2048   47.0023 H   0  0  0  0  0  0  0  0  0  0  0  0
   45.2134   31.3079   46.8881 H   0  0  0  0  0  0  0  0  0  0  0  0
   46.0655   32.4927   50.2847 H   0  0  0  0  0  0  0  0  0  0  0  0
   44.8625   31.2906   49.7313 H   0  0  0  0  0  0  0  0  0  0  0  0
   46.5650   29.9210   48.8528 H   0  0  0  0  0  0  0  0  0  0  0  0
   47.9942   32.8575   49.1120 H   0  0  0  0  0  0  0  0  0  0  0  0
   47.4871   30.8952   50.8285 H   0  0  0  0  0  0  0  0  0  0  0  0
  1 19  1  0
  2  3  2  0
  2  1  1  0
  4  3  1  0
  5  4  2  0
  6  5  1  0
  6  7  2  0
  7  2  1  0
  8  7  1  0
  8 17  1  0
  9  8  2  0
 10  9  1  0
 10 11  2  0
 11 16  1  0
 12 11  1  0
 12 13  2  0
 13 14  1  0
 14 15  2  0
 16 17  2  0
 16 15  1  0
 18 23  2  0
 19 20  2  0
 19 18  1  0
 20 21  1  0
 21 22  2  0
 22 25  1  0
 23 22  1  0
 24 29  1  0
 24 28  1  0
 25 24  1  0
 25 26  1  0
 26 27  1  0
 28 27  1  0
 28 30  1  0
  1 31  1  0
  1 32  1  0
  3 33  1  0
  4 34  1  0
  5 35  1  0
  6 36  1  0
  9 37  1  0
 10 38  1  0
 13 39  1  0
 14 40  1  0
 15 41  1  0
 17 42  1  0
 18 43  1  0
 20 44  1  0
 24 45  1  6
 25 46  1  6
 27 47  1  0
 27 48  1  0
 28 49  1  6
 29 50  1  0
 30 51  1  0
M  END
>  <minimizedAffinity>  (1) 
-7.75331116

>  <minimizedRMSD>  (1) 
0.518319726

$$$$
