
     RDKit          3D

 54 60  0  0  1  0  0  0  0  0999 V2000
   45.5580   33.7260   45.2300 C   0  0  0  0  0  0  0  0  0  0  0  0
   46.5740   33.0720   44.4770 C   0  0  0  0  0  0  0  0  0  0  0  0
   47.3810   32.1810   45.1370 C   0  0  0  0  0  0  0  0  0  0  0  0
   47.1430   31.9950   46.4660 N   0  0  0  0  0  0  0  0  0  0  0  0
   46.1860   32.6150   47.1630 C   0  0  0  0  0  0  0  0  0  0  0  0
   45.3850   33.4910   46.5380 N   0  0  0  0  0  0  0  0  0  0  0  0
   46.7360   33.3780   43.0260 C   0  0  1  0  0  0  0  0  0  0  0  0
   46.9410   34.7530   42.5830 C   0  0  0  0  0  0  0  0  0  0  0  0
   48.1120   33.8450   42.5740 C   0  0  2  0  0  0  0  0  0  0  0  0
   48.5330   33.2960   41.2540 C   0  0  0  0  0  0  0  0  0  0  0  0
   49.4040   32.2390   41.0960 C   0  0  0  0  0  0  0  0  0  0  0  0
   49.7600   31.7900   39.8350 C   0  0  0  0  0  0  0  0  0  0  0  0
   49.2440   32.3960   38.7170 C   0  0  0  0  0  0  0  0  0  0  0  0
   49.5730   31.9720   37.4640 N   0  0  0  0  0  0  0  0  0  0  0  0
   49.0500   32.5850   36.3750 C   0  0  0  0  0  0  0  0  0  0  0  0
   48.1490   33.6770   36.4400 C   0  0  0  0  0  0  0  0  0  0  0  0
   47.8090   34.1140   37.6990 C   0  0  0  0  0  0  0  0  0  0  0  0
   48.3560   33.4740   38.8100 C   0  0  0  0  0  0  0  0  0  0  0  0
   48.0320   33.8850   40.0910 C   0  0  0  0  0  0  0  0  0  0  0  0
   46.0610   32.2860   48.5990 C   0  0  2  0  0  0  0  0  0  0  0  0
   46.8900   31.2970   49.2610 C   0  0  0  0  0  0  0  0  0  0  0  0
   45.5200   30.8660   48.8940 C   0  0  2  0  0  0  0  0  0  0  0  0
   45.3840   29.8890   47.8180 C   0  0  0  0  0  0  0  0  0  0  0  0
   46.5050   29.0540   47.7460 C   0  0  0  0  0  0  0  0  0  0  0  0
   46.6050   28.0470   46.7790 C   0  0  0  0  0  0  0  0  0  0  0  0
   45.5850   27.8790   45.8890 C   0  0  0  0  0  0  0  0  0  0  0  0
   45.5810   26.9380   44.9180 N   0  0  0  0  0  0  0  0  0  0  0  0
   44.5640   26.7900   44.0510 C   0  0  0  0  0  0  0  0  0  0  0  0
   43.4520   27.6080   44.1110 C   0  0  0  0  0  0  0  0  0  0  0  0
   43.4080   28.5780   45.0780 C   0  0  0  0  0  0  0  0  0  0  0  0
   44.4790   28.6880   45.9450 C   0  0  0  0  0  0  0  0  0  0  0  0
   44.3890   29.6730   46.8960 C   0  0  0  0  0  0  0  0  0  0  0  0
   44.8964   34.4444   44.7239 H   0  0  0  0  0  0  0  0  0  0  0  0
   48.1851   31.6402   44.6166 H   0  0  0  0  0  0  0  0  0  0  0  0
   46.0263   32.5864   42.7439 H   0  0  0  0  0  0  0  0  0  0  0  0
   46.5054   35.0876   41.6300 H   0  0  0  0  0  0  0  0  0  0  0  0
   46.7413   35.7377   43.0308 H   0  0  0  0  0  0  0  0  0  0  0  0
   49.1280   33.8900   42.9932 H   0  0  0  0  0  0  0  0  0  0  0  0
   49.8226   31.7447   41.9850 H   0  0  0  0  0  0  0  0  0  0  0  0
   50.4576   30.9461   39.7295 H   0  0  0  0  0  0  0  0  0  0  0  0
   49.3419   32.2132   35.3817 H   0  0  0  0  0  0  0  0  0  0  0  0
   47.7437   34.1493   35.5330 H   0  0  0  0  0  0  0  0  0  0  0  0
   47.1146   34.9574   37.8275 H   0  0  0  0  0  0  0  0  0  0  0  0
   47.3355   34.7294   40.2002 H   0  0  0  0  0  0  0  0  0  0  0  0
   45.8279   33.3324   48.8454 H   0  0  0  0  0  0  0  0  0  0  0  0
   47.7513   30.8699   48.7264 H   0  0  0  0  0  0  0  0  0  0  0  0
   47.4552   31.2947   50.2047 H   0  0  0  0  0  0  0  0  0  0  0  0
   44.6337   30.4615   49.4046 H   0  0  0  0  0  0  0  0  0  0  0  0
   47.3256   29.1922   48.4653 H   0  0  0  0  0  0  0  0  0  0  0  0
   47.4937   27.4001   46.7373 H   0  0  0  0  0  0  0  0  0  0  0  0
   44.6181   26.0054   43.2819 H   0  0  0  0  0  0  0  0  0  0  0  0
   42.6221   27.4836   43.3998 H   0  0  0  0  0  0  0  0  0  0  0  0
   42.5426   29.2518   45.1621 H   0  0  0  0  0  0  0  0  0  0  0  0
   43.4922   30.3095   46.9208 H   0  0  0  0  0  0  0  0  0  0  0  0
  1  6  2  0
  2  3  2  0
  2  1  1  0
  3  4  1  0
  4  5  2  0
  5 20  1  0
  6  5  1  0
  7  2  1  0
  8  7  1  0
  9  8  1  0
  9  7  1  0
 10  9  1  0
 11 10  2  0
 12 11  1  0
 13 18  1  0
 13 12  2  0
 14 13  1  0
 15 16  1  0
 15 14  2  0
 16 17  2  0
 17 18  1  0
 18 19  2  0
 19 10  1  0
 20 22  1  0
 20 21  1  0
 22 21  1  0
 23 22  1  0
 24 23  2  0
 25 24  1  0
 26 31  1  0
 26 25  2  0
 27 26  1  0
 28 29  1  0
 28 27  2  0
 29 30  2  0
 30 31  1  0
 31 32  2  0
 32 23  1  0
  1 33  1  0
  3 34  1  0
  7 35  1  6
  8 36  1  0
  8 37  1  0
  9 38  1  1
 11 39  1  0
 12 40  1  0
 15 41  1  0
 16 42  1  0
 17 43  1  0
 19 44  1  0
 20 45  1  1
 21 46  1  0
 21 47  1  0
 22 48  1  1
 24 49  1  0
 25 50  1  0
 28 51  1  0
 29 52  1  0
 30 53  1  0
 32 54  1  0
M  ISO  8  33  14  34  14  35  13  36  13  37  13  38  13  39  14  40  14
M  ISO  8  41  14  42  14  43  14  44  14  45  13  46  13  47  13  48  13
M  ISO  6  49  14  50  14  51  14  52  14  53  14  54  14
M  END
>  <minimizedAffinity>  (1) 
-6.3031106

>  <minimizedRMSD>  (1) 
1.27176297

$$$$
