
     RDKit          3D

 48 52  0  0  0  0  0  0  0  0999 V2000
   48.2330   34.0930   38.5950 C   0  0  0  0  0  0  0  0  0  0  0  0
   48.0500   32.7710   38.1200 C   0  0  0  0  0  0  0  0  0  0  0  0
   47.1910   31.9010   38.8320 C   0  0  0  0  0  0  0  0  0  0  0  0
   46.5900   32.3940   39.9400 N   0  0  0  0  0  0  0  0  0  0  0  0
   46.7890   33.6680   40.3670 C   0  0  0  0  0  0  0  0  0  0  0  0
   47.5980   34.4950   39.6990 N   0  0  0  0  0  0  0  0  0  0  0  0
   49.0890   34.9560   37.8840 N   0  0  0  0  0  0  0  0  0  0  0  0
   48.7090   32.2670   36.9350 C   0  0  0  0  0  0  0  0  0  0  0  0
   49.8210   31.4310   36.8740 C   0  0  0  0  0  0  0  0  0  0  0  0
   50.3500   31.0260   35.6690 C   0  0  0  0  0  0  0  0  0  0  0  0
   49.7860   31.4430   34.4700 C   0  0  0  0  0  0  0  0  0  0  0  0
   50.3470   31.0130   33.3260 N   0  0  0  0  0  0  0  0  0  0  0  0
   49.8020   31.4140   32.1310 C   0  0  0  0  0  0  0  0  0  0  0  0
   48.7060   32.2380   32.1830 C   0  0  0  0  0  0  0  0  0  0  0  0
   48.1110   32.6930   33.3390 C   0  0  0  0  0  0  0  0  0  0  0  0
   48.6700   32.2810   34.5280 C   0  0  0  0  0  0  0  0  0  0  0  0
   48.1420   32.6860   35.7470 C   0  0  0  0  0  0  0  0  0  0  0  0
   46.0790   34.0970   41.6130 C   0  0  0  0  0  0  0  0  0  0  0  0
   47.1310   34.3840   42.7090 C   0  0  0  0  0  0  0  0  0  0  0  0
   46.5910   33.9980   44.0380 C   0  0  0  0  0  0  0  0  0  0  0  0
   45.5230   34.6880   44.5590 C   0  0  0  0  0  0  0  0  0  0  0  0
   45.0390   34.3080   45.7960 C   0  0  0  0  0  0  0  0  0  0  0  0
   45.6090   33.2680   46.4950 C   0  0  0  0  0  0  0  0  0  0  0  0
   45.1370   32.8920   47.7110 N   0  0  0  0  0  0  0  0  0  0  0  0
   45.6940   31.8720   48.3950 C   0  0  0  0  0  0  0  0  0  0  0  0
   46.7610   31.1520   47.9200 C   0  0  0  0  0  0  0  0  0  0  0  0
   47.2780   31.5040   46.6760 C   0  0  0  0  0  0  0  0  0  0  0  0
   46.6960   32.5590   45.9730 C   0  0  0  0  0  0  0  0  0  0  0  0
   47.1610   32.9560   44.7350 C   0  0  0  0  0  0  0  0  0  0  0  0
   47.0187   30.8669   38.4989 H   0  0  0  0  0  0  0  0  0  0  0  0
   49.5675   34.6224   37.0351 H   0  0  0  0  0  0  0  0  0  0  0  0
   49.2366   35.9209   38.2129 H   0  0  0  0  0  0  0  0  0  0  0  0
   50.2870   31.0866   37.8090 H   0  0  0  0  0  0  0  0  0  0  0  0
   51.2290   30.3649   35.6557 H   0  0  0  0  0  0  0  0  0  0  0  0
   50.2271   31.0877   31.1704 H   0  0  0  0  0  0  0  0  0  0  0  0
   48.2683   32.5604   31.2267 H   0  0  0  0  0  0  0  0  0  0  0  0
   47.2318   33.3536   33.3135 H   0  0  0  0  0  0  0  0  0  0  0  0
   47.2632   33.3473   35.7667 H   0  0  0  0  0  0  0  0  0  0  0  0
   45.4960   35.0079   41.4119 H   0  0  0  0  0  0  0  0  0  0  0  0
   45.3961   33.3023   41.9478 H   0  0  0  0  0  0  0  0  0  0  0  0
   48.0418   33.8030   42.5021 H   0  0  0  0  0  0  0  0  0  0  0  0
   47.3692   35.4579   42.7116 H   0  0  0  0  0  0  0  0  0  0  0  0
   45.0653   35.5212   44.0056 H   0  0  0  0  0  0  0  0  0  0  0  0
   44.1832   34.8459   46.2299 H   0  0  0  0  0  0  0  0  0  0  0  0
   45.2747   31.6056   49.3764 H   0  0  0  0  0  0  0  0  0  0  0  0
   47.1933   30.3248   48.5022 H   0  0  0  0  0  0  0  0  0  0  0  0
   48.1339   30.9575   46.2532 H   0  0  0  0  0  0  0  0  0  0  0  0
   48.0145   32.4226   44.2910 H   0  0  0  0  0  0  0  0  0  0  0  0
  1  6  2  0
  2  1  1  0
  2  3  2  0
  3  4  1  0
  4  5  2  0
  5 18  1  0
  6  5  1  0
  7  1  1  0
  8  2  1  0
  9  8  2  0
 10  9  1  0
 11 16  1  0
 11 10  2  0
 12 11  1  0
 13 14  1  0
 13 12  2  0
 14 15  2  0
 15 16  1  0
 16 17  2  0
 17  8  1  0
 18 19  1  0
 19 20  1  0
 20 21  2  0
 20 29  1  0
 21 22  1  0
 22 23  2  0
 23 24  1  0
 24 25  2  0
 26 25  1  0
 27 26  2  0
 28 23  1  0
 28 27  1  0
 29 28  2  0
  3 30  1  0
  7 31  1  0
  7 32  1  0
  9 33  1  0
 10 34  1  0
 13 35  1  0
 14 36  1  0
 15 37  1  0
 17 38  1  0
 18 39  1  0
 18 40  1  0
 19 41  1  0
 19 42  1  0
 21 43  1  0
 22 44  1  0
 25 45  1  0
 26 46  1  0
 27 47  1  0
 29 48  1  0
M  ISO  8  30  14  33  14  34  14  35  14  36  14  37  14  38  14  39   8
M  ISO  8  40   8  41   8  42   8  43  14  44  14  45  14  46  14  47  14
M  ISO  1  48  14
M  END
>  <minimizedAffinity>  (1) 
-6.54871225

>  <minimizedRMSD>  (1) 
5.9854846

$$$$
