
     RDKit          3D

 32 34  0  0  0  0  0  0  0  0999 V2000
   44.1840   35.0980   42.0950 C   0  0  0  0  0  0  0  0  0  0  0  0
   44.1920   33.8320   42.2610 O   0  0  0  0  0  0  0  0  0  0  0  0
   45.0710   35.7690   42.9980 N   0  0  0  0  0  0  0  0  0  0  0  0
   45.7070   34.7780   43.8620 C   0  0  0  0  0  0  0  0  0  0  0  0
   45.3120   34.5210   45.1520 C   0  0  0  0  0  0  0  0  0  0  0  0
   46.0420   33.5350   45.8120 C   0  0  0  0  0  0  0  0  0  0  0  0
   47.0490   32.9310   45.1450 N   0  0  0  0  0  0  0  0  0  0  0  0
   47.3950   33.2170   43.8860 C   0  0  0  0  0  0  0  0  0  0  0  0
   46.7110   34.1730   43.1980 N   0  0  0  0  0  0  0  0  0  0  0  0
   44.2350   35.2570   45.6800 N   0  0  0  0  0  0  0  0  0  0  0  0
   43.4280   35.8100   41.1630 O   0  0  0  0  0  0  0  0  0  0  0  0
   42.1610   35.3460   40.8200 C   0  0  0  0  0  0  0  0  0  0  0  0
   41.2790   35.0960   41.8240 C   0  0  0  0  0  0  0  0  0  0  0  0
   40.0130   34.6340   41.5170 C   0  0  0  0  0  0  0  0  0  0  0  0
   39.6820   34.4400   40.1700 C   0  0  0  0  0  0  0  0  0  0  0  0
   38.4530   33.9890   39.8420 N   0  0  0  0  0  0  0  0  0  0  0  0
   38.1400   33.8050   38.5300 C   0  0  0  0  0  0  0  0  0  0  0  0
   39.0250   34.0540   37.4890 C   0  0  0  0  0  0  0  0  0  0  0  0
   40.2910   34.5190   37.8590 C   0  0  0  0  0  0  0  0  0  0  0  0
   40.6160   34.7110   39.1930 C   0  0  0  0  0  0  0  0  0  0  0  0
   41.8840   35.1710   39.4690 C   0  0  0  0  0  0  0  0  0  0  0  0
   45.2338   36.7855   43.0323 H   0  0  0  0  0  0  0  0  0  0  0  0
   45.8044   33.2558   46.8491 H   0  0  0  0  0  0  0  0  0  0  0  0
   48.2288   32.6824   43.4075 H   0  0  0  0  0  0  0  0  0  0  0  0
   43.9175   35.0851   46.6447 H   0  0  0  0  0  0  0  0  0  0  0  0
   43.7642   35.9676   45.1018 H   0  0  0  0  0  0  0  0  0  0  0  0
   41.5705   35.2600   42.8719 H   0  0  0  0  0  0  0  0  0  0  0  0
   39.2825   34.4236   42.3120 H   0  0  0  0  0  0  0  0  0  0  0  0
   37.1327   33.4397   38.2811 H   0  0  0  0  0  0  0  0  0  0  0  0
   38.7469   33.8950   36.4367 H   0  0  0  0  0  0  0  0  0  0  0  0
   41.0385   34.7352   37.0815 H   0  0  0  0  0  0  0  0  0  0  0  0
   42.6213   35.3837   38.6809 H   0  0  0  0  0  0  0  0  0  0  0  0
  1  2  2  0
  1  3  1  0
  3  4  1  0
  4  5  2  0
  5 10  1  0
  5  6  1  0
  7  6  2  0
  8  7  1  0
  9  4  1  0
  9  8  2  0
 11  1  1  0
 12 11  1  0
 12 13  2  0
 14 13  1  0
 15 14  2  0
 16 15  1  0
 17 16  2  0
 18 19  2  0
 18 17  1  0
 19 20  1  0
 20 21  2  0
 20 15  1  0
 21 12  1  0
  3 22  1  0
  6 23  1  0
  8 24  1  0
 10 25  1  0
 10 26  1  0
 13 27  1  0
 14 28  1  0
 17 29  1  0
 18 30  1  0
 19 31  1  0
 21 32  1  0
M  ISO  8  23  14  24  14  27  14  28  14  29  14  30  14  31  14  32  14
M  END
>  <minimizedAffinity>  (1) 
-6.5304718

>  <minimizedRMSD>  (1) 
1.33670628

$$$$
