
     RDKit          3D

 28 30  0  0  0  0  0  0  0  0999 V2000
   44.4530   36.0350   44.8430 C   0  0  0  0  0  0  0  0  0  0  0  0
   45.0440   35.9450   43.5700 C   0  0  0  0  0  0  0  0  0  0  0  0
   45.8750   34.8670   43.3100 C   0  0  0  0  0  0  0  0  0  0  0  0
   46.0750   33.9600   44.2850 N   0  0  0  0  0  0  0  0  0  0  0  0
   45.4960   34.0620   45.5070 C   0  0  0  0  0  0  0  0  0  0  0  0
   44.6900   35.0980   45.7760 N   0  0  0  0  0  0  0  0  0  0  0  0
   46.5400   34.6680   42.0360 C   0  0  0  0  0  0  0  0  0  0  0  0
   47.8030   35.2010   41.8840 C   0  0  0  0  0  0  0  0  0  0  0  0
   48.4830   35.0340   40.6760 C   0  0  0  0  0  0  0  0  0  0  0  0
   47.8970   34.3410   39.6300 C   0  0  0  0  0  0  0  0  0  0  0  0
   48.5140   34.1510   38.4370 N   0  0  0  0  0  0  0  0  0  0  0  0
   47.9350   33.4730   37.4270 C   0  0  0  0  0  0  0  0  0  0  0  0
   46.6740   32.9190   37.5210 C   0  0  0  0  0  0  0  0  0  0  0  0
   46.0040   33.0920   38.7350 C   0  0  0  0  0  0  0  0  0  0  0  0
   46.6250   33.7960   39.7650 C   0  0  0  0  0  0  0  0  0  0  0  0
   45.9930   33.9880   40.9810 C   0  0  0  0  0  0  0  0  0  0  0  0
   45.8450   32.9580   46.4430 C   0  0  0  0  0  0  0  0  0  0  0  0
   45.0360   32.9310   47.5370 F   0  0  0  0  0  0  0  0  0  0  0  0
   47.1750   33.0870   46.8530 F   0  0  0  0  0  0  0  0  0  0  0  0
   45.8180   31.7440   45.7500 F   0  0  0  0  0  0  0  0  0  0  0  0
   43.7901   36.8810   45.0770 H   0  0  0  0  0  0  0  0  0  0  0  0
   44.8520   36.7089   42.8022 H   0  0  0  0  0  0  0  0  0  0  0  0
   48.2723   35.7549   42.7104 H   0  0  0  0  0  0  0  0  0  0  0  0
   49.4915   35.4560   40.5543 H   0  0  0  0  0  0  0  0  0  0  0  0
   48.4918   33.3556   36.4856 H   0  0  0  0  0  0  0  0  0  0  0  0
   46.2199   32.3696   36.6832 H   0  0  0  0  0  0  0  0  0  0  0  0
   44.9955   32.6762   38.8764 H   0  0  0  0  0  0  0  0  0  0  0  0
   44.9849   33.5666   41.1084 H   0  0  0  0  0  0  0  0  0  0  0  0
  1  6  2  0
  2  1  1  0
  3  2  2  0
  3  4  1  0
  4  5  2  0
  5  6  1  0
  5 17  1  0
  7  3  1  0
  8  7  2  0
  9  8  1  0
 10 15  1  0
 10  9  2  0
 11 10  1  0
 12 13  1  0
 12 11  2  0
 13 14  2  0
 14 15  1  0
 15 16  2  0
 16  7  1  0
 17 19  1  0
 17 18  1  0
 20 17  1  0
  1 21  1  0
  2 22  1  0
  8 23  1  0
  9 24  1  0
 12 25  1  0
 13 26  1  0
 14 27  1  0
 16 28  1  0
M  ISO  8  21  14  22  14  23  14  24  14  25  14  26  14  27  14  28  14
M  END
>  <minimizedAffinity>  (1) 
-6.49715185

>  <minimizedRMSD>  (1) 
0.758456111

$$$$
