
     RDKit          3D

 53 58  0  0  1  0  0  0  0  0999 V2000
   45.7740   31.4450   44.2420 C   0  0  0  0  0  0  0  0  0  0  0  0
   46.6690   32.5100   44.0050 C   0  0  0  0  0  0  0  0  0  0  0  0
   47.9560   32.0550   43.8460 C   0  0  0  0  0  0  0  0  0  0  0  0
   48.3610   30.7580   43.9040 C   0  0  0  0  0  0  0  0  0  0  0  0
   47.4150   29.7670   44.1470 C   0  0  0  0  0  0  0  0  0  0  0  0
   46.1020   30.1200   44.3170 C   0  0  0  0  0  0  0  0  0  0  0  0
   48.1310   28.5830   44.1520 O   0  0  0  0  0  0  0  0  0  0  0  0
   49.4970   28.8330   43.8680 C   0  0  2  0  0  0  0  0  0  0  0  0
   49.6360   30.2500   43.7480 O   0  0  0  0  0  0  0  0  0  0  0  0
   45.3180   35.9730   43.5330 C   0  0  0  0  0  0  0  0  0  0  0  0
   46.0380   34.8300   43.1830 C   0  0  0  0  0  0  0  0  0  0  0  0
   46.0620   33.7710   44.0390 C   0  0  0  0  0  0  0  0  0  0  0  0
   45.3690   33.8980   45.2140 N   0  0  0  0  0  0  0  0  0  0  0  0
   44.6800   34.9920   45.5490 C   0  0  0  0  0  0  0  0  0  0  0  0
   44.6570   36.0070   44.7210 N   0  0  0  0  0  0  0  0  0  0  0  0
   46.7150   34.8490   41.9650 N   0  0  0  0  0  0  0  0  0  0  0  0
   47.9860   35.4810   41.8210 C   0  0  0  0  0  0  0  0  0  0  0  0
   48.6570   35.2600   40.4970 C   0  0  0  0  0  0  0  0  0  0  0  0
   48.5210   33.9710   39.9680 N   0  0  0  0  0  0  0  0  0  0  0  0
   47.2790   33.3830   40.0770 C   0  0  0  0  0  0  0  0  0  0  0  0
   46.2670   34.2800   40.7560 C   0  0  0  0  0  0  0  0  0  0  0  0
   49.7700   28.2490   42.6320 O   0  0  0  0  0  0  0  0  0  0  0  0
   50.4080   28.9700   41.6470 C   0  0  0  0  0  0  0  0  0  0  0  0
   51.7820   28.8560   41.8680 C   0  0  0  0  0  0  0  0  0  0  0  0
   52.7250   29.4750   41.0380 C   0  0  0  0  0  0  0  0  0  0  0  0
   52.2930   30.2280   39.9640 C   0  0  0  0  0  0  0  0  0  0  0  0
   53.1280   30.8550   39.1180 N   0  0  0  0  0  0  0  0  0  0  0  0
   52.6950   31.5920   38.0630 C   0  0  0  0  0  0  0  0  0  0  0  0
   51.3140   31.6930   37.8640 C   0  0  0  0  0  0  0  0  0  0  0  0
   50.4000   31.0610   38.7110 C   0  0  0  0  0  0  0  0  0  0  0  0
   50.9360   30.3370   39.7510 C   0  0  0  0  0  0  0  0  0  0  0  0
   50.0110   29.7270   40.5680 C   0  0  0  0  0  0  0  0  0  0  0  0
   44.7140   31.7052   44.3791 H   0  0  0  0  0  0  0  0  0  0  0  0
   48.7316   32.8110   43.6537 H   0  0  0  0  0  0  0  0  0  0  0  0
   45.3325   29.3577   44.5087 H   0  0  0  0  0  0  0  0  0  0  0  0
   50.1703   28.4350   44.6414 H   0  0  0  0  0  0  0  0  0  0  0  0
   45.2854   36.8382   42.8545 H   0  0  0  0  0  0  0  0  0  0  0  0
   44.1398   35.0401   46.5060 H   0  0  0  0  0  0  0  0  0  0  0  0
   47.8462   36.5637   41.9564 H   0  0  0  0  0  0  0  0  0  0  0  0
   48.6426   35.0278   42.5782 H   0  0  0  0  0  0  0  0  0  0  0  0
   48.2285   35.9710   39.7753 H   0  0  0  0  0  0  0  0  0  0  0  0
   49.7331   35.4064   40.6718 H   0  0  0  0  0  0  0  0  0  0  0  0
   49.1974   33.3628   40.4512 H   0  0  0  0  0  0  0  0  0  0  0  0
   46.9141   33.1412   39.0679 H   0  0  0  0  0  0  0  0  0  0  0  0
   47.3914   32.4803   40.6955 H   0  0  0  0  0  0  0  0  0  0  0  0
   46.0120   35.0967   40.0646 H   0  0  0  0  0  0  0  0  0  0  0  0
   45.4033   33.6468   41.0070 H   0  0  0  0  0  0  0  0  0  0  0  0
   52.1355   28.2602   42.7224 H   0  0  0  0  0  0  0  0  0  0  0  0
   53.8005   29.3624   41.2398 H   0  0  0  0  0  0  0  0  0  0  0  0
   53.4054   32.0922   37.3883 H   0  0  0  0  0  0  0  0  0  0  0  0
   50.9374   32.2861   37.0176 H   0  0  0  0  0  0  0  0  0  0  0  0
   49.3138   31.1379   38.5552 H   0  0  0  0  0  0  0  0  0  0  0  0
   48.9384   29.8463   40.3554 H   0  0  0  0  0  0  0  0  0  0  0  0
  1  6  2  0
  2 12  1  0
  2  1  1  0
  3  4  1  0
  3  2  2  0
  4  5  2  0
  5  7  1  0
  5  6  1  0
  8  7  1  0
  9  8  1  0
  9  4  1  0
 10 15  2  0
 11 10  1  0
 11 12  2  0
 12 13  1  0
 13 14  2  0
 15 14  1  0
 16 11  1  0
 17 16  1  0
 18 17  1  0
 19 20  1  0
 19 18  1  0
 20 21  1  0
 21 16  1  0
 22  8  1  0
 23 24  2  0
 23 22  1  0
 25 24  1  0
 26 25  2  0
 27 26  1  0
 28 27  2  0
 29 28  1  0
 29 30  2  0
 30 31  1  0
 31 26  1  0
 31 32  2  0
 32 23  1  0
  1 33  1  0
  3 34  1  0
  6 35  1  0
  8 36  1  1
 10 37  1  0
 14 38  1  0
 17 39  1  0
 17 40  1  0
 18 41  1  0
 18 42  1  0
 19 43  1  0
 20 44  1  0
 20 45  1  0
 21 46  1  0
 21 47  1  0
 24 48  1  0
 25 49  1  0
 28 50  1  0
 29 51  1  0
 30 52  1  0
 32 53  1  0
M  ISO  8  33  14  34  14  35  14  36  13  37  14  38  14  39  13  40  13
M  ISO  8  41  13  42  13  43   5  44  13  45  13  46  13  47  13  48  14
M  ISO  5  49  14  50  14  51  14  52  14  53  14
M  END
>  <minimizedAffinity>  (1) 
-5.28655815

>  <minimizedRMSD>  (1) 
3.52184248

$$$$
