
     RDKit          3D

 34 37  0  0  0  0  0  0  0  0999 V2000
   45.5910   34.2680   45.1220 C   0  0  0  0  0  0  0  0  0  0  0  0
   44.6400   35.2780   45.2630 C   0  0  0  0  0  0  0  0  0  0  0  0
   44.3980   36.1160   44.1500 C   0  0  0  0  0  0  0  0  0  0  0  0
   45.1070   35.8960   42.9860 N   0  0  0  0  0  0  0  0  0  0  0  0
   46.0170   34.8950   42.9190 C   0  0  0  0  0  0  0  0  0  0  0  0
   46.2470   34.1080   43.9600 N   0  0  0  0  0  0  0  0  0  0  0  0
   45.8800   33.3760   46.2380 C   0  0  0  0  0  0  0  0  0  0  0  0
   45.2170   33.3570   47.4320 C   0  0  0  0  0  0  0  0  0  0  0  0
   45.5520   32.4750   48.4480 C   0  0  0  0  0  0  0  0  0  0  0  0
   46.5820   31.5710   48.2930 C   0  0  0  0  0  0  0  0  0  0  0  0
   46.9430   30.6960   49.2530 N   0  0  0  0  0  0  0  0  0  0  0  0
   47.9640   29.8200   49.0610 C   0  0  0  0  0  0  0  0  0  0  0  0
   48.6770   29.7930   47.8610 C   0  0  0  0  0  0  0  0  0  0  0  0
   48.3320   30.6770   46.8600 C   0  0  0  0  0  0  0  0  0  0  0  0
   47.2750   31.5550   47.1100 C   0  0  0  0  0  0  0  0  0  0  0  0
   46.9000   32.4510   46.1360 C   0  0  0  0  0  0  0  0  0  0  0  0
   46.7400   34.6910   41.6780 C   0  0  0  0  0  0  0  0  0  0  0  0
   47.9550   35.2810   41.4610 C   0  0  0  0  0  0  0  0  0  0  0  0
   48.7190   35.1560   40.3200 C   0  0  0  0  0  0  0  0  0  0  0  0
   48.1460   34.3470   39.3480 C   0  0  0  0  0  0  0  0  0  0  0  0
   46.9180   33.7310   39.5290 C   0  0  0  0  0  0  0  0  0  0  0  0
   46.2180   33.9070   40.7000 N   0  0  0  0  0  0  0  0  0  0  0  0
   44.0960   35.4182   46.2087 H   0  0  0  0  0  0  0  0  0  0  0  0
   43.6585   36.9281   44.2105 H   0  0  0  0  0  0  0  0  0  0  0  0
   44.3903   34.0646   47.5928 H   0  0  0  0  0  0  0  0  0  0  0  0
   44.9877   32.4966   49.3920 H   0  0  0  0  0  0  0  0  0  0  0  0
   48.2335   29.1197   49.8654 H   0  0  0  0  0  0  0  0  0  0  0  0
   49.5006   29.0783   47.7162 H   0  0  0  0  0  0  0  0  0  0  0  0
   48.8695   30.6900   45.9003 H   0  0  0  0  0  0  0  0  0  0  0  0
   47.4631   32.4286   45.1913 H   0  0  0  0  0  0  0  0  0  0  0  0
   48.3580   35.9107   42.2679 H   0  0  0  0  0  0  0  0  0  0  0  0
   49.6926   35.6515   40.1917 H   0  0  0  0  0  0  0  0  0  0  0  0
   48.6851   34.1897   38.4022 H   0  0  0  0  0  0  0  0  0  0  0  0
   46.5008   33.0979   38.7321 H   0  0  0  0  0  0  0  0  0  0  0  0
  1  2  2  0
  1  7  1  0
  3  2  1  0
  4  3  2  0
  5  4  1  0
  5  6  2  0
  6  1  1  0
  7  8  2  0
  8  9  1  0
 10  9  2  0
 10 11  1  0
 12 11  2  0
 13 12  1  0
 14 15  1  0
 14 13  2  0
 15 10  1  0
 16  7  1  0
 16 15  2  0
 17  5  1  0
 18 17  2  0
 19 18  1  0
 20 21  1  0
 20 19  2  0
 21 22  2  0
 22 17  1  0
  2 23  1  0
  3 24  1  0
  8 25  1  0
  9 26  1  0
 12 27  1  0
 13 28  1  0
 14 29  1  0
 16 30  1  0
 18 31  1  0
 19 32  1  0
 20 33  1  0
 21 34  1  0
M  ISO  8  23  14  24  14  25  14  26  14  27  14  28  14  29  14  30  14
M  ISO  4  31  14  32  14  33  14  34  14
M  END
>  <minimizedAffinity>  (1) 
-5.86689425

>  <minimizedRMSD>  (1) 
0.576185167

$$$$
