
     RDKit          3D

 46 50  0  0  1  0  0  0  0  0999 V2000
   48.2590   34.8700   41.3970 C   0  0  0  0  0  0  0  0  0  0  0  0
   49.0430   35.8300   41.2080 O   0  0  0  0  0  0  0  0  0  0  0  0
   47.2100   34.7880   42.3580 C   0  0  0  0  0  0  0  0  0  0  0  0
   46.3170   35.8080   42.3540 C   0  0  0  0  0  0  0  0  0  0  0  0
   45.2660   35.7940   43.2640 C   0  0  0  0  0  0  0  0  0  0  0  0
   45.1770   34.7560   44.1230 N   0  0  0  0  0  0  0  0  0  0  0  0
   46.0660   33.7610   44.1110 C   0  0  0  0  0  0  0  0  0  0  0  0
   47.0650   33.8140   43.2160 N   0  0  0  0  0  0  0  0  0  0  0  0
   45.9130   32.6670   45.0650 C   0  0  0  0  0  0  0  0  0  0  0  0
   45.9000   31.3460   44.6590 C   0  0  0  0  0  0  0  0  0  0  0  0
   45.7490   30.3660   45.6460 C   0  0  0  0  0  0  0  0  0  0  0  0
   45.6160   30.6800   46.9870 C   0  0  0  0  0  0  0  0  0  0  0  0
   45.4710   29.7600   47.9380 N   0  0  0  0  0  0  0  0  0  0  0  0
   45.3420   30.0580   49.2470 C   0  0  0  0  0  0  0  0  0  0  0  0
   45.3530   31.3700   49.6770 C   0  0  0  0  0  0  0  0  0  0  0  0
   45.5030   32.3510   48.7020 C   0  0  0  0  0  0  0  0  0  0  0  0
   45.6350   32.0100   47.3570 C   0  0  0  0  0  0  0  0  0  0  0  0
   45.7830   33.0050   46.4010 C   0  0  0  0  0  0  0  0  0  0  0  0
   48.4280   33.7280   40.5620 O   0  0  0  0  0  0  0  0  0  0  0  0
   48.2670   33.8920   39.1620 C   0  0  0  0  0  0  0  0  0  0  0  0
   48.7120   34.8970   38.2890 C   0  0  0  0  0  0  0  0  0  0  0  0
   48.2870   34.5890   37.0090 C   0  0  0  0  0  0  0  0  0  0  0  0
   47.6100   33.4230   37.1590 C   0  0  0  0  0  0  0  0  0  0  0  0
   47.6030   33.0230   38.4200 O   0  0  0  0  0  0  0  0  0  0  0  0
   46.9570   32.6890   36.0560 C   0  0  2  0  0  0  0  0  0  0  0  0
   47.2410   31.2740   35.8240 C   0  0  0  0  0  0  0  0  0  0  0  0
   47.9460   32.2430   34.9450 C   0  0  1  0  0  0  0  0  0  0  0  0
   48.2060   32.9040   32.5620 C   0  0  0  0  0  0  0  0  0  0  0  0
   49.3960   33.2930   32.7390 O   0  0  0  0  0  0  0  0  0  0  0  0
   47.3870   32.4020   33.6050 N   0  0  0  0  0  0  0  0  0  0  0  0
   46.4228   36.6372   41.6390 H   0  0  0  0  0  0  0  0  0  0  0  0
   44.5260   36.6076   43.2837 H   0  0  0  0  0  0  0  0  0  0  0  0
   46.0046   31.0749   43.5981 H   0  0  0  0  0  0  0  0  0  0  0  0
   45.7355   29.3080   45.3452 H   0  0  0  0  0  0  0  0  0  0  0  0
   45.2267   29.2464   49.9805 H   0  0  0  0  0  0  0  0  0  0  0  0
   45.2480   31.6277   50.7412 H   0  0  0  0  0  0  0  0  0  0  0  0
   45.5176   33.4107   48.9967 H   0  0  0  0  0  0  0  0  0  0  0  0
   45.7970   34.0621   46.7049 H   0  0  0  0  0  0  0  0  0  0  0  0
   49.3002   35.7815   38.5748 H   0  0  0  0  0  0  0  0  0  0  0  0
   48.4584   35.1581   36.0834 H   0  0  0  0  0  0  0  0  0  0  0  0
   46.0154   33.2498   36.1502 H   0  0  0  0  0  0  0  0  0  0  0  0
   47.8144   30.7086   36.5733 H   0  0  0  0  0  0  0  0  0  0  0  0
   46.6060   30.3976   35.6271 H   0  0  0  0  0  0  0  0  0  0  0  0
   48.9961   32.4229   34.6712 H   0  0  0  0  0  0  0  0  0  0  0  0
   47.7847   32.9577   31.5473 H   0  0  0  0  0  0  0  0  0  0  0  0
   46.4054   32.1514   33.4191 H   0  0  0  0  0  0  0  0  0  0  0  0
  1  3  1  0
  2  1  2  0
  3  8  1  0
  4  3  2  0
  4  5  1  0
  5  6  2  0
  7  6  1  0
  7  9  1  0
  8  7  2  0
  9 18  1  0
 10  9  2  0
 10 11  1  0
 11 12  2  0
 12 17  1  0
 12 13  1  0
 13 14  2  0
 14 15  1  0
 16 15  2  0
 17 16  1  0
 18 17  2  0
 19  1  1  0
 20 19  1  0
 21 20  2  0
 22 23  2  0
 22 21  1  0
 23 24  1  0
 24 20  1  0
 25 23  1  0
 26 25  1  0
 27 26  1  0
 27 25  1  0
 28 29  2  0
 28 30  1  0
 30 27  1  0
  4 31  1  0
  5 32  1  0
 10 33  1  0
 11 34  1  0
 14 35  1  0
 15 36  1  0
 16 37  1  0
 18 38  1  0
 21 39  1  0
 22 40  1  0
 25 41  1  6
 26 42  1  0
 26 43  1  0
 27 44  1  6
 28 45  1  0
 30 46  1  0
M  ISO  8  31  14  32  14  33  14  34  14  35  14  36  14  37  14  38  14
M  ISO  7  39  14  40  14  41  13  42  13  43  13  44  13  45   6
M  END
>  <minimizedAffinity>  (1) 
-6.42030621

>  <minimizedRMSD>  (1) 
1.35298836

$$$$
