
     RDKit          3D

 42 45  0  0  1  0  0  0  0  0999 V2000
   46.5390   34.8410   42.1200 N   0  0  0  0  0  0  0  0  0  0  0  0
   47.9190   35.2360   42.0060 C   0  0  0  0  0  0  0  0  0  0  0  0
   48.6980   34.2090   41.3000 C   0  0  0  0  0  0  0  0  0  0  0  0
   47.9540   33.2710   40.4380 C   0  0  0  0  0  0  0  0  0  0  0  0
   46.6060   33.6730   39.9960 C   0  0  0  0  0  0  0  0  0  0  0  0
   45.7880   34.5020   40.9510 C   0  0  1  0  0  0  0  0  0  0  0  0
   44.5510   33.7260   41.2120 C   0  0  0  0  0  0  0  0  0  0  0  0
   44.6070   32.3900   41.6310 C   0  0  0  0  0  0  0  0  0  0  0  0
   43.5380   31.5710   41.9270 C   0  0  0  0  0  0  0  0  0  0  0  0
   42.2830   32.1250   41.7970 C   0  0  0  0  0  0  0  0  0  0  0  0
   41.1910   31.4100   42.0610 N   0  0  0  0  0  0  0  0  0  0  0  0
   39.9370   31.9000   41.9510 C   0  0  0  0  0  0  0  0  0  0  0  0
   39.7320   33.2210   41.5430 C   0  0  0  0  0  0  0  0  0  0  0  0
   40.8780   33.9550   41.2710 C   0  0  0  0  0  0  0  0  0  0  0  0
   42.1450   33.4270   41.3920 C   0  0  0  0  0  0  0  0  0  0  0  0
   43.2570   34.1810   41.1150 C   0  0  0  0  0  0  0  0  0  0  0  0
   45.0920   35.8740   43.7880 C   0  0  0  0  0  0  0  0  0  0  0  0
   45.9400   34.8070   43.3980 C   0  0  0  0  0  0  0  0  0  0  0  0
   46.1220   33.7750   44.3190 C   0  0  0  0  0  0  0  0  0  0  0  0
   45.4970   33.8410   45.5090 N   0  0  0  0  0  0  0  0  0  0  0  0
   44.6950   34.8760   45.8460 C   0  0  0  0  0  0  0  0  0  0  0  0
   44.4890   35.9010   44.9810 N   0  0  0  0  0  0  0  0  0  0  0  0
   44.8810   36.9530   42.8770 N   0  0  0  0  0  0  0  0  0  0  0  0
   47.9787   36.1817   41.4474 H   0  0  0  0  0  0  0  0  0  0  0  0
   48.3348   35.3620   43.0165 H   0  0  0  0  0  0  0  0  0  0  0  0
   49.4327   34.7282   40.6670 H   0  0  0  0  0  0  0  0  0  0  0  0
   49.1272   33.5825   42.0958 H   0  0  0  0  0  0  0  0  0  0  0  0
   48.5597   33.1024   39.5354 H   0  0  0  0  0  0  0  0  0  0  0  0
   47.7888   32.3842   41.0675 H   0  0  0  0  0  0  0  0  0  0  0  0
   46.7210   34.2533   39.0686 H   0  0  0  0  0  0  0  0  0  0  0  0
   46.0492   32.7303   39.8897 H   0  0  0  0  0  0  0  0  0  0  0  0
   45.5138   35.4808   40.5306 H   0  0  0  0  0  0  0  0  0  0  0  0
   45.6090   31.9482   41.7347 H   0  0  0  0  0  0  0  0  0  0  0  0
   43.6797   30.5292   42.2502 H   0  0  0  0  0  0  0  0  0  0  0  0
   39.0748   31.2576   42.1832 H   0  0  0  0  0  0  0  0  0  0  0  0
   38.7249   33.6521   41.4437 H   0  0  0  0  0  0  0  0  0  0  0  0
   40.7706   35.0003   40.9457 H   0  0  0  0  0  0  0  0  0  0  0  0
   43.1029   35.2215   40.7930 H   0  0  0  0  0  0  0  0  0  0  0  0
   46.7679   32.9185   44.0757 H   0  0  0  0  0  0  0  0  0  0  0  0
   44.2049   34.8873   46.8307 H   0  0  0  0  0  0  0  0  0  0  0  0
   45.3392   36.9453   41.9546 H   0  0  0  0  0  0  0  0  0  0  0  0
   44.2706   37.7391   43.1423 H   0  0  0  0  0  0  0  0  0  0  0  0
  1 18  1  0
  2  1  1  0
  3  2  1  0
  4  3  1  0
  5  4  1  0
  5  6  1  0
  6  7  1  0
  6  1  1  0
  7  8  2  0
  8  9  1  0
 10  9  2  0
 10 11  1  0
 12 11  2  0
 13 12  1  0
 14 15  1  0
 14 13  2  0
 15 10  1  0
 16  7  1  0
 16 15  2  0
 17 22  2  0
 18 17  1  0
 18 19  2  0
 19 20  1  0
 20 21  2  0
 22 21  1  0
 23 17  1  0
  2 24  1  0
  2 25  1  0
  3 26  1  0
  3 27  1  0
  4 28  1  0
  4 29  1  0
  5 30  1  0
  5 31  1  0
  6 32  1  6
  8 33  1  0
  9 34  1  0
 12 35  1  0
 13 36  1  0
 14 37  1  0
 16 38  1  0
 19 39  1  0
 21 40  1  0
 23 41  1  0
 23 42  1  0
M  ISO  8  24  13  25  13  26  13  27  13  28  13  29  13  30  13  31  13
M  ISO  8  32  13  33  14  34  14  35  14  36  14  37  14  38  14  39  14
M  ISO  1  40  14
M  END
>  <minimizedAffinity>  (1) 
-6.26027775

>  <minimizedRMSD>  (1) 
1.16292739

$$$$
