
     RDKit          3D

 45 50  0  0  0  0  0  0  0  0999 V2000
   45.9360   34.6230   43.6990 C   0  0  0  0  0  0  0  0  0  0  0  0
   46.6580   33.5860   44.3460 C   0  0  0  0  0  0  0  0  0  0  0  0
   46.3290   33.3120   45.6590 C   0  0  0  0  0  0  0  0  0  0  0  0
   45.3560   34.0270   46.2560 N   0  0  0  0  0  0  0  0  0  0  0  0
   44.6800   35.0140   45.6180 C   0  0  0  0  0  0  0  0  0  0  0  0
   44.9770   35.2990   44.3530 N   0  0  0  0  0  0  0  0  0  0  0  0
   47.2620   32.5810   47.7870 C   0  0  0  0  0  0  0  0  0  0  0  0
   46.9820   32.2740   46.4580 C   0  0  0  0  0  0  0  0  0  0  0  0
   47.3260   31.0460   45.9930 C   0  0  0  0  0  0  0  0  0  0  0  0
   47.9410   30.0820   46.7650 C   0  0  0  0  0  0  0  0  0  0  0  0
   48.3600   28.8260   46.5140 N   0  0  0  0  0  0  0  0  0  0  0  0
   48.9110   28.3350   47.6900 C   0  0  0  0  0  0  0  0  0  0  0  0
   48.8110   29.3070   48.6310 N   0  0  0  0  0  0  0  0  0  0  0  0
   48.2230   30.3740   48.0790 C   0  0  0  0  0  0  0  0  0  0  0  0
   47.8870   31.6100   48.5830 C   0  0  0  0  0  0  0  0  0  0  0  0
   46.2730   34.8980   42.3710 O   0  0  0  0  0  0  0  0  0  0  0  0
   45.4060   34.5310   41.3480 C   0  0  0  0  0  0  0  0  0  0  0  0
   46.1620   33.6350   40.6840 C   0  0  0  0  0  0  0  0  0  0  0  0
   44.9830   33.1130   39.2710 S   0  0  0  0  0  0  0  0  0  0  0  0
   43.6820   34.2970   39.9550 C   0  0  0  0  0  0  0  0  0  0  0  0
   44.2190   34.7090   40.8210 N   0  0  0  0  0  0  0  0  0  0  0  0
   42.4000   34.3690   39.2340 C   0  0  0  0  0  0  0  0  0  0  0  0
   41.9850   35.4730   38.5410 C   0  0  0  0  0  0  0  0  0  0  0  0
   40.7410   35.3970   37.9030 C   0  0  0  0  0  0  0  0  0  0  0  0
   39.9700   34.2340   37.9830 C   0  0  0  0  0  0  0  0  0  0  0  0
   38.7810   34.2100   37.3530 N   0  0  0  0  0  0  0  0  0  0  0  0
   37.9790   33.1240   37.3840 C   0  0  0  0  0  0  0  0  0  0  0  0
   38.4250   32.0050   38.1000 C   0  0  0  0  0  0  0  0  0  0  0  0
   39.6490   32.0210   38.7530 C   0  0  0  0  0  0  0  0  0  0  0  0
   40.4390   33.1510   38.6970 C   0  0  0  0  0  0  0  0  0  0  0  0
   41.6790   33.2020   39.3430 C   0  0  0  0  0  0  0  0  0  0  0  0
   47.4464   33.0243   43.8235 H   0  0  0  0  0  0  0  0  0  0  0  0
   43.8921   35.5747   46.1423 H   0  0  0  0  0  0  0  0  0  0  0  0
   46.9986   33.5643   48.2038 H   0  0  0  0  0  0  0  0  0  0  0  0
   47.1021   30.8063   44.9430 H   0  0  0  0  0  0  0  0  0  0  0  0
   48.2854   28.3242   45.6176 H   0  0  0  0  0  0  0  0  0  0  0  0
   49.3500   27.3366   47.8331 H   0  0  0  0  0  0  0  0  0  0  0  0
   48.1139   31.8415   49.6342 H   0  0  0  0  0  0  0  0  0  0  0  0
   47.1858   33.2941   40.8978 H   0  0  0  0  0  0  0  0  0  0  0  0
   42.6024   36.3818   38.4873 H   0  0  0  0  0  0  0  0  0  0  0  0
   40.3670   36.2606   37.3335 H   0  0  0  0  0  0  0  0  0  0  0  0
   37.0091   33.1180   36.8651 H   0  0  0  0  0  0  0  0  0  0  0  0
   37.7970   31.1030   38.1448 H   0  0  0  0  0  0  0  0  0  0  0  0
   39.9882   31.1369   39.3128 H   0  0  0  0  0  0  0  0  0  0  0  0
   42.0621   32.3440   39.9149 H   0  0  0  0  0  0  0  0  0  0  0  0
  1  2  2  0
  1  6  1  0
  2  3  1  0
  3  4  2  0
  3  8  1  0
  5  4  1  0
  6  5  2  0
  7 15  2  0
  8  7  1  0
  9  8  2  0
  9 10  1  0
 10 14  2  0
 11 10  1  0
 11 12  1  0
 12 13  2  0
 14 15  1  0
 14 13  1  0
 16  1  1  0
 17 16  1  0
 18 17  2  0
 19 20  1  0
 19 18  1  0
 20 21  2  0
 21 17  1  0
 22 31  1  0
 22 20  1  0
 23 22  2  0
 24 25  2  0
 24 23  1  0
 25 30  1  0
 26 27  2  0
 26 25  1  0
 27 28  1  0
 28 29  2  0
 30 29  1  0
 30 31  2  0
  2 32  1  0
  5 33  1  0
  7 34  1  0
  9 35  1  0
 11 36  1  0
 12 37  1  0
 15 38  1  0
 18 39  1  0
 23 40  1  0
 24 41  1  0
 27 42  1  0
 28 43  1  0
 29 44  1  0
 31 45  1  0
M  END
>  <minimizedAffinity>  (1) 
-7.60180569

>  <minimizedRMSD>  (1) 
1.30477273

$$$$
