
     RDKit          3D

 42 45  0  0  0  0  0  0  0  0999 V2000
   44.2630   33.6740   40.6470 C   0  0  0  0  0  0  0  0  0  0  0  0
   44.5190   34.7980   41.4820 C   0  0  0  0  0  0  0  0  0  0  0  0
   43.5120   35.7420   41.6770 C   0  0  0  0  0  0  0  0  0  0  0  0
   42.3180   35.5430   41.0550 N   0  0  0  0  0  0  0  0  0  0  0  0
   42.1130   34.4780   40.2790 C   0  0  0  0  0  0  0  0  0  0  0  0
   43.0670   33.5520   40.0730 N   0  0  0  0  0  0  0  0  0  0  0  0
   39.8800   33.7170   41.7440 F   0  0  0  0  0  0  0  0  0  0  0  0
   39.7080   33.9240   40.4050 C   0  0  0  0  0  0  0  0  0  0  0  0
   40.8080   34.3090   39.6320 C   0  0  0  0  0  0  0  0  0  0  0  0
   40.6920   34.5290   38.2860 C   0  0  0  0  0  0  0  0  0  0  0  0
   39.4360   34.3570   37.7070 C   0  0  0  0  0  0  0  0  0  0  0  0
   38.3210   33.9750   38.4510 C   0  0  0  0  0  0  0  0  0  0  0  0
   38.4630   33.7570   39.8140 C   0  0  0  0  0  0  0  0  0  0  0  0
   45.8370   34.9220   42.1080 C   0  0  0  0  0  0  0  0  0  0  0  0
   46.9920   34.7870   41.4850 C   0  0  0  0  0  0  0  0  0  0  0  0
   48.2830   34.9350   42.2430 C   0  0  0  0  0  0  0  0  0  0  0  0
   49.1860   33.8420   41.7370 C   0  0  0  0  0  0  0  0  0  0  0  0
   50.3820   33.5140   42.3470 C   0  0  0  0  0  0  0  0  0  0  0  0
   51.1510   32.4880   41.8070 C   0  0  0  0  0  0  0  0  0  0  0  0
   50.7430   31.7980   40.6850 C   0  0  0  0  0  0  0  0  0  0  0  0
   51.5430   30.8180   40.2230 N   0  0  0  0  0  0  0  0  0  0  0  0
   51.1690   30.1210   39.1210 C   0  0  0  0  0  0  0  0  0  0  0  0
   49.9780   30.4360   38.4990 C   0  0  0  0  0  0  0  0  0  0  0  0
   49.1180   31.4290   38.9260 C   0  0  0  0  0  0  0  0  0  0  0  0
   49.5520   32.1120   40.0630 C   0  0  0  0  0  0  0  0  0  0  0  0
   48.7950   33.1300   40.6020 C   0  0  0  0  0  0  0  0  0  0  0  0
   45.0423   32.9163   40.4779 H   0  0  0  0  0  0  0  0  0  0  0  0
   43.6777   36.6224   42.3153 H   0  0  0  0  0  0  0  0  0  0  0  0
   41.5603   34.8312   37.6820 H   0  0  0  0  0  0  0  0  0  0  0  0
   39.3208   34.5285   36.6266 H   0  0  0  0  0  0  0  0  0  0  0  0
   37.3425   33.8482   37.9647 H   0  0  0  0  0  0  0  0  0  0  0  0
   37.5968   33.4546   40.4208 H   0  0  0  0  0  0  0  0  0  0  0  0
   45.8664   35.1458   43.1846 H   0  0  0  0  0  0  0  0  0  0  0  0
   47.0111   34.5655   40.4077 H   0  0  0  0  0  0  0  0  0  0  0  0
   48.7299   35.9212   42.0487 H   0  0  0  0  0  0  0  0  0  0  0  0
   48.1249   34.8580   43.3289 H   0  0  0  0  0  0  0  0  0  0  0  0
   50.7199   34.0545   43.2435 H   0  0  0  0  0  0  0  0  0  0  0  0
   52.1050   32.2215   42.2854 H   0  0  0  0  0  0  0  0  0  0  0  0
   51.8067   29.3153   38.7283 H   0  0  0  0  0  0  0  0  0  0  0  0
   49.6954   29.8593   37.6059 H   0  0  0  0  0  0  0  0  0  0  0  0
   48.1726   31.6614   38.4140 H   0  0  0  0  0  0  0  0  0  0  0  0
   47.8430   33.3922   40.1174 H   0  0  0  0  0  0  0  0  0  0  0  0
  1  2  2  0
  2  3  1  0
  2 14  1  0
  4  3  2  0
  5  4  1  0
  6  5  2  0
  6  1  1  0
  8  7  1  0
  9  5  1  0
  9  8  2  0
 10  9  1  0
 11 10  2  0
 11 12  1  0
 12 13  2  0
 13  8  1  0
 15 14  2  0
 15 16  1  0
 17 16  1  0
 17 18  2  0
 19 18  1  0
 20 19  2  0
 21 20  1  0
 22 21  2  0
 23 24  2  0
 23 22  1  0
 24 25  1  0
 25 26  2  0
 25 20  1  0
 26 17  1  0
  1 27  1  0
  3 28  1  0
 10 29  1  0
 11 30  1  0
 12 31  1  0
 13 32  1  0
 14 33  1  0
 15 34  1  0
 16 35  1  0
 16 36  1  0
 18 37  1  0
 19 38  1  0
 22 39  1  0
 23 40  1  0
 24 41  1  0
 26 42  1  0
M  ISO  8  27  14  28  14  29  14  30  14  31  14  32  14  35   8  36   8
M  ISO  6  37  14  38  14  39  14  40  14  41  14  42  14
M  END
>  <minimizedAffinity>  (1) 
-6.73321772

>  <minimizedRMSD>  (1) 
1.39309239

$$$$
