
     RDKit          3D

 30 32  0  0  0  0  0  0  0  0999 V2000
   44.8960   33.1650   40.9650 Br  0  0  0  0  0  0  0  0  0  0  0  0
   46.5660   34.1090   40.8960 C   0  0  0  0  0  0  0  0  0  0  0  0
   47.0340   34.8670   41.9510 C   0  0  0  0  0  0  0  0  0  0  0  0
   48.2530   35.5090   41.8000 C   0  0  0  0  0  0  0  0  0  0  0  0
   48.9990   35.4140   40.6430 C   0  0  0  0  0  0  0  0  0  0  0  0
   48.5350   34.6520   39.5780 C   0  0  0  0  0  0  0  0  0  0  0  0
   47.3140   34.0140   39.7400 C   0  0  0  0  0  0  0  0  0  0  0  0
   46.9050   33.2550   38.6070 N   0  0  0  0  0  0  0  0  0  0  0  0
   46.1760   32.1130   38.7480 C   0  0  0  0  0  0  0  0  0  0  0  0
   45.7750   31.3690   37.6400 C   0  0  0  0  0  0  0  0  0  0  0  0
   46.1360   31.8170   36.3760 C   0  0  0  0  0  0  0  0  0  0  0  0
   45.7890   31.1670   35.3690 O   0  0  0  0  0  0  0  0  0  0  0  0
   46.8550   32.9520   36.3210 N   0  0  0  0  0  0  0  0  0  0  0  0
   47.2540   33.6860   37.3740 C   0  0  0  0  0  0  0  0  0  0  0  0
   47.9260   34.7330   37.1620 O   0  0  0  0  0  0  0  0  0  0  0  0
   44.4740   35.9800   44.5090 C   0  0  0  0  0  0  0  0  0  0  0  0
   45.2640   35.9430   43.3460 C   0  0  0  0  0  0  0  0  0  0  0  0
   46.2050   34.9310   43.1440 C   0  0  0  0  0  0  0  0  0  0  0  0
   46.2900   34.0140   44.1390 N   0  0  0  0  0  0  0  0  0  0  0  0
   45.5320   34.0540   45.2530 C   0  0  0  0  0  0  0  0  0  0  0  0
   44.6300   35.0360   45.4290 N   0  0  0  0  0  0  0  0  0  0  0  0
   48.6396   36.1158   42.6321 H   0  0  0  0  0  0  0  0  0  0  0  0
   49.9610   35.9416   40.5639 H   0  0  0  0  0  0  0  0  0  0  0  0
   49.1115   34.5586   38.6458 H   0  0  0  0  0  0  0  0  0  0  0  0
   45.8984   31.7714   39.7561 H   0  0  0  0  0  0  0  0  0  0  0  0
   45.1861   30.4482   37.7637 H   0  0  0  0  0  0  0  0  0  0  0  0
   47.1248   33.2900   35.3862 H   0  0  0  0  0  0  0  0  0  0  0  0
   43.7353   36.7820   44.6545 H   0  0  0  0  0  0  0  0  0  0  0  0
   45.1385   36.7247   42.5823 H   0  0  0  0  0  0  0  0  0  0  0  0
   45.6520   33.2781   46.0234 H   0  0  0  0  0  0  0  0  0  0  0  0
  2  1  1  0
  2  3  2  0
  3 18  1  0
  4  3  1  0
  5  4  2  0
  6  7  2  0
  6  5  1  0
  7  2  1  0
  8  9  1  0
  8  7  1  0
 10  9  2  0
 11 10  1  0
 12 11  2  0
 13 11  1  0
 13 14  1  0
 14  8  1  0
 15 14  2  0
 16 21  2  0
 17 16  1  0
 18 17  2  0
 18 19  1  0
 19 20  2  0
 20 21  1  0
  4 22  1  0
  5 23  1  0
  6 24  1  0
  9 25  1  0
 10 26  1  0
 13 27  1  0
 16 28  1  0
 17 29  1  0
 20 30  1  0
M  ISO  8  22  14  23  14  24  14  25  14  26  14  27   9  28  14  29  14
M  ISO  1  30  14
M  END
>  <minimizedAffinity>  (1) 
-6.01924801

>  <minimizedRMSD>  (1) 
0.604864001

$$$$
