
     RDKit          3D

 47 51  0  0  0  0  0  0  0  0999 V2000
   45.4930   27.2980   48.5260 C   0  0  0  0  0  0  0  0  0  0  0  0
   44.8990   28.2260   47.6870 C   0  0  0  0  0  0  0  0  0  0  0  0
   44.1660   27.7070   46.6240 C   0  0  0  0  0  0  0  0  0  0  0  0
   44.0300   26.3540   46.4060 C   0  0  0  0  0  0  0  0  0  0  0  0
   43.4080   25.5870   45.4980 N   0  0  0  0  0  0  0  0  0  0  0  0
   43.5990   24.2850   45.7510 C   0  0  0  0  0  0  0  0  0  0  0  0
   44.3850   24.1570   46.8790 C   0  0  0  0  0  0  0  0  0  0  0  0
   44.6300   25.4500   47.2540 C   0  0  0  0  0  0  0  0  0  0  0  0
   45.3620   25.9540   48.3150 C   0  0  0  0  0  0  0  0  0  0  0  0
   46.0030   25.0630   49.2250 N   0  0  0  0  0  0  0  0  0  0  0  0
   45.4570   24.4770   50.3070 C   0  0  0  0  0  0  0  0  0  0  0  0
   46.2510   23.6320   51.0760 C   0  0  0  0  0  0  0  0  0  0  0  0
   47.5680   23.4010   50.7370 C   0  0  0  0  0  0  0  0  0  0  0  0
   48.2890   22.6370   51.4290 O   0  0  0  0  0  0  0  0  0  0  0  0
   48.0750   24.0170   49.6320 N   0  0  0  0  0  0  0  0  0  0  0  0
   47.2900   24.8310   48.9000 C   0  0  0  0  0  0  0  0  0  0  0  0
   47.8860   25.3430   47.8960 O   0  0  0  0  0  0  0  0  0  0  0  0
   44.9150   29.6790   47.7350 C   0  0  0  0  0  0  0  0  0  0  0  0
   46.2420   30.3380   47.8100 C   0  0  0  0  0  0  0  0  0  0  0  0
   46.2440   32.8290   45.2500 C   0  0  0  0  0  0  0  0  0  0  0  0
   47.2210   31.9400   44.7870 C   0  0  0  0  0  0  0  0  0  0  0  0
   47.3380   30.9180   45.6720 C   0  0  0  0  0  0  0  0  0  0  0  0
   46.4640   31.1680   46.6450 N   0  0  0  0  0  0  0  0  0  0  0  0
   45.7960   32.3140   46.4080 N   0  0  0  0  0  0  0  0  0  0  0  0
   44.5760   35.9960   44.5290 C   0  0  0  0  0  0  0  0  0  0  0  0
   45.0860   36.3410   43.2720 C   0  0  0  0  0  0  0  0  0  0  0  0
   46.0010   35.4760   42.6840 C   0  0  0  0  0  0  0  0  0  0  0  0
   46.3280   34.3680   43.3740 N   0  0  0  0  0  0  0  0  0  0  0  0
   45.8360   34.0480   44.5730 C   0  0  0  0  0  0  0  0  0  0  0  0
   44.9590   34.8720   45.1430 N   0  0  0  0  0  0  0  0  0  0  0  0
   46.0848   27.6513   49.3833 H   0  0  0  0  0  0  0  0  0  0  0  0
   43.6756   28.4055   45.9300 H   0  0  0  0  0  0  0  0  0  0  0  0
   42.8554   25.9515   44.7089 H   0  0  0  0  0  0  0  0  0  0  0  0
   43.1949   23.4526   45.1561 H   0  0  0  0  0  0  0  0  0  0  0  0
   44.7327   23.2323   47.3628 H   0  0  0  0  0  0  0  0  0  0  0  0
   44.4068   24.6620   50.5770 H   0  0  0  0  0  0  0  0  0  0  0  0
   45.8239   23.1429   51.9639 H   0  0  0  0  0  0  0  0  0  0  0  0
   49.0553   23.8606   49.3575 H   0  0  0  0  0  0  0  0  0  0  0  0
   44.4135   30.0461   46.8274 H   0  0  0  0  0  0  0  0  0  0  0  0
   44.4147   29.9381   48.6798 H   0  0  0  0  0  0  0  0  0  0  0  0
   46.2845   30.9640   48.7135 H   0  0  0  0  0  0  0  0  0  0  0  0
   47.0217   29.5630   47.8477 H   0  0  0  0  0  0  0  0  0  0  0  0
   47.7992   32.0515   43.8579 H   0  0  0  0  0  0  0  0  0  0  0  0
   48.0180   30.0564   45.6001 H   0  0  0  0  0  0  0  0  0  0  0  0
   43.8488   36.6600   45.0192 H   0  0  0  0  0  0  0  0  0  0  0  0
   44.7729   37.2663   42.7663 H   0  0  0  0  0  0  0  0  0  0  0  0
   46.4389   35.6878   41.6974 H   0  0  0  0  0  0  0  0  0  0  0  0
  2 18  1  0
  2  1  2  0
  3  2  1  0
  4  3  2  0
  4  8  1  0
  5  6  1  0
  5  4  1  0
  6  7  2  0
  7  8  1  0
  8  9  2  0
  9  1  1  0
  9 10  1  0
 10 11  1  0
 11 12  2  0
 13 12  1  0
 13 14  2  0
 15 13  1  0
 16 10  1  0
 16 15  1  0
 17 16  2  0
 18 19  1  0
 20 24  2  0
 21 20  1  0
 21 22  2  0
 22 23  1  0
 23 19  1  0
 24 23  1  0
 25 30  2  0
 26 25  1  0
 27 26  2  0
 27 28  1  0
 28 29  2  0
 29 30  1  0
 29 20  1  0
  1 31  1  0
  3 32  1  0
  5 33  1  0
  6 34  1  0
  7 35  1  0
 11 36  1  0
 12 37  1  0
 15 38  1  0
 18 39  1  0
 18 40  1  0
 19 41  1  0
 19 42  1  0
 21 43  1  0
 22 44  1  0
 25 45  1  0
 26 46  1  0
 27 47  1  0
M  ISO  8  31  14  32  14  33   9  34  14  35  14  36  14  37  14  38   9
M  ISO  8  39   8  40   8  41   8  42   8  43  14  44  14  45  14  46  14
M  ISO  1  47  14
M  END
>  <minimizedAffinity>  (1) 
-5.77490044

>  <minimizedRMSD>  (1) 
2.29809213

$$$$
