
     RDKit          3D

 37 39  0  0  0  0  0  0  0  0999 V2000
   41.5170   35.4690   38.7700 C   0  0  0  0  0  0  0  0  0  0  0  0
   44.1780   34.4930   41.2660 C   0  0  0  0  0  0  0  0  0  0  0  0
   43.0790   35.1540   40.6850 C   0  0  0  0  0  0  0  0  0  0  0  0
   42.6770   34.8030   39.4070 C   0  0  0  0  0  0  0  0  0  0  0  0
   43.3850   33.8160   38.7730 N   0  0  0  0  0  0  0  0  0  0  0  0
   44.4480   33.2030   39.3800 C   0  0  0  0  0  0  0  0  0  0  0  0
   44.8270   33.5420   40.6000 N   0  0  0  0  0  0  0  0  0  0  0  0
   44.6060   34.8900   42.6350 C   0  0  0  0  0  0  0  0  0  0  0  0
   46.1190   35.3010   42.6740 C   0  0  0  0  0  0  0  0  0  0  0  0
   45.0080   36.2030   42.9930 C   0  0  0  0  0  0  0  0  0  0  0  0
   40.3160   35.4560   39.6670 C   0  0  0  0  0  0  0  0  0  0  0  0
   39.6860   33.5690   41.1550 C   0  0  0  0  0  0  0  0  0  0  0  0
   39.9480   34.2440   42.1980 O   0  0  0  0  0  0  0  0  0  0  0  0
   39.7520   34.1310   39.8610 N   0  0  0  0  0  0  0  0  0  0  0  0
   37.6040   30.4790   41.1680 N   0  0  0  0  0  0  0  0  0  0  0  0
   38.0390   31.7380   41.0020 C   0  0  0  0  0  0  0  0  0  0  0  0
   39.3110   32.1780   41.3850 C   0  0  0  0  0  0  0  0  0  0  0  0
   40.0280   31.1720   41.9380 C   0  0  0  0  0  0  0  0  0  0  0  0
   41.1850   31.4170   42.3290 O   0  0  0  0  0  0  0  0  0  0  0  0
   39.6300   29.9170   42.1190 N   0  0  0  0  0  0  0  0  0  0  0  0
   38.3970   29.5510   41.7310 C   0  0  0  0  0  0  0  0  0  0  0  0
   37.9520   28.4020   41.8640 O   0  0  0  0  0  0  0  0  0  0  0  0
   41.7833   36.5121   38.5441 H   0  0  0  0  0  0  0  0  0  0  0  0
   41.2666   34.9210   37.8497 H   0  0  0  0  0  0  0  0  0  0  0  0
   42.5458   35.9401   41.2397 H   0  0  0  0  0  0  0  0  0  0  0  0
   44.9961   32.4148   38.8431 H   0  0  0  0  0  0  0  0  0  0  0  0
   43.8909   34.2046   43.1135 H   0  0  0  0  0  0  0  0  0  0  0  0
   46.7828   34.9253   43.4666 H   0  0  0  0  0  0  0  0  0  0  0  0
   46.9712   35.2921   41.9785 H   0  0  0  0  0  0  0  0  0  0  0  0
   44.7831   37.0346   42.3089 H   0  0  0  0  0  0  0  0  0  0  0  0
   44.7914   36.8323   43.8688 H   0  0  0  0  0  0  0  0  0  0  0  0
   40.6101   35.8564   40.6484 H   0  0  0  0  0  0  0  0  0  0  0  0
   39.5426   36.0690   39.1812 H   0  0  0  0  0  0  0  0  0  0  0  0
   39.3992   33.5999   39.0521 H   0  0  0  0  0  0  0  0  0  0  0  0
   36.6549   30.2219   40.8615 H   0  0  0  0  0  0  0  0  0  0  0  0
   37.3565   32.4655   40.5384 H   0  0  0  0  0  0  0  0  0  0  0  0
   40.2623   29.2299   42.5536 H   0  0  0  0  0  0  0  0  0  0  0  0
  1  4  1  0
  1 11  1  0
  2  8  1  0
  3  2  2  0
  4  3  1  0
  5  6  1  0
  5  4  2  0
  6  7  2  0
  7  2  1  0
  8  9  1  0
  8 10  1  0
  9 10  1  0
 11 14  1  0
 12 17  1  0
 12 13  2  0
 14 12  1  0
 15 21  1  0
 16 15  1  0
 16 17  2  0
 17 18  1  0
 18 20  1  0
 18 19  2  0
 21 22  2  0
 21 20  1  0
  1 23  1  0
  1 24  1  0
  3 25  1  0
  6 26  1  0
  8 27  1  0
  9 28  1  0
  9 29  1  0
 10 30  1  0
 10 31  1  0
 11 32  1  0
 11 33  1  0
 14 34  1  0
 15 35  1  0
 16 36  1  0
 20 37  1  0
M  ISO  8  23   8  24   8  25  14  26  14  27  13  28  13  29  13  30  13
M  ISO  6  31  13  32   8  33   8  35   9  36  14  37   9
M  END
>  <minimizedAffinity>  (1) 
-5.2631135

>  <minimizedRMSD>  (1) 
1.53722143

$$$$
