
     RDKit          3D

 36 38  0  0  1  0  0  0  0  0999 V2000
   47.3620   32.8810   42.4540 C   0  0  2  0  0  0  0  0  0  0  0  0
   46.6970   33.7510   41.4680 C   0  0  1  0  0  0  0  0  0  0  0  0
   46.4770   35.1680   41.9570 C   0  0  0  0  0  0  0  0  0  0  0  0
   45.6740   35.1840   43.2460 C   0  0  0  0  0  0  0  0  0  0  0  0
   46.0620   34.1020   44.2170 C   0  0  0  0  0  0  0  0  0  0  0  0
   47.3860   33.4770   43.8540 C   0  0  0  0  0  0  0  0  0  0  0  0
   47.1190   33.7040   40.1170 N   0  0  0  0  0  0  0  0  0  0  0  0
   46.7290   32.8730   39.1090 C   0  0  0  0  0  0  0  0  0  0  0  0
   47.1800   32.8700   37.8290 C   0  0  0  0  0  0  0  0  0  0  0  0
   48.1370   33.8120   37.5190 C   0  0  0  0  0  0  0  0  0  0  0  0
   48.5770   33.8320   36.3300 O   0  0  0  0  0  0  0  0  0  0  0  0
   48.5530   34.6540   38.4820 N   0  0  0  0  0  0  0  0  0  0  0  0
   48.0680   34.6120   39.7430 C   0  0  0  0  0  0  0  0  0  0  0  0
   48.6040   35.4910   40.4660 O   0  0  0  0  0  0  0  0  0  0  0  0
   48.7500   32.5320   42.0990 C   0  0  0  0  0  0  0  0  0  0  0  0
   49.7470   33.3860   42.5960 C   0  0  0  0  0  0  0  0  0  0  0  0
   51.0830   33.1300   42.2980 C   0  0  0  0  0  0  0  0  0  0  0  0
   51.3350   32.0220   41.5110 N   0  0  0  0  0  0  0  0  0  0  0  0
   50.3630   31.2290   41.0540 C   0  0  0  0  0  0  0  0  0  0  0  0
   49.0660   31.4800   41.3450 N   0  0  0  0  0  0  0  0  0  0  0  0
   46.7444   31.9708   42.4417 H   0  0  0  0  0  0  0  0  0  0  0  0
   45.7210   33.2474   41.4068 H   0  0  0  0  0  0  0  0  0  0  0  0
   47.4535   35.6417   42.1363 H   0  0  0  0  0  0  0  0  0  0  0  0
   45.9148   35.7190   41.1887 H   0  0  0  0  0  0  0  0  0  0  0  0
   45.8224   36.1582   43.7349 H   0  0  0  0  0  0  0  0  0  0  0  0
   44.6238   35.0062   42.9713 H   0  0  0  0  0  0  0  0  0  0  0  0
   46.1372   34.5370   45.2245 H   0  0  0  0  0  0  0  0  0  0  0  0
   45.2913   33.3178   44.1834 H   0  0  0  0  0  0  0  0  0  0  0  0
   47.6141   32.6799   44.5769 H   0  0  0  0  0  0  0  0  0  0  0  0
   48.1547   34.2634   43.8788 H   0  0  0  0  0  0  0  0  0  0  0  0
   45.9650   32.1227   39.3608 H   0  0  0  0  0  0  0  0  0  0  0  0
   46.8032   32.1564   37.0815 H   0  0  0  0  0  0  0  0  0  0  0  0
   49.2684   35.3576   38.2496 H   0  0  0  0  0  0  0  0  0  0  0  0
   49.4747   34.2521   43.2170 H   0  0  0  0  0  0  0  0  0  0  0  0
   51.8937   33.7745   42.6687 H   0  0  0  0  0  0  0  0  0  0  0  0
   50.6205   30.3591   40.4319 H   0  0  0  0  0  0  0  0  0  0  0  0
  1  6  1  0
  2  3  1  0
  2  1  1  0
  3  4  1  0
  4  5  1  0
  6  5  1  0
  7  2  1  0
  8  7  1  0
  9  8  2  0
 10  9  1  0
 10 12  1  0
 11 10  2  0
 12 13  1  0
 13  7  1  0
 13 14  2  0
 15  1  1  0
 15 16  2  0
 17 16  1  0
 18 17  2  0
 19 20  2  0
 19 18  1  0
 20 15  1  0
  1 21  1  1
  2 22  1  6
  3 23  1  0
  3 24  1  0
  4 25  1  0
  4 26  1  0
  5 27  1  0
  5 28  1  0
  6 29  1  0
  6 30  1  0
  8 31  1  0
  9 32  1  0
 12 33  1  0
 16 34  1  0
 17 35  1  0
 19 36  1  0
M  ISO  8  21  13  22  13  23  13  24  13  25  13  26  13  27  13  28  13
M  ISO  8  29  13  30  13  31  14  32  14  33   9  34  14  35  14  36  14
M  END
>  <minimizedAffinity>  (1) 
-5.16217232

>  <minimizedRMSD>  (1) 
1.72878766

$$$$
