
     RDKit          3D

 47 50  0  0  0  0  0  0  0  0999 V2000
   44.3440   34.2500   40.3340 C   0  0  0  0  0  0  0  0  0  0  0  0
   43.0350   33.8680   39.8700 C   0  0  0  0  0  0  0  0  0  0  0  0
   42.6330   33.4590   38.6150 C   0  0  0  0  0  0  0  0  0  0  0  0
   41.3570   33.1070   38.2300 C   0  0  0  0  0  0  0  0  0  0  0  0
   40.4180   33.1850   39.2270 C   0  0  0  0  0  0  0  0  0  0  0  0
   40.8050   33.5920   40.4850 C   0  0  0  0  0  0  0  0  0  0  0  0
   42.0570   33.9230   40.8110 N   0  0  0  0  0  0  0  0  0  0  0  0
   39.7020   33.6370   41.4810 C   0  0  0  0  0  0  0  0  0  0  0  0
   38.4830   33.8630   40.8220 F   0  0  0  0  0  0  0  0  0  0  0  0
   39.9310   34.5050   42.5110 F   0  0  0  0  0  0  0  0  0  0  0  0
   39.5560   32.3800   42.0580 F   0  0  0  0  0  0  0  0  0  0  0  0
   38.7210   32.7530   38.8160 S   0  0  0  0  0  0  0  0  0  0  0  0
   37.7900   29.0150   40.0850 N   0  0  0  0  0  0  0  0  0  0  0  0
   37.9720   30.3450   40.1430 C   0  0  0  0  0  0  0  0  0  0  0  0
   38.4020   31.0230   39.0220 C   0  0  0  0  0  0  0  0  0  0  0  0
   38.6290   30.2780   37.8640 C   0  0  0  0  0  0  0  0  0  0  0  0
   39.0270   30.7580   36.7490 O   0  0  0  0  0  0  0  0  0  0  0  0
   38.4350   28.9430   37.8430 N   0  0  0  0  0  0  0  0  0  0  0  0
   38.0170   28.3250   38.9590 C   0  0  0  0  0  0  0  0  0  0  0  0
   37.8410   27.0760   38.9190 O   0  0  0  0  0  0  0  0  0  0  0  0
   44.3950   34.9690   41.6460 C   0  0  0  0  0  0  0  0  0  0  0  0
   47.3870   33.4580   43.2350 C   0  0  0  0  0  0  0  0  0  0  0  0
   46.9710   33.4650   44.5240 C   0  0  0  0  0  0  0  0  0  0  0  0
   45.2960   34.2100   44.3660 S   0  0  0  0  0  0  0  0  0  0  0  0
   45.4560   34.3900   42.5270 C   0  0  0  0  0  0  0  0  0  0  0  0
   46.5070   33.9500   42.4200 N   0  0  0  0  0  0  0  0  0  0  0  0
   51.0160   33.1840   42.2580 C   0  0  0  0  0  0  0  0  0  0  0  0
   49.8020   33.7450   42.6830 C   0  0  0  0  0  0  0  0  0  0  0  0
   48.6970   32.9520   42.7970 C   0  0  0  0  0  0  0  0  0  0  0  0
   48.8570   31.6010   42.4720 N   0  0  0  0  0  0  0  0  0  0  0  0
   50.0450   31.1190   42.0690 C   0  0  0  0  0  0  0  0  0  0  0  0
   51.1240   31.9040   41.9610 N   0  0  0  0  0  0  0  0  0  0  0  0
   49.7990   35.1380   42.9780 N   0  0  0  0  0  0  0  0  0  0  0  0
   44.7915   34.9068   39.5735 H   0  0  0  0  0  0  0  0  0  0  0  0
   44.8873   33.3069   40.4932 H   0  0  0  0  0  0  0  0  0  0  0  0
   43.4125   33.4085   37.8405 H   0  0  0  0  0  0  0  0  0  0  0  0
   41.1116   32.7892   37.2059 H   0  0  0  0  0  0  0  0  0  0  0  0
   37.4685   28.5142   40.9257 H   0  0  0  0  0  0  0  0  0  0  0  0
   37.7791   30.8896   41.0791 H   0  0  0  0  0  0  0  0  0  0  0  0
   38.6055   28.4048   36.9815 H   0  0  0  0  0  0  0  0  0  0  0  0
   44.6152   36.0317   41.4667 H   0  0  0  0  0  0  0  0  0  0  0  0
   43.4217   34.8593   42.1467 H   0  0  0  0  0  0  0  0  0  0  0  0
   47.4955   33.1174   45.4262 H   0  0  0  0  0  0  0  0  0  0  0  0
   51.9020   33.8300   42.1702 H   0  0  0  0  0  0  0  0  0  0  0  0
   50.1331   30.0509   41.8213 H   0  0  0  0  0  0  0  0  0  0  0  0
   48.9319   35.5957   43.2936 H   0  0  0  0  0  0  0  0  0  0  0  0
   50.6639   35.6879   42.8758 H   0  0  0  0  0  0  0  0  0  0  0  0
  1 21  1  0
  2  1  1  0
  2  7  1  0
  3  2  2  0
  4  3  1  0
  4  5  2  0
  5  6  1  0
  6  7  2  0
  6  8  1  0
  8 11  1  0
  8 10  1  0
  9  8  1  0
 12 15  1  0
 12  5  1  0
 13 14  1  0
 15 14  2  0
 16 15  1  0
 17 16  2  0
 18 16  1  0
 18 19  1  0
 19 13  1  0
 20 19  2  0
 21 25  1  0
 22 23  2  0
 24 23  1  0
 25 24  1  0
 26 25  2  0
 26 22  1  0
 27 28  2  0
 28 29  1  0
 28 33  1  0
 29 22  1  0
 30 29  2  0
 31 30  1  0
 32 31  2  0
 32 27  1  0
  1 34  1  0
  1 35  1  0
  3 36  1  0
  4 37  1  0
 13 38  1  0
 14 39  1  0
 18 40  1  0
 21 41  1  0
 21 42  1  0
 23 43  1  0
 27 44  1  0
 31 45  1  0
 33 46  1  0
 33 47  1  0
M  ISO  8  34   8  35   8  36  14  37  14  38   9  39  14  40   9  41   8
M  ISO  4  42   8  43  14  44  14  45  14
M  END
>  <minimizedAffinity>  (1) 
-6.26164865

>  <minimizedRMSD>  (1) 
2.07859206

$$$$
