
     RDKit          3D

 43 45  0  0  0  0  0  0  0  0999 V2000
   44.5580   35.6080   42.9200 C   0  0  0  0  0  0  0  0  0  0  0  0
   43.7080   34.8190   42.0940 C   0  0  0  0  0  0  0  0  0  0  0  0
   43.8930   33.4450   42.0680 C   0  0  0  0  0  0  0  0  0  0  0  0
   44.8890   32.9400   42.8410 N   0  0  0  0  0  0  0  0  0  0  0  0
   45.6830   33.6840   43.6130 C   0  0  0  0  0  0  0  0  0  0  0  0
   45.5080   35.0230   43.6440 N   0  0  0  0  0  0  0  0  0  0  0  0
   46.7700   33.1810   44.4640 C   0  0  0  0  0  0  0  0  0  0  0  0
   46.3910   33.2650   45.9150 C   0  0  0  0  0  0  0  0  0  0  0  0
   45.9680   32.0050   46.4870 N   0  0  0  0  0  0  0  0  0  0  0  0
   46.1040   30.9110   45.7160 C   0  0  0  0  0  0  0  0  0  0  0  0
   45.7570   29.6370   46.0920 C   0  0  0  0  0  0  0  0  0  0  0  0
   45.2260   29.5010   47.3810 C   0  0  0  0  0  0  0  0  0  0  0  0
   44.8810   28.3590   47.8020 O   0  0  0  0  0  0  0  0  0  0  0  0
   45.1050   30.6100   48.1190 N   0  0  0  0  0  0  0  0  0  0  0  0
   45.4550   31.8470   47.7210 C   0  0  0  0  0  0  0  0  0  0  0  0
   45.3300   32.8720   48.4380 O   0  0  0  0  0  0  0  0  0  0  0  0
   42.6570   35.4690   41.2950 C   0  0  0  0  0  0  0  0  0  0  0  0
   41.4020   35.5610   41.6430 C   0  0  0  0  0  0  0  0  0  0  0  0
   40.3750   36.2310   40.7950 C   0  0  0  0  0  0  0  0  0  0  0  0
   41.2510   36.1960   38.1380 F   0  0  0  0  0  0  0  0  0  0  0  0
   40.2790   35.3360   38.4880 C   0  0  0  0  0  0  0  0  0  0  0  0
   39.8140   35.3200   39.7990 C   0  0  0  0  0  0  0  0  0  0  0  0
   38.8160   34.3940   40.0330 C   0  0  0  0  0  0  0  0  0  0  0  0
   38.2660   33.5250   39.1230 C   0  0  0  0  0  0  0  0  0  0  0  0
   38.7960   33.6100   37.8260 C   0  0  0  0  0  0  0  0  0  0  0  0
   39.7900   34.4980   37.4930 C   0  0  0  0  0  0  0  0  0  0  0  0
   44.4292   36.6997   42.9593 H   0  0  0  0  0  0  0  0  0  0  0  0
   43.2606   32.7924   41.4482 H   0  0  0  0  0  0  0  0  0  0  0  0
   46.9756   32.1319   44.2047 H   0  0  0  0  0  0  0  0  0  0  0  0
   47.6649   33.7982   44.2961 H   0  0  0  0  0  0  0  0  0  0  0  0
   47.2632   33.6258   46.4799 H   0  0  0  0  0  0  0  0  0  0  0  0
   45.5316   33.9485   45.9802 H   0  0  0  0  0  0  0  0  0  0  0  0
   46.5248   31.0474   44.7089 H   0  0  0  0  0  0  0  0  0  0  0  0
   45.8881   28.7750   45.4214 H   0  0  0  0  0  0  0  0  0  0  0  0
   44.7132   30.5093   49.0662 H   0  0  0  0  0  0  0  0  0  0  0  0
   42.9510   35.9109   40.3315 H   0  0  0  0  0  0  0  0  0  0  0  0
   41.0889   35.1254   42.6033 H   0  0  0  0  0  0  0  0  0  0  0  0
   39.5629   36.5958   41.4410 H   0  0  0  0  0  0  0  0  0  0  0  0
   40.8608   37.0620   40.2626 H   0  0  0  0  0  0  0  0  0  0  0  0
   38.4194   34.3478   41.0580 H   0  0  0  0  0  0  0  0  0  0  0  0
   37.4694   32.8152   39.3905 H   0  0  0  0  0  0  0  0  0  0  0  0
   38.4009   32.9409   37.0474 H   0  0  0  0  0  0  0  0  0  0  0  0
   40.1874   34.5444   36.4683 H   0  0  0  0  0  0  0  0  0  0  0  0
  1  6  2  0
  2  1  1  0
  3  2  2  0
  3  4  1  0
  4  5  2  0
  5  6  1  0
  5  7  1  0
  7  8  1  0
  8  9  1  0
  9 15  1  0
 10 11  2  0
 10  9  1  0
 11 12  1  0
 12 13  2  0
 12 14  1  0
 15 14  1  0
 15 16  2  0
 17 18  2  0
 17  2  1  0
 19 18  1  0
 20 21  1  0
 21 22  2  0
 22 23  1  0
 22 19  1  0
 24 23  2  0
 25 24  1  0
 26 25  2  0
 26 21  1  0
  1 27  1  0
  3 28  1  0
  7 29  1  0
  7 30  1  0
  8 31  1  0
  8 32  1  0
 10 33  1  0
 11 34  1  0
 14 35  1  0
 17 36  1  0
 18 37  1  0
 19 38  1  0
 19 39  1  0
 23 40  1  0
 24 41  1  0
 25 42  1  0
 26 43  1  0
M  ISO  8  27  14  28  14  29   8  30   8  31   8  32   8  33  14  34  14
M  ISO  7  35   9  38   8  39   8  40  14  41  14  42  14  43  14
M  END
>  <minimizedAffinity>  (1) 
-6.82759476

>  <minimizedRMSD>  (1) 
1.07016945

$$$$
