
     RDKit          3D

 39 41  0  0  0  0  0  0  0  0999 V2000
   47.2600   34.5500   40.9000 C   0  0  0  0  0  0  0  0  0  0  0  0
   48.5590   33.9900   41.3190 C   0  0  0  0  0  0  0  0  0  0  0  0
   48.8540   32.7120   40.8780 C   0  0  0  0  0  0  0  0  0  0  0  0
   50.0450   32.0870   41.2110 C   0  0  0  0  0  0  0  0  0  0  0  0
   50.9140   32.8080   42.0000 N   0  0  0  0  0  0  0  0  0  0  0  0
   50.5890   34.0490   42.4070 C   0  0  0  0  0  0  0  0  0  0  0  0
   49.4400   34.6260   42.0750 N   0  0  0  0  0  0  0  0  0  0  0  0
   47.6780   31.8000   39.8400 S   0  0  0  0  0  0  0  0  0  0  0  0
   49.5600   32.2570   36.2710 N   0  0  0  0  0  0  0  0  0  0  0  0
   49.3920   31.9140   37.5460 C   0  0  0  0  0  0  0  0  0  0  0  0
   48.1840   32.1550   38.1470 C   0  0  0  0  0  0  0  0  0  0  0  0
   47.1560   32.7480   37.4230 C   0  0  0  0  0  0  0  0  0  0  0  0
   45.9890   33.0270   37.8580 O   0  0  0  0  0  0  0  0  0  0  0  0
   47.3570   33.0870   36.1230 N   0  0  0  0  0  0  0  0  0  0  0  0
   48.5620   32.8360   35.5580 C   0  0  0  0  0  0  0  0  0  0  0  0
   48.8090   33.1250   34.3640 O   0  0  0  0  0  0  0  0  0  0  0  0
   46.4010   34.9760   42.0630 C   0  0  0  0  0  0  0  0  0  0  0  0
   44.9450   34.9340   41.7810 C   0  0  0  0  0  0  0  0  0  0  0  0
   44.0270   35.4660   42.7420 C   0  0  0  0  0  0  0  0  0  0  0  0
   42.3960   35.1870   41.9520 S   0  0  0  0  0  0  0  0  0  0  0  0
   43.2330   34.3930   40.4420 C   0  0  0  0  0  0  0  0  0  0  0  0
   44.3360   34.4610   40.7310 N   0  0  0  0  0  0  0  0  0  0  0  0
   42.5230   33.9070   39.3540 O   0  0  0  0  0  0  0  0  0  0  0  0
   40.5330   34.2990   37.6490 O   0  0  0  0  0  0  0  0  0  0  0  0
   41.6040   35.0300   38.4560 P   0  0  0  0  0  0  0  0  0  0  0  0
   40.8480   36.0690   39.5520 O   0  0  0  0  0  0  0  0  0  0  0  0
   42.6180   35.9210   37.4380 O   0  0  0  0  0  0  0  0  0  0  0  0
   47.4454   35.4262   40.2614 H   0  0  0  0  0  0  0  0  0  0  0  0
   46.7178   33.7582   40.3624 H   0  0  0  0  0  0  0  0  0  0  0  0
   50.2835   31.0707   40.8643 H   0  0  0  0  0  0  0  0  0  0  0  0
   51.2998   34.6045   43.0364 H   0  0  0  0  0  0  0  0  0  0  0  0
   50.4669   32.0790   35.8163 H   0  0  0  0  0  0  0  0  0  0  0  0
   50.2113   31.4437   38.1096 H   0  0  0  0  0  0  0  0  0  0  0  0
   46.6045   33.5282   35.5753 H   0  0  0  0  0  0  0  0  0  0  0  0
   46.6092   34.3069   42.9109 H   0  0  0  0  0  0  0  0  0  0  0  0
   46.6544   36.0241   42.2806 H   0  0  0  0  0  0  0  0  0  0  0  0
   44.2463   35.9287   43.7156 H   0  0  0  0  0  0  0  0  0  0  0  0
   41.0567   35.7822   40.4763 H   0  0  0  0  0  0  0  0  0  0  0  0
   43.2381   36.4659   37.9845 H   0  0  0  0  0  0  0  0  0  0  0  0
  1  2  1  0
  1 17  1  0
  2  7  2  0
  3  4  2  0
  3  2  1  0
  4  5  1  0
  5  6  2  0
  7  6  1  0
  8  3  1  0
  9 10  1  0
 10 11  2  0
 11  8  1  0
 12 13  2  0
 12 11  1  0
 14 12  1  0
 15 14  1  0
 15  9  1  0
 16 15  2  0
 18 17  1  0
 18 19  2  0
 20 19  1  0
 21 22  2  0
 21 20  1  0
 22 18  1  0
 23 21  1  0
 24 25  2  0
 25 23  1  0
 25 26  1  0
 27 25  1  0
  1 28  1  0
  1 29  1  0
  4 30  1  0
  6 31  1  0
  9 32  1  0
 10 33  1  0
 14 34  1  0
 17 35  1  0
 17 36  1  0
 19 37  1  0
 26 38  1  0
 27 39  1  0
M  ISO  8  28   8  29   8  30  14  31  14  32   9  33  14  34   9  35   8
M  ISO  4  36   8  37  14  38   3  39   3
M  END
>  <minimizedAffinity>  (1) 
-5.64151812

>  <minimizedRMSD>  (1) 
0.435041994

$$$$
