
     RDKit          3D

 27 28  0  0  0  0  0  0  0  0999 V2000
   46.5150   33.9040   43.7590 C   0  0  0  0  0  0  0  0  0  0  0  0
   45.5720   34.7500   44.3580 C   0  0  0  0  0  0  0  0  0  0  0  0
   45.1590   34.4550   45.6690 C   0  0  0  0  0  0  0  0  0  0  0  0
   45.6910   33.3720   46.2840 N   0  0  0  0  0  0  0  0  0  0  0  0
   46.6050   32.5740   45.6660 C   0  0  0  0  0  0  0  0  0  0  0  0
   47.0080   32.8430   44.4170 N   0  0  0  0  0  0  0  0  0  0  0  0
   47.1290   31.4480   46.3630 N   0  0  0  0  0  0  0  0  0  0  0  0
   48.0100   30.6270   45.7620 C   0  0  0  0  0  0  0  0  0  0  0  0
   48.5540   29.5130   46.3930 C   0  0  0  0  0  0  0  0  0  0  0  0
   48.1160   29.3210   47.6880 C   0  0  0  0  0  0  0  0  0  0  0  0
   48.5870   28.3130   48.3070 O   0  0  0  0  0  0  0  0  0  0  0  0
   47.2380   30.1300   48.3060 N   0  0  0  0  0  0  0  0  0  0  0  0
   46.7500   31.2010   47.6160 C   0  0  0  0  0  0  0  0  0  0  0  0
   45.9260   31.9710   48.1760 O   0  0  0  0  0  0  0  0  0  0  0  0
   45.0530   35.9140   43.5920 C   0  0  0  0  0  0  0  0  0  0  0  0
   46.0060   36.3630   42.7020 F   0  0  0  0  0  0  0  0  0  0  0  0
   43.9600   35.4890   42.8460 F   0  0  0  0  0  0  0  0  0  0  0  0
   44.6770   36.9750   44.3650 F   0  0  0  0  0  0  0  0  0  0  0  0
   46.9000   34.2010   42.5030 O   0  0  0  0  0  0  0  0  0  0  0  0
   48.2130   34.2560   42.0120 C   0  0  0  0  0  0  0  0  0  0  0  0
   49.0320   34.6640   43.0600 F   0  0  0  0  0  0  0  0  0  0  0  0
   48.5660   33.0370   41.4830 F   0  0  0  0  0  0  0  0  0  0  0  0
   48.3190   35.2780   41.0760 F   0  0  0  0  0  0  0  0  0  0  0  0
   44.4213   35.0887   46.1830 H   0  0  0  0  0  0  0  0  0  0  0  0
   48.3129   30.8463   44.7275 H   0  0  0  0  0  0  0  0  0  0  0  0
   49.2730   28.8413   45.9012 H   0  0  0  0  0  0  0  0  0  0  0  0
   46.9415   29.9461   49.2751 H   0  0  0  0  0  0  0  0  0  0  0  0
  1  2  2  0
  1  6  1  0
  2  3  1  0
  3  4  2  0
  5  4  1  0
  5  7  1  0
  6  5  2  0
  7 13  1  0
  8  7  1  0
  8  9  2  0
  9 10  1  0
 10 12  1  0
 10 11  2  0
 13 14  2  0
 13 12  1  0
 15  2  1  0
 15 18  1  0
 16 15  1  0
 17 15  1  0
 19  1  1  0
 20 19  1  0
 20 21  1  0
 22 20  1  0
 23 20  1  0
  3 24  1  0
  8 25  1  0
  9 26  1  0
 12 27  1  0
M  ISO  4  24  14  25  14  26  14  27   9
M  END
>  <minimizedAffinity>  (1) 
-5.70156622

>  <minimizedRMSD>  (1) 
1.5513097

$$$$
