
     RDKit          3D

 42 45  0  0  1  0  0  0  0  0999 V2000
   48.5860   32.3030   37.9590 O   0  0  0  0  0  0  0  0  0  0  0  0
   48.1030   33.7310   38.1990 P   0  0  2  0  0  0  0  0  0  0  0  0
   49.3200   34.7240   37.5580 O   0  0  0  0  0  0  0  0  0  0  0  0
   47.7390   34.0190   39.7650 O   0  0  0  0  0  0  0  0  0  0  0  0
   47.9450   35.3880   41.7480 C   0  0  1  0  0  0  0  0  0  0  0  0
   49.2030   34.6440   41.6970 C   0  0  0  0  0  0  0  0  0  0  0  0
   48.4080   34.9840   40.4220 C   0  0  1  0  0  0  0  0  0  0  0  0
   45.8810   32.9490   43.7780 C   0  0  0  0  0  0  0  0  0  0  0  0
   46.9810   33.6460   43.2880 C   0  0  0  0  0  0  0  0  0  0  0  0
   46.7720   34.6310   42.3030 C   0  0  0  0  0  0  0  0  0  0  0  0
   45.5100   34.8730   41.8600 N   0  0  0  0  0  0  0  0  0  0  0  0
   44.4560   34.1760   42.3560 C   0  0  0  0  0  0  0  0  0  0  0  0
   44.6390   33.2180   43.3110 N   0  0  0  0  0  0  0  0  0  0  0  0
   46.7500   33.9000   37.2190 O   0  0  0  0  0  0  0  0  0  0  0  0
   45.6630   33.0430   37.2430 C   0  0  0  0  0  0  0  0  0  0  0  0
   45.4170   31.9460   36.4360 C   0  0  0  0  0  0  0  0  0  0  0  0
   44.2910   31.1940   36.5820 C   0  0  0  0  0  0  0  0  0  0  0  0
   43.3620   31.5170   37.5500 C   0  0  0  0  0  0  0  0  0  0  0  0
   43.6400   32.6270   38.3450 C   0  0  0  0  0  0  0  0  0  0  0  0
   44.7660   33.3630   38.1840 N   0  0  0  0  0  0  0  0  0  0  0  0
   42.6640   32.9380   39.3380 N   0  0  0  0  0  0  0  0  0  0  0  0
   42.2160   32.0850   40.2670 C   0  0  0  0  0  0  0  0  0  0  0  0
   41.2660   32.4700   41.1940 C   0  0  0  0  0  0  0  0  0  0  0  0
   40.7700   33.7680   41.1570 C   0  0  0  0  0  0  0  0  0  0  0  0
   39.9050   34.1540   41.9850 O   0  0  0  0  0  0  0  0  0  0  0  0
   41.2560   34.6020   40.1930 N   0  0  0  0  0  0  0  0  0  0  0  0
   42.1890   34.2100   39.2890 C   0  0  0  0  0  0  0  0  0  0  0  0
   42.5110   35.1220   38.4800 O   0  0  0  0  0  0  0  0  0  0  0  0
   49.8300   35.1401   38.2975 H   0  0  0  0  0  0  0  0  0  0  0  0
   47.6475   36.3558   42.1780 H   0  0  0  0  0  0  0  0  0  0  0  0
   50.1563   35.1505   41.9082 H   0  0  0  0  0  0  0  0  0  0  0  0
   49.5958   33.7268   42.1601 H   0  0  0  0  0  0  0  0  0  0  0  0
   48.6352   35.4884   39.4713 H   0  0  0  0  0  0  0  0  0  0  0  0
   46.0210   32.1761   44.5481 H   0  0  0  0  0  0  0  0  0  0  0  0
   47.9931   33.4322   43.6621 H   0  0  0  0  0  0  0  0  0  0  0  0
   43.4423   34.3857   41.9839 H   0  0  0  0  0  0  0  0  0  0  0  0
   46.1473   31.6754   35.6592 H   0  0  0  0  0  0  0  0  0  0  0  0
   44.1216   30.3269   35.9267 H   0  0  0  0  0  0  0  0  0  0  0  0
   42.4447   30.9257   37.6876 H   0  0  0  0  0  0  0  0  0  0  0  0
   42.6112   31.0588   40.2932 H   0  0  0  0  0  0  0  0  0  0  0  0
   40.9068   31.7581   41.9517 H   0  0  0  0  0  0  0  0  0  0  0  0
   40.9006   35.5678   40.1496 H   0  0  0  0  0  0  0  0  0  0  0  0
  2  1  2  0
  2  4  1  0
  3  2  1  0
  4  7  1  0
  5 10  1  0
  6  5  1  0
  7  6  1  0
  7  5  1  0
  9  8  2  0
 10  9  1  0
 11 10  2  0
 11 12  1  0
 12 13  2  0
 13  8  1  0
 14 15  1  0
 14  2  1  0
 15 20  2  0
 16 17  2  0
 16 15  1  0
 17 18  1  0
 18 19  2  0
 19 21  1  0
 20 19  1  0
 21 22  1  0
 22 23  2  0
 24 23  1  0
 24 25  2  0
 26 24  1  0
 27 21  1  0
 27 26  1  0
 28 27  2  0
  3 29  1  0
  5 30  1  6
  6 31  1  0
  6 32  1  0
  7 33  1  6
  8 34  1  0
  9 35  1  0
 12 36  1  0
 16 37  1  0
 17 38  1  0
 18 39  1  0
 22 40  1  0
 23 41  1  0
 26 42  1  0
M  ISO  8  29   3  30  13  31  13  32  13  33  13  34  14  35  14  36  14
M  ISO  6  37  14  38  14  39  14  40  14  41  14  42   9
M  END
>  <minimizedAffinity>  (1) 
-5.79829931

>  <minimizedRMSD>  (1) 
1.00344479

$$$$
