
     RDKit          3D

 28 29  0  0  0  0  0  0  0  0999 V2000
   45.6370   30.6500   47.7030 O   0  0  0  0  0  0  0  0  0  0  0  0
   45.9870   32.0010   48.3720 P   0  0  2  0  0  0  0  0  0  0  0  0
   45.4210   31.8740   49.9530 O   0  0  0  0  0  0  0  0  0  0  0  0
   45.1410   33.2030   47.5430 O   0  0  0  0  0  0  0  0  0  0  0  0
   46.9650   33.2720   44.3960 C   0  0  0  0  0  0  0  0  0  0  0  0
   46.5410   32.8950   45.6940 C   0  0  0  0  0  0  0  0  0  0  0  0
   45.5170   33.5990   46.2770 C   0  0  0  0  0  0  0  0  0  0  0  0
   44.9400   34.6320   45.5950 N   0  0  0  0  0  0  0  0  0  0  0  0
   45.3740   34.9560   44.3610 C   0  0  0  0  0  0  0  0  0  0  0  0
   46.3710   34.2960   43.7580 N   0  0  0  0  0  0  0  0  0  0  0  0
   47.6210   32.2210   48.2950 O   0  0  0  0  0  0  0  0  0  0  0  0
   48.6640   31.6490   48.9290 C   0  0  0  0  0  0  0  0  0  0  0  0
   49.5560   32.5330   49.3410 O   0  0  0  0  0  0  0  0  0  0  0  0
   50.4760   29.0560   51.0770 N   0  0  0  0  0  0  0  0  0  0  0  0
   49.9330   30.1600   50.5840 C   0  0  0  0  0  0  0  0  0  0  0  0
   49.2580   30.3460   49.3760 C   0  0  0  0  0  0  0  0  0  0  0  0
   49.1340   29.2490   48.5890 C   0  0  0  0  0  0  0  0  0  0  0  0
   48.5780   29.1630   47.4730 O   0  0  0  0  0  0  0  0  0  0  0  0
   49.6780   28.0870   49.0560 N   0  0  0  0  0  0  0  0  0  0  0  0
   50.3090   28.0230   50.2360 C   0  0  0  0  0  0  0  0  0  0  0  0
   50.7770   26.9050   50.5810 O   0  0  0  0  0  0  0  0  0  0  0  0
   46.1651   32.0410   50.5843 H   0  0  0  0  0  0  0  0  0  0  0  0
   47.7844   32.7243   43.9074 H   0  0  0  0  0  0  0  0  0  0  0  0
   47.0210   32.0579   46.2222 H   0  0  0  0  0  0  0  0  0  0  0  0
   44.8928   35.7912   43.8309 H   0  0  0  0  0  0  0  0  0  0  0  0
   50.9611   28.9983   51.9838 H   0  0  0  0  0  0  0  0  0  0  0  0
   50.0274   31.0558   51.2154 H   0  0  0  0  0  0  0  0  0  0  0  0
   49.6009   27.2340   48.4838 H   0  0  0  0  0  0  0  0  0  0  0  0
  2  1  2  0
  2  3  1  0
  4  2  1  0
  5  6  2  0
  6  7  1  0
  7  4  1  0
  8  7  2  0
  9  8  1  0
 10  9  2  0
 10  5  1  0
 11  2  1  0
 11 12  1  0
 12 13  2  0
 12 16  1  0
 15 14  1  0
 16 15  2  0
 17 19  1  0
 17 16  1  0
 18 17  2  0
 19 20  1  0
 20 21  2  0
 20 14  1  0
  3 22  1  0
  5 23  1  0
  6 24  1  0
  9 25  1  0
 14 26  1  0
 15 27  1  0
 19 28  1  0
M  ISO  7  22   3  23  14  24  14  25  14  26   9  27  14  28   9
M  END
>  <minimizedAffinity>  (1) 
-5.26730013

>  <minimizedRMSD>  (1) 
1.39862609

$$$$
