
     RDKit          3D

 36 38  0  0  1  0  0  0  0  0999 V2000
   45.2920   34.6740   44.6980 C   0  0  0  0  0  0  0  0  0  0  0  0
   45.4980   34.0510   43.4570 C   0  0  0  0  0  0  0  0  0  0  0  0
   45.8280   32.6860   43.4680 C   0  0  0  0  0  0  0  0  0  0  0  0
   45.9290   32.0510   44.6500 N   0  0  0  0  0  0  0  0  0  0  0  0
   45.7260   32.6700   45.8190 C   0  0  0  0  0  0  0  0  0  0  0  0
   45.4030   33.9980   45.8630 N   0  0  0  0  0  0  0  0  0  0  0  0
   47.3020   31.8010   47.5490 C   0  0  2  0  0  0  0  0  0  0  0  0
   45.8480   31.8540   47.0260 C   0  0  1  0  0  0  0  0  0  0  0  0
   45.2110   32.3530   48.1290 O   0  0  0  0  0  0  0  0  0  0  0  0
   45.6810   31.6730   49.2150 C   0  0  0  0  0  0  0  0  0  0  0  0
   47.0070   31.0390   48.8520 C   0  0  2  0  0  0  0  0  0  0  0  0
   47.6840   33.0470   47.9230 O   0  0  0  0  0  0  0  0  0  0  0  0
   47.9860   31.1900   49.7990 O   0  0  0  0  0  0  0  0  0  0  0  0
   45.3390   34.9020   42.2610 C   0  0  0  0  0  0  0  0  0  0  0  0
   46.1080   34.4450   41.1360 N   0  0  0  0  0  0  0  0  0  0  0  0
   45.4490   33.6810   40.2400 C   0  0  0  0  0  0  0  0  0  0  0  0
   46.1980   33.2350   39.1470 C   0  0  0  0  0  0  0  0  0  0  0  0
   47.5310   33.5570   38.9950 C   0  0  0  0  0  0  0  0  0  0  0  0
   48.2280   33.1740   38.0270 O   0  0  0  0  0  0  0  0  0  0  0  0
   48.0560   34.3260   39.9650 N   0  0  0  0  0  0  0  0  0  0  0  0
   47.4020   34.7920   41.0460 C   0  0  0  0  0  0  0  0  0  0  0  0
   47.9760   35.5070   41.9070 O   0  0  0  0  0  0  0  0  0  0  0  0
   45.0329   35.7428   44.7229 H   0  0  0  0  0  0  0  0  0  0  0  0
   46.0010   32.1450   42.5260 H   0  0  0  0  0  0  0  0  0  0  0  0
   48.0537   31.3963   46.8554 H   0  0  0  0  0  0  0  0  0  0  0  0
   45.4268   30.8976   46.6827 H   0  0  0  0  0  0  0  0  0  0  0  0
   45.8207   32.3686   50.0556 H   0  0  0  0  0  0  0  0  0  0  0  0
   44.9616   30.8954   49.5114 H   0  0  0  0  0  0  0  0  0  0  0  0
   46.9746   29.9431   48.7626 H   0  0  0  0  0  0  0  0  0  0  0  0
   47.7015   33.1041   48.9112 H   0  0  0  0  0  0  0  0  0  0  0  0
   47.5843   31.1280   50.7017 H   0  0  0  0  0  0  0  0  0  0  0  0
   44.2762   34.9119   41.9775 H   0  0  0  0  0  0  0  0  0  0  0  0
   45.7057   35.9057   42.5222 H   0  0  0  0  0  0  0  0  0  0  0  0
   44.3863   33.4245   40.3622 H   0  0  0  0  0  0  0  0  0  0  0  0
   45.7101   32.6088   38.3856 H   0  0  0  0  0  0  0  0  0  0  0  0
   49.0494   34.5821   39.8728 H   0  0  0  0  0  0  0  0  0  0  0  0
  1  6  2  0
  2  3  2  0
  2  1  1  0
  3  4  1  0
  4  5  2  0
  5  6  1  0
  5  8  1  0
  7 12  1  0
  7 11  1  0
  8  7  1  0
  8  9  1  0
  9 10  1  0
 11 10  1  0
 11 13  1  0
 14  2  1  0
 15 14  1  0
 16 15  1  0
 17 16  2  0
 18 17  1  0
 18 20  1  0
 19 18  2  0
 20 21  1  0
 21 15  1  0
 21 22  2  0
  1 23  1  0
  3 24  1  0
  7 25  1  6
  8 26  1  6
 10 27  1  0
 10 28  1  0
 11 29  1  6
 12 30  1  0
 13 31  1  0
 14 32  1  0
 14 33  1  0
 16 34  1  0
 17 35  1  0
 20 36  1  0
M  ISO  8  23  14  24  14  25  13  26  13  27  13  28  13  29  13  30   3
M  ISO  6  31   3  32   8  33   8  34  14  35  14  36   9
M  END
>  <minimizedAffinity>  (1) 
-6.07840109

>  <minimizedRMSD>  (1) 
3.7695086

$$$$
