
     RDKit          3D

 35 37  0  0  0  0  0  0  0  0999 V2000
   46.3140   34.4160   41.9460 C   0  0  0  0  0  0  0  0  0  0  0  0
   47.5140   34.9390   41.5060 C   0  0  0  0  0  0  0  0  0  0  0  0
   48.1170   34.6280   40.2900 C   0  0  0  0  0  0  0  0  0  0  0  0
   47.4720   33.7340   39.4610 C   0  0  0  0  0  0  0  0  0  0  0  0
   46.2990   33.2330   39.9030 C   0  0  0  0  0  0  0  0  0  0  0  0
   45.7510   33.5580   41.0820 N   0  0  0  0  0  0  0  0  0  0  0  0
   44.4900   36.0160   44.8250 C   0  0  0  0  0  0  0  0  0  0  0  0
   44.9810   35.8680   43.5180 C   0  0  0  0  0  0  0  0  0  0  0  0
   45.7190   34.7520   43.2300 C   0  0  0  0  0  0  0  0  0  0  0  0
   45.9330   33.8440   44.2410 N   0  0  0  0  0  0  0  0  0  0  0  0
   45.4540   34.0050   45.4870 C   0  0  0  0  0  0  0  0  0  0  0  0
   44.7320   35.0950   45.7700 N   0  0  0  0  0  0  0  0  0  0  0  0
   45.6340   32.3380   39.0880 O   0  0  0  0  0  0  0  0  0  0  0  0
   45.4370   33.5550   36.7550 O   0  0  0  0  0  0  0  0  0  0  0  0
   44.6290   32.8340   37.7990 P   0  0  1  0  0  0  0  0  0  0  0  0
   43.9060   31.4630   37.1210 O   0  0  0  0  0  0  0  0  0  0  0  0
   43.4580   33.8880   38.4420 O   0  0  0  0  0  0  0  0  0  0  0  0
   41.1780   31.7910   40.3490 N   0  0  0  0  0  0  0  0  0  0  0  0
   41.9870   32.1570   39.3310 C   0  0  0  0  0  0  0  0  0  0  0  0
   42.6010   33.3890   39.4200 C   0  0  0  0  0  0  0  0  0  0  0  0
   42.3840   34.2190   40.5270 C   0  0  0  0  0  0  0  0  0  0  0  0
   42.9160   35.3610   40.6680 O   0  0  0  0  0  0  0  0  0  0  0  0
   41.5650   33.7920   41.5050 N   0  0  0  0  0  0  0  0  0  0  0  0
   40.9630   32.5940   41.4280 C   0  0  0  0  0  0  0  0  0  0  0  0
   40.1770   32.0680   42.2610 O   0  0  0  0  0  0  0  0  0  0  0  0
   48.0310   35.6531   42.1639 H   0  0  0  0  0  0  0  0  0  0  0  0
   49.0767   35.0806   39.9999 H   0  0  0  0  0  0  0  0  0  0  0  0
   47.8929   33.4434   38.4871 H   0  0  0  0  0  0  0  0  0  0  0  0
   43.8947   36.9053   45.0794 H   0  0  0  0  0  0  0  0  0  0  0  0
   44.7784   36.6269   42.7479 H   0  0  0  0  0  0  0  0  0  0  0  0
   45.6530   33.2510   46.2628 H   0  0  0  0  0  0  0  0  0  0  0  0
   43.5905   30.8647   37.8439 H   0  0  0  0  0  0  0  0  0  0  0  0
   40.7086   30.8751   40.3080 H   0  0  0  0  0  0  0  0  0  0  0  0
   42.1497   31.4985   38.4651 H   0  0  0  0  0  0  0  0  0  0  0  0
   41.3972   34.3926   42.3248 H   0  0  0  0  0  0  0  0  0  0  0  0
  1  9  1  0
  2  1  2  0
  3  2  1  0
  4  5  1  0
  4  3  2  0
  5  6  2  0
  6  1  1  0
  7 12  2  0
  8  7  1  0
  9  8  2  0
  9 10  1  0
 10 11  2  0
 11 12  1  0
 13  5  1  0
 15 14  2  0
 15 17  1  0
 15 13  1  0
 16 15  1  0
 17 20  1  0
 18 24  1  0
 19 20  2  0
 19 18  1  0
 20 21  1  0
 21 22  2  0
 21 23  1  0
 24 23  1  0
 24 25  2  0
  2 26  1  0
  3 27  1  0
  4 28  1  0
  7 29  1  0
  8 30  1  0
 11 31  1  0
 16 32  1  0
 18 33  1  0
 19 34  1  0
 23 35  1  0
M  ISO  8  26  14  27  14  28  14  29  14  30  14  31  14  32   3  33   9
M  ISO  2  34  14  35   9
M  END
>  <minimizedAffinity>  (1) 
-5.82676172

>  <minimizedRMSD>  (1) 
2.54358172

$$$$
