
     RDKit          3D

 29 30  0  0  0  0  0  0  0  0999 V2000
   48.3480   32.8650   41.3700 O   0  0  0  0  0  0  0  0  0  0  0  0
   47.2720   33.9470   41.2570 P   0  0  2  0  0  0  0  0  0  0  0  0
   45.8620   33.3970   42.0690 O   0  0  0  0  0  0  0  0  0  0  0  0
   44.4070   35.8340   44.4050 C   0  0  0  0  0  0  0  0  0  0  0  0
   44.7870   35.2150   43.1840 C   0  0  0  0  0  0  0  0  0  0  0  0
   45.4890   34.0030   43.2550 C   0  0  0  0  0  0  0  0  0  0  0  0
   45.7640   33.4870   44.4820 N   0  0  0  0  0  0  0  0  0  0  0  0
   45.3870   34.1000   45.6270 C   0  0  0  0  0  0  0  0  0  0  0  0
   44.7120   35.2690   45.5890 N   0  0  0  0  0  0  0  0  0  0  0  0
   46.8920   34.2930   39.6790 O   0  0  0  0  0  0  0  0  0  0  0  0
   46.4420   31.2020   37.7240 N   0  0  0  0  0  0  0  0  0  0  0  0
   46.3010   32.0670   38.7410 C   0  0  0  0  0  0  0  0  0  0  0  0
   46.9350   33.2910   38.7150 C   0  0  0  0  0  0  0  0  0  0  0  0
   47.7180   33.6090   37.6250 C   0  0  0  0  0  0  0  0  0  0  0  0
   48.3810   34.6540   37.3910 O   0  0  0  0  0  0  0  0  0  0  0  0
   47.8370   32.7130   36.6220 N   0  0  0  0  0  0  0  0  0  0  0  0
   47.2150   31.5110   36.6450 C   0  0  0  0  0  0  0  0  0  0  0  0
   47.2940   30.6500   35.7410 O   0  0  0  0  0  0  0  0  0  0  0  0
   47.8380   35.3200   42.0710 O   0  0  0  0  0  0  0  0  0  0  0  0
   49.0430   35.7640   41.5760 C   0  0  0  0  0  0  0  0  0  0  0  0
   49.3100   37.0880   41.9240 F   0  0  0  0  0  0  0  0  0  0  0  0
   50.0510   34.8970   41.9240 F   0  0  0  0  0  0  0  0  0  0  0  0
   48.9270   35.7490   40.1770 F   0  0  0  0  0  0  0  0  0  0  0  0
   43.8570   36.7864   44.3831 H   0  0  0  0  0  0  0  0  0  0  0  0
   44.5387   35.6715   42.2145 H   0  0  0  0  0  0  0  0  0  0  0  0
   45.6321   33.6428   46.5970 H   0  0  0  0  0  0  0  0  0  0  0  0
   45.9595   30.2927   37.7597 H   0  0  0  0  0  0  0  0  0  0  0  0
   45.6737   31.7966   39.6032 H   0  0  0  0  0  0  0  0  0  0  0  0
   48.4227   32.9530   35.8094 H   0  0  0  0  0  0  0  0  0  0  0  0
  2  1  2  0
  2  3  1  0
  2 19  1  0
  3  6  1  0
  4  9  2  0
  5  6  2  0
  5  4  1  0
  6  7  1  0
  7  8  2  0
  9  8  1  0
 10  2  1  0
 11 12  1  0
 13 12  2  0
 13 10  1  0
 14 13  1  0
 15 14  2  0
 16 17  1  0
 16 14  1  0
 17 11  1  0
 18 17  2  0
 20 21  1  0
 20 22  1  0
 20 19  1  0
 23 20  1  0
  4 24  1  0
  5 25  1  0
  8 26  1  0
 11 27  1  0
 12 28  1  0
 16 29  1  0
M  ISO  6  24  14  25  14  26  14  27   9  28  14  29   9
M  END
>  <minimizedAffinity>  (1) 
-5.45522404

>  <minimizedRMSD>  (1) 
1.26613271

$$$$
