
     RDKit          3D

 31 32  0  0  0  0  0  0  0  0999 V2000
   44.9660   34.8330   44.9970 C   0  0  0  0  0  0  0  0  0  0  0  0
   46.0970   34.1240   44.6030 C   0  0  0  0  0  0  0  0  0  0  0  0
   46.6820   34.4540   43.3890 C   0  0  0  0  0  0  0  0  0  0  0  0
   46.1140   35.4500   42.6570 N   0  0  0  0  0  0  0  0  0  0  0  0
   45.0150   36.1140   43.0760 C   0  0  0  0  0  0  0  0  0  0  0  0
   44.4260   35.8100   44.2600 N   0  0  0  0  0  0  0  0  0  0  0  0
   47.8620   33.7320   42.9510 C   0  0  0  0  0  0  0  0  0  0  0  0
   47.9820   32.4000   42.6570 C   0  0  0  0  0  0  0  0  0  0  0  0
   49.2060   31.8980   42.2520 C   0  0  0  0  0  0  0  0  0  0  0  0
   50.3000   32.7370   42.1440 C   0  0  0  0  0  0  0  0  0  0  0  0
   50.1900   34.0760   42.4370 C   0  0  0  0  0  0  0  0  0  0  0  0
   48.9610   34.5650   42.8410 C   0  0  0  0  0  0  0  0  0  0  0  0
   46.6180   33.0590   45.4910 C   0  0  0  0  0  0  0  0  0  0  0  0
   45.4980   32.7360   46.3850 N   0  0  0  0  0  0  0  0  0  0  0  0
   46.1070   31.8030   47.7330 S   0  0  0  0  0  0  0  0  0  0  0  0
   45.3880   30.2010   47.7500 C   0  0  0  0  0  0  0  0  0  0  0  0
   45.7960   32.5410   49.0120 O   0  0  0  0  0  0  0  0  0  0  0  0
   47.5970   31.7550   47.6210 O   0  0  0  0  0  0  0  0  0  0  0  0
   44.4949   34.5784   45.9579 H   0  0  0  0  0  0  0  0  0  0  0  0
   44.5916   36.9123   42.4487 H   0  0  0  0  0  0  0  0  0  0  0  0
   47.1110   31.7335   42.7423 H   0  0  0  0  0  0  0  0  0  0  0  0
   49.3092   30.8287   42.0153 H   0  0  0  0  0  0  0  0  0  0  0  0
   51.2688   32.3288   41.8202 H   0  0  0  0  0  0  0  0  0  0  0  0
   51.0602   34.7434   42.3519 H   0  0  0  0  0  0  0  0  0  0  0  0
   48.8556   35.6338   43.0788 H   0  0  0  0  0  0  0  0  0  0  0  0
   46.9136   32.1761   44.9053 H   0  0  0  0  0  0  0  0  0  0  0  0
   47.5125   33.3802   46.0448 H   0  0  0  0  0  0  0  0  0  0  0  0
   45.0691   33.6060   46.7314 H   0  0  0  0  0  0  0  0  0  0  0  0
   45.2420   29.8757   48.7906 H   0  0  0  0  0  0  0  0  0  0  0  0
   44.4164   30.2297   47.2350 H   0  0  0  0  0  0  0  0  0  0  0  0
   46.0552   29.4942   47.2350 H   0  0  0  0  0  0  0  0  0  0  0  0
  2  1  2  0
  2 13  1  0
  3  2  1  0
  4  5  1  0
  4  3  2  0
  5  6  2  0
  6  1  1  0
  7  3  1  0
  8  7  2  0
  9  8  1  0
 10  9  2  0
 10 11  1  0
 11 12  2  0
 12  7  1  0
 13 14  1  0
 14 15  1  0
 15 16  1  0
 15 17  2  0
 18 15  2  0
  1 19  1  0
  5 20  1  0
  8 21  1  0
  9 22  1  0
 10 23  1  0
 11 24  1  0
 12 25  1  0
 13 26  1  0
 13 27  1  0
 14 28  1  0
 16 29  1  0
 16 30  1  0
 16 31  1  0
M  ISO  8  19  14  20  14  21  14  22  14  23  14  24  14  25  14  26   8
M  ISO  5  27   8  28   5  29   8  30   8  31   8
M  END
>  <minimizedAffinity>  (1) 
-5.30073214

>  <minimizedRMSD>  (1) 
5.47932243

$$$$
