
     RDKit          3D

 27 29  0  0  0  0  0  0  0  0999 V2000
   47.0270   32.6540   44.6180 C   0  0  0  0  0  0  0  0  0  0  0  0
   46.8490   33.9270   44.0640 C   0  0  0  0  0  0  0  0  0  0  0  0
   47.6420   34.0120   42.9640 C   0  0  0  0  0  0  0  0  0  0  0  0
   48.2850   32.8400   42.8410 N   0  0  0  0  0  0  0  0  0  0  0  0
   47.9100   32.0210   43.8430 N   0  0  0  0  0  0  0  0  0  0  0  0
   45.5700   30.3570   47.0840 C   0  0  0  0  0  0  0  0  0  0  0  0
   45.0780   31.2310   48.0660 C   0  0  0  0  0  0  0  0  0  0  0  0
   45.2560   32.6150   47.8630 C   0  0  0  0  0  0  0  0  0  0  0  0
   45.8930   33.0360   46.7350 N   0  0  0  0  0  0  0  0  0  0  0  0
   46.3510   32.1620   45.8110 C   0  0  0  0  0  0  0  0  0  0  0  0
   46.1960   30.8230   45.9760 N   0  0  0  0  0  0  0  0  0  0  0  0
   46.9560   31.7310   40.3060 Br  0  0  0  0  0  0  0  0  0  0  0  0
   48.8390   31.8650   40.6620 C   0  0  0  0  0  0  0  0  0  0  0  0
   49.2240   32.3990   41.8760 C   0  0  0  0  0  0  0  0  0  0  0  0
   50.5720   32.4980   42.1370 C   0  0  0  0  0  0  0  0  0  0  0  0
   51.4830   32.0640   41.1880 C   0  0  0  0  0  0  0  0  0  0  0  0
   51.1210   31.5310   39.9750 C   0  0  0  0  0  0  0  0  0  0  0  0
   49.7560   31.4410   39.7350 C   0  0  0  0  0  0  0  0  0  0  0  0
   46.1867   34.7161   44.4495 H   0  0  0  0  0  0  0  0  0  0  0  0
   47.7392   34.8812   42.2969 H   0  0  0  0  0  0  0  0  0  0  0  0
   45.4450   29.2722   47.2164 H   0  0  0  0  0  0  0  0  0  0  0  0
   44.5705   30.8490   48.9640 H   0  0  0  0  0  0  0  0  0  0  0  0
   44.8872   33.3414   48.6021 H   0  0  0  0  0  0  0  0  0  0  0  0
   50.9228   32.9182   43.0911 H   0  0  0  0  0  0  0  0  0  0  0  0
   52.5551   32.1510   41.4185 H   0  0  0  0  0  0  0  0  0  0  0  0
   51.8665   31.1960   39.2388 H   0  0  0  0  0  0  0  0  0  0  0  0
   49.4033   31.0209   38.7815 H   0  0  0  0  0  0  0  0  0  0  0  0
  1 10  1  0
  2  1  1  0
  3  2  2  0
  4  3  1  0
  4  5  1  0
  5  1  2  0
  6  7  2  0
  8  7  1  0
  9  8  2  0
 10 11  2  0
 10  9  1  0
 11  6  1  0
 12 13  1  0
 13 14  2  0
 14 15  1  0
 14  4  1  0
 16 15  2  0
 17 16  1  0
 18 17  2  0
 18 13  1  0
  2 19  1  0
  3 20  1  0
  6 21  1  0
  7 22  1  0
  8 23  1  0
 15 24  1  0
 16 25  1  0
 17 26  1  0
 18 27  1  0
M  ISO  8  19  14  20  14  21  14  22  14  23  14  24  14  25  14  26  14
M  ISO  1  27  14
M  END
>  <minimizedAffinity>  (1) 
-4.24323654

>  <minimizedRMSD>  (1) 
8.18567562

$$$$
