
     RDKit          3D

 32 34  0  0  1  0  0  0  0  0999 V2000
   46.5090   34.9690   41.9530 C   0  0  1  0  0  0  0  0  0  0  0  0
   48.0090   35.3680   41.9490 C   0  0  0  0  0  0  0  0  0  0  0  0
   47.4170   34.0260   41.4440 C   0  0  2  0  0  0  0  0  0  0  0  0
   44.6190   35.4840   45.1530 C   0  0  0  0  0  0  0  0  0  0  0  0
   45.0860   35.7320   43.8310 C   0  0  0  0  0  0  0  0  0  0  0  0
   46.0000   34.8440   43.3710 C   0  0  0  0  0  0  0  0  0  0  0  0
   46.4490   33.7730   44.1340 N   0  0  0  0  0  0  0  0  0  0  0  0
   45.9660   33.5920   45.3880 C   0  0  0  0  0  0  0  0  0  0  0  0
   45.0470   34.4580   45.8900 N   0  0  0  0  0  0  0  0  0  0  0  0
   44.6630   36.8340   43.0670 N   0  0  0  0  0  0  0  0  0  0  0  0
   47.4950   33.7030   39.9700 C   0  0  0  0  0  0  0  0  0  0  0  0
   47.8930   33.4780   36.9520 Br  0  0  0  0  0  0  0  0  0  0  0  0
   48.9510   32.6990   38.3260 C   0  0  0  0  0  0  0  0  0  0  0  0
   48.6730   32.8710   39.6790 C   0  0  0  0  0  0  0  0  0  0  0  0
   49.4850   32.2760   40.6130 C   0  0  0  0  0  0  0  0  0  0  0  0
   50.5850   31.4990   40.3220 C   0  0  0  0  0  0  0  0  0  0  0  0
   50.8410   31.3410   38.9630 C   0  0  0  0  0  0  0  0  0  0  0  0
   50.0550   31.9190   37.9940 C   0  0  0  0  0  0  0  0  0  0  0  0
   45.5634   35.3373   41.5284 H   0  0  0  0  0  0  0  0  0  0  0  0
   48.3934   36.1188   41.2429 H   0  0  0  0  0  0  0  0  0  0  0  0
   48.7631   35.7000   42.6777 H   0  0  0  0  0  0  0  0  0  0  0  0
   47.5882   32.9642   41.6749 H   0  0  0  0  0  0  0  0  0  0  0  0
   43.8734   36.1677   45.5850 H   0  0  0  0  0  0  0  0  0  0  0  0
   46.3172   32.7463   45.9974 H   0  0  0  0  0  0  0  0  0  0  0  0
   45.0295   36.9713   42.1143 H   0  0  0  0  0  0  0  0  0  0  0  0
   43.9866   37.5040   43.4601 H   0  0  0  0  0  0  0  0  0  0  0  0
   46.5867   33.1591   39.6715 H   0  0  0  0  0  0  0  0  0  0  0  0
   47.5803   34.6441   39.4069 H   0  0  0  0  0  0  0  0  0  0  0  0
   49.2386   32.4315   41.6737 H   0  0  0  0  0  0  0  0  0  0  0  0
   51.2110   31.0401   41.1015 H   0  0  0  0  0  0  0  0  0  0  0  0
   51.7030   30.7319   38.6530 H   0  0  0  0  0  0  0  0  0  0  0  0
   50.3039   31.7616   36.9342 H   0  0  0  0  0  0  0  0  0  0  0  0
  1  6  1  0
  2  1  1  0
  3  2  1  0
  3  1  1  0
  4  9  2  0
  5  4  1  0
  6  5  2  0
  6  7  1  0
  7  8  2  0
  8  9  1  0
 10  5  1  0
 11  3  1  0
 12 13  1  0
 13 14  2  0
 14 11  1  0
 14 15  1  0
 16 15  2  0
 17 16  1  0
 18 13  1  0
 18 17  2  0
  1 19  1  6
  2 20  1  0
  2 21  1  0
  3 22  1  1
  4 23  1  0
  8 24  1  0
 10 25  1  0
 10 26  1  0
 11 27  1  0
 11 28  1  0
 15 29  1  0
 16 30  1  0
 17 31  1  0
 18 32  1  0
M  ISO  8  19  13  20  13  21  13  22  13  23  14  24  14  27   8  28   8
M  ISO  4  29  14  30  14  31  14  32  14
M  END
>  <minimizedAffinity>  (1) 
-5.12216568

>  <minimizedRMSD>  (1) 
1.20421422

$$$$
