
     RDKit          3D

 38 40  0  0  0  0  0  0  0  0999 V2000
   46.0220   33.9310   44.7370 C   0  0  0  0  0  0  0  0  0  0  0  0
   45.0030   34.7880   45.0620 C   0  0  0  0  0  0  0  0  0  0  0  0
   44.6100   35.8630   44.3020 C   0  0  0  0  0  0  0  0  0  0  0  0
   45.2830   36.1010   43.1270 C   0  0  0  0  0  0  0  0  0  0  0  0
   46.3120   35.2650   42.7600 C   0  0  0  0  0  0  0  0  0  0  0  0
   46.6720   34.1910   43.5650 C   0  0  0  0  0  0  0  0  0  0  0  0
   46.5440   30.4790   45.8300 C   0  0  0  0  0  0  0  0  0  0  0  0
   47.0350   30.6200   47.1270 C   0  0  0  0  0  0  0  0  0  0  0  0
   47.1900   31.9150   47.6360 C   0  0  0  0  0  0  0  0  0  0  0  0
   46.8620   32.9920   46.8630 N   0  0  0  0  0  0  0  0  0  0  0  0
   46.3810   32.8150   45.5920 C   0  0  0  0  0  0  0  0  0  0  0  0
   46.2390   31.5640   45.1170 N   0  0  0  0  0  0  0  0  0  0  0  0
   47.7410   33.4290   43.0580 N   0  0  0  0  0  0  0  0  0  0  0  0
   49.3120   33.8280   42.5270 S   0  0  0  0  0  0  0  0  0  0  0  0
   49.2550   34.1370   41.0390 O   0  0  0  0  0  0  0  0  0  0  0  0
   49.9140   35.0060   43.2180 O   0  0  0  0  0  0  0  0  0  0  0  0
   50.2650   32.4470   42.6770 O   0  0  0  0  0  0  0  0  0  0  0  0
   48.2190   30.1680   42.0830 Br  0  0  0  0  0  0  0  0  0  0  0  0
   49.7970   30.5590   41.1030 C   0  0  0  0  0  0  0  0  0  0  0  0
   50.5190   31.6280   41.5920 C   0  0  0  0  0  0  0  0  0  0  0  0
   51.6990   32.0180   40.9620 C   0  0  0  0  0  0  0  0  0  0  0  0
   52.1710   31.3390   39.8330 C   0  0  0  0  0  0  0  0  0  0  0  0
   51.4270   30.2650   39.3590 C   0  0  0  0  0  0  0  0  0  0  0  0
   50.2610   29.8880   39.9900 C   0  0  0  0  0  0  0  0  0  0  0  0
   44.4599   34.6014   46.0002 H   0  0  0  0  0  0  0  0  0  0  0  0
   43.7828   36.5129   44.6236 H   0  0  0  0  0  0  0  0  0  0  0  0
   45.0017   36.9506   42.4874 H   0  0  0  0  0  0  0  0  0  0  0  0
   46.8547   35.4483   41.8209 H   0  0  0  0  0  0  0  0  0  0  0  0
   46.4087   29.4771   45.3965 H   0  0  0  0  0  0  0  0  0  0  0  0
   47.2932   29.7391   47.7331 H   0  0  0  0  0  0  0  0  0  0  0  0
   47.5749   32.0645   48.6556 H   0  0  0  0  0  0  0  0  0  0  0  0
   47.5314   32.4225   42.9945 H   0  0  0  0  0  0  0  0  0  0  0  0
   49.0770   35.1021   40.9090 H   0  0  0  0  0  0  0  0  0  0  0  0
   49.8505   34.8817   44.1981 H   0  0  0  0  0  0  0  0  0  0  0  0
   52.2679   32.8722   41.3579 H   0  0  0  0  0  0  0  0  0  0  0  0
   53.1029   31.6461   39.3357 H   0  0  0  0  0  0  0  0  0  0  0  0
   51.7715   29.7114   38.4731 H   0  0  0  0  0  0  0  0  0  0  0  0
   49.6884   29.0344   39.5982 H   0  0  0  0  0  0  0  0  0  0  0  0
  1  2  2  0
  1 11  1  0
  3  2  1  0
  4  3  2  0
  5  4  1  0
  5  6  2  0
  6  1  1  0
  7  8  2  0
  8  9  1  0
 10  9  2  0
 11 10  1  0
 12 11  2  0
 12  7  1  0
 13  6  1  0
 14 17  1  0
 14 13  1  0
 14 16  1  0
 15 14  1  0
 19 20  2  0
 19 18  1  0
 20 17  1  0
 21 20  1  0
 22 21  2  0
 23 22  1  0
 23 24  2  0
 24 19  1  0
  2 25  1  0
  3 26  1  0
  4 27  1  0
  5 28  1  0
  7 29  1  0
  8 30  1  0
  9 31  1  0
 13 32  1  0
 15 33  1  0
 16 34  1  0
 21 35  1  0
 22 36  1  0
 23 37  1  0
 24 38  1  0
M  ISO  8  25  14  26  14  27  14  28  14  29  14  30  14  31  14  33   3
M  ISO  5  34   3  35  14  36  14  37  14  38  14
M  END
>  <minimizedAffinity>  (1) 
-5.79466724

>  <minimizedRMSD>  (1) 
2.04108024

$$$$
