
     RDKit          3D

 39 42  0  0  0  0  0  0  0  0999 V2000
   45.5480   33.1570   46.4660 C   0  0  0  0  0  0  0  0  0  0  0  0
   44.3930   36.3000   44.8260 C   0  0  0  0  0  0  0  0  0  0  0  0
   45.0090   36.1680   43.5900 C   0  0  0  0  0  0  0  0  0  0  0  0
   45.7950   35.0560   43.3000 C   0  0  0  0  0  0  0  0  0  0  0  0
   45.9270   34.1100   44.2920 N   0  0  0  0  0  0  0  0  0  0  0  0
   45.3200   34.2550   45.4940 C   0  0  0  0  0  0  0  0  0  0  0  0
   44.5750   35.3400   45.7210 N   0  0  0  0  0  0  0  0  0  0  0  0
   44.5260   33.1420   41.0010 Br  0  0  0  0  0  0  0  0  0  0  0  0
   46.1970   34.0140   41.0070 C   0  0  0  0  0  0  0  0  0  0  0  0
   46.5240   34.7700   42.1000 C   0  0  0  0  0  0  0  0  0  0  0  0
   47.8040   35.3130   41.9740 C   0  0  0  0  0  0  0  0  0  0  0  0
   48.6320   35.1170   40.8920 C   0  0  0  0  0  0  0  0  0  0  0  0
   48.2200   34.3410   39.8340 C   0  0  0  0  0  0  0  0  0  0  0  0
   46.9790   33.7850   39.9040 C   0  0  0  0  0  0  0  0  0  0  0  0
   46.7740   32.0330   45.7740 S   0  0  0  0  0  0  0  0  0  0  0  0
   47.7090   31.2360   47.0580 C   0  0  0  0  0  0  0  0  0  0  0  0
   47.9310   31.9470   48.2120 C   0  0  0  0  0  0  0  0  0  0  0  0
   48.6530   31.3420   49.2170 C   0  0  0  0  0  0  0  0  0  0  0  0
   49.1570   30.0590   49.1070 C   0  0  0  0  0  0  0  0  0  0  0  0
   49.8580   29.4910   50.0950 N   0  0  0  0  0  0  0  0  0  0  0  0
   50.3540   28.2440   49.9950 C   0  0  0  0  0  0  0  0  0  0  0  0
   50.1310   27.5340   48.8360 C   0  0  0  0  0  0  0  0  0  0  0  0
   49.4070   28.1010   47.7960 C   0  0  0  0  0  0  0  0  0  0  0  0
   48.8920   29.4010   47.9070 C   0  0  0  0  0  0  0  0  0  0  0  0
   48.1750   29.9570   46.8680 C   0  0  0  0  0  0  0  0  0  0  0  0
   45.9178   33.5717   47.4154 H   0  0  0  0  0  0  0  0  0  0  0  0
   44.6075   32.6198   46.6578 H   0  0  0  0  0  0  0  0  0  0  0  0
   43.7707   37.1773   45.0566 H   0  0  0  0  0  0  0  0  0  0  0  0
   44.8748   36.9515   42.8297 H   0  0  0  0  0  0  0  0  0  0  0  0
   48.1767   35.9411   42.7965 H   0  0  0  0  0  0  0  0  0  0  0  0
   49.6281   35.5833   40.8735 H   0  0  0  0  0  0  0  0  0  0  0  0
   48.8699   34.1753   38.9621 H   0  0  0  0  0  0  0  0  0  0  0  0
   46.6064   33.1566   39.0816 H   0  0  0  0  0  0  0  0  0  0  0  0
   47.5435   32.9697   48.3302 H   0  0  0  0  0  0  0  0  0  0  0  0
   48.8362   31.9026   50.1455 H   0  0  0  0  0  0  0  0  0  0  0  0
   50.9265   27.8003   50.8229 H   0  0  0  0  0  0  0  0  0  0  0  0
   50.5283   26.5133   48.7340 H   0  0  0  0  0  0  0  0  0  0  0  0
   49.2353   27.5246   46.8750 H   0  0  0  0  0  0  0  0  0  0  0  0
   47.9859   29.4052   45.9354 H   0  0  0  0  0  0  0  0  0  0  0  0
  2  7  2  0
  3  2  1  0
  4  3  2  0
  4  5  1  0
  5  6  2  0
  6  7  1  0
  6  1  1  0
  8  9  1  0
  9 10  2  0
 10  4  1  0
 11 10  1  0
 12 11  2  0
 13 14  2  0
 13 12  1  0
 14  9  1  0
 15  1  1  0
 15 16  1  0
 16 17  2  0
 17 18  1  0
 19 18  2  0
 19 20  1  0
 21 20  2  0
 22 21  1  0
 23 24  1  0
 23 22  2  0
 24 19  1  0
 25 16  1  0
 25 24  2  0
  1 26  1  0
  1 27  1  0
  2 28  1  0
  3 29  1  0
 11 30  1  0
 12 31  1  0
 13 32  1  0
 14 33  1  0
 17 34  1  0
 18 35  1  0
 21 36  1  0
 22 37  1  0
 23 38  1  0
 25 39  1  0
M  ISO  8  26   8  27   8  28  14  29  14  30  14  31  14  32  14  33  14
M  ISO  6  34  14  35  14  36  14  37  14  38  14  39  14
M  END
>  <minimizedAffinity>  (1) 
-6.54846096

>  <minimizedRMSD>  (1) 
1.06559956

$$$$
