
     RDKit          3D

 45 49  0  0  0  0  0  0  0  0999 V2000
   44.7430   35.9450   43.3200 Cl  0  0  0  0  0  0  0  0  0  0  0  0
   45.5010   34.7070   44.2640 C   0  0  0  0  0  0  0  0  0  0  0  0
   46.5740   34.0020   43.7530 C   0  0  0  0  0  0  0  0  0  0  0  0
   47.1060   33.0350   44.5860 C   0  0  0  0  0  0  0  0  0  0  0  0
   46.6440   32.7460   45.8520 C   0  0  0  0  0  0  0  0  0  0  0  0
   45.5810   33.4650   46.3230 C   0  0  0  0  0  0  0  0  0  0  0  0
   45.0310   33.0620   47.9400 Cl  0  0  0  0  0  0  0  0  0  0  0  0
   45.0160   34.4320   45.5440 C   0  0  0  0  0  0  0  0  0  0  0  0
   47.3460   31.6840   46.5780 C   0  0  0  0  0  0  0  0  0  0  0  0
   47.4610   30.3910   46.1010 C   0  0  0  0  0  0  0  0  0  0  0  0
   48.1170   29.3760   46.7700 C   0  0  0  0  0  0  0  0  0  0  0  0
   48.6990   29.6490   47.9870 C   0  0  0  0  0  0  0  0  0  0  0  0
   49.3330   28.6480   48.6230 N   0  0  0  0  0  0  0  0  0  0  0  0
   49.9350   28.8230   49.8240 C   0  0  0  0  0  0  0  0  0  0  0  0
   49.8630   30.0970   50.3670 C   0  0  0  0  0  0  0  0  0  0  0  0
   49.2190   31.1180   49.7250 C   0  0  0  0  0  0  0  0  0  0  0  0
   48.6100   30.9170   48.4970 C   0  0  0  0  0  0  0  0  0  0  0  0
   47.9500   31.9150   47.8140 C   0  0  0  0  0  0  0  0  0  0  0  0
   48.6750   35.3060   41.0780 C   0  0  0  0  0  0  0  0  0  0  0  0
   48.1220   34.7240   39.9280 C   0  0  0  0  0  0  0  0  0  0  0  0
   47.0110   33.8700   40.0740 C   0  0  0  0  0  0  0  0  0  0  0  0
   46.5760   33.6910   41.3350 N   0  0  0  0  0  0  0  0  0  0  0  0
   47.1140   34.2540   42.4240 C   0  0  0  0  0  0  0  0  0  0  0  0
   48.1700   35.0670   42.3070 N   0  0  0  0  0  0  0  0  0  0  0  0
   48.5260   34.4380   37.4710 Br  0  0  0  0  0  0  0  0  0  0  0  0
   46.9340   33.3830   37.6970 C   0  0  0  0  0  0  0  0  0  0  0  0
   46.3670   33.2200   38.9420 C   0  0  0  0  0  0  0  0  0  0  0  0
   45.2350   32.4570   39.0310 C   0  0  0  0  0  0  0  0  0  0  0  0
   44.7250   31.8960   37.8860 C   0  0  0  0  0  0  0  0  0  0  0  0
   45.2770   32.0480   36.6320 C   0  0  0  0  0  0  0  0  0  0  0  0
   46.4340   32.8310   36.5540 C   0  0  0  0  0  0  0  0  0  0  0  0
   47.9610   32.4535   44.2106 H   0  0  0  0  0  0  0  0  0  0  0  0
   44.1617   35.0062   45.9319 H   0  0  0  0  0  0  0  0  0  0  0  0
   47.0019   30.1564   45.1293 H   0  0  0  0  0  0  0  0  0  0  0  0
   48.1733   28.3663   46.3373 H   0  0  0  0  0  0  0  0  0  0  0  0
   50.4521   28.0004   50.3397 H   0  0  0  0  0  0  0  0  0  0  0  0
   50.3368   30.2914   51.3405 H   0  0  0  0  0  0  0  0  0  0  0  0
   49.1839   32.1140   50.1905 H   0  0  0  0  0  0  0  0  0  0  0  0
   47.8979   32.9213   48.2553 H   0  0  0  0  0  0  0  0  0  0  0  0
   49.5426   35.9745   40.9759 H   0  0  0  0  0  0  0  0  0  0  0  0
   48.5463   34.9297   38.9342 H   0  0  0  0  0  0  0  0  0  0  0  0
   44.7426   32.2959   40.0014 H   0  0  0  0  0  0  0  0  0  0  0  0
   43.8151   31.2844   37.9755 H   0  0  0  0  0  0  0  0  0  0  0  0
   44.8323   31.5795   35.7416 H   0  0  0  0  0  0  0  0  0  0  0  0
   46.9319   32.9986   35.5876 H   0  0  0  0  0  0  0  0  0  0  0  0
  1  2  1  0
  2  8  2  0
  3  2  1  0
  3  4  2  0
  4  5  1  0
  5  6  2  0
  5  9  1  0
  6  7  1  0
  8  6  1  0
  9 18  1  0
 10  9  2  0
 10 11  1  0
 11 12  2  0
 12 17  1  0
 12 13  1  0
 13 14  2  0
 14 15  1  0
 16 15  2  0
 17 16  1  0
 18 17  2  0
 19 24  2  0
 20 21  2  0
 20 19  1  0
 21 22  1  0
 22 23  2  0
 23  3  1  0
 24 23  1  0
 25 26  1  0
 26 27  2  0
 27 28  1  0
 27 21  1  0
 29 28  2  0
 30 29  1  0
 31 30  2  0
 31 26  1  0
  4 32  1  0
  8 33  1  0
 10 34  1  0
 11 35  1  0
 14 36  1  0
 15 37  1  0
 16 38  1  0
 18 39  1  0
 19 40  1  0
 20 41  1  0
 28 42  1  0
 29 43  1  0
 30 44  1  0
 31 45  1  0
M  ISO  8  32  14  33  14  34  14  35  14  36  14  37  14  38  14  39  14
M  ISO  6  40  14  41  14  42  14  43  14  44  14  45  14
M  END
>  <minimizedAffinity>  (1) 
-7.62321663

>  <minimizedRMSD>  (1) 
0.272544473

$$$$
