
     RDKit          3D

 28 30  0  0  0  0  0  0  0  0999 V2000
   45.3250   34.0060   44.9360 C   0  0  0  0  0  0  0  0  0  0  0  0
   45.0900   33.3320   43.7370 C   0  0  0  0  0  0  0  0  0  0  0  0
   45.5960   32.0230   43.5940 C   0  0  0  0  0  0  0  0  0  0  0  0
   46.2950   31.4860   44.6500 N   0  0  0  0  0  0  0  0  0  0  0  0
   46.4950   32.1800   45.7880 C   0  0  0  0  0  0  0  0  0  0  0  0
   46.0150   33.4330   45.9370 N   0  0  0  0  0  0  0  0  0  0  0  0
   47.2380   31.5900   46.8910 C   0  0  0  0  0  0  0  0  0  0  0  0
   47.5520   30.2690   46.9140 C   0  0  0  0  0  0  0  0  0  0  0  0
   48.2560   29.6760   47.9450 C   0  0  0  0  0  0  0  0  0  0  0  0
   48.6360   30.4870   48.9690 N   0  0  0  0  0  0  0  0  0  0  0  0
   48.3280   31.7840   48.9460 C   0  0  0  0  0  0  0  0  0  0  0  0
   47.6360   32.3800   47.9390 N   0  0  0  0  0  0  0  0  0  0  0  0
   45.2040   36.4480   43.3230 Br  0  0  0  0  0  0  0  0  0  0  0  0
   44.2690   35.2000   42.2500 C   0  0  0  0  0  0  0  0  0  0  0  0
   44.3590   33.8780   42.6200 C   0  0  0  0  0  0  0  0  0  0  0  0
   43.6770   32.9450   41.8420 C   0  0  0  0  0  0  0  0  0  0  0  0
   42.9270   33.3310   40.7270 C   0  0  0  0  0  0  0  0  0  0  0  0
   42.8750   34.6850   40.4040 C   0  0  0  0  0  0  0  0  0  0  0  0
   43.5430   35.6320   41.1610 C   0  0  0  0  0  0  0  0  0  0  0  0
   44.9375   35.0274   45.0646 H   0  0  0  0  0  0  0  0  0  0  0  0
   45.4368   31.4505   42.6683 H   0  0  0  0  0  0  0  0  0  0  0  0
   47.2303   29.6401   46.0708 H   0  0  0  0  0  0  0  0  0  0  0  0
   48.4968   28.6027   47.9379 H   0  0  0  0  0  0  0  0  0  0  0  0
   48.6528   32.4084   49.7913 H   0  0  0  0  0  0  0  0  0  0  0  0
   43.7298   31.8798   42.1113 H   0  0  0  0  0  0  0  0  0  0  0  0
   42.3921   32.5851   40.1208 H   0  0  0  0  0  0  0  0  0  0  0  0
   42.2912   35.0083   39.5295 H   0  0  0  0  0  0  0  0  0  0  0  0
   43.4957   36.6997   40.9007 H   0  0  0  0  0  0  0  0  0  0  0  0
  1  6  2  0
  2  1  1  0
  3  2  2  0
  3  4  1  0
  4  5  2  0
  5  6  1  0
  5  7  1  0
  7  8  2  0
  7 12  1  0
  8  9  1  0
  9 10  2  0
 11 10  1  0
 12 11  2  0
 14 15  2  0
 14 13  1  0
 15  2  1  0
 16 15  1  0
 17 16  2  0
 18 17  1  0
 18 19  2  0
 19 14  1  0
  1 20  1  0
  3 21  1  0
  8 22  1  0
  9 23  1  0
 11 24  1  0
 16 25  1  0
 17 26  1  0
 18 27  1  0
 19 28  1  0
M  ISO  8  20  14  21  14  22  14  23  14  24  14  25  14  26  14  27  14
M  ISO  1  28  14
M  END
>  <minimizedAffinity>  (1) 
-4.7992382

>  <minimizedRMSD>  (1) 
2.71021605

$$$$
