
     RDKit          3D

 43 46  0  0  0  0  0  0  0  0999 V2000
   48.3250   30.2950   45.5190 Cl  0  0  0  0  0  0  0  0  0  0  0  0
   47.3840   31.0170   46.8330 C   0  0  0  0  0  0  0  0  0  0  0  0
   46.3590   31.8850   46.4920 C   0  0  0  0  0  0  0  0  0  0  0  0
   45.6450   32.4300   47.5020 C   0  0  0  0  0  0  0  0  0  0  0  0
   45.9690   32.0990   48.8290 C   0  0  0  0  0  0  0  0  0  0  0  0
   46.9930   31.2350   49.1450 C   0  0  0  0  0  0  0  0  0  0  0  0
   47.7380   30.6640   48.1140 C   0  0  0  0  0  0  0  0  0  0  0  0
   50.0470   31.7390   49.0820 F   0  0  0  0  0  0  0  0  0  0  0  0
   49.9590   30.3970   48.8580 C   0  0  0  0  0  0  0  0  0  0  0  0
   48.8430   29.7360   48.3690 C   0  0  0  0  0  0  0  0  0  0  0  0
   48.8700   28.3770   48.1820 C   0  0  0  0  0  0  0  0  0  0  0  0
   50.0050   27.6690   48.4800 C   0  0  0  0  0  0  0  0  0  0  0  0
   51.1400   28.3010   48.9710 C   0  0  0  0  0  0  0  0  0  0  0  0
   51.1140   29.6810   49.1610 C   0  0  0  0  0  0  0  0  0  0  0  0
   44.9830   31.7030   43.1260 C   0  0  0  0  0  0  0  0  0  0  0  0
   45.6190   32.7550   42.4360 C   0  0  0  0  0  0  0  0  0  0  0  0
   46.5390   33.5260   43.1780 C   0  0  0  0  0  0  0  0  0  0  0  0
   46.7430   33.2090   44.4810 N   0  0  0  0  0  0  0  0  0  0  0  0
   46.0900   32.1730   45.0890 C   0  0  0  0  0  0  0  0  0  0  0  0
   45.2240   31.4400   44.4050 N   0  0  0  0  0  0  0  0  0  0  0  0
   43.3520   34.8430   41.6860 Br  0  0  0  0  0  0  0  0  0  0  0  0
   44.3520   33.7710   40.4530 C   0  0  0  0  0  0  0  0  0  0  0  0
   45.2600   32.9450   41.0520 C   0  0  0  0  0  0  0  0  0  0  0  0
   46.0240   32.1140   40.2260 C   0  0  0  0  0  0  0  0  0  0  0  0
   45.8630   32.1330   38.8350 C   0  0  0  0  0  0  0  0  0  0  0  0
   44.9380   32.9790   38.2590 C   0  0  0  0  0  0  0  0  0  0  0  0
   44.1950   33.7890   39.0840 C   0  0  0  0  0  0  0  0  0  0  0  0
   47.1810   34.5960   42.4340 C   0  0  0  0  0  0  0  0  0  0  0  0
   48.3550   34.9580   43.0910 F   0  0  0  0  0  0  0  0  0  0  0  0
   46.3630   35.6930   42.5230 F   0  0  0  0  0  0  0  0  0  0  0  0
   47.5110   34.2650   41.1470 F   0  0  0  0  0  0  0  0  0  0  0  0
   44.8196   33.1248   47.2878 H   0  0  0  0  0  0  0  0  0  0  0  0
   45.3828   32.5468   49.6450 H   0  0  0  0  0  0  0  0  0  0  0  0
   47.2201   30.9986   50.1950 H   0  0  0  0  0  0  0  0  0  0  0  0
   47.9821   27.8566   47.7935 H   0  0  0  0  0  0  0  0  0  0  0  0
   50.0172   26.5797   48.3274 H   0  0  0  0  0  0  0  0  0  0  0  0
   52.0449   27.7214   49.2061 H   0  0  0  0  0  0  0  0  0  0  0  0
   52.0017   30.2023   49.5485 H   0  0  0  0  0  0  0  0  0  0  0  0
   44.2595   31.0761   42.5842 H   0  0  0  0  0  0  0  0  0  0  0  0
   46.7630   31.4348   40.6762 H   0  0  0  0  0  0  0  0  0  0  0  0
   46.4742   31.4733   38.2016 H   0  0  0  0  0  0  0  0  0  0  0  0
   44.7988   33.0046   37.1681 H   0  0  0  0  0  0  0  0  0  0  0  0
   43.4547   34.4704   38.6394 H   0  0  0  0  0  0  0  0  0  0  0  0
  1  2  1  0
  2  7  2  0
  3  2  1  0
  3  4  2  0
  4  5  1  0
  5  6  2  0
  7 10  1  0
  7  6  1  0
  9  8  1  0
  9 14  2  0
 10  9  1  0
 11 10  2  0
 11 12  1  0
 12 13  2  0
 13 14  1  0
 15 20  2  0
 16 15  1  0
 16 17  2  0
 17 18  1  0
 18 19  2  0
 19  3  1  0
 20 19  1  0
 22 23  2  0
 22 21  1  0
 23 16  1  0
 24 23  1  0
 25 24  2  0
 26 25  1  0
 26 27  2  0
 27 22  1  0
 28 30  1  0
 28 29  1  0
 28 17  1  0
 31 28  1  0
  4 32  1  0
  5 33  1  0
  6 34  1  0
 11 35  1  0
 12 36  1  0
 13 37  1  0
 14 38  1  0
 15 39  1  0
 24 40  1  0
 25 41  1  0
 26 42  1  0
 27 43  1  0
M  ISO  8  32  14  33  14  34  14  35  14  36  14  37  14  38  14  39  14
M  ISO  4  40  14  41  14  42  14  43  14
M  END
>  <minimizedAffinity>  (1) 
-5.73648453

>  <minimizedRMSD>  (1) 
3.06481743

$$$$
