
     RDKit          3D

 24 25  0  0  0  0  0  0  0  0999 V2000
   44.4750   35.9350   44.7190 C   0  0  0  0  0  0  0  0  0  0  0  0
   45.2040   35.9660   43.5340 C   0  0  0  0  0  0  0  0  0  0  0  0
   46.1570   34.9860   43.2820 C   0  0  0  0  0  0  0  0  0  0  0  0
   46.3140   34.0450   44.2270 N   0  0  0  0  0  0  0  0  0  0  0  0
   45.6100   34.0190   45.3660 C   0  0  0  0  0  0  0  0  0  0  0  0
   44.6930   34.9610   45.6110 N   0  0  0  0  0  0  0  0  0  0  0  0
   47.3350   31.7740   44.2780 Br  0  0  0  0  0  0  0  0  0  0  0  0
   46.6060   31.8610   46.0170 C   0  0  0  0  0  0  0  0  0  0  0  0
   45.8400   32.9630   46.3440 C   0  0  0  0  0  0  0  0  0  0  0  0
   45.3040   33.0340   47.6130 C   0  0  0  0  0  0  0  0  0  0  0  0
   45.5390   32.0170   48.5160 C   0  0  0  0  0  0  0  0  0  0  0  0
   46.3050   30.9270   48.1730 C   0  0  0  0  0  0  0  0  0  0  0  0
   46.8700   30.8100   46.8990 C   0  0  0  0  0  0  0  0  0  0  0  0
   46.9470   34.8920   42.1600 O   0  0  0  0  0  0  0  0  0  0  0  0
   46.3590   34.2350   41.0240 C   0  0  0  0  0  0  0  0  0  0  0  0
   45.1210   34.7760   40.7510 F   0  0  0  0  0  0  0  0  0  0  0  0
   47.2060   34.4500   39.9320 F   0  0  0  0  0  0  0  0  0  0  0  0
   46.3040   32.8510   41.2360 F   0  0  0  0  0  0  0  0  0  0  0  0
   43.7209   36.7096   44.9223 H   0  0  0  0  0  0  0  0  0  0  0  0
   45.0264   36.7643   42.7983 H   0  0  0  0  0  0  0  0  0  0  0  0
   44.6906   33.8993   47.9047 H   0  0  0  0  0  0  0  0  0  0  0  0
   45.1070   32.0790   49.5257 H   0  0  0  0  0  0  0  0  0  0  0  0
   46.4763   30.1327   48.9145 H   0  0  0  0  0  0  0  0  0  0  0  0
   47.4840   29.9445   46.6094 H   0  0  0  0  0  0  0  0  0  0  0  0
  1  6  2  0
  2  1  1  0
  3  2  2  0
  3  4  1  0
  4  5  2  0
  5  6  1  0
  5  9  1  0
  7  8  1  0
  8  9  2  0
  8 13  1  0
  9 10  1  0
 10 11  2  0
 12 11  1  0
 13 12  2  0
 14  3  1  0
 15 18  1  0
 15 14  1  0
 16 15  1  0
 17 15  1  0
  1 19  1  0
  2 20  1  0
 10 21  1  0
 11 22  1  0
 12 23  1  0
 13 24  1  0
M  ISO  6  19  14  20  14  21  14  22  14  23  14  24  14
M  END
>  <minimizedAffinity>  (1) 
-5.28602457

>  <minimizedRMSD>  (1) 
0.825882137

$$$$
