
     RDKit          3D

 25 26  0  0  1  0  0  0  0  0999 V2000
   46.2310   34.8080   43.2220 C   0  0  0  0  0  0  0  0  0  0  0  0
   45.3080   35.8300   43.5660 C   0  0  0  0  0  0  0  0  0  0  0  0
   44.6390   35.6930   44.7940 C   0  0  0  0  0  0  0  0  0  0  0  0
   44.9310   34.5930   45.5540 N   0  0  0  0  0  0  0  0  0  0  0  0
   45.8150   33.6640   45.1650 C   0  0  0  0  0  0  0  0  0  0  0  0
   46.4720   33.7450   44.0190 N   0  0  0  0  0  0  0  0  0  0  0  0
   46.0650   32.5070   46.0760 C   0  0  1  0  0  0  0  0  0  0  0  0
   46.9330   32.6730   47.2830 C   0  0  0  0  0  0  0  0  0  0  0  0
   45.4490   32.6420   47.4330 C   0  0  2  0  0  0  0  0  0  0  0  0
   44.9160   31.4660   48.1920 C   0  0  0  0  0  0  0  0  0  0  0  0
   45.4720   31.5160   49.6210 C   0  0  0  0  0  0  0  0  0  0  0  0
   46.8880   35.0080   41.9600 C   0  0  0  0  0  0  0  0  0  0  0  0
   48.0630   35.4650   41.8140 O   0  0  0  0  0  0  0  0  0  0  0  0
   45.1252   36.6884   42.9028 H   0  0  0  0  0  0  0  0  0  0  0  0
   43.9078   36.4421   45.1319 H   0  0  0  0  0  0  0  0  0  0  0  0
   46.0641   31.7784   45.2519 H   0  0  0  0  0  0  0  0  0  0  0  0
   47.5397   31.8295   47.6440 H   0  0  0  0  0  0  0  0  0  0  0  0
   47.7294   33.3723   47.5773 H   0  0  0  0  0  0  0  0  0  0  0  0
   44.6487   33.2931   47.8144 H   0  0  0  0  0  0  0  0  0  0  0  0
   43.8172   31.5094   48.2197 H   0  0  0  0  0  0  0  0  0  0  0  0
   45.2222   30.5305   47.7011 H   0  0  0  0  0  0  0  0  0  0  0  0
   44.6428   31.4414   50.3399 H   0  0  0  0  0  0  0  0  0  0  0  0
   46.1664   30.6767   49.7738 H   0  0  0  0  0  0  0  0  0  0  0  0
   46.0055   32.4657   49.7738 H   0  0  0  0  0  0  0  0  0  0  0  0
   46.3293   34.7446   41.0498 H   0  0  0  0  0  0  0  0  0  0  0  0
  1  2  2  0
  1  6  1  0
  2  3  1  0
  3  4  2  0
  5  4  1  0
  5  7  1  0
  6  5  2  0
  7  8  1  0
  7  9  1  0
  8  9  1  0
  9 10  1  0
 10 11  1  0
 12  1  1  0
 13 12  2  0
  2 14  1  0
  3 15  1  0
  7 16  1  6
  8 17  1  0
  8 18  1  0
  9 19  1  6
 10 20  1  0
 10 21  1  0
 11 22  1  0
 11 23  1  0
 11 24  1  0
 12 25  1  0
M  ISO  8  14  14  15  14  16  13  17  13  18  13  19  13  20   8  21   8
M  ISO  4  22   8  23   8  24   8  25   6
M  END
>  <minimizedAffinity>  (1) 
-4.53571939

>  <minimizedRMSD>  (1) 
0.263353348

$$$$
