
     RDKit          3D

 47 50  0  0  1  0  0  0  0  0999 V2000
   45.9980   33.0910   46.2110 C   0  0  0  0  0  0  0  0  0  0  0  0
   46.8380   32.1930   45.9070 C   0  0  0  0  0  0  0  0  0  0  0  0
   44.5140   35.9720   44.4580 C   0  0  0  0  0  0  0  0  0  0  0  0
   45.1710   35.9670   43.2360 C   0  0  0  0  0  0  0  0  0  0  0  0
   46.0920   34.9900   43.0520 C   0  0  0  0  0  0  0  0  0  0  0  0
   46.3410   34.0710   44.0320 N   0  0  0  0  0  0  0  0  0  0  0  0
   45.6840   34.1080   45.2080 C   0  0  0  0  0  0  0  0  0  0  0  0
   44.7820   35.0630   45.3890 N   0  0  0  0  0  0  0  0  0  0  0  0
   46.8600   34.8560   41.8200 C   0  0  0  0  0  0  0  0  0  0  0  0
   48.0690   35.4410   41.5820 C   0  0  0  0  0  0  0  0  0  0  0  0
   48.7860   35.3050   40.4120 C   0  0  0  0  0  0  0  0  0  0  0  0
   48.2790   34.5320   39.3870 C   0  0  0  0  0  0  0  0  0  0  0  0
   47.0690   33.9140   39.5580 C   0  0  0  0  0  0  0  0  0  0  0  0
   46.3930   34.0880   40.7590 C   0  0  0  0  0  0  0  0  0  0  0  0
   47.0570   31.1210   46.9500 C   0  0  0  0  0  0  0  0  0  0  0  0
   46.8700   31.6700   48.3250 C   0  0  1  0  0  0  0  0  0  0  0  0
   46.3030   30.6840   49.2940 C   0  0  0  0  0  0  0  0  0  0  0  0
   47.6740   31.1660   49.4450 C   0  0  1  0  0  0  0  0  0  0  0  0
   48.8500   30.3040   49.1360 C   0  0  2  0  0  0  0  0  0  0  0  0
   49.7370   29.9750   50.3620 C   0  0  0  0  0  0  0  0  0  0  0  0
   50.2400   30.8960   49.3270 C   0  0  2  0  0  0  0  0  0  0  0  0
   50.3540   32.3500   49.7370 C   0  0  0  0  0  0  0  0  0  0  0  0
   51.7430   32.7790   50.0780 C   0  0  0  0  0  0  0  0  0  0  0  0
   45.5185   33.1055   47.2009 H   0  0  0  0  0  0  0  0  0  0  0  0
   47.3735   32.1932   44.9461 H   0  0  0  0  0  0  0  0  0  0  0  0
   43.7565   36.7436   44.6599 H   0  0  0  0  0  0  0  0  0  0  0  0
   44.9561   36.7152   42.4589 H   0  0  0  0  0  0  0  0  0  0  0  0
   48.5019   36.0643   42.3783 H   0  0  0  0  0  0  0  0  0  0  0  0
   49.7565   35.8097   40.2962 H   0  0  0  0  0  0  0  0  0  0  0  0
   48.8383   34.4142   38.4472 H   0  0  0  0  0  0  0  0  0  0  0  0
   46.6402   33.2913   38.7590 H   0  0  0  0  0  0  0  0  0  0  0  0
   45.4226   33.5841   40.8788 H   0  0  0  0  0  0  0  0  0  0  0  0
   46.3361   30.3065   46.7862 H   0  0  0  0  0  0  0  0  0  0  0  0
   48.0872   30.7464   46.8581 H   0  0  0  0  0  0  0  0  0  0  0  0
   46.6526   32.6854   47.9621 H   0  0  0  0  0  0  0  0  0  0  0  0
   45.5270   30.9967   50.0081 H   0  0  0  0  0  0  0  0  0  0  0  0
   45.8278   29.6952   49.2133 H   0  0  0  0  0  0  0  0  0  0  0  0
   48.2220   31.6101   50.2891 H   0  0  0  0  0  0  0  0  0  0  0  0
   48.3469   29.7589   48.3238 H   0  0  0  0  0  0  0  0  0  0  0  0
   49.4654   30.3615   51.3554 H   0  0  0  0  0  0  0  0  0  0  0  0
   50.1100   29.0483   50.8226 H   0  0  0  0  0  0  0  0  0  0  0  0
   51.1325   30.9368   48.6854 H   0  0  0  0  0  0  0  0  0  0  0  0
   49.9943   32.9730   48.9049 H   0  0  0  0  0  0  0  0  0  0  0  0
   49.7511   32.4711   50.6491 H   0  0  0  0  0  0  0  0  0  0  0  0
   51.8578   32.8145   51.1714 H   0  0  0  0  0  0  0  0  0  0  0  0
   52.4623   32.0611   49.6569 H   0  0  0  0  0  0  0  0  0  0  0  0
   51.9322   33.7774   49.6569 H   0  0  0  0  0  0  0  0  0  0  0  0
  2  1  2  0
  2 15  1  0
  3  8  2  0
  4  3  1  0
  5  4  2  0
  5  6  1  0
  6  7  2  0
  7  8  1  0
  7  1  1  0
  9  5  1  0
 10  9  2  0
 11 10  1  0
 12 13  1  0
 12 11  2  0
 13 14  2  0
 14  9  1  0
 15 16  1  0
 16 17  1  0
 16 18  1  0
 17 18  1  0
 19 21  1  0
 19 18  1  0
 19 20  1  0
 21 22  1  0
 21 20  1  0
 22 23  1  0
  1 24  1  0
  2 25  1  0
  3 26  1  0
  4 27  1  0
 10 28  1  0
 11 29  1  0
 12 30  1  0
 13 31  1  0
 14 32  1  0
 15 33  1  0
 15 34  1  0
 16 35  1  6
 17 36  1  0
 17 37  1  0
 18 38  1  1
 19 39  1  6
 20 40  1  0
 20 41  1  0
 21 42  1  6
 22 43  1  0
 22 44  1  0
 23 45  1  0
 23 46  1  0
 23 47  1  0
M  ISO  8  26  14  27  14  28  14  29  14  30  14  31  14  32  14  33   8
M  ISO  8  34   8  35  13  36  13  37  13  38  13  39  13  40  13  41  13
M  ISO  6  42  13  43   8  44   8  45   8  46   8  47   8
M  END
>  <minimizedAffinity>  (1) 
-6.35462856

>  <minimizedRMSD>  (1) 
0.910497546

$$$$
