
     RDKit          3D

 33 34  0  0  0  0  0  0  0  0999 V2000
   46.7950   34.1170   43.0100 C   0  0  0  0  0  0  0  0  0  0  0  0
   45.6290   33.7060   42.3720 C   0  0  0  0  0  0  0  0  0  0  0  0
   44.9090   32.6610   42.9710 C   0  0  0  0  0  0  0  0  0  0  0  0
   45.3640   32.1030   44.1200 N   0  0  0  0  0  0  0  0  0  0  0  0
   46.5040   32.5450   44.6950 C   0  0  0  0  0  0  0  0  0  0  0  0
   47.2240   33.5480   44.1480 N   0  0  0  0  0  0  0  0  0  0  0  0
   47.6990   29.9780   44.8010 F   0  0  0  0  0  0  0  0  0  0  0  0
   47.5920   30.7040   45.9640 C   0  0  0  0  0  0  0  0  0  0  0  0
   47.0140   31.9550   45.9410 C   0  0  0  0  0  0  0  0  0  0  0  0
   46.9390   32.6310   47.1560 C   0  0  0  0  0  0  0  0  0  0  0  0
   47.4240   32.0560   48.3130 C   0  0  0  0  0  0  0  0  0  0  0  0
   47.9970   30.7880   48.2730 C   0  0  0  0  0  0  0  0  0  0  0  0
   48.0890   30.0890   47.0850 C   0  0  0  0  0  0  0  0  0  0  0  0
   48.7030   28.7340   47.0250 C   0  0  0  0  0  0  0  0  0  0  0  0
   49.4530   28.3940   48.2780 C   0  0  0  0  0  0  0  0  0  0  0  0
   45.2030   34.3680   41.1220 C   0  0  0  0  0  0  0  0  0  0  0  0
   44.9180   35.6930   41.3610 F   0  0  0  0  0  0  0  0  0  0  0  0
   46.2730   34.3350   40.2420 F   0  0  0  0  0  0  0  0  0  0  0  0
   44.1200   33.8070   40.5220 F   0  0  0  0  0  0  0  0  0  0  0  0
   47.4920   35.1300   42.4270 O   0  0  0  0  0  0  0  0  0  0  0  0
   48.7970   35.0690   41.9150 C   0  0  0  0  0  0  0  0  0  0  0  0
   49.6760   35.3040   42.9820 F   0  0  0  0  0  0  0  0  0  0  0  0
   49.0130   33.8590   41.3140 F   0  0  0  0  0  0  0  0  0  0  0  0
   49.0080   36.1240   41.0550 F   0  0  0  0  0  0  0  0  0  0  0  0
   43.9792   32.2960   42.5103 H   0  0  0  0  0  0  0  0  0  0  0  0
   46.4885   33.6338   47.1940 H   0  0  0  0  0  0  0  0  0  0  0  0
   47.3578   32.5997   49.2669 H   0  0  0  0  0  0  0  0  0  0  0  0
   48.3816   30.3367   49.1995 H   0  0  0  0  0  0  0  0  0  0  0  0
   47.9059   27.9905   46.8769 H   0  0  0  0  0  0  0  0  0  0  0  0
   49.4197   28.7256   46.1906 H   0  0  0  0  0  0  0  0  0  0  0  0
   48.8471   28.6687   49.1540 H   0  0  0  0  0  0  0  0  0  0  0  0
   49.6603   27.3139   48.2996 H   0  0  0  0  0  0  0  0  0  0  0  0
   50.4019   28.9499   48.2996 H   0  0  0  0  0  0  0  0  0  0  0  0
  1  6  2  0
  2  3  2  0
  2  1  1  0
  3  4  1  0
  4  5  2  0
  5  9  1  0
  6  5  1  0
  7  8  1  0
  8 13  2  0
  9  8  1  0
  9 10  2  0
 10 11  1  0
 12 11  2  0
 13 12  1  0
 14 13  1  0
 14 15  1  0
 16 17  1  0
 16  2  1  0
 18 16  1  0
 19 16  1  0
 20  1  1  0
 21 20  1  0
 21 22  1  0
 23 21  1  0
 24 21  1  0
  3 25  1  0
 10 26  1  0
 11 27  1  0
 12 28  1  0
 14 29  1  0
 14 30  1  0
 15 31  1  0
 15 32  1  0
 15 33  1  0
M  ISO  8  25  14  26  14  27  14  28  14  29   8  30   8  31   8  32   8
M  ISO  1  33   8
M  END
>  <minimizedAffinity>  (1) 
-5.37250519

>  <minimizedRMSD>  (1) 
0.0723404959

$$$$
