
     RDKit          3D

 17 17  0  0  0  0  0  0  0  0999 V2000
   45.8500   34.0150   45.0190 C   0  0  0  0  0  0  0  0  0  0  0  0
   44.9130   35.0310   45.2310 C   0  0  0  0  0  0  0  0  0  0  0  0
   44.7040   35.9710   44.2120 C   0  0  0  0  0  0  0  0  0  0  0  0
   45.4320   35.8410   43.0660 N   0  0  0  0  0  0  0  0  0  0  0  0
   46.3250   34.8510   42.8970 C   0  0  0  0  0  0  0  0  0  0  0  0
   46.5450   33.9360   43.8570 N   0  0  0  0  0  0  0  0  0  0  0  0
   46.0390   32.8650   46.3850 S   0  0  0  0  0  0  0  0  0  0  0  0
   47.0760   34.7840   41.6140 C   0  0  0  0  0  0  0  0  0  0  0  0
   48.4320   35.4630   41.7960 C   0  0  0  0  0  0  0  0  0  0  0  0
   44.3527   35.0914   46.1757 H   0  0  0  0  0  0  0  0  0  0  0  0
   43.9763   36.7870   44.3329 H   0  0  0  0  0  0  0  0  0  0  0  0
   45.9277   33.5421   47.5707 H   0  0  0  0  0  0  0  0  0  0  0  0
   46.5076   35.3004   40.8265 H   0  0  0  0  0  0  0  0  0  0  0  0
   47.2224   33.7333   41.3233 H   0  0  0  0  0  0  0  0  0  0  0  0
   48.6470   35.5707   42.8694 H   0  0  0  0  0  0  0  0  0  0  0  0
   49.2149   34.8506   41.3248 H   0  0  0  0  0  0  0  0  0  0  0  0
   48.4106   36.4568   41.3248 H   0  0  0  0  0  0  0  0  0  0  0  0
  1  2  2  0
  1  7  1  0
  3  2  1  0
  4  3  2  0
  5  4  1  0
  5  6  2  0
  6  1  1  0
  8  9  1  0
  8  5  1  0
  2 10  1  0
  3 11  1  0
  7 12  1  0
  8 13  1  0
  8 14  1  0
  9 15  1  0
  9 16  1  0
  9 17  1  0
M  ISO  8  10  14  11  14  12  11  13   8  14   8  15   8  16   8  17   8
M  END
>  <minimizedAffinity>  (1) 
-3.59639144

>  <minimizedRMSD>  (1) 
4.51848745

$$$$
