
     RDKit          3D

 44 46  0  0  1  0  0  0  0  0999 V2000
   45.7650   32.6630   40.2270 C   0  0  1  0  0  0  0  0  0  0  0  0
   44.7400   33.6280   39.9310 N   0  0  0  0  0  0  0  0  0  0  0  0
   43.7120   33.1190   39.1040 C   0  0  0  0  0  0  0  0  0  0  0  0
   42.9590   34.3560   38.5830 C   0  0  0  0  0  0  0  0  0  0  0  0
   42.2420   34.8160   39.7430 N   0  0  0  0  0  0  0  0  0  0  0  0
   43.0920   35.1990   40.7950 C   0  0  0  0  0  0  0  0  0  0  0  0
   44.2540   34.2590   41.0840 C   0  0  0  0  0  0  0  0  0  0  0  0
   47.7670   31.5620   39.2270 C   0  0  0  0  0  0  0  0  0  0  0  0
   46.8860   32.6230   39.3420 C   0  0  0  0  0  0  0  0  0  0  0  0
   47.1490   33.7260   38.5060 C   0  0  0  0  0  0  0  0  0  0  0  0
   48.2200   33.6950   37.6540 N   0  0  0  0  0  0  0  0  0  0  0  0
   49.0410   32.6150   37.6000 C   0  0  0  0  0  0  0  0  0  0  0  0
   48.8100   31.5510   38.3880 N   0  0  0  0  0  0  0  0  0  0  0  0
   46.2870   32.9180   41.6460 C   0  0  0  0  0  0  0  0  0  0  0  0
   47.3770   33.8260   41.7720 C   0  0  0  0  0  0  0  0  0  0  0  0
   47.5790   35.1630   41.7340 C   0  0  0  0  0  0  0  0  0  0  0  0
   48.7710   35.8480   41.8760 C   0  0  0  0  0  0  0  0  0  0  0  0
   49.8420   35.0930   42.0730 N   0  0  0  0  0  0  0  0  0  0  0  0
   49.7360   33.7850   42.1250 C   0  0  0  0  0  0  0  0  0  0  0  0
   48.5610   33.2060   41.9790 N   0  0  0  0  0  0  0  0  0  0  0  0
   51.0090   33.0050   42.3530 C   0  0  0  0  0  0  0  0  0  0  0  0
   51.2580   32.0250   41.2670 C   0  0  0  0  0  0  0  0  0  0  0  0
   45.2684   31.6889   40.1063 H   0  0  0  0  0  0  0  0  0  0  0  0
   44.1388   32.5470   38.2669 H   0  0  0  0  0  0  0  0  0  0  0  0
   43.0469   32.4347   39.6512 H   0  0  0  0  0  0  0  0  0  0  0  0
   43.6609   35.1227   38.2232 H   0  0  0  0  0  0  0  0  0  0  0  0
   42.3019   34.1337   37.7293 H   0  0  0  0  0  0  0  0  0  0  0  0
   41.6666   35.6267   39.4736 H   0  0  0  0  0  0  0  0  0  0  0  0
   43.5099   36.1863   40.5488 H   0  0  0  0  0  0  0  0  0  0  0  0
   42.4684   35.1902   41.7011 H   0  0  0  0  0  0  0  0  0  0  0  0
   43.9148   33.4874   41.7908 H   0  0  0  0  0  0  0  0  0  0  0  0
   45.0730   34.8626   41.5022 H   0  0  0  0  0  0  0  0  0  0  0  0
   47.6009   30.6782   39.8605 H   0  0  0  0  0  0  0  0  0  0  0  0
   46.4953   34.6101   38.5378 H   0  0  0  0  0  0  0  0  0  0  0  0
   49.8974   32.6108   36.9096 H   0  0  0  0  0  0  0  0  0  0  0  0
   45.4520   33.3145   42.2423 H   0  0  0  0  0  0  0  0  0  0  0  0
   46.6766   31.9484   41.9898 H   0  0  0  0  0  0  0  0  0  0  0  0
   46.6842   35.7813   41.5698 H   0  0  0  0  0  0  0  0  0  0  0  0
   48.8268   36.9456   41.8287 H   0  0  0  0  0  0  0  0  0  0  0  0
   51.8538   33.7080   42.3985 H   0  0  0  0  0  0  0  0  0  0  0  0
   50.9048   32.4497   43.2968 H   0  0  0  0  0  0  0  0  0  0  0  0
   51.5064   31.0472   41.7054 H   0  0  0  0  0  0  0  0  0  0  0  0
   50.3556   31.9295   40.6453 H   0  0  0  0  0  0  0  0  0  0  0  0
   52.0966   32.3718   40.6453 H   0  0  0  0  0  0  0  0  0  0  0  0
  1 14  1  0
  2  1  1  0
  2  7  1  0
  3  2  1  0
  4  3  1  0
  4  5  1  0
  5  6  1  0
  6  7  1  0
  8  9  2  0
  9  1  1  0
 10  9  1  0
 11 10  2  0
 12 11  1  0
 12 13  2  0
 13  8  1  0
 14 15  1  0
 15 20  1  0
 16 15  2  0
 16 17  1  0
 17 18  2  0
 18 19  1  0
 19 21  1  0
 20 19  2  0
 22 21  1  0
  1 23  1  1
  3 24  1  0
  3 25  1  0
  4 26  1  0
  4 27  1  0
  5 28  1  0
  6 29  1  0
  6 30  1  0
  7 31  1  0
  7 32  1  0
  8 33  1  0
 10 34  1  0
 12 35  1  0
 14 36  1  0
 14 37  1  0
 16 38  1  0
 17 39  1  0
 21 40  1  0
 21 41  1  0
 22 42  1  0
 22 43  1  0
 22 44  1  0
M  ISO  8  23   8  24  13  25  13  26  13  27  13  28   5  29  13  30  13
M  ISO  8  31  13  32  13  33  14  34  14  35  14  36   8  37   8  38  14
M  ISO  6  39  14  40   8  41   8  42   8  43   8  44   8
M  END
>  <minimizedAffinity>  (1) 
-4.0125289

>  <minimizedRMSD>  (1) 
0.611248195

$$$$
