
     RDKit          3D

 32 34  0  0  0  0  0  0  0  0999 V2000
   45.0570   32.9090   41.2520 Cl  0  0  0  0  0  0  0  0  0  0  0  0
   46.4940   33.8800   41.0440 C   0  0  0  0  0  0  0  0  0  0  0  0
   46.9190   34.7570   41.9930 C   0  0  0  0  0  0  0  0  0  0  0  0
   48.0620   35.4570   41.7020 C   0  0  0  0  0  0  0  0  0  0  0  0
   48.7510   35.3140   40.5580 C   0  0  0  0  0  0  0  0  0  0  0  0
   48.3230   34.4320   39.6060 C   0  0  0  0  0  0  0  0  0  0  0  0
   47.1710   33.7010   39.8520 C   0  0  0  0  0  0  0  0  0  0  0  0
   44.4650   35.9940   44.6050 C   0  0  0  0  0  0  0  0  0  0  0  0
   45.2080   35.8910   43.4230 C   0  0  0  0  0  0  0  0  0  0  0  0
   46.1450   34.8760   43.2090 C   0  0  0  0  0  0  0  0  0  0  0  0
   46.2780   33.9940   44.2440 N   0  0  0  0  0  0  0  0  0  0  0  0
   45.5560   34.1120   45.3670 C   0  0  0  0  0  0  0  0  0  0  0  0
   44.6620   35.0920   45.5530 N   0  0  0  0  0  0  0  0  0  0  0  0
   46.6930   32.7370   38.8240 C   0  0  0  0  0  0  0  0  0  0  0  0
   46.7040   31.3450   39.0500 C   0  0  0  0  0  0  0  0  0  0  0  0
   46.0270   30.6950   37.4890 S   0  0  0  0  0  0  0  0  0  0  0  0
   45.8400   32.4410   36.7830 C   0  0  0  0  0  0  0  0  0  0  0  0
   46.2320   33.0210   37.6570 N   0  0  0  0  0  0  0  0  0  0  0  0
   45.2860   32.6350   35.4040 C   0  0  0  0  0  0  0  0  0  0  0  0
   44.8140   31.3490   34.7820 C   0  0  0  0  0  0  0  0  0  0  0  0
   48.4351   36.1753   42.4468 H   0  0  0  0  0  0  0  0  0  0  0  0
   49.6611   35.9077   40.3871 H   0  0  0  0  0  0  0  0  0  0  0  0
   48.8798   34.3049   38.6659 H   0  0  0  0  0  0  0  0  0  0  0  0
   43.7349   36.8053   44.7424 H   0  0  0  0  0  0  0  0  0  0  0  0
   45.0482   36.6381   42.6316 H   0  0  0  0  0  0  0  0  0  0  0  0
   45.7037   33.3737   46.1689 H   0  0  0  0  0  0  0  0  0  0  0  0
   47.0365   30.7928   39.9414 H   0  0  0  0  0  0  0  0  0  0  0  0
   44.4362   33.3312   35.4608 H   0  0  0  0  0  0  0  0  0  0  0  0
   46.0953   33.0318   34.7735 H   0  0  0  0  0  0  0  0  0  0  0  0
   44.5512   30.6331   35.5747 H   0  0  0  0  0  0  0  0  0  0  0  0
   43.9297   31.5463   34.1583 H   0  0  0  0  0  0  0  0  0  0  0  0
   45.6160   30.9274   34.1583 H   0  0  0  0  0  0  0  0  0  0  0  0
  2  1  1  0
  2  3  2  0
  3 10  1  0
  4  3  1  0
  5  4  2  0
  6  7  2  0
  6  5  1  0
  7  2  1  0
  8 13  2  0
  9  8  1  0
 10  9  2  0
 10 11  1  0
 11 12  2  0
 12 13  1  0
 14 15  2  0
 14  7  1  0
 16 15  1  0
 17 16  1  0
 17 18  2  0
 18 14  1  0
 19 17  1  0
 20 19  1  0
  4 21  1  0
  5 22  1  0
  6 23  1  0
  8 24  1  0
  9 25  1  0
 12 26  1  0
 15 27  1  0
 19 28  1  0
 19 29  1  0
 20 30  1  0
 20 31  1  0
 20 32  1  0
M  ISO  8  21  14  22  14  23  14  24  14  25  14  26  14  27  14  28   8
M  ISO  4  29   8  30   8  31   8  32   8
M  END
>  <minimizedAffinity>  (1) 
-5.32670021

>  <minimizedRMSD>  (1) 
0.428554803

$$$$
