
     RDKit          3D

 29 30  0  0  0  0  0  0  0  0999 V2000
   45.4300   32.1480   40.6630 Cl  0  0  0  0  0  0  0  0  0  0  0  0
   46.6860   33.2600   40.2190 C   0  0  0  0  0  0  0  0  0  0  0  0
   47.2910   34.0660   41.1590 C   0  0  0  0  0  0  0  0  0  0  0  0
   48.2990   34.9660   40.8340 C   0  0  0  0  0  0  0  0  0  0  0  0
   48.6640   35.0060   39.5020 C   0  0  0  0  0  0  0  0  0  0  0  0
   48.0700   34.2100   38.5540 C   0  0  0  0  0  0  0  0  0  0  0  0
   47.0950   33.3450   38.9000 C   0  0  0  0  0  0  0  0  0  0  0  0
   46.9310   32.9060   44.6350 C   0  0  0  0  0  0  0  0  0  0  0  0
   46.0030   33.8210   45.1700 C   0  0  0  0  0  0  0  0  0  0  0  0
   45.5180   34.8160   44.3340 C   0  0  0  0  0  0  0  0  0  0  0  0
   45.9480   34.8730   43.0460 N   0  0  0  0  0  0  0  0  0  0  0  0
   46.8520   33.9710   42.5530 C   0  0  0  0  0  0  0  0  0  0  0  0
   47.3320   33.0000   43.3510 N   0  0  0  0  0  0  0  0  0  0  0  0
   44.5190   35.8560   44.7780 C   0  0  0  0  0  0  0  0  0  0  0  0
   44.9950   37.1270   44.5370 F   0  0  0  0  0  0  0  0  0  0  0  0
   43.3410   35.6750   44.0690 F   0  0  0  0  0  0  0  0  0  0  0  0
   44.3060   35.6450   46.1170 F   0  0  0  0  0  0  0  0  0  0  0  0
   46.4150   32.4470   37.8980 C   0  0  0  0  0  0  0  0  0  0  0  0
   45.5940   33.2830   36.9290 C   0  0  0  0  0  0  0  0  0  0  0  0
   48.7765   35.6066   41.5901 H   0  0  0  0  0  0  0  0  0  0  0  0
   49.4584   35.7000   39.1901 H   0  0  0  0  0  0  0  0  0  0  0  0
   48.3918   34.2784   37.5044 H   0  0  0  0  0  0  0  0  0  0  0  0
   47.3334   32.1050   45.2725 H   0  0  0  0  0  0  0  0  0  0  0  0
   45.6736   33.7487   46.2170 H   0  0  0  0  0  0  0  0  0  0  0  0
   47.1756   31.8822   37.3390 H   0  0  0  0  0  0  0  0  0  0  0  0
   45.7501   31.7496   38.4286 H   0  0  0  0  0  0  0  0  0  0  0  0
   44.9329   33.9562   37.4945 H   0  0  0  0  0  0  0  0  0  0  0  0
   46.2684   33.8781   36.2957 H   0  0  0  0  0  0  0  0  0  0  0  0
   44.9868   32.6195   36.2957 H   0  0  0  0  0  0  0  0  0  0  0  0
  2  1  1  0
  2  3  2  0
  3 12  1  0
  4  3  1  0
  5  4  2  0
  6  7  2  0
  6  5  1  0
  7  2  1  0
  8  9  2  0
 10 14  1  0
 10  9  1  0
 11 10  2  0
 12 11  1  0
 12 13  2  0
 13  8  1  0
 14 17  1  0
 15 14  1  0
 16 14  1  0
 18  7  1  0
 19 18  1  0
  4 20  1  0
  5 21  1  0
  6 22  1  0
  8 23  1  0
  9 24  1  0
 18 25  1  0
 18 26  1  0
 19 27  1  0
 19 28  1  0
 19 29  1  0
M  ISO  8  20  14  21  14  22  14  23  14  24  14  25   8  26   8  27   8
M  ISO  2  28   8  29   8
M  END
>  <minimizedAffinity>  (1) 
-5.13580465

>  <minimizedRMSD>  (1) 
1.37627089

$$$$
