
     RDKit          3D

 23 24  0  0  0  0  0  0  0  0999 V2000
   45.2050   34.9450   43.3350 C   0  0  0  0  0  0  0  0  0  0  0  0
   46.2930   35.0700   42.4540 C   0  0  0  0  0  0  0  0  0  0  0  0
   47.4380   34.3700   42.8090 C   0  0  0  0  0  0  0  0  0  0  0  0
   47.4390   33.6200   43.9630 N   0  0  0  0  0  0  0  0  0  0  0  0
   46.3660   33.5290   44.7770 C   0  0  0  0  0  0  0  0  0  0  0  0
   45.2390   34.2050   44.4500 N   0  0  0  0  0  0  0  0  0  0  0  0
   48.6660   34.3990   41.9430 C   0  0  0  0  0  0  0  0  0  0  0  0
   49.0080   35.7970   41.4710 C   0  0  0  0  0  0  0  0  0  0  0  0
   49.8730   35.0030   42.4910 C   0  0  0  0  0  0  0  0  0  0  0  0
   43.9480   35.6700   43.0130 C   0  0  0  0  0  0  0  0  0  0  0  0
   43.7070   35.5660   41.5280 C   0  0  0  0  0  0  0  0  0  0  0  0
   46.2406   35.6829   41.5421 H   0  0  0  0  0  0  0  0  0  0  0  0
   46.4063   32.9166   45.6898 H   0  0  0  0  0  0  0  0  0  0  0  0
   48.4902   33.4224   41.4683 H   0  0  0  0  0  0  0  0  0  0  0  0
   49.3687   35.9685   40.4461 H   0  0  0  0  0  0  0  0  0  0  0  0
   48.5043   36.7745   41.4437 H   0  0  0  0  0  0  0  0  0  0  0  0
   49.9016   35.3134   43.5459 H   0  0  0  0  0  0  0  0  0  0  0  0
   50.9313   34.7085   42.5479 H   0  0  0  0  0  0  0  0  0  0  0  0
   43.1073   35.2168   43.5587 H   0  0  0  0  0  0  0  0  0  0  0  0
   44.0335   36.7258   43.3095 H   0  0  0  0  0  0  0  0  0  0  0  0
   42.7107   35.1361   41.3474 H   0  0  0  0  0  0  0  0  0  0  0  0
   43.7614   36.5677   41.0767 H   0  0  0  0  0  0  0  0  0  0  0  0
   44.4731   34.9184   41.0767 H   0  0  0  0  0  0  0  0  0  0  0  0
  1  6  2  0
  2  3  2  0
  2  1  1  0
  3  4  1  0
  4  5  2  0
  6  5  1  0
  7  9  1  0
  7  3  1  0
  8  7  1  0
  8  9  1  0
 10  1  1  0
 11 10  1  0
  2 12  1  0
  5 13  1  0
  7 14  1  0
  8 15  1  0
  8 16  1  0
  9 17  1  0
  9 18  1  0
 10 19  1  0
 10 20  1  0
 11 21  1  0
 11 22  1  0
 11 23  1  0
M  ISO  8  12  14  13  14  14  13  15  13  16  13  17  13  18  13  19   8
M  ISO  4  20   8  21   8  22   8  23   8
M  END
>  <minimizedAffinity>  (1) 
-4.09076691

>  <minimizedRMSD>  (1) 
1.59515429

$$$$
