
     RDKit          3D

 23 24  0  0  1  0  0  0  0  0999 V2000
   47.2170   34.3070   42.1320 C   0  0  1  0  0  0  0  0  0  0  0  0
   48.1350   35.4370   41.7110 C   0  0  0  0  0  0  0  0  0  0  0  0
   48.6390   34.1700   42.4250 C   0  0  2  0  0  0  0  0  0  0  0  0
   44.6610   36.0430   44.2930 C   0  0  0  0  0  0  0  0  0  0  0  0
   45.4880   35.7990   43.1820 C   0  0  0  0  0  0  0  0  0  0  0  0
   46.3060   34.6830   43.2670 C   0  0  0  0  0  0  0  0  0  0  0  0
   46.2750   33.8930   44.3920 N   0  0  0  0  0  0  0  0  0  0  0  0
   45.4610   34.1670   45.4400 C   0  0  0  0  0  0  0  0  0  0  0  0
   44.6580   35.2460   45.3770 N   0  0  0  0  0  0  0  0  0  0  0  0
   49.4880   33.1960   41.6530 C   0  0  0  0  0  0  0  0  0  0  0  0
   50.8620   33.2540   42.3380 C   0  0  0  0  0  0  0  0  0  0  0  0
   46.4979   33.6417   41.6317 H   0  0  0  0  0  0  0  0  0  0  0  0
   48.3610   35.6057   40.6478 H   0  0  0  0  0  0  0  0  0  0  0  0
   48.1908   36.5220   41.8834 H   0  0  0  0  0  0  0  0  0  0  0  0
   49.2126   33.9603   43.3398 H   0  0  0  0  0  0  0  0  0  0  0  0
   43.9928   36.9166   44.2751 H   0  0  0  0  0  0  0  0  0  0  0  0
   45.4859   36.4544   42.2985 H   0  0  0  0  0  0  0  0  0  0  0  0
   45.4563   33.5182   46.3283 H   0  0  0  0  0  0  0  0  0  0  0  0
   49.5664   33.4996   40.5986 H   0  0  0  0  0  0  0  0  0  0  0  0
   49.0639   32.1810   41.6528 H   0  0  0  0  0  0  0  0  0  0  0  0
   50.7279   33.2483   43.4298 H   0  0  0  0  0  0  0  0  0  0  0  0
   51.4588   32.3802   42.0373 H   0  0  0  0  0  0  0  0  0  0  0  0
   51.3830   34.1749   42.0373 H   0  0  0  0  0  0  0  0  0  0  0  0
  1  3  1  0
  1  6  1  0
  2  1  1  0
  2  3  1  0
  4  9  2  0
  5  6  2  0
  5  4  1  0
  6  7  1  0
  7  8  2  0
  9  8  1  0
 10 11  1  0
 10  3  1  0
  1 12  1  6
  2 13  1  0
  2 14  1  0
  3 15  1  1
  4 16  1  0
  5 17  1  0
  8 18  1  0
 10 19  1  0
 10 20  1  0
 11 21  1  0
 11 22  1  0
 11 23  1  0
M  ISO  8  12  13  13  13  14  13  15  13  16  14  17  14  18  14  19   8
M  ISO  4  20   8  21   8  22   8  23   8
M  END
>  <minimizedAffinity>  (1) 
-4.16526365

>  <minimizedRMSD>  (1) 
0.915494859

$$$$
