
     RDKit          3D

 36 38  0  0  1  0  0  0  0  0999 V2000
   46.3630   35.1810   42.0140 C   0  0  2  0  0  0  0  0  0  0  0  0
   45.5390   35.2470   43.2730 C   0  0  0  0  0  0  0  0  0  0  0  0
   44.2190   35.7290   42.6380 C   0  0  0  0  0  0  0  0  0  0  0  0
   44.1610   35.0480   41.2960 C   0  0  1  0  0  0  0  0  0  0  0  0
   45.4380   34.2920   41.1770 C   0  0  0  0  0  0  0  0  0  0  0  0
   50.0660   34.5250   42.3560 C   0  0  0  0  0  0  0  0  0  0  0  0
   48.8750   35.2410   42.1870 C   0  0  0  0  0  0  0  0  0  0  0  0
   47.6770   34.5190   42.2010 C   0  0  0  0  0  0  0  0  0  0  0  0
   47.7080   33.1430   42.3800 N   0  0  0  0  0  0  0  0  0  0  0  0
   48.8930   32.5050   42.5390 C   0  0  0  0  0  0  0  0  0  0  0  0
   50.0580   33.1890   42.5280 N   0  0  0  0  0  0  0  0  0  0  0  0
   43.0600   34.0360   41.1790 C   0  0  2  0  0  0  0  0  0  0  0  0
   42.8970   33.3480   39.9080 C   0  0  0  0  0  0  0  0  0  0  0  0
   41.8140   34.2410   40.5170 C   0  0  2  0  0  0  0  0  0  0  0  0
   41.3150   35.4590   39.8190 C   0  0  0  0  0  0  0  0  0  0  0  0
   40.3560   36.2640   40.7180 C   0  0  0  0  0  0  0  0  0  0  0  0
   46.6281   36.1643   41.5982 H   0  0  0  0  0  0  0  0  0  0  0  0
   45.4351   34.2639   43.7554 H   0  0  0  0  0  0  0  0  0  0  0  0
   45.9427   35.8725   44.0828 H   0  0  0  0  0  0  0  0  0  0  0  0
   43.3606   35.4334   43.2590 H   0  0  0  0  0  0  0  0  0  0  0  0
   44.1797   36.8246   42.5476 H   0  0  0  0  0  0  0  0  0  0  0  0
   43.9906   35.8149   40.5261 H   0  0  0  0  0  0  0  0  0  0  0  0
   45.3529   33.2805   41.6009 H   0  0  0  0  0  0  0  0  0  0  0  0
   45.7761   34.1199   40.1445 H   0  0  0  0  0  0  0  0  0  0  0  0
   51.0255   35.0629   42.3482 H   0  0  0  0  0  0  0  0  0  0  0  0
   48.8810   36.3322   42.0482 H   0  0  0  0  0  0  0  0  0  0  0  0
   48.9065   31.4140   42.6791 H   0  0  0  0  0  0  0  0  0  0  0  0
   43.2683   33.7505   42.2207 H   0  0  0  0  0  0  0  0  0  0  0  0
   42.7677   32.2561   39.8770 H   0  0  0  0  0  0  0  0  0  0  0  0
   43.4437   33.2990   38.9547 H   0  0  0  0  0  0  0  0  0  0  0  0
   40.7696   34.1655   40.8539 H   0  0  0  0  0  0  0  0  0  0  0  0
   42.1717   36.0941   39.5492 H   0  0  0  0  0  0  0  0  0  0  0  0
   40.7664   35.1442   38.9190 H   0  0  0  0  0  0  0  0  0  0  0  0
   40.5912   36.0666   41.7743 H   0  0  0  0  0  0  0  0  0  0  0  0
   40.4737   37.3379   40.5106 H   0  0  0  0  0  0  0  0  0  0  0  0
   39.3188   35.9620   40.5106 H   0  0  0  0  0  0  0  0  0  0  0  0
  1  8  1  0
  1  2  1  0
  3  2  1  0
  4  3  1  0
  5  4  1  0
  5  1  1  0
  6 11  2  0
  7  8  2  0
  7  6  1  0
  8  9  1  0
  9 10  2  0
 11 10  1  0
 12  4  1  0
 13 14  1  0
 13 12  1  0
 14 12  1  0
 15 14  1  0
 15 16  1  0
  1 17  1  6
  2 18  1  0
  2 19  1  0
  3 20  1  0
  3 21  1  0
  4 22  1  6
  5 23  1  0
  5 24  1  0
  6 25  1  0
  7 26  1  0
 10 27  1  0
 12 28  1  1
 13 29  1  0
 13 30  1  0
 14 31  1  1
 15 32  1  0
 15 33  1  0
 16 34  1  0
 16 35  1  0
 16 36  1  0
M  ISO  8  17  13  18  13  19  13  20  13  21  13  22  13  23  13  24  13
M  ISO  8  25  14  26  14  27  14  28  13  29  13  30  13  31  13  32   8
M  ISO  4  33   8  34   8  35   8  36   8
M  END
>  <minimizedAffinity>  (1) 
-4.72493839

>  <minimizedRMSD>  (1) 
6.14678478

$$$$
