
     RDKit          3D

 29 30  0  0  1  0  0  0  0  0999 V2000
   46.9740   34.7500   41.4600 C   0  0  0  0  0  0  0  0  0  0  0  0
   48.4620   34.7220   41.3190 C   0  0  1  0  0  0  0  0  0  0  0  0
   49.1990   35.9970   41.5820 C   0  0  0  0  0  0  0  0  0  0  0  0
   49.2610   34.8880   42.5520 C   0  0  2  0  0  0  0  0  0  0  0  0
   50.5740   34.1060   42.4610 C   0  0  0  0  0  0  0  0  0  0  0  0
   50.3190   32.7750   41.8050 C   0  0  0  0  0  0  0  0  0  0  0  0
   46.6370   33.6700   42.4620 C   0  0  0  0  0  0  0  0  0  0  0  0
   44.5690   36.0420   44.5100 C   0  0  0  0  0  0  0  0  0  0  0  0
   45.2490   35.4700   43.3890 C   0  0  0  0  0  0  0  0  0  0  0  0
   45.8730   34.2680   43.5870 C   0  0  0  0  0  0  0  0  0  0  0  0
   45.8200   33.6750   44.8130 N   0  0  0  0  0  0  0  0  0  0  0  0
   45.1870   34.2200   45.8360 C   0  0  0  0  0  0  0  0  0  0  0  0
   44.5660   35.3940   45.6900 N   0  0  0  0  0  0  0  0  0  0  0  0
   46.4932   34.5396   40.4933 H   0  0  0  0  0  0  0  0  0  0  0  0
   46.6163   35.7362   41.7908 H   0  0  0  0  0  0  0  0  0  0  0  0
   48.4340   33.9906   40.4978 H   0  0  0  0  0  0  0  0  0  0  0  0
   50.0847   36.2549   40.9828 H   0  0  0  0  0  0  0  0  0  0  0  0
   48.9236   37.0609   41.6307 H   0  0  0  0  0  0  0  0  0  0  0  0
   49.0695   34.7982   43.6315 H   0  0  0  0  0  0  0  0  0  0  0  0
   51.3003   34.6765   41.8634 H   0  0  0  0  0  0  0  0  0  0  0  0
   50.9772   33.9461   43.4719 H   0  0  0  0  0  0  0  0  0  0  0  0
   50.1719   32.0071   42.5787 H   0  0  0  0  0  0  0  0  0  0  0  0
   49.4173   32.8418   41.1785 H   0  0  0  0  0  0  0  0  0  0  0  0
   51.1815   32.5038   41.1785 H   0  0  0  0  0  0  0  0  0  0  0  0
   46.0281   32.8938   41.9754 H   0  0  0  0  0  0  0  0  0  0  0  0
   47.5643   33.2183   42.8441 H   0  0  0  0  0  0  0  0  0  0  0  0
   44.0509   37.0070   44.4083 H   0  0  0  0  0  0  0  0  0  0  0  0
   45.2695   35.9737   42.4113 H   0  0  0  0  0  0  0  0  0  0  0  0
   45.1710   33.7070   46.8089 H   0  0  0  0  0  0  0  0  0  0  0  0
  1  7  1  0
  2  1  1  0
  2  3  1  0
  2  4  1  0
  3  4  1  0
  5  4  1  0
  6  5  1  0
  7 10  1  0
  8 13  2  0
  9 10  2  0
  9  8  1  0
 10 11  1  0
 11 12  2  0
 13 12  1  0
  1 14  1  0
  1 15  1  0
  2 16  1  6
  3 17  1  0
  3 18  1  0
  4 19  1  1
  5 20  1  0
  5 21  1  0
  6 22  1  0
  6 23  1  0
  6 24  1  0
  7 25  1  0
  7 26  1  0
  8 27  1  0
  9 28  1  0
 12 29  1  0
M  ISO  8  14   8  15   8  16  13  17  13  18  13  19  13  20   8  21   8
M  ISO  8  22   8  23   8  24   8  25   8  26   8  27  14  28  14  29  14
M  END
>  <minimizedAffinity>  (1) 
-4.71394396

>  <minimizedRMSD>  (1) 
0.948989451

$$$$
