
     RDKit          3D

 43 44  0  0  0  0  0  0  0  0999 V2000
   47.7410   34.9240   41.1540 C   0  0  0  0  0  0  0  0  0  0  0  0
   48.9000   34.0360   41.3520 C   0  0  0  0  0  0  0  0  0  0  0  0
   49.0130   32.9460   40.5180 C   0  0  0  0  0  0  0  0  0  0  0  0
   50.0570   32.0510   40.6160 C   0  0  0  0  0  0  0  0  0  0  0  0
   50.9880   32.3260   41.6170 N   0  0  0  0  0  0  0  0  0  0  0  0
   50.8410   33.4110   42.4190 C   0  0  0  0  0  0  0  0  0  0  0  0
   49.8200   34.2330   42.2780 N   0  0  0  0  0  0  0  0  0  0  0  0
   47.7680   32.6670   39.2560 S   0  0  0  0  0  0  0  0  0  0  0  0
   48.5530   32.3180   37.6680 C   0  0  0  0  0  0  0  0  0  0  0  0
   48.7020   33.6040   36.9090 C   0  0  0  0  0  0  0  0  0  0  0  0
   48.6720   33.3150   35.5130 N   0  0  0  0  0  0  0  0  0  0  0  0
   46.7560   34.8990   42.2780 C   0  0  0  0  0  0  0  0  0  0  0  0
   45.3420   34.8910   41.8460 C   0  0  0  0  0  0  0  0  0  0  0  0
   44.3720   35.6460   42.5720 C   0  0  0  0  0  0  0  0  0  0  0  0
   42.8220   35.3190   41.6700 S   0  0  0  0  0  0  0  0  0  0  0  0
   43.7560   34.1910   40.4330 C   0  0  0  0  0  0  0  0  0  0  0  0
   44.8120   34.2590   40.8380 N   0  0  0  0  0  0  0  0  0  0  0  0
   43.1270   33.5430   39.3730 O   0  0  0  0  0  0  0  0  0  0  0  0
   40.9610   33.0980   37.9160 O   0  0  0  0  0  0  0  0  0  0  0  0
   41.5090   33.9180   39.0780 P   0  0  1  0  0  0  0  0  0  0  0  0
   40.6050   33.5220   40.4710 O   0  0  0  0  0  0  0  0  0  0  0  0
   41.3310   35.5820   38.7960 O   0  0  0  0  0  0  0  0  0  0  0  0
   42.0530   35.9970   37.6840 C   0  0  0  0  0  0  0  0  0  0  0  0
   41.1450   36.8070   36.7680 C   0  0  0  0  0  0  0  0  0  0  0  0
   48.1100   35.9540   41.0405 H   0  0  0  0  0  0  0  0  0  0  0  0
   47.2123   34.5621   40.2599 H   0  0  0  0  0  0  0  0  0  0  0  0
   50.1492   31.1800   39.9505 H   0  0  0  0  0  0  0  0  0  0  0  0
   51.5882   33.6083   43.2018 H   0  0  0  0  0  0  0  0  0  0  0  0
   49.5439   31.8708   37.8358 H   0  0  0  0  0  0  0  0  0  0  0  0
   47.9345   31.6138   37.0922 H   0  0  0  0  0  0  0  0  0  0  0  0
   47.8752   34.2830   37.1646 H   0  0  0  0  0  0  0  0  0  0  0  0
   49.6545   34.0872   37.1721 H   0  0  0  0  0  0  0  0  0  0  0  0
   48.5666   32.2998   35.3747 H   0  0  0  0  0  0  0  0  0  0  0  0
   47.8774   33.8051   35.0779 H   0  0  0  0  0  0  0  0  0  0  0  0
   46.9388   33.9944   42.8765 H   0  0  0  0  0  0  0  0  0  0  0  0
   46.9061   35.8266   42.8499 H   0  0  0  0  0  0  0  0  0  0  0  0
   44.5235   36.2743   43.4621 H   0  0  0  0  0  0  0  0  0  0  0  0
   41.1279   33.7510   41.2799 H   0  0  0  0  0  0  0  0  0  0  0  0
   42.8995   36.6206   38.0073 H   0  0  0  0  0  0  0  0  0  0  0  0
   42.4334   35.1182   37.1426 H   0  0  0  0  0  0  0  0  0  0  0  0
   40.4609   37.4172   37.3760 H   0  0  0  0  0  0  0  0  0  0  0  0
   41.7570   37.4646   36.1332 H   0  0  0  0  0  0  0  0  0  0  0  0
   40.5612   36.1242   36.1332 H   0  0  0  0  0  0  0  0  0  0  0  0
  1  2  1  0
  1 12  1  0
  2  7  2  0
  3  4  2  0
  3  2  1  0
  4  5  1  0
  5  6  2  0
  7  6  1  0
  8  3  1  0
  9  8  1  0
 10  9  1  0
 11 10  1  0
 13 12  1  0
 13 14  2  0
 15 14  1  0
 16 17  2  0
 16 15  1  0
 17 13  1  0
 18 16  1  0
 20 19  2  0
 20 18  1  0
 20 21  1  0
 22 20  1  0
 23 22  1  0
 24 23  1  0
  1 25  1  0
  1 26  1  0
  4 27  1  0
  6 28  1  0
  9 29  1  0
  9 30  1  0
 10 31  1  0
 10 32  1  0
 11 33  1  0
 11 34  1  0
 12 35  1  0
 12 36  1  0
 14 37  1  0
 21 38  1  0
 23 39  1  0
 23 40  1  0
 24 41  1  0
 24 42  1  0
 24 43  1  0
M  ISO  8  25   8  26   8  27  14  28  14  29   8  30   8  31   8  32   8
M  ISO  8  33   5  34   5  35   8  36   8  37  14  38   3  39   8  40   8
M  ISO  3  41   8  42   8  43   8
M  END
>  <minimizedAffinity>  (1) 
-4.71635818

>  <minimizedRMSD>  (1) 
1.00460315

$$$$
