
     RDKit          3D

 34 35  0  0  0  0  0  0  0  0999 V2000
   46.3850   33.6700   44.7590 C   0  0  0  0  0  0  0  0  0  0  0  0
   45.2040   34.3360   44.9600 C   0  0  0  0  0  0  0  0  0  0  0  0
   44.7210   35.3350   44.1300 C   0  0  0  0  0  0  0  0  0  0  0  0
   45.4590   35.6850   43.0420 C   0  0  0  0  0  0  0  0  0  0  0  0
   46.6450   35.0460   42.8010 C   0  0  0  0  0  0  0  0  0  0  0  0
   47.1050   34.0500   43.6500 C   0  0  0  0  0  0  0  0  0  0  0  0
   47.6320   30.4320   45.9180 C   0  0  0  0  0  0  0  0  0  0  0  0
   47.7230   30.5900   47.2880 C   0  0  0  0  0  0  0  0  0  0  0  0
   47.3550   31.8170   47.8240 C   0  0  0  0  0  0  0  0  0  0  0  0
   46.9180   32.8260   47.0120 N   0  0  0  0  0  0  0  0  0  0  0  0
   46.8420   32.6290   45.6640 C   0  0  0  0  0  0  0  0  0  0  0  0
   47.1990   31.4430   45.1590 N   0  0  0  0  0  0  0  0  0  0  0  0
   48.3460   33.4820   43.2710 N   0  0  0  0  0  0  0  0  0  0  0  0
   49.7270   34.1340   42.5130 S   0  0  0  0  0  0  0  0  0  0  0  0
   49.4010   34.4240   41.0610 O   0  0  0  0  0  0  0  0  0  0  0  0
   50.2500   35.3750   43.1600 O   0  0  0  0  0  0  0  0  0  0  0  0
   50.8840   32.8990   42.4940 O   0  0  0  0  0  0  0  0  0  0  0  0
   50.6360   32.1350   41.3650 C   0  0  0  0  0  0  0  0  0  0  0  0
   51.9140   31.6770   40.6910 C   0  0  0  0  0  0  0  0  0  0  0  0
   44.6005   34.0595   45.8371 H   0  0  0  0  0  0  0  0  0  0  0  0
   43.7641   35.8329   44.3456 H   0  0  0  0  0  0  0  0  0  0  0  0
   45.1057   36.4744   42.3622 H   0  0  0  0  0  0  0  0  0  0  0  0
   47.2424   35.3264   41.9209 H   0  0  0  0  0  0  0  0  0  0  0  0
   47.9154   29.4761   45.4534 H   0  0  0  0  0  0  0  0  0  0  0  0
   48.0752   29.7710   47.9324 H   0  0  0  0  0  0  0  0  0  0  0  0
   47.4156   31.9782   48.9104 H   0  0  0  0  0  0  0  0  0  0  0  0
   48.4305   32.4807   43.4972 H   0  0  0  0  0  0  0  0  0  0  0  0
   48.6622   35.0812   41.0136 H   0  0  0  0  0  0  0  0  0  0  0  0
   50.2085   35.2766   44.1442 H   0  0  0  0  0  0  0  0  0  0  0  0
   50.0530   31.2494   41.6577 H   0  0  0  0  0  0  0  0  0  0  0  0
   50.0824   32.7604   40.6492 H   0  0  0  0  0  0  0  0  0  0  0  0
   52.6573   31.4106   41.4569 H   0  0  0  0  0  0  0  0  0  0  0  0
   51.7031   30.7985   40.0635 H   0  0  0  0  0  0  0  0  0  0  0  0
   52.3091   32.4895   40.0635 H   0  0  0  0  0  0  0  0  0  0  0  0
  1  2  2  0
  1 11  1  0
  3  2  1  0
  4  3  2  0
  5  4  1  0
  5  6  2  0
  6  1  1  0
  7  8  2  0
  8  9  1  0
 10  9  2  0
 11 10  1  0
 12 11  2  0
 12  7  1  0
 13  6  1  0
 14 16  1  0
 14 13  1  0
 15 14  1  0
 17 14  1  0
 18 17  1  0
 19 18  1  0
  2 20  1  0
  3 21  1  0
  4 22  1  0
  5 23  1  0
  7 24  1  0
  8 25  1  0
  9 26  1  0
 13 27  1  0
 15 28  1  0
 16 29  1  0
 18 30  1  0
 18 31  1  0
 19 32  1  0
 19 33  1  0
 19 34  1  0
M  ISO  8  20  14  21  14  22  14  23  14  24  14  25  14  26  14  28   3
M  ISO  6  29   3  30   8  31   8  32   8  33   8  34   8
M  END
>  <minimizedAffinity>  (1) 
-5.73783159

>  <minimizedRMSD>  (1) 
2.02045178

$$$$
