
     RDKit          3D

 24 25  0  0  0  0  0  0  0  0999 V2000
   45.1600   35.4590   43.1680 C   0  0  0  0  0  0  0  0  0  0  0  0
   46.5150   35.4820   42.7830 C   0  0  0  0  0  0  0  0  0  0  0  0
   46.8530   34.8540   41.5690 C   0  0  0  0  0  0  0  0  0  0  0  0
   45.8520   34.2600   40.8360 N   0  0  0  0  0  0  0  0  0  0  0  0
   44.5800   34.2770   41.2650 C   0  0  0  0  0  0  0  0  0  0  0  0
   44.2500   34.8690   42.4120 N   0  0  0  0  0  0  0  0  0  0  0  0
   48.2640   34.8420   41.0650 C   0  0  0  0  0  0  0  0  0  0  0  0
   49.1430   36.0070   41.3840 C   0  0  0  0  0  0  0  0  0  0  0  0
   49.3520   34.6180   42.0020 C   0  0  0  0  0  0  0  0  0  0  0  0
   44.9020   36.0860   44.3580 O   0  0  0  0  0  0  0  0  0  0  0  0
   44.5260   35.3170   45.4850 C   0  0  0  0  0  0  0  0  0  0  0  0
   45.4310   34.1120   45.6610 C   0  0  0  0  0  0  0  0  0  0  0  0
   47.2784   35.9710   43.4059 H   0  0  0  0  0  0  0  0  0  0  0  0
   43.7981   33.7946   40.6601 H   0  0  0  0  0  0  0  0  0  0  0  0
   47.9553   34.3472   40.1323 H   0  0  0  0  0  0  0  0  0  0  0  0
   49.8479   36.3950   40.6340 H   0  0  0  0  0  0  0  0  0  0  0  0
   48.9982   37.0297   41.7622 H   0  0  0  0  0  0  0  0  0  0  0  0
   49.1350   34.4515   43.0675 H   0  0  0  0  0  0  0  0  0  0  0  0
   50.1934   33.9121   42.0633 H   0  0  0  0  0  0  0  0  0  0  0  0
   44.5894   35.9465   46.3849 H   0  0  0  0  0  0  0  0  0  0  0  0
   43.4978   34.9577   45.3310 H   0  0  0  0  0  0  0  0  0  0  0  0
   45.5775   33.9170   46.7336 H   0  0  0  0  0  0  0  0  0  0  0  0
   44.9677   33.2333   45.1885 H   0  0  0  0  0  0  0  0  0  0  0  0
   46.4040   34.3121   45.1885 H   0  0  0  0  0  0  0  0  0  0  0  0
  1 10  1  0
  2  1  2  0
  3  2  1  0
  4  5  1  0
  4  3  2  0
  5  6  2  0
  6  1  1  0
  7  8  1  0
  7  3  1  0
  7  9  1  0
  8  9  1  0
 10 11  1  0
 11 12  1  0
  2 13  1  0
  5 14  1  0
  7 15  1  0
  8 16  1  0
  8 17  1  0
  9 18  1  0
  9 19  1  0
 11 20  1  0
 11 21  1  0
 12 22  1  0
 12 23  1  0
 12 24  1  0
M  ISO  8  13  14  14  14  15  13  16  13  17  13  18  13  19  13  20   8
M  ISO  4  21   8  22   8  23   8  24   8
M  END
>  <minimizedAffinity>  (1) 
-4.19961596

>  <minimizedRMSD>  (1) 
2.03059602

$$$$
