
     RDKit          3D

 28 29  0  0  0  0  0  0  0  0999 V2000
   46.3170   33.9950   41.0120 C   0  0  0  0  0  0  0  0  0  0  0  0
   46.8370   34.7870   42.0240 C   0  0  0  0  0  0  0  0  0  0  0  0
   48.0250   35.4100   41.7880 C   0  0  0  0  0  0  0  0  0  0  0  0
   48.6960   35.2610   40.5840 C   0  0  0  0  0  0  0  0  0  0  0  0
   48.1800   34.4830   39.5980 C   0  0  0  0  0  0  0  0  0  0  0  0
   46.9670   33.8260   39.7930 C   0  0  0  0  0  0  0  0  0  0  0  0
   44.5190   36.0410   44.7200 C   0  0  0  0  0  0  0  0  0  0  0  0
   45.2370   35.9500   43.5240 C   0  0  0  0  0  0  0  0  0  0  0  0
   46.0920   34.8980   43.2470 C   0  0  0  0  0  0  0  0  0  0  0  0
   46.1590   33.9840   44.2390 N   0  0  0  0  0  0  0  0  0  0  0  0
   45.4810   34.0480   45.3960 C   0  0  0  0  0  0  0  0  0  0  0  0
   44.6550   35.0850   45.6390 N   0  0  0  0  0  0  0  0  0  0  0  0
   45.1040   33.3420   41.2180 O   0  0  0  0  0  0  0  0  0  0  0  0
   46.3750   33.0200   38.8470 O   0  0  0  0  0  0  0  0  0  0  0  0
   46.6260   33.1000   37.4680 C   0  0  0  0  0  0  0  0  0  0  0  0
   45.4280   33.0940   36.5910 C   0  0  0  0  0  0  0  0  0  0  0  0
   48.4624   36.0465   42.5713 H   0  0  0  0  0  0  0  0  0  0  0  0
   49.6544   35.7773   40.4262 H   0  0  0  0  0  0  0  0  0  0  0  0
   48.7194   34.3715   38.6458 H   0  0  0  0  0  0  0  0  0  0  0  0
   43.8480   36.8936   44.9011 H   0  0  0  0  0  0  0  0  0  0  0  0
   45.1176   36.7457   42.7739 H   0  0  0  0  0  0  0  0  0  0  0  0
   45.5998   33.2529   46.1468 H   0  0  0  0  0  0  0  0  0  0  0  0
   44.7206   32.7731   40.5042 H   0  0  0  0  0  0  0  0  0  0  0  0
   47.1777   34.0327   37.2791 H   0  0  0  0  0  0  0  0  0  0  0  0
   47.1868   32.1886   37.2134 H   0  0  0  0  0  0  0  0  0  0  0  0
   44.5196   33.0895   37.2112 H   0  0  0  0  0  0  0  0  0  0  0  0
   45.4339   33.9922   35.9560 H   0  0  0  0  0  0  0  0  0  0  0  0
   45.4429   32.1959   35.9560 H   0  0  0  0  0  0  0  0  0  0  0  0
  1 13  1  0
  1  2  2  0
  2  9  1  0
  3  2  1  0
  4  3  2  0
  5  6  2  0
  5  4  1  0
  6  1  1  0
  7 12  2  0
  8  7  1  0
  9  8  2  0
  9 10  1  0
 10 11  2  0
 11 12  1  0
 14  6  1  0
 15 14  1  0
 16 15  1  0
  3 17  1  0
  4 18  1  0
  5 19  1  0
  7 20  1  0
  8 21  1  0
 11 22  1  0
 13 23  1  0
 15 24  1  0
 15 25  1  0
 16 26  1  0
 16 27  1  0
 16 28  1  0
M  ISO  8  17  14  18  14  19  14  20  14  21  14  22  14  23   3  24   8
M  ISO  4  25   8  26   8  27   8  28   8
M  END
>  <minimizedAffinity>  (1) 
-5.0394206

>  <minimizedRMSD>  (1) 
0.267502934

$$$$
