
     RDKit          3D

 35 36  0  0  0  0  0  0  0  0999 V2000
   45.0750   36.2520   43.1120 C   0  0  0  0  0  0  0  0  0  0  0  0
   44.0250   36.2170   42.1880 C   0  0  0  0  0  0  0  0  0  0  0  0
   44.1000   35.2690   41.1680 C   0  0  0  0  0  0  0  0  0  0  0  0
   45.1670   34.4330   41.1140 N   0  0  0  0  0  0  0  0  0  0  0  0
   46.1610   34.4970   42.0250 C   0  0  0  0  0  0  0  0  0  0  0  0
   46.1150   35.4070   43.0250 N   0  0  0  0  0  0  0  0  0  0  0  0
   48.7600   35.7290   41.0820 Cl  0  0  0  0  0  0  0  0  0  0  0  0
   48.5030   34.0580   41.4600 C   0  0  0  0  0  0  0  0  0  0  0  0
   47.2840   33.5550   41.8900 C   0  0  0  0  0  0  0  0  0  0  0  0
   47.0580   32.2400   42.1950 C   0  0  0  0  0  0  0  0  0  0  0  0
   48.1140   31.3830   42.0620 C   0  0  0  0  0  0  0  0  0  0  0  0
   49.3650   31.7540   41.6470 C   0  0  0  0  0  0  0  0  0  0  0  0
   49.5090   33.1100   41.3570 C   0  0  0  0  0  0  0  0  0  0  0  0
   45.0270   37.2400   44.2000 C   0  0  0  0  0  0  0  0  0  0  0  0
   45.4010   38.4630   43.9440 C   0  0  0  0  0  0  0  0  0  0  0  0
   45.3770   39.5080   45.0030 C   0  0  0  0  0  0  0  0  0  0  0  0
   44.5780   40.6120   44.5400 N   0  0  0  0  0  0  0  0  0  0  0  0
   44.2750   41.5870   45.5450 C   0  0  0  0  0  0  0  0  0  0  0  0
   43.9940   42.9510   45.0070 C   0  0  0  0  0  0  0  0  0  0  0  0
   43.1740   36.9099   42.2631 H   0  0  0  0  0  0  0  0  0  0  0  0
   43.3016   35.1998   40.4145 H   0  0  0  0  0  0  0  0  0  0  0  0
   46.0714   31.8891   42.5318 H   0  0  0  0  0  0  0  0  0  0  0  0
   47.9478   30.3231   42.3048 H   0  0  0  0  0  0  0  0  0  0  0  0
   50.1933   31.0367   41.5498 H   0  0  0  0  0  0  0  0  0  0  0  0
   50.4979   33.4544   41.0202 H   0  0  0  0  0  0  0  0  0  0  0  0
   44.6840   36.9546   45.2054 H   0  0  0  0  0  0  0  0  0  0  0  0
   45.7390   38.7257   42.9307 H   0  0  0  0  0  0  0  0  0  0  0  0
   44.9389   39.0935   45.9229 H   0  0  0  0  0  0  0  0  0  0  0  0
   46.4005   39.8488   45.2182 H   0  0  0  0  0  0  0  0  0  0  0  0
   45.0886   41.0821   43.7789 H   0  0  0  0  0  0  0  0  0  0  0  0
   43.3893   41.2459   46.1011 H   0  0  0  0  0  0  0  0  0  0  0  0
   45.1684   41.6750   46.1807 H   0  0  0  0  0  0  0  0  0  0  0  0
   43.8496   43.6520   45.8423 H   0  0  0  0  0  0  0  0  0  0  0  0
   44.8424   43.2842   44.3912 H   0  0  0  0  0  0  0  0  0  0  0  0
   43.0830   42.9218   44.3912 H   0  0  0  0  0  0  0  0  0  0  0  0
  1 14  1  0
  2  1  2  0
  3  2  1  0
  4  3  2  0
  4  5  1  0
  5  6  2  0
  6  1  1  0
  7  8  1  0
  8  9  2  0
  9  5  1  0
  9 10  1  0
 11 10  2  0
 12 11  1  0
 13  8  1  0
 13 12  2  0
 15 14  2  0
 15 16  1  0
 17 16  1  0
 17 18  1  0
 19 18  1  0
  2 20  1  0
  3 21  1  0
 10 22  1  0
 11 23  1  0
 12 24  1  0
 13 25  1  0
 14 26  1  0
 15 27  1  0
 16 28  1  0
 16 29  1  0
 17 30  1  0
 18 31  1  0
 18 32  1  0
 19 33  1  0
 19 34  1  0
 19 35  1  0
M  ISO  8  20  14  21  14  22  14  23  14  24  14  25  14  28   8  29   8
M  ISO  6  30   5  31   8  32   8  33   8  34   8  35   8
M  END
>  <minimizedAffinity>  (1) 
-4.4238162

>  <minimizedRMSD>  (1) 
0.928629577

$$$$
