
     RDKit          3D

 35 36  0  0  1  0  0  0  0  0999 V2000
   47.8550   34.0050   41.9650 N   0  0  0  0  0  0  0  0  0  0  0  0
   47.8510   35.0910   41.0560 C   0  0  0  0  0  0  0  0  0  0  0  0
   49.0800   35.8170   41.4220 C   0  0  0  0  0  0  0  0  0  0  0  0
   49.7850   35.0640   42.5310 C   0  0  0  0  0  0  0  0  0  0  0  0
   49.1460   33.6700   42.4060 C   0  0  2  0  0  0  0  0  0  0  0  0
   46.6670   33.4260   42.3470 C   0  0  0  0  0  0  0  0  0  0  0  0
   44.5730   35.7930   44.4320 C   0  0  0  0  0  0  0  0  0  0  0  0
   45.2280   35.2590   43.2850 C   0  0  0  0  0  0  0  0  0  0  0  0
   45.9760   34.0920   43.4310 C   0  0  0  0  0  0  0  0  0  0  0  0
   46.0320   33.5410   44.6640 N   0  0  0  0  0  0  0  0  0  0  0  0
   45.3940   34.0660   45.7660 C   0  0  0  0  0  0  0  0  0  0  0  0
   44.6720   35.1810   45.6510 N   0  0  0  0  0  0  0  0  0  0  0  0
   49.7890   33.0510   41.3240 O   0  0  0  0  0  0  0  0  0  0  0  0
   49.4660   30.6080   42.3110 O   0  0  0  0  0  0  0  0  0  0  0  0
   50.4370   31.5650   41.6660 P   0  0  2  0  0  0  0  0  0  0  0  0
   51.7110   31.7840   42.7670 O   0  0  0  0  0  0  0  0  0  0  0  0
   51.1440   30.8560   40.2780 O   0  0  0  0  0  0  0  0  0  0  0  0
   50.7720   31.4840   39.1130 C   0  0  0  0  0  0  0  0  0  0  0  0
   51.9650   31.6060   38.1680 C   0  0  0  0  0  0  0  0  0  0  0  0
   47.1159   35.3318   40.2740 H   0  0  0  0  0  0  0  0  0  0  0  0
   49.4289   36.7542   40.9639 H   0  0  0  0  0  0  0  0  0  0  0  0
   50.8714   35.0250   42.3632 H   0  0  0  0  0  0  0  0  0  0  0  0
   49.6750   35.5214   43.5253 H   0  0  0  0  0  0  0  0  0  0  0  0
   49.1866   33.0394   43.3064 H   0  0  0  0  0  0  0  0  0  0  0  0
   45.9982   33.4141   41.4738 H   0  0  0  0  0  0  0  0  0  0  0  0
   46.9226   32.4229   42.7192 H   0  0  0  0  0  0  0  0  0  0  0  0
   43.9777   36.7129   44.3355 H   0  0  0  0  0  0  0  0  0  0  0  0
   45.1453   35.7560   42.3072 H   0  0  0  0  0  0  0  0  0  0  0  0
   45.4802   33.5651   46.7415 H   0  0  0  0  0  0  0  0  0  0  0  0
   51.3621   31.7240   43.6916 H   0  0  0  0  0  0  0  0  0  0  0  0
   49.9801   30.8986   38.6229 H   0  0  0  0  0  0  0  0  0  0  0  0
   50.4037   32.4922   39.3537 H   0  0  0  0  0  0  0  0  0  0  0  0
   52.8901   31.7006   38.7556 H   0  0  0  0  0  0  0  0  0  0  0  0
   52.0236   30.7092   37.5338 H   0  0  0  0  0  0  0  0  0  0  0  0
   51.8409   32.4961   37.5338 H   0  0  0  0  0  0  0  0  0  0  0  0
  1  6  1  0
  1  5  1  0
  2  3  2  0
  2  1  1  0
  3  4  1  0
  5  4  1  0
  6  9  1  0
  7 12  2  0
  8  9  2  0
  8  7  1  0
  9 10  1  0
 10 11  2  0
 12 11  1  0
 13 15  1  0
 13  5  1  0
 15 14  2  0
 15 16  1  0
 17 15  1  0
 18 17  1  0
 19 18  1  0
  2 20  1  0
  3 21  1  0
  4 22  1  0
  4 23  1  0
  5 24  1  1
  6 25  1  0
  6 26  1  0
  7 27  1  0
  8 28  1  0
 11 29  1  0
 16 30  1  0
 18 31  1  0
 18 32  1  0
 19 33  1  0
 19 34  1  0
 19 35  1  0
M  ISO  8  20  13  21  13  22  13  23  13  24  13  25   8  26   8  27  14
M  ISO  8  28  14  29  14  30   3  31   8  32   8  33   8  34   8  35   8
M  END
>  <minimizedAffinity>  (1) 
-4.64957237

>  <minimizedRMSD>  (1) 
0.956044912

$$$$
