
     RDKit          3D

 35 36  0  0  0  0  0  0  0  0999 V2000
   45.6500   29.9480   44.8200 Br  0  0  0  0  0  0  0  0  0  0  0  0
   45.6690   30.6190   46.6380 C   0  0  0  0  0  0  0  0  0  0  0  0
   46.3270   31.7910   46.8260 C   0  0  0  0  0  0  0  0  0  0  0  0
   46.3240   32.2530   48.1530 C   0  0  0  0  0  0  0  0  0  0  0  0
   45.7080   31.5790   49.1860 C   0  0  0  0  0  0  0  0  0  0  0  0
   45.0640   30.4000   48.9080 C   0  0  0  0  0  0  0  0  0  0  0  0
   45.0320   29.8940   47.6220 C   0  0  0  0  0  0  0  0  0  0  0  0
   47.0210   32.6110   45.8390 C   0  0  0  0  0  0  0  0  0  0  0  0
   44.5240   35.3260   45.3770 C   0  0  0  0  0  0  0  0  0  0  0  0
   44.7470   35.7100   44.0530 C   0  0  0  0  0  0  0  0  0  0  0  0
   45.7340   35.0450   43.3510 C   0  0  0  0  0  0  0  0  0  0  0  0
   46.4390   34.0590   43.9560 N   0  0  0  0  0  0  0  0  0  0  0  0
   46.2030   33.7000   45.2550 C   0  0  0  0  0  0  0  0  0  0  0  0
   45.2380   34.3500   45.9410 N   0  0  0  0  0  0  0  0  0  0  0  0
   44.3730   28.6940   47.3560 O   0  0  0  0  0  0  0  0  0  0  0  0
   44.3260   26.1240   46.9550 O   0  0  0  0  0  0  0  0  0  0  0  0
   44.9780   27.1800   47.8290 P   0  0  2  0  0  0  0  0  0  0  0  0
   44.5690   26.9430   49.4390 O   0  0  0  0  0  0  0  0  0  0  0  0
   46.6540   27.0690   47.6150 O   0  0  0  0  0  0  0  0  0  0  0  0
   47.1700   25.8640   48.0640 C   0  0  0  0  0  0  0  0  0  0  0  0
   48.6060   26.0060   48.5590 C   0  0  0  0  0  0  0  0  0  0  0  0
   46.8383   33.1988   48.3787 H   0  0  0  0  0  0  0  0  0  0  0  0
   45.7324   31.9779   50.2108 H   0  0  0  0  0  0  0  0  0  0  0  0
   44.5661   29.8496   49.7199 H   0  0  0  0  0  0  0  0  0  0  0  0
   47.8979   33.0637   46.3249 H   0  0  0  0  0  0  0  0  0  0  0  0
   47.2855   31.9406   45.0080 H   0  0  0  0  0  0  0  0  0  0  0  0
   43.7469   35.8366   45.9647 H   0  0  0  0  0  0  0  0  0  0  0  0
   44.1581   36.5130   43.5857 H   0  0  0  0  0  0  0  0  0  0  0  0
   45.9463   35.3149   42.3060 H   0  0  0  0  0  0  0  0  0  0  0  0
   45.2634   27.3454   50.0186 H   0  0  0  0  0  0  0  0  0  0  0  0
   46.5443   25.4957   48.8904 H   0  0  0  0  0  0  0  0  0  0  0  0
   47.1699   25.1588   47.2198 H   0  0  0  0  0  0  0  0  0  0  0  0
   48.6163   26.0070   49.6590 H   0  0  0  0  0  0  0  0  0  0  0  0
   49.2070   25.1629   48.1875 H   0  0  0  0  0  0  0  0  0  0  0  0
   49.0302   26.9505   48.1875 H   0  0  0  0  0  0  0  0  0  0  0  0
  1  2  1  0
  2  3  2  0
  2  7  1  0
  3  4  1  0
  4  5  2  0
  6  5  1  0
  7  6  2  0
  8  3  1  0
  9 14  2  0
 10  9  1  0
 11 12  1  0
 11 10  2  0
 12 13  2  0
 13  8  1  0
 13 14  1  0
 15  7  1  0
 15 17  1  0
 17 16  2  0
 17 18  1  0
 19 17  1  0
 19 20  1  0
 20 21  1  0
  4 22  1  0
  5 23  1  0
  6 24  1  0
  8 25  1  0
  8 26  1  0
  9 27  1  0
 10 28  1  0
 11 29  1  0
 18 30  1  0
 20 31  1  0
 20 32  1  0
 21 33  1  0
 21 34  1  0
 21 35  1  0
M  ISO  8  22  14  23  14  24  14  25   8  26   8  27  14  28  14  29  14
M  ISO  6  30   3  31   8  32   8  33   8  34   8  35   8
M  END
>  <minimizedAffinity>  (1) 
-4.85475683

>  <minimizedRMSD>  (1) 
0.217401236

$$$$
