
     RDKit          3D

 26 27  0  0  1  0  0  0  0  0999 V2000
   47.4380   33.2130   41.3200 C   0  0  1  0  0  0  0  0  0  0  0  0
   46.9920   34.1320   40.2930 C   0  0  0  0  0  0  0  0  0  0  0  0
   48.3610   34.3250   40.8300 C   0  0  1  0  0  0  0  0  0  0  0  0
   45.6670   33.9720   42.9850 C   0  0  0  0  0  0  0  0  0  0  0  0
   46.9070   33.3120   42.7010 C   0  0  0  0  0  0  0  0  0  0  0  0
   47.5970   32.7810   43.7750 C   0  0  0  0  0  0  0  0  0  0  0  0
   47.0830   32.9060   45.0170 N   0  0  0  0  0  0  0  0  0  0  0  0
   45.9180   33.5290   45.2560 C   0  0  0  0  0  0  0  0  0  0  0  0
   45.2130   34.0610   44.2280 N   0  0  0  0  0  0  0  0  0  0  0  0
   45.3030   33.6970   46.5990 C   0  0  0  0  0  0  0  0  0  0  0  0
   45.5940   32.5330   47.5110 C   0  0  0  0  0  0  0  0  0  0  0  0
   48.6940   35.4720   41.7130 C   0  0  0  0  0  0  0  0  0  0  0  0
   49.3520   36.4830   41.0330 F   0  0  0  0  0  0  0  0  0  0  0  0
   49.4760   35.0800   42.8000 F   0  0  0  0  0  0  0  0  0  0  0  0
   47.5190   36.0070   42.1820 F   0  0  0  0  0  0  0  0  0  0  0  0
   47.4849   32.1166   41.3958 H   0  0  0  0  0  0  0  0  0  0  0  0
   46.2089   34.8682   40.5270 H   0  0  0  0  0  0  0  0  0  0  0  0
   46.5826   34.0019   39.2804 H   0  0  0  0  0  0  0  0  0  0  0  0
   49.3716   34.3922   40.4009 H   0  0  0  0  0  0  0  0  0  0  0  0
   45.0843   34.4104   42.1615 H   0  0  0  0  0  0  0  0  0  0  0  0
   48.5544   32.2623   43.6191 H   0  0  0  0  0  0  0  0  0  0  0  0
   45.7008   34.6141   47.0580 H   0  0  0  0  0  0  0  0  0  0  0  0
   44.2127   33.7551   46.4650 H   0  0  0  0  0  0  0  0  0  0  0  0
   45.5126   32.8587   48.5585 H   0  0  0  0  0  0  0  0  0  0  0  0
   44.8696   31.7275   47.3201 H   0  0  0  0  0  0  0  0  0  0  0  0
   46.6122   32.1632   47.3201 H   0  0  0  0  0  0  0  0  0  0  0  0
  1  5  1  0
  2  3  1  0
  2  1  1  0
  3  1  1  0
  3 12  1  0
  4  9  2  0
  5  4  1  0
  5  6  2  0
  6  7  1  0
  7  8  2  0
  8 10  1  0
  9  8  1  0
 10 11  1  0
 12 15  1  0
 12 14  1  0
 13 12  1  0
  1 16  1  6
  2 17  1  0
  2 18  1  0
  3 19  1  6
  4 20  1  0
  6 21  1  0
 10 22  1  0
 10 23  1  0
 11 24  1  0
 11 25  1  0
 11 26  1  0
M  ISO  8  16  13  17  13  18  13  19  13  20  14  21  14  22   8  23   8
M  ISO  3  24   8  25   8  26   8
M  END
>  <minimizedAffinity>  (1) 
-4.51617956

>  <minimizedRMSD>  (1) 
0.365237415

$$$$
