
     RDKit          3D

 40 42  0  0  1  0  0  0  0  0999 V2000
   44.9040   34.9820   45.2080 C   0  0  0  0  0  0  0  0  0  0  0  0
   45.4730   35.1350   43.9330 C   0  0  0  0  0  0  0  0  0  0  0  0
   46.4800   34.2790   43.4760 C   0  0  0  0  0  0  0  0  0  0  0  0
   46.8830   33.2890   44.3240 N   0  0  0  0  0  0  0  0  0  0  0  0
   46.3290   33.1590   45.5350 C   0  0  0  0  0  0  0  0  0  0  0  0
   45.3640   33.9780   45.9750 N   0  0  0  0  0  0  0  0  0  0  0  0
   46.8470   32.0450   46.3860 C   0  0  2  0  0  0  0  0  0  0  0  0
   47.4340   30.9330   45.5410 C   0  0  0  0  0  0  0  0  0  0  0  0
   46.3240   29.9220   45.2930 C   0  0  0  0  0  0  0  0  0  0  0  0
   45.9180   29.2720   46.4310 O   0  0  0  0  0  0  0  0  0  0  0  0
   45.8500   30.0670   47.5520 C   0  0  0  0  0  0  0  0  0  0  0  0
   45.6410   31.5120   47.1370 C   0  0  1  0  0  0  0  0  0  0  0  0
   45.4290   32.3270   48.4010 C   0  0  0  0  0  0  0  0  0  0  0  0
   45.2830   31.4760   49.6220 C   0  0  0  0  0  0  0  0  0  0  0  0
   45.1000   32.6750   41.4280 Cl  0  0  0  0  0  0  0  0  0  0  0  0
   46.4910   33.7130   41.1050 C   0  0  0  0  0  0  0  0  0  0  0  0
   47.0750   34.4330   42.1470 C   0  0  0  0  0  0  0  0  0  0  0  0
   48.1500   35.2250   41.8560 C   0  0  0  0  0  0  0  0  0  0  0  0
   48.6440   35.3080   40.5610 C   0  0  0  0  0  0  0  0  0  0  0  0
   48.0180   34.5650   39.5650 C   0  0  0  0  0  0  0  0  0  0  0  0
   48.6600   34.6840   37.9310 Cl  0  0  0  0  0  0  0  0  0  0  0  0
   46.9450   33.7620   39.8100 C   0  0  0  0  0  0  0  0  0  0  0  0
   44.1127   35.6574   45.5652 H   0  0  0  0  0  0  0  0  0  0  0  0
   45.1188   35.9459   43.2796 H   0  0  0  0  0  0  0  0  0  0  0  0
   47.6437   32.4041   47.0541 H   0  0  0  0  0  0  0  0  0  0  0  0
   47.7958   31.3376   44.5843 H   0  0  0  0  0  0  0  0  0  0  0  0
   48.2848   30.4606   46.0538 H   0  0  0  0  0  0  0  0  0  0  0  0
   45.4593   30.4507   44.8655 H   0  0  0  0  0  0  0  0  0  0  0  0
   46.7242   29.1602   44.6078 H   0  0  0  0  0  0  0  0  0  0  0  0
   45.0090   29.7413   48.1818 H   0  0  0  0  0  0  0  0  0  0  0  0
   46.7885   29.9810   48.1194 H   0  0  0  0  0  0  0  0  0  0  0  0
   44.7713   31.5824   46.4671 H   0  0  0  0  0  0  0  0  0  0  0  0
   46.2933   32.9934   48.5385 H   0  0  0  0  0  0  0  0  0  0  0  0
   44.4933   32.8920   48.2775 H   0  0  0  0  0  0  0  0  0  0  0  0
   45.3904   32.1019   50.5202 H   0  0  0  0  0  0  0  0  0  0  0  0
   44.2904   31.0019   49.6220 H   0  0  0  0  0  0  0  0  0  0  0  0
   46.0608   30.6982   49.6220 H   0  0  0  0  0  0  0  0  0  0  0  0
   48.6303   35.8044   42.6583 H   0  0  0  0  0  0  0  0  0  0  0  0
   49.5094   35.9458   40.3281 H   0  0  0  0  0  0  0  0  0  0  0  0
   46.4653   33.1807   39.0087 H   0  0  0  0  0  0  0  0  0  0  0  0
  1  6  2  0
  2  1  1  0
  3  2  2  0
  3  4  1  0
  4  5  2  0
  5  6  1  0
  5  7  1  0
  7 12  1  0
  8  7  1  0
  9  8  1  0
  9 10  1  0
 10 11  1  0
 12 11  1  0
 12 13  1  0
 13 14  1  0
 16 15  1  0
 16 17  2  0
 17  3  1  0
 18 17  1  0
 19 18  2  0
 20 22  2  0
 20 19  1  0
 21 20  1  0
 22 16  1  0
  1 23  1  0
  2 24  1  0
  7 25  1  1
  8 26  1  0
  8 27  1  0
  9 28  1  0
  9 29  1  0
 11 30  1  0
 11 31  1  0
 12 32  1  6
 13 33  1  0
 13 34  1  0
 14 35  1  0
 14 36  1  0
 14 37  1  0
 18 38  1  0
 19 39  1  0
 22 40  1  0
M  ISO  8  23  14  24  14  25  13  26  13  27  13  28  13  29  13  30  13
M  ISO  8  31  13  32  13  33   8  34   8  35   8  36   8  37   8  38  14
M  ISO  2  39  14  40  14
M  END
>  <minimizedAffinity>  (1) 
-6.38145733

>  <minimizedRMSD>  (1) 
0.916700542

$$$$
