
     RDKit          3D

 33 35  0  0  1  0  0  0  0  0999 V2000
   47.3030   33.6640   39.7930 C   0  0  0  0  0  0  0  0  0  0  0  0
   48.2380   34.2400   38.9370 C   0  0  0  0  0  0  0  0  0  0  0  0
   47.8020   34.0780   37.6300 C   0  0  0  0  0  0  0  0  0  0  0  0
   46.6160   33.4050   37.7690 C   0  0  0  0  0  0  0  0  0  0  0  0
   46.3370   33.1700   39.0280 O   0  0  0  0  0  0  0  0  0  0  0  0
   45.7570   32.9990   36.6440 C   0  0  2  0  0  0  0  0  0  0  0  0
   44.7460   31.9400   36.8400 C   0  0  0  0  0  0  0  0  0  0  0  0
   45.9970   31.5690   36.1480 C   0  0  2  0  0  0  0  0  0  0  0  0
   47.0660   30.7430   36.7150 C   0  0  0  0  0  0  0  0  0  0  0  0
   48.2790   30.4670   35.9220 C   0  0  0  0  0  0  0  0  0  0  0  0
   47.2700   33.5590   41.1950 O   0  0  0  0  0  0  0  0  0  0  0  0
   47.3600   34.7310   41.9840 C   0  0  0  0  0  0  0  0  0  0  0  0
   48.2070   35.5790   41.6200 O   0  0  0  0  0  0  0  0  0  0  0  0
   46.4720   34.7990   43.0980 C   0  0  0  0  0  0  0  0  0  0  0  0
   45.5850   35.8400   43.0650 C   0  0  0  0  0  0  0  0  0  0  0  0
   44.6820   35.9720   44.1220 C   0  0  0  0  0  0  0  0  0  0  0  0
   44.7400   35.0630   45.1110 N   0  0  0  0  0  0  0  0  0  0  0  0
   45.6120   34.0560   45.1250 C   0  0  0  0  0  0  0  0  0  0  0  0
   46.4740   33.9430   44.1000 N   0  0  0  0  0  0  0  0  0  0  0  0
   49.1677   34.7403   39.2457 H   0  0  0  0  0  0  0  0  0  0  0  0
   48.2916   34.4105   36.7028 H   0  0  0  0  0  0  0  0  0  0  0  0
   45.7160   34.0136   36.2210 H   0  0  0  0  0  0  0  0  0  0  0  0
   44.5510   31.5561   37.8522 H   0  0  0  0  0  0  0  0  0  0  0  0
   43.6791   31.8480   36.5887 H   0  0  0  0  0  0  0  0  0  0  0  0
   46.2185   31.0672   35.1945 H   0  0  0  0  0  0  0  0  0  0  0  0
   47.3961   31.2399   37.6392 H   0  0  0  0  0  0  0  0  0  0  0  0
   46.5969   29.7532   36.8158 H   0  0  0  0  0  0  0  0  0  0  0  0
   49.1241   30.2747   36.5994 H   0  0  0  0  0  0  0  0  0  0  0  0
   48.1094   29.5845   35.2876 H   0  0  0  0  0  0  0  0  0  0  0  0
   48.5080   31.3360   35.2876 H   0  0  0  0  0  0  0  0  0  0  0  0
   45.5831   36.5540   42.2282 H   0  0  0  0  0  0  0  0  0  0  0  0
   43.9485   36.7914   44.1447 H   0  0  0  0  0  0  0  0  0  0  0  0
   45.6262   33.3345   45.9552 H   0  0  0  0  0  0  0  0  0  0  0  0
  1 11  1  0
  2  1  2  0
  3  4  2  0
  3  2  1  0
  4  5  1  0
  5  1  1  0
  6  7  1  0
  6  4  1  0
  8  6  1  0
  8  9  1  0
  8  7  1  0
 10  9  1  0
 11 12  1  0
 12 14  1  0
 13 12  2  0
 14 19  1  0
 15 14  2  0
 15 16  1  0
 16 17  2  0
 17 18  1  0
 19 18  2  0
  2 20  1  0
  3 21  1  0
  6 22  1  6
  7 23  1  0
  7 24  1  0
  8 25  1  6
  9 26  1  0
  9 27  1  0
 10 28  1  0
 10 29  1  0
 10 30  1  0
 15 31  1  0
 16 32  1  0
 18 33  1  0
M  ISO  8  20  14  21  14  22  13  23  13  24  13  25  13  26   8  27   8
M  ISO  6  28   8  29   8  30   8  31  14  32  14  33  14
M  END
>  <minimizedAffinity>  (1) 
-4.29552746

>  <minimizedRMSD>  (1) 
0.243492678

$$$$
