
     RDKit          3D

 39 42  0  0  0  0  0  0  0  0999 V2000
   45.9600   33.1770   41.6480 C   0  0  0  0  0  0  0  0  0  0  0  0
   47.1160   33.8750   41.3210 C   0  0  0  0  0  0  0  0  0  0  0  0
   48.0990   33.9590   42.2950 C   0  0  0  0  0  0  0  0  0  0  0  0
   47.8590   33.3540   43.4920 N   0  0  0  0  0  0  0  0  0  0  0  0
   46.7530   32.6890   43.7940 C   0  0  0  0  0  0  0  0  0  0  0  0
   45.7830   32.5950   42.8610 N   0  0  0  0  0  0  0  0  0  0  0  0
   46.9230   30.7780   45.3060 C   0  0  0  0  0  0  0  0  0  0  0  0
   46.5980   32.0830   45.0960 C   0  0  0  0  0  0  0  0  0  0  0  0
   46.0960   32.9100   46.1210 C   0  0  0  0  0  0  0  0  0  0  0  0
   45.9180   32.3980   47.4020 C   0  0  0  0  0  0  0  0  0  0  0  0
   45.4760   32.8760   48.5920 N   0  0  0  0  0  0  0  0  0  0  0  0
   45.5450   31.8390   49.4990 C   0  0  0  0  0  0  0  0  0  0  0  0
   46.0210   30.7680   48.8500 N   0  0  0  0  0  0  0  0  0  0  0  0
   46.2590   31.0790   47.5660 C   0  0  0  0  0  0  0  0  0  0  0  0
   46.7520   30.2450   46.5820 C   0  0  0  0  0  0  0  0  0  0  0  0
   49.3530   34.6910   42.0050 C   0  0  0  0  0  0  0  0  0  0  0  0
   49.0810   35.8290   41.2110 F   0  0  0  0  0  0  0  0  0  0  0  0
   49.9080   35.1690   43.1710 F   0  0  0  0  0  0  0  0  0  0  0  0
   50.1950   33.8580   41.3460 F   0  0  0  0  0  0  0  0  0  0  0  0
   47.2360   34.4310   40.1030 O   0  0  0  0  0  0  0  0  0  0  0  0
   47.3790   33.7080   38.9560 C   0  0  0  0  0  0  0  0  0  0  0  0
   48.3770   34.3850   38.2380 C   0  0  0  0  0  0  0  0  0  0  0  0
   48.5250   33.3660   36.6990 S   0  0  0  0  0  0  0  0  0  0  0  0
   47.2010   32.1870   37.2950 C   0  0  0  0  0  0  0  0  0  0  0  0
   46.9690   32.6600   38.2690 N   0  0  0  0  0  0  0  0  0  0  0  0
   46.7900   31.0270   36.4620 C   0  0  0  0  0  0  0  0  0  0  0  0
   46.9710   31.3930   35.0260 C   0  0  0  0  0  0  0  0  0  0  0  0
   45.1603   33.0932   40.8974 H   0  0  0  0  0  0  0  0  0  0  0  0
   47.3124   30.1572   44.4856 H   0  0  0  0  0  0  0  0  0  0  0  0
   45.8451   33.9596   45.9081 H   0  0  0  0  0  0  0  0  0  0  0  0
   45.1498   33.8342   48.7827 H   0  0  0  0  0  0  0  0  0  0  0  0
   45.2611   31.8833   50.5608 H   0  0  0  0  0  0  0  0  0  0  0  0
   47.0012   29.1956   46.7981 H   0  0  0  0  0  0  0  0  0  0  0  0
   48.9316   35.2925   38.5188 H   0  0  0  0  0  0  0  0  0  0  0  0
   47.4146   30.1548   36.7050 H   0  0  0  0  0  0  0  0  0  0  0  0
   45.7378   30.7733   36.6586 H   0  0  0  0  0  0  0  0  0  0  0  0
   47.4577   32.3771   34.9570 H   0  0  0  0  0  0  0  0  0  0  0  0
   47.5994   30.6377   34.5315 H   0  0  0  0  0  0  0  0  0  0  0  0
   45.9893   31.4339   34.5315 H   0  0  0  0  0  0  0  0  0  0  0  0
  1  6  2  0
  2  1  1  0
  2  3  2  0
  3  4  1  0
  4  5  2  0
  5  8  1  0
  6  5  1  0
  7 15  2  0
  8  7  1  0
  8  9  2  0
  9 10  1  0
 10 14  2  0
 10 11  1  0
 11 12  1  0
 13 12  2  0
 14 13  1  0
 15 14  1  0
 16  3  1  0
 16 18  1  0
 17 16  1  0
 19 16  1  0
 20  2  1  0
 21 20  1  0
 22 21  2  0
 23 24  1  0
 23 22  1  0
 24 25  2  0
 25 21  1  0
 26 24  1  0
 27 26  1  0
  1 28  1  0
  7 29  1  0
  9 30  1  0
 11 31  1  0
 12 32  1  0
 15 33  1  0
 22 34  1  0
 26 35  1  0
 26 36  1  0
 27 37  1  0
 27 38  1  0
 27 39  1  0
M  ISO  8  28  14  29  14  30  14  31   9  32  14  33  14  34  14  35   8
M  ISO  4  36   8  37   8  38   8  39   8
M  END
>  <minimizedAffinity>  (1) 
-5.94508076

>  <minimizedRMSD>  (1) 
0.0179901216

$$$$
