
     RDKit          3D

 30 31  0  0  0  0  0  0  0  0999 V2000
   45.3300   30.8940   49.5810 O   0  0  0  0  0  0  0  0  0  0  0  0
   45.7410   31.0120   48.1060 P   0  0  1  0  0  0  0  0  0  0  0  0
   44.4980   30.2050   47.2540 O   0  0  0  0  0  0  0  0  0  0  0  0
   45.7640   32.6670   47.7460 O   0  0  0  0  0  0  0  0  0  0  0  0
   45.2880   34.6630   44.7830 C   0  0  0  0  0  0  0  0  0  0  0  0
   46.2240   34.1080   43.9220 C   0  0  0  0  0  0  0  0  0  0  0  0
   46.9920   33.0510   44.4070 C   0  0  0  0  0  0  0  0  0  0  0  0
   46.7950   32.6250   45.6710 N   0  0  0  0  0  0  0  0  0  0  0  0
   45.8580   33.2080   46.4750 C   0  0  0  0  0  0  0  0  0  0  0  0
   45.0940   34.2380   46.0350 N   0  0  0  0  0  0  0  0  0  0  0  0
   44.4650   35.8080   44.2500 C   0  0  0  0  0  0  0  0  0  0  0  0
   47.1710   30.2700   47.7560 O   0  0  0  0  0  0  0  0  0  0  0  0
   49.3300   29.2800   48.6350 C   0  0  0  0  0  0  0  0  0  0  0  0
   48.3690   30.2250   48.3840 C   0  0  0  0  0  0  0  0  0  0  0  0
   48.6410   31.5070   48.8860 C   0  0  0  0  0  0  0  0  0  0  0  0
   49.8120   31.7960   49.5920 C   0  0  0  0  0  0  0  0  0  0  0  0
   50.7440   30.8030   49.8140 C   0  0  0  0  0  0  0  0  0  0  0  0
   50.4900   29.5390   49.3280 C   0  0  0  0  0  0  0  0  0  0  0  0
   48.7830   26.9370   47.6920 N   0  0  0  0  0  0  0  0  0  0  0  0
   49.0180   27.9900   48.1110 C   0  0  0  0  0  0  0  0  0  0  0  0
   43.8679   29.7959   47.8987 H   0  0  0  0  0  0  0  0  0  0  0  0
   46.3546   34.4871   42.8977 H   0  0  0  0  0  0  0  0  0  0  0  0
   47.7479   32.5712   43.7679 H   0  0  0  0  0  0  0  0  0  0  0  0
   44.0508   36.3843   45.0905 H   0  0  0  0  0  0  0  0  0  0  0  0
   45.1011   36.4618   43.6353 H   0  0  0  0  0  0  0  0  0  0  0  0
   43.6425   35.4134   43.6353 H   0  0  0  0  0  0  0  0  0  0  0  0
   47.9087   32.3105   48.7183 H   0  0  0  0  0  0  0  0  0  0  0  0
   49.9904   32.8135   49.9701 H   0  0  0  0  0  0  0  0  0  0  0  0
   51.6704   31.0161   50.3674 H   0  0  0  0  0  0  0  0  0  0  0  0
   51.2189   28.7323   49.4950 H   0  0  0  0  0  0  0  0  0  0  0  0
  2  1  2  0
  3  2  1  0
  4  2  1  0
  5 10  2  0
  6  7  2  0
  6  5  1  0
  7  8  1  0
  8  9  2  0
  9  4  1  0
 10  9  1  0
 11  5  1  0
 12  2  1  0
 12 14  1  0
 13 18  2  0
 14 13  1  0
 14 15  2  0
 15 16  1  0
 16 17  2  0
 18 17  1  0
 19 20  3  0
 20 13  1  0
  3 21  1  0
  6 22  1  0
  7 23  1  0
 11 24  1  0
 11 25  1  0
 11 26  1  0
 15 27  1  0
 16 28  1  0
 17 29  1  0
 18 30  1  0
M  ISO  8  21   3  22  14  23  14  24   8  25   8  26   8  27  14  28  14
M  ISO  2  29  14  30  14
M  END
>  <minimizedAffinity>  (1) 
-4.92277241

>  <minimizedRMSD>  (1) 
1.51289487

$$$$
