
     RDKit          3D

 39 42  0  0  0  0  0  0  0  0999 V2000
   44.2330   34.7950   41.0880 C   0  0  0  0  0  0  0  0  0  0  0  0
   44.2280   33.8690   40.0740 C   0  0  0  0  0  0  0  0  0  0  0  0
   45.4360   33.2710   39.7210 C   0  0  0  0  0  0  0  0  0  0  0  0
   46.5450   33.6490   40.4170 N   0  0  0  0  0  0  0  0  0  0  0  0
   46.5170   34.5550   41.4030 C   0  0  0  0  0  0  0  0  0  0  0  0
   45.3600   35.1030   41.7100 N   0  0  0  0  0  0  0  0  0  0  0  0
   46.4690   32.2710   37.6350 C   0  0  0  0  0  0  0  0  0  0  0  0
   45.6670   32.2590   38.7310 C   0  0  0  0  0  0  0  0  0  0  0  0
   45.0160   31.0300   38.8690 C   0  0  0  0  0  0  0  0  0  0  0  0
   45.1530   29.9680   38.0240 C   0  0  0  0  0  0  0  0  0  0  0  0
   45.9830   30.0550   36.9340 C   0  0  0  0  0  0  0  0  0  0  0  0
   46.6400   31.2290   36.7540 C   0  0  0  0  0  0  0  0  0  0  0  0
   47.9210   34.3540   37.1570 N   0  0  0  0  0  0  0  0  0  0  0  0
   47.2610   33.4270   37.3730 C   0  0  0  0  0  0  0  0  0  0  0  0
   42.6300   35.5360   41.4840 S   0  0  0  0  0  0  0  0  0  0  0  0
   40.6040   34.9030   39.8280 C   0  0  0  0  0  0  0  0  0  0  0  0
   41.2990   34.4880   40.9540 C   0  0  0  0  0  0  0  0  0  0  0  0
   40.9480   33.3270   41.5960 C   0  0  0  0  0  0  0  0  0  0  0  0
   39.9030   32.5330   41.1570 C   0  0  0  0  0  0  0  0  0  0  0  0
   39.1980   32.9570   40.0130 C   0  0  0  0  0  0  0  0  0  0  0  0
   39.5450   34.1230   39.3610 C   0  0  0  0  0  0  0  0  0  0  0  0
   38.1990   32.0020   39.7650 O   0  0  0  0  0  0  0  0  0  0  0  0
   38.0790   31.2480   40.9570 C   0  0  0  0  0  0  0  0  0  0  0  0
   39.3380   31.3350   41.5990 O   0  0  0  0  0  0  0  0  0  0  0  0
   47.6190   34.9550   42.1210 O   0  0  0  0  0  0  0  0  0  0  0  0
   48.8020   35.2830   41.4570 C   0  0  0  0  0  0  0  0  0  0  0  0
   49.8040   34.3850   41.6610 F   0  0  0  0  0  0  0  0  0  0  0  0
   48.4380   35.4180   40.1030 F   0  0  0  0  0  0  0  0  0  0  0  0
   49.2220   36.5150   41.9580 F   0  0  0  0  0  0  0  0  0  0  0  0
   43.2949   33.6062   39.5541 H   0  0  0  0  0  0  0  0  0  0  0  0
   44.3391   30.9095   39.7276 H   0  0  0  0  0  0  0  0  0  0  0  0
   44.5966   29.0388   38.2166 H   0  0  0  0  0  0  0  0  0  0  0  0
   46.1098   29.2122   36.2386 H   0  0  0  0  0  0  0  0  0  0  0  0
   47.3162   31.3482   35.8946 H   0  0  0  0  0  0  0  0  0  0  0  0
   40.8831   35.8328   39.3108 H   0  0  0  0  0  0  0  0  0  0  0  0
   41.5146   33.0181   42.4868 H   0  0  0  0  0  0  0  0  0  0  0  0
   38.9842   34.4390   38.4690 H   0  0  0  0  0  0  0  0  0  0  0  0
   37.2919   31.6700   41.5992 H   0  0  0  0  0  0  0  0  0  0  0  0
   37.8030   30.2038   40.7486 H   0  0  0  0  0  0  0  0  0  0  0  0
  1 15  1  0
  1  6  1  0
  2  1  2  0
  3  2  1  0
  3  4  2  0
  4  5  1  0
  5  6  2  0
  5 25  1  0
  7  8  2  0
  8  9  1  0
  8  3  1  0
 10  9  2  0
 11 10  1  0
 12 11  2  0
 12  7  1  0
 13 14  3  0
 14  7  1  0
 16 17  2  0
 17 15  1  0
 17 18  1  0
 19 18  2  0
 19 24  1  0
 20 19  1  0
 21 16  1  0
 21 20  2  0
 22 20  1  0
 22 23  1  0
 23 24  1  0
 26 27  1  0
 26 29  1  0
 26 25  1  0
 28 26  1  0
  2 30  1  0
  9 31  1  0
 10 32  1  0
 11 33  1  0
 12 34  1  0
 16 35  1  0
 18 36  1  0
 21 37  1  0
 23 38  1  0
 23 39  1  0
M  ISO  8  30  14  31  14  32  14  33  14  34  14  35  14  36  14  37  14
M  ISO  2  38  13  39  13
M  END
>  <minimizedAffinity>  (1) 
-5.98037672

>  <minimizedRMSD>  (1) 
0.658880234

$$$$
