
     RDKit          3D

 36 38  0  0  0  0  0  0  0  0999 V2000
   46.6850   34.7910   41.9510 C   0  0  0  0  0  0  0  0  0  0  0  0
   47.9430   35.3510   41.8930 C   0  0  0  0  0  0  0  0  0  0  0  0
   48.6760   35.1890   40.7230 C   0  0  0  0  0  0  0  0  0  0  0  0
   48.1530   34.4970   39.6770 C   0  0  0  0  0  0  0  0  0  0  0  0
   46.9000   33.9290   39.7110 C   0  0  0  0  0  0  0  0  0  0  0  0
   46.1690   34.0990   40.8970 C   0  0  0  0  0  0  0  0  0  0  0  0
   44.5360   36.1600   44.7430 C   0  0  0  0  0  0  0  0  0  0  0  0
   45.1970   36.0910   43.4910 C   0  0  0  0  0  0  0  0  0  0  0  0
   45.9530   34.9880   43.2050 C   0  0  0  0  0  0  0  0  0  0  0  0
   46.0230   34.0130   44.1590 N   0  0  0  0  0  0  0  0  0  0  0  0
   45.3910   34.0890   45.3470 C   0  0  0  0  0  0  0  0  0  0  0  0
   44.6430   35.1650   45.6440 N   0  0  0  0  0  0  0  0  0  0  0  0
   43.5650   34.0620   40.9410 C   0  0  0  0  0  0  0  0  0  0  0  0
   43.2530   35.2030   40.6400 O   0  0  0  0  0  0  0  0  0  0  0  0
   44.8750   33.5660   41.0780 N   0  0  0  0  0  0  0  0  0  0  0  0
   42.5120   33.1710   41.1700 O   0  0  0  0  0  0  0  0  0  0  0  0
   40.1270   32.8380   41.1880 C   0  0  0  0  0  0  0  0  0  0  0  0
   41.2490   33.5280   40.7140 C   0  0  0  0  0  0  0  0  0  0  0  0
   41.1100   34.5560   39.7990 C   0  0  0  0  0  0  0  0  0  0  0  0
   39.8670   34.9010   39.3560 C   0  0  0  0  0  0  0  0  0  0  0  0
   38.7370   34.2180   39.8220 C   0  0  0  0  0  0  0  0  0  0  0  0
   38.8660   33.1800   40.7440 C   0  0  0  0  0  0  0  0  0  0  0  0
   40.3270   30.9250   42.8990 N   0  0  0  0  0  0  0  0  0  0  0  0
   40.2290   31.7800   42.1230 C   0  0  0  0  0  0  0  0  0  0  0  0
   48.3546   35.9093   42.7468 H   0  0  0  0  0  0  0  0  0  0  0  0
   49.6837   35.6228   40.6436 H   0  0  0  0  0  0  0  0  0  0  0  0
   48.7569   34.3861   38.7643 H   0  0  0  0  0  0  0  0  0  0  0  0
   46.4931   33.3715   38.8544 H   0  0  0  0  0  0  0  0  0  0  0  0
   43.9245   37.0424   44.9829 H   0  0  0  0  0  0  0  0  0  0  0  0
   45.1035   36.9100   42.7626 H   0  0  0  0  0  0  0  0  0  0  0  0
   45.4876   33.2693   46.0742 H   0  0  0  0  0  0  0  0  0  0  0  0
   44.8936   32.5821   41.3820 H   0  0  0  0  0  0  0  0  0  0  0  0
   41.9970   35.0923   39.4307 H   0  0  0  0  0  0  0  0  0  0  0  0
   39.7518   35.7191   38.6297 H   0  0  0  0  0  0  0  0  0  0  0  0
   37.7389   34.5028   39.4576 H   0  0  0  0  0  0  0  0  0  0  0  0
   37.9786   32.6434   41.1108 H   0  0  0  0  0  0  0  0  0  0  0  0
  1  9  1  0
  2  1  2  0
  3  2  1  0
  4  5  1  0
  4  3  2  0
  5  6  2  0
  6 15  1  0
  6  1  1  0
  7 12  2  0
  8  7  1  0
  9  8  2  0
  9 10  1  0
 10 11  2  0
 11 12  1  0
 13 15  1  0
 13 16  1  0
 14 13  2  0
 17 24  1  0
 18 16  1  0
 18 17  2  0
 19 18  1  0
 20 19  2  0
 20 21  1  0
 21 22  2  0
 22 17  1  0
 24 23  3  0
  2 25  1  0
  3 26  1  0
  4 27  1  0
  5 28  1  0
  7 29  1  0
  8 30  1  0
 11 31  1  0
 15 32  1  0
 19 33  1  0
 20 34  1  0
 21 35  1  0
 22 36  1  0
M  ISO  8  25  14  26  14  27  14  28  14  29  14  30  14  31  14  33  14
M  ISO  3  34  14  35  14  36  14
M  END
>  <minimizedAffinity>  (1) 
-7.03122997

>  <minimizedRMSD>  (1) 
0.299089313

$$$$
