
     RDKit          3D

 40 42  0  0  0  0  0  0  0  0999 V2000
   47.2030   34.4500   40.8780 C   0  0  0  0  0  0  0  0  0  0  0  0
   48.5230   33.9780   41.3120 C   0  0  0  0  0  0  0  0  0  0  0  0
   48.9080   32.7340   40.8360 C   0  0  0  0  0  0  0  0  0  0  0  0
   50.1440   32.1920   41.2040 C   0  0  0  0  0  0  0  0  0  0  0  0
   50.9350   32.9340   42.0380 N   0  0  0  0  0  0  0  0  0  0  0  0
   50.5150   34.1470   42.4760 C   0  0  0  0  0  0  0  0  0  0  0  0
   49.3350   34.6380   42.1110 N   0  0  0  0  0  0  0  0  0  0  0  0
   47.8470   31.7640   39.7530 S   0  0  0  0  0  0  0  0  0  0  0  0
   49.0520   32.1340   37.1630 C   0  0  0  0  0  0  0  0  0  0  0  0
   48.6670   31.3540   38.2280 C   0  0  0  0  0  0  0  0  0  0  0  0
   48.9320   29.9810   38.1600 C   0  0  0  0  0  0  0  0  0  0  0  0
   49.5640   29.4070   37.0600 C   0  0  0  0  0  0  0  0  0  0  0  0
   49.9460   30.2210   35.9920 C   0  0  0  0  0  0  0  0  0  0  0  0
   49.6750   31.5610   36.0830 C   0  0  0  0  0  0  0  0  0  0  0  0
   48.4620   34.6330   37.3920 N   0  0  0  0  0  0  0  0  0  0  0  0
   48.7310   33.5070   37.3000 C   0  0  0  0  0  0  0  0  0  0  0  0
   46.3640   34.9890   42.0090 C   0  0  0  0  0  0  0  0  0  0  0  0
   44.8970   34.9450   41.7510 C   0  0  0  0  0  0  0  0  0  0  0  0
   43.9970   35.4620   42.7330 C   0  0  0  0  0  0  0  0  0  0  0  0
   42.3520   35.1840   41.9680 S   0  0  0  0  0  0  0  0  0  0  0  0
   43.1710   34.4060   40.4330 C   0  0  0  0  0  0  0  0  0  0  0  0
   44.2760   34.4780   40.7040 N   0  0  0  0  0  0  0  0  0  0  0  0
   42.4440   33.9250   39.3430 O   0  0  0  0  0  0  0  0  0  0  0  0
   40.4670   34.3400   37.6340 O   0  0  0  0  0  0  0  0  0  0  0  0
   41.5430   35.0430   38.4470 P   0  0  0  0  0  0  0  0  0  0  0  0
   40.8010   36.1040   39.5300 O   0  0  0  0  0  0  0  0  0  0  0  0
   42.5830   35.9380   37.4450 O   0  0  0  0  0  0  0  0  0  0  0  0
   47.3441   35.2493   40.1356 H   0  0  0  0  0  0  0  0  0  0  0  0
   46.6685   33.5854   40.4575 H   0  0  0  0  0  0  0  0  0  0  0  0
   50.4676   31.2069   40.8369 H   0  0  0  0  0  0  0  0  0  0  0  0
   51.1617   34.7342   43.1445 H   0  0  0  0  0  0  0  0  0  0  0  0
   48.6323   29.3370   38.9999 H   0  0  0  0  0  0  0  0  0  0  0  0
   49.7600   28.3249   37.0328 H   0  0  0  0  0  0  0  0  0  0  0  0
   50.4474   29.8009   35.1076 H   0  0  0  0  0  0  0  0  0  0  0  0
   49.9723   32.2111   35.2470 H   0  0  0  0  0  0  0  0  0  0  0  0
   46.5746   34.3938   42.9098 H   0  0  0  0  0  0  0  0  0  0  0  0
   46.6341   36.0486   42.1281 H   0  0  0  0  0  0  0  0  0  0  0  0
   44.2321   35.9150   43.7074 H   0  0  0  0  0  0  0  0  0  0  0  0
   40.9991   35.8207   40.4577 H   0  0  0  0  0  0  0  0  0  0  0  0
   43.2022   36.4709   38.0042 H   0  0  0  0  0  0  0  0  0  0  0  0
  1  2  1  0
  1 17  1  0
  2  7  2  0
  3  4  2  0
  3  2  1  0
  4  5  1  0
  5  6  2  0
  7  6  1  0
  8  3  1  0
  9 16  1  0
  9 10  2  0
 10  8  1  0
 11 10  1  0
 12 11  2  0
 13 14  2  0
 13 12  1  0
 14  9  1  0
 16 15  3  0
 18 17  1  0
 18 19  2  0
 20 19  1  0
 21 22  2  0
 21 20  1  0
 22 18  1  0
 23 21  1  0
 24 25  2  0
 25 23  1  0
 25 26  1  0
 27 25  1  0
  1 28  1  0
  1 29  1  0
  4 30  1  0
  6 31  1  0
 11 32  1  0
 12 33  1  0
 13 34  1  0
 14 35  1  0
 17 36  1  0
 17 37  1  0
 19 38  1  0
 26 39  1  0
 27 40  1  0
M  ISO  8  28   8  29   8  30  14  31  14  32  14  33  14  34  14  35  14
M  ISO  5  36   8  37   8  38  14  39   3  40   3
M  END
>  <minimizedAffinity>  (1) 
-4.9454999

>  <minimizedRMSD>  (1) 
0.863149405

$$$$
