
     RDKit          3D

 45 48  0  0  1  0  0  0  0  0999 V2000
   42.0300   34.6220   39.0930 C   0  0  0  0  0  0  0  0  0  0  0  0
   42.1810   35.6540   38.1930 C   0  0  0  0  0  0  0  0  0  0  0  0
   41.1870   36.0480   37.3370 C   0  0  0  0  0  0  0  0  0  0  0  0
   40.0140   35.3920   37.3840 N   0  0  0  0  0  0  0  0  0  0  0  0
   39.8460   34.3680   38.2680 C   0  0  0  0  0  0  0  0  0  0  0  0
   40.8280   33.9830   39.1120 N   0  0  0  0  0  0  0  0  0  0  0  0
   44.1190   33.3310   39.3850 C   0  0  1  0  0  0  0  0  0  0  0  0
   43.1430   32.7450   40.4630 C   0  0  0  0  0  0  0  0  0  0  0  0
   43.1610   34.1990   40.0020 C   0  0  2  0  0  0  0  0  0  0  0  0
   45.5430   33.2600   39.7750 C   0  0  0  0  0  0  0  0  0  0  0  0
   46.2640   32.1090   39.4150 C   0  0  0  0  0  0  0  0  0  0  0  0
   47.6040   32.0240   39.7710 C   0  0  0  0  0  0  0  0  0  0  0  0
   48.1500   33.0670   40.4540 N   0  0  0  0  0  0  0  0  0  0  0  0
   47.4370   34.1470   40.7800 C   0  0  0  0  0  0  0  0  0  0  0  0
   46.1480   34.2150   40.4300 N   0  0  0  0  0  0  0  0  0  0  0  0
   48.2200   35.1890   41.5280 C   0  0  0  0  0  0  0  0  0  0  0  0
   48.9420   35.9930   40.6650 F   0  0  0  0  0  0  0  0  0  0  0  0
   49.1770   34.5390   42.3410 F   0  0  0  0  0  0  0  0  0  0  0  0
   47.3890   35.8690   42.3740 F   0  0  0  0  0  0  0  0  0  0  0  0
   38.5730   33.5870   38.3640 C   0  0  0  0  0  0  0  0  0  0  0  0
   38.7860   32.3640   39.2300 C   0  0  0  0  0  0  0  0  0  0  0  0
   37.9670   30.0800   39.1030 C   0  0  0  0  0  0  0  0  0  0  0  0
   38.6030   31.1090   38.4580 C   0  0  0  0  0  0  0  0  0  0  0  0
   39.0140   30.9000   37.1590 C   0  0  0  0  0  0  0  0  0  0  0  0
   38.7980   29.6990   36.5180 C   0  0  0  0  0  0  0  0  0  0  0  0
   38.1560   28.7150   37.2260 C   0  0  0  0  0  0  0  0  0  0  0  0
   37.7090   28.8350   38.5270 C   0  0  0  0  0  0  0  0  0  0  0  0
   37.1220   30.3410   41.5750 N   0  0  0  0  0  0  0  0  0  0  0  0
   37.5080   30.2300   40.4750 C   0  0  0  0  0  0  0  0  0  0  0  0
   43.1434   36.1857   38.1604 H   0  0  0  0  0  0  0  0  0  0  0  0
   41.3437   36.8772   36.6314 H   0  0  0  0  0  0  0  0  0  0  0  0
   44.3708   33.1896   38.3236 H   0  0  0  0  0  0  0  0  0  0  0  0
   42.3221   32.0726   40.1730 H   0  0  0  0  0  0  0  0  0  0  0  0
   43.2280   32.2012   41.4154 H   0  0  0  0  0  0  0  0  0  0  0  0
   43.2291   35.1526   40.5461 H   0  0  0  0  0  0  0  0  0  0  0  0
   45.7772   31.2918   38.8625 H   0  0  0  0  0  0  0  0  0  0  0  0
   48.2053   31.1410   39.5090 H   0  0  0  0  0  0  0  0  0  0  0  0
   37.7900   34.2182   38.8096 H   0  0  0  0  0  0  0  0  0  0  0  0
   38.2647   33.2697   37.3569 H   0  0  0  0  0  0  0  0  0  0  0  0
   39.8081   32.3876   39.6359 H   0  0  0  0  0  0  0  0  0  0  0  0
   38.0414   32.3817   40.0394 H   0  0  0  0  0  0  0  0  0  0  0  0
   39.5266   31.7111   36.6210 H   0  0  0  0  0  0  0  0  0  0  0  0
   39.1270   29.5363   35.4810 H   0  0  0  0  0  0  0  0  0  0  0  0
   37.9837   27.7550   36.7174 H   0  0  0  0  0  0  0  0  0  0  0  0
   37.1956   28.0222   39.0616 H   0  0  0  0  0  0  0  0  0  0  0  0
  1  6  1  0
  1  9  1  0
  2  1  2  0
  3  4  2  0
  3  2  1  0
  4  5  1  0
  5 20  1  0
  5  6  2  0
  7 10  1  0
  7  9  1  0
  7  8  1  0
  9  8  1  0
 10 15  2  0
 11 12  2  0
 11 10  1  0
 12 13  1  0
 13 14  2  0
 14 16  1  0
 15 14  1  0
 16 18  1  0
 16 19  1  0
 17 16  1  0
 20 21  1  0
 22 29  1  0
 23 22  2  0
 23 21  1  0
 24 23  1  0
 25 24  2  0
 25 26  1  0
 26 27  2  0
 27 22  1  0
 29 28  3  0
  2 30  1  0
  3 31  1  0
  7 32  1  6
  8 33  1  0
  8 34  1  0
  9 35  1  1
 11 36  1  0
 12 37  1  0
 20 38  1  0
 20 39  1  0
 21 40  1  0
 21 41  1  0
 24 42  1  0
 25 43  1  0
 26 44  1  0
 27 45  1  0
M  ISO  8  30  14  31  14  32  13  33  13  34  13  35  13  36  14  37  14
M  ISO  8  38   8  39   8  40   8  41   8  42  14  43  14  44  14  45  14
M  END
>  <minimizedAffinity>  (1) 
-6.0815177

>  <minimizedRMSD>  (1) 
4.06639338

$$$$
