
     RDKit          3D

 36 38  0  0  1  0  0  0  0  0999 V2000
   46.8140   34.6310   42.3020 N   0  0  0  0  0  0  0  0  0  0  0  0
   48.2750   34.6000   42.3540 C   0  0  0  0  0  0  0  0  0  0  0  0
   48.7190   35.3780   41.0970 C   0  0  0  0  0  0  0  0  0  0  0  0
   48.2800   34.6860   39.8410 C   0  0  0  0  0  0  0  0  0  0  0  0
   46.9990   33.9560   39.9570 C   0  0  0  0  0  0  0  0  0  0  0  0
   46.1250   34.4430   41.0630 C   0  0  1  0  0  0  0  0  0  0  0  0
   44.4750   36.0690   44.8200 C   0  0  0  0  0  0  0  0  0  0  0  0
   45.1910   35.9480   43.6290 C   0  0  0  0  0  0  0  0  0  0  0  0
   46.0440   34.8510   43.4650 C   0  0  0  0  0  0  0  0  0  0  0  0
   46.1020   33.9810   44.5000 N   0  0  0  0  0  0  0  0  0  0  0  0
   45.4070   34.1040   45.6470 C   0  0  0  0  0  0  0  0  0  0  0  0
   44.5900   35.1590   45.8000 N   0  0  0  0  0  0  0  0  0  0  0  0
   44.6780   32.4050   41.4950 C   0  0  0  0  0  0  0  0  0  0  0  0
   44.8430   33.7400   41.1310 C   0  0  0  0  0  0  0  0  0  0  0  0
   43.6070   34.3350   40.8480 C   0  0  0  0  0  0  0  0  0  0  0  0
   42.3800   33.7550   40.9000 C   0  0  0  0  0  0  0  0  0  0  0  0
   42.3350   32.4270   41.2740 C   0  0  0  0  0  0  0  0  0  0  0  0
   43.4730   31.7490   41.5710 C   0  0  0  0  0  0  0  0  0  0  0  0
   46.7990   31.0260   42.0500 N   0  0  0  0  0  0  0  0  0  0  0  0
   45.8460   31.6330   41.8030 C   0  0  0  0  0  0  0  0  0  0  0  0
   48.6428   35.0918   43.2666 H   0  0  0  0  0  0  0  0  0  0  0  0
   48.6727   33.5746   42.3754 H   0  0  0  0  0  0  0  0  0  0  0  0
   48.2763   36.3846   41.1243 H   0  0  0  0  0  0  0  0  0  0  0  0
   49.8176   35.4343   41.0951 H   0  0  0  0  0  0  0  0  0  0  0  0
   49.0608   33.9659   39.5549 H   0  0  0  0  0  0  0  0  0  0  0  0
   48.1236   35.4734   39.0890 H   0  0  0  0  0  0  0  0  0  0  0  0
   46.4513   34.0644   39.0092 H   0  0  0  0  0  0  0  0  0  0  0  0
   47.2473   32.9086   40.1833 H   0  0  0  0  0  0  0  0  0  0  0  0
   45.8329   35.4710   40.8023 H   0  0  0  0  0  0  0  0  0  0  0  0
   43.8021   36.9280   44.9590 H   0  0  0  0  0  0  0  0  0  0  0  0
   45.0870   36.7008   42.8337 H   0  0  0  0  0  0  0  0  0  0  0  0
   45.5068   33.3533   46.4448 H   0  0  0  0  0  0  0  0  0  0  0  0
   43.6331   35.3934   40.5494 H   0  0  0  0  0  0  0  0  0  0  0  0
   41.4661   34.3165   40.6558 H   0  0  0  0  0  0  0  0  0  0  0  0
   41.3649   31.9117   41.3321 H   0  0  0  0  0  0  0  0  0  0  0  0
   43.4311   30.6907   41.8680 H   0  0  0  0  0  0  0  0  0  0  0  0
  1  2  1  0
  1  9  1  0
  3  2  1  0
  4  5  1  0
  4  3  1  0
  5  6  1  0
  6 14  1  0
  6  1  1  0
  7 12  2  0
  8  7  1  0
  9  8  2  0
  9 10  1  0
 10 11  2  0
 11 12  1  0
 13 18  2  0
 13 20  1  0
 14 13  1  0
 15 16  1  0
 15 14  2  0
 16 17  2  0
 17 18  1  0
 20 19  3  0
  2 21  1  0
  2 22  1  0
  3 23  1  0
  3 24  1  0
  4 25  1  0
  4 26  1  0
  5 27  1  0
  5 28  1  0
  6 29  1  6
  7 30  1  0
  8 31  1  0
 11 32  1  0
 15 33  1  0
 16 34  1  0
 17 35  1  0
 18 36  1  0
M  ISO  8  21  13  22  13  23  13  24  13  25  13  26  13  27  13  28  13
M  ISO  8  29  13  30  14  31  14  32  14  33  14  34  14  35  14  36  14
M  END
>  <minimizedAffinity>  (1) 
-5.3451829

>  <minimizedRMSD>  (1) 
0.494775027

$$$$
