
     RDKit          3D

 42 45  0  0  1  0  0  0  0  0999 V2000
   47.3070   33.3840   41.0900 O   0  0  0  0  0  0  0  0  0  0  0  0
   47.4120   33.5980   39.6930 C   0  0  0  0  0  0  0  0  0  0  0  0
   48.3080   34.3530   38.9260 C   0  0  0  0  0  0  0  0  0  0  0  0
   47.9720   34.2260   37.5910 C   0  0  0  0  0  0  0  0  0  0  0  0
   46.8920   33.4040   37.6050 C   0  0  0  0  0  0  0  0  0  0  0  0
   46.5710   33.0410   38.8380 O   0  0  0  0  0  0  0  0  0  0  0  0
   46.1670   32.9710   36.3930 C   0  0  2  0  0  0  0  0  0  0  0  0
   45.8880   31.5580   36.1450 C   0  0  0  0  0  0  0  0  0  0  0  0
   47.0420   32.1430   35.4120 C   0  0  1  0  0  0  0  0  0  0  0  0
   47.8760   32.6180   33.1180 C   0  0  0  0  0  0  0  0  0  0  0  0
   49.0860   32.5310   33.4770 O   0  0  0  0  0  0  0  0  0  0  0  0
   46.7880   32.4800   34.0150 N   0  0  0  0  0  0  0  0  0  0  0  0
   47.3430   34.5120   41.9460 C   0  0  0  0  0  0  0  0  0  0  0  0
   48.0000   35.5050   41.5340 O   0  0  0  0  0  0  0  0  0  0  0  0
   46.6310   34.3940   43.1740 C   0  0  0  0  0  0  0  0  0  0  0  0
   45.6040   35.2620   43.3630 C   0  0  0  0  0  0  0  0  0  0  0  0
   44.8710   35.1960   44.5440 C   0  0  0  0  0  0  0  0  0  0  0  0
   45.2070   34.2760   45.4530 N   0  0  0  0  0  0  0  0  0  0  0  0
   46.2260   33.4250   45.2520 C   0  0  0  0  0  0  0  0  0  0  0  0
   46.9090   33.5150   44.1080 N   0  0  0  0  0  0  0  0  0  0  0  0
   46.3180   31.0980   46.0210 C   0  0  0  0  0  0  0  0  0  0  0  0
   46.5710   32.4370   46.2530 C   0  0  0  0  0  0  0  0  0  0  0  0
   47.1580   32.7760   47.4600 C   0  0  0  0  0  0  0  0  0  0  0  0
   47.4920   31.8330   48.4240 C   0  0  0  0  0  0  0  0  0  0  0  0
   47.2180   30.5100   48.1450 C   0  0  0  0  0  0  0  0  0  0  0  0
   46.6380   30.1330   46.9600 C   0  0  0  0  0  0  0  0  0  0  0  0
   45.2090   30.3550   43.8070 N   0  0  0  0  0  0  0  0  0  0  0  0
   45.7100   30.6800   44.7850 C   0  0  0  0  0  0  0  0  0  0  0  0
   49.1431   34.9499   39.3214 H   0  0  0  0  0  0  0  0  0  0  0  0
   48.4648   34.6841   36.7208 H   0  0  0  0  0  0  0  0  0  0  0  0
   45.5271   33.8656   36.3787 H   0  0  0  0  0  0  0  0  0  0  0  0
   46.0716   30.8234   36.9429 H   0  0  0  0  0  0  0  0  0  0  0  0
   44.9894   31.0093   35.8263 H   0  0  0  0  0  0  0  0  0  0  0  0
   48.1044   31.8829   35.2947 H   0  0  0  0  0  0  0  0  0  0  0  0
   47.6579   32.8103   32.0571 H   0  0  0  0  0  0  0  0  0  0  0  0
   45.8227   32.6168   33.6828 H   0  0  0  0  0  0  0  0  0  0  0  0
   45.3549   36.0071   42.5931 H   0  0  0  0  0  0  0  0  0  0  0  0
   44.0336   35.8858   44.7253 H   0  0  0  0  0  0  0  0  0  0  0  0
   47.3688   33.8361   47.6643 H   0  0  0  0  0  0  0  0  0  0  0  0
   47.9579   32.1304   49.3750 H   0  0  0  0  0  0  0  0  0  0  0  0
   47.4701   29.7401   48.8891 H   0  0  0  0  0  0  0  0  0  0  0  0
   46.4290   29.0721   46.7579 H   0  0  0  0  0  0  0  0  0  0  0  0
  1 13  1  0
  2  1  1  0
  3  2  2  0
  4  5  2  0
  4  3  1  0
  5  6  1  0
  6  2  1  0
  7  5  1  0
  8  7  1  0
  9  8  1  0
  9  7  1  0
 10 11  2  0
 10 12  1  0
 12  9  1  0
 13 15  1  0
 14 13  2  0
 15 16  2  0
 15 20  1  0
 16 17  1  0
 17 18  2  0
 19 18  1  0
 19 22  1  0
 20 19  2  0
 21 22  2  0
 21 26  1  0
 22 23  1  0
 23 24  2  0
 25 24  1  0
 26 25  2  0
 27 28  3  0
 28 21  1  0
  3 29  1  0
  4 30  1  0
  7 31  1  6
  8 32  1  0
  8 33  1  0
  9 34  1  1
 10 35  1  0
 12 36  1  0
 16 37  1  0
 17 38  1  0
 23 39  1  0
 24 40  1  0
 25 41  1  0
 26 42  1  0
M  ISO  8  29  14  30  14  31  13  32  13  33  13  34  13  35   6  37  14
M  ISO  5  38  14  39  14  40  14  41  14  42  14
M  END
>  <minimizedAffinity>  (1) 
-5.84742928

>  <minimizedRMSD>  (1) 
0.80127424

$$$$
