
     RDKit          3D

 23 24  0  0  0  0  0  0  0  0999 V2000
   44.9870   34.9810   44.3270 C   0  0  0  0  0  0  0  0  0  0  0  0
   45.8490   35.1660   43.2350 C   0  0  0  0  0  0  0  0  0  0  0  0
   47.0230   34.3640   43.1690 C   0  0  0  0  0  0  0  0  0  0  0  0
   47.2280   33.4740   44.1700 N   0  0  0  0  0  0  0  0  0  0  0  0
   46.3810   33.3250   45.2010 C   0  0  0  0  0  0  0  0  0  0  0  0
   45.2630   34.0840   45.2670 N   0  0  0  0  0  0  0  0  0  0  0  0
   43.8180   35.7710   44.4020 N   0  0  0  0  0  0  0  0  0  0  0  0
   46.2810   31.0410   46.0420 C   0  0  0  0  0  0  0  0  0  0  0  0
   46.6190   32.3600   46.2720 C   0  0  0  0  0  0  0  0  0  0  0  0
   47.1660   32.7450   47.4850 C   0  0  0  0  0  0  0  0  0  0  0  0
   47.3840   31.8120   48.4900 C   0  0  0  0  0  0  0  0  0  0  0  0
   47.0350   30.5020   48.2280 C   0  0  0  0  0  0  0  0  0  0  0  0
   46.4960   30.1160   47.0380 C   0  0  0  0  0  0  0  0  0  0  0  0
   45.2480   30.3170   43.7670 N   0  0  0  0  0  0  0  0  0  0  0  0
   45.7100   30.6390   44.7780 C   0  0  0  0  0  0  0  0  0  0  0  0
   45.6243   35.9077   42.4544 H   0  0  0  0  0  0  0  0  0  0  0  0
   47.7363   34.4629   42.3375 H   0  0  0  0  0  0  0  0  0  0  0  0
   43.6160   36.4630   43.6663 H   0  0  0  0  0  0  0  0  0  0  0  0
   43.1678   35.6550   45.1924 H   0  0  0  0  0  0  0  0  0  0  0  0
   47.4301   33.7994   47.6536 H   0  0  0  0  0  0  0  0  0  0  0  0
   47.8179   32.1051   49.4574 H   0  0  0  0  0  0  0  0  0  0  0  0
   47.1980   29.7434   49.0077 H   0  0  0  0  0  0  0  0  0  0  0  0
   46.2317   29.0611   46.8726 H   0  0  0  0  0  0  0  0  0  0  0  0
  1  7  1  0
  1  6  2  0
  2  1  1  0
  3  2  2  0
  3  4  1  0
  4  5  2  0
  5  6  1  0
  5  9  1  0
  8  9  2  0
  8 13  1  0
  9 10  1  0
 10 11  2  0
 12 11  1  0
 13 12  2  0
 14 15  3  0
 15  8  1  0
  2 16  1  0
  3 17  1  0
  7 18  1  0
  7 19  1  0
 10 20  1  0
 11 21  1  0
 12 22  1  0
 13 23  1  0
M  ISO  6  16  14  17  14  20  14  21  14  22  14  23  14
M  END
>  <minimizedAffinity>  (1) 
-4.68422651

>  <minimizedRMSD>  (1) 
2.04866815

$$$$
