
     RDKit          3D

 43 45  0  0  1  0  0  0  0  0999 V2000
   48.4760   31.2860   48.8380 C   0  0  0  0  0  0  0  0  0  0  0  0
   49.5900   31.8760   49.1000 O   0  0  0  0  0  0  0  0  0  0  0  0
   49.1820   30.0630   48.7640 N   0  0  0  0  0  0  0  0  0  0  0  0
   48.5100   29.2460   47.7420 C   0  0  0  0  0  0  0  0  0  0  0  0
   49.2100   27.9050   47.7430 C   0  0  0  0  0  0  0  0  0  0  0  0
   49.4700   27.4790   49.1170 N   0  0  0  0  0  0  0  0  0  0  0  0
   50.6440   28.2180   49.5060 C   0  0  0  0  0  0  0  0  0  0  0  0
   50.3380   29.6760   49.5310 C   0  0  2  0  0  0  0  0  0  0  0  0
   52.1300   31.9090   50.7660 O   0  0  0  0  0  0  0  0  0  0  0  0
   51.3700   31.0520   51.3190 C   0  0  0  0  0  0  0  0  0  0  0  0
   50.2640   30.0800   50.9920 C   0  0  2  0  0  0  0  0  0  0  0  0
   50.6170   28.9020   51.8370 C   0  0  0  0  0  0  0  0  0  0  0  0
   50.9590   29.5610   53.1650 C   0  0  0  0  0  0  0  0  0  0  0  0
   51.5090   30.8410   52.7390 N   0  0  0  0  0  0  0  0  0  0  0  0
   47.4200   32.1480   48.8030 O   0  0  0  0  0  0  0  0  0  0  0  0
   45.5500   30.4750   47.9960 O   0  0  0  0  0  0  0  0  0  0  0  0
   45.8090   31.8520   48.6610 P   0  0  1  0  0  0  0  0  0  0  0  0
   45.0580   31.7670   50.1600 O   0  0  0  0  0  0  0  0  0  0  0  0
   45.0640   33.0220   47.6980 O   0  0  0  0  0  0  0  0  0  0  0  0
   47.0580   32.7940   44.6780 C   0  0  0  0  0  0  0  0  0  0  0  0
   46.5290   32.5240   45.9610 C   0  0  0  0  0  0  0  0  0  0  0  0
   45.5350   33.3350   46.4510 C   0  0  0  0  0  0  0  0  0  0  0  0
   45.0960   34.3680   45.6870 N   0  0  0  0  0  0  0  0  0  0  0  0
   45.6110   34.6150   44.4640 C   0  0  0  0  0  0  0  0  0  0  0  0
   46.5830   33.8380   43.9600 N   0  0  0  0  0  0  0  0  0  0  0  0
   48.5998   29.7218   46.7543 H   0  0  0  0  0  0  0  0  0  0  0  0
   47.4371   29.1372   47.9589 H   0  0  0  0  0  0  0  0  0  0  0  0
   48.5717   27.1603   47.2451 H   0  0  0  0  0  0  0  0  0  0  0  0
   50.1655   27.9955   47.2056 H   0  0  0  0  0  0  0  0  0  0  0  0
   48.6739   27.7121   49.7275 H   0  0  0  0  0  0  0  0  0  0  0  0
   50.9636   27.8948   50.5077 H   0  0  0  0  0  0  0  0  0  0  0  0
   51.4490   28.0285   48.7807 H   0  0  0  0  0  0  0  0  0  0  0  0
   51.1400   30.2268   49.0178 H   0  0  0  0  0  0  0  0  0  0  0  0
   49.2574   30.4864   51.1694 H   0  0  0  0  0  0  0  0  0  0  0  0
   49.7654   28.2133   51.9395 H   0  0  0  0  0  0  0  0  0  0  0  0
   51.4291   28.2856   51.4240 H   0  0  0  0  0  0  0  0  0  0  0  0
   50.0609   29.6990   53.7850 H   0  0  0  0  0  0  0  0  0  0  0  0
   51.6463   28.9698   53.7880 H   0  0  0  0  0  0  0  0  0  0  0  0
   51.9474   31.5184   53.3792 H   0  0  0  0  0  0  0  0  0  0  0  0
   45.7385   31.8440   50.8749 H   0  0  0  0  0  0  0  0  0  0  0  0
   47.8537   32.1570   44.2645 H   0  0  0  0  0  0  0  0  0  0  0  0
   46.9068   31.6795   46.5560 H   0  0  0  0  0  0  0  0  0  0  0  0
   45.2303   35.4618   43.8741 H   0  0  0  0  0  0  0  0  0  0  0  0
  1  2  2  0
  3  1  1  0
  3  8  1  0
  4  5  1  0
  4  3  1  0
  5  6  1  0
  6  7  1  0
  7  8  1  0
  8 11  1  0
  9 10  2  0
 10 14  1  0
 11 10  1  0
 11 12  1  0
 12 13  1  0
 14 13  1  0
 15  1  1  0
 17 16  2  0
 17 15  1  0
 17 18  1  0
 19 17  1  0
 20 21  2  0
 21 22  1  0
 22 19  1  0
 23 22  2  0
 24 23  1  0
 25 24  2  0
 25 20  1  0
  4 26  1  0
  4 27  1  0
  5 28  1  0
  5 29  1  0
  6 30  1  0
  7 31  1  0
  7 32  1  0
  8 33  1  6
 11 34  1  1
 12 35  1  0
 12 36  1  0
 13 37  1  0
 13 38  1  0
 14 39  1  0
 18 40  1  0
 20 41  1  0
 21 42  1  0
 24 43  1  0
M  ISO  8  26  13  27  13  28  13  29  13  30   5  31  13  32  13  33  13
M  ISO  8  34  13  35  13  36  13  37  13  38  13  39  10  40   3  41  14
M  ISO  2  42  14  43  14
M  END
>  <minimizedAffinity>  (1) 
-5.79782724

>  <minimizedRMSD>  (1) 
1.21661568

$$$$
