
     RDKit          3D

 23 24  0  0  1  0  0  0  0  0999 V2000
   46.4640   34.6100   42.1230 C   0  0  0  0  0  0  0  0  0  0  0  0
   46.5180   34.2590   40.7740 C   0  0  0  0  0  0  0  0  0  0  0  0
   47.7680   34.0760   40.1820 C   0  0  0  0  0  0  0  0  0  0  0  0
   48.8520   34.2520   40.9580 N   0  0  0  0  0  0  0  0  0  0  0  0
   48.7890   34.5940   42.2680 C   0  0  0  0  0  0  0  0  0  0  0  0
   47.5860   34.7740   42.8550 N   0  0  0  0  0  0  0  0  0  0  0  0
   45.3440   32.7430   43.8710 O   0  0  0  0  0  0  0  0  0  0  0  0
   45.0980   33.9440   44.0340 C   0  0  0  0  0  0  0  0  0  0  0  0
   45.1920   34.8280   42.8510 C   0  0  1  0  0  0  0  0  0  0  0  0
   45.1810   36.2330   43.3740 C   0  0  0  0  0  0  0  0  0  0  0  0
   44.5370   36.1500   44.7200 C   0  0  0  0  0  0  0  0  0  0  0  0
   44.7230   34.7890   45.1060 N   0  0  0  0  0  0  0  0  0  0  0  0
   45.2590   34.1170   40.1170 N   0  0  0  0  0  0  0  0  0  0  0  0
   47.8631   33.7986   39.1218 H   0  0  0  0  0  0  0  0  0  0  0  0
   49.7131   34.7243   42.8503 H   0  0  0  0  0  0  0  0  0  0  0  0
   44.3618   34.6249   42.1585 H   0  0  0  0  0  0  0  0  0  0  0  0
   46.2073   36.6192   43.4615 H   0  0  0  0  0  0  0  0  0  0  0  0
   44.6393   36.9154   42.7025 H   0  0  0  0  0  0  0  0  0  0  0  0
   45.0288   36.8294   45.4317 H   0  0  0  0  0  0  0  0  0  0  0  0
   43.4774   36.4449   44.7023 H   0  0  0  0  0  0  0  0  0  0  0  0
   44.5966   34.4537   46.0716 H   0  0  0  0  0  0  0  0  0  0  0  0
   45.2244   33.8594   39.1203 H   0  0  0  0  0  0  0  0  0  0  0  0
   44.3850   34.2722   40.6395 H   0  0  0  0  0  0  0  0  0  0  0  0
  1  6  1  0
  2  1  2  0
  3  2  1  0
  3  4  2  0
  4  5  1  0
  5  6  2  0
  7  8  2  0
  8 12  1  0
  9  1  1  0
  9 10  1  0
  9  8  1  0
 10 11  1  0
 11 12  1  0
 13  2  1  0
  3 14  1  0
  5 15  1  0
  9 16  1  6
 10 17  1  0
 10 18  1  0
 11 19  1  0
 11 20  1  0
 12 21  1  0
 13 22  1  0
 13 23  1  0
M  ISO  8  14  14  15  14  16  13  17  13  18  13  19  13  20  13  21  10
M  END
>  <minimizedAffinity>  (1) 
-4.32216978

>  <minimizedRMSD>  (1) 
3.94256806

$$$$
