
     RDKit          3D

 43 45  0  0  1  0  0  0  0  0999 V2000
   47.4400   34.4740   42.7180 C   0  0  1  0  0  0  0  0  0  0  0  0
   48.8400   35.0470   42.9010 C   0  0  0  0  0  0  0  0  0  0  0  0
   49.1590   35.5550   41.5290 C   0  0  0  0  0  0  0  0  0  0  0  0
   48.3380   34.7400   40.5700 C   0  0  0  0  0  0  0  0  0  0  0  0
   47.6250   33.6950   41.4430 C   0  0  1  0  0  0  0  0  0  0  0  0
   50.8670   33.0680   41.6000 O   0  0  0  0  0  0  0  0  0  0  0  0
   49.8070   32.5860   41.0630 C   0  0  0  0  0  0  0  0  0  0  0  0
   48.3770   32.4270   41.5320 C   0  0  2  0  0  0  0  0  0  0  0  0
   47.8680   31.4490   40.4960 C   0  0  0  0  0  0  0  0  0  0  0  0
   48.6260   31.9040   39.2430 C   0  0  0  0  0  0  0  0  0  0  0  0
   49.9590   32.0810   39.7450 N   0  0  0  0  0  0  0  0  0  0  0  0
   47.0260   33.7350   43.7930 O   0  0  0  0  0  0  0  0  0  0  0  0
   45.2340   35.6010   43.8700 O   0  0  0  0  0  0  0  0  0  0  0  0
   45.4680   34.1620   44.2250 P   0  0  1  0  0  0  0  0  0  0  0  0
   44.3480   33.1250   43.5290 O   0  0  0  0  0  0  0  0  0  0  0  0
   45.3040   33.9710   45.9030 O   0  0  0  0  0  0  0  0  0  0  0  0
   46.3410   33.1990   46.3420 C   0  0  0  0  0  0  0  0  0  0  0  0
   45.3100   31.3480   49.4010 C   0  0  0  0  0  0  0  0  0  0  0  0
   45.7380   32.3970   48.5820 C   0  0  0  0  0  0  0  0  0  0  0  0
   45.8920   32.1150   47.2270 C   0  0  0  0  0  0  0  0  0  0  0  0
   45.6220   30.8500   46.7730 N   0  0  0  0  0  0  0  0  0  0  0  0
   45.2090   29.8630   47.6030 C   0  0  0  0  0  0  0  0  0  0  0  0
   45.0600   30.1200   48.8940 N   0  0  0  0  0  0  0  0  0  0  0  0
   46.6326   35.2183   42.6539 H   0  0  0  0  0  0  0  0  0  0  0  0
   48.8431   35.8630   43.6386 H   0  0  0  0  0  0  0  0  0  0  0  0
   49.5690   34.3158   43.2804 H   0  0  0  0  0  0  0  0  0  0  0  0
   48.8937   36.6194   41.4468 H   0  0  0  0  0  0  0  0  0  0  0  0
   50.2332   35.4627   41.3107 H   0  0  0  0  0  0  0  0  0  0  0  0
   48.9850   34.2478   39.8290 H   0  0  0  0  0  0  0  0  0  0  0  0
   47.6266   35.3604   40.0052 H   0  0  0  0  0  0  0  0  0  0  0  0
   46.6668   33.3132   41.0608 H   0  0  0  0  0  0  0  0  0  0  0  0
   48.2782   32.1116   42.5812 H   0  0  0  0  0  0  0  0  0  0  0  0
   48.1212   30.4126   40.7639 H   0  0  0  0  0  0  0  0  0  0  0  0
   46.7740   31.4480   40.3812 H   0  0  0  0  0  0  0  0  0  0  0  0
   48.2187   32.8475   38.8506 H   0  0  0  0  0  0  0  0  0  0  0  0
   48.5596   31.1955   38.4042 H   0  0  0  0  0  0  0  0  0  0  0  0
   50.8414   31.8830   39.2520 H   0  0  0  0  0  0  0  0  0  0  0  0
   43.8435   32.6579   44.2413 H   0  0  0  0  0  0  0  0  0  0  0  0
   46.8475   32.7579   45.4708 H   0  0  0  0  0  0  0  0  0  0  0  0
   47.0214   33.8440   46.9174 H   0  0  0  0  0  0  0  0  0  0  0  0
   45.1741   31.5251   50.4781 H   0  0  0  0  0  0  0  0  0  0  0  0
   45.9435   33.3982   48.9888 H   0  0  0  0  0  0  0  0  0  0  0  0
   44.9993   28.8576   47.2091 H   0  0  0  0  0  0  0  0  0  0  0  0
  1  2  1  0
  1 12  1  0
  3  2  1  0
  4  5  1  0
  4  3  1  0
  5  8  1  0
  5  1  1  0
  7  8  1  0
  7  6  2  0
  8  9  1  0
 10 11  1  0
 10  9  1  0
 11  7  1  0
 12 14  1  0
 14 13  2  0
 14 16  1  0
 15 14  1  0
 16 17  1  0
 17 20  1  0
 19 18  2  0
 20 19  1  0
 21 20  2  0
 21 22  1  0
 22 23  2  0
 23 18  1  0
  1 24  1  6
  2 25  1  0
  2 26  1  0
  3 27  1  0
  3 28  1  0
  4 29  1  0
  4 30  1  0
  5 31  1  6
  8 32  1  1
  9 33  1  0
  9 34  1  0
 10 35  1  0
 10 36  1  0
 11 37  1  0
 15 38  1  0
 17 39  1  0
 17 40  1  0
 18 41  1  0
 19 42  1  0
 22 43  1  0
M  ISO  8  24  13  25  13  26  13  27  13  28  13  29  13  30  13  31  13
M  ISO  8  32  13  33  13  34  13  35  13  36  13  37  10  38   3  39   8
M  ISO  4  40   8  41  14  42  14  43  14
M  END
>  <minimizedAffinity>  (1) 
-5.76458073

>  <minimizedRMSD>  (1) 
2.71163058

$$$$
