
     RDKit          3D

 35 37  0  0  1  0  0  0  0  0999 V2000
   47.1360   34.3540   42.5330 N   0  0  0  0  0  0  0  0  0  0  0  0
   48.5590   34.1050   42.8000 C   0  0  0  0  0  0  0  0  0  0  0  0
   49.4270   34.3730   41.6200 C   0  0  0  0  0  0  0  0  0  0  0  0
   48.9900   33.7120   40.4490 N   0  0  0  0  0  0  0  0  0  0  0  0
   47.6060   33.7510   40.2000 C   0  0  0  0  0  0  0  0  0  0  0  0
   46.6820   34.3190   41.2060 C   0  0  1  0  0  0  0  0  0  0  0  0
   45.2700   34.1570   45.7690 C   0  0  0  0  0  0  0  0  0  0  0  0
   46.1950   33.7760   44.7590 C   0  0  0  0  0  0  0  0  0  0  0  0
   46.2610   34.6230   43.6230 C   0  0  0  0  0  0  0  0  0  0  0  0
   45.4540   35.7430   43.5480 N   0  0  0  0  0  0  0  0  0  0  0  0
   44.5940   36.0240   44.5760 C   0  0  0  0  0  0  0  0  0  0  0  0
   44.5100   35.2370   45.6670 N   0  0  0  0  0  0  0  0  0  0  0  0
   45.2890   31.3370   42.3290 O   0  0  0  0  0  0  0  0  0  0  0  0
   45.5920   32.1250   41.4010 C   0  0  0  0  0  0  0  0  0  0  0  0
   45.3610   33.6030   41.0380 C   0  0  2  0  0  0  0  0  0  0  0  0
   44.9410   33.3730   39.6140 C   0  0  0  0  0  0  0  0  0  0  0  0
   45.9910   32.4120   39.0560 C   0  0  0  0  0  0  0  0  0  0  0  0
   46.3820   31.6790   40.2750 N   0  0  0  0  0  0  0  0  0  0  0  0
   48.8799   34.7560   43.6265 H   0  0  0  0  0  0  0  0  0  0  0  0
   48.6654   33.0396   43.0521 H   0  0  0  0  0  0  0  0  0  0  0  0
   49.4335   35.4563   41.4289 H   0  0  0  0  0  0  0  0  0  0  0  0
   50.4308   33.9908   41.8574 H   0  0  0  0  0  0  0  0  0  0  0  0
   49.4672   34.1453   39.6456 H   0  0  0  0  0  0  0  0  0  0  0  0
   47.4671   34.3348   39.2781 H   0  0  0  0  0  0  0  0  0  0  0  0
   47.3266   32.6873   40.1773 H   0  0  0  0  0  0  0  0  0  0  0  0
   46.5856   35.3963   41.0058 H   0  0  0  0  0  0  0  0  0  0  0  0
   45.1821   33.5312   46.6693 H   0  0  0  0  0  0  0  0  0  0  0  0
   46.8225   32.8774   44.8528 H   0  0  0  0  0  0  0  0  0  0  0  0
   43.9543   36.9164   44.5095 H   0  0  0  0  0  0  0  0  0  0  0  0
   44.6496   34.2145   41.6124 H   0  0  0  0  0  0  0  0  0  0  0  0
   43.9390   32.9211   39.5723 H   0  0  0  0  0  0  0  0  0  0  0  0
   44.8825   34.3087   39.0387 H   0  0  0  0  0  0  0  0  0  0  0  0
   45.5604   31.7382   38.3007 H   0  0  0  0  0  0  0  0  0  0  0  0
   46.8262   32.9059   38.5377 H   0  0  0  0  0  0  0  0  0  0  0  0
   47.1124   30.9540   40.3179 H   0  0  0  0  0  0  0  0  0  0  0  0
  1  2  1  0
  1  9  1  0
  3  2  1  0
  4  3  1  0
  5  4  1  0
  5  6  1  0
  6  1  1  0
  8  7  2  0
  9  8  1  0
 10  9  2  0
 10 11  1  0
 11 12  2  0
 12  7  1  0
 14 13  2  0
 15 16  1  0
 15  6  1  0
 15 14  1  0
 17 16  1  0
 17 18  1  0
 18 14  1  0
  2 19  1  0
  2 20  1  0
  3 21  1  0
  3 22  1  0
  4 23  1  0
  5 24  1  0
  5 25  1  0
  6 26  1  6
  7 27  1  0
  8 28  1  0
 11 29  1  0
 15 30  1  1
 16 31  1  0
 16 32  1  0
 17 33  1  0
 17 34  1  0
 18 35  1  0
M  ISO  8  19  13  20  13  21  13  22  13  23   5  24  13  25  13  26  13
M  ISO  8  27  14  28  14  29  14  30  13  31  13  32  13  33  13  34  13
M  ISO  1  35  10
M  END
>  <minimizedAffinity>  (1) 
-4.49094105

>  <minimizedRMSD>  (1) 
4.0627799

$$$$
