
     RDKit          3D

 44 47  0  0  1  0  0  0  0  0999 V2000
   46.9160   31.6790   39.5000 C   0  0  0  0  0  0  0  0  0  0  0  0
   46.6220   32.9990   39.3340 C   0  0  0  0  0  0  0  0  0  0  0  0
   47.3200   33.7220   38.3850 C   0  0  0  0  0  0  0  0  0  0  0  0
   48.2910   33.1160   37.6230 C   0  0  0  0  0  0  0  0  0  0  0  0
   48.6040   31.7690   37.7760 C   0  0  0  0  0  0  0  0  0  0  0  0
   47.8970   31.0510   38.7340 C   0  0  0  0  0  0  0  0  0  0  0  0
   45.3710   35.9640   43.3520 Cl  0  0  0  0  0  0  0  0  0  0  0  0
   45.0230   35.0640   41.9050 C   0  0  0  0  0  0  0  0  0  0  0  0
   45.9980   34.4200   41.2340 C   0  0  0  0  0  0  0  0  0  0  0  0
   45.6130   33.7280   40.0900 C   0  0  0  0  0  0  0  0  0  0  0  0
   44.3130   33.6940   39.6560 C   0  0  0  0  0  0  0  0  0  0  0  0
   43.3470   34.3510   40.3510 C   0  0  0  0  0  0  0  0  0  0  0  0
   43.7140   35.0390   41.4850 C   0  0  0  0  0  0  0  0  0  0  0  0
   49.5290   35.5550   41.9300 C   0  0  0  0  0  0  0  0  0  0  0  0
   48.2200   35.5140   41.4440 C   0  0  0  0  0  0  0  0  0  0  0  0
   47.3530   34.4720   41.7250 C   0  0  0  0  0  0  0  0  0  0  0  0
   47.8700   33.4890   42.5080 N   0  0  0  0  0  0  0  0  0  0  0  0
   49.1300   33.5280   42.9760 C   0  0  0  0  0  0  0  0  0  0  0  0
   49.9460   34.5480   42.6890 N   0  0  0  0  0  0  0  0  0  0  0  0
   46.0820   30.7280   40.6230 S   0  0  0  0  0  0  0  0  0  0  0  0
   44.6690   30.4140   40.1820 O   0  0  0  0  0  0  0  0  0  0  0  0
   46.8040   29.3490   40.5370 O   0  0  0  0  0  0  0  0  0  0  0  0
   43.4840   31.7140   42.5150 O   0  0  0  0  0  0  0  0  0  0  0  0
   44.6030   31.2600   42.8630 C   0  0  0  0  0  0  0  0  0  0  0  0
   45.9620   30.9210   42.2820 C   0  0  1  0  0  0  0  0  0  0  0  0
   45.8270   29.4540   42.8400 C   0  0  0  0  0  0  0  0  0  0  0  0
   45.6970   29.7550   44.3050 C   0  0  0  0  0  0  0  0  0  0  0  0
   44.7790   30.9070   44.2540 N   0  0  0  0  0  0  0  0  0  0  0  0
   47.0972   34.7892   38.2384 H   0  0  0  0  0  0  0  0  0  0  0  0
   48.8338   33.7110   36.8738 H   0  0  0  0  0  0  0  0  0  0  0  0
   49.3813   31.2903   37.1623 H   0  0  0  0  0  0  0  0  0  0  0  0
   48.1125   29.9834   38.8881 H   0  0  0  0  0  0  0  0  0  0  0  0
   44.0516   33.1351   38.7454 H   0  0  0  0  0  0  0  0  0  0  0  0
   42.2995   34.3332   40.0158 H   0  0  0  0  0  0  0  0  0  0  0  0
   42.9488   35.5769   42.0639 H   0  0  0  0  0  0  0  0  0  0  0  0
   50.1952   36.3970   41.6910 H   0  0  0  0  0  0  0  0  0  0  0  0
   47.8642   36.3421   40.8134 H   0  0  0  0  0  0  0  0  0  0  0  0
   49.4967   32.7050   43.6071 H   0  0  0  0  0  0  0  0  0  0  0  0
   46.7611   31.6435   42.5044 H   0  0  0  0  0  0  0  0  0  0  0  0
   44.9350   28.9456   42.4451 H   0  0  0  0  0  0  0  0  0  0  0  0
   46.6503   28.7749   42.5736 H   0  0  0  0  0  0  0  0  0  0  0  0
   45.2601   28.9100   44.8573 H   0  0  0  0  0  0  0  0  0  0  0  0
   46.6484   29.9457   44.8231 H   0  0  0  0  0  0  0  0  0  0  0  0
   44.3428   31.3748   45.0613 H   0  0  0  0  0  0  0  0  0  0  0  0
  1 20  1  0
  2  1  1  0
  2 10  1  0
  3  2  2  0
  4  5  2  0
  4  3  1  0
  5  6  1  0
  6  1  2  0
  8  7  1  0
  9 16  1  0
  9  8  2  0
 10  9  1  0
 11 10  2  0
 11 12  1  0
 12 13  2  0
 13  8  1  0
 14 19  2  0
 15 16  2  0
 15 14  1  0
 16 17  1  0
 17 18  2  0
 19 18  1  0
 21 20  2  0
 22 20  2  0
 23 24  2  0
 24 28  1  0
 25 20  1  0
 25 26  1  0
 25 24  1  0
 26 27  1  0
 28 27  1  0
  3 29  1  0
  4 30  1  0
  5 31  1  0
  6 32  1  0
 11 33  1  0
 12 34  1  0
 13 35  1  0
 14 36  1  0
 15 37  1  0
 18 38  1  0
 25 39  1  1
 26 40  1  0
 26 41  1  0
 27 42  1  0
 27 43  1  0
 28 44  1  0
M  ISO  8  29  14  30  14  31  14  32  14  33  14  34  14  35  14  36  14
M  ISO  8  37  14  38  14  39  13  40  13  41  13  42  13  43  13  44  10
M  END
>  <minimizedAffinity>  (1) 
-5.0182066

>  <minimizedRMSD>  (1) 
1.24002922

$$$$
