
     RDKit          3D

 44 47  0  0  1  0  0  0  0  0999 V2000
   45.1360   36.0160   43.4890 C   0  0  0  0  0  0  0  0  0  0  0  0
   45.9200   34.8960   43.2550 C   0  0  0  0  0  0  0  0  0  0  0  0
   46.0380   33.9600   44.2520 C   0  0  0  0  0  0  0  0  0  0  0  0
   45.3780   34.1730   45.4330 N   0  0  0  0  0  0  0  0  0  0  0  0
   44.6220   35.2710   45.6340 C   0  0  0  0  0  0  0  0  0  0  0  0
   44.5060   36.1710   44.6790 N   0  0  0  0  0  0  0  0  0  0  0  0
   46.5690   34.7960   42.0220 N   0  0  0  0  0  0  0  0  0  0  0  0
   47.8870   35.2650   41.8080 C   0  0  0  0  0  0  0  0  0  0  0  0
   48.4650   34.9270   40.4560 C   0  0  0  0  0  0  0  0  0  0  0  0
   48.1560   33.6410   39.9570 N   0  0  0  0  0  0  0  0  0  0  0  0
   46.8530   33.1830   40.1780 C   0  0  0  0  0  0  0  0  0  0  0  0
   45.9880   34.2250   40.8560 C   0  0  0  0  0  0  0  0  0  0  0  0
   46.4540   32.0200   45.5170 C   0  0  0  0  0  0  0  0  0  0  0  0
   46.7320   32.7400   44.3330 C   0  0  0  0  0  0  0  0  0  0  0  0
   47.6830   32.0810   43.5710 C   0  0  0  0  0  0  0  0  0  0  0  0
   48.2910   30.9050   43.8880 C   0  0  0  0  0  0  0  0  0  0  0  0
   47.9600   30.2740   45.0700 C   0  0  0  0  0  0  0  0  0  0  0  0
   47.0340   30.8290   45.8980 C   0  0  0  0  0  0  0  0  0  0  0  0
   48.7480   29.1350   45.0900 O   0  0  0  0  0  0  0  0  0  0  0  0
   49.4020   28.9740   43.8580 C   0  0  2  0  0  0  0  0  0  0  0  0
   49.2400   30.2090   43.1550 O   0  0  0  0  0  0  0  0  0  0  0  0
   48.6980   27.8650   43.1550 C   0  0  0  0  0  0  0  0  0  0  0  0
   47.9110   26.9100   43.6380 C   0  0  0  0  0  0  0  0  0  0  0  0
   47.1820   25.7810   42.9950 C   0  0  0  0  0  0  0  0  0  0  0  0
   45.0252   36.7809   42.7063 H   0  0  0  0  0  0  0  0  0  0  0  0
   44.1032   35.4151   46.5932 H   0  0  0  0  0  0  0  0  0  0  0  0
   47.8826   36.3598   41.9147 H   0  0  0  0  0  0  0  0  0  0  0  0
   48.5209   34.7601   42.5518 H   0  0  0  0  0  0  0  0  0  0  0  0
   48.0901   35.6677   39.7343 H   0  0  0  0  0  0  0  0  0  0  0  0
   49.5571   34.9413   40.5869 H   0  0  0  0  0  0  0  0  0  0  0  0
   48.8023   32.9707   40.3973 H   0  0  0  0  0  0  0  0  0  0  0  0
   46.4002   32.9220   39.2101 H   0  0  0  0  0  0  0  0  0  0  0  0
   46.9106   32.3078   40.8419 H   0  0  0  0  0  0  0  0  0  0  0  0
   45.7937   35.0336   40.1360 H   0  0  0  0  0  0  0  0  0  0  0  0
   45.0700   33.7122   41.1789 H   0  0  0  0  0  0  0  0  0  0  0  0
   45.7049   32.4502   46.1980 H   0  0  0  0  0  0  0  0  0  0  0  0
   47.9741   32.5522   42.6206 H   0  0  0  0  0  0  0  0  0  0  0  0
   46.7562   30.3414   46.8441 H   0  0  0  0  0  0  0  0  0  0  0  0
   50.4724   28.7360   43.9455 H   0  0  0  0  0  0  0  0  0  0  0  0
   48.8542   27.8318   42.0667 H   0  0  0  0  0  0  0  0  0  0  0  0
   47.7697   26.9633   44.7276 H   0  0  0  0  0  0  0  0  0  0  0  0
   46.7598   25.1271   43.7723 H   0  0  0  0  0  0  0  0  0  0  0  0
   46.3695   26.1783   42.3690 H   0  0  0  0  0  0  0  0  0  0  0  0
   47.8785   25.2040   42.3690 H   0  0  0  0  0  0  0  0  0  0  0  0
  1  6  2  0
  2  1  1  0
  2  3  2  0
  3 14  1  0
  3  4  1  0
  4  5  2  0
  6  5  1  0
  7  2  1  0
  8  7  1  0
  9  8  1  0
 10 11  1  0
 10  9  1  0
 11 12  1  0
 12  7  1  0
 13 18  2  0
 14 13  1  0
 15 16  1  0
 15 14  2  0
 16 17  2  0
 17 19  1  0
 17 18  1  0
 20 19  1  0
 21 20  1  0
 21 16  1  0
 22 23  2  0
 22 20  1  0
 24 23  1  0
  1 25  1  0
  5 26  1  0
  8 27  1  0
  8 28  1  0
  9 29  1  0
  9 30  1  0
 10 31  1  0
 11 32  1  0
 11 33  1  0
 12 34  1  0
 12 35  1  0
 13 36  1  0
 15 37  1  0
 18 38  1  0
 20 39  1  1
 22 40  1  0
 23 41  1  0
 24 42  1  0
 24 43  1  0
 24 44  1  0
M  ISO  8  25  14  26  14  27  13  28  13  29  13  30  13  31   5  32  13
M  ISO  8  33  13  34  13  35  13  36  14  37  14  38  14  39  13  42   8
M  ISO  2  43   8  44   8
M  END
>  <minimizedAffinity>  (1) 
-4.86171055

>  <minimizedRMSD>  (1) 
0.401422024

$$$$
