
     RDKit          3D

 33 34  0  0  1  0  0  0  0  0999 V2000
   47.0150   34.1170   41.7690 C   0  0  1  0  0  0  0  0  0  0  0  0
   46.1620   33.7370   40.5950 C   0  0  0  0  0  0  0  0  0  0  0  0
   47.1440   33.1250   39.5940 C   0  0  0  0  0  0  0  0  0  0  0  0
   47.9390   34.3010   39.0400 C   0  0  0  0  0  0  0  0  0  0  0  0
   48.6640   35.0450   40.1030 C   0  0  0  0  0  0  0  0  0  0  0  0
   47.9650   35.2370   41.3910 C   0  0  2  0  0  0  0  0  0  0  0  0
   44.7460   35.9930   44.1560 C   0  0  0  0  0  0  0  0  0  0  0  0
   45.4420   35.7100   42.9720 C   0  0  0  0  0  0  0  0  0  0  0  0
   46.2250   34.5400   42.9400 C   0  0  0  0  0  0  0  0  0  0  0  0
   46.2360   33.7830   44.0680 N   0  0  0  0  0  0  0  0  0  0  0  0
   45.5630   34.0760   45.1830 C   0  0  0  0  0  0  0  0  0  0  0  0
   44.8150   35.1810   45.2340 N   0  0  0  0  0  0  0  0  0  0  0  0
   49.0010   35.2800   42.4630 C   0  0  0  0  0  0  0  0  0  0  0  0
   49.9130   34.3470   42.7060 C   0  0  0  0  0  0  0  0  0  0  0  0
   49.9190   33.1520   41.8510 C   0  0  0  0  0  0  0  0  0  0  0  0
   47.5751   33.2122   42.0476 H   0  0  0  0  0  0  0  0  0  0  0  0
   45.3984   33.0023   40.8902 H   0  0  0  0  0  0  0  0  0  0  0  0
   45.6174   34.5963   40.1766 H   0  0  0  0  0  0  0  0  0  0  0  0
   47.8125   32.4111   40.0974 H   0  0  0  0  0  0  0  0  0  0  0  0
   46.6257   32.5694   38.7986 H   0  0  0  0  0  0  0  0  0  0  0  0
   48.6713   33.9211   38.3124 H   0  0  0  0  0  0  0  0  0  0  0  0
   47.2273   34.9956   38.5699 H   0  0  0  0  0  0  0  0  0  0  0  0
   49.5966   34.5000   40.3109 H   0  0  0  0  0  0  0  0  0  0  0  0
   48.7962   36.0594   39.6987 H   0  0  0  0  0  0  0  0  0  0  0  0
   47.3718   36.1573   41.2851 H   0  0  0  0  0  0  0  0  0  0  0  0
   44.1270   36.9007   44.2087 H   0  0  0  0  0  0  0  0  0  0  0  0
   45.3786   36.3776   42.1000 H   0  0  0  0  0  0  0  0  0  0  0  0
   45.6244   33.4099   46.0562 H   0  0  0  0  0  0  0  0  0  0  0  0
   49.0100   36.1676   43.1127 H   0  0  0  0  0  0  0  0  0  0  0  0
   50.6415   34.4646   43.5218 H   0  0  0  0  0  0  0  0  0  0  0  0
   49.9235   32.2504   42.4811 H   0  0  0  0  0  0  0  0  0  0  0  0
   49.0208   33.1510   41.2159 H   0  0  0  0  0  0  0  0  0  0  0  0
   50.8171   33.1600   41.2159 H   0  0  0  0  0  0  0  0  0  0  0  0
  1  9  1  0
  2  1  1  0
  3  2  1  0
  4  3  1  0
  4  5  1  0
  5  6  1  0
  6  1  1  0
  6 13  1  0
  7 12  2  0
  8  7  1  0
  9  8  2  0
  9 10  1  0
 10 11  2  0
 11 12  1  0
 13 14  2  0
 15 14  1  0
  1 16  1  1
  2 17  1  0
  2 18  1  0
  3 19  1  0
  3 20  1  0
  4 21  1  0
  4 22  1  0
  5 23  1  0
  5 24  1  0
  6 25  1  6
  7 26  1  0
  8 27  1  0
 11 28  1  0
 13 29  1  0
 14 30  1  0
 15 31  1  0
 15 32  1  0
 15 33  1  0
M  ISO  8  16  13  17  13  18  13  19  13  20  13  21  13  22  13  23  13
M  ISO  8  24  13  25  13  26  14  27  14  28  14  31   8  32   8  33   8
M  END
>  <minimizedAffinity>  (1) 
-5.19157219

>  <minimizedRMSD>  (1) 
0.846047044

$$$$
