
     RDKit          3D

 24 24  0  0  0  0  0  0  0  0999 V2000
   44.5850   35.6820   42.4450 C   0  0  0  0  0  0  0  0  0  0  0  0
   44.1260   35.0450   41.2750 C   0  0  0  0  0  0  0  0  0  0  0  0
   44.9700   34.1490   40.6460 C   0  0  0  0  0  0  0  0  0  0  0  0
   46.2000   33.9100   41.1660 N   0  0  0  0  0  0  0  0  0  0  0  0
   46.6090   34.5460   42.3000 C   0  0  0  0  0  0  0  0  0  0  0  0
   45.8130   35.4100   42.9180 N   0  0  0  0  0  0  0  0  0  0  0  0
   42.7900   35.3260   40.7390 C   0  0  0  0  0  0  0  0  0  0  0  0
   41.7000   35.4470   41.4960 C   0  0  0  0  0  0  0  0  0  0  0  0
   40.3670   35.7380   40.8490 C   0  0  0  0  0  0  0  0  0  0  0  0
   47.9210   34.3210   42.8950 C   0  0  0  0  0  0  0  0  0  0  0  0
   49.0380   34.9220   42.5250 C   0  0  0  0  0  0  0  0  0  0  0  0
   49.0760   35.9110   41.4410 C   0  0  0  0  0  0  0  0  0  0  0  0
   43.9391   36.4009   42.9704 H   0  0  0  0  0  0  0  0  0  0  0  0
   44.6464   33.6332   39.7299 H   0  0  0  0  0  0  0  0  0  0  0  0
   42.6816   35.4435   39.6507 H   0  0  0  0  0  0  0  0  0  0  0  0
   41.7710   35.3353   42.5880 H   0  0  0  0  0  0  0  0  0  0  0  0
   39.6092   35.9034   41.6290 H   0  0  0  0  0  0  0  0  0  0  0  0
   40.4519   36.6388   40.2234 H   0  0  0  0  0  0  0  0  0  0  0  0
   40.0688   34.8838   40.2234 H   0  0  0  0  0  0  0  0  0  0  0  0
   47.9860   33.5931   43.7172 H   0  0  0  0  0  0  0  0  0  0  0  0
   49.9729   34.6723   43.0480 H   0  0  0  0  0  0  0  0  0  0  0  0
   49.1149   36.9234   41.8695 H   0  0  0  0  0  0  0  0  0  0  0  0
   49.9683   35.7409   40.8206 H   0  0  0  0  0  0  0  0  0  0  0  0
   48.1733   35.8099   40.8206 H   0  0  0  0  0  0  0  0  0  0  0  0
  1  6  2  0
  2  1  1  0
  3  4  1  0
  3  2  2  0
  4  5  2  0
  5 10  1  0
  5  6  1  0
  7  2  1  0
  7  8  2  0
  9  8  1  0
 11 10  2  0
 12 11  1  0
  1 13  1  0
  3 14  1  0
  7 15  1  0
  8 16  1  0
  9 17  1  0
  9 18  1  0
  9 19  1  0
 10 20  1  0
 11 21  1  0
 12 22  1  0
 12 23  1  0
 12 24  1  0
M  ISO  8  13  14  14  14  17   8  18   8  19   8  22   8  23   8  24   8
M  END
>  <minimizedAffinity>  (1) 
-4.39518023

>  <minimizedRMSD>  (1) 
4.09198236

$$$$
