
     RDKit          3D

 20 20  0  0  0  0  0  0  0  0999 V2000
   44.6920   35.2880   45.0720 C   0  0  0  0  0  0  0  0  0  0  0  0
   45.3990   35.2080   43.8760 C   0  0  0  0  0  0  0  0  0  0  0  0
   46.3680   34.2220   43.7580 C   0  0  0  0  0  0  0  0  0  0  0  0
   46.5780   33.3940   44.7990 N   0  0  0  0  0  0  0  0  0  0  0  0
   45.8740   33.4960   45.9500 C   0  0  0  0  0  0  0  0  0  0  0  0
   44.9250   34.4390   46.1020 N   0  0  0  0  0  0  0  0  0  0  0  0
   45.0170   36.2090   42.8600 C   0  0  0  0  0  0  0  0  0  0  0  0
   46.1470   32.5670   47.0440 C   0  0  0  0  0  0  0  0  0  0  0  0
   45.3090   32.4640   48.0600 C   0  0  0  0  0  0  0  0  0  0  0  0
   45.4560   31.5750   49.2270 C   0  0  0  0  0  0  0  0  0  0  0  0
   43.9206   36.0640   45.1846 H   0  0  0  0  0  0  0  0  0  0  0  0
   46.9532   34.1187   42.8323 H   0  0  0  0  0  0  0  0  0  0  0  0
   44.6677   37.1243   43.3602 H   0  0  0  0  0  0  0  0  0  0  0  0
   45.8885   36.4444   42.2314 H   0  0  0  0  0  0  0  0  0  0  0  0
   44.2102   35.8040   42.2314 H   0  0  0  0  0  0  0  0  0  0  0  0
   47.0567   31.9490   47.0215 H   0  0  0  0  0  0  0  0  0  0  0  0
   44.4146   33.1037   48.0327 H   0  0  0  0  0  0  0  0  0  0  0  0
   45.3586   32.1638   50.1510 H   0  0  0  0  0  0  0  0  0  0  0  0
   44.6734   30.8025   49.2003 H   0  0  0  0  0  0  0  0  0  0  0  0
   46.4456   31.0955   49.2003 H   0  0  0  0  0  0  0  0  0  0  0  0
  1  6  2  0
  2  1  1  0
  3  2  2  0
  3  4  1  0
  4  5  2  0
  5  6  1  0
  5  8  1  0
  7  2  1  0
  8  9  2  0
  9 10  1  0
  1 11  1  0
  3 12  1  0
  7 13  1  0
  7 14  1  0
  7 15  1  0
  8 16  1  0
  9 17  1  0
 10 18  1  0
 10 19  1  0
 10 20  1  0
M  ISO  8  11  14  12  14  13   8  14   8  15   8  18   8  19   8  20   8
M  END
>  <minimizedAffinity>  (1) 
-4.00235701

>  <minimizedRMSD>  (1) 
0.960697889

$$$$
