
     RDKit          3D

 33 34  0  0  0  0  0  0  0  0999 V2000
   46.8290   32.7790   46.1470 C   0  0  0  0  0  0  0  0  0  0  0  0
   46.2500   31.9870   47.2280 C   0  0  0  0  0  0  0  0  0  0  0  0
   45.4310   32.3820   48.2740 C   0  0  0  0  0  0  0  0  0  0  0  0
   44.8960   31.5410   49.2150 C   0  0  0  0  0  0  0  0  0  0  0  0
   45.1970   30.2120   49.1090 C   0  0  0  0  0  0  0  0  0  0  0  0
   46.0180   29.7900   48.0710 C   0  0  0  0  0  0  0  0  0  0  0  0
   46.5480   30.6730   47.1320 C   0  0  0  0  0  0  0  0  0  0  0  0
   47.4400   29.8240   46.3570 C   0  0  0  0  0  0  0  0  0  0  0  0
   48.7100   29.5040   46.4650 C   0  0  0  0  0  0  0  0  0  0  0  0
   49.5780   28.6540   45.6780 C   0  0  0  0  0  0  0  0  0  0  0  0
   46.0910   32.6430   44.8590 C   0  0  0  0  0  0  0  0  0  0  0  0
   44.5490   36.0040   44.7760 C   0  0  0  0  0  0  0  0  0  0  0  0
   44.9590   36.4860   43.5070 C   0  0  0  0  0  0  0  0  0  0  0  0
   45.7510   35.6460   42.7500 C   0  0  0  0  0  0  0  0  0  0  0  0
   46.0880   34.4470   43.2320 N   0  0  0  0  0  0  0  0  0  0  0  0
   45.6660   34.0350   44.4570 C   0  0  0  0  0  0  0  0  0  0  0  0
   44.9120   34.7910   45.2210 N   0  0  0  0  0  0  0  0  0  0  0  0
   46.8193   33.8377   46.4454 H   0  0  0  0  0  0  0  0  0  0  0  0
   47.8503   32.4062   45.9795 H   0  0  0  0  0  0  0  0  0  0  0  0
   45.1919   33.4526   48.3553 H   0  0  0  0  0  0  0  0  0  0  0  0
   44.2513   31.9199   50.0218 H   0  0  0  0  0  0  0  0  0  0  0  0
   44.7957   29.4884   49.8338 H   0  0  0  0  0  0  0  0  0  0  0  0
   46.2586   28.7199   47.9871 H   0  0  0  0  0  0  0  0  0  0  0  0
   46.9457   29.3484   45.4970 H   0  0  0  0  0  0  0  0  0  0  0  0
   49.2126   29.9750   47.3227 H   0  0  0  0  0  0  0  0  0  0  0  0
   50.2007   28.0442   46.3491 H   0  0  0  0  0  0  0  0  0  0  0  0
   48.9680   27.9942   45.0434 H   0  0  0  0  0  0  0  0  0  0  0  0
   50.2248   29.2776   45.0434 H   0  0  0  0  0  0  0  0  0  0  0  0
   46.7467   32.2092   44.0897 H   0  0  0  0  0  0  0  0  0  0  0  0
   45.2213   31.9784   44.9681 H   0  0  0  0  0  0  0  0  0  0  0  0
   43.9169   36.6409   45.4123 H   0  0  0  0  0  0  0  0  0  0  0  0
   44.6606   37.4804   43.1436 H   0  0  0  0  0  0  0  0  0  0  0  0
   46.1021   35.9621   41.7566 H   0  0  0  0  0  0  0  0  0  0  0  0
  1  2  1  0
  2  3  2  0
  3  4  1  0
  5  4  2  0
  6  5  1  0
  7  2  1  0
  7  6  2  0
  8  9  2  0
  8  7  1  0
 10  9  1  0
 11  1  1  0
 12 17  2  0
 13 12  1  0
 14 15  1  0
 14 13  2  0
 15 16  2  0
 16 11  1  0
 16 17  1  0
  1 18  1  0
  1 19  1  0
  3 20  1  0
  4 21  1  0
  5 22  1  0
  6 23  1  0
  8 24  1  0
  9 25  1  0
 10 26  1  0
 10 27  1  0
 10 28  1  0
 11 29  1  0
 11 30  1  0
 12 31  1  0
 13 32  1  0
 14 33  1  0
M  ISO  8  18   8  19   8  20  14  21  14  22  14  23  14  26   8  27   8
M  ISO  6  28   8  29   8  30   8  31  14  32  14  33  14
M  END
>  <minimizedAffinity>  (1) 
-4.69737339

>  <minimizedRMSD>  (1) 
1.29161918

$$$$
