
     RDKit          3D

 35 36  0  0  0  0  0  0  0  0999 V2000
   45.4980   33.0630   47.7550 O   0  0  0  0  0  0  0  0  0  0  0  0
   44.8480   35.1020   44.9230 C   0  0  0  0  0  0  0  0  0  0  0  0
   45.7940   34.6760   43.9710 C   0  0  0  0  0  0  0  0  0  0  0  0
   46.6540   33.6530   44.3730 C   0  0  0  0  0  0  0  0  0  0  0  0
   46.5370   33.1470   45.6110 N   0  0  0  0  0  0  0  0  0  0  0  0
   45.6230   33.5840   46.4810 C   0  0  0  0  0  0  0  0  0  0  0  0
   44.7820   34.5540   46.1430 N   0  0  0  0  0  0  0  0  0  0  0  0
   45.8250   35.3190   42.6340 C   0  0  0  0  0  0  0  0  0  0  0  0
   44.9840   36.4230   42.7710 F   0  0  0  0  0  0  0  0  0  0  0  0
   45.2340   34.4260   41.7520 F   0  0  0  0  0  0  0  0  0  0  0  0
   47.0820   35.6730   42.3280 F   0  0  0  0  0  0  0  0  0  0  0  0
   47.6420   33.1000   43.4930 C   0  0  0  0  0  0  0  0  0  0  0  0
   47.3840   31.9990   42.7660 C   0  0  0  0  0  0  0  0  0  0  0  0
   46.0660   31.2890   42.8310 C   0  0  0  0  0  0  0  0  0  0  0  0
   44.9180   31.7930   47.9680 C   0  0  0  0  0  0  0  0  0  0  0  0
   45.9930   30.7880   47.8610 C   0  0  0  0  0  0  0  0  0  0  0  0
   46.0580   29.5990   47.1540 C   0  0  0  0  0  0  0  0  0  0  0  0
   47.1940   28.8680   47.2400 C   0  0  0  0  0  0  0  0  0  0  0  0
   48.2410   29.2350   47.9660 N   0  0  0  0  0  0  0  0  0  0  0  0
   48.1760   30.3900   48.6510 C   0  0  0  0  0  0  0  0  0  0  0  0
   47.0600   31.1880   48.6160 N   0  0  0  0  0  0  0  0  0  0  0  0
   49.3910   30.7340   49.4430 C   0  0  0  0  0  0  0  0  0  0  0  0
   49.5360   32.0860   49.5770 F   0  0  0  0  0  0  0  0  0  0  0  0
   50.5260   30.2060   48.8130 F   0  0  0  0  0  0  0  0  0  0  0  0
   49.3360   30.1910   50.7200 F   0  0  0  0  0  0  0  0  0  0  0  0
   44.1452   35.9055   44.6577 H   0  0  0  0  0  0  0  0  0  0  0  0
   48.6263   33.5842   43.4116 H   0  0  0  0  0  0  0  0  0  0  0  0
   48.1670   31.6060   42.1008 H   0  0  0  0  0  0  0  0  0  0  0  0
   45.7831   31.1366   43.8830 H   0  0  0  0  0  0  0  0  0  0  0  0
   45.2977   31.8953   42.3288 H   0  0  0  0  0  0  0  0  0  0  0  0
   46.1496   30.3139   42.3288 H   0  0  0  0  0  0  0  0  0  0  0  0
   44.4637   31.7512   48.9689 H   0  0  0  0  0  0  0  0  0  0  0  0
   44.1313   31.5979   47.2243 H   0  0  0  0  0  0  0  0  0  0  0  0
   45.2110   29.2585   46.5403 H   0  0  0  0  0  0  0  0  0  0  0  0
   47.2514   27.9230   46.6800 H   0  0  0  0  0  0  0  0  0  0  0  0
  1 15  1  0
  2  7  2  0
  3  4  2  0
  3  2  1  0
  4  5  1  0
  5  6  2  0
  6  1  1  0
  7  6  1  0
  8  9  1  0
  8  3  1  0
 10  8  1  0
 11  8  1  0
 12  4  1  0
 13 14  1  0
 13 12  2  0
 16 15  1  0
 16 21  2  0
 17 18  2  0
 17 16  1  0
 18 19  1  0
 19 20  2  0
 20 22  1  0
 21 20  1  0
 22 23  1  0
 22 25  1  0
 24 22  1  0
  2 26  1  0
 12 27  1  0
 13 28  1  0
 14 29  1  0
 14 30  1  0
 14 31  1  0
 15 32  1  0
 15 33  1  0
 17 34  1  0
 18 35  1  0
M  ISO  8  26  14  29   8  30   8  31   8  32   8  33   8  34  14  35  14
M  END
>  <minimizedAffinity>  (1) 
-5.5522933

>  <minimizedRMSD>  (1) 
0.963220596

$$$$
