
     RDKit          3D

 20 20  0  0  0  0  0  0  0  0999 V2000
   44.8670   34.9940   45.1380 C   0  0  0  0  0  0  0  0  0  0  0  0
   45.4010   35.2430   43.8800 C   0  0  0  0  0  0  0  0  0  0  0  0
   46.4540   34.4540   43.4420 C   0  0  0  0  0  0  0  0  0  0  0  0
   46.9290   33.4680   44.2480 N   0  0  0  0  0  0  0  0  0  0  0  0
   46.3780   33.2540   45.4740 C   0  0  0  0  0  0  0  0  0  0  0  0
   45.3550   34.0120   45.9140 N   0  0  0  0  0  0  0  0  0  0  0  0
   44.8140   36.3370   43.0850 C   0  0  0  0  0  0  0  0  0  0  0  0
   47.0340   34.6940   42.1270 C   0  0  0  0  0  0  0  0  0  0  0  0
   48.2310   35.2500   42.0290 C   0  0  0  0  0  0  0  0  0  0  0  0
   48.8220   35.4940   40.6780 C   0  0  0  0  0  0  0  0  0  0  0  0
   44.0324   35.6099   45.5041 H   0  0  0  0  0  0  0  0  0  0  0  0
   46.7733   32.4514   46.1140 H   0  0  0  0  0  0  0  0  0  0  0  0
   44.4036   37.1019   43.7607 H   0  0  0  0  0  0  0  0  0  0  0  0
   45.5916   36.7873   42.4506 H   0  0  0  0  0  0  0  0  0  0  0  0
   44.0088   35.9380   42.4506 H   0  0  0  0  0  0  0  0  0  0  0  0
   46.4792   34.4142   41.2193 H   0  0  0  0  0  0  0  0  0  0  0  0
   48.7871   35.5306   42.9356 H   0  0  0  0  0  0  0  0  0  0  0  0
   49.8334   35.9116   40.7902 H   0  0  0  0  0  0  0  0  0  0  0  0
   48.8765   34.5448   40.1248 H   0  0  0  0  0  0  0  0  0  0  0  0
   48.1910   36.2052   40.1248 H   0  0  0  0  0  0  0  0  0  0  0  0
  1  6  2  0
  2  1  1  0
  3  2  2  0
  3  4  1  0
  4  5  2  0
  5  6  1  0
  7  2  1  0
  8  3  1  0
  9  8  2  0
 10  9  1  0
  1 11  1  0
  5 12  1  0
  7 13  1  0
  7 14  1  0
  7 15  1  0
  8 16  1  0
  9 17  1  0
 10 18  1  0
 10 19  1  0
 10 20  1  0
M  ISO  8  11  14  12  14  13   8  14   8  15   8  18   8  19   8  20   8
M  END
>  <minimizedAffinity>  (1) 
-3.95989275

>  <minimizedRMSD>  (1) 
1.92408323

$$$$
