
     RDKit          3D

 24 24  0  0  0  0  0  0  0  0999 V2000
   47.1040   34.2100   42.9780 C   0  0  0  0  0  0  0  0  0  0  0  0
   45.7410   34.3460   43.2500 C   0  0  0  0  0  0  0  0  0  0  0  0
   45.1220   33.3260   43.9880 C   0  0  0  0  0  0  0  0  0  0  0  0
   45.8630   32.2680   44.4000 N   0  0  0  0  0  0  0  0  0  0  0  0
   47.1820   32.1850   44.1090 C   0  0  0  0  0  0  0  0  0  0  0  0
   47.8050   33.1530   43.4000 N   0  0  0  0  0  0  0  0  0  0  0  0
   45.0060   35.5310   42.7650 C   0  0  0  0  0  0  0  0  0  0  0  0
   45.7450   36.6830   43.0300 F   0  0  0  0  0  0  0  0  0  0  0  0
   44.9060   35.4420   41.3900 F   0  0  0  0  0  0  0  0  0  0  0  0
   43.7810   35.7050   43.3000 F   0  0  0  0  0  0  0  0  0  0  0  0
   47.9580   31.0370   44.5620 C   0  0  0  0  0  0  0  0  0  0  0  0
   47.6480   30.4020   45.6810 C   0  0  0  0  0  0  0  0  0  0  0  0
   48.4410   29.2310   46.1400 C   0  0  0  0  0  0  0  0  0  0  0  0
   47.6910   35.2050   42.2620 O   0  0  0  0  0  0  0  0  0  0  0  0
   48.9750   35.1940   41.6930 C   0  0  0  0  0  0  0  0  0  0  0  0
   49.8810   35.3460   42.7410 F   0  0  0  0  0  0  0  0  0  0  0  0
   49.1640   34.0300   40.9920 F   0  0  0  0  0  0  0  0  0  0  0  0
   49.1470   36.3230   40.9090 F   0  0  0  0  0  0  0  0  0  0  0  0
   44.0503   33.3838   44.2290 H   0  0  0  0  0  0  0  0  0  0  0  0
   48.8149   30.6931   43.9642 H   0  0  0  0  0  0  0  0  0  0  0  0
   46.7916   30.7454   46.2799 H   0  0  0  0  0  0  0  0  0  0  0  0
   48.4570   29.2073   47.2396 H   0  0  0  0  0  0  0  0  0  0  0  0
   47.9826   28.3061   45.7600 H   0  0  0  0  0  0  0  0  0  0  0  0
   49.4700   29.3133   45.7600 H   0  0  0  0  0  0  0  0  0  0  0  0
  1  2  2  0
  1  6  1  0
  2  3  1  0
  3  4  2  0
  5  4  1  0
  5 11  1  0
  6  5  2  0
  7  8  1  0
  7  2  1  0
  7 10  1  0
  9  7  1  0
 11 12  2  0
 12 13  1  0
 14  1  1  0
 15 14  1  0
 15 16  1  0
 17 15  1  0
 18 15  1  0
  3 19  1  0
 11 20  1  0
 12 21  1  0
 13 22  1  0
 13 23  1  0
 13 24  1  0
M  ISO  4  19  14  22   8  23   8  24   8
M  END
>  <minimizedAffinity>  (1) 
-4.70115185

>  <minimizedRMSD>  (1) 
0.745098174

$$$$
