
     RDKit          3D

 27 28  0  0  0  0  0  0  0  0999 V2000
   46.6970   34.7970   42.0360 C   0  0  0  0  0  0  0  0  0  0  0  0
   47.9710   35.2870   41.9730 C   0  0  0  0  0  0  0  0  0  0  0  0
   48.7480   35.1830   40.8470 C   0  0  0  0  0  0  0  0  0  0  0  0
   48.1930   34.5560   39.7580 C   0  0  0  0  0  0  0  0  0  0  0  0
   46.9210   34.0390   39.7510 C   0  0  0  0  0  0  0  0  0  0  0  0
   46.1860   34.1840   40.9390 C   0  0  0  0  0  0  0  0  0  0  0  0
   44.4570   36.1030   44.7810 C   0  0  0  0  0  0  0  0  0  0  0  0
   45.1180   36.0560   43.5200 C   0  0  0  0  0  0  0  0  0  0  0  0
   45.9660   34.9630   43.2770 C   0  0  0  0  0  0  0  0  0  0  0  0
   46.0910   34.0430   44.2490 N   0  0  0  0  0  0  0  0  0  0  0  0
   45.4600   34.1000   45.4360 C   0  0  0  0  0  0  0  0  0  0  0  0
   44.6380   35.1340   45.7040 N   0  0  0  0  0  0  0  0  0  0  0  0
   44.8480   33.6540   40.9640 C   0  0  0  0  0  0  0  0  0  0  0  0
   43.7880   34.2450   40.4360 C   0  0  0  0  0  0  0  0  0  0  0  0
   42.4040   33.7170   40.4510 C   0  0  0  0  0  0  0  0  0  0  0  0
   48.3902   35.7845   42.8600 H   0  0  0  0  0  0  0  0  0  0  0  0
   49.7717   35.5845   40.8175 H   0  0  0  0  0  0  0  0  0  0  0  0
   48.7988   34.4633   38.8445 H   0  0  0  0  0  0  0  0  0  0  0  0
   46.5014   33.5396   38.8652 H   0  0  0  0  0  0  0  0  0  0  0  0
   43.7862   36.9449   45.0073 H   0  0  0  0  0  0  0  0  0  0  0  0
   44.9702   36.8440   42.7669 H   0  0  0  0  0  0  0  0  0  0  0  0
   45.6141   33.3075   46.1832 H   0  0  0  0  0  0  0  0  0  0  0  0
   44.6948   32.6840   41.4596 H   0  0  0  0  0  0  0  0  0  0  0  0
   43.9490   35.2146   39.9421 H   0  0  0  0  0  0  0  0  0  0  0  0
   42.0713   33.5901   41.4918 H   0  0  0  0  0  0  0  0  0  0  0  0
   41.7364   34.4236   39.9362 H   0  0  0  0  0  0  0  0  0  0  0  0
   42.3767   32.7453   39.9362 H   0  0  0  0  0  0  0  0  0  0  0  0
  1  9  1  0
  2  1  2  0
  3  2  1  0
  4  3  2  0
  5  4  1  0
  5  6  2  0
  6 13  1  0
  6  1  1  0
  7 12  2  0
  8  7  1  0
  9  8  2  0
  9 10  1  0
 10 11  2  0
 11 12  1  0
 14 15  1  0
 14 13  2  0
  2 16  1  0
  3 17  1  0
  4 18  1  0
  5 19  1  0
  7 20  1  0
  8 21  1  0
 11 22  1  0
 13 23  1  0
 14 24  1  0
 15 25  1  0
 15 26  1  0
 15 27  1  0
M  ISO  8  16  14  17  14  18  14  19  14  20  14  21  14  22  14  25   8
M  ISO  2  26   8  27   8
M  END
>  <minimizedAffinity>  (1) 
-5.31161022

>  <minimizedRMSD>  (1) 
0.638546586

$$$$
