
     RDKit          3D

 28 29  0  0  0  0  0  0  0  0999 V2000
   43.4110   34.0230   40.2500 S   0  0  0  0  0  0  0  0  0  0  0  0
   41.6310   31.5730   41.2770 Cl  0  0  0  0  0  0  0  0  0  0  0  0
   40.8220   33.0140   40.6880 C   0  0  0  0  0  0  0  0  0  0  0  0
   41.6470   34.0170   40.2660 C   0  0  0  0  0  0  0  0  0  0  0  0
   41.0470   35.1800   39.7900 C   0  0  0  0  0  0  0  0  0  0  0  0
   39.6620   35.2820   39.7590 C   0  0  0  0  0  0  0  0  0  0  0  0
   38.8330   34.2700   40.1850 C   0  0  0  0  0  0  0  0  0  0  0  0
   39.4390   33.1050   40.6610 C   0  0  0  0  0  0  0  0  0  0  0  0
   38.4900   31.7540   41.2290 Cl  0  0  0  0  0  0  0  0  0  0  0  0
   44.1350   34.3350   41.8600 C   0  0  0  0  0  0  0  0  0  0  0  0
   44.6180   33.1930   42.5120 C   0  0  0  0  0  0  0  0  0  0  0  0
   45.2000   33.3600   43.7810 C   0  0  0  0  0  0  0  0  0  0  0  0
   45.2620   34.6160   44.3080 N   0  0  0  0  0  0  0  0  0  0  0  0
   44.7820   35.6790   43.6370 C   0  0  0  0  0  0  0  0  0  0  0  0
   44.2130   35.5620   42.4060 N   0  0  0  0  0  0  0  0  0  0  0  0
   44.8740   37.0020   44.2440 C   0  0  0  0  0  0  0  0  0  0  0  0
   45.3100   38.0210   43.5190 C   0  0  0  0  0  0  0  0  0  0  0  0
   45.4670   39.4190   43.9670 C   0  0  0  0  0  0  0  0  0  0  0  0
   41.6689   36.0167   39.4390 H   0  0  0  0  0  0  0  0  0  0  0  0
   39.2097   36.2096   39.3784 H   0  0  0  0  0  0  0  0  0  0  0  0
   37.7384   34.3740   40.1521 H   0  0  0  0  0  0  0  0  0  0  0  0
   44.5444   32.1990   42.0468 H   0  0  0  0  0  0  0  0  0  0  0  0
   45.5963   32.4969   44.3360 H   0  0  0  0  0  0  0  0  0  0  0  0
   44.5839   37.1521   45.2944 H   0  0  0  0  0  0  0  0  0  0  0  0
   45.5832   37.8034   42.4759 H   0  0  0  0  0  0  0  0  0  0  0  0
   45.4709   39.4535   45.0665 H   0  0  0  0  0  0  0  0  0  0  0  0
   46.4161   39.8223   43.5842 H   0  0  0  0  0  0  0  0  0  0  0  0
   44.6310   40.0228   43.5842 H   0  0  0  0  0  0  0  0  0  0  0  0
  1  4  1  0
  1 10  1  0
  3  2  1  0
  4  3  2  0
  5  4  1  0
  6  5  2  0
  6  7  1  0
  7  8  2  0
  8  3  1  0
  8  9  1  0
 10 15  1  0
 10 11  2  0
 11 12  1  0
 12 13  2  0
 14 16  1  0
 14 13  1  0
 15 14  2  0
 17 18  1  0
 17 16  2  0
  5 19  1  0
  6 20  1  0
  7 21  1  0
 11 22  1  0
 12 23  1  0
 16 24  1  0
 17 25  1  0
 18 26  1  0
 18 27  1  0
 18 28  1  0
M  ISO  8  19  14  20  14  21  14  22  14  23  14  26   8  27   8  28   8
M  END
>  <minimizedAffinity>  (1) 
-4.72749949

>  <minimizedRMSD>  (1) 
1.09462273

$$$$
