
     RDKit          3D

 44 47  0  0  0  0  0  0  0  0999 V2000
   46.0060   29.9350   48.2470 C   0  0  0  0  0  0  0  0  0  0  0  0
   45.0220   27.5780   47.9640 C   0  0  0  0  0  0  0  0  0  0  0  0
   45.1610   28.9020   47.6510 C   0  0  0  0  0  0  0  0  0  0  0  0
   44.3770   29.3630   46.5900 C   0  0  0  0  0  0  0  0  0  0  0  0
   43.5220   28.5310   45.9120 C   0  0  0  0  0  0  0  0  0  0  0  0
   42.6640   28.6910   44.8750 N   0  0  0  0  0  0  0  0  0  0  0  0
   42.0440   27.5430   44.5780 C   0  0  0  0  0  0  0  0  0  0  0  0
   42.4880   26.5700   45.4340 C   0  0  0  0  0  0  0  0  0  0  0  0
   43.4040   27.2170   46.2460 C   0  0  0  0  0  0  0  0  0  0  0  0
   44.1720   26.7400   47.2940 C   0  0  0  0  0  0  0  0  0  0  0  0
   44.0790   25.3410   47.6880 C   0  0  0  0  0  0  0  0  0  0  0  0
   44.8790   24.3340   47.4740 C   0  0  0  0  0  0  0  0  0  0  0  0
   46.1580   24.1130   46.7950 C   0  0  0  0  0  0  0  0  0  0  0  0
   47.3150   30.1820   47.6210 C   0  0  0  0  0  0  0  0  0  0  0  0
   46.5590   32.6470   45.1530 C   0  0  0  0  0  0  0  0  0  0  0  0
   47.2890   31.7150   44.4060 C   0  0  0  0  0  0  0  0  0  0  0  0
   47.6600   30.6850   45.2220 C   0  0  0  0  0  0  0  0  0  0  0  0
   47.1710   30.9880   46.4220 N   0  0  0  0  0  0  0  0  0  0  0  0
   46.5110   32.1550   46.3920 N   0  0  0  0  0  0  0  0  0  0  0  0
   44.5700   35.6910   44.8490 C   0  0  0  0  0  0  0  0  0  0  0  0
   44.9350   36.1960   43.6100 C   0  0  0  0  0  0  0  0  0  0  0  0
   45.8810   35.4750   42.8670 C   0  0  0  0  0  0  0  0  0  0  0  0
   46.3670   34.3350   43.4210 N   0  0  0  0  0  0  0  0  0  0  0  0
   45.9990   33.8780   44.6110 C   0  0  0  0  0  0  0  0  0  0  0  0
   45.0970   34.5610   45.3230 N   0  0  0  0  0  0  0  0  0  0  0  0
   45.4428   30.8794   48.2183 H   0  0  0  0  0  0  0  0  0  0  0  0
   46.2414   29.5603   49.2541 H   0  0  0  0  0  0  0  0  0  0  0  0
   45.6201   27.1681   48.7912 H   0  0  0  0  0  0  0  0  0  0  0  0
   44.4470   30.4192   46.2909 H   0  0  0  0  0  0  0  0  0  0  0  0
   42.5093   29.5808   44.3798 H   0  0  0  0  0  0  0  0  0  0  0  0
   41.3010   27.4037   43.7789 H   0  0  0  0  0  0  0  0  0  0  0  0
   42.1851   25.5131   45.4685 H   0  0  0  0  0  0  0  0  0  0  0  0
   43.1775   25.0905   48.2664 H   0  0  0  0  0  0  0  0  0  0  0  0
   44.4917   23.4065   47.9208 H   0  0  0  0  0  0  0  0  0  0  0  0
   46.9519   23.9758   47.5440 H   0  0  0  0  0  0  0  0  0  0  0  0
   46.0884   23.2136   46.1656 H   0  0  0  0  0  0  0  0  0  0  0  0
   46.3942   24.9836   46.1656 H   0  0  0  0  0  0  0  0  0  0  0  0
   47.9620   30.7117   48.3357 H   0  0  0  0  0  0  0  0  0  0  0  0
   47.7605   29.2152   47.3437 H   0  0  0  0  0  0  0  0  0  0  0  0
   47.5255   31.7988   43.3350 H   0  0  0  0  0  0  0  0  0  0  0  0
   48.2408   29.7926   44.9456 H   0  0  0  0  0  0  0  0  0  0  0  0
   43.8295   36.2344   45.4543 H   0  0  0  0  0  0  0  0  0  0  0  0
   44.4981   37.1287   43.2238 H   0  0  0  0  0  0  0  0  0  0  0  0
   46.2151   35.8188   41.8770 H   0  0  0  0  0  0  0  0  0  0  0  0
  3  2  2  0
  3  1  1  0
  4  3  1  0
  5  9  1  0
  5  4  2  0
  6  5  1  0
  7  6  1  0
  7  8  2  0
  8  9  1  0
  9 10  2  0
 10 11  1  0
 10  2  1  0
 12 11  2  0
 13 12  1  0
 14  1  1  0
 15 19  2  0
 16 15  1  0
 16 17  2  0
 17 18  1  0
 18 14  1  0
 19 18  1  0
 20 25  2  0
 21 20  1  0
 22 23  1  0
 22 21  2  0
 23 24  2  0
 24 15  1  0
 24 25  1  0
  1 26  1  0
  1 27  1  0
  2 28  1  0
  4 29  1  0
  6 30  1  0
  7 31  1  0
  8 32  1  0
 11 33  1  0
 12 34  1  0
 13 35  1  0
 13 36  1  0
 13 37  1  0
 14 38  1  0
 14 39  1  0
 16 40  1  0
 17 41  1  0
 20 42  1  0
 21 43  1  0
 22 44  1  0
M  ISO  8  26   8  27   8  28  14  29  14  30   9  31  14  32  14  35   8
M  ISO  8  36   8  37   8  38   8  39   8  40  14  41  14  42  14  43  14
M  ISO  1  44  14
M  END
>  <minimizedAffinity>  (1) 
-5.35851526

>  <minimizedRMSD>  (1) 
0.103560157

$$$$
