
     RDKit          3D

 35 36  0  0  0  0  0  0  0  0999 V2000
   46.1680   32.5830   46.8970 C   0  0  0  0  0  0  0  0  0  0  0  0
   45.3220   32.6670   47.9500 C   0  0  0  0  0  0  0  0  0  0  0  0
   45.5310   31.8300   49.0270 C   0  0  0  0  0  0  0  0  0  0  0  0
   46.5800   30.9260   49.0320 C   0  0  0  0  0  0  0  0  0  0  0  0
   47.4310   30.8720   47.9180 C   0  0  0  0  0  0  0  0  0  0  0  0
   47.2040   31.6820   46.9130 N   0  0  0  0  0  0  0  0  0  0  0  0
   44.9220   35.0370   44.5080 C   0  0  0  0  0  0  0  0  0  0  0  0
   45.8780   34.9350   43.4700 C   0  0  0  0  0  0  0  0  0  0  0  0
   46.9450   34.0300   43.5830 C   0  0  0  0  0  0  0  0  0  0  0  0
   46.9460   33.3260   44.7160 N   0  0  0  0  0  0  0  0  0  0  0  0
   46.0570   33.4150   45.6910 C   0  0  0  0  0  0  0  0  0  0  0  0
   45.0500   34.2690   45.5810 N   0  0  0  0  0  0  0  0  0  0  0  0
   43.8530   35.9720   44.3380 N   0  0  0  0  0  0  0  0  0  0  0  0
   48.5510   29.9370   47.8740 C   0  0  0  0  0  0  0  0  0  0  0  0
   49.6750   30.1290   48.5630 C   0  0  0  0  0  0  0  0  0  0  0  0
   49.8880   31.3040   49.4300 C   0  0  0  0  0  0  0  0  0  0  0  0
   50.3410   30.9130   50.7920 C   0  0  0  0  0  0  0  0  0  0  0  0
   50.4300   29.6410   51.2290 C   0  0  0  0  0  0  0  0  0  0  0  0
   50.8460   29.0250   52.5160 C   0  0  0  0  0  0  0  0  0  0  0  0
   44.4884   33.3847   47.9474 H   0  0  0  0  0  0  0  0  0  0  0  0
   44.8551   31.8816   49.8933 H   0  0  0  0  0  0  0  0  0  0  0  0
   46.7431   30.2622   49.8939 H   0  0  0  0  0  0  0  0  0  0  0  0
   45.7850   35.5656   42.5735 H   0  0  0  0  0  0  0  0  0  0  0  0
   47.7135   33.9116   42.8049 H   0  0  0  0  0  0  0  0  0  0  0  0
   43.8009   36.5449   43.4836 H   0  0  0  0  0  0  0  0  0  0  0  0
   43.1353   36.0724   45.0700 H   0  0  0  0  0  0  0  0  0  0  0  0
   48.4635   29.0376   47.2467 H   0  0  0  0  0  0  0  0  0  0  0  0
   50.4773   29.3808   48.4823 H   0  0  0  0  0  0  0  0  0  0  0  0
   50.6522   31.9497   48.9727 H   0  0  0  0  0  0  0  0  0  0  0  0
   48.9289   31.8336   49.5284 H   0  0  0  0  0  0  0  0  0  0  0  0
   50.6222   31.7159   51.4893 H   0  0  0  0  0  0  0  0  0  0  0  0
   50.1310   28.9013   50.4717 H   0  0  0  0  0  0  0  0  0  0  0  0
   50.4460   29.6173   53.3522 H   0  0  0  0  0  0  0  0  0  0  0  0
   50.4556   27.9982   52.5742 H   0  0  0  0  0  0  0  0  0  0  0  0
   51.9443   29.0036   52.5742 H   0  0  0  0  0  0  0  0  0  0  0  0
  1  6  1  0
  1  2  2  0
  2  3  1  0
  3  4  2  0
  5  4  1  0
  6  5  2  0
  7 12  2  0
  8  9  2  0
  8  7  1  0
  9 10  1  0
 10 11  2  0
 11  1  1  0
 12 11  1  0
 13  7  1  0
 14  5  1  0
 14 15  2  0
 15 16  1  0
 16 17  1  0
 17 18  2  0
 18 19  1  0
  2 20  1  0
  3 21  1  0
  4 22  1  0
  8 23  1  0
  9 24  1  0
 13 25  1  0
 13 26  1  0
 14 27  1  0
 15 28  1  0
 16 29  1  0
 16 30  1  0
 17 31  1  0
 18 32  1  0
 19 33  1  0
 19 34  1  0
 19 35  1  0
M  ISO  8  20  14  21  14  22  14  23  14  24  14  29   8  30   8  33   8
M  ISO  2  34   8  35   8
M  END
>  <minimizedAffinity>  (1) 
-6.00533342

>  <minimizedRMSD>  (1) 
0.442635596

$$$$
