
     RDKit          3D

 28 28  0  0  0  0  0  0  0  0999 V2000
   44.3760   35.1230   41.5490 C   0  0  0  0  0  0  0  0  0  0  0  0
   44.4180   35.7570   43.8340 C   0  0  0  0  0  0  0  0  0  0  0  0
   44.6940   34.7360   42.9100 C   0  0  0  0  0  0  0  0  0  0  0  0
   45.2030   33.5790   43.4390 C   0  0  0  0  0  0  0  0  0  0  0  0
   45.3970   33.5020   44.7560 N   0  0  0  0  0  0  0  0  0  0  0  0
   45.1300   34.4780   45.6170 C   0  0  0  0  0  0  0  0  0  0  0  0
   44.6130   35.6900   45.1930 N   0  0  0  0  0  0  0  0  0  0  0  0
   43.1290   35.7140   41.3750 O   0  0  0  0  0  0  0  0  0  0  0  0
   41.9040   35.0970   41.3840 C   0  0  0  0  0  0  0  0  0  0  0  0
   40.9240   35.6930   40.6580 C   0  0  0  0  0  0  0  0  0  0  0  0
   39.5140   35.1750   40.4950 C   0  0  0  0  0  0  0  0  0  0  0  0
   39.3660   34.5860   39.1150 C   0  0  0  0  0  0  0  0  0  0  0  0
   38.4120   33.8460   38.5800 C   0  0  0  0  0  0  0  0  0  0  0  0
   38.1530   33.2130   37.2520 C   0  0  0  0  0  0  0  0  0  0  0  0
   45.1409   35.8378   41.2114 H   0  0  0  0  0  0  0  0  0  0  0  0
   44.3551   34.1912   40.9648 H   0  0  0  0  0  0  0  0  0  0  0  0
   44.0084   36.6961   43.4336 H   0  0  0  0  0  0  0  0  0  0  0  0
   45.4477   32.7271   42.7875 H   0  0  0  0  0  0  0  0  0  0  0  0
   45.3237   34.3198   46.6882 H   0  0  0  0  0  0  0  0  0  0  0  0
   41.7255   34.1700   41.9486 H   0  0  0  0  0  0  0  0  0  0  0  0
   41.1778   36.6324   40.1450 H   0  0  0  0  0  0  0  0  0  0  0  0
   39.3157   34.4002   41.2503 H   0  0  0  0  0  0  0  0  0  0  0  0
   38.7970   35.9986   40.6273 H   0  0  0  0  0  0  0  0  0  0  0  0
   40.1995   34.8126   38.4338 H   0  0  0  0  0  0  0  0  0  0  0  0
   37.6008   33.6442   39.2950 H   0  0  0  0  0  0  0  0  0  0  0  0
   37.7403   32.2043   37.4009 H   0  0  0  0  0  0  0  0  0  0  0  0
   37.4327   33.8244   36.6886 H   0  0  0  0  0  0  0  0  0  0  0  0
   39.0953   33.1442   36.6886 H   0  0  0  0  0  0  0  0  0  0  0  0
  1  3  1  0
  2  7  2  0
  3  4  2  0
  3  2  1  0
  4  5  1  0
  5  6  2  0
  7  6  1  0
  8  9  1  0
  8  1  1  0
 10  9  2  0
 11 10  1  0
 12 11  1  0
 13 12  2  0
 14 13  1  0
  1 15  1  0
  1 16  1  0
  2 17  1  0
  4 18  1  0
  6 19  1  0
  9 20  1  0
 10 21  1  0
 11 22  1  0
 11 23  1  0
 12 24  1  0
 13 25  1  0
 14 26  1  0
 14 27  1  0
 14 28  1  0
M  ISO  8  15   8  16   8  17  14  18  14  19  14  22   8  23   8  26   8
M  ISO  2  27   8  28   8
M  END
>  <minimizedAffinity>  (1) 
-4.43870497

>  <minimizedRMSD>  (1) 
1.28842568

$$$$
