
     RDKit          3D

 40 41  0  0  1  0  0  0  0  0999 V2000
   46.2980   34.7990   43.4280 C   0  0  2  0  0  0  0  0  0  0  0  0
   45.7690   33.8570   44.4650 C   0  0  0  0  0  0  0  0  0  0  0  0
   45.0260   34.8470   45.3390 C   0  0  0  0  0  0  0  0  0  0  0  0
   44.4150   35.7810   44.4060 C   0  0  0  0  0  0  0  0  0  0  0  0
   45.0270   35.4610   42.9550 C   0  0  2  0  0  0  0  0  0  0  0  0
   48.2790   34.1020   40.3200 C   0  0  0  0  0  0  0  0  0  0  0  0
   47.6220   34.8620   41.3010 C   0  0  0  0  0  0  0  0  0  0  0  0
   47.0170   34.1730   42.2970 C   0  0  0  0  0  0  0  0  0  0  0  0
   47.0850   32.7760   42.2860 N   0  0  0  0  0  0  0  0  0  0  0  0
   47.7170   32.0810   41.3400 C   0  0  0  0  0  0  0  0  0  0  0  0
   48.3160   32.7490   40.3540 N   0  0  0  0  0  0  0  0  0  0  0  0
   44.1450   34.5860   42.3480 O   0  0  0  0  0  0  0  0  0  0  0  0
   43.5530   34.7520   41.1180 C   0  0  0  0  0  0  0  0  0  0  0  0
   44.2470   34.1090   40.2670 O   0  0  0  0  0  0  0  0  0  0  0  0
   42.4570   35.3520   40.3310 C   0  0  0  0  0  0  0  0  0  0  0  0
   42.2110   35.2370   39.0120 C   0  0  0  0  0  0  0  0  0  0  0  0
   41.1560   35.8010   38.1440 C   0  0  0  0  0  0  0  0  0  0  0  0
   40.2070   34.7720   37.6460 C   0  0  0  0  0  0  0  0  0  0  0  0
   39.1320   34.3780   38.2980 C   0  0  0  0  0  0  0  0  0  0  0  0
   38.1880   33.3450   37.7870 C   0  0  0  0  0  0  0  0  0  0  0  0
   47.0675   35.4646   43.8462 H   0  0  0  0  0  0  0  0  0  0  0  0
   45.0943   33.1044   44.0310 H   0  0  0  0  0  0  0  0  0  0  0  0
   46.5285   33.2516   44.9814 H   0  0  0  0  0  0  0  0  0  0  0  0
   44.2561   34.3357   45.9355 H   0  0  0  0  0  0  0  0  0  0  0  0
   45.6924   35.3510   46.0545 H   0  0  0  0  0  0  0  0  0  0  0  0
   43.3236   35.6443   44.3945 H   0  0  0  0  0  0  0  0  0  0  0  0
   44.6211   36.8210   44.6991 H   0  0  0  0  0  0  0  0  0  0  0  0
   45.1913   36.2730   42.2314 H   0  0  0  0  0  0  0  0  0  0  0  0
   48.7821   34.6251   39.4934 H   0  0  0  0  0  0  0  0  0  0  0  0
   47.6000   35.9611   41.2622 H   0  0  0  0  0  0  0  0  0  0  0  0
   47.7436   30.9818   41.3723 H   0  0  0  0  0  0  0  0  0  0  0  0
   41.7483   35.9748   40.8965 H   0  0  0  0  0  0  0  0  0  0  0  0
   42.9334   34.6018   38.4785 H   0  0  0  0  0  0  0  0  0  0  0  0
   40.5918   36.5503   38.7187 H   0  0  0  0  0  0  0  0  0  0  0  0
   41.6512   36.2455   37.2681 H   0  0  0  0  0  0  0  0  0  0  0  0
   40.4153   34.3093   36.6700 H   0  0  0  0  0  0  0  0  0  0  0  0
   38.9196   34.8376   39.2745 H   0  0  0  0  0  0  0  0  0  0  0  0
   37.7157   32.8282   38.6354 H   0  0  0  0  0  0  0  0  0  0  0  0
   37.4126   33.8279   37.1741 H   0  0  0  0  0  0  0  0  0  0  0  0
   38.7386   32.6162   37.1741 H   0  0  0  0  0  0  0  0  0  0  0  0
  1  2  1  0
  2  3  1  0
  4  3  1  0
  5  1  1  0
  5  4  1  0
  6 11  2  0
  6  7  1  0
  7  8  2  0
  8  1  1  0
  9  8  1  0
 10  9  2  0
 11 10  1  0
 12  5  1  0
 13 12  1  0
 14 13  2  0
 15 13  1  0
 16 15  2  0
 17 16  1  0
 18 17  1  0
 18 19  2  0
 20 19  1  0
  1 21  1  1
  2 22  1  0
  2 23  1  0
  3 24  1  0
  3 25  1  0
  4 26  1  0
  4 27  1  0
  5 28  1  6
  6 29  1  0
  7 30  1  0
 10 31  1  0
 15 32  1  0
 16 33  1  0
 17 34  1  0
 17 35  1  0
 18 36  1  0
 19 37  1  0
 20 38  1  0
 20 39  1  0
 20 40  1  0
M  ISO  8  21  13  22  13  23  13  24  13  25  13  26  13  27  13  28  13
M  ISO  8  29  14  30  14  31  14  34   8  35   8  38   8  39   8  40   8
M  END
>  <minimizedAffinity>  (1) 
-5.44401884

>  <minimizedRMSD>  (1) 
1.5081743

$$$$
