
     RDKit          3D

 35 37  0  0  0  0  0  0  0  0999 V2000
   46.3220   33.7380   44.7890 C   0  0  0  0  0  0  0  0  0  0  0  0
   45.1630   34.4160   45.0200 C   0  0  0  0  0  0  0  0  0  0  0  0
   44.6790   35.4220   44.2110 C   0  0  0  0  0  0  0  0  0  0  0  0
   45.3930   35.7780   43.0990 C   0  0  0  0  0  0  0  0  0  0  0  0
   46.5570   35.1230   42.8320 C   0  0  0  0  0  0  0  0  0  0  0  0
   47.0310   34.1040   43.6670 C   0  0  0  0  0  0  0  0  0  0  0  0
   47.6000   30.4910   45.8970 C   0  0  0  0  0  0  0  0  0  0  0  0
   47.7090   30.6290   47.2720 C   0  0  0  0  0  0  0  0  0  0  0  0
   47.3390   31.8540   47.8220 C   0  0  0  0  0  0  0  0  0  0  0  0
   46.8900   32.8680   47.0290 N   0  0  0  0  0  0  0  0  0  0  0  0
   46.8000   32.6770   45.6720 C   0  0  0  0  0  0  0  0  0  0  0  0
   47.1550   31.5010   45.1500 N   0  0  0  0  0  0  0  0  0  0  0  0
   48.2510   33.5260   43.2530 N   0  0  0  0  0  0  0  0  0  0  0  0
   49.6310   34.1850   42.5160 S   0  0  0  0  0  0  0  0  0  0  0  0
   49.2680   34.5970   41.0830 O   0  0  0  0  0  0  0  0  0  0  0  0
   50.2330   35.3500   43.2120 O   0  0  0  0  0  0  0  0  0  0  0  0
   50.7210   32.8960   42.3270 O   0  0  0  0  0  0  0  0  0  0  0  0
   50.8230   32.2140   41.1520 C   0  0  0  0  0  0  0  0  0  0  0  0
   52.0500   31.6860   40.7700 C   0  0  0  0  0  0  0  0  0  0  0  0
   51.8340   31.0550   39.5400 C   0  0  0  0  0  0  0  0  0  0  0  0
   50.5090   31.2260   39.2400 C   0  0  0  0  0  0  0  0  0  0  0  0
   49.9680   31.9070   40.2110 O   0  0  0  0  0  0  0  0  0  0  0  0
   44.5757   34.1432   45.9092 H   0  0  0  0  0  0  0  0  0  0  0  0
   43.7345   35.9302   44.4553 H   0  0  0  0  0  0  0  0  0  0  0  0
   45.0339   36.5773   42.4340 H   0  0  0  0  0  0  0  0  0  0  0  0
   47.1378   35.4009   41.9401 H   0  0  0  0  0  0  0  0  0  0  0  0
   47.8827   29.5414   45.4192 H   0  0  0  0  0  0  0  0  0  0  0  0
   48.0729   29.8047   47.9030 H   0  0  0  0  0  0  0  0  0  0  0  0
   47.4099   32.0051   48.9093 H   0  0  0  0  0  0  0  0  0  0  0  0
   48.3158   32.5137   43.4319 H   0  0  0  0  0  0  0  0  0  0  0  0
   48.6138   35.3396   41.1088 H   0  0  0  0  0  0  0  0  0  0  0  0
   50.1659   35.2202   44.1912 H   0  0  0  0  0  0  0  0  0  0  0  0
   52.9989   31.7509   41.3225 H   0  0  0  0  0  0  0  0  0  0  0  0
   52.5825   30.5250   38.9326 H   0  0  0  0  0  0  0  0  0  0  0  0
   49.9939   30.8555   38.3415 H   0  0  0  0  0  0  0  0  0  0  0  0
  1  2  2  0
  1 11  1  0
  3  2  1  0
  4  3  2  0
  5  4  1  0
  5  6  2  0
  6  1  1  0
  7  8  2  0
  8  9  1  0
 10  9  2  0
 11 10  1  0
 12 11  2  0
 12  7  1  0
 13  6  1  0
 14 16  1  0
 14 13  1  0
 15 14  1  0
 17 14  1  0
 18 17  1  0
 19 18  2  0
 20 19  1  0
 21 20  2  0
 21 22  1  0
 22 18  1  0
  2 23  1  0
  3 24  1  0
  4 25  1  0
  5 26  1  0
  7 27  1  0
  8 28  1  0
  9 29  1  0
 13 30  1  0
 15 31  1  0
 16 32  1  0
 19 33  1  0
 20 34  1  0
 21 35  1  0
M  ISO  8  23  14  24  14  25  14  26  14  27  14  28  14  29  14  31   3
M  ISO  4  32   3  33  14  34  14  35  14
M  END
>  <minimizedAffinity>  (1) 
-6.15922785

>  <minimizedRMSD>  (1) 
2.14232278

$$$$
