
     RDKit          3D

 27 29  0  0  1  0  0  0  0  0999 V2000
   45.0440   33.7080   43.7230 C   0  0  1  0  0  0  0  0  0  0  0  0
   45.2630   35.1910   44.0500 C   0  0  0  0  0  0  0  0  0  0  0  0
   45.6910   34.5880   42.7540 C   0  0  1  0  0  0  0  0  0  0  0  0
   45.7740   32.7600   44.5880 C   0  0  0  0  0  0  0  0  0  0  0  0
   46.3150   31.6150   43.9490 C   0  0  0  0  0  0  0  0  0  0  0  0
   47.0220   30.7170   44.7310 C   0  0  0  0  0  0  0  0  0  0  0  0
   47.1550   30.9900   46.0670 N   0  0  0  0  0  0  0  0  0  0  0  0
   46.6250   32.0880   46.6290 C   0  0  0  0  0  0  0  0  0  0  0  0
   45.9360   32.9670   45.8810 N   0  0  0  0  0  0  0  0  0  0  0  0
   46.8870   32.1940   48.0990 C   0  0  0  0  0  0  0  0  0  0  0  0
   45.8630   32.8260   48.7570 F   0  0  0  0  0  0  0  0  0  0  0  0
   48.0700   32.9030   48.3230 F   0  0  0  0  0  0  0  0  0  0  0  0
   47.1090   30.9160   48.6080 F   0  0  0  0  0  0  0  0  0  0  0  0
   47.1630   34.6980   42.5630 C   0  0  0  0  0  0  0  0  0  0  0  0
   47.6570   35.2050   41.3790 C   0  0  0  0  0  0  0  0  0  0  0  0
   49.0440   35.2050   41.4500 C   0  0  0  0  0  0  0  0  0  0  0  0
   49.3160   34.6940   42.6870 C   0  0  0  0  0  0  0  0  0  0  0  0
   48.2120   34.4160   43.2930 O   0  0  0  0  0  0  0  0  0  0  0  0
   44.2130   32.9948   43.6189 H   0  0  0  0  0  0  0  0  0  0  0  0
   44.4100   35.8846   44.0861 H   0  0  0  0  0  0  0  0  0  0  0  0
   45.7485   35.7601   44.8565 H   0  0  0  0  0  0  0  0  0  0  0  0
   45.4922   34.6837   41.6764 H   0  0  0  0  0  0  0  0  0  0  0  0
   46.1778   31.4464   42.8707 H   0  0  0  0  0  0  0  0  0  0  0  0
   47.4642   29.8104   44.2921 H   0  0  0  0  0  0  0  0  0  0  0  0
   47.0555   35.5501   40.5251 H   0  0  0  0  0  0  0  0  0  0  0  0
   49.7598   35.5400   40.6849 H   0  0  0  0  0  0  0  0  0  0  0  0
   50.3230   34.5426   43.1030 H   0  0  0  0  0  0  0  0  0  0  0  0
  1  2  1  0
  1  4  1  0
  3  1  1  0
  3  2  1  0
  4  9  1  0
  5  4  2  0
  5  6  1  0
  6  7  2  0
  7  8  1  0
  8 10  1  0
  9  8  2  0
 10 12  1  0
 10 13  1  0
 10 11  1  0
 14  3  1  0
 14 18  1  0
 15 16  1  0
 15 14  2  0
 16 17  2  0
 17 18  1  0
  1 19  1  6
  2 20  1  0
  2 21  1  0
  3 22  1  6
  5 23  1  0
  6 24  1  0
 15 25  1  0
 16 26  1  0
 17 27  1  0
M  ISO  8  19  13  20  13  21  13  22  13  23  14  24  14  25  14  26  14
M  ISO  1  27  14
M  END
>  <minimizedAffinity>  (1) 
-4.92594337

>  <minimizedRMSD>  (1) 
1.57745731

$$$$
