
     RDKit          3D

 19 20  0  0  0  0  0  0  0  0999 V2000
   47.1790   34.9230   41.9030 C   0  0  0  0  0  0  0  0  0  0  0  0
   48.2850   35.5270   41.9530 O   0  0  0  0  0  0  0  0  0  0  0  0
   45.4340   36.0290   43.1960 C   0  0  0  0  0  0  0  0  0  0  0  0
   46.3390   34.9790   43.0520 C   0  0  0  0  0  0  0  0  0  0  0  0
   46.3620   34.0310   44.0720 C   0  0  0  0  0  0  0  0  0  0  0  0
   45.5320   34.1600   45.1290 N   0  0  0  0  0  0  0  0  0  0  0  0
   44.6620   35.2000   45.2320 C   0  0  0  0  0  0  0  0  0  0  0  0
   44.6120   36.1370   44.2620 N   0  0  0  0  0  0  0  0  0  0  0  0
   46.8440   34.2120   40.6740 C   0  0  0  0  0  0  0  0  0  0  0  0
   47.6780   34.0340   39.5980 C   0  0  0  0  0  0  0  0  0  0  0  0
   46.9140   33.3110   38.6990 C   0  0  0  0  0  0  0  0  0  0  0  0
   45.6730   33.0840   39.2580 C   0  0  0  0  0  0  0  0  0  0  0  0
   45.6570   33.6440   40.4630 O   0  0  0  0  0  0  0  0  0  0  0  0
   45.3875   36.7989   42.4117 H   0  0  0  0  0  0  0  0  0  0  0  0
   47.0552   33.1787   44.0165 H   0  0  0  0  0  0  0  0  0  0  0  0
   43.9988   35.2776   46.1062 H   0  0  0  0  0  0  0  0  0  0  0  0
   48.7136   34.3849   39.4783 H   0  0  0  0  0  0  0  0  0  0  0  0
   47.2413   32.9735   37.7045 H   0  0  0  0  0  0  0  0  0  0  0  0
   44.8428   32.5358   38.7886 H   0  0  0  0  0  0  0  0  0  0  0  0
  1  2  2  0
  1  4  1  0
  3  8  2  0
  4  3  1  0
  4  5  2  0
  5  6  1  0
  6  7  2  0
  8  7  1  0
  9  1  1  0
 10  9  2  0
 11 12  2  0
 11 10  1  0
 12 13  1  0
 13  9  1  0
  3 14  1  0
  5 15  1  0
  7 16  1  0
 10 17  1  0
 11 18  1  0
 12 19  1  0
M  ISO  6  14  14  15  14  16  14  17  14  18  14  19  14
M  END
>  <minimizedAffinity>  (1) 
-4.01794672

>  <minimizedRMSD>  (1) 
0.659686029

$$$$
