
     RDKit          3D

 41 44  0  0  1  0  0  0  0  0999 V2000
   42.0500   33.2820   41.1230 C   0  0  0  0  0  0  0  0  0  0  0  0
   42.7860   34.4120   41.3220 C   0  0  0  0  0  0  0  0  0  0  0  0
   42.1230   35.6500   41.2990 C   0  0  0  0  0  0  0  0  0  0  0  0
   40.7710   35.7750   41.0870 C   0  0  0  0  0  0  0  0  0  0  0  0
   40.0390   34.6390   40.8880 C   0  0  0  0  0  0  0  0  0  0  0  0
   40.6750   33.4340   40.9080 C   0  0  0  0  0  0  0  0  0  0  0  0
   42.7100   31.7300   41.1780 S   0  0  0  0  0  0  0  0  0  0  0  0
   41.5810   30.8890   40.5440 O   0  0  0  0  0  0  0  0  0  0  0  0
   42.8960   31.2320   42.5710 O   0  0  0  0  0  0  0  0  0  0  0  0
   43.8030   31.0270   40.0770 C   0  0  0  0  0  0  0  0  0  0  0  0
   43.8110   31.5260   38.7480 C   0  0  0  0  0  0  0  0  0  0  0  0
   44.7540   30.8320   38.0550 C   0  0  0  0  0  0  0  0  0  0  0  0
   45.3140   29.9390   38.9000 C   0  0  0  0  0  0  0  0  0  0  0  0
   44.7340   30.0940   40.0460 O   0  0  0  0  0  0  0  0  0  0  0  0
   44.2310   34.3720   41.5480 C   0  0  0  0  0  0  0  0  0  0  0  0
   45.1100   34.2630   40.6210 O   0  0  0  0  0  0  0  0  0  0  0  0
   44.5790   34.4700   42.9380 C   0  0  0  0  0  0  0  0  0  0  0  0
   44.3060   35.7100   43.5690 C   0  0  0  0  0  0  0  0  0  0  0  0
   44.6290   35.8180   44.9130 C   0  0  0  0  0  0  0  0  0  0  0  0
   45.1810   34.7410   45.5380 N   0  0  0  0  0  0  0  0  0  0  0  0
   45.4280   33.5630   44.8890 C   0  0  0  0  0  0  0  0  0  0  0  0
   45.1210   33.4890   43.6450 N   0  0  0  0  0  0  0  0  0  0  0  0
   46.0180   32.4440   45.6520 C   0  0  1  0  0  0  0  0  0  0  0  0
   46.9670   32.7530   46.7880 C   0  0  0  0  0  0  0  0  0  0  0  0
   45.5450   32.3410   47.0570 C   0  0  1  0  0  0  0  0  0  0  0  0
   44.7670   33.4080   47.6460 N   0  0  0  0  0  0  0  0  0  0  0  0
   42.7145   36.5636   41.4584 H   0  0  0  0  0  0  0  0  0  0  0  0
   40.2906   36.7645   41.0778 H   0  0  0  0  0  0  0  0  0  0  0  0
   38.9543   34.6960   40.7145 H   0  0  0  0  0  0  0  0  0  0  0  0
   40.0729   32.5278   40.7457 H   0  0  0  0  0  0  0  0  0  0  0  0
   43.1712   32.3278   38.3508 H   0  0  0  0  0  0  0  0  0  0  0  0
   45.0141   30.9729   36.9955 H   0  0  0  0  0  0  0  0  0  0  0  0
   46.1099   29.2187   38.6599 H   0  0  0  0  0  0  0  0  0  0  0  0
   43.8578   36.5491   43.0167 H   0  0  0  0  0  0  0  0  0  0  0  0
   44.4436   36.7528   45.4624 H   0  0  0  0  0  0  0  0  0  0  0  0
   46.0848   31.7817   44.7762 H   0  0  0  0  0  0  0  0  0  0  0  0
   47.7946   32.0662   47.0192 H   0  0  0  0  0  0  0  0  0  0  0  0
   47.6019   33.6064   47.0684 H   0  0  0  0  0  0  0  0  0  0  0  0
   45.0082   31.5408   47.5876 H   0  0  0  0  0  0  0  0  0  0  0  0
   44.8153   33.3417   48.6727 H   0  0  0  0  0  0  0  0  0  0  0  0
   45.1453   34.3167   47.3424 H   0  0  0  0  0  0  0  0  0  0  0  0
  1  7  1  0
  1  2  1  0
  2 15  1  0
  3  2  2  0
  4  3  1  0
  5  6  1  0
  5  4  2  0
  6  1  2  0
  7  9  2  0
  8  7  2  0
 10  7  1  0
 11 10  2  0
 12 11  1  0
 12 13  2  0
 13 14  1  0
 14 10  1  0
 15 17  1  0
 16 15  2  0
 17 18  2  0
 17 22  1  0
 18 19  1  0
 19 20  2  0
 21 20  1  0
 21 23  1  0
 22 21  2  0
 23 24  1  0
 23 25  1  0
 24 25  1  0
 25 26  1  0
  3 27  1  0
  4 28  1  0
  5 29  1  0
  6 30  1  0
 11 31  1  0
 12 32  1  0
 13 33  1  0
 18 34  1  0
 19 35  1  0
 23 36  1  6
 24 37  1  0
 24 38  1  0
 25 39  1  1
 26 40  1  0
 26 41  1  0
M  ISO  8  27  14  28  14  29  14  30  14  31  14  32  14  33  14  34  14
M  ISO  7  35  14  36  13  37  13  38  13  39  13  40   5  41   5
M  END
>  <minimizedAffinity>  (1) 
-5.72304535

>  <minimizedRMSD>  (1) 
1.30525208

$$$$
