
     RDKit          3D

 27 29  0  0  0  0  0  0  0  0999 V2000
   44.4260   35.9590   44.8430 C   0  0  0  0  0  0  0  0  0  0  0  0
   45.0790   35.8270   43.6100 C   0  0  0  0  0  0  0  0  0  0  0  0
   45.9910   34.7920   43.3690 C   0  0  0  0  0  0  0  0  0  0  0  0
   46.1910   33.9470   44.3990 N   0  0  0  0  0  0  0  0  0  0  0  0
   45.5720   34.0630   45.5850 C   0  0  0  0  0  0  0  0  0  0  0  0
   44.6980   35.0600   45.8000 N   0  0  0  0  0  0  0  0  0  0  0  0
   44.4970   33.1440   41.4660 Cl  0  0  0  0  0  0  0  0  0  0  0  0
   46.0550   33.8860   41.1200 C   0  0  0  0  0  0  0  0  0  0  0  0
   46.6760   34.6460   42.0890 C   0  0  0  0  0  0  0  0  0  0  0  0
   47.9010   35.2200   41.7920 C   0  0  0  0  0  0  0  0  0  0  0  0
   48.4840   35.0330   40.5540 C   0  0  0  0  0  0  0  0  0  0  0  0
   47.8180   34.2610   39.6150 C   0  0  0  0  0  0  0  0  0  0  0  0
   48.5640   34.0320   38.0520 Cl  0  0  0  0  0  0  0  0  0  0  0  0
   46.5960   33.6730   39.8720 C   0  0  0  0  0  0  0  0  0  0  0  0
   45.9160   33.0510   46.5820 C   0  0  0  0  0  0  0  0  0  0  0  0
   46.9000   32.1110   46.7280 C   0  0  0  0  0  0  0  0  0  0  0  0
   46.6680   31.4490   47.9150 C   0  0  0  0  0  0  0  0  0  0  0  0
   45.5330   32.0220   48.4510 C   0  0  0  0  0  0  0  0  0  0  0  0
   45.1030   32.9780   47.6310 O   0  0  0  0  0  0  0  0  0  0  0  0
   43.7113   36.7761   45.0205 H   0  0  0  0  0  0  0  0  0  0  0  0
   44.8700   36.5544   42.8118 H   0  0  0  0  0  0  0  0  0  0  0  0
   48.4144   35.8306   42.5493 H   0  0  0  0  0  0  0  0  0  0  0  0
   49.4574   35.4876   40.3179 H   0  0  0  0  0  0  0  0  0  0  0  0
   46.0792   33.0635   39.1161 H   0  0  0  0  0  0  0  0  0  0  0  0
   47.7252   31.9188   46.0265 H   0  0  0  0  0  0  0  0  0  0  0  0
   47.2651   30.6319   48.3461 H   0  0  0  0  0  0  0  0  0  0  0  0
   45.0602   31.7352   49.4019 H   0  0  0  0  0  0  0  0  0  0  0  0
  1  6  2  0
  2  1  1  0
  3  2  2  0
  3  4  1  0
  4  5  2  0
  5  6  1  0
  5 15  1  0
  8  7  1  0
  8  9  2  0
  9  3  1  0
 10  9  1  0
 11 10  2  0
 12 14  2  0
 12 11  1  0
 13 12  1  0
 14  8  1  0
 15 16  2  0
 15 19  1  0
 16 17  1  0
 17 18  2  0
 19 18  1  0
  1 20  1  0
  2 21  1  0
 10 22  1  0
 11 23  1  0
 14 24  1  0
 16 25  1  0
 17 26  1  0
 18 27  1  0
M  ISO  8  20  14  21  14  22  14  23  14  24  14  25  14  26  14  27  14
M  END
>  <minimizedAffinity>  (1) 
-6.376688

>  <minimizedRMSD>  (1) 
0.320489079

$$$$
