
     RDKit          3D

 44 46  0  0  0  0  0  0  0  0999 V2000
   42.9800   32.5200   41.6210 C   0  0  0  0  0  0  0  0  0  0  0  0
   43.7770   34.8670   41.9200 C   0  0  0  0  0  0  0  0  0  0  0  0
   43.9060   33.5160   42.2230 C   0  0  0  0  0  0  0  0  0  0  0  0
   44.9050   33.1470   43.0860 C   0  0  0  0  0  0  0  0  0  0  0  0
   45.7440   34.0780   43.6280 C   0  0  0  0  0  0  0  0  0  0  0  0
   45.6310   35.4060   43.3420 C   0  0  0  0  0  0  0  0  0  0  0  0
   44.6120   35.7530   42.4650 C   0  0  0  0  0  0  0  0  0  0  0  0
   40.4890   36.0110   40.4350 C   0  0  0  0  0  0  0  0  0  0  0  0
   41.4640   35.7070   41.4030 C   0  0  0  0  0  0  0  0  0  0  0  0
   42.6950   35.2150   40.9940 C   0  0  0  0  0  0  0  0  0  0  0  0
   42.8920   35.0520   39.6590 N   0  0  0  0  0  0  0  0  0  0  0  0
   41.9450   35.3480   38.7390 C   0  0  0  0  0  0  0  0  0  0  0  0
   40.7550   35.8240   39.1370 N   0  0  0  0  0  0  0  0  0  0  0  0
   42.6540   31.4180   42.4890 N   0  0  0  0  0  0  0  0  0  0  0  0
   40.9630   31.1550   42.5850 S   0  0  0  0  0  0  0  0  0  0  0  0
   40.2110   32.4530   42.5260 O   0  0  0  0  0  0  0  0  0  0  0  0
   40.6100   30.4070   43.8210 O   0  0  0  0  0  0  0  0  0  0  0  0
   40.5350   30.2150   41.2660 O   0  0  0  0  0  0  0  0  0  0  0  0
   39.2010   29.8930   41.3510 C   0  0  0  0  0  0  0  0  0  0  0  0
   38.5750   29.9820   39.9490 C   0  0  0  0  0  0  0  0  0  0  0  0
   38.4380   31.3960   39.5590 C   0  0  0  0  0  0  0  0  0  0  0  0
   38.5070   31.9010   38.2890 C   0  0  0  0  0  0  0  0  0  0  0  0
   38.3210   33.2790   38.4170 C   0  0  0  0  0  0  0  0  0  0  0  0
   38.1480   33.5200   39.7770 C   0  0  0  0  0  0  0  0  0  0  0  0
   38.2230   32.3830   40.4190 O   0  0  0  0  0  0  0  0  0  0  0  0
   42.0462   33.0354   41.3520 H   0  0  0  0  0  0  0  0  0  0  0  0
   43.4974   32.0936   40.7489 H   0  0  0  0  0  0  0  0  0  0  0  0
   45.0326   32.0857   43.3456 H   0  0  0  0  0  0  0  0  0  0  0  0
   46.5352   33.7462   44.3164 H   0  0  0  0  0  0  0  0  0  0  0  0
   46.3057   36.1567   43.7792 H   0  0  0  0  0  0  0  0  0  0  0  0
   44.4867   36.8147   42.2060 H   0  0  0  0  0  0  0  0  0  0  0  0
   39.5088   36.4021   40.7451 H   0  0  0  0  0  0  0  0  0  0  0  0
   41.2525   35.8578   42.4719 H   0  0  0  0  0  0  0  0  0  0  0  0
   42.1498   35.1990   37.6686 H   0  0  0  0  0  0  0  0  0  0  0  0
   43.1032   30.5649   42.1265 H   0  0  0  0  0  0  0  0  0  0  0  0
   40.0273   32.7701   43.4457 H   0  0  0  0  0  0  0  0  0  0  0  0
   40.8627   30.9426   44.6144 H   0  0  0  0  0  0  0  0  0  0  0  0
   39.0925   28.8695   41.7392 H   0  0  0  0  0  0  0  0  0  0  0  0
   38.6921   30.5923   42.0307 H   0  0  0  0  0  0  0  0  0  0  0  0
   39.2214   29.4635   39.2256 H   0  0  0  0  0  0  0  0  0  0  0  0
   37.5824   29.5080   39.9608 H   0  0  0  0  0  0  0  0  0  0  0  0
   38.6744   31.3376   37.3592 H   0  0  0  0  0  0  0  0  0  0  0  0
   38.3128   34.0233   37.6071 H   0  0  0  0  0  0  0  0  0  0  0  0
   37.9764   34.5047   40.2362 H   0  0  0  0  0  0  0  0  0  0  0  0
  1  3  1  0
  1 14  1  0
  2  3  1  0
  2  7  2  0
  3  4  2  0
  4  5  1  0
  6  5  2  0
  7  6  1  0
  8  9  2  0
 10  9  1  0
 10  2  1  0
 11 10  2  0
 12 13  2  0
 12 11  1  0
 13  8  1  0
 14 15  1  0
 15 17  1  0
 16 15  1  0
 18 19  1  0
 18 15  1  0
 20 19  1  0
 21 20  1  0
 21 25  1  0
 22 23  1  0
 22 21  2  0
 23 24  2  0
 24 25  1  0
  1 26  1  0
  1 27  1  0
  4 28  1  0
  5 29  1  0
  6 30  1  0
  7 31  1  0
  8 32  1  0
  9 33  1  0
 12 34  1  0
 14 35  1  0
 16 36  1  0
 17 37  1  0
 19 38  1  0
 19 39  1  0
 20 40  1  0
 20 41  1  0
 22 42  1  0
 23 43  1  0
 24 44  1  0
M  ISO  8  26   8  27   8  28  14  29  14  30  14  31  14  32  14  33  14
M  ISO  8  34  14  35   5  36   3  37   3  38   8  39   8  40   8  41   8
M  ISO  3  42  14  43  14  44  14
M  END
>  <minimizedAffinity>  (1) 
-5.66141415

>  <minimizedRMSD>  (1) 
2.72281456

$$$$
