
     RDKit          3D

 36 38  0  0  1  0  0  0  0  0999 V2000
   45.4240   34.7040   42.3450 C   0  0  0  0  0  0  0  0  0  0  0  0
   46.5400   35.3240   41.7290 C   0  0  0  0  0  0  0  0  0  0  0  0
   47.8030   34.9280   42.2120 C   0  0  0  0  0  0  0  0  0  0  0  0
   47.8550   34.0170   43.1960 N   0  0  0  0  0  0  0  0  0  0  0  0
   46.7730   33.4570   43.7490 C   0  0  0  0  0  0  0  0  0  0  0  0
   45.5390   33.7980   43.3240 N   0  0  0  0  0  0  0  0  0  0  0  0
   43.7850   34.4280   40.7060 C   0  0  0  0  0  0  0  0  0  0  0  0
   44.6590   33.7190   40.1240 O   0  0  0  0  0  0  0  0  0  0  0  0
   44.0970   35.0310   41.9320 N   0  0  0  0  0  0  0  0  0  0  0  0
   42.5350   34.5460   40.0410 N   0  0  0  0  0  0  0  0  0  0  0  0
   42.3760   34.1490   38.6430 C   0  0  0  0  0  0  0  0  0  0  0  0
   41.3460   35.1350   38.1500 C   0  0  0  0  0  0  0  0  0  0  0  0
   40.8280   35.8830   39.3470 C   0  0  0  0  0  0  0  0  0  0  0  0
   41.2490   35.0240   40.4930 C   0  0  1  0  0  0  0  0  0  0  0  0
   40.3170   33.9210   40.8060 C   0  0  0  0  0  0  0  0  0  0  0  0
   38.9970   33.7730   40.3970 C   0  0  0  0  0  0  0  0  0  0  0  0
   38.6210   32.5790   40.9750 C   0  0  0  0  0  0  0  0  0  0  0  0
   39.6710   32.0450   41.6940 C   0  0  0  0  0  0  0  0  0  0  0  0
   40.6600   32.9160   41.5430 O   0  0  0  0  0  0  0  0  0  0  0  0
   48.9320   35.5840   41.5600 C   0  0  0  0  0  0  0  0  0  0  0  0
   50.0950   34.9250   41.8990 F   0  0  0  0  0  0  0  0  0  0  0  0
   49.0570   36.8540   42.1150 F   0  0  0  0  0  0  0  0  0  0  0  0
   48.8400   35.6030   40.1880 F   0  0  0  0  0  0  0  0  0  0  0  0
   46.4272   36.0667   40.9254 H   0  0  0  0  0  0  0  0  0  0  0  0
   46.8901   32.7157   44.5532 H   0  0  0  0  0  0  0  0  0  0  0  0
   43.4528   35.6319   42.4657 H   0  0  0  0  0  0  0  0  0  0  0  0
   43.3214   34.2488   38.0895 H   0  0  0  0  0  0  0  0  0  0  0  0
   42.0805   33.0975   38.5122 H   0  0  0  0  0  0  0  0  0  0  0  0
   41.8074   35.8365   37.4394 H   0  0  0  0  0  0  0  0  0  0  0  0
   40.5262   34.6138   37.6340 H   0  0  0  0  0  0  0  0  0  0  0  0
   41.2827   36.8823   39.4150 H   0  0  0  0  0  0  0  0  0  0  0  0
   39.7420   36.0547   39.3122 H   0  0  0  0  0  0  0  0  0  0  0  0
   41.2737   35.5742   41.4452 H   0  0  0  0  0  0  0  0  0  0  0  0
   38.3977   34.4453   39.7654 H   0  0  0  0  0  0  0  0  0  0  0  0
   37.6269   32.1183   40.8771 H   0  0  0  0  0  0  0  0  0  0  0  0
   39.6847   31.1053   42.2656 H   0  0  0  0  0  0  0  0  0  0  0  0
  1  6  2  0
  2  3  2  0
  2  1  1  0
  3  4  1  0
  4  5  2  0
  6  5  1  0
  7  9  1  0
  8  7  2  0
  9  1  1  0
 10 14  1  0
 10  7  1  0
 11 10  1  0
 12 11  1  0
 12 13  1  0
 13 14  1  0
 14 15  1  0
 15 19  1  0
 16 15  2  0
 16 17  1  0
 17 18  2  0
 19 18  1  0
 20 21  1  0
 20 22  1  0
 20  3  1  0
 23 20  1  0
  2 24  1  0
  5 25  1  0
  9 26  1  0
 11 27  1  0
 11 28  1  0
 12 29  1  0
 12 30  1  0
 13 31  1  0
 13 32  1  0
 14 33  1  1
 16 34  1  0
 17 35  1  0
 18 36  1  0
M  ISO  8  24  14  25  14  27  13  28  13  29  13  30  13  31  13  32  13
M  ISO  4  33  13  34  14  35  14  36  14
M  END
>  <minimizedAffinity>  (1) 
-6.92825508

>  <minimizedRMSD>  (1) 
1.31591463

$$$$
