
     RDKit          3D

 40 43  0  0  1  0  0  0  0  0999 V2000
   48.9470   31.9810   43.0220 O   0  0  0  0  0  0  0  0  0  0  0  0
   50.1890   32.3080   42.2100 P   0  0  2  0  0  0  0  0  0  0  0  0
   51.5440   31.5970   42.8310 O   0  0  0  0  0  0  0  0  0  0  0  0
   50.2530   33.9920   42.0650 O   0  0  0  0  0  0  0  0  0  0  0  0
   48.0220   34.5000   41.1500 C   0  0  1  0  0  0  0  0  0  0  0  0
   48.7380   35.7870   41.7210 C   0  0  0  0  0  0  0  0  0  0  0  0
   48.9780   34.4800   42.2820 C   0  0  2  0  0  0  0  0  0  0  0  0
   46.5530   34.5250   41.4240 C   0  0  0  0  0  0  0  0  0  0  0  0
   45.8050   34.2870   40.4830 O   0  0  0  0  0  0  0  0  0  0  0  0
   45.3440   35.9540   43.0090 C   0  0  0  0  0  0  0  0  0  0  0  0
   45.9630   34.8000   42.6820 C   0  0  0  0  0  0  0  0  0  0  0  0
   46.0130   33.7900   43.7000 C   0  0  0  0  0  0  0  0  0  0  0  0
   45.4630   34.0010   44.9190 N   0  0  0  0  0  0  0  0  0  0  0  0
   44.8520   35.1840   45.1920 C   0  0  0  0  0  0  0  0  0  0  0  0
   44.8000   36.1180   44.2660 N   0  0  0  0  0  0  0  0  0  0  0  0
   49.8200   31.6800   40.6300 O   0  0  0  0  0  0  0  0  0  0  0  0
   50.7590   31.4770   39.6480 C   0  0  0  0  0  0  0  0  0  0  0  0
   50.6990   31.7850   38.2940 C   0  0  0  0  0  0  0  0  0  0  0  0
   51.7660   31.4930   37.4680 C   0  0  0  0  0  0  0  0  0  0  0  0
   52.8720   30.9030   37.9910 N   0  0  0  0  0  0  0  0  0  0  0  0
   52.9340   30.6020   39.3090 C   0  0  0  0  0  0  0  0  0  0  0  0
   51.8880   30.8820   40.1460 N   0  0  0  0  0  0  0  0  0  0  0  0
   54.1420   29.9680   39.8330 C   0  0  0  0  0  0  0  0  0  0  0  0
   55.2170   29.3390   39.2400 C   0  0  0  0  0  0  0  0  0  0  0  0
   56.0200   28.9610   40.3070 C   0  0  0  0  0  0  0  0  0  0  0  0
   55.4140   29.3680   41.4860 C   0  0  0  0  0  0  0  0  0  0  0  0
   54.2910   29.9660   41.1330 O   0  0  0  0  0  0  0  0  0  0  0  0
   51.5040   31.6180   43.8200 H   0  0  0  0  0  0  0  0  0  0  0  0
   47.9399   33.9186   40.2198 H   0  0  0  0  0  0  0  0  0  0  0  0
   49.5211   36.2910   41.1357 H   0  0  0  0  0  0  0  0  0  0  0  0
   48.4098   36.7619   42.1107 H   0  0  0  0  0  0  0  0  0  0  0  0
   48.8928   34.0446   43.2886 H   0  0  0  0  0  0  0  0  0  0  0  0
   45.2731   36.7664   42.2707 H   0  0  0  0  0  0  0  0  0  0  0  0
   46.5056   32.8299   43.4868 H   0  0  0  0  0  0  0  0  0  0  0  0
   44.4036   35.3598   46.1810 H   0  0  0  0  0  0  0  0  0  0  0  0
   49.7990   32.2627   37.8794 H   0  0  0  0  0  0  0  0  0  0  0  0
   51.7209   31.7359   36.3961 H   0  0  0  0  0  0  0  0  0  0  0  0
   55.3966   29.1747   38.1673 H   0  0  0  0  0  0  0  0  0  0  0  0
   56.9786   28.4269   40.2302 H   0  0  0  0  0  0  0  0  0  0  0  0
   55.7924   29.2222   42.5085 H   0  0  0  0  0  0  0  0  0  0  0  0
  2  3  1  0
  2  1  2  0
  4  2  1  0
  4  7  1  0
  5  8  1  0
  5  6  1  0
  5  7  1  0
  6  7  1  0
  8 11  1  0
  9  8  2  0
 10 15  2  0
 11 10  1  0
 11 12  2  0
 12 13  1  0
 13 14  2  0
 15 14  1  0
 16  2  1  0
 17 22  1  0
 17 16  1  0
 18 17  2  0
 19 20  2  0
 19 18  1  0
 20 21  1  0
 21 23  1  0
 21 22  2  0
 23 27  1  0
 24 23  2  0
 24 25  1  0
 25 26  2  0
 27 26  1  0
  3 28  1  0
  5 29  1  6
  6 30  1  0
  6 31  1  0
  7 32  1  1
 10 33  1  0
 12 34  1  0
 14 35  1  0
 18 36  1  0
 19 37  1  0
 24 38  1  0
 25 39  1  0
 26 40  1  0
M  ISO  8  28   3  29  13  30  13  31  13  32  13  33  14  34  14  35  14
M  ISO  5  36  14  37  14  38  14  39  14  40  14
M  END
>  <minimizedAffinity>  (1) 
-5.186409

>  <minimizedRMSD>  (1) 
0.779694557

$$$$
