
     RDKit          3D

 40 43  0  0  0  0  0  0  0  0999 V2000
   45.1580   33.9570   40.7000 C   0  0  0  0  0  0  0  0  0  0  0  0
   44.1060   33.6340   39.8860 C   0  0  0  0  0  0  0  0  0  0  0  0
   44.4090   33.1360   38.6540 C   0  0  0  0  0  0  0  0  0  0  0  0
   45.6870   32.9430   38.1890 C   0  0  0  0  0  0  0  0  0  0  0  0
   46.7230   33.2760   39.0300 C   0  0  0  0  0  0  0  0  0  0  0  0
   46.4730   33.7810   40.2830 C   0  0  0  0  0  0  0  0  0  0  0  0
   40.8230   35.2640   40.7910 C   0  0  0  0  0  0  0  0  0  0  0  0
   42.1220   35.0860   40.2750 C   0  0  0  0  0  0  0  0  0  0  0  0
   42.7770   33.8490   40.4040 C   0  0  0  0  0  0  0  0  0  0  0  0
   42.0670   32.8960   41.0430 N   0  0  0  0  0  0  0  0  0  0  0  0
   40.8360   33.0790   41.5280 C   0  0  0  0  0  0  0  0  0  0  0  0
   40.2160   34.2490   41.4060 N   0  0  0  0  0  0  0  0  0  0  0  0
   40.2210   36.5240   40.6310 N   0  0  0  0  0  0  0  0  0  0  0  0
   47.6280   34.1070   41.1040 C   0  0  0  0  0  0  0  0  0  0  0  0
   48.1450   35.3720   40.9380 C   0  0  0  0  0  0  0  0  0  0  0  0
   49.2470   35.8530   41.6410 C   0  0  0  0  0  0  0  0  0  0  0  0
   49.8480   35.0000   42.5530 C   0  0  0  0  0  0  0  0  0  0  0  0
   49.3520   33.7340   42.7380 C   0  0  0  0  0  0  0  0  0  0  0  0
   48.2520   33.2870   42.0220 C   0  0  0  0  0  0  0  0  0  0  0  0
   47.6760   31.9530   42.1710 C   0  0  0  0  0  0  0  0  0  0  0  0
   46.9530   31.7370   43.3460 C   0  0  0  0  0  0  0  0  0  0  0  0
   46.4840   30.4260   43.3160 C   0  0  0  0  0  0  0  0  0  0  0  0
   46.9620   29.9290   42.1040 C   0  0  0  0  0  0  0  0  0  0  0  0
   47.6500   30.8480   41.4690 O   0  0  0  0  0  0  0  0  0  0  0  0
   44.7550   34.9150   43.1010 N   0  0  0  0  0  0  0  0  0  0  0  0
   44.9350   34.4890   42.0180 C   0  0  0  0  0  0  0  0  0  0  0  0
   43.5747   32.8710   37.9878 H   0  0  0  0  0  0  0  0  0  0  0  0
   45.8744   32.5381   37.1836 H   0  0  0  0  0  0  0  0  0  0  0  0
   47.7618   33.1367   38.6962 H   0  0  0  0  0  0  0  0  0  0  0  0
   42.6272   35.9211   39.7676 H   0  0  0  0  0  0  0  0  0  0  0  0
   40.3264   32.2476   42.0370 H   0  0  0  0  0  0  0  0  0  0  0  0
   40.7282   37.2796   40.1485 H   0  0  0  0  0  0  0  0  0  0  0  0
   39.2726   36.6918   40.9962 H   0  0  0  0  0  0  0  0  0  0  0  0
   47.6611   36.0398   40.2100 H   0  0  0  0  0  0  0  0  0  0  0  0
   49.6264   36.8726   41.4783 H   0  0  0  0  0  0  0  0  0  0  0  0
   50.7225   35.3377   43.1285 H   0  0  0  0  0  0  0  0  0  0  0  0
   49.8342   33.0639   43.4650 H   0  0  0  0  0  0  0  0  0  0  0  0
   46.7845   32.4693   44.1493 H   0  0  0  0  0  0  0  0  0  0  0  0
   45.8782   29.9045   44.0717 H   0  0  0  0  0  0  0  0  0  0  0  0
   46.7867   28.9087   41.7322 H   0  0  0  0  0  0  0  0  0  0  0  0
  1 26  1  0
  2  9  1  0
  2  1  2  0
  3  2  1  0
  4  3  2  0
  4  5  1  0
  5  6  2  0
  6  1  1  0
  6 14  1  0
  7 12  2  0
  8  9  2  0
  8  7  1  0
  9 10  1  0
 10 11  2  0
 12 11  1  0
 13  7  1  0
 14 19  1  0
 15 14  2  0
 15 16  1  0
 16 17  2  0
 17 18  1  0
 19 20  1  0
 19 18  2  0
 20 21  2  0
 22 21  1  0
 23 22  2  0
 24 23  1  0
 24 20  1  0
 26 25  3  0
  3 27  1  0
  4 28  1  0
  5 29  1  0
  8 30  1  0
 11 31  1  0
 13 32  1  0
 13 33  1  0
 15 34  1  0
 16 35  1  0
 17 36  1  0
 18 37  1  0
 21 38  1  0
 22 39  1  0
 23 40  1  0
M  ISO  8  27  14  28  14  29  14  30  14  31  14  34  14  35  14  36  14
M  ISO  4  37  14  38  14  39  14  40  14
M  END
>  <minimizedAffinity>  (1) 
-5.95584106

>  <minimizedRMSD>  (1) 
0.26409474

$$$$
