
     RDKit          3D

 37 41  0  0  0  0  0  0  0  0999 V2000
   46.2290   31.2910   45.0280 C   0  0  0  0  0  0  0  0  0  0  0  0
   46.3900   32.6520   45.2520 C   0  0  0  0  0  0  0  0  0  0  0  0
   46.2130   33.2340   46.4850 C   0  0  0  0  0  0  0  0  0  0  0  0
   45.8560   32.4530   47.5820 C   0  0  0  0  0  0  0  0  0  0  0  0
   45.6030   32.6650   48.9080 N   0  0  0  0  0  0  0  0  0  0  0  0
   45.2960   31.4770   49.4840 C   0  0  0  0  0  0  0  0  0  0  0  0
   45.3620   30.5390   48.5090 N   0  0  0  0  0  0  0  0  0  0  0  0
   45.7040   31.1120   47.3330 C   0  0  0  0  0  0  0  0  0  0  0  0
   45.8700   30.5000   46.1260 C   0  0  0  0  0  0  0  0  0  0  0  0
   46.2490   35.2680   42.6580 C   0  0  0  0  0  0  0  0  0  0  0  0
   47.4830   35.1120   42.0190 C   0  0  0  0  0  0  0  0  0  0  0  0
   48.3510   34.1210   42.4740 C   0  0  0  0  0  0  0  0  0  0  0  0
   47.9560   33.3390   43.5320 N   0  0  0  0  0  0  0  0  0  0  0  0
   46.7640   33.5110   44.1280 C   0  0  0  0  0  0  0  0  0  0  0  0
   45.9060   34.4670   43.7020 N   0  0  0  0  0  0  0  0  0  0  0  0
   45.6820   29.0540   45.9710 C   0  0  0  0  0  0  0  0  0  0  0  0
   46.6960   28.1580   45.7340 C   0  0  0  0  0  0  0  0  0  0  0  0
   46.0630   26.9140   45.6590 C   0  0  0  0  0  0  0  0  0  0  0  0
   44.7170   27.1280   45.8530 C   0  0  0  0  0  0  0  0  0  0  0  0
   44.5420   28.4390   46.0370 O   0  0  0  0  0  0  0  0  0  0  0  0
   43.5890   26.2000   45.8790 C   0  0  0  0  0  0  0  0  0  0  0  0
   42.3210   26.6320   46.2780 C   0  0  0  0  0  0  0  0  0  0  0  0
   41.4340   25.5760   46.2170 C   0  0  0  0  0  0  0  0  0  0  0  0
   42.2230   24.5350   45.7750 C   0  0  0  0  0  0  0  0  0  0  0  0
   43.4740   24.9250   45.5860 O   0  0  0  0  0  0  0  0  0  0  0  0
   46.3773   30.8529   44.0300 H   0  0  0  0  0  0  0  0  0  0  0  0
   46.3535   34.3183   46.6055 H   0  0  0  0  0  0  0  0  0  0  0  0
   45.6395   33.5750   49.3892 H   0  0  0  0  0  0  0  0  0  0  0  0
   45.0420   31.3072   50.5407 H   0  0  0  0  0  0  0  0  0  0  0  0
   45.5503   36.0447   42.3135 H   0  0  0  0  0  0  0  0  0  0  0  0
   47.7630   35.7584   41.1742 H   0  0  0  0  0  0  0  0  0  0  0  0
   49.3302   33.9685   41.9967 H   0  0  0  0  0  0  0  0  0  0  0  0
   47.7696   28.3723   45.6269 H   0  0  0  0  0  0  0  0  0  0  0  0
   46.5499   25.9443   45.4785 H   0  0  0  0  0  0  0  0  0  0  0  0
   42.0688   27.6556   46.5922 H   0  0  0  0  0  0  0  0  0  0  0  0
   40.3614   25.5671   46.4610 H   0  0  0  0  0  0  0  0  0  0  0  0
   41.8595   23.5114   45.6016 H   0  0  0  0  0  0  0  0  0  0  0  0
  1  2  2  0
  1  9  1  0
  2  3  1  0
  3  4  2  0
  4  5  1  0
  5  6  1  0
  7  6  2  0
  8  4  1  0
  8  7  1  0
  9  8  2  0
 10 15  2  0
 11 12  2  0
 11 10  1  0
 12 13  1  0
 13 14  2  0
 14  2  1  0
 15 14  1  0
 16 20  1  0
 16  9  1  0
 17 16  2  0
 18 17  1  0
 18 19  2  0
 19 21  1  0
 19 20  1  0
 21 22  2  0
 23 22  1  0
 24 23  2  0
 25 24  1  0
 25 21  1  0
  1 26  1  0
  3 27  1  0
  5 28  1  0
  6 29  1  0
 10 30  1  0
 11 31  1  0
 12 32  1  0
 17 33  1  0
 18 34  1  0
 22 35  1  0
 23 36  1  0
 24 37  1  0
M  ISO  8  26  14  27  14  28   9  29  14  30  14  31  14  32  14  33  14
M  ISO  4  34  14  35  14  36  14  37  14
M  END
>  <minimizedAffinity>  (1) 
-5.77880669

>  <minimizedRMSD>  (1) 
1.88822424

$$$$
