
     RDKit          3D

 20 21  0  0  0  0  0  0  0  0999 V2000
   44.5280   36.0640   44.3190 C   0  0  0  0  0  0  0  0  0  0  0  0
   45.3130   35.8860   43.1580 C   0  0  0  0  0  0  0  0  0  0  0  0
   46.2360   34.8370   43.1440 C   0  0  0  0  0  0  0  0  0  0  0  0
   46.3260   34.0460   44.2520 N   0  0  0  0  0  0  0  0  0  0  0  0
   45.5460   34.2590   45.3470 C   0  0  0  0  0  0  0  0  0  0  0  0
   44.6560   35.2590   45.3820 N   0  0  0  0  0  0  0  0  0  0  0  0
   45.7190   33.3570   46.4810 C   0  0  0  0  0  0  0  0  0  0  0  0
   46.8600   32.5550   46.4980 C   0  0  0  0  0  0  0  0  0  0  0  0
   46.8020   31.7910   47.6640 C   0  0  0  0  0  0  0  0  0  0  0  0
   45.6120   32.1850   48.2860 C   0  0  0  0  0  0  0  0  0  0  0  0
   45.0150   33.1040   47.5550 O   0  0  0  0  0  0  0  0  0  0  0  0
   47.0190   34.6990   41.9210 C   0  0  0  0  0  0  0  0  0  0  0  0
   47.8200   33.5590   42.0400 F   0  0  0  0  0  0  0  0  0  0  0  0
   47.9150   35.7660   41.9030 F   0  0  0  0  0  0  0  0  0  0  0  0
   46.2770   34.5900   40.7940 F   0  0  0  0  0  0  0  0  0  0  0  0
   43.7943   36.8830   44.3508 H   0  0  0  0  0  0  0  0  0  0  0  0
   45.2010   36.5534   42.2908 H   0  0  0  0  0  0  0  0  0  0  0  0
   47.6541   32.5297   45.7372 H   0  0  0  0  0  0  0  0  0  0  0  0
   47.5297   31.0450   48.0160 H   0  0  0  0  0  0  0  0  0  0  0  0
   45.2331   31.7881   49.2394 H   0  0  0  0  0  0  0  0  0  0  0  0
  1  6  2  0
  2  1  1  0
  3  2  2  0
  3  4  1  0
  4  5  2  0
  5  6  1  0
  5  7  1  0
  7  8  2  0
  7 11  1  0
  8  9  1  0
  9 10  2  0
 11 10  1  0
 12 13  1  0
 12  3  1  0
 14 12  1  0
 15 12  1  0
  1 16  1  0
  2 17  1  0
  8 18  1  0
  9 19  1  0
 10 20  1  0
M  ISO  5  16  14  17  14  18  14  19  14  20  14
M  END
>  <minimizedAffinity>  (1) 
-5.20271492

>  <minimizedRMSD>  (1) 
0.47293362

$$$$
