
     RDKit          3D

 42 45  0  0  1  0  0  0  0  0999 V2000
   48.0060   32.0040   44.3210 F   0  0  0  0  0  0  0  0  0  0  0  0
   47.0660   32.9720   44.4940 C   0  0  0  0  0  0  0  0  0  0  0  0
   46.2500   32.8850   45.6020 C   0  0  0  0  0  0  0  0  0  0  0  0
   45.3010   33.8670   45.7710 C   0  0  0  0  0  0  0  0  0  0  0  0
   45.1980   34.8850   44.8480 C   0  0  0  0  0  0  0  0  0  0  0  0
   46.0050   34.9710   43.7520 C   0  0  0  0  0  0  0  0  0  0  0  0
   46.9670   33.9710   43.5850 C   0  0  0  0  0  0  0  0  0  0  0  0
   47.7840   34.0970   42.4350 N   0  0  0  0  0  0  0  0  0  0  0  0
   48.8170   33.2500   41.9010 C   0  0  0  0  0  0  0  0  0  0  0  0
   48.4220   33.1130   40.4240 C   0  0  0  0  0  0  0  0  0  0  0  0
   47.5870   34.3320   40.1650 C   0  0  0  0  0  0  0  0  0  0  0  0
   47.8310   35.1460   41.4170 C   0  0  2  0  0  0  0  0  0  0  0  0
   49.0980   35.9290   41.4080 C   0  0  0  0  0  0  0  0  0  0  0  0
   45.6660   29.7600   47.4180 C   0  0  0  0  0  0  0  0  0  0  0  0
   46.7080   29.7420   48.3570 C   0  0  0  0  0  0  0  0  0  0  0  0
   47.5840   30.8210   48.3280 C   0  0  0  0  0  0  0  0  0  0  0  0
   47.3970   31.8080   47.4250 N   0  0  0  0  0  0  0  0  0  0  0  0
   46.3960   31.7910   46.5500 C   0  0  0  0  0  0  0  0  0  0  0  0
   45.5370   30.7790   46.5420 N   0  0  0  0  0  0  0  0  0  0  0  0
   48.7180   30.9510   49.2390 C   0  0  0  0  0  0  0  0  0  0  0  0
   49.4960   32.0890   49.2960 C   0  0  0  0  0  0  0  0  0  0  0  0
   50.4630   31.8620   50.2540 C   0  0  0  0  0  0  0  0  0  0  0  0
   50.2250   30.5920   50.7370 C   0  0  0  0  0  0  0  0  0  0  0  0
   49.1780   30.0760   50.1120 O   0  0  0  0  0  0  0  0  0  0  0  0
   44.6270   33.8395   46.6399 H   0  0  0  0  0  0  0  0  0  0  0  0
   44.4331   35.6605   45.0016 H   0  0  0  0  0  0  0  0  0  0  0  0
   45.9030   35.7937   43.0290 H   0  0  0  0  0  0  0  0  0  0  0  0
   49.8062   33.7201   42.0037 H   0  0  0  0  0  0  0  0  0  0  0  0
   48.8964   32.2834   42.4200 H   0  0  0  0  0  0  0  0  0  0  0  0
   49.3129   33.1034   39.7789 H   0  0  0  0  0  0  0  0  0  0  0  0
   47.8864   32.1761   40.2110 H   0  0  0  0  0  0  0  0  0  0  0  0
   47.9277   34.8673   39.2665 H   0  0  0  0  0  0  0  0  0  0  0  0
   46.5257   34.1131   39.9758 H   0  0  0  0  0  0  0  0  0  0  0  0
   47.1018   35.9553   41.5694 H   0  0  0  0  0  0  0  0  0  0  0  0
   49.4152   36.1250   42.4429 H   0  0  0  0  0  0  0  0  0  0  0  0
   49.8794   35.3561   40.8872 H   0  0  0  0  0  0  0  0  0  0  0  0
   48.9351   36.8841   40.8872 H   0  0  0  0  0  0  0  0  0  0  0  0
   44.9431   28.9312   47.3951 H   0  0  0  0  0  0  0  0  0  0  0  0
   46.8255   28.9188   49.0771 H   0  0  0  0  0  0  0  0  0  0  0  0
   49.3699   33.0010   48.6941 H   0  0  0  0  0  0  0  0  0  0  0  0
   51.2600   32.5521   50.5680 H   0  0  0  0  0  0  0  0  0  0  0  0
   50.8124   30.0875   51.5183 H   0  0  0  0  0  0  0  0  0  0  0  0
  1  2  1  0
  2  3  2  0
  3  4  1  0
  3 18  1  0
  5  4  2  0
  6  5  1  0
  7  6  2  0
  7  2  1  0
  8  7  1  0
  9  8  1  0
 10  9  1  0
 11 10  1  0
 11 12  1  0
 12  8  1  0
 13 12  1  0
 14 15  2  0
 16 15  1  0
 16 20  1  0
 17 16  2  0
 18 17  1  0
 19 18  2  0
 19 14  1  0
 20 21  2  0
 20 24  1  0
 21 22  1  0
 22 23  2  0
 24 23  1  0
  4 25  1  0
  5 26  1  0
  6 27  1  0
  9 28  1  0
  9 29  1  0
 10 30  1  0
 10 31  1  0
 11 32  1  0
 11 33  1  0
 12 34  1  1
 13 35  1  0
 13 36  1  0
 13 37  1  0
 14 38  1  0
 15 39  1  0
 21 40  1  0
 22 41  1  0
 23 42  1  0
M  ISO  8  25  14  26  14  27  14  28  13  29  13  30  13  31  13  32  13
M  ISO  8  33  13  34  13  35   8  36   8  37   8  38  14  39  14  40  14
M  ISO  2  41  14  42  14
M  END
>  <minimizedAffinity>  (1) 
-6.10816383

>  <minimizedRMSD>  (1) 
8.13055325

$$$$
