
     RDKit          3D

 33 36  0  0  0  0  0  0  0  0999 V2000
   47.6080   35.0760   42.0380 C   0  0  0  0  0  0  0  0  0  0  0  0
   48.7310   35.6510   42.1020 O   0  0  0  0  0  0  0  0  0  0  0  0
   46.2080   33.6990   40.4430 C   0  0  0  0  0  0  0  0  0  0  0  0
   47.3580   34.4470   40.7270 C   0  0  0  0  0  0  0  0  0  0  0  0
   48.2970   34.6070   39.7320 C   0  0  0  0  0  0  0  0  0  0  0  0
   48.1840   34.0730   38.4540 C   0  0  0  0  0  0  0  0  0  0  0  0
   48.9500   34.1000   37.3610 N   0  0  0  0  0  0  0  0  0  0  0  0
   48.3610   33.4120   36.3840 C   0  0  0  0  0  0  0  0  0  0  0  0
   47.1650   32.9230   36.8760 C   0  0  0  0  0  0  0  0  0  0  0  0
   47.0330   33.3350   38.1980 C   0  0  0  0  0  0  0  0  0  0  0  0
   46.0800   33.1590   39.1710 C   0  0  0  0  0  0  0  0  0  0  0  0
   46.6320   34.9990   43.0770 C   0  0  0  0  0  0  0  0  0  0  0  0
   45.5500   35.8800   42.9480 C   0  0  0  0  0  0  0  0  0  0  0  0
   44.5820   35.8110   43.9690 C   0  0  0  0  0  0  0  0  0  0  0  0
   44.7530   34.9180   44.9870 N   0  0  0  0  0  0  0  0  0  0  0  0
   45.8220   34.0950   45.0510 C   0  0  0  0  0  0  0  0  0  0  0  0
   46.7630   34.1470   44.0780 N   0  0  0  0  0  0  0  0  0  0  0  0
   45.9220   33.1720   46.1780 C   0  0  0  0  0  0  0  0  0  0  0  0
   46.8710   32.1560   46.2890 C   0  0  0  0  0  0  0  0  0  0  0  0
   46.6460   31.5030   47.4850 C   0  0  0  0  0  0  0  0  0  0  0  0
   45.5670   32.1460   48.0570 C   0  0  0  0  0  0  0  0  0  0  0  0
   45.1760   33.1140   47.2590 O   0  0  0  0  0  0  0  0  0  0  0  0
   45.4300   33.5444   41.2052 H   0  0  0  0  0  0  0  0  0  0  0  0
   49.1960   35.1966   39.9645 H   0  0  0  0  0  0  0  0  0  0  0  0
   49.8582   34.5798   37.2847 H   0  0  0  0  0  0  0  0  0  0  0  0
   48.7553   33.2602   35.3684 H   0  0  0  0  0  0  0  0  0  0  0  0
   46.4409   32.3120   36.3170 H   0  0  0  0  0  0  0  0  0  0  0  0
   45.1827   32.5686   38.9336 H   0  0  0  0  0  0  0  0  0  0  0  0
   45.4622   36.5801   42.1041 H   0  0  0  0  0  0  0  0  0  0  0  0
   43.7001   36.4680   43.9462 H   0  0  0  0  0  0  0  0  0  0  0  0
   47.6564   31.9179   45.5566 H   0  0  0  0  0  0  0  0  0  0  0  0
   47.2079   30.6508   47.8949 H   0  0  0  0  0  0  0  0  0  0  0  0
   45.1089   31.8898   49.0237 H   0  0  0  0  0  0  0  0  0  0  0  0
  1  2  2  0
  1 12  1  0
  3  4  2  0
  4  1  1  0
  5  4  1  0
  6  5  2  0
  7  6  1  0
  8  9  2  0
  8  7  1  0
  9 10  1  0
 10  6  1  0
 10 11  2  0
 11  3  1  0
 12 17  1  0
 13 12  2  0
 13 14  1  0
 14 15  2  0
 15 16  1  0
 16 18  1  0
 17 16  2  0
 18 19  2  0
 18 22  1  0
 19 20  1  0
 20 21  2  0
 22 21  1  0
  3 23  1  0
  5 24  1  0
  7 25  1  0
  8 26  1  0
  9 27  1  0
 11 28  1  0
 13 29  1  0
 14 30  1  0
 19 31  1  0
 20 32  1  0
 21 33  1  0
M  ISO  8  23  14  24  14  25   9  26  14  27  14  28  14  29  14  30  14
M  ISO  3  31  14  32  14  33  14
M  END
>  <minimizedAffinity>  (1) 
-6.38144684

>  <minimizedRMSD>  (1) 
0.660917819

$$$$
