
     RDKit          3D

 34 37  0  0  0  0  0  0  0  0999 V2000
   45.1640   33.6350   45.5740 F   0  0  0  0  0  0  0  0  0  0  0  0
   45.9670   32.9310   44.7810 C   0  0  0  0  0  0  0  0  0  0  0  0
   45.9260   33.1440   43.4230 C   0  0  0  0  0  0  0  0  0  0  0  0
   46.7570   32.4220   42.5630 C   0  0  0  0  0  0  0  0  0  0  0  0
   47.6380   31.4800   43.0380 C   0  0  0  0  0  0  0  0  0  0  0  0
   47.6600   31.2880   44.3830 C   0  0  0  0  0  0  0  0  0  0  0  0
   46.8430   31.9930   45.2730 C   0  0  0  0  0  0  0  0  0  0  0  0
   46.9560   31.6990   46.6970 C   0  0  0  0  0  0  0  0  0  0  0  0
   46.5180   30.5890   47.3870 C   0  0  0  0  0  0  0  0  0  0  0  0
   46.8330   30.7190   48.7290 C   0  0  0  0  0  0  0  0  0  0  0  0
   47.4680   31.9420   48.7960 C   0  0  0  0  0  0  0  0  0  0  0  0
   47.5150   32.4660   47.5990 O   0  0  0  0  0  0  0  0  0  0  0  0
   43.3060   34.7770   41.7200 C   0  0  0  0  0  0  0  0  0  0  0  0
   44.1510   35.8420   41.9620 C   0  0  0  0  0  0  0  0  0  0  0  0
   45.2440   35.3980   42.6250 C   0  0  0  0  0  0  0  0  0  0  0  0
   45.0790   34.0720   42.7950 N   0  0  0  0  0  0  0  0  0  0  0  0
   43.9070   33.7020   42.2460 N   0  0  0  0  0  0  0  0  0  0  0  0
   40.0650   36.0190   40.5520 C   0  0  0  0  0  0  0  0  0  0  0  0
   39.6230   34.9680   39.7140 C   0  0  0  0  0  0  0  0  0  0  0  0
   40.4430   33.8520   39.5660 C   0  0  0  0  0  0  0  0  0  0  0  0
   41.6170   33.8500   40.2370 N   0  0  0  0  0  0  0  0  0  0  0  0
   42.0310   34.8520   41.0300 C   0  0  0  0  0  0  0  0  0  0  0  0
   41.2550   35.9410   41.1900 N   0  0  0  0  0  0  0  0  0  0  0  0
   46.7051   32.6117   41.4807 H   0  0  0  0  0  0  0  0  0  0  0  0
   48.2929   30.9098   42.3627 H   0  0  0  0  0  0  0  0  0  0  0  0
   48.3553   30.5405   44.7926 H   0  0  0  0  0  0  0  0  0  0  0  0
   45.9970   29.7299   46.9392 H   0  0  0  0  0  0  0  0  0  0  0  0
   46.6260   30.0142   49.5478 H   0  0  0  0  0  0  0  0  0  0  0  0
   47.8704   32.4026   49.7103 H   0  0  0  0  0  0  0  0  0  0  0  0
   43.9654   36.8844   41.6636 H   0  0  0  0  0  0  0  0  0  0  0  0
   46.1002   36.0021   42.9598 H   0  0  0  0  0  0  0  0  0  0  0  0
   39.4335   36.9097   40.6861 H   0  0  0  0  0  0  0  0  0  0  0  0
   38.6564   35.0308   39.1927 H   0  0  0  0  0  0  0  0  0  0  0  0
   40.1473   33.0057   38.9285 H   0  0  0  0  0  0  0  0  0  0  0  0
  2  7  2  0
  2  1  1  0
  3  2  1  0
  4  5  1  0
  4  3  2  0
  5  6  2  0
  6  7  1  0
  7  8  1  0
  8  9  2  0
  8 12  1  0
  9 10  1  0
 10 11  2  0
 12 11  1  0
 13 14  1  0
 13 17  2  0
 14 15  2  0
 15 16  1  0
 16  3  1  0
 17 16  1  0
 18 23  2  0
 19 18  1  0
 20 19  2  0
 20 21  1  0
 21 22  2  0
 22 23  1  0
 22 13  1  0
  4 24  1  0
  5 25  1  0
  6 26  1  0
  9 27  1  0
 10 28  1  0
 11 29  1  0
 14 30  1  0
 15 31  1  0
 18 32  1  0
 19 33  1  0
 20 34  1  0
M  ISO  8  24  14  25  14  26  14  27  14  28  14  29  14  30  14  31  14
M  ISO  3  32  14  33  14  34  14
M  END
>  <minimizedAffinity>  (1) 
-5.57792997

>  <minimizedRMSD>  (1) 
8.06879616

$$$$
