
     RDKit          3D

 32 33  0  0  0  0  0  0  0  0999 V2000
   43.5420   33.7350   41.6310 S   0  0  0  0  0  0  0  0  0  0  0  0
   41.1760   32.5410   40.8510 C   0  0  0  0  0  0  0  0  0  0  0  0
   42.2110   33.3660   40.4680 C   0  0  0  0  0  0  0  0  0  0  0  0
   42.2530   33.9290   39.1860 C   0  0  0  0  0  0  0  0  0  0  0  0
   41.2250   33.6150   38.3600 N   0  0  0  0  0  0  0  0  0  0  0  0
   40.2330   32.8120   38.7550 C   0  0  0  0  0  0  0  0  0  0  0  0
   40.1810   32.2710   39.9670 N   0  0  0  0  0  0  0  0  0  0  0  0
   39.1840   32.5490   37.7720 C   0  0  0  0  0  0  0  0  0  0  0  0
   38.3230   33.6050   37.4820 C   0  0  0  0  0  0  0  0  0  0  0  0
   37.4330   33.0920   36.5310 C   0  0  0  0  0  0  0  0  0  0  0  0
   37.8110   31.7670   36.3070 C   0  0  0  0  0  0  0  0  0  0  0  0
   38.8550   31.5010   37.0710 O   0  0  0  0  0  0  0  0  0  0  0  0
   43.5630   35.4930   41.9940 C   0  0  0  0  0  0  0  0  0  0  0  0
   43.3210   35.6300   43.4180 N   0  0  0  0  0  0  0  0  0  0  0  0
   44.7630   35.8420   44.3220 S   0  0  0  0  0  0  0  0  0  0  0  0
   45.9620   35.3640   43.5760 O   0  0  0  0  0  0  0  0  0  0  0  0
   44.8740   37.3290   44.5820 O   0  0  0  0  0  0  0  0  0  0  0  0
   44.6220   35.0950   45.8020 O   0  0  0  0  0  0  0  0  0  0  0  0
   45.4120   33.9520   45.8870 C   0  0  0  0  0  0  0  0  0  0  0  0
   41.1559   32.1061   41.8612 H   0  0  0  0  0  0  0  0  0  0  0  0
   43.0737   34.5886   38.8676 H   0  0  0  0  0  0  0  0  0  0  0  0
   38.3390   34.6194   37.9070 H   0  0  0  0  0  0  0  0  0  0  0  0
   36.5993   33.6279   36.0538 H   0  0  0  0  0  0  0  0  0  0  0  0
   37.3235   31.0656   35.6139 H   0  0  0  0  0  0  0  0  0  0  0  0
   44.5418   35.9218   41.7333 H   0  0  0  0  0  0  0  0  0  0  0  0
   42.7976   36.0256   41.4106 H   0  0  0  0  0  0  0  0  0  0  0  0
   42.7138   36.4478   43.5711 H   0  0  0  0  0  0  0  0  0  0  0  0
   46.6612   35.0852   44.2190 H   0  0  0  0  0  0  0  0  0  0  0  0
   44.8863   37.4933   45.5582 H   0  0  0  0  0  0  0  0  0  0  0  0
   45.5841   33.7030   46.9445 H   0  0  0  0  0  0  0  0  0  0  0  0
   44.8992   33.1142   45.3918 H   0  0  0  0  0  0  0  0  0  0  0  0
   46.3769   34.1355   45.3918 H   0  0  0  0  0  0  0  0  0  0  0  0
  1 13  1  0
  3  2  2  0
  3  1  1  0
  4  3  1  0
  5  6  1  0
  5  4  2  0
  6  7  2  0
  7  2  1  0
  8  6  1  0
  9  8  2  0
 10  9  1  0
 11 10  2  0
 11 12  1  0
 12  8  1  0
 13 14  1  0
 14 15  1  0
 15 17  1  0
 15 18  1  0
 16 15  1  0
 18 19  1  0
  2 20  1  0
  4 21  1  0
  9 22  1  0
 10 23  1  0
 11 24  1  0
 13 25  1  0
 13 26  1  0
 14 27  1  0
 16 28  1  0
 17 29  1  0
 19 30  1  0
 19 31  1  0
 19 32  1  0
M  ISO  8  20  14  21  14  22  14  23  14  24  14  25   8  26   8  27   5
M  ISO  5  28   3  29   3  30   8  31   8  32   8
M  END
>  <minimizedAffinity>  (1) 
-4.44890547

>  <minimizedRMSD>  (1) 
2.15083694

$$$$
