
     RDKit          3D

 27 29  0  0  0  0  0  0  0  0999 V2000
   44.6400   33.0490   41.1890 Br  0  0  0  0  0  0  0  0  0  0  0  0
   46.3090   33.9420   40.9240 C   0  0  0  0  0  0  0  0  0  0  0  0
   46.8380   34.7330   41.9190 C   0  0  0  0  0  0  0  0  0  0  0  0
   48.0530   35.3920   41.7450 C   0  0  0  0  0  0  0  0  0  0  0  0
   48.7090   35.2340   40.5590 C   0  0  0  0  0  0  0  0  0  0  0  0
   48.1560   34.4420   39.5900 C   0  0  0  0  0  0  0  0  0  0  0  0
   46.9830   33.7910   39.7290 C   0  0  0  0  0  0  0  0  0  0  0  0
   45.6140   34.0610   45.2990 C   0  0  0  0  0  0  0  0  0  0  0  0
   44.7120   35.1020   45.5450 C   0  0  0  0  0  0  0  0  0  0  0  0
   44.5320   36.0380   44.5270 C   0  0  0  0  0  0  0  0  0  0  0  0
   45.2320   35.8890   43.3750 N   0  0  0  0  0  0  0  0  0  0  0  0
   46.1010   34.8690   43.1650 C   0  0  0  0  0  0  0  0  0  0  0  0
   46.2860   33.9480   44.1460 N   0  0  0  0  0  0  0  0  0  0  0  0
   46.4090   32.9490   38.6840 C   0  0  0  0  0  0  0  0  0  0  0  0
   46.7220   31.6340   38.4230 C   0  0  0  0  0  0  0  0  0  0  0  0
   45.9360   31.2620   37.3570 C   0  0  0  0  0  0  0  0  0  0  0  0
   45.1690   32.3810   37.0120 C   0  0  0  0  0  0  0  0  0  0  0  0
   45.4910   33.3520   37.8320 O   0  0  0  0  0  0  0  0  0  0  0  0
   48.4724   36.0229   42.5425 H   0  0  0  0  0  0  0  0  0  0  0  0
   49.6712   35.7375   40.3840 H   0  0  0  0  0  0  0  0  0  0  0  0
   48.7006   34.3295   38.6409 H   0  0  0  0  0  0  0  0  0  0  0  0
   45.7774   33.3065   46.0826 H   0  0  0  0  0  0  0  0  0  0  0  0
   44.1692   35.1787   46.4987 H   0  0  0  0  0  0  0  0  0  0  0  0
   43.8362   36.8802   44.6558 H   0  0  0  0  0  0  0  0  0  0  0  0
   47.4518   31.0083   38.9578 H   0  0  0  0  0  0  0  0  0  0  0  0
   45.9144   30.2759   36.8699 H   0  0  0  0  0  0  0  0  0  0  0  0
   44.4295   32.4358   36.1995 H   0  0  0  0  0  0  0  0  0  0  0  0
  2  1  1  0
  2  3  2  0
  3 12  1  0
  4  3  1  0
  5  4  2  0
  6  7  2  0
  6  5  1  0
  7  2  1  0
  8  9  2  0
 10  9  1  0
 11 10  2  0
 12 11  1  0
 12 13  2  0
 13  8  1  0
 14  7  1  0
 15 14  2  0
 16 15  1  0
 17 16  2  0
 17 18  1  0
 18 14  1  0
  4 19  1  0
  5 20  1  0
  6 21  1  0
  8 22  1  0
  9 23  1  0
 10 24  1  0
 15 25  1  0
 16 26  1  0
 17 27  1  0
M  ISO  8  19  14  20  14  21  14  22  14  23  14  24  14  25  14  26  14
M  ISO  1  27  14
M  END
>  <minimizedAffinity>  (1) 
-5.3440814

>  <minimizedRMSD>  (1) 
0.57987988

$$$$
