
     RDKit          3D

 44 47  0  0  1  0  0  0  0  0999 V2000
   47.4720   33.0430   44.4040 C   0  0  2  0  0  0  0  0  0  0  0  0
   47.3570   33.3950   42.9660 C   0  0  1  0  0  0  0  0  0  0  0  0
   47.2620   32.1560   42.0730 C   0  0  0  0  0  0  0  0  0  0  0  0
   48.3810   31.3950   42.4230 O   0  0  0  0  0  0  0  0  0  0  0  0
   48.2340   30.8100   43.6600 C   0  0  0  0  0  0  0  0  0  0  0  0
   47.2870   31.5240   44.5710 C   0  0  1  0  0  0  0  0  0  0  0  0
   45.0280   36.2210   42.8090 C   0  0  0  0  0  0  0  0  0  0  0  0
   43.9850   35.7650   41.9510 C   0  0  0  0  0  0  0  0  0  0  0  0
   44.1410   34.4470   41.4460 C   0  0  0  0  0  0  0  0  0  0  0  0
   45.2290   33.7260   41.7940 N   0  0  0  0  0  0  0  0  0  0  0  0
   46.1830   34.2180   42.6120 C   0  0  0  0  0  0  0  0  0  0  0  0
   46.0800   35.4660   43.1180 N   0  0  0  0  0  0  0  0  0  0  0  0
   44.8830   37.4760   43.2940 O   0  0  0  0  0  0  0  0  0  0  0  0
   46.5270   33.6810   45.2190 O   0  0  0  0  0  0  0  0  0  0  0  0
   47.4810   31.2420   45.9030 O   0  0  0  0  0  0  0  0  0  0  0  0
   46.3190   28.8090   45.8530 F   0  0  0  0  0  0  0  0  0  0  0  0
   46.1660   29.7160   46.8360 C   0  0  0  0  0  0  0  0  0  0  0  0
   46.7210   30.9730   46.9480 C   0  0  0  0  0  0  0  0  0  0  0  0
   46.3860   31.6760   48.0910 C   0  0  0  0  0  0  0  0  0  0  0  0
   45.5690   31.2420   49.1020 C   0  0  0  0  0  0  0  0  0  0  0  0
   45.0460   29.9970   48.9460 C   0  0  0  0  0  0  0  0  0  0  0  0
   45.3160   29.1940   47.8270 C   0  0  0  0  0  0  0  0  0  0  0  0
   44.6780   27.8810   47.8060 C   0  0  0  0  0  0  0  0  0  0  0  0
   43.9520   27.2670   46.8080 C   0  0  0  0  0  0  0  0  0  0  0  0
   43.5200   26.0270   47.1830 C   0  0  0  0  0  0  0  0  0  0  0  0
   44.0320   25.9430   48.4560 C   0  0  0  0  0  0  0  0  0  0  0  0
   44.6860   27.0270   48.7680 O   0  0  0  0  0  0  0  0  0  0  0  0
   48.4695   33.3800   44.7225 H   0  0  0  0  0  0  0  0  0  0  0  0
   48.2773   33.9727   42.7947 H   0  0  0  0  0  0  0  0  0  0  0  0
   47.2983   32.4373   41.0102 H   0  0  0  0  0  0  0  0  0  0  0  0
   46.3188   31.6074   42.2122 H   0  0  0  0  0  0  0  0  0  0  0  0
   47.8640   29.7844   43.5141 H   0  0  0  0  0  0  0  0  0  0  0  0
   49.2215   30.8442   44.1434 H   0  0  0  0  0  0  0  0  0  0  0  0
   46.2805   31.1816   44.2887 H   0  0  0  0  0  0  0  0  0  0  0  0
   43.1176   36.3920   41.6971 H   0  0  0  0  0  0  0  0  0  0  0  0
   43.3817   34.0165   40.7766 H   0  0  0  0  0  0  0  0  0  0  0  0
   44.0895   38.0138   43.0464 H   0  0  0  0  0  0  0  0  0  0  0  0
   46.7543   33.5275   46.1702 H   0  0  0  0  0  0  0  0  0  0  0  0
   46.8176   32.6820   48.1991 H   0  0  0  0  0  0  0  0  0  0  0  0
   45.3502   31.8619   49.9840 H   0  0  0  0  0  0  0  0  0  0  0  0
   44.3831   29.6022   49.7300 H   0  0  0  0  0  0  0  0  0  0  0  0
   43.7455   27.7211   45.8276 H   0  0  0  0  0  0  0  0  0  0  0  0
   42.9240   25.2942   46.6193 H   0  0  0  0  0  0  0  0  0  0  0  0
   43.9067   25.0769   49.1225 H   0  0  0  0  0  0  0  0  0  0  0  0
  1  6  1  0
  1 14  1  0
  2  1  1  0
  3  4  1  0
  3  2  1  0
  4  5  1  0
  5  6  1  0
  6 15  1  0
  7 12  2  0
  7 13  1  0
  8  7  1  0
  9 10  1  0
  9  8  2  0
 10 11  2  0
 11  2  1  0
 11 12  1  0
 15 18  1  0
 16 17  1  0
 17 18  2  0
 17 22  1  0
 18 19  1  0
 19 20  2  0
 21 20  1  0
 22 21  2  0
 23 22  1  0
 23 27  1  0
 24 25  1  0
 24 23  2  0
 25 26  2  0
 26 27  1  0
  1 28  1  1
  2 29  1  6
  3 30  1  0
  3 31  1  0
  5 32  1  0
  5 33  1  0
  6 34  1  6
  8 35  1  0
  9 36  1  0
 13 37  1  0
 14 38  1  0
 19 39  1  0
 20 40  1  0
 21 41  1  0
 24 42  1  0
 25 43  1  0
 26 44  1  0
M  ISO  8  28  13  29  13  30  13  31  13  32  13  33  13  34  13  35  14
M  ISO  8  36  14  37   3  38   3  39  14  40  14  41  14  42  14  43  14
M  ISO  1  44  14
M  END
>  <minimizedAffinity>  (1) 
-5.84187937

>  <minimizedRMSD>  (1) 
0.677256048

$$$$
