
     RDKit          3D

 20 21  0  0  0  0  0  0  0  0999 V2000
   47.4110   34.8270   41.9730 C   0  0  0  0  0  0  0  0  0  0  0  0
   47.5880   34.2660   43.2630 C   0  0  0  0  0  0  0  0  0  0  0  0
   46.4190   33.8750   43.9570 C   0  0  0  0  0  0  0  0  0  0  0  0
   45.2180   34.0570   43.3590 N   0  0  0  0  0  0  0  0  0  0  0  0
   45.0910   34.5940   42.1320 C   0  0  0  0  0  0  0  0  0  0  0  0
   46.1840   34.9790   41.4390 N   0  0  0  0  0  0  0  0  0  0  0  0
   43.8070   34.8000   41.4670 C   0  0  0  0  0  0  0  0  0  0  0  0
   43.4370   34.4980   40.1630 C   0  0  0  0  0  0  0  0  0  0  0  0
   42.1040   34.9130   40.0940 C   0  0  0  0  0  0  0  0  0  0  0  0
   41.7500   35.4330   41.3410 C   0  0  0  0  0  0  0  0  0  0  0  0
   42.8020   35.3480   42.1400 O   0  0  0  0  0  0  0  0  0  0  0  0
   48.6660   35.2320   41.2600 C   0  0  0  0  0  0  0  0  0  0  0  0
   48.4770   35.2840   39.8980 F   0  0  0  0  0  0  0  0  0  0  0  0
   49.0510   36.4700   41.7750 F   0  0  0  0  0  0  0  0  0  0  0  0
   49.6930   34.3470   41.5880 F   0  0  0  0  0  0  0  0  0  0  0  0
   48.5880   34.1406   43.7038 H   0  0  0  0  0  0  0  0  0  0  0  0
   46.4844   33.4322   44.9618 H   0  0  0  0  0  0  0  0  0  0  0  0
   44.0485   34.0403   39.3714 H   0  0  0  0  0  0  0  0  0  0  0  0
   41.4492   34.8425   39.2129 H   0  0  0  0  0  0  0  0  0  0  0  0
   40.7660   35.8428   41.6125 H   0  0  0  0  0  0  0  0  0  0  0  0
  1  2  2  0
  2  3  1  0
  4  3  2  0
  5  4  1  0
  6  1  1  0
  6  5  2  0
  7  5  1  0
  7 11  1  0
  8  7  2  0
  9  8  1  0
  9 10  2  0
 10 11  1  0
 12 15  1  0
 12 14  1  0
 12  1  1  0
 13 12  1  0
  2 16  1  0
  3 17  1  0
  8 18  1  0
  9 19  1  0
 10 20  1  0
M  ISO  5  16  14  17  14  18  14  19  14  20  14
M  END
>  <minimizedAffinity>  (1) 
-4.83197546

>  <minimizedRMSD>  (1) 
1.66139817

$$$$
