
     RDKit          3D

 44 47  0  0  0  0  0  0  0  0999 V2000
   44.7040   36.2050   44.1530 C   0  0  0  0  0  0  0  0  0  0  0  0
   45.2390   35.7820   42.9160 C   0  0  0  0  0  0  0  0  0  0  0  0
   45.8890   34.5470   42.8450 C   0  0  0  0  0  0  0  0  0  0  0  0
   45.9900   33.7820   43.9750 N   0  0  0  0  0  0  0  0  0  0  0  0
   45.4590   34.2310   45.1400 C   0  0  0  0  0  0  0  0  0  0  0  0
   44.8240   35.4290   45.2230 N   0  0  0  0  0  0  0  0  0  0  0  0
   47.7350   34.4200   41.2360 C   0  0  0  0  0  0  0  0  0  0  0  0
   46.4140   34.2220   41.5360 C   0  0  0  0  0  0  0  0  0  0  0  0
   45.6680   33.7100   40.5270 C   0  0  0  0  0  0  0  0  0  0  0  0
   46.1260   33.3870   39.2730 C   0  0  0  0  0  0  0  0  0  0  0  0
   47.4790   33.5890   38.9760 C   0  0  0  0  0  0  0  0  0  0  0  0
   48.2590   34.1090   39.9810 C   0  0  0  0  0  0  0  0  0  0  0  0
   49.4700   34.7460   43.1220 N   0  0  0  0  0  0  0  0  0  0  0  0
   48.7380   35.0040   42.0770 C   0  0  0  0  0  0  0  0  0  0  0  0
   49.2690   36.2920   41.8050 N   0  0  0  0  0  0  0  0  0  0  0  0
   49.3870   33.8480   43.6500 H   0  0  0  0  0  0  0  0  0  0  0  0
   45.5990   33.3270   46.3030 C   0  0  0  0  0  0  0  0  0  0  0  0
   46.4790   31.8530   45.7620 S   0  0  0  0  0  0  0  0  0  0  0  0
   47.5010   31.2150   47.0730 C   0  0  0  0  0  0  0  0  0  0  0  0
   47.7560   32.0430   48.1370 C   0  0  0  0  0  0  0  0  0  0  0  0
   48.5280   31.5570   49.1680 C   0  0  0  0  0  0  0  0  0  0  0  0
   49.0500   30.2660   49.1600 C   0  0  0  0  0  0  0  0  0  0  0  0
   49.8000   29.8300   50.1910 N   0  0  0  0  0  0  0  0  0  0  0  0
   50.3090   28.5750   50.1860 C   0  0  0  0  0  0  0  0  0  0  0  0
   50.0560   27.7570   49.1260 C   0  0  0  0  0  0  0  0  0  0  0  0
   49.2840   28.2040   48.0650 C   0  0  0  0  0  0  0  0  0  0  0  0
   48.7510   29.4980   48.0590 C   0  0  0  0  0  0  0  0  0  0  0  0
   47.9810   29.9320   46.9950 C   0  0  0  0  0  0  0  0  0  0  0  0
   44.1896   37.1743   44.2292 H   0  0  0  0  0  0  0  0  0  0  0  0
   45.1453   36.4155   42.0216 H   0  0  0  0  0  0  0  0  0  0  0  0
   44.6008   33.5378   40.7304 H   0  0  0  0  0  0  0  0  0  0  0  0
   45.4418   32.9769   38.5156 H   0  0  0  0  0  0  0  0  0  0  0  0
   47.8967   33.3440   37.9883 H   0  0  0  0  0  0  0  0  0  0  0  0
   49.3279   34.2852   39.7902 H   0  0  0  0  0  0  0  0  0  0  0  0
   49.9893   36.6930   42.4225 H   0  0  0  0  0  0  0  0  0  0  0  0
   48.9340   36.8256   40.9902 H   0  0  0  0  0  0  0  0  0  0  0  0
   46.1674   33.8294   47.0996 H   0  0  0  0  0  0  0  0  0  0  0  0
   44.6083   33.0565   46.6971 H   0  0  0  0  0  0  0  0  0  0  0  0
   47.3547   33.0668   48.1654 H   0  0  0  0  0  0  0  0  0  0  0  0
   48.7397   32.2105   50.0271 H   0  0  0  0  0  0  0  0  0  0  0  0
   50.9202   28.2198   51.0287 H   0  0  0  0  0  0  0  0  0  0  0  0
   50.4665   26.7366   49.1122 H   0  0  0  0  0  0  0  0  0  0  0  0
   49.0876   27.5325   47.2162 H   0  0  0  0  0  0  0  0  0  0  0  0
   47.7652   29.2836   46.1330 H   0  0  0  0  0  0  0  0  0  0  0  0
  1  6  2  0
  2  1  1  0
  3  2  2  0
  3  4  1  0
  4  5  2  0
  5  6  1  0
  5 17  1  0
  7  8  2  0
  7 14  1  0
  8  3  1  0
  9  8  1  0
 10  9  2  0
 11 10  1  0
 11 12  2  0
 12  7  1  0
 13 16  1  0
 14 13  2  0
 15 14  1  0
 18 17  1  0
 18 19  1  0
 19 20  2  0
 20 21  1  0
 22 21  2  0
 22 23  1  0
 24 23  2  0
 25 24  1  0
 26 25  2  0
 27 26  1  0
 27 22  1  0
 28 19  1  0
 28 27  2  0
  1 29  1  0
  2 30  1  0
  9 31  1  0
 10 32  1  0
 11 33  1  0
 12 34  1  0
 15 35  1  0
 15 36  1  0
 17 37  1  0
 17 38  1  0
 20 39  1  0
 21 40  1  0
 24 41  1  0
 25 42  1  0
 26 43  1  0
 28 44  1  0
M  ISO  8  29  14  30  14  31  14  32  14  33  14  34  14  37   8  38   8
M  ISO  6  39  14  40  14  41  14  42  14  43  14  44  14
M  END
>  <minimizedAffinity>  (1) 
-6.87546206

>  <minimizedRMSD>  (1) 
0.86945039

$$$$
