
     RDKit          3D

 49 52  0  0  0  0  0  0  0  0999 V2000
   45.3160   33.7740   45.6250 C   0  0  0  0  0  0  0  0  0  0  0  0
   44.8110   35.0070   45.9210 C   0  0  0  0  0  0  0  0  0  0  0  0
   44.4160   35.9230   44.9710 C   0  0  0  0  0  0  0  0  0  0  0  0
   44.5600   35.5250   43.6810 N   0  0  0  0  0  0  0  0  0  0  0  0
   45.0550   34.3170   43.3850 C   0  0  0  0  0  0  0  0  0  0  0  0
   45.4330   33.4400   44.3230 N   0  0  0  0  0  0  0  0  0  0  0  0
   45.1980   33.9110   41.9690 C   0  0  0  0  0  0  0  0  0  0  0  0
   44.1620   33.2920   41.3280 C   0  0  0  0  0  0  0  0  0  0  0  0
   44.1840   32.8730   40.0140 C   0  0  0  0  0  0  0  0  0  0  0  0
   45.3670   33.1120   39.3120 C   0  0  0  0  0  0  0  0  0  0  0  0
   46.4070   33.7290   39.9400 C   0  0  0  0  0  0  0  0  0  0  0  0
   46.3570   34.1360   41.2550 C   0  0  0  0  0  0  0  0  0  0  0  0
   47.3920   34.7630   41.9210 O   0  0  0  0  0  0  0  0  0  0  0  0
   49.8410   35.3940   42.5680 O   0  0  0  0  0  0  0  0  0  0  0  0
   49.0070   34.8220   41.4300 P   0  0  0  0  0  0  0  0  0  0  0  0
   49.6300   33.3440   40.9270 O   0  0  0  0  0  0  0  0  0  0  0  0
   49.1370   35.9060   40.1340 O   0  0  0  0  0  0  0  0  0  0  0  0
   45.4630   32.0270   48.8330 C   0  0  0  0  0  0  0  0  0  0  0  0
   46.4870   31.0910   48.5970 C   0  0  0  0  0  0  0  0  0  0  0  0
   47.1130   31.0590   47.3690 C   0  0  0  0  0  0  0  0  0  0  0  0
   46.6960   31.9600   46.4240 N   0  0  0  0  0  0  0  0  0  0  0  0
   45.7160   32.8470   46.6660 C   0  0  0  0  0  0  0  0  0  0  0  0
   45.1150   32.8720   47.8540 N   0  0  0  0  0  0  0  0  0  0  0  0
   49.2820   29.9570   47.9270 C   0  0  0  0  0  0  0  0  0  0  0  0
   48.1630   30.0860   47.1440 C   0  0  0  0  0  0  0  0  0  0  0  0
   48.1180   29.1920   46.1050 C   0  0  0  0  0  0  0  0  0  0  0  0
   49.1040   28.2590   45.8770 C   0  0  0  0  0  0  0  0  0  0  0  0
   50.2090   28.1590   46.6810 C   0  0  0  0  0  0  0  0  0  0  0  0
   50.2940   29.0390   47.7370 C   0  0  0  0  0  0  0  0  0  0  0  0
   49.8310   31.9380   49.5910 N   0  0  0  0  0  0  0  0  0  0  0  0
   49.5010   30.8280   49.0500 C   0  0  0  0  0  0  0  0  0  0  0  0
   49.2570   30.3580   50.3880 N   0  0  0  0  0  0  0  0  0  0  0  0
   49.7960   32.0390   50.6210 H   0  0  0  0  0  0  0  0  0  0  0  0
   44.7137   35.2857   46.9807 H   0  0  0  0  0  0  0  0  0  0  0  0
   44.0113   36.9100   45.2394 H   0  0  0  0  0  0  0  0  0  0  0  0
   43.2413   33.1145   41.9031 H   0  0  0  0  0  0  0  0  0  0  0  0
   43.3195   32.3791   39.5462 H   0  0  0  0  0  0  0  0  0  0  0  0
   45.4588   32.8045   38.2598 H   0  0  0  0  0  0  0  0  0  0  0  0
   47.3301   33.9106   39.3699 H   0  0  0  0  0  0  0  0  0  0  0  0
   49.8608   32.7965   41.7189 H   0  0  0  0  0  0  0  0  0  0  0  0
   49.2473   36.8259   40.4830 H   0  0  0  0  0  0  0  0  0  0  0  0
   44.9554   32.0641   49.8082 H   0  0  0  0  0  0  0  0  0  0  0  0
   46.7865   30.3883   49.3885 H   0  0  0  0  0  0  0  0  0  0  0  0
   47.2553   29.2219   45.4233 H   0  0  0  0  0  0  0  0  0  0  0  0
   49.0017   27.5728   45.0234 H   0  0  0  0  0  0  0  0  0  0  0  0
   50.9923   27.4102   46.4917 H   0  0  0  0  0  0  0  0  0  0  0  0
   51.1565   29.0103   48.4191 H   0  0  0  0  0  0  0  0  0  0  0  0
   49.4147   30.9841   51.1905 H   0  0  0  0  0  0  0  0  0  0  0  0
   48.9246   29.3955   50.5432 H   0  0  0  0  0  0  0  0  0  0  0  0
  1  2  2  0
  1 22  1  0
  3  2  1  0
  4  3  2  0
  5  4  1  0
  5  6  2  0
  6  1  1  0
  7  5  1  0
  8  7  2  0
  9  8  1  0
 10 11  1  0
 10  9  2  0
 11 12  2  0
 12 13  1  0
 12  7  1  0
 15 13  1  0
 15 14  2  0
 16 15  1  0
 17 15  1  0
 19 18  2  0
 20 19  1  0
 21 22  1  0
 21 20  2  0
 22 23  2  0
 23 18  1  0
 24 31  1  0
 25 20  1  0
 25 24  2  0
 26 25  1  0
 27 26  2  0
 27 28  1  0
 28 29  2  0
 29 24  1  0
 30 33  1  0
 31 30  2  0
 31 32  1  0
  2 34  1  0
  3 35  1  0
  8 36  1  0
  9 37  1  0
 10 38  1  0
 11 39  1  0
 16 40  1  0
 17 41  1  0
 18 42  1  0
 19 43  1  0
 26 44  1  0
 27 45  1  0
 28 46  1  0
 29 47  1  0
 32 48  1  0
 32 49  1  0
M  ISO  8  34  14  35  14  36  14  37  14  38  14  39  14  40   3  41   3
M  ISO  6  42  14  43  14  44  14  45  14  46  14  47  14
M  END
>  <minimizedAffinity>  (1) 
-7.00156212

>  <minimizedRMSD>  (1) 
0.684902906

$$$$
