
     RDKit          3D

 55 59  0  0  0  0  0  0  0  0999 V2000
   45.6830   33.7780   45.2730 C   0  0  0  0  0  0  0  0  0  0  0  0
   44.9060   34.7980   45.6550 N   0  0  0  0  0  0  0  0  0  0  0  0
   44.5980   35.8490   44.9070 C   0  0  0  0  0  0  0  0  0  0  0  0
   45.0820   35.9440   43.6500 N   0  0  0  0  0  0  0  0  0  0  0  0
   45.8780   34.9910   43.1350 C   0  0  0  0  0  0  0  0  0  0  0  0
   46.3900   35.0710   41.8560 C   0  0  0  0  0  0  0  0  0  0  0  0
   47.2010   34.1120   41.3400 C   0  0  0  0  0  0  0  0  0  0  0  0
   47.4990   33.0420   42.1430 C   0  0  0  0  0  0  0  0  0  0  0  0
   46.9640   32.9900   43.4330 C   0  0  0  0  0  0  0  0  0  0  0  0
   46.1560   33.9250   43.9740 C   0  0  0  0  0  0  0  0  0  0  0  0
   47.5130   31.9930   47.8300 C   0  0  0  0  0  0  0  0  0  0  0  0
   46.9700   30.7040   47.8790 C   0  0  0  0  0  0  0  0  0  0  0  0
   45.9350   30.4420   47.0230 C   0  0  0  0  0  0  0  0  0  0  0  0
   45.4950   31.3920   46.1940 N   0  0  0  0  0  0  0  0  0  0  0  0
   46.0030   32.6160   46.1350 C   0  0  0  0  0  0  0  0  0  0  0  0
   47.0160   32.8930   46.9710 N   0  0  0  0  0  0  0  0  0  0  0  0
   45.3340   29.2040   47.0350 N   0  0  0  0  0  0  0  0  0  0  0  0
   44.1010   28.8590   46.2770 C   0  0  0  0  0  0  0  0  0  0  0  0
   43.9870   27.3600   46.3410 C   0  0  0  0  0  0  0  0  0  0  0  0
   44.6600   27.0340   47.6350 C   0  0  0  0  0  0  0  0  0  0  0  0
   45.7510   28.0410   47.7620 C   0  0  0  0  0  0  0  0  0  0  0  0
   47.5460   29.7990   48.7220 N   0  0  0  0  0  0  0  0  0  0  0  0
   49.7690   32.0350   41.6130 C   0  0  0  0  0  0  0  0  0  0  0  0
   48.3760   32.0240   41.5640 C   0  0  0  0  0  0  0  0  0  0  0  0
   47.6860   30.9960   40.9340 C   0  0  0  0  0  0  0  0  0  0  0  0
   48.3920   29.9550   40.3360 C   0  0  0  0  0  0  0  0  0  0  0  0
   49.7730   29.9630   40.3820 C   0  0  0  0  0  0  0  0  0  0  0  0
   50.4420   30.9900   41.0120 C   0  0  0  0  0  0  0  0  0  0  0  0
   49.7310   33.7920   43.2010 N   0  0  0  0  0  0  0  0  0  0  0  0
   50.3900   33.1620   42.3010 C   0  0  0  0  0  0  0  0  0  0  0  0
   51.7250   33.3950   41.8260 N   0  0  0  0  0  0  0  0  0  0  0  0
   50.1420   34.6030   43.7140 H   0  0  0  0  0  0  0  0  0  0  0  0
   47.3780   31.7920   44.0980 N   0  0  0  0  0  0  0  0  0  0  0  0
   43.9499   36.6414   45.3096 H   0  0  0  0  0  0  0  0  0  0  0  0
   46.1325   35.9408   41.2337 H   0  0  0  0  0  0  0  0  0  0  0  0
   47.6026   34.1907   40.3189 H   0  0  0  0  0  0  0  0  0  0  0  0
   48.3455   32.2664   48.4949 H   0  0  0  0  0  0  0  0  0  0  0  0
   44.1876   29.1924   45.2323 H   0  0  0  0  0  0  0  0  0  0  0  0
   43.2135   29.3512   46.7014 H   0  0  0  0  0  0  0  0  0  0  0  0
   42.9339   27.0424   46.3506 H   0  0  0  0  0  0  0  0  0  0  0  0
   44.4357   26.8509   45.4753 H   0  0  0  0  0  0  0  0  0  0  0  0
   43.9523   27.1219   48.4726 H   0  0  0  0  0  0  0  0  0  0  0  0
   45.0427   26.0029   47.6553 H   0  0  0  0  0  0  0  0  0  0  0  0
   46.6838   27.6433   47.3357 H   0  0  0  0  0  0  0  0  0  0  0  0
   45.9396   28.2846   48.8180 H   0  0  0  0  0  0  0  0  0  0  0  0
   47.1718   28.8413   48.7831 H   0  0  0  0  0  0  0  0  0  0  0  0
   48.3551   30.0735   49.2973 H   0  0  0  0  0  0  0  0  0  0  0  0
   46.5863   31.0041   40.9076 H   0  0  0  0  0  0  0  0  0  0  0  0
   47.8566   29.1362   39.8331 H   0  0  0  0  0  0  0  0  0  0  0  0
   50.3411   29.1458   39.9135 H   0  0  0  0  0  0  0  0  0  0  0  0
   51.5416   30.9768   41.0367 H   0  0  0  0  0  0  0  0  0  0  0  0
   52.2864   34.1618   42.2231 H   0  0  0  0  0  0  0  0  0  0  0  0
   52.1211   32.7953   41.0882 H   0  0  0  0  0  0  0  0  0  0  0  0
   47.0664   31.6038   45.0615 H   0  0  0  0  0  0  0  0  0  0  0  0
   47.9876   31.1181   43.6130 H   0  0  0  0  0  0  0  0  0  0  0  0
  1  2  2  0
  1 15  1  0
  3  2  1  0
  4  3  2  0
  5  4  1  0
  5 10  2  0
  6  5  1  0
  7  6  2  0
  7  8  1  0
  8  9  2  0
  9 10  1  0
  9 33  1  0
 10  1  1  0
 11 12  2  0
 12 22  1  0
 13 17  1  0
 13 12  1  0
 14 13  2  0
 15 14  1  0
 15 16  2  0
 16 11  1  0
 17 21  1  0
 18 19  1  0
 18 17  1  0
 19 20  1  0
 20 21  1  0
 23 30  1  0
 24 23  2  0
 24  8  1  0
 25 24  1  0
 26 27  1  0
 26 25  2  0
 27 28  2  0
 28 23  1  0
 29 32  1  0
 30 29  2  0
 31 30  1  0
  3 34  1  0
  6 35  1  0
  7 36  1  0
 11 37  1  0
 18 38  1  0
 18 39  1  0
 19 40  1  0
 19 41  1  0
 20 42  1  0
 20 43  1  0
 21 44  1  0
 21 45  1  0
 22 46  1  0
 22 47  1  0
 25 48  1  0
 26 49  1  0
 27 50  1  0
 28 51  1  0
 31 52  1  0
 31 53  1  0
 33 54  1  0
 33 55  1  0
M  END
>  <minimizedAffinity>  (1) 
-7.26668072

>  <minimizedRMSD>  (1) 
0.467143923

$$$$
