
     RDKit          3D

 26 27  0  0  0  0  0  0  0  0999 V2000
   46.3110   34.0300   41.0590 C   0  0  0  0  0  0  0  0  0  0  0  0
   46.7200   34.6610   42.1890 C   0  0  0  0  0  0  0  0  0  0  0  0
   47.9420   35.3460   42.1840 C   0  0  0  0  0  0  0  0  0  0  0  0
   48.6650   35.3360   41.0000 C   0  0  0  0  0  0  0  0  0  0  0  0
   48.2060   34.6760   39.8580 C   0  0  0  0  0  0  0  0  0  0  0  0
   47.0050   34.0030   39.8720 C   0  0  0  0  0  0  0  0  0  0  0  0
   44.4730   35.7240   45.0250 C   0  0  0  0  0  0  0  0  0  0  0  0
   45.0570   35.7680   43.7560 C   0  0  0  0  0  0  0  0  0  0  0  0
   46.0080   34.7630   43.4560 C   0  0  0  0  0  0  0  0  0  0  0  0
   46.2960   33.8220   44.4110 N   0  0  0  0  0  0  0  0  0  0  0  0
   45.7000   33.8290   45.6180 C   0  0  0  0  0  0  0  0  0  0  0  0
   44.8000   34.7740   45.9120 N   0  0  0  0  0  0  0  0  0  0  0  0
   44.7810   36.7140   42.7820 O   0  0  0  0  0  0  0  0  0  0  0  0
   45.1410   31.9860   41.1730 N   0  0  0  0  0  0  0  0  0  0  0  0
   45.0610   33.3020   41.1120 C   0  0  0  0  0  0  0  0  0  0  0  0
   43.6530   33.3910   41.1280 N   0  0  0  0  0  0  0  0  0  0  0  0
   46.0250   31.4590   41.1860 H   0  0  0  0  0  0  0  0  0  0  0  0
   48.3117   35.8684   43.0787 H   0  0  0  0  0  0  0  0  0  0  0  0
   49.6291   35.8640   40.9595 H   0  0  0  0  0  0  0  0  0  0  0  0
   48.8097   34.6940   38.9387 H   0  0  0  0  0  0  0  0  0  0  0  0
   46.6230   33.4748   38.9859 H   0  0  0  0  0  0  0  0  0  0  0  0
   43.7290   36.4855   45.3017 H   0  0  0  0  0  0  0  0  0  0  0  0
   45.9527   33.0587   46.3615 H   0  0  0  0  0  0  0  0  0  0  0  0
   45.2414   36.6720   41.9066 H   0  0  0  0  0  0  0  0  0  0  0  0
   43.0833   32.5343   41.1774 H   0  0  0  0  0  0  0  0  0  0  0  0
   43.1948   34.3127   41.0903 H   0  0  0  0  0  0  0  0  0  0  0  0
  1 15  1  0
  1  2  2  0
  2  9  1  0
  3  2  1  0
  4  3  2  0
  5  6  2  0
  5  4  1  0
  6  1  1  0
  7 12  2  0
  8  7  1  0
  9  8  2  0
  9 10  1  0
 10 11  2  0
 11 12  1  0
 13  8  1  0
 14 17  1  0
 15 16  1  0
 15 14  2  0
  3 18  1  0
  4 19  1  0
  5 20  1  0
  6 21  1  0
  7 22  1  0
 11 23  1  0
 13 24  1  0
 16 25  1  0
 16 26  1  0
M  ISO  7  18  14  19  14  20  14  21  14  22  14  23  14  24   3
M  END
>  <minimizedAffinity>  (1) 
-5.38803768

>  <minimizedRMSD>  (1) 
1.41694438

$$$$
