
     RDKit          3D

 48 52  0  0  0  0  0  0  0  0999 V2000
   46.0930   34.9360   42.5000 O   0  0  0  0  0  0  0  0  0  0  0  0
   43.7380   35.1760   42.1840 C   0  0  0  0  0  0  0  0  0  0  0  0
   42.6330   34.9960   41.3910 C   0  0  0  0  0  0  0  0  0  0  0  0
   42.8100   34.4040   40.1530 C   0  0  0  0  0  0  0  0  0  0  0  0
   44.0360   33.9800   39.6610 C   0  0  0  0  0  0  0  0  0  0  0  0
   45.1410   34.1740   40.4840 C   0  0  0  0  0  0  0  0  0  0  0  0
   44.9740   34.7600   41.7140 C   0  0  0  0  0  0  0  0  0  0  0  0
   41.2810   35.4110   41.8160 C   0  0  0  0  0  0  0  0  0  0  0  0
   38.9810   32.5610   41.2560 C   0  0  0  0  0  0  0  0  0  0  0  0
   38.2450   32.9970   40.1610 C   0  0  0  0  0  0  0  0  0  0  0  0
   38.5450   34.2340   39.6470 C   0  0  0  0  0  0  0  0  0  0  0  0
   39.5210   34.9770   40.2020 N   0  0  0  0  0  0  0  0  0  0  0  0
   40.2240   34.5310   41.2650 C   0  0  0  0  0  0  0  0  0  0  0  0
   39.9420   33.3320   41.7740 N   0  0  0  0  0  0  0  0  0  0  0  0
   43.6130   35.7620   43.4260 O   0  0  0  0  0  0  0  0  0  0  0  0
   46.9400   33.8570   42.6760 C   0  0  0  0  0  0  0  0  0  0  0  0
   46.6380   33.0080   43.7370 C   0  0  0  0  0  0  0  0  0  0  0  0
   47.4420   31.9160   43.9650 C   0  0  0  0  0  0  0  0  0  0  0  0
   48.5400   31.6540   43.1580 C   0  0  0  0  0  0  0  0  0  0  0  0
   48.8100   32.5380   42.0960 C   0  0  0  0  0  0  0  0  0  0  0  0
   48.0150   33.6260   41.8630 C   0  0  0  0  0  0  0  0  0  0  0  0
   49.9520   32.2060   41.3110 N   0  0  0  0  0  0  0  0  0  0  0  0
   51.2030   32.1480   41.8580 C   0  0  0  0  0  0  0  0  0  0  0  0
   52.1190   31.8180   40.9290 N   0  0  0  0  0  0  0  0  0  0  0  0
   51.4710   31.6570   39.7710 C   0  0  0  0  0  0  0  0  0  0  0  0
   51.9050   31.3210   38.5030 C   0  0  0  0  0  0  0  0  0  0  0  0
   50.9360   31.2520   37.5560 N   0  0  0  0  0  0  0  0  0  0  0  0
   49.6390   31.4910   37.8160 C   0  0  0  0  0  0  0  0  0  0  0  0
   49.1900   31.8250   39.0570 N   0  0  0  0  0  0  0  0  0  0  0  0
   50.1340   31.8990   40.0140 C   0  0  0  0  0  0  0  0  0  0  0  0
   48.3100   34.4880   40.7970 N   0  0  0  0  0  0  0  0  0  0  0  0
   41.9227   34.2605   39.5189 H   0  0  0  0  0  0  0  0  0  0  0  0
   44.1298   33.5135   38.6692 H   0  0  0  0  0  0  0  0  0  0  0  0
   46.1414   33.8600   40.1513 H   0  0  0  0  0  0  0  0  0  0  0  0
   41.2303   35.3799   42.9144 H   0  0  0  0  0  0  0  0  0  0  0  0
   41.1054   36.4277   41.4346 H   0  0  0  0  0  0  0  0  0  0  0  0
   38.7716   31.5761   41.6988 H   0  0  0  0  0  0  0  0  0  0  0  0
   37.4515   32.3741   39.7224 H   0  0  0  0  0  0  0  0  0  0  0  0
   37.9872   34.6187   38.7805 H   0  0  0  0  0  0  0  0  0  0  0  0
   44.4125   35.8903   43.9955 H   0  0  0  0  0  0  0  0  0  0  0  0
   45.7701   33.2075   44.3827 H   0  0  0  0  0  0  0  0  0  0  0  0
   47.2110   31.2391   44.8007 H   0  0  0  0  0  0  0  0  0  0  0  0
   49.1817   30.7799   43.3429 H   0  0  0  0  0  0  0  0  0  0  0  0
   51.4307   32.3447   42.9160 H   0  0  0  0  0  0  0  0  0  0  0  0
   52.9632   31.1231   38.2770 H   0  0  0  0  0  0  0  0  0  0  0  0
   48.9121   31.4137   36.9940 H   0  0  0  0  0  0  0  0  0  0  0  0
   47.7137   35.3086   40.6181 H   0  0  0  0  0  0  0  0  0  0  0  0
   49.1229   34.3006   40.1929 H   0  0  0  0  0  0  0  0  0  0  0  0
  1 16  1  0
  2 15  1  0
  3  8  1  0
  3  2  2  0
  4  3  1  0
  5  4  2  0
  5  6  1  0
  6  7  2  0
  7  2  1  0
  7  1  1  0
  9 14  2  0
 10  9  1  0
 11 10  2  0
 11 12  1  0
 12 13  2  0
 13 14  1  0
 13  8  1  0
 16 17  2  0
 17 18  1  0
 19 18  2  0
 20 19  1  0
 21 20  2  0
 21 16  1  0
 22 23  1  0
 22 20  1  0
 24 23  2  0
 25 30  2  0
 25 24  1  0
 26 25  1  0
 27 28  1  0
 27 26  2  0
 28 29  2  0
 29 30  1  0
 30 22  1  0
 31 21  1  0
  4 32  1  0
  5 33  1  0
  6 34  1  0
  8 35  1  0
  8 36  1  0
  9 37  1  0
 10 38  1  0
 11 39  1  0
 15 40  1  0
 17 41  1  0
 18 42  1  0
 19 43  1  0
 23 44  1  0
 26 45  1  0
 28 46  1  0
 31 47  1  0
 31 48  1  0
M  ISO  8  32  14  33  14  34  14  35   8  36   8  37  14  38  14  39  14
M  ISO  7  40   3  41  14  42  14  43  14  44  14  45  14  46  14
M  END
>  <minimizedAffinity>  (1) 
-6.70140314

>  <minimizedRMSD>  (1) 
1.52471948

$$$$
