
     RDKit          3D

 42 45  0  0  0  0  0  0  0  0999 V2000
   45.0060   34.6590   42.2770 C   0  0  0  0  0  0  0  0  0  0  0  0
   46.3160   34.3920   41.8880 C   0  0  0  0  0  0  0  0  0  0  0  0
   47.2680   34.0700   42.8730 C   0  0  0  0  0  0  0  0  0  0  0  0
   46.8430   34.0400   44.1540 N   0  0  0  0  0  0  0  0  0  0  0  0
   45.5680   34.3030   44.5110 C   0  0  0  0  0  0  0  0  0  0  0  0
   44.6750   34.6060   43.5730 N   0  0  0  0  0  0  0  0  0  0  0  0
   48.6140   33.7920   42.4900 N   0  0  0  0  0  0  0  0  0  0  0  0
   49.8090   34.3880   42.7730 C   0  0  0  0  0  0  0  0  0  0  0  0
   50.7790   33.6810   42.1220 N   0  0  0  0  0  0  0  0  0  0  0  0
   50.1750   32.6620   41.4480 C   0  0  0  0  0  0  0  0  0  0  0  0
   50.7820   31.7060   40.6600 C   0  0  0  0  0  0  0  0  0  0  0  0
   49.9500   30.7860   40.0890 N   0  0  0  0  0  0  0  0  0  0  0  0
   48.6220   30.8250   40.2930 C   0  0  0  0  0  0  0  0  0  0  0  0
   48.0880   31.7810   41.0710 N   0  0  0  0  0  0  0  0  0  0  0  0
   48.8170   32.7340   41.6800 C   0  0  0  0  0  0  0  0  0  0  0  0
   45.2480   34.2360   45.9190 C   0  0  0  0  0  0  0  0  0  0  0  0
   44.3730   35.0270   46.3660 O   0  0  0  0  0  0  0  0  0  0  0  0
   45.9410   33.2770   46.7240 N   0  0  0  0  0  0  0  0  0  0  0  0
   43.8610   35.0590   40.9660 S   0  0  0  0  0  0  0  0  0  0  0  0
   42.1370   34.8820   41.4650 C   0  0  0  0  0  0  0  0  0  0  0  0
   41.2080   35.8460   40.8190 C   0  0  0  0  0  0  0  0  0  0  0  0
   42.0160   36.0880   37.9020 Cl  0  0  0  0  0  0  0  0  0  0  0  0
   40.6120   35.2120   38.4550 C   0  0  0  0  0  0  0  0  0  0  0  0
   40.3340   35.1680   39.8310 C   0  0  0  0  0  0  0  0  0  0  0  0
   39.2100   34.4610   40.1840 C   0  0  0  0  0  0  0  0  0  0  0  0
   38.3420   33.7990   39.3300 C   0  0  0  0  0  0  0  0  0  0  0  0
   38.6410   33.8620   37.9900 C   0  0  0  0  0  0  0  0  0  0  0  0
   37.6110   33.0610   36.8060 Cl  0  0  0  0  0  0  0  0  0  0  0  0
   39.7530   34.5560   37.5730 C   0  0  0  0  0  0  0  0  0  0  0  0
   46.6024   34.4322   40.8267 H   0  0  0  0  0  0  0  0  0  0  0  0
   49.9621   35.2733   43.4076 H   0  0  0  0  0  0  0  0  0  0  0  0
   51.8703   31.6861   40.5013 H   0  0  0  0  0  0  0  0  0  0  0  0
   47.9716   30.0731   39.8222 H   0  0  0  0  0  0  0  0  0  0  0  0
   45.7353   33.2048   47.7307 H   0  0  0  0  0  0  0  0  0  0  0  0
   46.6455   32.6589   46.2967 H   0  0  0  0  0  0  0  0  0  0  0  0
   41.8080   33.8638   41.2101 H   0  0  0  0  0  0  0  0  0  0  0  0
   42.1005   35.0870   42.5451 H   0  0  0  0  0  0  0  0  0  0  0  0
   40.5805   36.3130   41.5924 H   0  0  0  0  0  0  0  0  0  0  0  0
   41.8046   36.6059   40.2930 H   0  0  0  0  0  0  0  0  0  0  0  0
   38.9742   34.4156   41.2575 H   0  0  0  0  0  0  0  0  0  0  0  0
   37.4629   33.2536   39.7038 H   0  0  0  0  0  0  0  0  0  0  0  0
   39.9748   34.5955   36.4963 H   0  0  0  0  0  0  0  0  0  0  0  0
  1  6  1  0
  2  1  2  0
  2  3  1  0
  3  4  2  0
  4  5  1  0
  5 16  1  0
  6  5  2  0
  7  8  1  0
  7  3  1  0
  9  8  2  0
 10 15  2  0
 10  9  1  0
 11 10  1  0
 12 13  1  0
 12 11  2  0
 13 14  2  0
 14 15  1  0
 15  7  1  0
 16 17  2  0
 16 18  1  0
 19 20  1  0
 19  1  1  0
 21 20  1  0
 22 23  1  0
 23 24  2  0
 24 25  1  0
 24 21  1  0
 26 25  2  0
 27 26  1  0
 28 27  1  0
 29 27  2  0
 29 23  1  0
  2 30  1  0
  8 31  1  0
 11 32  1  0
 13 33  1  0
 18 34  1  0
 18 35  1  0
 20 36  1  0
 20 37  1  0
 21 38  1  0
 21 39  1  0
 25 40  1  0
 26 41  1  0
 29 42  1  0
M  ISO  8  30  14  31  14  32  14  33  14  36   8  37   8  38   8  39   8
M  ISO  3  40  14  41  14  42  14
M  END
>  <minimizedAffinity>  (1) 
-7.50632524

>  <minimizedRMSD>  (1) 
0.497554421

$$$$
