
     RDKit          3D

 42 46  0  0  0  0  0  0  0  0999 V2000
   46.0470   34.0820   40.6070 C   0  0  0  0  0  0  0  0  0  0  0  0
   44.7140   33.8040   40.4730 C   0  0  0  0  0  0  0  0  0  0  0  0
   44.5830   33.1850   39.2800 N   0  0  0  0  0  0  0  0  0  0  0  0
   45.7820   33.0900   38.7140 C   0  0  0  0  0  0  0  0  0  0  0  0
   46.6980   33.6420   39.5260 N   0  0  0  0  0  0  0  0  0  0  0  0
   46.1670   32.5250   37.4670 N   0  0  0  0  0  0  0  0  0  0  0  0
   43.3790   32.6850   38.6610 C   0  0  0  0  0  0  0  0  0  0  0  0
   42.3880   33.7410   38.7800 N   0  0  0  0  0  0  0  0  0  0  0  0
   42.3620   35.0100   38.3370 C   0  0  0  0  0  0  0  0  0  0  0  0
   41.2130   35.6090   38.7000 N   0  0  0  0  0  0  0  0  0  0  0  0
   40.4600   34.7300   39.3940 C   0  0  0  0  0  0  0  0  0  0  0  0
   39.2140   34.8340   39.9820 C   0  0  0  0  0  0  0  0  0  0  0  0
   38.7320   33.7300   40.6210 N   0  0  0  0  0  0  0  0  0  0  0  0
   39.4840   32.5950   40.6510 C   0  0  0  0  0  0  0  0  0  0  0  0
   40.6980   32.4720   40.0840 N   0  0  0  0  0  0  0  0  0  0  0  0
   41.2070   33.5560   39.4390 C   0  0  0  0  0  0  0  0  0  0  0  0
   46.7200   34.7630   41.7550 C   0  0  0  0  0  0  0  0  0  0  0  0
   47.9090   35.2000   41.7500 O   0  0  0  0  0  0  0  0  0  0  0  0
   45.3590   36.1820   43.2340 C   0  0  0  0  0  0  0  0  0  0  0  0
   46.0100   34.9590   42.9700 C   0  0  0  0  0  0  0  0  0  0  0  0
   45.8770   34.0250   43.9910 C   0  0  0  0  0  0  0  0  0  0  0  0
   45.2030   34.2520   45.1110 N   0  0  0  0  0  0  0  0  0  0  0  0
   44.5960   35.4600   45.3030 C   0  0  0  0  0  0  0  0  0  0  0  0
   44.6810   36.4070   44.3650 N   0  0  0  0  0  0  0  0  0  0  0  0
   46.5060   32.7550   43.8150 C   0  0  0  0  0  0  0  0  0  0  0  0
   47.7590   32.2560   43.9480 C   0  0  0  0  0  0  0  0  0  0  0  0
   48.0710   31.0030   43.7120 C   0  0  0  0  0  0  0  0  0  0  0  0
   47.0550   30.2210   43.3210 C   0  0  0  0  0  0  0  0  0  0  0  0
   45.6020   31.3070   43.2870 S   0  0  0  0  0  0  0  0  0  0  0  0
   43.9131   34.0370   41.1901 H   0  0  0  0  0  0  0  0  0  0  0  0
   47.1561   32.5368   37.1797 H   0  0  0  0  0  0  0  0  0  0  0  0
   45.4568   32.1040   36.8511 H   0  0  0  0  0  0  0  0  0  0  0  0
   43.0331   31.7784   39.1791 H   0  0  0  0  0  0  0  0  0  0  0  0
   43.5530   32.4180   37.6082 H   0  0  0  0  0  0  0  0  0  0  0  0
   43.1658   35.4904   37.7598 H   0  0  0  0  0  0  0  0  0  0  0  0
   38.6351   35.7682   39.9366 H   0  0  0  0  0  0  0  0  0  0  0  0
   39.0711   31.7198   41.1740 H   0  0  0  0  0  0  0  0  0  0  0  0
   45.4108   36.9819   42.4806 H   0  0  0  0  0  0  0  0  0  0  0  0
   44.0369   35.6532   46.2304 H   0  0  0  0  0  0  0  0  0  0  0  0
   48.5586   32.9386   44.2715 H   0  0  0  0  0  0  0  0  0  0  0  0
   49.0960   30.6209   43.8272 H   0  0  0  0  0  0  0  0  0  0  0  0
   47.0938   29.1499   43.0736 H   0  0  0  0  0  0  0  0  0  0  0  0
  1 17  1  0
  2  1  2  0
  3  2  1  0
  4  3  1  0
  4  5  2  0
  5  1  1  0
  6  4  1  0
  7  8  1  0
  7  3  1  0
  8 16  1  0
  9 10  2  0
  9  8  1  0
 10 11  1  0
 11 16  2  0
 11 12  1  0
 12 13  2  0
 13 14  1  0
 15 14  2  0
 16 15  1  0
 17 20  1  0
 18 17  2  0
 19 24  2  0
 20 19  1  0
 20 21  2  0
 21 22  1  0
 22 23  2  0
 24 23  1  0
 25 26  2  0
 25 21  1  0
 27 26  1  0
 28 27  2  0
 29 28  1  0
 29 25  1  0
  2 30  1  0
  6 31  1  0
  6 32  1  0
  7 33  1  0
  7 34  1  0
  9 35  1  0
 12 36  1  0
 14 37  1  0
 19 38  1  0
 23 39  1  0
 26 40  1  0
 27 41  1  0
 28 42  1  0
M  ISO  8  30  14  33   8  34   8  35  14  36  14  37  14  38  14  39  14
M  ISO  3  40  14  41  14  42  14
M  END
>  <minimizedAffinity>  (1) 
-6.05213499

>  <minimizedRMSD>  (1) 
2.05462861

$$$$
