
     RDKit          3D

 46 50  0  0  1  0  0  0  0  0999 V2000
   48.5220   33.2840   39.2110 N   0  0  0  0  0  0  0  0  0  0  0  0
   47.4620   34.4780   42.3880 N   0  0  0  0  0  0  0  0  0  0  0  0
   47.3910   34.5960   40.9420 C   0  0  0  0  0  0  0  0  0  0  0  0
   48.0860   33.3190   40.5710 C   0  0  2  0  0  0  0  0  0  0  0  0
   49.3180   33.3620   41.4470 C   0  0  0  0  0  0  0  0  0  0  0  0
   48.8030   34.0390   42.6960 C   0  0  0  0  0  0  0  0  0  0  0  0
   44.6040   35.8670   44.3490 C   0  0  0  0  0  0  0  0  0  0  0  0
   45.5310   35.7130   43.3180 C   0  0  0  0  0  0  0  0  0  0  0  0
   46.4820   34.7170   43.3750 C   0  0  0  0  0  0  0  0  0  0  0  0
   46.4710   33.9100   44.4650 N   0  0  0  0  0  0  0  0  0  0  0  0
   45.5780   34.0490   45.4710 C   0  0  0  0  0  0  0  0  0  0  0  0
   44.6500   35.0240   45.4090 N   0  0  0  0  0  0  0  0  0  0  0  0
   48.4390   32.2850   36.9190 C   0  0  0  0  0  0  0  0  0  0  0  0
   47.8420   32.9430   38.0060 C   0  0  0  0  0  0  0  0  0  0  0  0
   46.5150   33.2350   37.7980 C   0  0  0  0  0  0  0  0  0  0  0  0
   45.7890   32.9450   36.6780 C   0  0  0  0  0  0  0  0  0  0  0  0
   46.4170   32.3050   35.6540 C   0  0  0  0  0  0  0  0  0  0  0  0
   47.7500   31.9760   35.7810 C   0  0  0  0  0  0  0  0  0  0  0  0
   48.3800   31.3080   34.6940 N   0  0  0  0  0  0  0  0  0  0  0  0
   48.6680   29.9990   34.5740 C   0  0  0  0  0  0  0  0  0  0  0  0
   49.2680   29.7810   33.3870 N   0  0  0  0  0  0  0  0  0  0  0  0
   49.3780   30.9600   32.7090 C   0  0  0  0  0  0  0  0  0  0  0  0
   49.9080   31.2680   31.4730 C   0  0  0  0  0  0  0  0  0  0  0  0
   49.8370   32.5600   31.1390 N   0  0  0  0  0  0  0  0  0  0  0  0
   49.2980   33.5230   31.9200 C   0  0  0  0  0  0  0  0  0  0  0  0
   48.7740   33.2210   33.1430 N   0  0  0  0  0  0  0  0  0  0  0  0
   48.8120   31.9180   33.5520 C   0  0  0  0  0  0  0  0  0  0  0  0
   50.9700   31.6620   37.1800 N   0  0  0  0  0  0  0  0  0  0  0  0
   49.8520   31.9360   37.0530 C   0  0  0  0  0  0  0  0  0  0  0  0
   49.5068   33.5544   39.0771 H   0  0  0  0  0  0  0  0  0  0  0  0
   46.3525   34.6211   40.5802 H   0  0  0  0  0  0  0  0  0  0  0  0
   47.8267   35.5132   40.5191 H   0  0  0  0  0  0  0  0  0  0  0  0
   47.4205   32.4525   40.6982 H   0  0  0  0  0  0  0  0  0  0  0  0
   49.6862   32.3489   41.6662 H   0  0  0  0  0  0  0  0  0  0  0  0
   50.1694   33.8822   40.9837 H   0  0  0  0  0  0  0  0  0  0  0  0
   49.4373   34.9002   42.9530 H   0  0  0  0  0  0  0  0  0  0  0  0
   48.8148   33.3559   43.5581 H   0  0  0  0  0  0  0  0  0  0  0  0
   43.8456   36.6624   44.3022 H   0  0  0  0  0  0  0  0  0  0  0  0
   45.5028   36.3917   42.4528 H   0  0  0  0  0  0  0  0  0  0  0  0
   45.6090   33.3696   46.3355 H   0  0  0  0  0  0  0  0  0  0  0  0
   45.9866   33.7523   38.6124 H   0  0  0  0  0  0  0  0  0  0  0  0
   44.7266   33.2209   36.6056 H   0  0  0  0  0  0  0  0  0  0  0  0
   45.8672   32.0530   34.7352 H   0  0  0  0  0  0  0  0  0  0  0  0
   48.4482   29.2277   35.3268 H   0  0  0  0  0  0  0  0  0  0  0  0
   50.3543   30.5090   30.8137 H   0  0  0  0  0  0  0  0  0  0  0  0
   49.2817   34.5639   31.5647 H   0  0  0  0  0  0  0  0  0  0  0  0
  1  4  1  0
  2  6  1  0
  2  9  1  0
  3  2  1  0
  4  3  1  0
  4  5  1  0
  5  6  1  0
  7 12  2  0
  8  9  2  0
  8  7  1  0
  9 10  1  0
 10 11  2  0
 12 11  1  0
 13 29  1  0
 13 14  2  0
 14  1  1  0
 15 14  1  0
 16 15  2  0
 17 18  2  0
 17 16  1  0
 18 13  1  0
 19 18  1  0
 20 19  1  0
 21 20  2  0
 22 21  1  0
 22 27  2  0
 23 22  1  0
 24 23  2  0
 24 25  1  0
 25 26  2  0
 26 27  1  0
 27 19  1  0
 29 28  3  0
  1 30  1  0
  3 31  1  0
  3 32  1  0
  4 33  1  1
  5 34  1  0
  5 35  1  0
  6 36  1  0
  6 37  1  0
  7 38  1  0
  8 39  1  0
 11 40  1  0
 15 41  1  0
 16 42  1  0
 17 43  1  0
 20 44  1  0
 23 45  1  0
 25 46  1  0
M  ISO  8  31  13  32  13  33  13  34  13  35  13  36  13  37  13  38  14
M  ISO  8  39  14  40  14  41  14  42  14  43  14  44  14  45  14  46  14
M  END
>  <minimizedAffinity>  (1) 
-6.12221861

>  <minimizedRMSD>  (1) 
1.84066236

$$$$
