
     RDKit          3D

 47 51  0  0  1  0  0  0  0  0999 V2000
   49.0520   32.1940   40.5450 C   0  0  2  0  0  0  0  0  0  0  0  0
   49.8200   31.6480   41.6600 C   0  0  0  0  0  0  0  0  0  0  0  0
   50.4650   31.8730   40.3360 C   0  0  1  0  0  0  0  0  0  0  0  0
   47.0080   34.8090   41.9500 C   0  0  2  0  0  0  0  0  0  0  0  0
   46.2410   34.1980   40.7750 C   0  0  0  0  0  0  0  0  0  0  0  0
   47.4420   34.0100   39.8220 C   0  0  0  0  0  0  0  0  0  0  0  0
   48.5800   33.6210   40.7110 C   0  0  1  0  0  0  0  0  0  0  0  0
   48.0720   33.7580   42.1160 C   0  0  0  0  0  0  0  0  0  0  0  0
   44.5280   36.0230   44.5100 C   0  0  0  0  0  0  0  0  0  0  0  0
   45.2510   35.9900   43.3100 C   0  0  0  0  0  0  0  0  0  0  0  0
   46.1560   34.9480   43.1590 C   0  0  0  0  0  0  0  0  0  0  0  0
   46.3230   33.9890   44.1670 N   0  0  0  0  0  0  0  0  0  0  0  0
   45.5920   34.0790   45.3080 C   0  0  0  0  0  0  0  0  0  0  0  0
   44.7010   35.0960   45.4670 N   0  0  0  0  0  0  0  0  0  0  0  0
   50.7610   30.7320   39.5510 O   0  0  0  0  0  0  0  0  0  0  0  0
   52.3310   29.9710   37.6190 O   0  0  0  0  0  0  0  0  0  0  0  0
   52.1470   31.0530   38.6570 P   0  0  1  0  0  0  0  0  0  0  0  0
   51.9630   32.5370   37.8150 O   0  0  0  0  0  0  0  0  0  0  0  0
   53.5400   31.1710   39.5480 O   0  0  0  0  0  0  0  0  0  0  0  0
   53.2060   30.2390   41.7640 N   0  0  0  0  0  0  0  0  0  0  0  0
   53.8790   30.3220   40.6100 C   0  0  0  0  0  0  0  0  0  0  0  0
   54.9270   29.4630   40.6370 N   0  0  0  0  0  0  0  0  0  0  0  0
   54.9500   28.8110   41.8050 C   0  0  0  0  0  0  0  0  0  0  0  0
   55.7020   27.8500   42.4610 C   0  0  0  0  0  0  0  0  0  0  0  0
   55.3880   27.4290   43.7020 N   0  0  0  0  0  0  0  0  0  0  0  0
   54.3230   27.9380   44.3460 C   0  0  0  0  0  0  0  0  0  0  0  0
   53.5680   28.8770   43.7350 N   0  0  0  0  0  0  0  0  0  0  0  0
   53.8510   29.3220   42.4960 C   0  0  0  0  0  0  0  0  0  0  0  0
   48.1455   31.9246   39.9832 H   0  0  0  0  0  0  0  0  0  0  0  0
   50.0803   32.2879   42.5160 H   0  0  0  0  0  0  0  0  0  0  0  0
   49.7087   30.7892   42.3383 H   0  0  0  0  0  0  0  0  0  0  0  0
   51.3498   32.4217   39.9809 H   0  0  0  0  0  0  0  0  0  0  0  0
   47.3822   35.8311   41.7908 H   0  0  0  0  0  0  0  0  0  0  0  0
   45.7630   33.2431   41.0388 H   0  0  0  0  0  0  0  0  0  0  0  0
   45.3983   34.7876   40.3850 H   0  0  0  0  0  0  0  0  0  0  0  0
   47.6670   34.9478   39.2929 H   0  0  0  0  0  0  0  0  0  0  0  0
   47.2430   33.2537   39.0484 H   0  0  0  0  0  0  0  0  0  0  0  0
   49.4356   34.2646   40.4586 H   0  0  0  0  0  0  0  0  0  0  0  0
   48.8658   34.0944   42.7991 H   0  0  0  0  0  0  0  0  0  0  0  0
   47.7081   32.8172   42.5547 H   0  0  0  0  0  0  0  0  0  0  0  0
   43.7987   36.8302   44.6729 H   0  0  0  0  0  0  0  0  0  0  0  0
   45.1088   36.7505   42.5280 H   0  0  0  0  0  0  0  0  0  0  0  0
   45.7198   33.3303   46.1036 H   0  0  0  0  0  0  0  0  0  0  0  0
   51.8713   33.2768   38.4664 H   0  0  0  0  0  0  0  0  0  0  0  0
   52.3658   30.7705   42.0332 H   0  0  0  0  0  0  0  0  0  0  0  0
   56.5788   27.4192   41.9554 H   0  0  0  0  0  0  0  0  0  0  0  0
   54.0693   27.5935   45.3594 H   0  0  0  0  0  0  0  0  0  0  0  0
  1  7  1  0
  1  2  1  0
  3  1  1  0
  3  2  1  0
  4  8  1  0
  4 11  1  0
  5  4  1  0
  6  7  1  0
  6  5  1  0
  7  8  1  0
  9 14  2  0
 10  9  1  0
 11 10  2  0
 11 12  1  0
 12 13  2  0
 13 14  1  0
 15  3  1  0
 17 16  2  0
 17 19  1  0
 17 15  1  0
 18 17  1  0
 19 21  1  0
 20 28  1  0
 21 22  2  0
 21 20  1  0
 22 23  1  0
 23 24  1  0
 23 28  2  0
 24 25  2  0
 25 26  1  0
 27 26  2  0
 28 27  1  0
  1 29  1  6
  2 30  1  0
  2 31  1  0
  3 32  1  1
  4 33  1  6
  5 34  1  0
  5 35  1  0
  6 36  1  0
  6 37  1  0
  7 38  1  1
  8 39  1  0
  8 40  1  0
  9 41  1  0
 10 42  1  0
 13 43  1  0
 18 44  1  0
 20 45  1  0
 24 46  1  0
 26 47  1  0
M  ISO  8  29  13  30  13  31  13  32  13  33  13  34  13  35  13  36  13
M  ISO  8  37  13  38  13  39  13  40  13  41  14  42  14  43  14  44   3
M  ISO  3  45   9  46  14  47  14
M  END
>  <minimizedAffinity>  (1) 
-5.4695797

>  <minimizedRMSD>  (1) 
1.4345932

$$$$
