
     RDKit          3D

 45 49  0  0  1  0  0  0  0  0999 V2000
   47.0380   33.0270   38.7440 N   0  0  0  0  0  0  0  0  0  0  0  0
   46.4260   33.3930   37.4740 C   0  0  0  0  0  0  0  0  0  0  0  0
   45.5060   32.2950   36.9690 C   0  0  0  0  0  0  0  0  0  0  0  0
   46.2370   31.0910   36.6770 N   0  0  0  0  0  0  0  0  0  0  0  0
   47.5140   31.1490   37.3600 C   0  0  0  0  0  0  0  0  0  0  0  0
   47.3070   31.5910   38.8080 C   0  0  1  0  0  0  0  0  0  0  0  0
   48.5310   31.2970   39.5340 N   0  0  0  0  0  0  0  0  0  0  0  0
   48.6280   30.8350   40.8140 C   0  0  0  0  0  0  0  0  0  0  0  0
   49.9050   30.6780   41.1550 N   0  0  0  0  0  0  0  0  0  0  0  0
   50.6920   31.0290   40.1150 C   0  0  0  0  0  0  0  0  0  0  0  0
   52.0620   31.0470   39.9630 C   0  0  0  0  0  0  0  0  0  0  0  0
   52.5080   31.4650   38.7660 N   0  0  0  0  0  0  0  0  0  0  0  0
   51.6740   31.8440   37.7740 C   0  0  0  0  0  0  0  0  0  0  0  0
   50.3400   31.8160   37.9510 N   0  0  0  0  0  0  0  0  0  0  0  0
   49.8050   31.4110   39.1190 C   0  0  0  0  0  0  0  0  0  0  0  0
   45.0810   32.9120   41.1940 Br  0  0  0  0  0  0  0  0  0  0  0  0
   46.6330   33.9860   40.9930 C   0  0  0  0  0  0  0  0  0  0  0  0
   47.0160   34.8410   41.9900 C   0  0  0  0  0  0  0  0  0  0  0  0
   48.1630   35.6450   41.8610 C   0  0  0  0  0  0  0  0  0  0  0  0
   48.8920   35.5480   40.7010 C   0  0  0  0  0  0  0  0  0  0  0  0
   48.4650   34.6730   39.7290 C   0  0  0  0  0  0  0  0  0  0  0  0
   47.3670   33.8940   39.8350 C   0  0  0  0  0  0  0  0  0  0  0  0
   45.6850   34.0340   45.3020 C   0  0  0  0  0  0  0  0  0  0  0  0
   44.7040   35.0220   45.5140 C   0  0  0  0  0  0  0  0  0  0  0  0
   44.5240   35.9520   44.5010 C   0  0  0  0  0  0  0  0  0  0  0  0
   45.2750   35.8740   43.3820 N   0  0  0  0  0  0  0  0  0  0  0  0
   46.2150   34.9110   43.2020 C   0  0  0  0  0  0  0  0  0  0  0  0
   46.4020   33.9950   44.1850 N   0  0  0  0  0  0  0  0  0  0  0  0
   45.8423   34.3154   37.6100 H   0  0  0  0  0  0  0  0  0  0  0  0
   47.2255   33.5444   36.7338 H   0  0  0  0  0  0  0  0  0  0  0  0
   44.7515   32.0777   37.7394 H   0  0  0  0  0  0  0  0  0  0  0  0
   45.0277   32.6432   36.0416 H   0  0  0  0  0  0  0  0  0  0  0  0
   45.7043   30.2731   37.0059 H   0  0  0  0  0  0  0  0  0  0  0  0
   47.9815   30.1534   37.3454 H   0  0  0  0  0  0  0  0  0  0  0  0
   48.1665   31.8724   36.8492 H   0  0  0  0  0  0  0  0  0  0  0  0
   46.4791   31.0796   39.3209 H   0  0  0  0  0  0  0  0  0  0  0  0
   47.7720   30.6223   41.4713 H   0  0  0  0  0  0  0  0  0  0  0  0
   52.7452   30.7395   40.7684 H   0  0  0  0  0  0  0  0  0  0  0  0
   52.0888   32.1789   36.8118 H   0  0  0  0  0  0  0  0  0  0  0  0
   48.4671   36.3311   42.6653 H   0  0  0  0  0  0  0  0  0  0  0  0
   49.7966   36.1560   40.5525 H   0  0  0  0  0  0  0  0  0  0  0  0
   49.0570   34.6033   38.8045 H   0  0  0  0  0  0  0  0  0  0  0  0
   45.8614   33.2767   46.0801 H   0  0  0  0  0  0  0  0  0  0  0  0
   44.1091   35.0545   46.4387 H   0  0  0  0  0  0  0  0  0  0  0  0
   43.7734   36.7488   44.6088 H   0  0  0  0  0  0  0  0  0  0  0  0
  1  6  1  0
  1 22  1  0
  2  1  1  0
  3  2  1  0
  4  3  1  0
  4  5  1  0
  5  6  1  0
  6  7  1  0
  7  8  1  0
  8  9  2  0
 10  9  1  0
 11 10  2  0
 12 11  1  0
 13 14  1  0
 13 12  2  0
 14 15  2  0
 15  7  1  0
 15 10  1  0
 17 16  1  0
 17 18  2  0
 18 27  1  0
 19 18  1  0
 20 19  2  0
 21 22  2  0
 21 20  1  0
 22 17  1  0
 23 24  2  0
 25 24  1  0
 26 25  2  0
 27 26  1  0
 27 28  2  0
 28 23  1  0
  2 29  1  0
  2 30  1  0
  3 31  1  0
  3 32  1  0
  4 33  1  0
  5 34  1  0
  5 35  1  0
  6 36  1  1
  8 37  1  0
 11 38  1  0
 13 39  1  0
 19 40  1  0
 20 41  1  0
 21 42  1  0
 23 43  1  0
 24 44  1  0
 25 45  1  0
M  ISO  8  29  13  30  13  31  13  32  13  33   5  34  13  35  13  36  13
M  ISO  8  37  14  38  14  39  14  40  14  41  14  42  14  43  14  44  14
M  ISO  1  45  14
M  END
>  <minimizedAffinity>  (1) 
-6.29369974

>  <minimizedRMSD>  (1) 
1.29244602

$$$$
