
     RDKit          3D

 41 45  0  0  0  0  0  0  0  0999 V2000
   45.5750   32.5520   40.2790 Cl  0  0  0  0  0  0  0  0  0  0  0  0
   46.9000   33.6570   40.0510 C   0  0  0  0  0  0  0  0  0  0  0  0
   47.4400   34.3260   41.1220 C   0  0  0  0  0  0  0  0  0  0  0  0
   48.5020   35.2160   40.9760 C   0  0  0  0  0  0  0  0  0  0  0  0
   48.9760   35.3860   39.6930 C   0  0  0  0  0  0  0  0  0  0  0  0
   48.4350   34.7140   38.6130 C   0  0  0  0  0  0  0  0  0  0  0  0
   47.4190   33.8660   38.7800 C   0  0  0  0  0  0  0  0  0  0  0  0
   46.7620   32.8000   44.4080 C   0  0  0  0  0  0  0  0  0  0  0  0
   45.8450   33.7090   44.9790 C   0  0  0  0  0  0  0  0  0  0  0  0
   45.4750   34.8260   44.2320 C   0  0  0  0  0  0  0  0  0  0  0  0
   46.0160   34.9890   42.9860 N   0  0  0  0  0  0  0  0  0  0  0  0
   46.8900   34.1040   42.4650 C   0  0  0  0  0  0  0  0  0  0  0  0
   47.2530   33.0200   43.1810 N   0  0  0  0  0  0  0  0  0  0  0  0
   44.5140   35.8560   44.7320 C   0  0  0  0  0  0  0  0  0  0  0  0
   44.9900   37.1120   44.5150 F   0  0  0  0  0  0  0  0  0  0  0  0
   43.3200   35.6990   44.0560 F   0  0  0  0  0  0  0  0  0  0  0  0
   44.3260   35.5990   46.0680 F   0  0  0  0  0  0  0  0  0  0  0  0
   46.8210   33.1390   37.6720 C   0  0  0  0  0  0  0  0  0  0  0  0
   45.4490   33.1090   37.3870 C   0  0  0  0  0  0  0  0  0  0  0  0
   45.2240   32.3280   36.2750 C   0  0  0  0  0  0  0  0  0  0  0  0
   46.4920   31.9140   35.9300 C   0  0  0  0  0  0  0  0  0  0  0  0
   47.3980   32.4000   36.7570 O   0  0  0  0  0  0  0  0  0  0  0  0
   46.8340   31.0690   34.8300 N   0  0  0  0  0  0  0  0  0  0  0  0
   46.5500   29.7560   34.7480 C   0  0  0  0  0  0  0  0  0  0  0  0
   47.0280   29.2830   33.5590 N   0  0  0  0  0  0  0  0  0  0  0  0
   47.6140   30.2950   32.8890 C   0  0  0  0  0  0  0  0  0  0  0  0
   48.2680   30.5110   31.6920 C   0  0  0  0  0  0  0  0  0  0  0  0
   48.7410   31.7320   31.3530 N   0  0  0  0  0  0  0  0  0  0  0  0
   48.5960   32.7920   32.1660 C   0  0  0  0  0  0  0  0  0  0  0  0
   47.9610   32.6200   33.3490 N   0  0  0  0  0  0  0  0  0  0  0  0
   47.4850   31.4120   33.7010 C   0  0  0  0  0  0  0  0  0  0  0  0
   48.9362   35.7510   41.8335 H   0  0  0  0  0  0  0  0  0  0  0  0
   49.8127   36.0795   39.5228 H   0  0  0  0  0  0  0  0  0  0  0  0
   48.8462   34.8801   37.6064 H   0  0  0  0  0  0  0  0  0  0  0  0
   47.0742   31.9087   44.9720 H   0  0  0  0  0  0  0  0  0  0  0  0
   45.4340   33.5404   45.9853 H   0  0  0  0  0  0  0  0  0  0  0  0
   44.6704   33.6299   37.9636 H   0  0  0  0  0  0  0  0  0  0  0  0
   44.2682   32.0929   35.7838 H   0  0  0  0  0  0  0  0  0  0  0  0
   46.0221   29.1637   35.5099 H   0  0  0  0  0  0  0  0  0  0  0  0
   48.4077   29.6696   30.9974 H   0  0  0  0  0  0  0  0  0  0  0  0
   48.9853   33.7791   31.8762 H   0  0  0  0  0  0  0  0  0  0  0  0
  2  1  1  0
  2  3  2  0
  3 12  1  0
  4  3  1  0
  5  4  2  0
  6  7  2  0
  6  5  1  0
  7  2  1  0
  8  9  2  0
 10 14  1  0
 10  9  1  0
 11 10  2  0
 12 11  1  0
 12 13  2  0
 13  8  1  0
 14 17  1  0
 15 14  1  0
 16 14  1  0
 18  7  1  0
 19 18  2  0
 20 19  1  0
 21 20  2  0
 21 22  1  0
 22 18  1  0
 23 21  1  0
 24 23  1  0
 25 24  2  0
 26 25  1  0
 26 31  2  0
 27 26  1  0
 28 27  2  0
 28 29  1  0
 29 30  2  0
 30 31  1  0
 31 23  1  0
  4 32  1  0
  5 33  1  0
  6 34  1  0
  8 35  1  0
  9 36  1  0
 19 37  1  0
 20 38  1  0
 24 39  1  0
 27 40  1  0
 29 41  1  0
M  END
>  <minimizedAffinity>  (1) 
-7.02694607

>  <minimizedRMSD>  (1) 
1.88229644

$$$$
