
     RDKit          3D

 36 39  0  0  1  0  0  0  0  0999 V2000
   44.4840   35.7130   45.0090 C   0  0  0  0  0  0  0  0  0  0  0  0
   45.1240   35.6870   43.7630 C   0  0  0  0  0  0  0  0  0  0  0  0
   46.0210   34.7000   43.5060 C   0  0  0  0  0  0  0  0  0  0  0  0
   46.2330   33.7960   44.4990 N   0  0  0  0  0  0  0  0  0  0  0  0
   45.6280   33.8240   45.6740 C   0  0  0  0  0  0  0  0  0  0  0  0
   44.7330   34.7850   45.9650 N   0  0  0  0  0  0  0  0  0  0  0  0
   45.9470   32.8240   46.6200 N   0  0  0  0  0  0  0  0  0  0  0  0
   45.1720   32.5370   47.8340 C   0  0  0  0  0  0  0  0  0  0  0  0
   46.2710   32.2230   48.8280 C   0  0  0  0  0  0  0  0  0  0  0  0
   47.5460   32.0620   48.0550 C   0  0  0  0  0  0  0  0  0  0  0  0
   47.0470   31.8860   46.6420 C   0  0  1  0  0  0  0  0  0  0  0  0
   44.7670   36.7320   42.8500 N   0  0  0  0  0  0  0  0  0  0  0  0
   46.5020   30.1810   46.4200 S   0  0  0  0  0  0  0  0  0  0  0  0
   44.2420   29.2820   45.2160 N   0  0  0  0  0  0  0  0  0  0  0  0
   45.3680   29.9970   45.0630 C   0  0  0  0  0  0  0  0  0  0  0  0
   45.4370   30.4880   43.7920 N   0  0  0  0  0  0  0  0  0  0  0  0
   44.3120   30.0600   43.1420 C   0  0  0  0  0  0  0  0  0  0  0  0
   43.7510   30.1750   41.9020 C   0  0  0  0  0  0  0  0  0  0  0  0
   42.5830   29.6110   41.5740 N   0  0  0  0  0  0  0  0  0  0  0  0
   41.8820   28.8880   42.4540 C   0  0  0  0  0  0  0  0  0  0  0  0
   42.3820   28.7410   43.6850 N   0  0  0  0  0  0  0  0  0  0  0  0
   43.5720   29.3050   44.0480 C   0  0  0  0  0  0  0  0  0  0  0  0
   43.7568   36.5114   45.2180 H   0  0  0  0  0  0  0  0  0  0  0  0
   46.5491   34.6354   42.5432 H   0  0  0  0  0  0  0  0  0  0  0  0
   44.5823   33.4102   48.1498 H   0  0  0  0  0  0  0  0  0  0  0  0
   44.4330   31.7312   47.7137 H   0  0  0  0  0  0  0  0  0  0  0  0
   46.3710   33.0469   49.5499 H   0  0  0  0  0  0  0  0  0  0  0  0
   46.0377   31.3041   49.3858 H   0  0  0  0  0  0  0  0  0  0  0  0
   48.1813   32.9555   48.1445 H   0  0  0  0  0  0  0  0  0  0  0  0
   48.1719   31.2289   48.4075 H   0  0  0  0  0  0  0  0  0  0  0  0
   47.7806   32.0662   45.8424 H   0  0  0  0  0  0  0  0  0  0  0  0
   45.2010   36.7710   41.9167 H   0  0  0  0  0  0  0  0  0  0  0  0
   44.0764   37.4442   43.1270 H   0  0  0  0  0  0  0  0  0  0  0  0
   43.9430   28.8003   46.0759 H   0  0  0  0  0  0  0  0  0  0  0  0
   44.2845   30.7586   41.1373 H   0  0  0  0  0  0  0  0  0  0  0  0
   40.9229   28.4282   42.1733 H   0  0  0  0  0  0  0  0  0  0  0  0
  1  6  2  0
  2  1  1  0
  3  2  2  0
  3  4  1  0
  4  5  2  0
  5  6  1  0
  5  7  1  0
  7 11  1  0
  7  8  1  0
  8  9  1  0
 10  9  1  0
 11 10  1  0
 12  2  1  0
 13 11  1  0
 15 14  1  0
 15 13  1  0
 16 15  2  0
 17 16  1  0
 17 22  2  0
 18 17  1  0
 19 18  2  0
 19 20  1  0
 20 21  2  0
 21 22  1  0
 22 14  1  0
  1 23  1  0
  3 24  1  0
  8 25  1  0
  8 26  1  0
  9 27  1  0
  9 28  1  0
 10 29  1  0
 10 30  1  0
 11 31  1  6
 12 32  1  0
 12 33  1  0
 14 34  1  0
 18 35  1  0
 20 36  1  0
M  ISO  8  23  14  24  14  25  13  26  13  27  13  28  13  29  13  30  13
M  ISO  4  31  13  34   9  35  14  36  14
M  END
>  <minimizedAffinity>  (1) 
-5.39374876

>  <minimizedRMSD>  (1) 
0.882258236

$$$$
