
     RDKit          3D

 27 29  0  0  0  0  0  0  0  0999 V2000
   44.8820   35.0510   45.2900 C   0  0  0  0  0  0  0  0  0  0  0  0
   45.7780   34.2400   44.5730 C   0  0  0  0  0  0  0  0  0  0  0  0
   46.2340   34.6980   43.3500 C   0  0  0  0  0  0  0  0  0  0  0  0
   45.7980   35.9110   42.8910 N   0  0  0  0  0  0  0  0  0  0  0  0
   44.9360   36.6720   43.5990 C   0  0  0  0  0  0  0  0  0  0  0  0
   44.4780   36.2420   44.7990 N   0  0  0  0  0  0  0  0  0  0  0  0
   46.1630   32.9980   45.1490 N   0  0  0  0  0  0  0  0  0  0  0  0
   46.8940   32.8700   46.2720 C   0  0  0  0  0  0  0  0  0  0  0  0
   47.0980   31.5930   46.5690 N   0  0  0  0  0  0  0  0  0  0  0  0
   46.4960   30.8460   45.6340 C   0  0  0  0  0  0  0  0  0  0  0  0
   46.3700   29.4740   45.4210 C   0  0  0  0  0  0  0  0  0  0  0  0
   45.6670   29.0680   44.3350 N   0  0  0  0  0  0  0  0  0  0  0  0
   45.1120   29.9580   43.4930 C   0  0  0  0  0  0  0  0  0  0  0  0
   45.2140   31.2960   43.6660 N   0  0  0  0  0  0  0  0  0  0  0  0
   45.9150   31.7370   44.7510 C   0  0  0  0  0  0  0  0  0  0  0  0
   47.1210   33.8910   42.6480 O   0  0  0  0  0  0  0  0  0  0  0  0
   48.0990   34.7770   40.3560 O   0  0  0  0  0  0  0  0  0  0  0  0
   47.0400   33.8460   40.9300 P   0  0  0  0  0  0  0  0  0  0  0  0
   47.2610   32.2590   40.4260 O   0  0  0  0  0  0  0  0  0  0  0  0
   45.5130   34.4160   40.4830 O   0  0  0  0  0  0  0  0  0  0  0  0
   44.5043   34.7106   46.2654 H   0  0  0  0  0  0  0  0  0  0  0  0
   44.6053   37.6425   43.2006 H   0  0  0  0  0  0  0  0  0  0  0  0
   47.2730   33.7144   46.8663 H   0  0  0  0  0  0  0  0  0  0  0  0
   46.8248   28.7466   46.1096 H   0  0  0  0  0  0  0  0  0  0  0  0
   44.5504   29.5814   42.6254 H   0  0  0  0  0  0  0  0  0  0  0  0
   47.3430   31.6698   41.2174 H   0  0  0  0  0  0  0  0  0  0  0  0
   44.9836   34.6136   41.2959 H   0  0  0  0  0  0  0  0  0  0  0  0
  2  7  1  0
  2  1  2  0
  3  2  1  0
  4  3  2  0
  4  5  1  0
  5  6  2  0
  6  1  1  0
  7  8  1  0
  8  9  2  0
 10  9  1  0
 11 10  2  0
 12 11  1  0
 13 14  1  0
 13 12  2  0
 14 15  2  0
 15  7  1  0
 15 10  1  0
 16  3  1  0
 17 18  2  0
 18 16  1  0
 19 18  1  0
 20 18  1  0
  1 21  1  0
  5 22  1  0
  8 23  1  0
 11 24  1  0
 13 25  1  0
 19 26  1  0
 20 27  1  0
M  ISO  7  21  14  22  14  23  14  24  14  25  14  26   3  27   3
M  END
>  <minimizedAffinity>  (1) 
-4.41622114

>  <minimizedRMSD>  (1) 
6.43574619

$$$$
