
     RDKit          3D

 27 29  0  0  0  0  0  0  0  0999 V2000
   44.5880   36.1070   44.4400 C   0  0  0  0  0  0  0  0  0  0  0  0
   45.2440   36.0010   43.1910 C   0  0  0  0  0  0  0  0  0  0  0  0
   46.0710   34.9060   42.9890 C   0  0  0  0  0  0  0  0  0  0  0  0
   46.2190   33.9960   43.9810 N   0  0  0  0  0  0  0  0  0  0  0  0
   45.5850   34.1150   45.1630 C   0  0  0  0  0  0  0  0  0  0  0  0
   44.7690   35.1730   45.3880 N   0  0  0  0  0  0  0  0  0  0  0  0
   45.7760   33.1260   46.1730 N   0  0  0  0  0  0  0  0  0  0  0  0
   45.2410   33.1560   47.4090 C   0  0  0  0  0  0  0  0  0  0  0  0
   45.6580   32.0470   48.0550 N   0  0  0  0  0  0  0  0  0  0  0  0
   46.4510   31.3170   47.2420 C   0  0  0  0  0  0  0  0  0  0  0  0
   47.1050   30.1030   47.4780 C   0  0  0  0  0  0  0  0  0  0  0  0
   47.8200   29.6520   46.4320 N   0  0  0  0  0  0  0  0  0  0  0  0
   47.8840   30.3330   45.2740 C   0  0  0  0  0  0  0  0  0  0  0  0
   47.2500   31.5090   45.0440 N   0  0  0  0  0  0  0  0  0  0  0  0
   46.5200   32.0100   46.0510 C   0  0  0  0  0  0  0  0  0  0  0  0
   46.7040   34.8250   41.7550 O   0  0  0  0  0  0  0  0  0  0  0  0
   48.7080   33.2460   41.0570 O   0  0  0  0  0  0  0  0  0  0  0  0
   48.4070   34.5880   41.7050 P   0  0  0  0  0  0  0  0  0  0  0  0
   49.0890   35.8520   40.8580 O   0  0  0  0  0  0  0  0  0  0  0  0
   48.9530   34.5240   43.3050 O   0  0  0  0  0  0  0  0  0  0  0  0
   43.9240   36.9617   44.6364 H   0  0  0  0  0  0  0  0  0  0  0  0
   45.1031   36.7603   42.4077 H   0  0  0  0  0  0  0  0  0  0  0  0
   44.5854   33.9397   47.8164 H   0  0  0  0  0  0  0  0  0  0  0  0
   47.0401   29.5646   48.4350 H   0  0  0  0  0  0  0  0  0  0  0  0
   48.4903   29.9081   44.4605 H   0  0  0  0  0  0  0  0  0  0  0  0
   49.4491   36.5194   41.4944 H   0  0  0  0  0  0  0  0  0  0  0  0
   48.1828   34.6143   43.9204 H   0  0  0  0  0  0  0  0  0  0  0  0
  1  6  2  0
  2  1  1  0
  3  2  2  0
  3  4  1  0
  4  5  2  0
  5  6  1  0
  5  7  1  0
  7  8  1  0
  8  9  2  0
 10 11  2  0
 10  9  1  0
 12 11  1  0
 13 12  2  0
 14 13  1  0
 14 15  2  0
 15  7  1  0
 15 10  1  0
 16  3  1  0
 17 18  2  0
 18 16  1  0
 18 20  1  0
 19 18  1  0
  1 21  1  0
  2 22  1  0
  8 23  1  0
 11 24  1  0
 13 25  1  0
 19 26  1  0
 20 27  1  0
M  ISO  7  21  14  22  14  23  14  24  14  25  14  26   3  27   3
M  END
>  <minimizedAffinity>  (1) 
-6.149611

>  <minimizedRMSD>  (1) 
0.282297462

$$$$
