
     RDKit          3D

 47 51  0  0  0  0  0  0  0  0999 V2000
   45.1720   35.5990   43.1080 C   0  0  0  0  0  0  0  0  0  0  0  0
   45.5300   34.2610   43.1710 C   0  0  0  0  0  0  0  0  0  0  0  0
   45.4330   33.5810   44.3610 C   0  0  0  0  0  0  0  0  0  0  0  0
   44.9710   34.2920   45.4520 N   0  0  0  0  0  0  0  0  0  0  0  0
   44.6300   35.5760   45.3840 C   0  0  0  0  0  0  0  0  0  0  0  0
   44.7370   36.2190   44.2020 N   0  0  0  0  0  0  0  0  0  0  0  0
   45.7570   32.2230   44.5910 C   0  0  0  0  0  0  0  0  0  0  0  0
   45.4070   31.1790   43.7310 C   0  0  0  0  0  0  0  0  0  0  0  0
   45.6590   29.8570   43.9840 C   0  0  0  0  0  0  0  0  0  0  0  0
   46.2960   29.4950   45.1510 C   0  0  0  0  0  0  0  0  0  0  0  0
   46.6620   30.5420   46.0400 C   0  0  0  0  0  0  0  0  0  0  0  0
   47.2950   30.1940   47.2050 C   0  0  0  0  0  0  0  0  0  0  0  0
   47.6780   31.1630   48.1110 C   0  0  0  0  0  0  0  0  0  0  0  0
   47.4170   32.5140   47.8290 C   0  0  0  0  0  0  0  0  0  0  0  0
   46.7640   32.8200   46.6200 C   0  0  0  0  0  0  0  0  0  0  0  0
   46.3920   31.8390   45.7430 C   0  0  0  0  0  0  0  0  0  0  0  0
   45.9670   33.6740   42.0170 O   0  0  0  0  0  0  0  0  0  0  0  0
   48.1240   32.3970   41.2540 O   0  0  0  0  0  0  0  0  0  0  0  0
   47.5560   33.7620   41.4370 P   0  0  1  0  0  0  0  0  0  0  0  0
   47.6080   34.5210   39.9240 O   0  0  0  0  0  0  0  0  0  0  0  0
   49.1060   33.1380   38.5570 N   0  0  0  0  0  0  0  0  0  0  0  0
   47.9400   33.7640   38.8090 C   0  0  0  0  0  0  0  0  0  0  0  0
   47.1230   33.5250   37.7650 N   0  0  0  0  0  0  0  0  0  0  0  0
   47.7410   32.7600   36.8500 C   0  0  0  0  0  0  0  0  0  0  0  0
   47.3060   32.2770   35.6510 C   0  0  0  0  0  0  0  0  0  0  0  0
   48.1820   31.5170   34.9360 N   0  0  0  0  0  0  0  0  0  0  0  0
   49.4200   31.2760   35.4330 C   0  0  0  0  0  0  0  0  0  0  0  0
   49.8540   31.7520   36.6160 N   0  0  0  0  0  0  0  0  0  0  0  0
   49.0040   32.5150   37.3540 C   0  0  0  0  0  0  0  0  0  0  0  0
   48.4660   34.6570   42.5230 O   0  0  0  0  0  0  0  0  0  0  0  0
   49.6800   35.2780   42.2740 C   0  0  0  0  0  0  0  0  0  0  0  0
   49.3750   36.3580   41.7360 O   0  0  0  0  0  0  0  0  0  0  0  0
   50.7780   34.4590   42.7220 N   0  0  0  0  0  0  0  0  0  0  0  0
   45.2473   36.1462   42.1567 H   0  0  0  0  0  0  0  0  0  0  0  0
   44.2665   36.1055   46.2770 H   0  0  0  0  0  0  0  0  0  0  0  0
   44.8966   31.4353   42.7909 H   0  0  0  0  0  0  0  0  0  0  0  0
   45.3544   29.0877   43.2591 H   0  0  0  0  0  0  0  0  0  0  0  0
   46.5118   28.4419   45.3844 H   0  0  0  0  0  0  0  0  0  0  0  0
   47.4994   29.1347   47.4197 H   0  0  0  0  0  0  0  0  0  0  0  0
   48.1834   30.8793   49.0459 H   0  0  0  0  0  0  0  0  0  0  0  0
   47.7134   33.3077   48.5306 H   0  0  0  0  0  0  0  0  0  0  0  0
   46.5484   33.8706   46.3756 H   0  0  0  0  0  0  0  0  0  0  0  0
   49.9329   33.1326   39.1710 H   0  0  0  0  0  0  0  0  0  0  0  0
   46.2936   32.4914   35.2781 H   0  0  0  0  0  0  0  0  0  0  0  0
   50.1079   30.6578   34.8375 H   0  0  0  0  0  0  0  0  0  0  0  0
   51.7471   34.7877   42.6047 H   0  0  0  0  0  0  0  0  0  0  0  0
   50.5937   33.5449   43.1595 H   0  0  0  0  0  0  0  0  0  0  0  0
  1  2  2  0
  1  6  1  0
  2  3  1  0
  3  7  1  0
  3  4  2  0
  5  4  1  0
  6  5  2  0
  7 16  2  0
  8  9  2  0
  8  7  1  0
  9 10  1  0
 10 11  2  0
 11 12  1  0
 12 13  2  0
 14 13  1  0
 15 14  2  0
 16 11  1  0
 16 15  1  0
 17  2  1  0
 19 18  2  0
 19 17  1  0
 19 30  1  0
 20 19  1  0
 21 22  1  0
 22 20  1  0
 23 22  2  0
 24 29  2  0
 24 23  1  0
 25 24  1  0
 26 27  1  0
 26 25  2  0
 27 28  2  0
 28 29  1  0
 29 21  1  0
 31 30  1  0
 31 33  1  0
 32 31  2  0
  1 34  1  0
  5 35  1  0
  8 36  1  0
  9 37  1  0
 10 38  1  0
 12 39  1  0
 13 40  1  0
 14 41  1  0
 15 42  1  0
 21 43  1  0
 25 44  1  0
 27 45  1  0
 33 46  1  0
 33 47  1  0
M  ISO  8  34  14  35  14  36  14  37  14  38  14  39  14  40  14  41  14
M  ISO  4  42  14  43   9  44  14  45  14
M  END
>  <minimizedAffinity>  (1) 
-6.790133

>  <minimizedRMSD>  (1) 
1.1450913

$$$$
