
     RDKit          3D

 39 42  0  0  0  0  0  0  0  0999 V2000
   47.1760   32.9830   43.8570 N   0  0  0  0  0  0  0  0  0  0  0  0
   45.6460   34.0240   45.4940 C   0  0  0  0  0  0  0  0  0  0  0  0
   44.7490   35.0490   45.6670 C   0  0  0  0  0  0  0  0  0  0  0  0
   44.4160   35.9700   44.7060 C   0  0  0  0  0  0  0  0  0  0  0  0
   45.0090   35.8800   43.4720 C   0  0  0  0  0  0  0  0  0  0  0  0
   45.9130   34.8710   43.2540 C   0  0  0  0  0  0  0  0  0  0  0  0
   46.2280   33.9550   44.2480 C   0  0  0  0  0  0  0  0  0  0  0  0
   47.4560   31.4930   47.4020 C   0  0  0  0  0  0  0  0  0  0  0  0
   46.6480   31.2580   48.4980 C   0  0  0  0  0  0  0  0  0  0  0  0
   45.4600   31.9780   48.5880 C   0  0  0  0  0  0  0  0  0  0  0  0
   45.1310   32.8790   47.6140 N   0  0  0  0  0  0  0  0  0  0  0  0
   45.9590   33.0820   46.5430 C   0  0  0  0  0  0  0  0  0  0  0  0
   47.0900   32.3760   46.4860 N   0  0  0  0  0  0  0  0  0  0  0  0
   48.5360   33.0400   42.8390 S   0  0  0  0  0  0  0  0  0  0  0  0
   48.0420   33.0700   41.3910 O   0  0  0  0  0  0  0  0  0  0  0  0
   49.4390   34.2130   43.0550 O   0  0  0  0  0  0  0  0  0  0  0  0
   49.3490   31.5760   42.9940 O   0  0  0  0  0  0  0  0  0  0  0  0
   50.7040   31.8540   41.0400 N   0  0  0  0  0  0  0  0  0  0  0  0
   50.4540   31.2620   42.2190 C   0  0  0  0  0  0  0  0  0  0  0  0
   51.4380   30.3790   42.4420 N   0  0  0  0  0  0  0  0  0  0  0  0
   52.3070   30.4090   41.4120 C   0  0  0  0  0  0  0  0  0  0  0  0
   53.4820   29.7410   41.0910 C   0  0  0  0  0  0  0  0  0  0  0  0
   54.1340   30.0080   39.9500 N   0  0  0  0  0  0  0  0  0  0  0  0
   53.6650   30.9370   39.0740 C   0  0  0  0  0  0  0  0  0  0  0  0
   52.5290   31.5830   39.3810 N   0  0  0  0  0  0  0  0  0  0  0  0
   51.8370   31.3530   40.5130 C   0  0  0  0  0  0  0  0  0  0  0  0
   47.0098   32.0548   44.2715 H   0  0  0  0  0  0  0  0  0  0  0  0
   44.2611   35.1385   46.6488 H   0  0  0  0  0  0  0  0  0  0  0  0
   43.6873   36.7655   44.9209 H   0  0  0  0  0  0  0  0  0  0  0  0
   44.7655   36.5996   42.6764 H   0  0  0  0  0  0  0  0  0  0  0  0
   46.3984   34.7863   42.2705 H   0  0  0  0  0  0  0  0  0  0  0  0
   48.4039   30.9461   47.2905 H   0  0  0  0  0  0  0  0  0  0  0  0
   46.9330   30.5289   49.2708 H   0  0  0  0  0  0  0  0  0  0  0  0
   44.7858   31.8219   49.4431 H   0  0  0  0  0  0  0  0  0  0  0  0
   47.0539   33.1300   41.3806 H   0  0  0  0  0  0  0  0  0  0  0  0
   49.5560   34.3650   44.0262 H   0  0  0  0  0  0  0  0  0  0  0  0
   50.1181   32.5809   40.6050 H   0  0  0  0  0  0  0  0  0  0  0  0
   53.8824   28.9838   41.7812 H   0  0  0  0  0  0  0  0  0  0  0  0
   54.2024   31.1532   38.1388 H   0  0  0  0  0  0  0  0  0  0  0  0
  1  7  1  0
  2  3  2  0
  2 12  1  0
  4  3  1  0
  5  4  2  0
  6  5  1  0
  6  7  2  0
  7  2  1  0
  8  9  2  0
  9 10  1  0
 11 10  2  0
 12 11  1  0
 13 12  2  0
 13  8  1  0
 14 17  1  0
 14 16  1  0
 14  1  1  0
 15 14  1  0
 18 19  1  0
 19 20  2  0
 19 17  1  0
 21 20  1  0
 22 21  2  0
 23 22  1  0
 24 25  1  0
 24 23  2  0
 25 26  2  0
 26 18  1  0
 26 21  1  0
  1 27  1  0
  3 28  1  0
  4 29  1  0
  5 30  1  0
  6 31  1  0
  8 32  1  0
  9 33  1  0
 10 34  1  0
 15 35  1  0
 16 36  1  0
 18 37  1  0
 22 38  1  0
 24 39  1  0
M  ISO  8  28  14  29  14  30  14  31  14  32  14  33  14  34  14  35   3
M  ISO  4  36   3  37   9  38  14  39  14
M  END
>  <minimizedAffinity>  (1) 
-5.90740967

>  <minimizedRMSD>  (1) 
2.46141434

$$$$
