
     RDKit          3D

 43 47  0  0  0  0  0  0  0  0999 V2000
   47.7120   30.9710   46.0020 C   0  0  0  0  0  0  0  0  0  0  0  0
   46.9960   32.0470   45.5340 C   0  0  0  0  0  0  0  0  0  0  0  0
   46.0040   32.5750   46.3350 C   0  0  0  0  0  0  0  0  0  0  0  0
   45.7090   32.0640   47.5800 C   0  0  0  0  0  0  0  0  0  0  0  0
   44.8450   32.3180   48.5870 N   0  0  0  0  0  0  0  0  0  0  0  0
   45.0250   31.4510   49.6040 C   0  0  0  0  0  0  0  0  0  0  0  0
   46.0220   30.6380   49.2250 N   0  0  0  0  0  0  0  0  0  0  0  0
   46.4560   30.9850   48.0050 C   0  0  0  0  0  0  0  0  0  0  0  0
   47.4520   30.4250   47.2460 C   0  0  0  0  0  0  0  0  0  0  0  0
   47.2120   34.3940   42.7290 C   0  0  0  0  0  0  0  0  0  0  0  0
   47.8300   33.6360   41.7400 C   0  0  0  0  0  0  0  0  0  0  0  0
   48.1590   32.3230   42.0680 C   0  0  0  0  0  0  0  0  0  0  0  0
   47.8750   31.8430   43.3020 N   0  0  0  0  0  0  0  0  0  0  0  0
   47.2780   32.6180   44.2190 C   0  0  0  0  0  0  0  0  0  0  0  0
   46.9420   33.8860   43.9530 N   0  0  0  0  0  0  0  0  0  0  0  0
   48.0880   34.2810   40.4230 C   0  0  0  0  0  0  0  0  0  0  0  0
   48.6060   35.5220   40.7340 F   0  0  0  0  0  0  0  0  0  0  0  0
   46.9040   34.4220   39.7770 F   0  0  0  0  0  0  0  0  0  0  0  0
   48.9870   33.4780   39.7180 F   0  0  0  0  0  0  0  0  0  0  0  0
   48.1610   29.3410   47.7370 O   0  0  0  0  0  0  0  0  0  0  0  0
   49.7380   28.0090   49.3050 O   0  0  0  0  0  0  0  0  0  0  0  0
   49.4360   29.4450   48.8380 P   0  0  2  0  0  0  0  0  0  0  0  0
   48.9120   30.3210   50.1800 O   0  0  0  0  0  0  0  0  0  0  0  0
   50.8360   30.0910   48.1790 O   0  0  0  0  0  0  0  0  0  0  0  0
   50.8290   28.4790   46.2690 N   0  0  0  0  0  0  0  0  0  0  0  0
   51.3680   29.4380   47.0490 C   0  0  0  0  0  0  0  0  0  0  0  0
   52.6020   29.6890   46.5250 N   0  0  0  0  0  0  0  0  0  0  0  0
   52.8140   28.8980   45.4430 C   0  0  0  0  0  0  0  0  0  0  0  0
   53.9360   28.8520   44.6400 C   0  0  0  0  0  0  0  0  0  0  0  0
   53.8840   27.9730   43.6300 N   0  0  0  0  0  0  0  0  0  0  0  0
   52.7800   27.1930   43.4390 C   0  0  0  0  0  0  0  0  0  0  0  0
   51.7180   27.2910   44.2630 N   0  0  0  0  0  0  0  0  0  0  0  0
   51.6880   28.1460   45.3000 C   0  0  0  0  0  0  0  0  0  0  0  0
   48.5056   30.5366   45.3763 H   0  0  0  0  0  0  0  0  0  0  0  0
   45.4274   33.4359   45.9657 H   0  0  0  0  0  0  0  0  0  0  0  0
   44.1435   33.0721   48.5790 H   0  0  0  0  0  0  0  0  0  0  0  0
   44.4675   31.4174   50.5517 H   0  0  0  0  0  0  0  0  0  0  0  0
   46.9351   35.4357   42.5095 H   0  0  0  0  0  0  0  0  0  0  0  0
   48.6492   31.6764   41.3253 H   0  0  0  0  0  0  0  0  0  0  0  0
   49.1908   29.8549   51.0077 H   0  0  0  0  0  0  0  0  0  0  0  0
   49.8951   28.0649   46.4001 H   0  0  0  0  0  0  0  0  0  0  0  0
   54.8124   29.4928   44.8171 H   0  0  0  0  0  0  0  0  0  0  0  0
   52.7570   26.4772   42.6041 H   0  0  0  0  0  0  0  0  0  0  0  0
  1  9  2  0
  2  1  1  0
  2  3  2  0
  3  4  1  0
  4  8  2  0
  4  5  1  0
  5  6  1  0
  7  6  2  0
  8  7  1  0
  9 20  1  0
  9  8  1  0
 10 15  2  0
 11 12  2  0
 11 10  1  0
 12 13  1  0
 13 14  2  0
 14  2  1  0
 15 14  1  0
 16 17  1  0
 16 11  1  0
 18 16  1  0
 19 16  1  0
 20 22  1  0
 22 21  2  0
 22 23  1  0
 24 22  1  0
 25 26  1  0
 26 24  1  0
 27 26  2  0
 28 27  1  0
 29 28  2  0
 30 29  1  0
 31 30  2  0
 31 32  1  0
 32 33  2  0
 33 28  1  0
 33 25  1  0
  1 34  1  0
  3 35  1  0
  5 36  1  0
  6 37  1  0
 10 38  1  0
 12 39  1  0
 23 40  1  0
 25 41  1  0
 29 42  1  0
 31 43  1  0
M  ISO  8  34  14  35  14  36   9  37  14  38  14  39  14  40   3  41   9
M  ISO  2  42  14  43  14
M  END
>  <minimizedAffinity>  (1) 
-5.56822062

>  <minimizedRMSD>  (1) 
0.69533658

$$$$
