
     RDKit          3D

 50 54  0  0  1  0  0  0  0  0999 V2000
   47.1500   34.1160   42.4430 C   0  0  2  0  0  0  0  0  0  0  0  0
   48.5570   34.5950   42.6380 C   0  0  0  0  0  0  0  0  0  0  0  0
   48.9530   35.6140   41.6430 C   0  0  0  0  0  0  0  0  0  0  0  0
   48.7590   35.1590   40.2130 C   0  0  0  0  0  0  0  0  0  0  0  0
   47.5100   34.3580   40.0010 C   0  0  0  0  0  0  0  0  0  0  0  0
   46.5290   34.4810   41.1450 C   0  0  1  0  0  0  0  0  0  0  0  0
   46.2590   34.4880   43.5610 C   0  0  0  0  0  0  0  0  0  0  0  0
   45.5500   35.6530   43.3310 C   0  0  0  0  0  0  0  0  0  0  0  0
   44.6550   36.1310   44.3040 C   0  0  0  0  0  0  0  0  0  0  0  0
   44.5590   35.3520   45.4650 N   0  0  0  0  0  0  0  0  0  0  0  0
   45.2740   34.2220   45.6410 C   0  0  0  0  0  0  0  0  0  0  0  0
   46.1160   33.8070   44.6790 N   0  0  0  0  0  0  0  0  0  0  0  0
   45.3990   33.5250   40.8850 C   0  0  2  0  0  0  0  0  0  0  0  0
   45.0320   33.2460   39.4370 C   0  0  0  0  0  0  0  0  0  0  0  0
   44.1170   34.0050   40.3040 C   0  0  1  0  0  0  0  0  0  0  0  0
   42.9200   33.4100   40.9830 C   0  0  0  0  0  0  0  0  0  0  0  0
   41.9480   34.4330   41.5060 C   0  0  0  0  0  0  0  0  0  0  0  0
   40.6210   34.0030   41.0390 N   0  0  0  0  0  0  0  0  0  0  0  0
   39.7020   34.6280   40.2910 C   0  0  0  0  0  0  0  0  0  0  0  0
   38.6330   33.8300   40.1210 N   0  0  0  0  0  0  0  0  0  0  0  0
   38.8200   32.6730   40.7460 C   0  0  0  0  0  0  0  0  0  0  0  0
   38.0840   31.5170   40.9080 C   0  0  0  0  0  0  0  0  0  0  0  0
   38.6010   30.4870   41.6410 N   0  0  0  0  0  0  0  0  0  0  0  0
   39.8400   30.6420   42.1900 C   0  0  0  0  0  0  0  0  0  0  0  0
   40.5650   31.7660   42.0370 N   0  0  0  0  0  0  0  0  0  0  0  0
   40.0650   32.7950   41.3150 C   0  0  0  0  0  0  0  0  0  0  0  0
   47.2610   33.0217   42.4262 H   0  0  0  0  0  0  0  0  0  0  0  0
   48.6444   35.0319   43.6437 H   0  0  0  0  0  0  0  0  0  0  0  0
   49.2243   33.7295   42.5126 H   0  0  0  0  0  0  0  0  0  0  0  0
   48.3470   36.5172   41.8076 H   0  0  0  0  0  0  0  0  0  0  0  0
   50.0272   35.8057   41.7818 H   0  0  0  0  0  0  0  0  0  0  0  0
   48.7147   36.0490   39.5681 H   0  0  0  0  0  0  0  0  0  0  0  0
   49.6074   34.5040   39.9656 H   0  0  0  0  0  0  0  0  0  0  0  0
   47.0207   34.7084   39.0802 H   0  0  0  0  0  0  0  0  0  0  0  0
   47.8046   33.3004   39.9320 H   0  0  0  0  0  0  0  0  0  0  0  0
   46.1874   35.5249   41.2048 H   0  0  0  0  0  0  0  0  0  0  0  0
   45.6861   36.2043   42.3889 H   0  0  0  0  0  0  0  0  0  0  0  0
   44.0707   37.0524   44.1638 H   0  0  0  0  0  0  0  0  0  0  0  0
   45.1683   33.6416   46.5694 H   0  0  0  0  0  0  0  0  0  0  0  0
   45.6663   32.9358   41.7746 H   0  0  0  0  0  0  0  0  0  0  0  0
   44.7720   32.2249   39.1213 H   0  0  0  0  0  0  0  0  0  0  0  0
   45.5107   33.4237   38.4627 H   0  0  0  0  0  0  0  0  0  0  0  0
   43.5917   34.9516   40.1091 H   0  0  0  0  0  0  0  0  0  0  0  0
   42.3938   32.7694   40.2600 H   0  0  0  0  0  0  0  0  0  0  0  0
   43.2913   32.8469   41.8519 H   0  0  0  0  0  0  0  0  0  0  0  0
   41.9764   34.4610   42.6053 H   0  0  0  0  0  0  0  0  0  0  0  0
   42.1941   35.4439   41.1489 H   0  0  0  0  0  0  0  0  0  0  0  0
   39.8062   35.6421   39.8777 H   0  0  0  0  0  0  0  0  0  0  0  0
   37.0880   31.4257   40.4501 H   0  0  0  0  0  0  0  0  0  0  0  0
   40.2633   29.8163   42.7808 H   0  0  0  0  0  0  0  0  0  0  0  0
  1  2  1  0
  1  7  1  0
  3  2  1  0
  4  3  1  0
  5  4  1  0
  5  6  1  0
  6  1  1  0
  7 12  1  0
  8  7  2  0
  8  9  1  0
  9 10  2  0
 10 11  1  0
 12 11  2  0
 13  6  1  0
 14 15  1  0
 14 13  1  0
 15 13  1  0
 15 16  1  0
 16 17  1  0
 18 26  1  0
 18 17  1  0
 19 18  1  0
 20 19  2  0
 20 21  1  0
 21 22  2  0
 21 26  1  0
 22 23  1  0
 23 24  2  0
 25 24  1  0
 26 25  2  0
  1 27  1  6
  2 28  1  0
  2 29  1  0
  3 30  1  0
  3 31  1  0
  4 32  1  0
  4 33  1  0
  5 34  1  0
  5 35  1  0
  6 36  1  1
  8 37  1  0
  9 38  1  0
 11 39  1  0
 13 40  1  1
 14 41  1  0
 14 42  1  0
 15 43  1  6
 16 44  1  0
 16 45  1  0
 17 46  1  0
 17 47  1  0
 19 48  1  0
 22 49  1  0
 24 50  1  0
M  ISO  8  27  13  28  13  29  13  30  13  31  13  32  13  33  13  34  13
M  ISO  8  35  13  36  13  37  14  38  14  39  14  40  13  41  13  42  13
M  ISO  8  43  13  44   8  45   8  46   8  47   8  48  14  49  14  50  14
M  END
>  <minimizedAffinity>  (1) 
-6.98223543

>  <minimizedRMSD>  (1) 
2.21332526

$$$$
