
     RDKit          3D

 53 57  0  0  0  0  0  0  0  0999 V2000
   41.4160   30.3540   41.9010 N   0  0  0  0  0  0  0  0  0  0  0  0
   41.4880   29.2730   42.8260 C   0  0  0  0  0  0  0  0  0  0  0  0
   40.1070   29.4170   43.4640 C   0  0  0  0  0  0  0  0  0  0  0  0
   39.0060   29.2830   42.5260 C   0  0  0  0  0  0  0  0  0  0  0  0
   39.2330   29.5590   41.1240 C   0  0  0  0  0  0  0  0  0  0  0  0
   40.5500   30.1740   40.7120 C   0  0  0  0  0  0  0  0  0  0  0  0
   42.0240   31.5390   41.9710 C   0  0  0  0  0  0  0  0  0  0  0  0
   43.4860   31.4490   42.2270 C   0  0  0  0  0  0  0  0  0  0  0  0
   44.0500   32.8090   42.1630 C   0  0  0  0  0  0  0  0  0  0  0  0
   43.2210   33.9040   42.0470 C   0  0  0  0  0  0  0  0  0  0  0  0
   43.8030   35.1610   41.9760 C   0  0  0  0  0  0  0  0  0  0  0  0
   45.1650   35.2510   42.0280 N   0  0  0  0  0  0  0  0  0  0  0  0
   45.9340   34.1720   42.1420 C   0  0  0  0  0  0  0  0  0  0  0  0
   45.3530   32.9690   42.2070 N   0  0  0  0  0  0  0  0  0  0  0  0
   47.3820   34.3640   42.2180 C   0  0  0  0  0  0  0  0  0  0  0  0
   48.2020   33.3640   42.7330 C   0  0  0  0  0  0  0  0  0  0  0  0
   49.5570   33.5560   42.8040 C   0  0  0  0  0  0  0  0  0  0  0  0
   49.9870   34.7710   42.3390 C   0  0  0  0  0  0  0  0  0  0  0  0
   49.2160   35.8120   41.8130 C   0  0  0  0  0  0  0  0  0  0  0  0
   47.8880   35.5350   41.7810 N   0  0  0  0  0  0  0  0  0  0  0  0
   40.9210   30.6230   39.0820 S   0  0  0  0  0  0  0  0  0  0  0  0
   39.9320   31.9320   38.4800 C   0  0  0  0  0  0  0  0  0  0  0  0
   38.6590   32.0400   38.1190 N   0  0  0  0  0  0  0  0  0  0  0  0
   38.0620   33.1320   37.6750 C   0  0  0  0  0  0  0  0  0  0  0  0
   38.7510   34.2660   37.5590 N   0  0  0  0  0  0  0  0  0  0  0  0
   40.0580   34.2830   37.8980 C   0  0  0  0  0  0  0  0  0  0  0  0
   40.6820   35.4950   37.7450 C   0  0  0  0  0  0  0  0  0  0  0  0
   42.0100   35.5820   38.0710 C   0  0  0  0  0  0  0  0  0  0  0  0
   42.6620   34.4800   38.5300 C   0  0  0  0  0  0  0  0  0  0  0  0
   41.9940   33.2860   38.6670 C   0  0  0  0  0  0  0  0  0  0  0  0
   40.6510   33.1190   38.3590 C   0  0  0  0  0  0  0  0  0  0  0  0
   41.6103   28.3039   42.3201 H   0  0  0  0  0  0  0  0  0  0  0  0
   42.3382   29.3011   43.5235 H   0  0  0  0  0  0  0  0  0  0  0  0
   40.0000   28.6408   44.2361 H   0  0  0  0  0  0  0  0  0  0  0  0
   40.0516   30.4352   43.8765 H   0  0  0  0  0  0  0  0  0  0  0  0
   38.6501   28.2445   42.5951 H   0  0  0  0  0  0  0  0  0  0  0  0
   38.3024   30.0697   42.8359 H   0  0  0  0  0  0  0  0  0  0  0  0
   38.4629   29.3260   40.3739 H   0  0  0  0  0  0  0  0  0  0  0  0
   41.8707   32.0644   41.0168 H   0  0  0  0  0  0  0  0  0  0  0  0
   41.5819   32.0762   42.8231 H   0  0  0  0  0  0  0  0  0  0  0  0
   43.6636   31.0189   43.2237 H   0  0  0  0  0  0  0  0  0  0  0  0
   43.9641   30.8040   41.4751 H   0  0  0  0  0  0  0  0  0  0  0  0
   42.1281   33.7843   42.0117 H   0  0  0  0  0  0  0  0  0  0  0  0
   43.1824   36.0641   41.8801 H   0  0  0  0  0  0  0  0  0  0  0  0
   47.7619   32.4187   43.0833 H   0  0  0  0  0  0  0  0  0  0  0  0
   50.2445   32.7954   43.2025 H   0  0  0  0  0  0  0  0  0  0  0  0
   51.0715   34.9492   42.3852 H   0  0  0  0  0  0  0  0  0  0  0  0
   49.6438   36.7619   41.4599 H   0  0  0  0  0  0  0  0  0  0  0  0
   36.9969   33.1046   37.4014 H   0  0  0  0  0  0  0  0  0  0  0  0
   40.1323   36.3715   37.3715 H   0  0  0  0  0  0  0  0  0  0  0  0
   42.5453   36.5368   37.9622 H   0  0  0  0  0  0  0  0  0  0  0  0
   43.7282   34.5443   38.7927 H   0  0  0  0  0  0  0  0  0  0  0  0
   42.5542   32.4163   39.0409 H   0  0  0  0  0  0  0  0  0  0  0  0
  1  7  1  0
  1  2  1  0
  2  3  1  0
  4  3  1  0
  5  4  1  0
  6  5  2  0
  6  1  1  0
  7  8  1  0
  9 14  1  0
  9  8  1  0
 10  9  2  0
 11 12  2  0
 11 10  1  0
 12 13  1  0
 13 14  2  0
 13 15  1  0
 15 16  2  0
 16 17  1  0
 18 17  2  0
 19 18  1  0
 20 19  2  0
 20 15  1  0
 21  6  1  0
 22 21  1  0
 23 22  2  0
 24 23  1  0
 25 24  2  0
 25 26  1  0
 26 31  2  0
 27 26  1  0
 27 28  2  0
 28 29  1  0
 29 30  2  0
 31 22  1  0
 31 30  1  0
  2 32  1  0
  2 33  1  0
  3 34  1  0
  3 35  1  0
  4 36  1  0
  4 37  1  0
  5 38  1  0
  7 39  1  0
  7 40  1  0
  8 41  1  0
  8 42  1  0
 10 43  1  0
 11 44  1  0
 16 45  1  0
 17 46  1  0
 18 47  1  0
 19 48  1  0
 24 49  1  0
 27 50  1  0
 28 51  1  0
 29 52  1  0
 30 53  1  0
M  ISO  8  32  13  33  13  34  13  35  13  36  13  37  13  38  13  39   8
M  ISO  8  40   8  41   8  42   8  43  14  44  14  45  14  46  14  47  14
M  ISO  6  48  14  49  14  50  14  51  14  52  14  53  14
M  END
>  <minimizedAffinity>  (1) 
-6.20951366

>  <minimizedRMSD>  (1) 
3.62336802

$$$$
