
     RDKit          3D

 39 42  0  0  1  0  0  0  0  0999 V2000
   44.4950   35.5930   45.0610 C   0  0  0  0  0  0  0  0  0  0  0  0
   45.1570   35.5850   43.8220 C   0  0  0  0  0  0  0  0  0  0  0  0
   46.0940   34.6260   43.5780 C   0  0  0  0  0  0  0  0  0  0  0  0
   46.3180   33.7360   44.5750 N   0  0  0  0  0  0  0  0  0  0  0  0
   45.6920   33.7480   45.7410 C   0  0  0  0  0  0  0  0  0  0  0  0
   44.7630   34.6730   46.0250 N   0  0  0  0  0  0  0  0  0  0  0  0
   46.0320   32.7500   46.6860 N   0  0  0  0  0  0  0  0  0  0  0  0
   45.2270   32.4330   47.8760 C   0  0  0  0  0  0  0  0  0  0  0  0
   46.2920   32.1520   48.9110 C   0  0  0  0  0  0  0  0  0  0  0  0
   47.5980   32.0550   48.1720 C   0  0  0  0  0  0  0  0  0  0  0  0
   47.1450   31.8520   46.7510 C   0  0  1  0  0  0  0  0  0  0  0  0
   44.7440   36.6350   42.9250 N   0  0  0  0  0  0  0  0  0  0  0  0
   46.6930   30.1360   46.5070 S   0  0  0  0  0  0  0  0  0  0  0  0
   45.4680   29.8560   45.2740 C   0  0  0  0  0  0  0  0  0  0  0  0
   45.2560   30.5190   44.0980 N   0  0  0  0  0  0  0  0  0  0  0  0
   44.2420   30.1390   43.3070 C   0  0  0  0  0  0  0  0  0  0  0  0
   43.3900   29.1320   43.5780 N   0  0  0  0  0  0  0  0  0  0  0  0
   43.5640   28.4470   44.7330 C   0  0  0  0  0  0  0  0  0  0  0  0
   42.6510   27.4360   44.9390 C   0  0  0  0  0  0  0  0  0  0  0  0
   42.7940   26.7070   46.1240 C   0  0  0  0  0  0  0  0  0  0  0  0
   43.8020   27.0220   46.9980 C   0  0  0  0  0  0  0  0  0  0  0  0
   44.6760   28.0490   46.7180 C   0  0  0  0  0  0  0  0  0  0  0  0
   44.6000   28.8200   45.5620 C   0  0  0  0  0  0  0  0  0  0  0  0
   43.7376   36.3664   45.2567 H   0  0  0  0  0  0  0  0  0  0  0  0
   46.6388   34.5770   42.6237 H   0  0  0  0  0  0  0  0  0  0  0  0
   44.5978   33.2855   48.1714 H   0  0  0  0  0  0  0  0  0  0  0  0
   44.5237   31.6006   47.7265 H   0  0  0  0  0  0  0  0  0  0  0  0
   46.3319   32.9698   49.6455 H   0  0  0  0  0  0  0  0  0  0  0  0
   46.0768   31.2221   49.4577 H   0  0  0  0  0  0  0  0  0  0  0  0
   48.1844   32.9799   48.2754 H   0  0  0  0  0  0  0  0  0  0  0  0
   48.2573   31.2567   48.5436 H   0  0  0  0  0  0  0  0  0  0  0  0
   47.8923   32.0528   45.9692 H   0  0  0  0  0  0  0  0  0  0  0  0
   45.1720   36.7128   41.9914 H   0  0  0  0  0  0  0  0  0  0  0  0
   44.0209   37.3075   43.2176 H   0  0  0  0  0  0  0  0  0  0  0  0
   44.0953   30.6909   42.3669 H   0  0  0  0  0  0  0  0  0  0  0  0
   41.8549   27.2148   44.2128 H   0  0  0  0  0  0  0  0  0  0  0  0
   42.1007   25.8845   46.3537 H   0  0  0  0  0  0  0  0  0  0  0  0
   43.9138   26.4498   47.9308 H   0  0  0  0  0  0  0  0  0  0  0  0
   45.4728   28.2705   47.4433 H   0  0  0  0  0  0  0  0  0  0  0  0
  1  6  2  0
  2  1  1  0
  3  2  2  0
  3  4  1  0
  4  5  2  0
  5  6  1  0
  5  7  1  0
  7 11  1  0
  7  8  1  0
  8  9  1  0
 10  9  1  0
 11 10  1  0
 12  2  1  0
 13 11  1  0
 14 23  1  0
 14 13  1  0
 15 14  2  0
 16 17  2  0
 16 15  1  0
 17 18  1  0
 18 19  1  0
 18 23  2  0
 19 20  2  0
 20 21  1  0
 22 21  2  0
 23 22  1  0
  1 24  1  0
  3 25  1  0
  8 26  1  0
  8 27  1  0
  9 28  1  0
  9 29  1  0
 10 30  1  0
 10 31  1  0
 11 32  1  6
 12 33  1  0
 12 34  1  0
 16 35  1  0
 19 36  1  0
 20 37  1  0
 21 38  1  0
 22 39  1  0
M  ISO  8  24  14  25  14  26  13  27  13  28  13  29  13  30  13  31  13
M  ISO  6  32  13  35  14  36  14  37  14  38  14  39  14
M  END
>  <minimizedAffinity>  (1) 
-6.00298882

>  <minimizedRMSD>  (1) 
1.44856238

$$$$
