
     RDKit          3D

 46 50  0  0  1  0  0  0  0  0999 V2000
   46.0970   32.6200   38.8880 C   0  0  2  0  0  0  0  0  0  0  0  0
   46.9670   31.5790   38.3090 C   0  0  0  0  0  0  0  0  0  0  0  0
   46.4220   32.7460   37.4800 C   0  0  1  0  0  0  0  0  0  0  0  0
   46.5510   34.6210   41.9510 C   0  0  0  0  0  0  0  0  0  0  0  0
   47.7530   35.1990   41.6130 C   0  0  0  0  0  0  0  0  0  0  0  0
   48.4470   34.9810   40.4360 C   0  0  0  0  0  0  0  0  0  0  0  0
   47.8840   34.1090   39.5260 C   0  0  0  0  0  0  0  0  0  0  0  0
   46.6900   33.5440   39.8770 C   0  0  0  0  0  0  0  0  0  0  0  0
   46.0740   33.7920   41.0210 N   0  0  0  0  0  0  0  0  0  0  0  0
   44.4940   36.0860   44.7480 C   0  0  0  0  0  0  0  0  0  0  0  0
   45.0770   35.9930   43.4700 C   0  0  0  0  0  0  0  0  0  0  0  0
   45.8640   34.8860   43.2170 C   0  0  0  0  0  0  0  0  0  0  0  0
   46.0330   33.9630   44.1910 N   0  0  0  0  0  0  0  0  0  0  0  0
   45.4500   34.0900   45.4140 C   0  0  0  0  0  0  0  0  0  0  0  0
   44.6920   35.1490   45.6690 N   0  0  0  0  0  0  0  0  0  0  0  0
   45.4810   32.3970   36.4980 O   0  0  0  0  0  0  0  0  0  0  0  0
   46.0960   30.7110   34.6810 O   0  0  0  0  0  0  0  0  0  0  0  0
   46.1570   32.2180   34.9670 P   0  0  1  0  0  0  0  0  0  0  0  0
   45.2170   32.9690   33.8070 O   0  0  0  0  0  0  0  0  0  0  0  0
   47.7880   32.6170   34.8810 O   0  0  0  0  0  0  0  0  0  0  0  0
   48.4610   32.4280   33.6830 C   0  0  0  0  0  0  0  0  0  0  0  0
   48.1190   32.8750   32.4610 N   0  0  0  0  0  0  0  0  0  0  0  0
   48.8850   32.6030   31.3960 C   0  0  0  0  0  0  0  0  0  0  0  0
   50.0310   31.8700   31.5010 N   0  0  0  0  0  0  0  0  0  0  0  0
   50.3940   31.4120   32.7090 C   0  0  0  0  0  0  0  0  0  0  0  0
   51.5620   30.6810   32.7370 C   0  0  0  0  0  0  0  0  0  0  0  0
   51.9800   30.1870   33.9570 C   0  0  0  0  0  0  0  0  0  0  0  0
   51.2420   30.4270   35.0950 C   0  0  0  0  0  0  0  0  0  0  0  0
   50.0810   31.1630   35.0270 C   0  0  0  0  0  0  0  0  0  0  0  0
   49.6160   31.6810   33.8350 C   0  0  0  0  0  0  0  0  0  0  0  0
   45.1418   32.6149   39.4335 H   0  0  0  0  0  0  0  0  0  0  0  0
   48.0338   31.5349   38.5737 H   0  0  0  0  0  0  0  0  0  0  0  0
   46.9484   30.4814   38.2383 H   0  0  0  0  0  0  0  0  0  0  0  0
   46.8255   33.5684   36.8710 H   0  0  0  0  0  0  0  0  0  0  0  0
   48.2000   35.8931   42.3399 H   0  0  0  0  0  0  0  0  0  0  0  0
   49.4058   35.4809   40.2342 H   0  0  0  0  0  0  0  0  0  0  0  0
   48.3716   33.8804   38.5669 H   0  0  0  0  0  0  0  0  0  0  0  0
   43.8611   36.9528   44.9892 H   0  0  0  0  0  0  0  0  0  0  0  0
   44.9132   36.7676   42.7064 H   0  0  0  0  0  0  0  0  0  0  0  0
   45.6058   33.3211   46.1850 H   0  0  0  0  0  0  0  0  0  0  0  0
   44.5253   33.5217   34.2499 H   0  0  0  0  0  0  0  0  0  0  0  0
   48.5813   32.9814   30.4088 H   0  0  0  0  0  0  0  0  0  0  0  0
   52.1409   30.4975   31.8199 H   0  0  0  0  0  0  0  0  0  0  0  0
   52.9073   29.5987   34.0203 H   0  0  0  0  0  0  0  0  0  0  0  0
   51.5820   30.0287   36.0623 H   0  0  0  0  0  0  0  0  0  0  0  0
   49.5076   31.3435   35.9482 H   0  0  0  0  0  0  0  0  0  0  0  0
  1  8  1  0
  2  1  1  0
  3  2  1  0
  3  1  1  0
  4 12  1  0
  5  4  2  0
  6  5  1  0
  7  8  1  0
  7  6  2  0
  8  9  2  0
  9  4  1  0
 10 15  2  0
 11 10  1  0
 12 11  2  0
 12 13  1  0
 13 14  2  0
 14 15  1  0
 16  3  1  0
 18 17  2  0
 18 16  1  1
 19 18  1  0
 20 18  1  0
 21 30  1  0
 21 20  1  0
 22 21  2  0
 23 24  2  0
 23 22  1  0
 24 25  1  0
 25 26  1  0
 25 30  2  0
 26 27  2  0
 27 28  1  0
 29 28  2  0
 30 29  1  0
  1 31  1  6
  2 32  1  0
  2 33  1  0
  3 34  1  1
  5 35  1  0
  6 36  1  0
  7 37  1  0
 10 38  1  0
 11 39  1  0
 14 40  1  0
 19 41  1  0
 23 42  1  0
 26 43  1  0
 27 44  1  0
 28 45  1  0
 29 46  1  0
M  END
>  <minimizedAffinity>  (1) 
-7.41874981

>  <minimizedRMSD>  (1) 
2.66492128

$$$$
