
     RDKit          3D

 40 43  0  0  0  0  0  0  0  0999 V2000
   45.4740   30.8520   47.1630 C   0  0  0  0  0  0  0  0  0  0  0  0
   45.6000   30.1170   46.0180 C   0  0  0  0  0  0  0  0  0  0  0  0
   45.4240   28.8020   46.3420 C   0  0  0  0  0  0  0  0  0  0  0  0
   45.1960   28.7390   47.6560 N   0  0  0  0  0  0  0  0  0  0  0  0
   45.2300   29.9890   48.1420 N   0  0  0  0  0  0  0  0  0  0  0  0
   44.9720   27.4870   48.2960 C   0  0  0  0  0  0  0  0  0  0  0  0
   44.3190   27.3990   49.4720 N   0  0  0  0  0  0  0  0  0  0  0  0
   44.0890   26.2320   50.1080 C   0  0  0  0  0  0  0  0  0  0  0  0
   44.4990   25.0540   49.6050 N   0  0  0  0  0  0  0  0  0  0  0  0
   45.1630   25.0710   48.4220 C   0  0  0  0  0  0  0  0  0  0  0  0
   45.6230   23.9050   47.8270 C   0  0  0  0  0  0  0  0  0  0  0  0
   46.3010   23.9030   46.6220 C   0  0  0  0  0  0  0  0  0  0  0  0
   46.5200   25.1140   45.9990 C   0  0  0  0  0  0  0  0  0  0  0  0
   46.0830   26.3120   46.5450 C   0  0  0  0  0  0  0  0  0  0  0  0
   45.4040   26.2790   47.7600 C   0  0  0  0  0  0  0  0  0  0  0  0
   45.5730   32.3090   47.3830 C   0  0  0  0  0  0  0  0  0  0  0  0
   46.5900   32.9110   46.4510 C   0  0  0  0  0  0  0  0  0  0  0  0
   44.5400   35.5780   44.7730 C   0  0  0  0  0  0  0  0  0  0  0  0
   45.1490   35.5710   43.4920 C   0  0  0  0  0  0  0  0  0  0  0  0
   46.1970   34.6800   43.2850 C   0  0  0  0  0  0  0  0  0  0  0  0
   46.5540   33.8860   44.3200 N   0  0  0  0  0  0  0  0  0  0  0  0
   45.9570   33.9140   45.5270 C   0  0  0  0  0  0  0  0  0  0  0  0
   44.9510   34.7630   45.7410 N   0  0  0  0  0  0  0  0  0  0  0  0
   46.7980   34.6990   41.9610 C   0  0  0  0  0  0  0  0  0  0  0  0
   47.5970   33.5600   41.8070 F   0  0  0  0  0  0  0  0  0  0  0  0
   47.6910   35.7580   41.9520 F   0  0  0  0  0  0  0  0  0  0  0  0
   45.8810   34.7450   40.9490 F   0  0  0  0  0  0  0  0  0  0  0  0
   45.8066   30.5141   45.0132 H   0  0  0  0  0  0  0  0  0  0  0  0
   45.4630   27.9502   45.6471 H   0  0  0  0  0  0  0  0  0  0  0  0
   43.5499   26.2441   51.0668 H   0  0  0  0  0  0  0  0  0  0  0  0
   45.4413   22.9455   48.3333 H   0  0  0  0  0  0  0  0  0  0  0  0
   46.6554   22.9633   46.1733 H   0  0  0  0  0  0  0  0  0  0  0  0
   47.0578   25.1303   45.0396 H   0  0  0  0  0  0  0  0  0  0  0  0
   46.2687   27.2660   46.0299 H   0  0  0  0  0  0  0  0  0  0  0  0
   44.5923   32.7713   47.1972 H   0  0  0  0  0  0  0  0  0  0  0  0
   45.8864   32.4932   48.4212 H   0  0  0  0  0  0  0  0  0  0  0  0
   47.3683   33.4122   47.0452 H   0  0  0  0  0  0  0  0  0  0  0  0
   47.0245   32.1040   45.8427 H   0  0  0  0  0  0  0  0  0  0  0  0
   43.7099   36.2723   44.9704 H   0  0  0  0  0  0  0  0  0  0  0  0
   44.8057   36.2444   42.6928 H   0  0  0  0  0  0  0  0  0  0  0  0
  1 16  1  0
  1  5  2  0
  2  3  2  0
  2  1  1  0
  3  4  1  0
  4  5  1  0
  4  6  1  0
  6  7  2  0
  7  8  1  0
  9  8  2  0
 10  9  1  0
 11 10  2  0
 12 11  1  0
 13 14  1  0
 13 12  2  0
 14 15  2  0
 15  6  1  0
 15 10  1  0
 17 16  1  0
 18 23  2  0
 19 18  1  0
 20 19  2  0
 20 21  1  0
 21 22  2  0
 22 23  1  0
 22 17  1  0
 24 20  1  0
 25 24  1  0
 26 24  1  0
 27 24  1  0
  2 28  1  0
  3 29  1  0
  8 30  1  0
 11 31  1  0
 12 32  1  0
 13 33  1  0
 14 34  1  0
 16 35  1  0
 16 36  1  0
 17 37  1  0
 17 38  1  0
 18 39  1  0
 19 40  1  0
M  ISO  8  28  14  29  14  30  14  31  14  32  14  33  14  34  14  35   8
M  ISO  5  36   8  37   8  38   8  39  14  40  14
M  END
>  <minimizedAffinity>  (1) 
-5.66358471

>  <minimizedRMSD>  (1) 
1.94467568

$$$$
