
     RDKit          3D

 37 40  0  0  0  0  0  0  0  0999 V2000
   45.0250   34.8780   44.5080 C   0  0  0  0  0  0  0  0  0  0  0  0
   46.0960   34.5890   43.6540 C   0  0  0  0  0  0  0  0  0  0  0  0
   47.0560   33.6960   44.1380 C   0  0  0  0  0  0  0  0  0  0  0  0
   46.9100   33.1660   45.3780 N   0  0  0  0  0  0  0  0  0  0  0  0
   45.8510   33.4840   46.1590 C   0  0  0  0  0  0  0  0  0  0  0  0
   44.8950   34.3400   45.7420 N   0  0  0  0  0  0  0  0  0  0  0  0
   48.1880   33.3810   43.2790 C   0  0  0  0  0  0  0  0  0  0  0  0
   49.1990   34.2250   42.8490 C   0  0  0  0  0  0  0  0  0  0  0  0
   50.1940   33.7250   42.0220 C   0  0  0  0  0  0  0  0  0  0  0  0
   50.1760   32.4100   41.6360 C   0  0  0  0  0  0  0  0  0  0  0  0
   49.1720   31.5610   42.0590 C   0  0  0  0  0  0  0  0  0  0  0  0
   48.1850   32.0660   42.8820 C   0  0  0  0  0  0  0  0  0  0  0  0
   46.1430   35.2230   42.3430 C   0  0  0  0  0  0  0  0  0  0  0  0
   45.7040   34.4270   41.1990 C   0  0  0  0  0  0  0  0  0  0  0  0
   46.4000   33.5620   40.4350 N   0  0  0  0  0  0  0  0  0  0  0  0
   45.8160   32.8970   39.4110 C   0  0  0  0  0  0  0  0  0  0  0  0
   44.5110   33.0520   39.0850 N   0  0  0  0  0  0  0  0  0  0  0  0
   43.7790   33.9250   39.8430 C   0  0  0  0  0  0  0  0  0  0  0  0
   42.4490   34.0110   39.4270 C   0  0  0  0  0  0  0  0  0  0  0  0
   41.7090   34.9040   40.2060 C   0  0  0  0  0  0  0  0  0  0  0  0
   42.1920   35.6330   41.2680 C   0  0  0  0  0  0  0  0  0  0  0  0
   43.5050   35.4410   41.5500 C   0  0  0  0  0  0  0  0  0  0  0  0
   44.3730   34.6020   40.8860 C   0  0  0  0  0  0  0  0  0  0  0  0
   44.2511   35.5771   44.1581 H   0  0  0  0  0  0  0  0  0  0  0  0
   45.7678   33.0331   47.1589 H   0  0  0  0  0  0  0  0  0  0  0  0
   49.2125   35.2800   43.1600 H   0  0  0  0  0  0  0  0  0  0  0  0
   51.0010   34.3867   41.6744 H   0  0  0  0  0  0  0  0  0  0  0  0
   50.9716   32.0257   40.9807 H   0  0  0  0  0  0  0  0  0  0  0  0
   49.1590   30.5062   41.7472 H   0  0  0  0  0  0  0  0  0  0  0  0
   47.3793   31.4013   43.2270 H   0  0  0  0  0  0  0  0  0  0  0  0
   45.5066   36.1192   42.3860 H   0  0  0  0  0  0  0  0  0  0  0  0
   47.2103   35.4165   42.1603 H   0  0  0  0  0  0  0  0  0  0  0  0
   46.4277   32.2009   38.8183 H   0  0  0  0  0  0  0  0  0  0  0  0
   42.0320   33.4415   38.5834 H   0  0  0  0  0  0  0  0  0  0  0  0
   40.6479   35.0356   39.9477 H   0  0  0  0  0  0  0  0  0  0  0  0
   41.5592   36.3219   41.8468 H   0  0  0  0  0  0  0  0  0  0  0  0
   43.9183   36.0128   42.3939 H   0  0  0  0  0  0  0  0  0  0  0  0
  1  6  2  0
  2  3  2  0
  2  1  1  0
  3  4  1  0
  4  5  2  0
  6  5  1  0
  7  3  1  0
  8  7  2  0
  9  8  1  0
 10  9  2  0
 10 11  1  0
 11 12  2  0
 12  7  1  0
 13  2  1  0
 14 13  1  0
 15 14  2  0
 16 15  1  0
 17 16  2  0
 17 18  1  0
 18 23  2  0
 19 18  1  0
 19 20  2  0
 20 21  1  0
 21 22  2  0
 23 14  1  0
 23 22  1  0
  1 24  1  0
  5 25  1  0
  8 26  1  0
  9 27  1  0
 10 28  1  0
 11 29  1  0
 12 30  1  0
 13 31  1  0
 13 32  1  0
 16 33  1  0
 19 34  1  0
 20 35  1  0
 21 36  1  0
 22 37  1  0
M  ISO  8  24  14  25  14  26  14  27  14  28  14  29  14  30  14  31   8
M  ISO  6  32   8  33  14  34  14  35  14  36  14  37  14
M  END
>  <minimizedAffinity>  (1) 
-5.91853237

>  <minimizedRMSD>  (1) 
2.56588197

$$$$
