
     RDKit          3D

 25 27  0  0  0  0  0  0  0  0999 V2000
   46.5510   33.8370   40.5650 C   0  0  0  0  0  0  0  0  0  0  0  0
   45.3910   33.2540   40.9830 N   0  0  0  0  0  0  0  0  0  0  0  0
   44.6160   32.5410   40.1330 C   0  0  0  0  0  0  0  0  0  0  0  0
   45.0430   32.4370   38.8710 N   0  0  0  0  0  0  0  0  0  0  0  0
   46.1620   32.9780   38.3870 C   0  0  0  0  0  0  0  0  0  0  0  0
   46.5740   32.8520   37.0760 C   0  0  0  0  0  0  0  0  0  0  0  0
   47.7570   33.4550   36.6760 C   0  0  0  0  0  0  0  0  0  0  0  0
   48.5150   34.1720   37.5790 C   0  0  0  0  0  0  0  0  0  0  0  0
   48.1420   34.3280   38.9140 C   0  0  0  0  0  0  0  0  0  0  0  0
   46.9540   33.7040   39.2460 C   0  0  0  0  0  0  0  0  0  0  0  0
   47.4270   34.7320   41.8400 S   0  0  0  0  0  0  0  0  0  0  0  0
   44.5630   35.9640   44.4300 C   0  0  0  0  0  0  0  0  0  0  0  0
   45.4020   35.9100   43.2980 C   0  0  0  0  0  0  0  0  0  0  0  0
   46.3350   34.8630   43.2430 C   0  0  0  0  0  0  0  0  0  0  0  0
   46.3770   33.9780   44.2620 N   0  0  0  0  0  0  0  0  0  0  0  0
   45.5610   34.0550   45.3360 C   0  0  0  0  0  0  0  0  0  0  0  0
   44.6630   35.0490   45.4040 N   0  0  0  0  0  0  0  0  0  0  0  0
   43.6793   32.0696   40.4651 H   0  0  0  0  0  0  0  0  0  0  0  0
   45.9706   32.2795   36.3561 H   0  0  0  0  0  0  0  0  0  0  0  0
   48.0931   33.3612   35.6328 H   0  0  0  0  0  0  0  0  0  0  0  0
   49.4491   34.6384   37.2328 H   0  0  0  0  0  0  0  0  0  0  0  0
   48.7411   34.8980   39.6395 H   0  0  0  0  0  0  0  0  0  0  0  0
   43.8167   36.7676   44.5147 H   0  0  0  0  0  0  0  0  0  0  0  0
   45.3284   36.6561   42.4930 H   0  0  0  0  0  0  0  0  0  0  0  0
   45.6321   33.3122   46.1442 H   0  0  0  0  0  0  0  0  0  0  0  0
  1  2  2  0
  1 11  1  0
  3  2  1  0
  4  3  2  0
  5  4  1  0
  5 10  2  0
  6  5  1  0
  7  6  2  0
  7  8  1  0
  8  9  2  0
  9 10  1  0
 10  1  1  0
 11 14  1  0
 12 17  2  0
 13 12  1  0
 14 13  2  0
 14 15  1  0
 15 16  2  0
 16 17  1  0
  3 18  1  0
  6 19  1  0
  7 20  1  0
  8 21  1  0
  9 22  1  0
 12 23  1  0
 13 24  1  0
 16 25  1  0
M  ISO  8  18  14  19  14  20  14  21  14  22  14  23  14  24  14  25  14
M  END
>  <minimizedAffinity>  (1) 
-4.69767189

>  <minimizedRMSD>  (1) 
0.654209256

$$$$
