
     RDKit          3D

 49 54  0  0  1  0  0  0  0  0999 V2000
   45.9330   32.1280   44.2040 C   0  0  0  0  0  0  0  0  0  0  0  0
   46.2120   31.4490   45.3770 C   0  0  0  0  0  0  0  0  0  0  0  0
   46.0210   31.9910   46.6430 C   0  0  0  0  0  0  0  0  0  0  0  0
   45.5260   33.2720   46.7620 C   0  0  0  0  0  0  0  0  0  0  0  0
   45.2400   33.9680   45.6290 C   0  0  0  0  0  0  0  0  0  0  0  0
   44.7490   35.2620   45.7140 C   0  0  0  0  0  0  0  0  0  0  0  0
   44.4500   36.0250   44.6200 C   0  0  0  0  0  0  0  0  0  0  0  0
   44.6650   35.4390   43.3860 C   0  0  0  0  0  0  0  0  0  0  0  0
   45.1540   34.1480   43.3000 C   0  0  0  0  0  0  0  0  0  0  0  0
   45.4470   33.3910   44.3940 C   0  0  0  0  0  0  0  0  0  0  0  0
   45.2790   33.7680   41.8960 C   0  0  0  0  0  0  0  0  0  0  0  0
   44.5760   33.0560   41.0240 N   0  0  0  0  0  0  0  0  0  0  0  0
   44.9480   32.8330   39.7720 C   0  0  0  0  0  0  0  0  0  0  0  0
   46.0970   33.3160   39.2550 N   0  0  0  0  0  0  0  0  0  0  0  0
   46.9170   34.0670   40.0480 C   0  0  0  0  0  0  0  0  0  0  0  0
   48.0780   34.5340   39.5030 C   0  0  0  0  0  0  0  0  0  0  0  0
   48.9230   35.2800   40.2850 C   0  0  0  0  0  0  0  0  0  0  0  0
   48.5810   35.5330   41.5770 C   0  0  0  0  0  0  0  0  0  0  0  0
   47.4000   35.0340   42.0630 C   0  0  0  0  0  0  0  0  0  0  0  0
   46.4720   34.2650   41.3480 C   0  0  0  0  0  0  0  0  0  0  0  0
   46.1520   31.4770   42.9840 N   0  0  0  0  0  0  0  0  0  0  0  0
   48.6540   31.2820   42.6820 C   0  0  1  0  0  0  0  0  0  0  0  0
   48.0050   30.8480   41.3840 C   0  0  0  0  0  0  0  0  0  0  0  0
   47.3280   30.6860   42.7370 C   0  0  2  0  0  0  0  0  0  0  0  0
   50.7950   29.0060   44.6710 C   0  0  0  0  0  0  0  0  0  0  0  0
   52.0710   29.2020   44.0620 C   0  0  0  0  0  0  0  0  0  0  0  0
   52.1560   30.1130   42.9700 C   0  0  0  0  0  0  0  0  0  0  0  0
   51.0610   30.7580   42.5450 N   0  0  0  0  0  0  0  0  0  0  0  0
   49.8590   30.5390   43.1590 C   0  0  0  0  0  0  0  0  0  0  0  0
   49.7330   29.6700   44.2100 N   0  0  0  0  0  0  0  0  0  0  0  0
   46.6063   30.4247   45.3038 H   0  0  0  0  0  0  0  0  0  0  0  0
   46.2625   31.4033   47.5409 H   0  0  0  0  0  0  0  0  0  0  0  0
   45.3656   33.7220   47.7528 H   0  0  0  0  0  0  0  0  0  0  0  0
   44.5922   35.6965   46.7123 H   0  0  0  0  0  0  0  0  0  0  0  0
   44.0598   37.0490   44.7159 H   0  0  0  0  0  0  0  0  0  0  0  0
   44.4458   36.0029   42.4673 H   0  0  0  0  0  0  0  0  0  0  0  0
   44.2928   32.2289   39.1272 H   0  0  0  0  0  0  0  0  0  0  0  0
   48.3317   34.3160   38.4551 H   0  0  0  0  0  0  0  0  0  0  0  0
   49.8656   35.6688   39.8722 H   0  0  0  0  0  0  0  0  0  0  0  0
   49.2424   36.1294   42.2227 H   0  0  0  0  0  0  0  0  0  0  0  0
   47.1583   35.2583   43.1124 H   0  0  0  0  0  0  0  0  0  0  0  0
   45.4474   31.5674   42.2382 H   0  0  0  0  0  0  0  0  0  0  0  0
   49.0731   32.2201   43.0748 H   0  0  0  0  0  0  0  0  0  0  0  0
   47.6415   31.5968   40.6649 H   0  0  0  0  0  0  0  0  0  0  0  0
   48.2712   30.1874   40.5457 H   0  0  0  0  0  0  0  0  0  0  0  0
   46.9085   29.8563   43.3249 H   0  0  0  0  0  0  0  0  0  0  0  0
   50.6874   28.3107   45.5166 H   0  0  0  0  0  0  0  0  0  0  0  0
   52.9608   28.6664   44.4245 H   0  0  0  0  0  0  0  0  0  0  0  0
   53.1226   30.2873   42.4747 H   0  0  0  0  0  0  0  0  0  0  0  0
  1 10  1  0
  1  2  2  0
  2  3  1  0
  3  4  2  0
  5  6  2  0
  5  4  1  0
  7  6  1  0
  8  7  2  0
  9  8  1  0
  9 10  2  0
 10  5  1  0
 11  9  1  0
 12 11  2  0
 13 12  1  0
 14 13  2  0
 14 15  1  0
 15 20  2  0
 16 15  1  0
 16 17  2  0
 17 18  1  0
 18 19  2  0
 20 11  1  0
 20 19  1  0
 21  1  1  0
 22 24  1  0
 22 29  1  0
 23 22  1  0
 23 24  1  0
 24 21  1  0
 26 25  2  0
 27 26  1  0
 28 27  2  0
 28 29  1  0
 29 30  2  0
 30 25  1  0
  2 31  1  0
  3 32  1  0
  4 33  1  0
  6 34  1  0
  7 35  1  0
  8 36  1  0
 13 37  1  0
 16 38  1  0
 17 39  1  0
 18 40  1  0
 19 41  1  0
 21 42  1  0
 22 43  1  6
 23 44  1  0
 23 45  1  0
 24 46  1  1
 25 47  1  0
 26 48  1  0
 27 49  1  0
M  ISO  8  31  14  32  14  33  14  34  14  35  14  36  14  37  14  38  14
M  ISO  8  39  14  40  14  41  14  43  13  44  13  45  13  46  13  47  14
M  ISO  2  48  14  49  14
M  END
>  <minimizedAffinity>  (1) 
-6.25256062

>  <minimizedRMSD>  (1) 
1.73762405

$$$$
