
     RDKit          3D

 31 33  0  0  0  0  0  0  0  0999 V2000
   41.2400   34.8310   41.3100 C   0  0  0  0  0  0  0  0  0  0  0  0
   40.2810   33.7270   41.0390 C   0  0  0  0  0  0  0  0  0  0  0  0
   40.0640   32.7740   41.9630 N   0  0  0  0  0  0  0  0  0  0  0  0
   39.2150   31.7680   41.6970 C   0  0  0  0  0  0  0  0  0  0  0  0
   38.5460   31.6610   40.5100 N   0  0  0  0  0  0  0  0  0  0  0  0
   38.7590   32.6110   39.5850 C   0  0  0  0  0  0  0  0  0  0  0  0
   38.1280   32.5840   38.3820 C   0  0  0  0  0  0  0  0  0  0  0  0
   38.2380   33.4760   37.3520 C   0  0  0  0  0  0  0  0  0  0  0  0
   39.1200   34.5290   37.6220 C   0  0  0  0  0  0  0  0  0  0  0  0
   39.8020   34.6230   38.8320 C   0  0  0  0  0  0  0  0  0  0  0  0
   39.6160   33.6600   39.8090 C   0  0  0  0  0  0  0  0  0  0  0  0
   42.6430   34.4840   40.9750 C   0  0  0  0  0  0  0  0  0  0  0  0
   43.8910   35.5510   41.6750 S   0  0  0  0  0  0  0  0  0  0  0  0
   44.4580   35.0380   43.3000 C   0  0  0  0  0  0  0  0  0  0  0  0
   45.1690   33.8380   43.3410 C   0  0  0  0  0  0  0  0  0  0  0  0
   45.6300   33.4000   44.5840 C   0  0  0  0  0  0  0  0  0  0  0  0
   45.3590   34.1710   45.6850 N   0  0  0  0  0  0  0  0  0  0  0  0
   44.6700   35.3240   45.6140 C   0  0  0  0  0  0  0  0  0  0  0  0
   44.2120   35.7710   44.4250 N   0  0  0  0  0  0  0  0  0  0  0  0
   40.9441   35.7054   40.7118 H   0  0  0  0  0  0  0  0  0  0  0  0
   41.2039   35.0367   42.3900 H   0  0  0  0  0  0  0  0  0  0  0  0
   39.0513   30.9986   42.4659 H   0  0  0  0  0  0  0  0  0  0  0  0
   37.4434   31.7391   38.2162 H   0  0  0  0  0  0  0  0  0  0  0  0
   37.6879   33.3762   36.4047 H   0  0  0  0  0  0  0  0  0  0  0  0
   39.2785   35.3034   36.8571 H   0  0  0  0  0  0  0  0  0  0  0  0
   40.4891   35.4630   39.0119 H   0  0  0  0  0  0  0  0  0  0  0  0
   42.8331   33.4613   41.3327 H   0  0  0  0  0  0  0  0  0  0  0  0
   42.7282   34.5974   39.8842 H   0  0  0  0  0  0  0  0  0  0  0  0
   45.3596   33.2576   42.4262 H   0  0  0  0  0  0  0  0  0  0  0  0
   46.1956   32.4612   44.6776 H   0  0  0  0  0  0  0  0  0  0  0  0
   44.4789   35.9051   46.5282 H   0  0  0  0  0  0  0  0  0  0  0  0
  2  1  1  0
  2  3  2  0
  4  3  1  0
  5  4  2  0
  6 11  2  0
  6  5  1  0
  7  6  1  0
  8  9  1  0
  8  7  2  0
  9 10  2  0
 10 11  1  0
 11  2  1  0
 12  1  1  0
 12 13  1  0
 13 14  1  0
 14 15  2  0
 14 19  1  0
 15 16  1  0
 16 17  2  0
 18 17  1  0
 19 18  2  0
  1 20  1  0
  1 21  1  0
  4 22  1  0
  7 23  1  0
  8 24  1  0
  9 25  1  0
 10 26  1  0
 12 27  1  0
 12 28  1  0
 15 29  1  0
 16 30  1  0
 18 31  1  0
M  ISO  8  20   8  21   8  22  14  23  14  24  14  25  14  26  14  27   8
M  ISO  4  28   8  29  14  30  14  31  14
M  END
>  <minimizedAffinity>  (1) 
-5.50602674

>  <minimizedRMSD>  (1) 
3.1892221

$$$$
