
     RDKit          3D

 37 40  0  0  1  0  0  0  0  0999 V2000
   46.3590   34.7620   43.2260 C   0  0  0  0  0  0  0  0  0  0  0  0
   45.3800   35.7860   43.4800 C   0  0  0  0  0  0  0  0  0  0  0  0
   44.6420   35.6600   44.6550 C   0  0  0  0  0  0  0  0  0  0  0  0
   44.8820   34.6040   45.4700 N   0  0  0  0  0  0  0  0  0  0  0  0
   45.8310   33.6590   45.1690 C   0  0  0  0  0  0  0  0  0  0  0  0
   46.5740   33.7110   44.0710 N   0  0  0  0  0  0  0  0  0  0  0  0
   46.0390   32.5280   46.1200 C   0  0  1  0  0  0  0  0  0  0  0  0
   46.8330   32.7800   47.3800 C   0  0  0  0  0  0  0  0  0  0  0  0
   45.3340   32.6730   47.4090 C   0  0  1  0  0  0  0  0  0  0  0  0
   44.6910   33.9500   47.7400 N   0  0  0  0  0  0  0  0  0  0  0  0
   47.0920   34.8870   41.9940 C   0  0  0  0  0  0  0  0  0  0  0  0
   48.1080   35.6930   41.9040 O   0  0  0  0  0  0  0  0  0  0  0  0
   47.0150   34.3040   40.6580 C   0  0  0  0  0  0  0  0  0  0  0  0
   48.1180   34.3160   39.8940 N   0  0  0  0  0  0  0  0  0  0  0  0
   48.1470   33.7950   38.6280 C   0  0  0  0  0  0  0  0  0  0  0  0
   47.0660   33.2410   38.0860 N   0  0  0  0  0  0  0  0  0  0  0  0
   45.8900   33.1720   38.7700 C   0  0  0  0  0  0  0  0  0  0  0  0
   44.7510   32.6050   38.2480 C   0  0  0  0  0  0  0  0  0  0  0  0
   43.5770   32.5450   38.9670 C   0  0  0  0  0  0  0  0  0  0  0  0
   43.6030   33.0900   40.2520 C   0  0  0  0  0  0  0  0  0  0  0  0
   44.7640   33.6420   40.7190 C   0  0  0  0  0  0  0  0  0  0  0  0
   45.9440   33.7160   40.0300 C   0  0  0  0  0  0  0  0  0  0  0  0
   45.2229   36.6231   42.7839 H   0  0  0  0  0  0  0  0  0  0  0  0
   43.8769   36.4056   44.9170 H   0  0  0  0  0  0  0  0  0  0  0  0
   46.1067   31.7693   45.3264 H   0  0  0  0  0  0  0  0  0  0  0  0
   47.4535   31.9813   47.8124 H   0  0  0  0  0  0  0  0  0  0  0  0
   47.5738   33.5249   47.7059 H   0  0  0  0  0  0  0  0  0  0  0  0
   44.5704   32.0520   47.9002 H   0  0  0  0  0  0  0  0  0  0  0  0
   44.6391   34.0531   48.7635 H   0  0  0  0  0  0  0  0  0  0  0  0
   45.2425   34.7248   47.3444 H   0  0  0  0  0  0  0  0  0  0  0  0
   47.7637   34.0757   42.3113 H   0  0  0  0  0  0  0  0  0  0  0  0
   48.4165   35.9378   42.8123 H   0  0  0  0  0  0  0  0  0  0  0  0
   49.0812   33.8354   38.0487 H   0  0  0  0  0  0  0  0  0  0  0  0
   44.7778   32.1886   37.2302 H   0  0  0  0  0  0  0  0  0  0  0  0
   42.6661   32.0910   38.5498 H   0  0  0  0  0  0  0  0  0  0  0  0
   42.7008   33.0757   40.8812 H   0  0  0  0  0  0  0  0  0  0  0  0
   44.7478   34.0624   41.7354 H   0  0  0  0  0  0  0  0  0  0  0  0
  1  2  2  0
  1  6  1  0
  2  3  1  0
  3  4  2  0
  5  4  1  0
  5  7  1  0
  6  5  2  0
  7  8  1  0
  7  9  1  0
  8  9  1  0
  9 10  1  0
 11 12  1  0
 11  1  1  0
 13 11  1  0
 14 13  2  0
 15 14  1  0
 16 15  2  0
 16 17  1  0
 17 22  2  0
 18 17  1  0
 18 19  2  0
 19 20  1  0
 20 21  2  0
 22 13  1  0
 22 21  1  0
  2 23  1  0
  3 24  1  0
  7 25  1  6
  8 26  1  0
  8 27  1  0
  9 28  1  1
 10 29  1  0
 10 30  1  0
 11 31  1  0
 12 32  1  0
 15 33  1  0
 18 34  1  0
 19 35  1  0
 20 36  1  0
 21 37  1  0
M  ISO  8  23  14  24  14  25  13  26  13  27  13  28  13  29   5  30   5
M  ISO  7  31   8  32   3  33  14  34  14  35  14  36  14  37  14
M  END
>  <minimizedAffinity>  (1) 
-6.19732237

>  <minimizedRMSD>  (1) 
0.747960031

$$$$
