
     RDKit          3D

 43 46  0  0  0  0  0  0  0  0999 V2000
   48.2460   34.3500   40.5960 C   0  0  0  0  0  0  0  0  0  0  0  0
   48.5710   33.4830   41.6340 C   0  0  0  0  0  0  0  0  0  0  0  0
   49.3290   33.9100   42.7130 C   0  0  0  0  0  0  0  0  0  0  0  0
   49.7340   35.2310   42.6920 N   0  0  0  0  0  0  0  0  0  0  0  0
   49.3980   36.0410   41.6670 C   0  0  0  0  0  0  0  0  0  0  0  0
   48.6720   35.6010   40.6500 N   0  0  0  0  0  0  0  0  0  0  0  0
   47.4370   33.7800   39.5060 C   0  0  0  0  0  0  0  0  0  0  0  0
   47.9790   34.0950   38.1430 C   0  0  0  0  0  0  0  0  0  0  0  0
   47.3480   33.2960   37.0510 C   0  0  0  0  0  0  0  0  0  0  0  0
   45.9300   33.1840   37.0000 C   0  0  0  0  0  0  0  0  0  0  0  0
   45.6530   32.1300   35.5160 S   0  0  0  0  0  0  0  0  0  0  0  0
   47.5230   32.0250   35.2200 C   0  0  0  0  0  0  0  0  0  0  0  0
   47.9380   32.6520   36.0840 N   0  0  0  0  0  0  0  0  0  0  0  0
   48.0810   31.3140   34.1600 O   0  0  0  0  0  0  0  0  0  0  0  0
   48.5450   31.3570   31.5520 O   0  0  0  0  0  0  0  0  0  0  0  0
   48.6240   32.2030   32.8190 P   0  0  0  0  0  0  0  0  0  0  0  0
   47.6430   33.5680   32.6460 O   0  0  0  0  0  0  0  0  0  0  0  0
   50.2210   32.7340   33.1020 O   0  0  0  0  0  0  0  0  0  0  0  0
   48.0170   31.7730   41.6080 S   0  0  0  0  0  0  0  0  0  0  0  0
   47.4780   31.2670   43.2340 C   0  0  0  0  0  0  0  0  0  0  0  0
   46.2650   31.6380   43.7220 N   0  0  0  0  0  0  0  0  0  0  0  0
   45.8910   31.2400   44.9500 C   0  0  0  0  0  0  0  0  0  0  0  0
   46.7100   30.4780   45.7010 N   0  0  0  0  0  0  0  0  0  0  0  0
   47.9250   30.0940   45.2400 C   0  0  0  0  0  0  0  0  0  0  0  0
   48.6870   29.3150   46.0860 C   0  0  0  0  0  0  0  0  0  0  0  0
   49.9290   28.8990   45.6660 C   0  0  0  0  0  0  0  0  0  0  0  0
   50.3650   29.2830   44.4010 C   0  0  0  0  0  0  0  0  0  0  0  0
   49.5740   30.0650   43.5780 C   0  0  0  0  0  0  0  0  0  0  0  0
   48.3250   30.4940   43.9810 C   0  0  0  0  0  0  0  0  0  0  0  0
   49.5935   33.2348   43.5401 H   0  0  0  0  0  0  0  0  0  0  0  0
   49.7338   37.0885   41.6758 H   0  0  0  0  0  0  0  0  0  0  0  0
   47.4075   32.6871   39.6268 H   0  0  0  0  0  0  0  0  0  0  0  0
   46.4351   34.2294   39.5721 H   0  0  0  0  0  0  0  0  0  0  0  0
   47.8065   35.1618   37.9379 H   0  0  0  0  0  0  0  0  0  0  0  0
   49.0488   33.8394   38.1536 H   0  0  0  0  0  0  0  0  0  0  0  0
   45.1833   33.6199   37.6800 H   0  0  0  0  0  0  0  0  0  0  0  0
   47.3957   33.9122   33.5407 H   0  0  0  0  0  0  0  0  0  0  0  0
   50.3829   32.7878   34.0772 H   0  0  0  0  0  0  0  0  0  0  0  0
   44.9088   31.5386   45.3450 H   0  0  0  0  0  0  0  0  0  0  0  0
   48.3080   29.0315   47.0790 H   0  0  0  0  0  0  0  0  0  0  0  0
   50.5632   28.2771   46.3149 H   0  0  0  0  0  0  0  0  0  0  0  0
   51.3557   28.9591   44.0495 H   0  0  0  0  0  0  0  0  0  0  0  0
   49.9474   30.3504   42.5835 H   0  0  0  0  0  0  0  0  0  0  0  0
  1  6  2  0
  1  2  1  0
  2  3  2  0
  4  3  1  0
  5  4  2  0
  6  5  1  0
  7  1  1  0
  8  7  1  0
  9  8  1  0
 10  9  2  0
 11 10  1  0
 12 11  1  0
 12 13  2  0
 13  9  1  0
 14 12  1  0
 15 16  2  0
 16 18  1  0
 16 14  1  0
 17 16  1  0
 19  2  1  0
 19 20  1  0
 20 21  2  0
 20 29  1  0
 21 22  1  0
 22 23  2  0
 24 23  1  0
 24 25  2  0
 26 25  1  0
 27 26  2  0
 28 29  2  0
 28 27  1  0
 29 24  1  0
  3 30  1  0
  5 31  1  0
  7 32  1  0
  7 33  1  0
  8 34  1  0
  8 35  1  0
 10 36  1  0
 17 37  1  0
 18 38  1  0
 22 39  1  0
 25 40  1  0
 26 41  1  0
 27 42  1  0
 28 43  1  0
M  ISO  8  30  14  31  14  32   8  33   8  34   8  35   8  36  14  37   3
M  ISO  6  38   3  39  14  40  14  41  14  42  14  43  14
M  END
>  <minimizedAffinity>  (1) 
-5.62278271

>  <minimizedRMSD>  (1) 
7.3922224

$$$$
