
     RDKit          3D

 28 30  0  0  0  0  0  0  0  0999 V2000
   46.4820   32.1400   45.5430 S   0  0  0  0  0  0  0  0  0  0  0  0
   46.1320   33.5970   44.5740 C   0  0  0  0  0  0  0  0  0  0  0  0
   45.0690   34.4210   44.7430 N   0  0  0  0  0  0  0  0  0  0  0  0
   44.9140   35.4920   43.9400 C   0  0  0  0  0  0  0  0  0  0  0  0
   45.8030   35.7780   42.9500 N   0  0  0  0  0  0  0  0  0  0  0  0
   46.8900   34.9830   42.7340 C   0  0  0  0  0  0  0  0  0  0  0  0
   47.7620   35.3140   41.7180 C   0  0  0  0  0  0  0  0  0  0  0  0
   48.8660   34.4770   41.5240 C   0  0  0  0  0  0  0  0  0  0  0  0
   49.0490   33.3770   42.3290 C   0  0  0  0  0  0  0  0  0  0  0  0
   48.1390   33.1010   43.3300 C   0  0  0  0  0  0  0  0  0  0  0  0
   47.0270   33.8950   43.5680 C   0  0  0  0  0  0  0  0  0  0  0  0
   46.8150   32.6410   47.2630 C   0  0  0  0  0  0  0  0  0  0  0  0
   48.5610   29.4600   48.0990 C   0  0  0  0  0  0  0  0  0  0  0  0
   49.4200   29.8940   49.1190 C   0  0  0  0  0  0  0  0  0  0  0  0
   49.3870   31.2490   49.4980 C   0  0  0  0  0  0  0  0  0  0  0  0
   48.5210   32.0900   48.8580 N   0  0  0  0  0  0  0  0  0  0  0  0
   47.6990   31.6220   47.8670 C   0  0  0  0  0  0  0  0  0  0  0  0
   47.7350   30.3370   47.5110 N   0  0  0  0  0  0  0  0  0  0  0  0
   44.0467   36.1521   44.0885 H   0  0  0  0  0  0  0  0  0  0  0  0
   47.5963   36.1993   41.0865 H   0  0  0  0  0  0  0  0  0  0  0  0
   49.5894   34.6992   40.7257 H   0  0  0  0  0  0  0  0  0  0  0  0
   49.9174   32.7194   42.1759 H   0  0  0  0  0  0  0  0  0  0  0  0
   48.3023   32.2167   43.9636 H   0  0  0  0  0  0  0  0  0  0  0  0
   47.3110   33.6227   47.2775 H   0  0  0  0  0  0  0  0  0  0  0  0
   45.8753   32.7190   47.8294 H   0  0  0  0  0  0  0  0  0  0  0  0
   48.5650   28.4063   47.7833 H   0  0  0  0  0  0  0  0  0  0  0  0
   50.1056   29.1897   49.6128 H   0  0  0  0  0  0  0  0  0  0  0  0
   50.0462   31.6240   50.2947 H   0  0  0  0  0  0  0  0  0  0  0  0
  1 12  1  0
  2  3  2  0
  2  1  1  0
  4  3  1  0
  5  4  2  0
  6  5  1  0
  6 11  2  0
  7  6  1  0
  8  7  2  0
  8  9  1  0
  9 10  2  0
 10 11  1  0
 11  2  1  0
 12 17  1  0
 13 14  2  0
 14 15  1  0
 16 15  2  0
 17 16  1  0
 18 17  2  0
 18 13  1  0
  4 19  1  0
  7 20  1  0
  8 21  1  0
  9 22  1  0
 10 23  1  0
 12 24  1  0
 12 25  1  0
 13 26  1  0
 14 27  1  0
 15 28  1  0
M  ISO  8  19  14  20  14  21  14  22  14  23  14  24   8  25   8  26  14
M  ISO  2  27  14  28  14
M  END
>  <minimizedAffinity>  (1) 
-4.92109203

>  <minimizedRMSD>  (1) 
5.3541131

$$$$
