
     RDKit          3D

 46 51  0  0  1  0  0  0  0  0999 V2000
   43.7540   34.0060   40.9810 C   0  0  0  0  0  0  0  0  0  0  0  0
   43.6740   33.2190   39.8860 C   0  0  0  0  0  0  0  0  0  0  0  0
   44.8830   32.9420   39.2050 C   0  0  0  0  0  0  0  0  0  0  0  0
   46.0410   33.4590   39.6560 N   0  0  0  0  0  0  0  0  0  0  0  0
   46.0680   34.2350   40.7450 C   0  0  0  0  0  0  0  0  0  0  0  0
   44.9230   34.4660   41.3460 N   0  0  0  0  0  0  0  0  0  0  0  0
   42.5830   32.5770   39.2430 C   0  0  0  0  0  0  0  0  0  0  0  0
   41.6410   32.0070   38.6740 N   0  0  0  0  0  0  0  0  0  0  0  0
   40.9010   31.1250   38.2490 C   0  0  0  0  0  0  0  0  0  0  0  0
   40.1730   32.1320   37.7450 N   0  0  0  0  0  0  0  0  0  0  0  0
   40.5070   33.4380   37.8910 C   0  0  0  0  0  0  0  0  0  0  0  0
   39.7520   34.4630   37.2590 C   0  0  0  0  0  0  0  0  0  0  0  0
   40.2400   35.7320   37.3790 C   0  0  0  0  0  0  0  0  0  0  0  0
   41.3790   36.1300   38.0380 C   0  0  0  0  0  0  0  0  0  0  0  0
   42.0120   35.0180   38.6090 C   0  0  0  0  0  0  0  0  0  0  0  0
   41.7020   33.5960   38.6340 C   0  0  1  0  0  0  0  0  0  0  0  0
   44.8820   32.1850   37.9800 N   0  0  0  0  0  0  0  0  0  0  0  0
   42.1850   34.3110   41.8300 S   0  0  0  0  0  0  0  0  0  0  0  0
   39.8970   32.9990   41.5330 C   0  0  0  0  0  0  0  0  0  0  0  0
   41.2170   32.8210   41.9070 C   0  0  0  0  0  0  0  0  0  0  0  0
   41.6690   31.5810   42.2670 C   0  0  0  0  0  0  0  0  0  0  0  0
   40.8600   30.4680   42.2750 C   0  0  0  0  0  0  0  0  0  0  0  0
   39.5280   30.6460   41.8970 C   0  0  0  0  0  0  0  0  0  0  0  0
   39.0320   31.8830   41.5280 C   0  0  0  0  0  0  0  0  0  0  0  0
   38.8890   29.3820   41.9790 O   0  0  0  0  0  0  0  0  0  0  0  0
   39.7450   28.5630   42.7050 C   0  0  0  0  0  0  0  0  0  0  0  0
   41.0360   29.1260   42.5810 O   0  0  0  0  0  0  0  0  0  0  0  0
   47.1980   34.8050   41.2720 O   0  0  0  0  0  0  0  0  0  0  0  0
   48.3810   34.7920   40.5030 C   0  0  0  0  0  0  0  0  0  0  0  0
   49.1360   33.6690   40.7360 F   0  0  0  0  0  0  0  0  0  0  0  0
   47.9880   34.8850   39.1640 F   0  0  0  0  0  0  0  0  0  0  0  0
   49.1340   35.9020   40.8710 F   0  0  0  0  0  0  0  0  0  0  0  0
   42.6414   33.3032   38.4189 H   0  0  0  0  0  0  0  0  0  0  0  0
   40.8561   30.0261   38.2711 H   0  0  0  0  0  0  0  0  0  0  0  0
   38.8270   34.2459   36.7047 H   0  0  0  0  0  0  0  0  0  0  0  0
   39.6553   36.5269   36.8930 H   0  0  0  0  0  0  0  0  0  0  0  0
   41.7397   37.1669   38.1068 H   0  0  0  0  0  0  0  0  0  0  0  0
   43.0194   35.0482   38.1684 H   0  0  0  0  0  0  0  0  0  0  0  0
   41.6848   35.2210   39.6394 H   0  0  0  0  0  0  0  0  0  0  0  0
   44.0030   31.7837   37.6233 H   0  0  0  0  0  0  0  0  0  0  0  0
   45.7603   32.0448   37.4605 H   0  0  0  0  0  0  0  0  0  0  0  0
   39.5273   33.9939   41.2442 H   0  0  0  0  0  0  0  0  0  0  0  0
   42.7227   31.4691   42.5623 H   0  0  0  0  0  0  0  0  0  0  0  0
   37.9779   31.9960   41.2346 H   0  0  0  0  0  0  0  0  0  0  0  0
   39.4412   28.5368   43.7619 H   0  0  0  0  0  0  0  0  0  0  0  0
   39.7226   27.5295   42.3290 H   0  0  0  0  0  0  0  0  0  0  0  0
  1  6  1  0
  1 18  1  0
  2  1  2  0
  3  4  2  0
  3  2  1  0
  4  5  1  0
  5 28  1  0
  5  6  2  0
  7  2  1  0
  8  7  1  0
  9  8  1  0
 10 11  1  0
 10  9  2  0
 11 16  1  0
 12 13  1  0
 12 11  2  0
 13 14  2  0
 14 15  1  0
 16 15  1  6
 16  8  1  0
 16  7  1  0
 17  3  1  0
 18 20  1  0
 19 20  2  0
 20 21  1  0
 21 22  2  0
 22 27  1  0
 23 25  1  0
 23 22  1  0
 24 19  1  0
 24 23  2  0
 25 26  1  0
 27 26  1  0
 29 30  1  0
 29 32  1  0
 29 28  1  0
 31 29  1  0
  7 33  1  0
  9 34  1  0
 12 35  1  0
 13 36  1  0
 14 37  1  0
 15 38  1  0
 15 39  1  0
 17 40  1  0
 17 41  1  0
 19 42  1  0
 21 43  1  0
 24 44  1  0
 26 45  1  0
 26 46  1  0
M  ISO  8  33  13  34  13  35  13  36  13  37  13  38  13  39  13  42  14
M  ISO  4  43  14  44  14  45  13  46  13
M  END
>  <minimizedAffinity>  (1) 
-5.78156328

>  <minimizedRMSD>  (1) 
1.62300467

$$$$
