
     RDKit          3D

 40 44  0  0  0  0  0  0  0  0999 V2000
   44.7420   35.2890   44.7830 C   0  0  0  0  0  0  0  0  0  0  0  0
   44.6870   34.8930   43.4520 C   0  0  0  0  0  0  0  0  0  0  0  0
   45.0790   33.5830   43.1920 C   0  0  0  0  0  0  0  0  0  0  0  0
   45.4730   32.8020   44.2030 N   0  0  0  0  0  0  0  0  0  0  0  0
   45.5230   33.1850   45.4730 C   0  0  0  0  0  0  0  0  0  0  0  0
   45.1470   34.4510   45.7290 N   0  0  0  0  0  0  0  0  0  0  0  0
   45.9180   32.5030   46.7260 C   0  0  0  0  0  0  0  0  0  0  0  0
   45.4670   32.8180   47.9360 N   0  0  0  0  0  0  0  0  0  0  0  0
   45.8300   32.1960   49.0550 C   0  0  0  0  0  0  0  0  0  0  0  0
   46.7100   31.1690   49.0480 N   0  0  0  0  0  0  0  0  0  0  0  0
   47.2320   30.7700   47.8530 C   0  0  0  0  0  0  0  0  0  0  0  0
   48.1220   29.7250   47.8810 C   0  0  0  0  0  0  0  0  0  0  0  0
   48.6690   29.2940   46.6920 C   0  0  0  0  0  0  0  0  0  0  0  0
   48.2930   29.9380   45.5320 C   0  0  0  0  0  0  0  0  0  0  0  0
   47.3930   30.9790   45.5880 C   0  0  0  0  0  0  0  0  0  0  0  0
   46.8120   31.4560   46.7400 C   0  0  0  0  0  0  0  0  0  0  0  0
   44.2840   35.6810   42.4030 O   0  0  0  0  0  0  0  0  0  0  0  0
   43.5150   35.2410   41.3320 C   0  0  0  0  0  0  0  0  0  0  0  0
   43.9750   34.6630   40.1630 C   0  0  0  0  0  0  0  0  0  0  0  0
   43.0730   34.2800   39.1910 C   0  0  0  0  0  0  0  0  0  0  0  0
   41.7070   34.4550   39.3440 C   0  0  0  0  0  0  0  0  0  0  0  0
   40.8990   34.0520   38.3400 N   0  0  0  0  0  0  0  0  0  0  0  0
   39.5580   34.2170   38.4690 C   0  0  0  0  0  0  0  0  0  0  0  0
   39.0660   34.7810   39.6040 C   0  0  0  0  0  0  0  0  0  0  0  0
   39.9150   35.2000   40.6500 C   0  0  0  0  0  0  0  0  0  0  0  0
   41.2680   35.0370   40.5270 C   0  0  0  0  0  0  0  0  0  0  0  0
   42.1360   35.4350   41.5240 C   0  0  0  0  0  0  0  0  0  0  0  0
   44.4454   36.3123   45.0565 H   0  0  0  0  0  0  0  0  0  0  0  0
   45.0647   33.1936   42.1633 H   0  0  0  0  0  0  0  0  0  0  0  0
   45.4022   32.5265   50.0130 H   0  0  0  0  0  0  0  0  0  0  0  0
   48.3925   29.2424   48.8318 H   0  0  0  0  0  0  0  0  0  0  0  0
   49.3855   28.4597   46.6688 H   0  0  0  0  0  0  0  0  0  0  0  0
   48.7106   29.6212   44.5649 H   0  0  0  0  0  0  0  0  0  0  0  0
   47.1182   31.4655   44.6405 H   0  0  0  0  0  0  0  0  0  0  0  0
   45.0532   34.5094   40.0087 H   0  0  0  0  0  0  0  0  0  0  0  0
   43.4506   33.8212   38.2653 H   0  0  0  0  0  0  0  0  0  0  0  0
   38.8778   33.8984   37.6654 H   0  0  0  0  0  0  0  0  0  0  0  0
   37.9792   34.9139   39.7094 H   0  0  0  0  0  0  0  0  0  0  0  0
   39.4922   35.6546   41.5581 H   0  0  0  0  0  0  0  0  0  0  0  0
   41.7567   35.8941   42.4488 H   0  0  0  0  0  0  0  0  0  0  0  0
  1  6  2  0
  2  1  1  0
  3  2  2  0
  3  4  1  0
  4  5  2  0
  5  6  1  0
  5  7  1  0
  7 16  1  0
  7  8  2  0
  8  9  1  0
 10  9  2  0
 11 12  2  0
 11 10  1  0
 13 12  1  0
 14 15  1  0
 14 13  2  0
 15 16  2  0
 16 11  1  0
 17  2  1  0
 18 27  1  0
 18 17  1  0
 19 18  2  0
 20 21  2  0
 20 19  1  0
 21 26  1  0
 22 23  2  0
 22 21  1  0
 23 24  1  0
 24 25  2  0
 26 25  1  0
 26 27  2  0
  1 28  1  0
  3 29  1  0
  9 30  1  0
 12 31  1  0
 13 32  1  0
 14 33  1  0
 15 34  1  0
 19 35  1  0
 20 36  1  0
 23 37  1  0
 24 38  1  0
 25 39  1  0
 27 40  1  0
M  ISO  8  28  14  29  14  30  14  31  14  32  14  33  14  34  14  35  14
M  ISO  5  36  14  37  14  38  14  39  14  40  14
M  END
>  <minimizedAffinity>  (1) 
-7.15954018

>  <minimizedRMSD>  (1) 
1.46911001

$$$$
