
     RDKit          3D

 49 53  0  0  1  0  0  0  0  0999 V2000
   44.5840   35.6220   44.6570 C   0  0  0  0  0  0  0  0  0  0  0  0
   45.1930   35.5960   43.3810 C   0  0  0  0  0  0  0  0  0  0  0  0
   46.2340   34.6560   43.1620 C   0  0  0  0  0  0  0  0  0  0  0  0
   46.5860   33.8360   44.1880 N   0  0  0  0  0  0  0  0  0  0  0  0
   45.9840   33.8880   45.3870 C   0  0  0  0  0  0  0  0  0  0  0  0
   44.9760   34.7860   45.6270 N   0  0  0  0  0  0  0  0  0  0  0  0
   46.4180   32.9750   46.4650 C   0  0  2  0  0  0  0  0  0  0  0  0
   46.9730   31.7590   45.7740 C   0  0  0  0  0  0  0  0  0  0  0  0
   46.0950   30.5680   45.8050 C   0  0  0  0  0  0  0  0  0  0  0  0
   45.8240   30.2990   47.2780 C   0  0  0  0  0  0  0  0  0  0  0  0
   45.0370   31.3630   47.8870 C   0  0  0  0  0  0  0  0  0  0  0  0
   45.3760   32.7370   47.4380 C   0  0  0  0  0  0  0  0  0  0  0  0
   44.6840   33.8600   47.9530 N   0  0  0  0  0  0  0  0  0  0  0  0
   46.8900   34.6050   41.8680 C   0  0  0  0  0  0  0  0  0  0  0  0
   48.0890   35.2180   41.7220 C   0  0  0  0  0  0  0  0  0  0  0  0
   48.6730   35.1250   40.4400 C   0  0  0  0  0  0  0  0  0  0  0  0
   47.9620   34.4260   39.4910 C   0  0  0  0  0  0  0  0  0  0  0  0
   46.7580   33.8110   39.6300 C   0  0  0  0  0  0  0  0  0  0  0  0
   46.2960   33.9630   40.8940 N   0  0  0  0  0  0  0  0  0  0  0  0
   46.2050   33.1360   38.4790 C   0  0  0  0  0  0  0  0  0  0  0  0
   44.9370   32.7010   38.5170 N   0  0  0  0  0  0  0  0  0  0  0  0
   44.3410   32.0670   37.5010 C   0  0  0  0  0  0  0  0  0  0  0  0
   44.9900   31.8150   36.3350 N   0  0  0  0  0  0  0  0  0  0  0  0
   46.2870   32.2220   36.2080 C   0  0  0  0  0  0  0  0  0  0  0  0
   46.9980   31.9940   35.0490 C   0  0  0  0  0  0  0  0  0  0  0  0
   48.3070   32.4020   34.9090 C   0  0  0  0  0  0  0  0  0  0  0  0
   48.8810   33.0600   36.0030 C   0  0  0  0  0  0  0  0  0  0  0  0
   48.1330   33.2640   37.1380 C   0  0  0  0  0  0  0  0  0  0  0  0
   46.8340   32.8660   37.2900 C   0  0  0  0  0  0  0  0  0  0  0  0
   43.7752   36.3405   44.8560 H   0  0  0  0  0  0  0  0  0  0  0  0
   44.8705   36.2820   42.5839 H   0  0  0  0  0  0  0  0  0  0  0  0
   47.2079   33.4092   47.0955 H   0  0  0  0  0  0  0  0  0  0  0  0
   47.9241   31.4948   46.2594 H   0  0  0  0  0  0  0  0  0  0  0  0
   47.0851   32.0314   44.7142 H   0  0  0  0  0  0  0  0  0  0  0  0
   45.1543   30.7703   45.2720 H   0  0  0  0  0  0  0  0  0  0  0  0
   46.5637   29.7033   45.3124 H   0  0  0  0  0  0  0  0  0  0  0  0
   45.2737   29.3511   47.3714 H   0  0  0  0  0  0  0  0  0  0  0  0
   46.7911   30.2480   47.7996 H   0  0  0  0  0  0  0  0  0  0  0  0
   44.2479   31.1627   48.6267 H   0  0  0  0  0  0  0  0  0  0  0  0
   43.9352   33.7292   48.6481 H   0  0  0  0  0  0  0  0  0  0  0  0
   44.9294   34.8076   47.6325 H   0  0  0  0  0  0  0  0  0  0  0  0
   48.5766   35.7541   42.5495 H   0  0  0  0  0  0  0  0  0  0  0  0
   49.6449   35.5868   40.2116 H   0  0  0  0  0  0  0  0  0  0  0  0
   48.4261   34.3565   38.4961 H   0  0  0  0  0  0  0  0  0  0  0  0
   43.2965   31.7408   37.6131 H   0  0  0  0  0  0  0  0  0  0  0  0
   46.5075   31.4726   34.2138 H   0  0  0  0  0  0  0  0  0  0  0  0
   48.8726   32.2196   33.9834 H   0  0  0  0  0  0  0  0  0  0  0  0
   49.9224   33.4110   35.9548 H   0  0  0  0  0  0  0  0  0  0  0  0
   48.6122   33.7828   37.9813 H   0  0  0  0  0  0  0  0  0  0  0  0
  1  6  2  0
  2  1  1  0
  3  2  2  0
  3  4  1  0
  4  5  2  0
  5  6  1  0
  5  7  1  0
  7 12  1  0
  8  9  1  0
  8  7  1  0
  9 10  1  0
 10 11  1  0
 12 11  2  0
 12 13  1  0
 14  3  1  0
 15 14  2  0
 16 15  1  0
 17 18  1  0
 17 16  2  0
 18 19  2  0
 19 14  1  0
 20 21  2  0
 20 18  1  0
 22 21  1  0
 23 22  2  0
 24 23  1  0
 24 29  2  0
 25 24  1  0
 26 25  2  0
 26 27  1  0
 27 28  2  0
 28 29  1  0
 29 20  1  0
  1 30  1  0
  2 31  1  0
  7 32  1  1
  8 33  1  0
  8 34  1  0
  9 35  1  0
  9 36  1  0
 10 37  1  0
 10 38  1  0
 11 39  1  0
 13 40  1  0
 13 41  1  0
 15 42  1  0
 16 43  1  0
 17 44  1  0
 22 45  1  0
 25 46  1  0
 26 47  1  0
 27 48  1  0
 28 49  1  0
M  END
>  <minimizedAffinity>  (1) 
-8.02036762

>  <minimizedRMSD>  (1) 
0.352509618

$$$$
