
     RDKit          3D

 43 47  0  0  0  0  0  0  0  0999 V2000
   45.7180   33.0320   46.9170 C   0  0  0  0  0  0  0  0  0  0  0  0
   44.4070   35.8150   44.8460 C   0  0  0  0  0  0  0  0  0  0  0  0
   44.7400   35.3620   43.5770 C   0  0  0  0  0  0  0  0  0  0  0  0
   45.4070   34.1180   43.4130 C   0  0  0  0  0  0  0  0  0  0  0  0
   45.6870   33.4250   44.5620 N   0  0  0  0  0  0  0  0  0  0  0  0
   45.3500   33.8950   45.7790 C   0  0  0  0  0  0  0  0  0  0  0  0
   44.7240   35.0670   45.8920 N   0  0  0  0  0  0  0  0  0  0  0  0
   45.6680   33.8300   42.0220 C   0  0  0  0  0  0  0  0  0  0  0  0
   44.8630   33.0600   41.2710 N   0  0  0  0  0  0  0  0  0  0  0  0
   45.0150   32.7450   40.0040 C   0  0  0  0  0  0  0  0  0  0  0  0
   46.0630   33.2060   39.3280 N   0  0  0  0  0  0  0  0  0  0  0  0
   46.9850   34.0060   39.9410 C   0  0  0  0  0  0  0  0  0  0  0  0
   48.0780   34.4990   39.2650 C   0  0  0  0  0  0  0  0  0  0  0  0
   48.9940   35.3080   39.9030 C   0  0  0  0  0  0  0  0  0  0  0  0
   48.7740   35.6060   41.2470 C   0  0  0  0  0  0  0  0  0  0  0  0
   47.6620   35.0780   41.8570 C   0  0  0  0  0  0  0  0  0  0  0  0
   46.7240   34.2700   41.2630 C   0  0  0  0  0  0  0  0  0  0  0  0
   46.6140   31.6050   46.2930 S   0  0  0  0  0  0  0  0  0  0  0  0
   47.7060   30.9520   47.5350 C   0  0  0  0  0  0  0  0  0  0  0  0
   48.0840   31.7950   48.5500 C   0  0  0  0  0  0  0  0  0  0  0  0
   48.9190   31.3050   49.5290 C   0  0  0  0  0  0  0  0  0  0  0  0
   49.3820   29.9850   49.5080 C   0  0  0  0  0  0  0  0  0  0  0  0
   50.1890   29.5380   50.4820 N   0  0  0  0  0  0  0  0  0  0  0  0
   50.6440   28.2740   50.4920 C   0  0  0  0  0  0  0  0  0  0  0  0
   50.2700   27.4260   49.4790 C   0  0  0  0  0  0  0  0  0  0  0  0
   49.4330   27.8840   48.4670 C   0  0  0  0  0  0  0  0  0  0  0  0
   48.9520   29.1950   48.4430 C   0  0  0  0  0  0  0  0  0  0  0  0
   48.1200   29.6510   47.4510 C   0  0  0  0  0  0  0  0  0  0  0  0
   46.3561   33.5930   47.6156 H   0  0  0  0  0  0  0  0  0  0  0  0
   44.8114   32.7029   47.4459 H   0  0  0  0  0  0  0  0  0  0  0  0
   43.8899   36.7765   44.9803 H   0  0  0  0  0  0  0  0  0  0  0  0
   44.4866   35.9683   42.6948 H   0  0  0  0  0  0  0  0  0  0  0  0
   44.2765   32.1012   39.5039 H   0  0  0  0  0  0  0  0  0  0  0  0
   48.2221   34.2448   38.2045 H   0  0  0  0  0  0  0  0  0  0  0  0
   49.8698   35.7054   39.3691 H   0  0  0  0  0  0  0  0  0  0  0  0
   49.4726   36.2472   41.8045 H   0  0  0  0  0  0  0  0  0  0  0  0
   47.5091   35.3250   42.9179 H   0  0  0  0  0  0  0  0  0  0  0  0
   47.7289   32.8357   48.5806 H   0  0  0  0  0  0  0  0  0  0  0  0
   49.2302   31.9688   50.3491 H   0  0  0  0  0  0  0  0  0  0  0  0
   51.3053   27.9242   51.2985 H   0  0  0  0  0  0  0  0  0  0  0  0
   50.6314   26.3871   49.4678 H   0  0  0  0  0  0  0  0  0  0  0  0
   49.1413   27.1935   47.6620 H   0  0  0  0  0  0  0  0  0  0  0  0
   47.8003   28.9989   46.6249 H   0  0  0  0  0  0  0  0  0  0  0  0
  2  7  2  0
  3  2  1  0
  4  3  2  0
  4  5  1  0
  5  6  2  0
  6  7  1  0
  6  1  1  0
  8  4  1  0
  9  8  2  0
 10  9  1  0
 11 12  1  0
 11 10  2  0
 12 17  2  0
 13 14  2  0
 13 12  1  0
 14 15  1  0
 15 16  2  0
 17 16  1  0
 17  8  1  0
 18  1  1  0
 18 19  1  0
 19 20  2  0
 20 21  1  0
 22 21  2  0
 22 23  1  0
 23 24  2  0
 25 24  1  0
 26 25  2  0
 27 26  1  0
 27 22  1  0
 28 19  1  0
 28 27  2  0
  1 29  1  0
  1 30  1  0
  2 31  1  0
  3 32  1  0
 10 33  1  0
 13 34  1  0
 14 35  1  0
 15 36  1  0
 16 37  1  0
 20 38  1  0
 21 39  1  0
 24 40  1  0
 25 41  1  0
 26 42  1  0
 28 43  1  0
M  ISO  8  29   8  30   8  31  14  32  14  33  14  34  14  35  14  36  14
M  ISO  7  37  14  38  14  39  14  40  14  41  14  42  14  43  14
M  END
>  <minimizedAffinity>  (1) 
-6.79043341

>  <minimizedRMSD>  (1) 
1.24801481

$$$$
