
     RDKit          3D

 55 60  0  0  1  0  0  0  0  0999 V2000
   46.6610   31.5190   48.1860 C   0  0  1  0  0  0  0  0  0  0  0  0
   46.3780   30.4470   49.1810 C   0  0  0  0  0  0  0  0  0  0  0  0
   47.5250   31.3310   49.3660 C   0  0  1  0  0  0  0  0  0  0  0  0
   48.9290   30.8630   49.1460 C   0  0  2  0  0  0  0  0  0  0  0  0
   49.5200   30.1380   50.3820 C   0  0  0  0  0  0  0  0  0  0  0  0
   50.0250   31.4770   50.0130 C   0  0  1  0  0  0  0  0  0  0  0  0
   51.4100   31.4870   49.4740 C   0  0  0  0  0  0  0  0  0  0  0  0
   51.8450   30.6010   48.5600 N   0  0  0  0  0  0  0  0  0  0  0  0
   53.0780   30.5720   48.0480 C   0  0  0  0  0  0  0  0  0  0  0  0
   54.0040   31.4880   48.4510 N   0  0  0  0  0  0  0  0  0  0  0  0
   53.6200   32.4080   49.3720 C   0  0  0  0  0  0  0  0  0  0  0  0
   54.5910   33.3150   49.7480 C   0  0  0  0  0  0  0  0  0  0  0  0
   54.2230   34.2750   50.6970 C   0  0  0  0  0  0  0  0  0  0  0  0
   52.9510   34.3110   51.2310 C   0  0  0  0  0  0  0  0  0  0  0  0
   51.9910   33.3940   50.8410 C   0  0  0  0  0  0  0  0  0  0  0  0
   52.3400   32.4280   49.8940 C   0  0  0  0  0  0  0  0  0  0  0  0
   47.1160   31.0460   46.8460 C   0  0  0  0  0  0  0  0  0  0  0  0
   46.0440   33.0200   46.1220 C   0  0  0  0  0  0  0  0  0  0  0  0
   46.8590   32.1070   45.7990 C   0  0  0  0  0  0  0  0  0  0  0  0
   44.5840   35.9440   44.4120 C   0  0  0  0  0  0  0  0  0  0  0  0
   45.2180   35.9270   43.1730 C   0  0  0  0  0  0  0  0  0  0  0  0
   46.1060   34.9310   42.9710 C   0  0  0  0  0  0  0  0  0  0  0  0
   46.3500   34.0050   43.9420 N   0  0  0  0  0  0  0  0  0  0  0  0
   45.7160   34.0500   45.1320 C   0  0  0  0  0  0  0  0  0  0  0  0
   44.8480   35.0230   45.3330 N   0  0  0  0  0  0  0  0  0  0  0  0
   46.8500   34.7820   41.7200 C   0  0  0  0  0  0  0  0  0  0  0  0
   48.0610   35.3640   41.4580 C   0  0  0  0  0  0  0  0  0  0  0  0
   48.7540   35.2160   40.2740 C   0  0  0  0  0  0  0  0  0  0  0  0
   48.2190   34.4370   39.2670 C   0  0  0  0  0  0  0  0  0  0  0  0
   47.0100   33.8300   39.4730 C   0  0  0  0  0  0  0  0  0  0  0  0
   46.3500   34.0080   40.6790 C   0  0  0  0  0  0  0  0  0  0  0  0
   46.1378   32.3880   47.7604 H   0  0  0  0  0  0  0  0  0  0  0  0
   45.5062   30.5305   49.8466 H   0  0  0  0  0  0  0  0  0  0  0  0
   46.2356   29.3574   49.1313 H   0  0  0  0  0  0  0  0  0  0  0  0
   47.8648   31.9513   50.2085 H   0  0  0  0  0  0  0  0  0  0  0  0
   48.8141   30.6865   48.0664 H   0  0  0  0  0  0  0  0  0  0  0  0
   48.9095   30.0125   51.2884 H   0  0  0  0  0  0  0  0  0  0  0  0
   49.9837   29.1558   50.5560 H   0  0  0  0  0  0  0  0  0  0  0  0
   50.1204   32.4480   50.5210 H   0  0  0  0  0  0  0  0  0  0  0  0
   53.3463   29.8097   47.3017 H   0  0  0  0  0  0  0  0  0  0  0  0
   55.6047   33.2842   49.3220 H   0  0  0  0  0  0  0  0  0  0  0  0
   54.9647   35.0182   51.0250 H   0  0  0  0  0  0  0  0  0  0  0  0
   52.6969   35.0788   51.9766 H   0  0  0  0  0  0  0  0  0  0  0  0
   50.9771   33.4249   51.2665 H   0  0  0  0  0  0  0  0  0  0  0  0
   48.1935   30.8281   46.8848 H   0  0  0  0  0  0  0  0  0  0  0  0
   46.5569   30.1372   46.5788 H   0  0  0  0  0  0  0  0  0  0  0  0
   45.5915   33.0401   47.1244 H   0  0  0  0  0  0  0  0  0  0  0  0
   47.3511   32.0864   44.8154 H   0  0  0  0  0  0  0  0  0  0  0  0
   43.8512   36.7341   44.6329 H   0  0  0  0  0  0  0  0  0  0  0  0
   45.0072   36.6827   42.4020 H   0  0  0  0  0  0  0  0  0  0  0  0
   48.5109   35.9904   42.2423 H   0  0  0  0  0  0  0  0  0  0  0  0
   49.7245   35.7144   40.1334 H   0  0  0  0  0  0  0  0  0  0  0  0
   48.7555   34.3067   38.3156 H   0  0  0  0  0  0  0  0  0  0  0  0
   46.5642   33.2042   38.6858 H   0  0  0  0  0  0  0  0  0  0  0  0
   45.3791   33.5104   40.8198 H   0  0  0  0  0  0  0  0  0  0  0  0
  1  2  1  0
  1  3  1  0
  2  3  1  0
  4  3  1  0
  4  6  1  0
  4  5  1  0
  6  5  1  0
  7 16  1  0
  7  6  1  0
  8  7  2  0
  9 10  2  0
  9  8  1  0
 10 11  1  0
 11 12  1  0
 11 16  2  0
 12 13  2  0
 13 14  1  0
 15 14  2  0
 16 15  1  0
 17  1  1  0
 19 18  2  0
 19 17  1  0
 20 25  2  0
 21 20  1  0
 22 21  2  0
 22 23  1  0
 23 24  2  0
 24 25  1  0
 24 18  1  0
 26 22  1  0
 27 26  2  0
 28 27  1  0
 29 30  1  0
 29 28  2  0
 30 31  2  0
 31 26  1  0
  1 32  1  6
  2 33  1  0
  2 34  1  0
  3 35  1  1
  4 36  1  6
  5 37  1  0
  5 38  1  0
  6 39  1  1
  9 40  1  0
 12 41  1  0
 13 42  1  0
 14 43  1  0
 15 44  1  0
 17 45  1  0
 17 46  1  0
 18 47  1  0
 19 48  1  0
 20 49  1  0
 21 50  1  0
 27 51  1  0
 28 52  1  0
 29 53  1  0
 30 54  1  0
 31 55  1  0
M  ISO  8  32  13  33  13  34  13  35  13  36  13  37  13  38  13  39  13
M  ISO  8  40  14  41  14  42  14  43  14  44  14  45   8  46   8  49  14
M  ISO  6  50  14  51  14  52  14  53  14  54  14  55  14
M  END
>  <minimizedAffinity>  (1) 
-7.09465027

>  <minimizedRMSD>  (1) 
1.1988591

$$$$
