
     RDKit          3D

 26 28  0  0  0  0  0  0  0  0999 V2000
   46.2520   32.5390   46.4930 C   0  0  0  0  0  0  0  0  0  0  0  0
   45.6530   32.8830   47.6580 N   0  0  0  0  0  0  0  0  0  0  0  0
   45.6580   32.1090   48.7450 C   0  0  0  0  0  0  0  0  0  0  0  0
   46.2600   30.9110   48.7870 N   0  0  0  0  0  0  0  0  0  0  0  0
   46.8780   30.4950   47.6720 C   0  0  0  0  0  0  0  0  0  0  0  0
   47.4950   29.2640   47.7200 C   0  0  0  0  0  0  0  0  0  0  0  0
   48.1480   28.7740   46.6090 C   0  0  0  0  0  0  0  0  0  0  0  0
   48.1440   29.5750   45.4800 C   0  0  0  0  0  0  0  0  0  0  0  0
   47.5160   30.7990   45.4760 C   0  0  0  0  0  0  0  0  0  0  0  0
   46.8610   31.3070   46.5630 C   0  0  0  0  0  0  0  0  0  0  0  0
   44.9280   35.0290   44.2670 C   0  0  0  0  0  0  0  0  0  0  0  0
   45.8330   35.1510   43.2060 C   0  0  0  0  0  0  0  0  0  0  0  0
   46.9690   34.3370   43.2460 C   0  0  0  0  0  0  0  0  0  0  0  0
   47.1030   33.5050   44.2920 N   0  0  0  0  0  0  0  0  0  0  0  0
   46.2480   33.3850   45.3000 C   0  0  0  0  0  0  0  0  0  0  0  0
   45.1860   34.1680   45.2320 N   0  0  0  0  0  0  0  0  0  0  0  0
   43.7390   35.8340   44.2910 N   0  0  0  0  0  0  0  0  0  0  0  0
   45.1447   32.4701   49.6484 H   0  0  0  0  0  0  0  0  0  0  0  0
   47.4666   28.6712   48.6462 H   0  0  0  0  0  0  0  0  0  0  0  0
   48.6479   27.7942   46.6192 H   0  0  0  0  0  0  0  0  0  0  0  0
   48.6525   29.2263   44.5690 H   0  0  0  0  0  0  0  0  0  0  0  0
   47.5422   31.3978   44.5536 H   0  0  0  0  0  0  0  0  0  0  0  0
   45.6584   35.8549   42.3789 H   0  0  0  0  0  0  0  0  0  0  0  0
   47.7262   34.3765   42.4491 H   0  0  0  0  0  0  0  0  0  0  0  0
   43.5535   36.5015   43.5288 H   0  0  0  0  0  0  0  0  0  0  0  0
   43.0717   35.7439   45.0704 H   0  0  0  0  0  0  0  0  0  0  0  0
  1 10  1  0
  1  2  2  0
  2  3  1  0
  3  4  2  0
  5  6  2  0
  5  4  1  0
  7  6  1  0
  8  7  2  0
  9  8  1  0
  9 10  2  0
 10  5  1  0
 11 17  1  0
 11 16  2  0
 12 13  2  0
 12 11  1  0
 13 14  1  0
 14 15  2  0
 15  1  1  0
 16 15  1  0
  3 18  1  0
  6 19  1  0
  7 20  1  0
  8 21  1  0
  9 22  1  0
 12 23  1  0
 13 24  1  0
 17 25  1  0
 17 26  1  0
M  ISO  7  18  14  19  14  20  14  21  14  22  14  23  14  24  14
M  END
>  <minimizedAffinity>  (1) 
-5.36164379

>  <minimizedRMSD>  (1) 
2.4391613

$$$$
