
     RDKit          3D

 24 24  0  0  0  0  0  0  0  0999 V2000
   44.1350   35.2020   41.6460 C   0  0  0  0  0  0  0  0  0  0  0  0
   42.9880   34.8350   41.0810 C   0  0  0  0  0  0  0  0  0  0  0  0
   44.2830   35.8550   44.0670 C   0  0  0  0  0  0  0  0  0  0  0  0
   44.5090   34.9150   43.0360 C   0  0  0  0  0  0  0  0  0  0  0  0
   45.0960   33.7030   43.3560 C   0  0  0  0  0  0  0  0  0  0  0  0
   45.4330   33.4680   44.6650 N   0  0  0  0  0  0  0  0  0  0  0  0
   45.2020   34.3860   45.6140 C   0  0  0  0  0  0  0  0  0  0  0  0
   44.6390   35.5500   45.3080 N   0  0  0  0  0  0  0  0  0  0  0  0
   42.6740   35.1620   39.6590 C   0  0  0  0  0  0  0  0  0  0  0  0
   41.3710   36.0040   37.3160 N   0  0  0  0  0  0  0  0  0  0  0  0
   40.7660   35.1940   38.0940 C   0  0  0  0  0  0  0  0  0  0  0  0
   41.2630   34.9520   39.4050 N   0  0  0  0  0  0  0  0  0  0  0  0
   39.5710   34.4940   37.7020 N   0  0  0  0  0  0  0  0  0  0  0  0
   40.9600   36.1470   36.3550 H   0  0  0  0  0  0  0  0  0  0  0  0
   44.8539   35.7599   41.0279 H   0  0  0  0  0  0  0  0  0  0  0  0
   42.2518   34.2760   41.6773 H   0  0  0  0  0  0  0  0  0  0  0  0
   43.8181   36.8265   43.8434 H   0  0  0  0  0  0  0  0  0  0  0  0
   45.2875   32.9471   42.5801 H   0  0  0  0  0  0  0  0  0  0  0  0
   45.4813   34.1736   46.6565 H   0  0  0  0  0  0  0  0  0  0  0  0
   42.9275   36.2141   39.4621 H   0  0  0  0  0  0  0  0  0  0  0  0
   43.2623   34.5081   38.9985 H   0  0  0  0  0  0  0  0  0  0  0  0
   40.6341   34.6347   40.1565 H   0  0  0  0  0  0  0  0  0  0  0  0
   39.1129   33.8482   38.3608 H   0  0  0  0  0  0  0  0  0  0  0  0
   39.1739   34.6389   36.7627 H   0  0  0  0  0  0  0  0  0  0  0  0
  1  4  1  0
  2  1  2  0
  3  8  2  0
  4  5  2  0
  4  3  1  0
  5  6  1  0
  6  7  2  0
  8  7  1  0
  9  2  1  0
 10 11  2  0
 11 12  1  0
 12  9  1  0
 13 11  1  0
 14 10  1  0
  1 15  1  0
  2 16  1  0
  3 17  1  0
  5 18  1  0
  7 19  1  0
  9 20  1  0
  9 21  1  0
 12 22  1  0
 13 23  1  0
 13 24  1  0
M  ISO  5  17  14  18  14  19  14  20   8  21   8
M  END
>  <minimizedAffinity>  (1) 
-4.18583393

>  <minimizedRMSD>  (1) 
0.571996093

$$$$
