
     RDKit          3D

 42 44  0  0  1  0  0  0  0  0999 V2000
   47.9600   29.3010   47.9260 C   0  0  1  0  0  0  0  0  0  0  0  0
   47.8760   28.2960   46.8440 C   0  0  0  0  0  0  0  0  0  0  0  0
   49.1700   27.5790   46.5590 C   0  0  0  0  0  0  0  0  0  0  0  0
   49.9080   27.1530   47.7920 C   0  0  0  0  0  0  0  0  0  0  0  0
   49.9000   28.2060   48.8700 C   0  0  0  0  0  0  0  0  0  0  0  0
   49.4440   29.5460   48.2830 C   0  0  2  0  0  0  0  0  0  0  0  0
   49.5470   30.5840   49.3070 C   0  0  0  0  0  0  0  0  0  0  0  0
   49.1420   30.4120   50.4780 O   0  0  0  0  0  0  0  0  0  0  0  0
   51.3110   32.0300   51.2660 N   0  0  0  0  0  0  0  0  0  0  0  0
   50.8840   32.5110   50.2150 C   0  0  0  0  0  0  0  0  0  0  0  0
   50.0570   31.8860   49.2710 N   0  0  0  0  0  0  0  0  0  0  0  0
   51.3460   33.8710   50.0440 N   0  0  0  0  0  0  0  0  0  0  0  0
   51.2110   31.1510   51.7090 H   0  0  0  0  0  0  0  0  0  0  0  0
   46.2180   32.6660   46.3870 C   0  0  0  0  0  0  0  0  0  0  0  0
   45.9460   32.5030   47.7430 C   0  0  0  0  0  0  0  0  0  0  0  0
   46.4570   31.4360   48.3590 C   0  0  0  0  0  0  0  0  0  0  0  0
   47.2500   30.5050   47.6470 C   0  0  0  0  0  0  0  0  0  0  0  0
   47.2670   31.2050   45.9660 S   0  0  0  0  0  0  0  0  0  0  0  0
   44.5190   35.6820   45.0210 C   0  0  0  0  0  0  0  0  0  0  0  0
   45.1010   35.7490   43.7560 C   0  0  0  0  0  0  0  0  0  0  0  0
   46.0430   34.7720   43.4130 C   0  0  0  0  0  0  0  0  0  0  0  0
   46.3410   33.8010   44.3450 N   0  0  0  0  0  0  0  0  0  0  0  0
   45.7500   33.7860   45.5490 C   0  0  0  0  0  0  0  0  0  0  0  0
   44.8320   34.7330   45.8900 N   0  0  0  0  0  0  0  0  0  0  0  0
   47.4468   28.8908   48.8082 H   0  0  0  0  0  0  0  0  0  0  0  0
   47.1227   27.5465   47.1283 H   0  0  0  0  0  0  0  0  0  0  0  0
   47.6116   28.8431   45.9271 H   0  0  0  0  0  0  0  0  0  0  0  0
   48.9460   26.6830   45.9615 H   0  0  0  0  0  0  0  0  0  0  0  0
   49.8194   28.2885   46.0252 H   0  0  0  0  0  0  0  0  0  0  0  0
   49.4355   26.2417   48.1873 H   0  0  0  0  0  0  0  0  0  0  0  0
   50.9560   26.9784   47.5072 H   0  0  0  0  0  0  0  0  0  0  0  0
   49.2088   27.9038   49.6706 H   0  0  0  0  0  0  0  0  0  0  0  0
   50.9154   28.3152   49.2788 H   0  0  0  0  0  0  0  0  0  0  0  0
   50.0430   29.8727   47.4202 H   0  0  0  0  0  0  0  0  0  0  0  0
   49.7934   32.4536   48.4529 H   0  0  0  0  0  0  0  0  0  0  0  0
   51.0706   34.4073   49.2089 H   0  0  0  0  0  0  0  0  0  0  0  0
   51.9504   34.3031   50.7574 H   0  0  0  0  0  0  0  0  0  0  0  0
   45.3289   33.2316   48.2891 H   0  0  0  0  0  0  0  0  0  0  0  0
   46.2603   31.2784   49.4297 H   0  0  0  0  0  0  0  0  0  0  0  0
   43.7762   36.4415   45.3064 H   0  0  0  0  0  0  0  0  0  0  0  0
   44.8281   36.5458   43.0485 H   0  0  0  0  0  0  0  0  0  0  0  0
   46.5317   34.7789   42.4275 H   0  0  0  0  0  0  0  0  0  0  0  0
  1  6  1  0
  2  1  1  0
  3  2  1  0
  3  4  1  0
  4  5  1  0
  6  5  1  0
  6  7  1  0
  7  8  2  0
  9 13  1  0
 10  9  2  0
 11  7  1  0
 11 10  1  0
 12 10  1  0
 14 15  2  0
 15 16  1  0
 17  1  1  0
 17 16  2  0
 18 14  1  0
 18 17  1  0
 19 24  2  0
 20 19  1  0
 21 20  2  0
 21 22  1  0
 22 23  2  0
 23 24  1  0
 23 14  1  0
  1 25  1  1
  2 26  1  0
  2 27  1  0
  3 28  1  0
  3 29  1  0
  4 30  1  0
  4 31  1  0
  5 32  1  0
  5 33  1  0
  6 34  1  6
 11 35  1  0
 12 36  1  0
 12 37  1  0
 15 38  1  0
 16 39  1  0
 19 40  1  0
 20 41  1  0
 21 42  1  0
M  ISO  8  25  13  26  13  27  13  28  13  29  13  30  13  31  13  32  13
M  ISO  7  33  13  34  13  38  14  39  14  40  14  41  14  42  14
M  END
>  <minimizedAffinity>  (1) 
-5.59249163

>  <minimizedRMSD>  (1) 
1.22301733

$$$$
