
     RDKit          3D

 45 47  0  0  0  0  0  0  0  0999 V2000
   47.7640   31.0680   45.9570 C   0  0  0  0  0  0  0  0  0  0  0  0
   46.9950   32.0750   45.4290 C   0  0  0  0  0  0  0  0  0  0  0  0
   45.9480   32.5160   46.1880 C   0  0  0  0  0  0  0  0  0  0  0  0
   45.6300   32.0190   47.4220 C   0  0  0  0  0  0  0  0  0  0  0  0
   44.6930   32.2350   48.3840 N   0  0  0  0  0  0  0  0  0  0  0  0
   44.8990   31.3910   49.4360 C   0  0  0  0  0  0  0  0  0  0  0  0
   45.9740   30.6520   49.1120 N   0  0  0  0  0  0  0  0  0  0  0  0
   46.4280   31.0140   47.9070 C   0  0  0  0  0  0  0  0  0  0  0  0
   47.4990   30.5150   47.2060 C   0  0  0  0  0  0  0  0  0  0  0  0
   47.2780   34.4290   42.6520 C   0  0  0  0  0  0  0  0  0  0  0  0
   47.8770   33.6600   41.6490 C   0  0  0  0  0  0  0  0  0  0  0  0
   48.1720   32.3180   41.9710 C   0  0  0  0  0  0  0  0  0  0  0  0
   47.8720   31.8440   43.2020 N   0  0  0  0  0  0  0  0  0  0  0  0
   47.2960   32.6360   44.1220 C   0  0  0  0  0  0  0  0  0  0  0  0
   46.9940   33.9180   43.8700 N   0  0  0  0  0  0  0  0  0  0  0  0
   48.1610   34.2810   40.3310 C   0  0  0  0  0  0  0  0  0  0  0  0
   48.7020   35.5210   40.6480 F   0  0  0  0  0  0  0  0  0  0  0  0
   46.9890   34.4520   39.6820 F   0  0  0  0  0  0  0  0  0  0  0  0
   49.0450   33.4720   39.6380 F   0  0  0  0  0  0  0  0  0  0  0  0
   48.2670   29.5000   47.7510 O   0  0  0  0  0  0  0  0  0  0  0  0
   49.9760   28.3280   49.3080 O   0  0  0  0  0  0  0  0  0  0  0  0
   49.4910   29.7150   48.8920 P   0  0  2  0  0  0  0  0  0  0  0  0
   48.7670   30.4020   50.2750 O   0  0  0  0  0  0  0  0  0  0  0  0
   50.7690   30.6580   48.3670 O   0  0  0  0  0  0  0  0  0  0  0  0
   51.6370   31.0390   49.3620 C   0  0  0  0  0  0  0  0  0  0  0  0
   51.1450   32.4010   49.8750 C   0  0  0  0  0  0  0  0  0  0  0  0
   50.8030   30.7760   52.2410 N   0  0  0  0  0  0  0  0  0  0  0  0
   51.3690   31.9270   52.2550 C   0  0  0  0  0  0  0  0  0  0  0  0
   51.8320   32.6440   51.1260 N   0  0  0  0  0  0  0  0  0  0  0  0
   51.4860   32.4290   53.6020 N   0  0  0  0  0  0  0  0  0  0  0  0
   50.6570   30.3020   51.3290 H   0  0  0  0  0  0  0  0  0  0  0  0
   48.6158   30.6865   45.3749 H   0  0  0  0  0  0  0  0  0  0  0  0
   45.3206   33.3224   45.7806 H   0  0  0  0  0  0  0  0  0  0  0  0
   43.9383   32.9336   48.3267 H   0  0  0  0  0  0  0  0  0  0  0  0
   44.3063   31.3281   50.3606 H   0  0  0  0  0  0  0  0  0  0  0  0
   47.0310   35.4803   42.4431 H   0  0  0  0  0  0  0  0  0  0  0  0
   48.6433   31.6610   41.2251 H   0  0  0  0  0  0  0  0  0  0  0  0
   49.1760   30.0139   51.0888 H   0  0  0  0  0  0  0  0  0  0  0  0
   51.6279   30.3004   50.1771 H   0  0  0  0  0  0  0  0  0  0  0  0
   52.6683   31.1057   48.9851 H   0  0  0  0  0  0  0  0  0  0  0  0
   51.3881   33.1906   49.1488 H   0  0  0  0  0  0  0  0  0  0  0  0
   50.0539   32.4019   50.0147 H   0  0  0  0  0  0  0  0  0  0  0  0
   52.6186   33.3058   51.1911 H   0  0  0  0  0  0  0  0  0  0  0  0
   51.9216   33.3464   53.7737 H   0  0  0  0  0  0  0  0  0  0  0  0
   51.1340   31.8701   54.3923 H   0  0  0  0  0  0  0  0  0  0  0  0
  1  9  2  0
  2  1  1  0
  2  3  2  0
  3  4  1  0
  4  8  2  0
  4  5  1  0
  5  6  1  0
  7  6  2  0
  8  7  1  0
  9 20  1  0
  9  8  1  0
 10 15  2  0
 11 12  2  0
 11 10  1  0
 12 13  1  0
 13 14  2  0
 14  2  1  0
 15 14  1  0
 16 17  1  0
 16 11  1  0
 18 16  1  0
 19 16  1  0
 20 22  1  0
 22 21  2  0
 22 23  1  0
 24 22  1  0
 24 25  1  0
 25 26  1  0
 26 29  1  0
 27 28  2  0
 28 30  1  0
 29 28  1  0
 31 27  1  0
  1 32  1  0
  3 33  1  0
  5 34  1  0
  6 35  1  0
 10 36  1  0
 12 37  1  0
 23 38  1  0
 25 39  1  0
 25 40  1  0
 26 41  1  0
 26 42  1  0
 29 43  1  0
 30 44  1  0
 30 45  1  0
M  ISO  8  32  14  33  14  34   9  35  14  36  14  37  14  38   3  39   8
M  ISO  3  40   8  41   8  42   8
M  END
>  <minimizedAffinity>  (1) 
-6.05320883

>  <minimizedRMSD>  (1) 
0.930083513

$$$$
