
     RDKit          3D

 47 45  0  0  1  0  0  0  0  0999 V2000
   47.1710   33.4200   42.5570 C   0  0  0  0  0  0  0  0  0  0  0  0
   47.3250   33.5070   41.0640 C   0  0  0  0  0  0  0  0  0  0  0  0
   48.2390   32.3370   40.7910 C   0  0  0  0  0  0  0  0  0  0  0  0
   49.0920   32.1920   42.0460 C   0  0  0  0  0  0  0  0  0  0  0  0
   48.6340   33.2940   42.9850 C   0  0  1  0  0  0  0  0  0  0  0  0
   48.2240   35.0950   40.8330 N   0  0  0  0  0  0  0  0  0  0  0  0
   49.0270   35.3710   41.8070 C   0  0  0  0  0  0  0  0  0  0  0  0
   49.3720   34.5040   42.8910 N   0  0  0  0  0  0  0  0  0  0  0  0
   49.6050   36.6820   41.7560 N   0  0  0  0  0  0  0  0  0  0  0  0
   46.6000   34.5580   43.1260 O   0  0  0  0  0  0  0  0  0  0  0  0
   44.6620   35.2770   44.7000 O   0  0  0  0  0  0  0  0  0  0  0  0
   45.4660   34.0890   44.2800 P   0  0  1  0  0  0  0  0  0  0  0  0
   44.5130   32.8200   43.7360 O   0  0  0  0  0  0  0  0  0  0  0  0
   46.3200   33.4850   45.6160 O   0  0  0  0  0  0  0  0  0  0  0  0
   46.1930   32.1230   45.6230 C   0  0  0  0  0  0  0  0  0  0  0  0
   45.6610   31.9190   49.2970 C   0  0  0  0  0  0  0  0  0  0  0  0
   45.9860   32.4440   48.0420 C   0  0  0  0  0  0  0  0  0  0  0  0
   45.8590   31.5970   46.9430 C   0  0  0  0  0  0  0  0  0  0  0  0
   45.4270   30.3160   47.1620 N   0  0  0  0  0  0  0  0  0  0  0  0
   45.1220   29.8440   48.3830 C   0  0  0  0  0  0  0  0  0  0  0  0
   45.2450   30.6590   49.4450 N   0  0  0  0  0  0  0  0  0  0  0  0
   47.1181   33.4960   41.4609 H   0  0  0  0  0  0  0  0  0  0  0  0
   46.6189   32.5319   42.8984 H   0  0  0  0  0  0  0  0  0  0  0  0
   47.3250   33.5070   42.1640 H   0  0  0  0  0  0  0  0  0  0  0  0
   47.3250   34.5441   40.6973 H   0  0  0  0  0  0  0  0  0  0  0  0
   48.2231   32.9885   40.6973 H   0  0  0  0  0  0  0  0  0  0  0  0
   46.4269   32.9885   40.6973 H   0  0  0  0  0  0  0  0  0  0  0  0
   47.1921   32.5150   41.0778 H   0  0  0  0  0  0  0  0  0  0  0  0
   48.6052   33.1858   40.1948 H   0  0  0  0  0  0  0  0  0  0  0  0
   48.3042   31.4149   40.1948 H   0  0  0  0  0  0  0  0  0  0  0  0
   48.9326   31.2056   42.5060 H   0  0  0  0  0  0  0  0  0  0  0  0
   50.1652   32.2730   41.8185 H   0  0  0  0  0  0  0  0  0  0  0  0
   48.7835   33.0637   44.0502 H   0  0  0  0  0  0  0  0  0  0  0  0
   48.2240   35.0950   41.8630 H   0  0  0  0  0  0  0  0  0  0  0  0
   48.2240   36.0661   40.4897 H   0  0  0  0  0  0  0  0  0  0  0  0
   49.0650   34.6095   40.4897 H   0  0  0  0  0  0  0  0  0  0  0  0
   49.3133   34.8559   40.8782 H   0  0  0  0  0  0  0  0  0  0  0  0
   47.9532   35.5609   41.9518 H   0  0  0  0  0  0  0  0  0  0  0  0
   50.3674   34.2582   42.7924 H   0  0  0  0  0  0  0  0  0  0  0  0
   49.7574   37.0276   42.7143 H   0  0  0  0  0  0  0  0  0  0  0  0
   50.5060   36.6409   41.2585 H   0  0  0  0  0  0  0  0  0  0  0  0
   44.1438   32.3284   44.5119 H   0  0  0  0  0  0  0  0  0  0  0  0
   45.3965   31.8398   44.9191 H   0  0  0  0  0  0  0  0  0  0  0  0
   47.1638   31.6964   45.3303 H   0  0  0  0  0  0  0  0  0  0  0  0
   45.7505   32.5612   50.1856 H   0  0  0  0  0  0  0  0  0  0  0  0
   46.3279   33.4832   47.9273 H   0  0  0  0  0  0  0  0  0  0  0  0
   44.7772   28.8073   48.5112 H   0  0  0  0  0  0  0  0  0  0  0  0
  1  5  1  0
  1 10  1  0
  3  4  1  0
  4  5  1  0
  7  8  1  0
  8  5  1  0
  9  7  1  0
 10 12  1  0
 12 11  2  0
 12 14  1  0
 13 12  1  0
 14 15  1  0
 15 18  1  0
 16 21  2  0
 17 16  1  0
 18 19  1  0
 18 17  2  0
 19 20  2  0
 20 21  1  0
  1 22  1  0
  1 23  1  0
  2 24  1  0
  2 25  1  0
  2 26  1  0
  2 27  1  0
  3 28  1  0
  3 29  1  0
  3 30  1  0
  4 31  1  0
  4 32  1  0
  5 33  1  1
  6 34  1  0
  6 35  1  0
  6 36  1  0
  7 37  1  0
  7 38  1  0
  8 39  1  0
  9 40  1  0
  9 41  1  0
 13 42  1  0
 15 43  1  0
 15 44  1  0
 16 45  1  0
 17 46  1  0
 20 47  1  0
M  ISO  8  22   8  23   8  24   8  25   8  26   8  27   8  28   8  29   8
M  ISO  8  30   8  31   8  32   8  33   8  34   5  35   5  36   5  37   8
M  ISO  8  38   8  39   5  40   5  41   5  42   3  43   8  44   8  45  14
M  ISO  2  46  14  47  14
M  END
>  <minimizedAffinity>  (1) 
-5.07745075

>  <minimizedRMSD>  (1) 
1.11699712

$$$$
