
     RDKit          3D

 27 28  0  0  0  0  0  0  0  0999 V2000
   47.0750   33.5960   39.4770 C   0  0  0  0  0  0  0  0  0  0  0  0
   48.1500   33.8900   38.6860 C   0  0  0  0  0  0  0  0  0  0  0  0
   47.7390   33.8970   37.3650 C   0  0  0  0  0  0  0  0  0  0  0  0
   46.3860   33.5970   37.4280 C   0  0  0  0  0  0  0  0  0  0  0  0
   46.0240   33.4240   38.6740 O   0  0  0  0  0  0  0  0  0  0  0  0
   46.4710   31.5220   35.4990 N   0  0  0  0  0  0  0  0  0  0  0  0
   45.6460   32.5100   35.2760 C   0  0  0  0  0  0  0  0  0  0  0  0
   45.5250   33.4900   36.3000 N   0  0  0  0  0  0  0  0  0  0  0  0
   44.8910   32.6100   34.0540 N   0  0  0  0  0  0  0  0  0  0  0  0
   46.5640   30.7900   34.7380 H   0  0  0  0  0  0  0  0  0  0  0  0
   46.9700   33.4690   40.8740 O   0  0  0  0  0  0  0  0  0  0  0  0
   47.2310   34.5520   41.7140 C   0  0  0  0  0  0  0  0  0  0  0  0
   48.1410   35.3350   41.3410 O   0  0  0  0  0  0  0  0  0  0  0  0
   46.4320   34.6380   42.8990 C   0  0  0  0  0  0  0  0  0  0  0  0
   45.5490   35.6940   42.8900 C   0  0  0  0  0  0  0  0  0  0  0  0
   44.7340   35.8340   44.0280 C   0  0  0  0  0  0  0  0  0  0  0  0
   44.8550   34.9520   45.0410 N   0  0  0  0  0  0  0  0  0  0  0  0
   45.7490   33.9290   44.9860 C   0  0  0  0  0  0  0  0  0  0  0  0
   46.5360   33.7780   43.9090 N   0  0  0  0  0  0  0  0  0  0  0  0
   49.1722   34.0881   39.0407 H   0  0  0  0  0  0  0  0  0  0  0  0
   48.3462   34.0951   36.4694 H   0  0  0  0  0  0  0  0  0  0  0  0
   44.7577   34.1724   36.2190 H   0  0  0  0  0  0  0  0  0  0  0  0
   44.2486   33.4019   33.9089 H   0  0  0  0  0  0  0  0  0  0  0  0
   44.9934   31.8896   33.3250 H   0  0  0  0  0  0  0  0  0  0  0  0
   45.4843   36.3896   42.0403 H   0  0  0  0  0  0  0  0  0  0  0  0
   44.0048   36.6552   44.0910 H   0  0  0  0  0  0  0  0  0  0  0  0
   45.8276   33.2233   45.8262 H   0  0  0  0  0  0  0  0  0  0  0  0
  1 11  1  0
  2  1  2  0
  3  4  2  0
  3  2  1  0
  4  5  1  0
  5  1  1  0
  7  6  2  0
  7  8  1  0
  8  4  1  0
  9  7  1  0
 10  6  1  0
 11 12  1  0
 12 14  1  0
 13 12  2  0
 14 19  1  0
 15 14  2  0
 15 16  1  0
 16 17  2  0
 18 17  1  0
 19 18  2  0
  2 20  1  0
  3 21  1  0
  8 22  1  0
  9 23  1  0
  9 24  1  0
 15 25  1  0
 16 26  1  0
 18 27  1  0
M  ISO  5  20  14  21  14  25  14  26  14  27  14
M  END
>  <minimizedAffinity>  (1) 
-5.42271233

>  <minimizedRMSD>  (1) 
0.727472186

$$$$
