
     RDKit          3D

 21 21  0  0  0  0  0  0  0  0999 V2000
   44.4580   35.7200   44.8620 C   0  0  0  0  0  0  0  0  0  0  0  0
   44.9310   35.0300   43.7610 C   0  0  0  0  0  0  0  0  0  0  0  0
   45.5090   33.7690   44.0120 C   0  0  0  0  0  0  0  0  0  0  0  0
   45.5720   33.3080   45.2810 N   0  0  0  0  0  0  0  0  0  0  0  0
   45.0910   34.0350   46.3000 C   0  0  0  0  0  0  0  0  0  0  0  0
   44.5340   35.2380   46.0940 N   0  0  0  0  0  0  0  0  0  0  0  0
   45.1450   33.5760   47.6340 N   0  0  0  0  0  0  0  0  0  0  0  0
   42.5790   35.5690   42.1400 N   0  0  0  0  0  0  0  0  0  0  0  0
   43.7300   35.3360   41.5510 C   0  0  0  0  0  0  0  0  0  0  0  0
   44.8550   35.5170   42.4280 N   0  0  0  0  0  0  0  0  0  0  0  0
   44.0110   34.9360   40.1940 N   0  0  0  0  0  0  0  0  0  0  0  0
   41.7200   35.4640   41.5930 H   0  0  0  0  0  0  0  0  0  0  0  0
   46.0070   33.0330   42.8930 N   0  0  0  0  0  0  0  0  0  0  0  0
   44.0003   36.7085   44.7090 H   0  0  0  0  0  0  0  0  0  0  0  0
   44.7667   34.1583   48.3947 H   0  0  0  0  0  0  0  0  0  0  0  0
   45.5627   32.6588   47.8465 H   0  0  0  0  0  0  0  0  0  0  0  0
   45.6653   36.0379   42.0634 H   0  0  0  0  0  0  0  0  0  0  0  0
   44.9848   34.7939   39.8902 H   0  0  0  0  0  0  0  0  0  0  0  0
   43.2378   34.7925   39.5288 H   0  0  0  0  0  0  0  0  0  0  0  0
   46.4365   32.1077   43.0351 H   0  0  0  0  0  0  0  0  0  0  0  0
   45.9365   33.4278   41.9443 H   0  0  0  0  0  0  0  0  0  0  0  0
  1  6  2  0
  2  3  2  0
  2  1  1  0
  3  4  1  0
  4  5  2  0
  5  7  1  0
  6  5  1  0
  9  8  2  0
  9 10  1  0
 10  2  1  0
 11  9  1  0
 12  8  1  0
 13  3  1  0
  1 14  1  0
  7 15  1  0
  7 16  1  0
 10 17  1  0
 11 18  1  0
 11 19  1  0
 13 20  1  0
 13 21  1  0
M  ISO  1  14  14
M  END
>  <minimizedAffinity>  (1) 
-4.56575394

>  <minimizedRMSD>  (1) 
1.35511243

$$$$
