
     RDKit          3D

 47 48  0  0  1  0  0  0  0  0999 V2000
   46.9480   34.3590   43.3180 N   0  0  0  0  0  0  0  0  0  0  0  0
   46.5840   34.9020   42.0650 C   0  0  0  0  0  0  0  0  0  0  0  0
   45.1040   34.7920   41.7310 C   0  0  0  0  0  0  0  0  0  0  0  0
   44.1910   34.9060   42.9290 C   0  0  0  0  0  0  0  0  0  0  0  0
   44.9700   35.1950   44.2020 C   0  0  0  0  0  0  0  0  0  0  0  0
   46.0030   33.9990   44.2610 C   0  0  2  0  0  0  0  0  0  0  0  0
   48.2130   33.6670   43.3100 C   0  0  0  0  0  0  0  0  0  0  0  0
   48.0110   32.3270   42.6760 C   0  0  0  0  0  0  0  0  0  0  0  0
   51.4290   31.9440   41.1680 C   0  0  0  0  0  0  0  0  0  0  0  0
   50.3870   32.1610   42.0870 C   0  0  0  0  0  0  0  0  0  0  0  0
   49.0830   32.0930   41.6830 C   0  0  0  0  0  0  0  0  0  0  0  0
   48.8590   31.8140   40.3990 N   0  0  0  0  0  0  0  0  0  0  0  0
   49.8360   31.6030   39.5040 C   0  0  0  0  0  0  0  0  0  0  0  0
   51.1330   31.6640   39.8720 N   0  0  0  0  0  0  0  0  0  0  0  0
   46.4790   34.1300   45.5550 O   0  0  0  0  0  0  0  0  0  0  0  0
   45.5670   31.6270   45.6760 O   0  0  0  0  0  0  0  0  0  0  0  0
   46.1250   32.8040   46.5070 P   0  0  2  0  0  0  0  0  0  0  0  0
   44.7960   33.2610   47.4980 O   0  0  0  0  0  0  0  0  0  0  0  0
   47.3530   32.3150   47.5040 O   0  0  0  0  0  0  0  0  0  0  0  0
   46.8620   32.0000   48.7530 C   0  0  0  0  0  0  0  0  0  0  0  0
   49.6300   31.7810   49.3670 N   0  0  0  0  0  0  0  0  0  0  0  0
   48.7430   30.8730   49.6030 C   0  0  0  0  0  0  0  0  0  0  0  0
   47.3400   30.7430   49.2880 N   0  0  0  0  0  0  0  0  0  0  0  0
   49.4920   29.8780   50.3310 N   0  0  0  0  0  0  0  0  0  0  0  0
   49.4570   32.6590   48.8580 H   0  0  0  0  0  0  0  0  0  0  0  0
   46.8582   35.9673   42.0604 H   0  0  0  0  0  0  0  0  0  0  0  0
   47.1189   34.3145   41.3043 H   0  0  0  0  0  0  0  0  0  0  0  0
   44.8487   35.5955   41.0245 H   0  0  0  0  0  0  0  0  0  0  0  0
   44.9481   33.7887   41.3079 H   0  0  0  0  0  0  0  0  0  0  0  0
   43.4751   35.7230   42.7556 H   0  0  0  0  0  0  0  0  0  0  0  0
   43.6692   33.9460   43.0559 H   0  0  0  0  0  0  0  0  0  0  0  0
   45.4882   36.1632   44.1380 H   0  0  0  0  0  0  0  0  0  0  0  0
   44.3327   35.2640   45.0959 H   0  0  0  0  0  0  0  0  0  0  0  0
   45.6579   32.9735   44.0626 H   0  0  0  0  0  0  0  0  0  0  0  0
   48.9494   34.2447   42.7322 H   0  0  0  0  0  0  0  0  0  0  0  0
   48.5864   33.5478   44.3378 H   0  0  0  0  0  0  0  0  0  0  0  0
   48.0479   31.5449   43.4486 H   0  0  0  0  0  0  0  0  0  0  0  0
   47.0313   32.2979   42.1766 H   0  0  0  0  0  0  0  0  0  0  0  0
   52.4773   32.0006   41.4964 H   0  0  0  0  0  0  0  0  0  0  0  0
   50.6228   32.3869   43.1374 H   0  0  0  0  0  0  0  0  0  0  0  0
   49.5771   31.3778   38.4589 H   0  0  0  0  0  0  0  0  0  0  0  0
   45.0496   33.1738   48.4510 H   0  0  0  0  0  0  0  0  0  0  0  0
   47.1524   32.8015   49.4482 H   0  0  0  0  0  0  0  0  0  0  0  0
   45.7722   31.8983   48.6434 H   0  0  0  0  0  0  0  0  0  0  0  0
   46.7720   29.8943   49.4221 H   0  0  0  0  0  0  0  0  0  0  0  0
   49.0263   29.0188   50.6562 H   0  0  0  0  0  0  0  0  0  0  0  0
   50.4925   30.0268   50.5256 H   0  0  0  0  0  0  0  0  0  0  0  0
  1  6  1  0
  2  1  1  0
  3  2  1  0
  3  4  1  0
  4  5  1  0
  5  6  1  0
  6 15  1  0
  7  1  1  0
  8  7  1  0
  9 10  2  0
 11 10  1  0
 11  8  1  0
 12 11  2  0
 13 14  2  0
 13 12  1  0
 14  9  1  0
 15 17  1  0
 17 16  2  0
 17 18  1  0
 17 19  1  0
 19 20  1  0
 20 23  1  0
 21 22  2  0
 22 24  1  0
 23 22  1  0
 25 21  1  0
  2 26  1  0
  2 27  1  0
  3 28  1  0
  3 29  1  0
  4 30  1  0
  4 31  1  0
  5 32  1  0
  5 33  1  0
  6 34  1  6
  7 35  1  0
  7 36  1  0
  8 37  1  0
  8 38  1  0
  9 39  1  0
 10 40  1  0
 13 41  1  0
 18 42  1  0
 20 43  1  0
 20 44  1  0
 23 45  1  0
 24 46  1  0
 24 47  1  0
M  ISO  8  26  13  27  13  28  13  29  13  30  13  31  13  32  13  33  13
M  ISO  8  34  13  35   8  36   8  37   8  38   8  39  14  40  14  41  14
M  ISO  3  42   3  43   8  44   8
M  END
>  <minimizedAffinity>  (1) 
-5.1730237

>  <minimizedRMSD>  (1) 
3.5094924

$$$$
