
     RDKit          3D

 18 18  0  0  0  0  0  0  0  0999 V2000
   44.9240   35.4760   44.4600 C   0  0  0  0  0  0  0  0  0  0  0  0
   45.8810   34.8480   43.6440 C   0  0  0  0  0  0  0  0  0  0  0  0
   46.5350   33.7250   44.1710 C   0  0  0  0  0  0  0  0  0  0  0  0
   46.2120   33.3190   45.4170 N   0  0  0  0  0  0  0  0  0  0  0  0
   45.2850   33.9560   46.1660 C   0  0  0  0  0  0  0  0  0  0  0  0
   44.6490   35.0250   45.6870 N   0  0  0  0  0  0  0  0  0  0  0  0
   47.2230   32.8080   47.7290 N   0  0  0  0  0  0  0  0  0  0  0  0
   46.0260   32.8020   48.2160 C   0  0  0  0  0  0  0  0  0  0  0  0
   45.0040   33.4610   47.4720 N   0  0  0  0  0  0  0  0  0  0  0  0
   45.6710   32.1780   49.4440 N   0  0  0  0  0  0  0  0  0  0  0  0
   48.0470   32.3610   48.1810 H   0  0  0  0  0  0  0  0  0  0  0  0
   44.2900   36.5740   43.9340 O   0  0  0  0  0  0  0  0  0  0  0  0
   46.1074   35.2218   42.6345 H   0  0  0  0  0  0  0  0  0  0  0  0
   47.2934   33.1876   43.5827 H   0  0  0  0  0  0  0  0  0  0  0  0
   44.0647   33.5790   47.8777 H   0  0  0  0  0  0  0  0  0  0  0  0
   44.6963   32.2106   49.7753 H   0  0  0  0  0  0  0  0  0  0  0  0
   46.3887   31.6936   50.0019 H   0  0  0  0  0  0  0  0  0  0  0  0
   44.5146   36.8853   43.0214 H   0  0  0  0  0  0  0  0  0  0  0  0
  1  6  2  0
  2  3  2  0
  2  1  1  0
  3  4  1  0
  4  5  2  0
  5  9  1  0
  6  5  1  0
  7 11  1  0
  7  8  2  0
  8 10  1  0
  9  8  1  0
 12  1  1  0
  2 13  1  0
  3 14  1  0
  9 15  1  0
 10 16  1  0
 10 17  1  0
 12 18  1  0
M  ISO  3  13  14  14  14  18   3
M  END
>  <minimizedAffinity>  (1) 
-5.36007261

>  <minimizedRMSD>  (1) 
0.391375571

$$$$
