
     RDKit          3D

 45 48  0  0  1  0  0  0  0  0999 V2000
   46.9900   32.9690   38.8080 N   0  0  0  0  0  0  0  0  0  0  0  0
   46.1300   33.2290   37.6730 C   0  0  0  0  0  0  0  0  0  0  0  0
   45.3950   31.9790   37.2380 C   0  0  0  0  0  0  0  0  0  0  0  0
   46.3050   30.9500   36.7630 N   0  0  0  0  0  0  0  0  0  0  0  0
   47.6460   31.2790   37.2660 C   0  0  0  0  0  0  0  0  0  0  0  0
   47.5340   31.6190   38.7340 C   0  0  1  0  0  0  0  0  0  0  0  0
   45.1090   32.7920   41.2980 Br  0  0  0  0  0  0  0  0  0  0  0  0
   46.6240   33.9120   41.0590 C   0  0  0  0  0  0  0  0  0  0  0  0
   47.0150   34.7850   42.0540 C   0  0  0  0  0  0  0  0  0  0  0  0
   48.1270   35.6180   41.8990 C   0  0  0  0  0  0  0  0  0  0  0  0
   48.8310   35.5480   40.7210 C   0  0  0  0  0  0  0  0  0  0  0  0
   48.4090   34.6610   39.7500 C   0  0  0  0  0  0  0  0  0  0  0  0
   47.3220   33.8400   39.8880 C   0  0  0  0  0  0  0  0  0  0  0  0
   45.7600   33.9500   45.3870 C   0  0  0  0  0  0  0  0  0  0  0  0
   44.7530   34.9100   45.6210 C   0  0  0  0  0  0  0  0  0  0  0  0
   44.5300   35.8360   44.6070 C   0  0  0  0  0  0  0  0  0  0  0  0
   45.2660   35.7750   43.4770 N   0  0  0  0  0  0  0  0  0  0  0  0
   46.2390   34.8240   43.2840 C   0  0  0  0  0  0  0  0  0  0  0  0
   46.4580   33.9260   44.2620 N   0  0  0  0  0  0  0  0  0  0  0  0
   48.7550   31.4500   39.4740 N   0  0  0  0  0  0  0  0  0  0  0  0
   48.6260   30.9760   40.7270 C   0  0  0  0  0  0  0  0  0  0  0  0
   49.7560   30.7930   41.4840 C   0  0  0  0  0  0  0  0  0  0  0  0
   50.9510   31.1140   40.8930 C   0  0  0  0  0  0  0  0  0  0  0  0
   52.1940   30.9700   41.5710 N   0  0  0  0  0  0  0  0  0  0  0  0
   51.0260   31.5850   39.6360 N   0  0  0  0  0  0  0  0  0  0  0  0
   49.9010   31.7660   38.8850 C   0  0  0  0  0  0  0  0  0  0  0  0
   50.0400   32.2040   37.7300 O   0  0  0  0  0  0  0  0  0  0  0  0
   45.3943   33.9983   37.9504 H   0  0  0  0  0  0  0  0  0  0  0  0
   46.7562   33.5710   36.8358 H   0  0  0  0  0  0  0  0  0  0  0  0
   44.8282   31.5842   38.0941 H   0  0  0  0  0  0  0  0  0  0  0  0
   44.7254   32.2498   36.4084 H   0  0  0  0  0  0  0  0  0  0  0  0
   46.0118   30.0294   37.1198 H   0  0  0  0  0  0  0  0  0  0  0  0
   48.3144   30.4153   37.1345 H   0  0  0  0  0  0  0  0  0  0  0  0
   48.0592   32.1337   36.7103 H   0  0  0  0  0  0  0  0  0  0  0  0
   46.8609   30.9048   39.2308 H   0  0  0  0  0  0  0  0  0  0  0  0
   48.4301   36.3105   42.6981 H   0  0  0  0  0  0  0  0  0  0  0  0
   49.7122   36.1851   40.5548 H   0  0  0  0  0  0  0  0  0  0  0  0
   48.9796   34.6113   38.8109 H   0  0  0  0  0  0  0  0  0  0  0  0
   45.9716   33.1989   46.1623 H   0  0  0  0  0  0  0  0  0  0  0  0
   44.1744   34.9255   46.5564 H   0  0  0  0  0  0  0  0  0  0  0  0
   43.7596   36.6122   44.7252 H   0  0  0  0  0  0  0  0  0  0  0  0
   47.6330   30.7396   41.1369 H   0  0  0  0  0  0  0  0  0  0  0  0
   49.7056   30.4081   42.5132 H   0  0  0  0  0  0  0  0  0  0  0  0
   53.0723   31.2212   41.0952 H   0  0  0  0  0  0  0  0  0  0  0  0
   52.2153   30.6145   42.5375 H   0  0  0  0  0  0  0  0  0  0  0  0
  1 13  1  0
  2  1  1  0
  3  2  1  0
  4  3  1  0
  4  5  1  0
  5  6  1  0
  6  1  1  0
  6 20  1  0
  8  7  1  0
  8  9  2  0
  9 18  1  0
 10  9  1  0
 11 10  2  0
 12 13  2  0
 12 11  1  0
 13  8  1  0
 14 15  2  0
 16 15  1  0
 17 16  2  0
 18 17  1  0
 18 19  2  0
 19 14  1  0
 20 21  1  0
 21 22  2  0
 23 22  1  0
 23 24  1  0
 25 23  2  0
 26 20  1  0
 26 25  1  0
 27 26  2  0
  2 28  1  0
  2 29  1  0
  3 30  1  0
  3 31  1  0
  4 32  1  0
  5 33  1  0
  5 34  1  0
  6 35  1  1
 10 36  1  0
 11 37  1  0
 12 38  1  0
 14 39  1  0
 15 40  1  0
 16 41  1  0
 21 42  1  0
 22 43  1  0
 24 44  1  0
 24 45  1  0
M  ISO  8  28  13  29  13  30  13  31  13  32   5  33  13  34  13  35  13
M  ISO  8  36  14  37  14  38  14  39  14  40  14  41  14  42  14  43  14
M  END
>  <minimizedAffinity>  (1) 
-6.21480465

>  <minimizedRMSD>  (1) 
0.749535441

$$$$
