
     RDKit          3D

 37 41  0  0  1  0  0  0  0  0999 V2000
   46.4630   35.0640   41.7640 C   0  0  1  0  0  0  0  0  0  0  0  0
   47.4570   35.5780   42.3120 O   0  0  0  0  0  0  0  0  0  0  0  0
   47.7650   34.4950   41.4120 C   0  0  2  0  0  0  0  0  0  0  0  0
   48.0680   34.6500   39.9170 C   0  0  0  0  0  0  0  0  0  0  0  0
   48.0820   33.3720   40.5590 C   0  0  1  0  0  0  0  0  0  0  0  0
   49.3550   32.7080   40.8140 N   0  0  0  0  0  0  0  0  0  0  0  0
   50.0810   32.9660   41.9180 C   0  0  0  0  0  0  0  0  0  0  0  0
   51.2540   32.2820   42.0440 C   0  0  0  0  0  0  0  0  0  0  0  0
   51.7160   31.3660   41.1230 C   0  0  0  0  0  0  0  0  0  0  0  0
   52.9480   30.6800   41.3070 N   0  0  0  0  0  0  0  0  0  0  0  0
   50.9420   31.1470   40.0310 N   0  0  0  0  0  0  0  0  0  0  0  0
   49.7860   31.8060   39.8850 C   0  0  0  0  0  0  0  0  0  0  0  0
   49.0920   31.5830   38.8650 O   0  0  0  0  0  0  0  0  0  0  0  0
   44.6920   34.2440   43.4500 C   0  0  1  0  0  0  0  0  0  0  0  0
   45.2010   35.2040   42.5140 C   0  0  2  0  0  0  0  0  0  0  0  0
   44.1700   34.2210   42.0980 C   0  0  0  0  0  0  0  0  0  0  0  0
   46.2310   33.4620   45.1750 C   0  0  0  0  0  0  0  0  0  0  0  0
   45.5870   33.2060   43.9720 C   0  0  0  0  0  0  0  0  0  0  0  0
   45.7510   31.9810   43.3360 C   0  0  0  0  0  0  0  0  0  0  0  0
   46.5590   31.0730   43.9550 N   0  0  0  0  0  0  0  0  0  0  0  0
   47.1850   31.3240   45.1300 C   0  0  0  0  0  0  0  0  0  0  0  0
   47.0090   32.5340   45.7310 N   0  0  0  0  0  0  0  0  0  0  0  0
   45.6304   34.9451   41.0551 H   0  0  0  0  0  0  0  0  0  0  0  0
   49.0085   35.1153   39.5869 H   0  0  0  0  0  0  0  0  0  0  0  0
   47.5535   35.0908   39.0504 H   0  0  0  0  0  0  0  0  0  0  0  0
   47.5801   32.4247   40.3125 H   0  0  0  0  0  0  0  0  0  0  0  0
   49.7464   33.6888   42.6767 H   0  0  0  0  0  0  0  0  0  0  0  0
   51.8695   32.4729   42.9355 H   0  0  0  0  0  0  0  0  0  0  0  0
   53.2693   30.0005   40.6027 H   0  0  0  0  0  0  0  0  0  0  0  0
   53.5190   30.8626   42.1445 H   0  0  0  0  0  0  0  0  0  0  0  0
   44.2067   34.2875   44.4362 H   0  0  0  0  0  0  0  0  0  0  0  0
   45.3485   36.2891   42.6176 H   0  0  0  0  0  0  0  0  0  0  0  0
   43.1400   34.5503   41.8961 H   0  0  0  0  0  0  0  0  0  0  0  0
   44.0785   33.4662   41.3031 H   0  0  0  0  0  0  0  0  0  0  0  0
   46.0985   34.4348   45.6711 H   0  0  0  0  0  0  0  0  0  0  0  0
   45.2539   31.7551   42.3811 H   0  0  0  0  0  0  0  0  0  0  0  0
   47.8273   30.5604   45.5930 H   0  0  0  0  0  0  0  0  0  0  0  0
  1  2  1  0
  1 15  1  0
  3  1  1  0
  3  2  1  1
  4  5  1  0
  4  3  1  0
  5  6  1  0
  5  3  1  0
  6  7  1  0
  7  8  2  0
  9 10  1  0
  9  8  1  0
 11  9  2  0
 12 11  1  0
 12  6  1  0
 13 12  2  0
 14 18  1  0
 15 14  1  0
 16 15  1  0
 16 14  1  0
 17 22  2  0
 18 17  1  0
 19 20  1  0
 19 18  2  0
 20 21  2  0
 21 22  1  0
  1 23  1  6
  4 24  1  0
  4 25  1  0
  5 26  1  6
  7 27  1  0
  8 28  1  0
 10 29  1  0
 10 30  1  0
 14 31  1  1
 15 32  1  1
 16 33  1  0
 16 34  1  0
 17 35  1  0
 19 36  1  0
 21 37  1  0
M  ISO  8  23  13  24  13  25  13  26  13  27  14  28  14  31  13  32  13
M  ISO  5  33  13  34  13  35  14  36  14  37  14
M  END
>  <minimizedAffinity>  (1) 
-4.72818565

>  <minimizedRMSD>  (1) 
4.67791414

$$$$
