
     RDKit          3D

 40 42  0  0  1  0  0  0  0  0999 V2000
   49.0220   33.3240   42.5150 C   0  0  0  0  0  0  0  0  0  0  0  0
   47.8070   32.9760   42.8920 C   0  0  0  0  0  0  0  0  0  0  0  0
   49.5790   32.7340   41.3030 C   0  0  0  0  0  0  0  0  0  0  0  0
   50.8240   32.0880   41.4120 C   0  0  0  0  0  0  0  0  0  0  0  0
   51.3870   31.5120   40.2710 C   0  0  0  0  0  0  0  0  0  0  0  0
   50.7020   31.6020   39.1010 N   0  0  0  0  0  0  0  0  0  0  0  0
   49.5130   32.2270   39.0290 C   0  0  0  0  0  0  0  0  0  0  0  0
   48.9730   32.7800   40.1240 N   0  0  0  0  0  0  0  0  0  0  0  0
   48.8660   32.2750   37.7620 N   0  0  0  0  0  0  0  0  0  0  0  0
   49.4700   31.7670   36.6720 C   0  0  0  0  0  0  0  0  0  0  0  0
   48.7870   31.8400   35.4530 C   0  0  0  0  0  0  0  0  0  0  0  0
   47.5500   32.4320   35.4890 C   0  0  0  0  0  0  0  0  0  0  0  0
   46.8720   32.4990   34.2450 N   0  0  0  0  0  0  0  0  0  0  0  0
   46.9620   32.9350   36.5910 N   0  0  0  0  0  0  0  0  0  0  0  0
   47.6360   32.8550   37.7570 C   0  0  0  0  0  0  0  0  0  0  0  0
   47.1170   33.3150   38.8050 O   0  0  0  0  0  0  0  0  0  0  0  0
   47.1820   33.5310   44.1030 C   0  0  0  0  0  0  0  0  0  0  0  0
   44.6210   36.0680   43.8550 C   0  0  1  0  0  0  0  0  0  0  0  0
   45.7760   35.3800   43.1230 C   0  0  0  0  0  0  0  0  0  0  0  0
   45.7790   34.0620   43.8150 C   0  0  2  0  0  0  0  0  0  0  0  0
   44.9920   34.1180   44.9230 O   0  0  0  0  0  0  0  0  0  0  0  0
   44.7440   35.4450   45.2250 C   0  0  0  0  0  0  0  0  0  0  0  0
   44.8230   37.4420   43.8700 O   0  0  0  0  0  0  0  0  0  0  0  0
   49.6052   34.0468   43.1045 H   0  0  0  0  0  0  0  0  0  0  0  0
   47.2455   32.2510   42.2845 H   0  0  0  0  0  0  0  0  0  0  0  0
   51.3452   32.0374   42.3794 H   0  0  0  0  0  0  0  0  0  0  0  0
   52.3590   30.9992   40.3183 H   0  0  0  0  0  0  0  0  0  0  0  0
   50.4681   31.3093   36.7372 H   0  0  0  0  0  0  0  0  0  0  0  0
   49.2168   31.4458   34.5203 H   0  0  0  0  0  0  0  0  0  0  0  0
   45.9378   32.9294   34.1901 H   0  0  0  0  0  0  0  0  0  0  0  0
   47.3138   32.1173   33.3965 H   0  0  0  0  0  0  0  0  0  0  0  0
   47.1157   32.7408   44.8654 H   0  0  0  0  0  0  0  0  0  0  0  0
   47.8015   34.3673   44.4591 H   0  0  0  0  0  0  0  0  0  0  0  0
   43.6242   35.9387   43.4082 H   0  0  0  0  0  0  0  0  0  0  0  0
   46.7256   35.9168   43.2649 H   0  0  0  0  0  0  0  0  0  0  0  0
   45.6631   35.3269   42.0301 H   0  0  0  0  0  0  0  0  0  0  0  0
   45.3467   33.3212   43.1263 H   0  0  0  0  0  0  0  0  0  0  0  0
   45.5772   35.8875   45.7907 H   0  0  0  0  0  0  0  0  0  0  0  0
   43.8574   35.5947   45.8587 H   0  0  0  0  0  0  0  0  0  0  0  0
   44.8695   37.7585   44.8069 H   0  0  0  0  0  0  0  0  0  0  0  0
  1  2  2  0
  2 17  1  0
  3  4  2  0
  3  1  1  0
  5  4  1  0
  6  5  2  0
  7  6  1  0
  7  8  2  0
  8  3  1  0
  9  7  1  0
 10  9  1  0
 11 12  1  0
 11 10  2  0
 12 14  2  0
 13 12  1  0
 14 15  1  0
 15  9  1  0
 15 16  2  0
 18 23  1  0
 18 22  1  0
 19 20  1  0
 19 18  1  0
 20 17  1  0
 20 21  1  0
 21 22  1  0
  1 24  1  0
  2 25  1  0
  4 26  1  0
  5 27  1  0
 10 28  1  0
 11 29  1  0
 13 30  1  0
 13 31  1  0
 17 32  1  0
 17 33  1  0
 18 34  1  6
 19 35  1  0
 19 36  1  0
 20 37  1  6
 22 38  1  0
 22 39  1  0
 23 40  1  0
M  ISO  8  26  14  27  14  28  14  29  14  32   8  33   8  34  13  35  13
M  ISO  5  36  13  37  13  38  13  39  13  40   3
M  END
>  <minimizedAffinity>  (1) 
-5.68763161

>  <minimizedRMSD>  (1) 
0.966037869

$$$$
