
     RDKit          3D

 27 28  0  0  0  0  0  0  0  0999 V2000
   47.0390   34.4950   42.2330 C   0  0  0  0  0  0  0  0  0  0  0  0
   48.1520   35.3320   42.1170 C   0  0  0  0  0  0  0  0  0  0  0  0
   48.8230   35.4990   40.8980 C   0  0  0  0  0  0  0  0  0  0  0  0
   48.3890   34.8320   39.7770 C   0  0  0  0  0  0  0  0  0  0  0  0
   47.2960   34.0150   39.9020 C   0  0  0  0  0  0  0  0  0  0  0  0
   46.6270   33.8430   41.1030 C   0  0  0  0  0  0  0  0  0  0  0  0
   44.8690   34.9610   45.2470 C   0  0  0  0  0  0  0  0  0  0  0  0
   45.3860   35.1880   43.9390 C   0  0  0  0  0  0  0  0  0  0  0  0
   46.4240   34.3850   43.5210 C   0  0  0  0  0  0  0  0  0  0  0  0
   46.9090   33.4260   44.3610 N   0  0  0  0  0  0  0  0  0  0  0  0
   46.3740   33.2540   45.6070 C   0  0  0  0  0  0  0  0  0  0  0  0
   45.3590   34.0200   46.0410 N   0  0  0  0  0  0  0  0  0  0  0  0
   46.9050   32.2570   46.4810 N   0  0  0  0  0  0  0  0  0  0  0  0
   44.8450   36.2560   43.1290 C   0  0  0  0  0  0  0  0  0  0  0  0
   45.2230   37.4350   43.3230 O   0  0  0  0  0  0  0  0  0  0  0  0
   45.4550   32.9460   41.2020 C   0  0  0  0  0  0  0  0  0  0  0  0
   45.4090   32.1610   40.0560 F   0  0  0  0  0  0  0  0  0  0  0  0
   44.3030   33.7000   41.3070 F   0  0  0  0  0  0  0  0  0  0  0  0
   45.4790   32.1210   42.3000 F   0  0  0  0  0  0  0  0  0  0  0  0
   48.5105   35.8734   43.0049 H   0  0  0  0  0  0  0  0  0  0  0  0
   49.6972   36.1640   40.8382 H   0  0  0  0  0  0  0  0  0  0  0  0
   48.9023   34.9503   38.8113 H   0  0  0  0  0  0  0  0  0  0  0  0
   46.9357   33.4747   39.0142 H   0  0  0  0  0  0  0  0  0  0  0  0
   44.0386   35.5853   45.6085 H   0  0  0  0  0  0  0  0  0  0  0  0
   46.5017   32.1275   47.4199 H   0  0  0  0  0  0  0  0  0  0  0  0
   47.6912   31.6675   46.1724 H   0  0  0  0  0  0  0  0  0  0  0  0
   44.1049   36.0349   42.3459 H   0  0  0  0  0  0  0  0  0  0  0  0
  1  9  1  0
  2  1  2  0
  3  2  1  0
  4  5  1  0
  4  3  2  0
  5  6  2  0
  6 16  1  0
  6  1  1  0
  7 12  2  0
  8  7  1  0
  9  8  2  0
  9 10  1  0
 10 11  2  0
 11 12  1  0
 11 13  1  0
 14 15  2  0
 14  8  1  0
 16 18  1  0
 16 19  1  0
 17 16  1  0
  2 20  1  0
  3 21  1  0
  4 22  1  0
  5 23  1  0
  7 24  1  0
 13 25  1  0
 13 26  1  0
 14 27  1  0
M  ISO  6  20  14  21  14  22  14  23  14  24  14  27   6
M  END
>  <minimizedAffinity>  (1) 
-5.37408781

>  <minimizedRMSD>  (1) 
1.14722407

$$$$
