
     RDKit          3D

 13 13  0  0  0  0  0  0  0  0999 V2000
   45.5850   34.1060   45.2980 C   0  0  0  0  0  0  0  0  0  0  0  0
   46.2650   33.9900   44.0830 C   0  0  0  0  0  0  0  0  0  0  0  0
   46.0440   34.9510   43.1020 C   0  0  0  0  0  0  0  0  0  0  0  0
   45.1730   35.9550   43.3820 N   0  0  0  0  0  0  0  0  0  0  0  0
   44.5340   36.0320   44.5700 C   0  0  0  0  0  0  0  0  0  0  0  0
   44.7270   35.1160   45.5430 N   0  0  0  0  0  0  0  0  0  0  0  0
   45.8330   33.0940   46.3000 C   0  0  0  0  0  0  0  0  0  0  0  0
   45.2010   33.0350   47.3840 O   0  0  0  0  0  0  0  0  0  0  0  0
   47.4060   32.6240   43.7940 S   0  0  0  0  0  0  0  0  0  0  0  0
   46.5580   34.8996   42.1308 H   0  0  0  0  0  0  0  0  0  0  0  0
   43.8372   36.8640   44.7495 H   0  0  0  0  0  0  0  0  0  0  0  0
   46.6107   32.3411   46.1043 H   0  0  0  0  0  0  0  0  0  0  0  0
   47.8277   32.1192   44.9958 H   0  0  0  0  0  0  0  0  0  0  0  0
  1  6  2  0
  1  7  1  0
  2  1  1  0
  3  4  1  0
  3  2  2  0
  4  5  2  0
  5  6  1  0
  7  8  2  0
  9  2  1  0
  3 10  1  0
  5 11  1  0
  7 12  1  0
  9 13  1  0
M  ISO  4  10  14  11  14  12   6  13  11
M  END
>  <minimizedAffinity>  (1) 
-3.3170054

>  <minimizedRMSD>  (1) 
3.65867019

$$$$
