
     RDKit          3D

 25 26  0  0  0  0  0  0  0  0999 V2000
   44.0760   32.5840   42.7020 Cl  0  0  0  0  0  0  0  0  0  0  0  0
   45.5320   33.4930   42.4150 C   0  0  0  0  0  0  0  0  0  0  0  0
   46.2930   33.9800   43.4220 C   0  0  0  0  0  0  0  0  0  0  0  0
   47.4290   34.6880   43.0640 C   0  0  0  0  0  0  0  0  0  0  0  0
   47.7810   34.8940   41.7760 C   0  0  0  0  0  0  0  0  0  0  0  0
   47.0050   34.3990   40.7540 C   0  0  0  0  0  0  0  0  0  0  0  0
   45.8800   33.6980   41.0900 C   0  0  0  0  0  0  0  0  0  0  0  0
   44.6600   34.3210   46.8180 C   0  0  0  0  0  0  0  0  0  0  0  0
   45.0420   34.5910   45.5000 C   0  0  0  0  0  0  0  0  0  0  0  0
   45.8760   33.7330   44.7930 C   0  0  0  0  0  0  0  0  0  0  0  0
   46.2880   32.6300   45.4630 N   0  0  0  0  0  0  0  0  0  0  0  0
   45.9180   32.3760   46.7280 C   0  0  0  0  0  0  0  0  0  0  0  0
   45.1130   33.2100   47.4040 N   0  0  0  0  0  0  0  0  0  0  0  0
   46.3870   31.1740   47.4100 C   0  0  0  0  0  0  0  0  0  0  0  0
   46.5230   31.1240   48.6580 O   0  0  0  0  0  0  0  0  0  0  0  0
   49.0030   35.6560   41.3940 C   0  0  0  0  0  0  0  0  0  0  0  0
   50.0970   34.9210   41.7510 F   0  0  0  0  0  0  0  0  0  0  0  0
   49.0150   36.9100   41.9790 F   0  0  0  0  0  0  0  0  0  0  0  0
   48.9870   35.8330   40.0100 F   0  0  0  0  0  0  0  0  0  0  0  0
   48.0689   35.0982   43.8591 H   0  0  0  0  0  0  0  0  0  0  0  0
   47.2802   34.5616   39.7015 H   0  0  0  0  0  0  0  0  0  0  0  0
   45.2400   33.2897   40.2940 H   0  0  0  0  0  0  0  0  0  0  0  0
   43.9985   35.0113   47.3619 H   0  0  0  0  0  0  0  0  0  0  0  0
   44.6734   35.5048   45.0110 H   0  0  0  0  0  0  0  0  0  0  0  0
   46.6292   30.2830   46.8121 H   0  0  0  0  0  0  0  0  0  0  0  0
  2  1  1  0
  2  3  2  0
  3 10  1  0
  4  3  1  0
  5  4  2  0
  6  7  2  0
  6  5  1  0
  7  2  1  0
  8 13  2  0
  9  8  1  0
 10 11  1  0
 10  9  2  0
 11 12  2  0
 12 13  1  0
 12 14  1  0
 14 15  2  0
 16 17  1  0
 16  5  1  0
 16 18  1  0
 19 16  1  0
  4 20  1  0
  6 21  1  0
  7 22  1  0
  8 23  1  0
  9 24  1  0
 14 25  1  0
M  ISO  6  20  14  21  14  22  14  23  14  24  14  25   6
M  END
>  <minimizedAffinity>  (1) 
-5.32649803

>  <minimizedRMSD>  (1) 
0.170337096

$$$$
