
     RDKit          3D

 19 20  0  0  0  0  0  0  0  0999 V2000
   44.6070   35.9130   44.3350 C   0  0  0  0  0  0  0  0  0  0  0  0
   45.3160   35.8990   43.1230 C   0  0  0  0  0  0  0  0  0  0  0  0
   46.2660   34.8900   43.0000 C   0  0  0  0  0  0  0  0  0  0  0  0
   46.4520   33.9970   44.0300 N   0  0  0  0  0  0  0  0  0  0  0  0
   45.7360   34.0590   45.1800 C   0  0  0  0  0  0  0  0  0  0  0  0
   44.8120   35.0220   45.3260 N   0  0  0  0  0  0  0  0  0  0  0  0
   47.0770   34.7550   41.7400 C   0  0  0  0  0  0  0  0  0  0  0  0
   48.3880   35.5010   41.8080 C   0  0  0  0  0  0  0  0  0  0  0  0
   48.2950   33.9560   41.7940 C   0  0  0  0  0  0  0  0  0  0  0  0
   45.9800   33.0810   46.2330 C   0  0  0  0  0  0  0  0  0  0  0  0
   45.2480   33.0990   47.2560 O   0  0  0  0  0  0  0  0  0  0  0  0
   43.8444   36.6917   44.4837 H   0  0  0  0  0  0  0  0  0  0  0  0
   45.1330   36.6348   42.3261 H   0  0  0  0  0  0  0  0  0  0  0  0
   46.2139   34.7286   41.0586 H   0  0  0  0  0  0  0  0  0  0  0  0
   48.7667   36.0455   40.9305 H   0  0  0  0  0  0  0  0  0  0  0  0
   48.8355   36.2650   42.4607 H   0  0  0  0  0  0  0  0  0  0  0  0
   48.5363   33.3829   42.7014 H   0  0  0  0  0  0  0  0  0  0  0  0
   48.7281   33.1576   41.1735 H   0  0  0  0  0  0  0  0  0  0  0  0
   46.7885   32.3416   46.1350 H   0  0  0  0  0  0  0  0  0  0  0  0
  1  6  2  0
  2  1  1  0
  3  2  2  0
  3  4  1  0
  4  5  2  0
  5  6  1  0
  5 10  1  0
  7  9  1  0
  7  8  1  0
  7  3  1  0
  9  8  1  0
 10 11  2  0
  1 12  1  0
  2 13  1  0
  7 14  1  0
  8 15  1  0
  8 16  1  0
  9 17  1  0
  9 18  1  0
 10 19  1  0
M  ISO  8  12  14  13  14  14  13  15  13  16  13  17  13  18  13  19   6
M  END
>  <minimizedAffinity>  (1) 
-4.14224625

>  <minimizedRMSD>  (1) 
0.0934510604

$$$$
