
     RDKit          3D

 18 18  0  0  0  0  0  0  0  0999 V2000
   45.5440   34.8160   44.0020 C   0  0  0  0  0  0  0  0  0  0  0  0
   46.6150   34.4100   43.1760 C   0  0  0  0  0  0  0  0  0  0  0  0
   47.4290   33.3890   43.6780 C   0  0  0  0  0  0  0  0  0  0  0  0
   47.1430   32.8700   44.8930 N   0  0  0  0  0  0  0  0  0  0  0  0
   46.1080   33.2910   45.6460 C   0  0  0  0  0  0  0  0  0  0  0  0
   45.2970   34.2800   45.1920 N   0  0  0  0  0  0  0  0  0  0  0  0
   46.8210   35.0410   41.8910 C   0  0  0  0  0  0  0  0  0  0  0  0
   48.3010   35.3140   41.7300 C   0  0  0  0  0  0  0  0  0  0  0  0
   45.8550   32.6930   46.9440 C   0  0  0  0  0  0  0  0  0  0  0  0
   44.9310   33.1390   47.6820 O   0  0  0  0  0  0  0  0  0  0  0  0
   44.8809   35.6164   43.6418 H   0  0  0  0  0  0  0  0  0  0  0  0
   48.2845   33.0160   43.0958 H   0  0  0  0  0  0  0  0  0  0  0  0
   46.4762   34.3725   41.0884 H   0  0  0  0  0  0  0  0  0  0  0  0
   46.2528   35.9812   41.8339 H   0  0  0  0  0  0  0  0  0  0  0  0
   48.7680   35.4001   42.7222 H   0  0  0  0  0  0  0  0  0  0  0  0
   48.7682   34.4869   41.1754 H   0  0  0  0  0  0  0  0  0  0  0  0
   48.4424   36.2534   41.1754 H   0  0  0  0  0  0  0  0  0  0  0  0
   46.4701   31.8480   47.2869 H   0  0  0  0  0  0  0  0  0  0  0  0
  1  6  2  0
  2  3  2  0
  2  1  1  0
  3  4  1  0
  4  5  2  0
  5  9  1  0
  6  5  1  0
  7  2  1  0
  8  7  1  0
  9 10  2  0
  1 11  1  0
  3 12  1  0
  7 13  1  0
  7 14  1  0
  8 15  1  0
  8 16  1  0
  8 17  1  0
  9 18  1  0
M  ISO  8  11  14  12  14  13   8  14   8  15   8  16   8  17   8  18   6
M  END
>  <minimizedAffinity>  (1) 
-3.40945411

>  <minimizedRMSD>  (1) 
0.769767106

$$$$
