
     RDKit          3D

 26 27  0  0  1  0  0  0  0  0999 V2000
   45.7260   34.4080   41.8180 N   0  0  0  0  0  0  0  0  0  0  0  0
   47.0770   34.1410   41.4060 C   0  0  1  0  0  0  0  0  0  0  0  0
   47.2760   33.9960   39.9520 C   0  0  0  0  0  0  0  0  0  0  0  0
   46.2360   33.4150   39.2140 N   0  0  0  0  0  0  0  0  0  0  0  0
   44.9320   33.4610   39.7300 C   0  0  0  0  0  0  0  0  0  0  0  0
   44.8020   34.5890   40.7460 C   0  0  0  0  0  0  0  0  0  0  0  0
   44.7840   35.5840   43.6600 C   0  0  0  0  0  0  0  0  0  0  0  0
   45.4670   34.4640   43.2010 C   0  0  0  0  0  0  0  0  0  0  0  0
   45.8260   33.5250   44.1490 C   0  0  0  0  0  0  0  0  0  0  0  0
   45.5240   33.6930   45.4620 N   0  0  0  0  0  0  0  0  0  0  0  0
   44.8520   34.8080   45.8710 C   0  0  0  0  0  0  0  0  0  0  0  0
   44.4890   35.7360   44.9810 N   0  0  0  0  0  0  0  0  0  0  0  0
   47.8790   35.3330   41.8790 C   0  0  0  0  0  0  0  0  0  0  0  0
   48.7230   35.6420   41.0600 O   0  0  0  0  0  0  0  0  0  0  0  0
   47.3805   33.1738   41.8331 H   0  0  0  0  0  0  0  0  0  0  0  0
   47.4508   35.0012   39.5409 H   0  0  0  0  0  0  0  0  0  0  0  0
   48.1180   33.2953   39.8516 H   0  0  0  0  0  0  0  0  0  0  0  0
   46.4752   32.4216   39.0845 H   0  0  0  0  0  0  0  0  0  0  0  0
   44.2224   33.6311   38.9069 H   0  0  0  0  0  0  0  0  0  0  0  0
   44.7115   32.5053   40.2280 H   0  0  0  0  0  0  0  0  0  0  0  0
   45.0080   35.5486   40.2492 H   0  0  0  0  0  0  0  0  0  0  0  0
   43.7803   34.5833   41.1536 H   0  0  0  0  0  0  0  0  0  0  0  0
   44.4765   36.3608   42.9444 H   0  0  0  0  0  0  0  0  0  0  0  0
   46.3683   32.6216   43.8330 H   0  0  0  0  0  0  0  0  0  0  0  0
   44.6088   34.9430   46.9352 H   0  0  0  0  0  0  0  0  0  0  0  0
   47.7200   35.8512   42.8362 H   0  0  0  0  0  0  0  0  0  0  0  0
  1  8  1  0
  2  1  1  0
  2 13  1  0
  3  2  1  0
  4  5  1  0
  4  3  1  0
  5  6  1  0
  6  1  1  0
  7 12  2  0
  8  7  1  0
  8  9  2  0
  9 10  1  0
 10 11  2  0
 12 11  1  0
 14 13  2  0
  2 15  1  1
  3 16  1  0
  3 17  1  0
  4 18  1  0
  5 19  1  0
  5 20  1  0
  6 21  1  0
  6 22  1  0
  7 23  1  0
  9 24  1  0
 11 25  1  0
 13 26  1  0
M  ISO  8  15  13  16  13  17  13  18   5  19  13  20  13  21  13  22  13
M  ISO  4  23  14  24  14  25  14  26   6
M  END
>  <minimizedAffinity>  (1) 
-4.0057497

>  <minimizedRMSD>  (1) 
2.47128558

$$$$
