
     RDKit          3D

 32 34  0  0  1  0  0  0  0  0999 V2000
   46.9440   34.9870   42.0840 C   0  0  2  0  0  0  0  0  0  0  0  0
   46.3170   34.1800   40.9740 C   0  0  0  0  0  0  0  0  0  0  0  0
   47.5330   34.1260   40.0290 C   0  0  0  0  0  0  0  0  0  0  0  0
   48.7270   34.0320   40.9400 C   0  0  1  0  0  0  0  0  0  0  0  0
   48.1930   34.1480   42.3320 C   0  0  0  0  0  0  0  0  0  0  0  0
   44.4380   36.0650   44.6940 C   0  0  0  0  0  0  0  0  0  0  0  0
   45.1750   36.0870   43.5050 C   0  0  0  0  0  0  0  0  0  0  0  0
   46.0950   35.0530   43.3030 C   0  0  0  0  0  0  0  0  0  0  0  0
   46.2420   34.0710   44.2590 N   0  0  0  0  0  0  0  0  0  0  0  0
   45.5020   34.0980   45.3940 C   0  0  0  0  0  0  0  0  0  0  0  0
   44.6110   35.0830   45.6090 N   0  0  0  0  0  0  0  0  0  0  0  0
   49.4580   32.7260   40.8690 C   0  0  2  0  0  0  0  0  0  0  0  0
   49.3470   31.8080   41.9770 C   0  0  0  0  0  0  0  0  0  0  0  0
   50.6780   32.4290   41.5840 C   0  0  1  0  0  0  0  0  0  0  0  0
   51.6880   31.4780   41.0210 C   0  0  0  0  0  0  0  0  0  0  0  0
   52.3560   31.6840   40.0020 O   0  0  0  0  0  0  0  0  0  0  0  0
   47.1142   36.0444   41.8333 H   0  0  0  0  0  0  0  0  0  0  0  0
   46.0072   33.1797   41.3108 H   0  0  0  0  0  0  0  0  0  0  0  0
   45.3915   34.5907   40.5442 H   0  0  0  0  0  0  0  0  0  0  0  0
   47.5861   35.0365   39.4140 H   0  0  0  0  0  0  0  0  0  0  0  0
   47.4773   33.2782   39.3303 H   0  0  0  0  0  0  0  0  0  0  0  0
   49.4378   34.8167   40.6417 H   0  0  0  0  0  0  0  0  0  0  0  0
   48.9021   34.6628   42.9970 H   0  0  0  0  0  0  0  0  0  0  0  0
   48.0062   33.1862   42.8320 H   0  0  0  0  0  0  0  0  0  0  0  0
   43.7041   36.8609   44.8888 H   0  0  0  0  0  0  0  0  0  0  0  0
   45.0367   36.8844   42.7600 H   0  0  0  0  0  0  0  0  0  0  0  0
   45.6311   33.3067   46.1471 H   0  0  0  0  0  0  0  0  0  0  0  0
   49.2285   32.7014   39.7935 H   0  0  0  0  0  0  0  0  0  0  0  0
   48.8433   32.1168   42.9048 H   0  0  0  0  0  0  0  0  0  0  0  0
   48.9657   30.7859   42.1179 H   0  0  0  0  0  0  0  0  0  0  0  0
   51.4585   33.0549   42.0413 H   0  0  0  0  0  0  0  0  0  0  0  0
   51.8468   30.5280   41.5524 H   0  0  0  0  0  0  0  0  0  0  0  0
  1  5  1  0
  1  8  1  0
  2  1  1  0
  3  4  1  0
  3  2  1  0
  4  5  1  0
  6 11  2  0
  7  6  1  0
  8  7  2  0
  8  9  1  0
  9 10  2  0
 10 11  1  0
 12  4  1  0
 12 14  1  0
 12 13  1  0
 14 13  1  0
 15 14  1  0
 16 15  2  0
  1 17  1  6
  2 18  1  0
  2 19  1  0
  3 20  1  0
  3 21  1  0
  4 22  1  6
  5 23  1  0
  5 24  1  0
  6 25  1  0
  7 26  1  0
 10 27  1  0
 12 28  1  6
 13 29  1  0
 13 30  1  0
 14 31  1  1
 15 32  1  0
M  ISO  8  17  13  18  13  19  13  20  13  21  13  22  13  23  13  24  13
M  ISO  8  25  14  26  14  27  14  28  13  29  13  30  13  31  13  32   6
M  END
>  <minimizedAffinity>  (1) 
-4.76195955

>  <minimizedRMSD>  (1) 
0.40119642

$$$$
