
     RDKit          3D

 18 18  0  0  0  0  0  0  0  0999 V2000
   47.8290   34.7830   42.4130 C   0  0  0  0  0  0  0  0  0  0  0  0
   48.0640   33.5520   43.0550 C   0  0  0  0  0  0  0  0  0  0  0  0
   47.1030   33.1010   43.9750 C   0  0  0  0  0  0  0  0  0  0  0  0
   46.0030   33.8880   44.1850 N   0  0  0  0  0  0  0  0  0  0  0  0
   45.8160   35.0450   43.5590 C   0  0  0  0  0  0  0  0  0  0  0  0
   46.7200   35.4910   42.6800 N   0  0  0  0  0  0  0  0  0  0  0  0
   48.8630   35.2480   41.4360 C   0  0  0  0  0  0  0  0  0  0  0  0
   48.4200   35.1420   40.1420 F   0  0  0  0  0  0  0  0  0  0  0  0
   49.2130   36.5500   41.7540 F   0  0  0  0  0  0  0  0  0  0  0  0
   50.0270   34.4860   41.6210 F   0  0  0  0  0  0  0  0  0  0  0  0
   44.6070   35.8600   43.8220 C   0  0  0  0  0  0  0  0  0  0  0  0
   43.6050   35.5990   42.9310 F   0  0  0  0  0  0  0  0  0  0  0  0
   44.9240   37.2310   43.8090 F   0  0  0  0  0  0  0  0  0  0  0  0
   44.1110   35.6440   45.0950 F   0  0  0  0  0  0  0  0  0  0  0  0
   47.2920   31.8320   44.6720 C   0  0  0  0  0  0  0  0  0  0  0  0
   47.1540   31.7990   45.9220 O   0  0  0  0  0  0  0  0  0  0  0  0
   48.9690   32.9637   42.8434 H   0  0  0  0  0  0  0  0  0  0  0  0
   47.5507   30.9203   44.1136 H   0  0  0  0  0  0  0  0  0  0  0  0
  1  6  2  0
  1  2  1  0
  2  3  2  0
  3  4  1  0
  3 15  1  0
  5 11  1  0
  5  4  2  0
  6  5  1  0
  7 10  1  0
  7  9  1  0
  7  1  1  0
  8  7  1  0
 11 14  1  0
 12 11  1  0
 13 11  1  0
 15 16  2  0
  2 17  1  0
 15 18  1  0
M  ISO  2  17  14  18   6
M  END
>  <minimizedAffinity>  (1) 
-5.05664015

>  <minimizedRMSD>  (1) 
0.293694705

$$$$
