
     RDKit          3D

 30 31  0  0  0  0  0  0  0  0999 V2000
   45.1530   33.4040   41.2080 F   0  0  0  0  0  0  0  0  0  0  0  0
   46.3210   34.0100   41.0680 C   0  0  0  0  0  0  0  0  0  0  0  0
   46.8100   34.7750   42.1110 C   0  0  0  0  0  0  0  0  0  0  0  0
   48.0310   35.4510   42.0550 C   0  0  0  0  0  0  0  0  0  0  0  0
   48.8050   35.3570   40.8950 C   0  0  0  0  0  0  0  0  0  0  0  0
   48.2830   34.5850   39.8770 C   0  0  0  0  0  0  0  0  0  0  0  0
   47.0960   33.9230   39.9170 C   0  0  0  0  0  0  0  0  0  0  0  0
   45.4480   34.0170   45.4330 C   0  0  0  0  0  0  0  0  0  0  0  0
   44.6070   35.1430   45.6640 C   0  0  0  0  0  0  0  0  0  0  0  0
   44.5200   36.1530   44.6670 C   0  0  0  0  0  0  0  0  0  0  0  0
   45.2650   35.9680   43.5350 N   0  0  0  0  0  0  0  0  0  0  0  0
   46.0420   34.9010   43.3550 C   0  0  0  0  0  0  0  0  0  0  0  0
   46.1300   33.9400   44.2910 N   0  0  0  0  0  0  0  0  0  0  0  0
   45.5190   33.0290   46.4340 N   0  0  0  0  0  0  0  0  0  0  0  0
   46.6770   33.1840   38.8460 O   0  0  0  0  0  0  0  0  0  0  0  0
   48.0260   34.6070   37.0560 O   0  0  0  0  0  0  0  0  0  0  0  0
   47.1600   33.3970   37.2410 P   0  0  2  0  0  0  0  0  0  0  0  0
   45.7420   33.5190   36.2850 O   0  0  0  0  0  0  0  0  0  0  0  0
   47.9720   32.0470   36.6180 O   0  0  0  0  0  0  0  0  0  0  0  0
   49.0520   32.1240   35.7570 C   0  0  0  0  0  0  0  0  0  0  0  0
   48.6890   32.5260   34.6230 O   0  0  0  0  0  0  0  0  0  0  0  0
   48.3782   36.0483   42.9109 H   0  0  0  0  0  0  0  0  0  0  0  0
   49.7740   35.8687   40.7990 H   0  0  0  0  0  0  0  0  0  0  0  0
   48.8774   34.4979   38.9555 H   0  0  0  0  0  0  0  0  0  0  0  0
   44.0339   35.2299   46.5989 H   0  0  0  0  0  0  0  0  0  0  0  0
   43.8840   37.0406   44.7997 H   0  0  0  0  0  0  0  0  0  0  0  0
   46.1175   32.2016   46.2994 H   0  0  0  0  0  0  0  0  0  0  0  0
   44.9724   33.1338   47.3007 H   0  0  0  0  0  0  0  0  0  0  0  0
   44.9505   33.5871   36.8758 H   0  0  0  0  0  0  0  0  0  0  0  0
   50.0870   31.8683   36.0279 H   0  0  0  0  0  0  0  0  0  0  0  0
  2  1  1  0
  2  3  2  0
  3 12  1  0
  4  3  1  0
  5  4  2  0
  6  7  2  0
  6  5  1  0
  7  2  1  0
  8  9  2  0
  8 14  1  0
 10  9  1  0
 11 10  2  0
 12 11  1  0
 12 13  2  0
 13  8  1  0
 15  7  1  0
 17 16  2  0
 17 15  1  0
 18 17  1  0
 19 17  1  0
 20 19  1  0
 21 20  2  0
  4 22  1  0
  5 23  1  0
  6 24  1  0
  9 25  1  0
 10 26  1  0
 14 27  1  0
 14 28  1  0
 18 29  1  0
 20 30  1  0
M  ISO  7  22  14  23  14  24  14  25  14  26  14  29   3  30   6
M  END
>  <minimizedAffinity>  (1) 
-5.87945318

>  <minimizedRMSD>  (1) 
0.497757703

$$$$
