
     RDKit          3D

 28 29  0  0  1  0  0  0  0  0999 V2000
   46.8760   34.6330   42.2850 N   0  0  0  0  0  0  0  0  0  0  0  0
   48.3320   34.6910   42.3610 C   0  0  0  0  0  0  0  0  0  0  0  0
   48.7510   35.4700   41.1190 C   0  0  0  0  0  0  0  0  0  0  0  0
   48.3770   34.7150   39.8660 C   0  0  0  0  0  0  0  0  0  0  0  0
   47.0780   33.9940   39.9360 C   0  0  0  0  0  0  0  0  0  0  0  0
   46.1810   34.4140   41.0560 C   0  0  1  0  0  0  0  0  0  0  0  0
   44.4750   35.9350   44.8400 C   0  0  0  0  0  0  0  0  0  0  0  0
   45.1930   35.8660   43.6280 C   0  0  0  0  0  0  0  0  0  0  0  0
   46.0910   34.7990   43.4800 C   0  0  0  0  0  0  0  0  0  0  0  0
   46.2160   33.9000   44.5050 N   0  0  0  0  0  0  0  0  0  0  0  0
   45.4960   34.0200   45.6490 C   0  0  0  0  0  0  0  0  0  0  0  0
   44.6250   35.0450   45.8070 N   0  0  0  0  0  0  0  0  0  0  0  0
   45.2060   33.4280   41.2360 O   0  0  0  0  0  0  0  0  0  0  0  0
   43.8760   33.6490   40.8350 C   0  0  0  0  0  0  0  0  0  0  0  0
   43.4300   34.7890   40.6140 O   0  0  0  0  0  0  0  0  0  0  0  0
   48.6527   35.2140   43.2740 H   0  0  0  0  0  0  0  0  0  0  0  0
   48.7880   33.6907   42.3997 H   0  0  0  0  0  0  0  0  0  0  0  0
   48.2448   36.4466   41.1171 H   0  0  0  0  0  0  0  0  0  0  0  0
   49.8423   35.6067   41.1379 H   0  0  0  0  0  0  0  0  0  0  0  0
   49.1672   33.9773   39.6624 H   0  0  0  0  0  0  0  0  0  0  0  0
   48.2706   35.4680   39.0712 H   0  0  0  0  0  0  0  0  0  0  0  0
   46.5433   34.1618   38.9895 H   0  0  0  0  0  0  0  0  0  0  0  0
   47.3228   32.9372   40.1184 H   0  0  0  0  0  0  0  0  0  0  0  0
   45.7304   35.3783   40.7783 H   0  0  0  0  0  0  0  0  0  0  0  0
   43.7630   36.7606   44.9867 H   0  0  0  0  0  0  0  0  0  0  0  0
   45.0549   36.6153   42.8346 H   0  0  0  0  0  0  0  0  0  0  0  0
   45.6206   33.2799   46.4532 H   0  0  0  0  0  0  0  0  0  0  0  0
   43.2074   32.7841   40.7126 H   0  0  0  0  0  0  0  0  0  0  0  0
  1  2  1  0
  1  9  1  0
  3  2  1  0
  4  5  1  0
  4  3  1  0
  5  6  1  0
  6 13  1  0
  6  1  1  0
  7 12  2  0
  8  7  1  0
  9  8  2  0
  9 10  1  0
 10 11  2  0
 11 12  1  0
 14 13  1  0
 15 14  2  0
  2 16  1  0
  2 17  1  0
  3 18  1  0
  3 19  1  0
  4 20  1  0
  4 21  1  0
  5 22  1  0
  5 23  1  0
  6 24  1  6
  7 25  1  0
  8 26  1  0
 11 27  1  0
 14 28  1  0
M  ISO  8  16  13  17  13  18  13  19  13  20  13  21  13  22  13  23  13
M  ISO  5  24  13  25  14  26  14  27  14  28   6
M  END
>  <minimizedAffinity>  (1) 
-4.73997641

>  <minimizedRMSD>  (1) 
0.309602946

$$$$
