
     RDKit          3D

 34 36  0  0  1  0  0  0  0  0999 V2000
   47.7560   34.0390   39.7760 O   0  0  0  0  0  0  0  0  0  0  0  0
   47.9660   35.4070   41.7590 C   0  0  1  0  0  0  0  0  0  0  0  0
   49.2310   34.6620   41.6960 C   0  0  0  0  0  0  0  0  0  0  0  0
   48.4260   35.0030   40.4300 C   0  0  1  0  0  0  0  0  0  0  0  0
   45.9400   32.9490   43.8110 C   0  0  0  0  0  0  0  0  0  0  0  0
   47.0260   33.6600   43.3120 C   0  0  0  0  0  0  0  0  0  0  0  0
   46.8040   34.6390   42.3230 C   0  0  0  0  0  0  0  0  0  0  0  0
   45.5390   34.8640   41.8810 N   0  0  0  0  0  0  0  0  0  0  0  0
   44.4950   34.1530   42.3870 C   0  0  0  0  0  0  0  0  0  0  0  0
   44.6960   33.2000   43.3480 N   0  0  0  0  0  0  0  0  0  0  0  0
   48.5790   32.3400   37.9440 O   0  0  0  0  0  0  0  0  0  0  0  0
   48.1080   33.7710   38.2000 P   0  0  2  0  0  0  0  0  0  0  0  0
   49.3220   34.7630   37.5620 O   0  0  0  0  0  0  0  0  0  0  0  0
   46.7450   33.9490   37.2360 O   0  0  0  0  0  0  0  0  0  0  0  0
   45.6930   33.0560   37.1960 C   0  0  0  0  0  0  0  0  0  0  0  0
   45.4770   32.0160   36.3200 C   0  0  0  0  0  0  0  0  0  0  0  0
   44.3850   31.2150   36.4030 C   0  0  0  0  0  0  0  0  0  0  0  0
   43.4500   31.4310   37.3920 C   0  0  0  0  0  0  0  0  0  0  0  0
   43.6870   32.4880   38.2680 C   0  0  0  0  0  0  0  0  0  0  0  0
   44.7940   33.2720   38.1520 N   0  0  0  0  0  0  0  0  0  0  0  0
   42.7080   32.7530   39.3400 C   0  0  0  0  0  0  0  0  0  0  0  0
   42.3280   33.9310   39.5630 O   0  0  0  0  0  0  0  0  0  0  0  0
   47.6657   36.3738   42.1892 H   0  0  0  0  0  0  0  0  0  0  0  0
   50.1850   35.1699   41.9007 H   0  0  0  0  0  0  0  0  0  0  0  0
   49.6293   33.7445   42.1538 H   0  0  0  0  0  0  0  0  0  0  0  0
   48.6474   35.5096   39.4790 H   0  0  0  0  0  0  0  0  0  0  0  0
   46.0941   32.1813   44.5836 H   0  0  0  0  0  0  0  0  0  0  0  0
   48.0422   33.4614   43.6834 H   0  0  0  0  0  0  0  0  0  0  0  0
   43.4767   34.3468   42.0189 H   0  0  0  0  0  0  0  0  0  0  0  0
   49.8311   35.1790   38.3021 H   0  0  0  0  0  0  0  0  0  0  0  0
   46.2147   31.8281   35.5260 H   0  0  0  0  0  0  0  0  0  0  0  0
   44.2464   30.3953   35.6827 H   0  0  0  0  0  0  0  0  0  0  0  0
   42.5561   30.7969   37.4856 H   0  0  0  0  0  0  0  0  0  0  0  0
   42.3116   31.9224   39.9425 H   0  0  0  0  0  0  0  0  0  0  0  0
  1  4  1  0
  2  7  1  0
  3  2  1  0
  4  3  1  0
  4  2  1  0
  6  5  2  0
  7  6  1  0
  8  7  2  0
  8  9  1  0
  9 10  2  0
 10  5  1  0
 12 11  2  0
 12  1  1  0
 13 12  1  0
 14 12  1  0
 15 14  1  0
 15 20  2  0
 16 17  2  0
 16 15  1  0
 17 18  1  0
 18 19  2  0
 19 21  1  0
 20 19  1  0
 21 22  2  0
  2 23  1  6
  3 24  1  0
  3 25  1  0
  4 26  1  6
  5 27  1  0
  6 28  1  0
  9 29  1  0
 13 30  1  0
 16 31  1  0
 17 32  1  0
 18 33  1  0
 21 34  1  0
M  ISO  8  23  13  24  13  25  13  26  13  27  14  28  14  29  14  30   3
M  ISO  4  31  14  32  14  33  14  34   6
M  END
>  <minimizedAffinity>  (1) 
-4.39461327

>  <minimizedRMSD>  (1) 
0.775608242

$$$$
