
     RDKit          3D

 37 39  0  0  1  0  0  0  0  0999 V2000
   44.5760   35.5860   44.6140 C   0  0  0  0  0  0  0  0  0  0  0  0
   45.2300   35.5990   43.3530 C   0  0  0  0  0  0  0  0  0  0  0  0
   46.3070   34.6930   43.1770 C   0  0  0  0  0  0  0  0  0  0  0  0
   46.6590   33.8700   44.1990 N   0  0  0  0  0  0  0  0  0  0  0  0
   46.0120   33.8920   45.3750 C   0  0  0  0  0  0  0  0  0  0  0  0
   44.9660   34.7510   45.5900 N   0  0  0  0  0  0  0  0  0  0  0  0
   46.4430   32.9720   46.4630 C   0  0  2  0  0  0  0  0  0  0  0  0
   46.9620   31.7450   45.7680 C   0  0  0  0  0  0  0  0  0  0  0  0
   46.0910   30.5580   45.7830 C   0  0  0  0  0  0  0  0  0  0  0  0
   45.8030   30.2950   47.2640 C   0  0  0  0  0  0  0  0  0  0  0  0
   45.0130   31.3640   47.8650 C   0  0  0  0  0  0  0  0  0  0  0  0
   45.3830   32.7330   47.4160 C   0  0  0  0  0  0  0  0  0  0  0  0
   44.6810   33.8750   47.9280 N   0  0  0  0  0  0  0  0  0  0  0  0
   47.0000   34.6720   41.8990 C   0  0  0  0  0  0  0  0  0  0  0  0
   48.1450   35.3920   41.7690 C   0  0  0  0  0  0  0  0  0  0  0  0
   48.7810   35.3420   40.5150 C   0  0  0  0  0  0  0  0  0  0  0  0
   48.1810   34.5690   39.5460 C   0  0  0  0  0  0  0  0  0  0  0  0
   47.0320   33.8470   39.6770 C   0  0  0  0  0  0  0  0  0  0  0  0
   46.4590   33.9320   40.9120 N   0  0  0  0  0  0  0  0  0  0  0  0
   46.4690   33.0640   38.6140 C   0  0  0  0  0  0  0  0  0  0  0  0
   46.7000   33.4190   37.4260 O   0  0  0  0  0  0  0  0  0  0  0  0
   43.7353   36.2722   44.7938 H   0  0  0  0  0  0  0  0  0  0  0  0
   44.9153   36.2810   42.5493 H   0  0  0  0  0  0  0  0  0  0  0  0
   47.2390   33.3995   47.0904 H   0  0  0  0  0  0  0  0  0  0  0  0
   47.9122   31.4672   46.2475 H   0  0  0  0  0  0  0  0  0  0  0  0
   47.0473   32.0274   44.7083 H   0  0  0  0  0  0  0  0  0  0  0  0
   45.1570   30.7571   45.2371 H   0  0  0  0  0  0  0  0  0  0  0  0
   46.5636   29.6931   45.2945 H   0  0  0  0  0  0  0  0  0  0  0  0
   45.2488   29.3492   47.3556 H   0  0  0  0  0  0  0  0  0  0  0  0
   46.7657   30.2448   47.7938 H   0  0  0  0  0  0  0  0  0  0  0  0
   44.2091   31.1732   48.5912 H   0  0  0  0  0  0  0  0  0  0  0  0
   43.9188   33.7482   48.6091 H   0  0  0  0  0  0  0  0  0  0  0  0
   44.9393   34.8215   47.6144 H   0  0  0  0  0  0  0  0  0  0  0  0
   48.5537   35.9836   42.6015 H   0  0  0  0  0  0  0  0  0  0  0  0
   49.7122   35.8935   40.3182 H   0  0  0  0  0  0  0  0  0  0  0  0
   48.6797   34.5301   38.5663 H   0  0  0  0  0  0  0  0  0  0  0  0
   45.8529   32.1786   38.8295 H   0  0  0  0  0  0  0  0  0  0  0  0
  1  6  2  0
  2  1  1  0
  3  2  2  0
  3  4  1  0
  4  5  2  0
  5  6  1  0
  5  7  1  0
  7 12  1  0
  8  9  1  0
  8  7  1  0
  9 10  1  0
 10 11  1  0
 12 11  2  0
 12 13  1  0
 14  3  1  0
 15 14  2  0
 16 15  1  0
 17 18  1  0
 17 16  2  0
 18 19  2  0
 19 14  1  0
 20 18  1  0
 21 20  2  0
  1 22  1  0
  2 23  1  0
  7 24  1  1
  8 25  1  0
  8 26  1  0
  9 27  1  0
  9 28  1  0
 10 29  1  0
 10 30  1  0
 11 31  1  0
 13 32  1  0
 13 33  1  0
 15 34  1  0
 16 35  1  0
 17 36  1  0
 20 37  1  0
M  ISO  8  22  14  23  14  24  13  25  13  26  13  27  13  28  13  29  13
M  ISO  6  30  13  31  13  34  14  35  14  36  14  37   6
M  END
>  <minimizedAffinity>  (1) 
-6.8413868

>  <minimizedRMSD>  (1) 
0.0688522458

$$$$
