
     RDKit          3D

 32 35  0  0  0  0  0  0  0  0999 V2000
   45.2280   34.9150   43.4740 C   0  0  0  0  0  0  0  0  0  0  0  0
   45.9620   33.8140   43.9780 C   0  0  0  0  0  0  0  0  0  0  0  0
   45.8960   33.5890   45.3450 C   0  0  0  0  0  0  0  0  0  0  0  0
   45.1530   34.4120   46.1130 N   0  0  0  0  0  0  0  0  0  0  0  0
   44.4610   35.4600   45.6020 C   0  0  0  0  0  0  0  0  0  0  0  0
   44.5020   35.7010   44.3090 N   0  0  0  0  0  0  0  0  0  0  0  0
   46.8250   32.6210   47.3750 C   0  0  0  0  0  0  0  0  0  0  0  0
   46.5960   32.4950   46.0120 C   0  0  0  0  0  0  0  0  0  0  0  0
   47.0360   31.3550   45.3820 C   0  0  0  0  0  0  0  0  0  0  0  0
   47.6900   30.3470   46.0500 C   0  0  0  0  0  0  0  0  0  0  0  0
   48.2040   29.1590   45.6430 N   0  0  0  0  0  0  0  0  0  0  0  0
   48.7540   28.5470   46.7590 C   0  0  0  0  0  0  0  0  0  0  0  0
   48.5630   29.3720   47.8090 N   0  0  0  0  0  0  0  0  0  0  0  0
   47.9180   30.4720   47.3960 C   0  0  0  0  0  0  0  0  0  0  0  0
   47.4880   31.6020   48.0580 C   0  0  0  0  0  0  0  0  0  0  0  0
   45.2880   35.1510   42.0960 O   0  0  0  0  0  0  0  0  0  0  0  0
   44.1440   35.0440   41.3220 C   0  0  0  0  0  0  0  0  0  0  0  0
   44.5120   34.0510   40.4880 C   0  0  0  0  0  0  0  0  0  0  0  0
   42.9520   33.8670   39.3980 S   0  0  0  0  0  0  0  0  0  0  0  0
   42.1360   35.2540   40.3870 C   0  0  0  0  0  0  0  0  0  0  0  0
   42.9400   35.4900   41.0970 N   0  0  0  0  0  0  0  0  0  0  0  0
   40.7430   35.6400   39.9910 C   0  0  0  0  0  0  0  0  0  0  0  0
   40.1010   36.4980   40.6150 O   0  0  0  0  0  0  0  0  0  0  0  0
   46.5568   33.1673   43.3162 H   0  0  0  0  0  0  0  0  0  0  0  0
   43.8677   36.1062   46.2656 H   0  0  0  0  0  0  0  0  0  0  0  0
   46.4858   33.5186   47.9129 H   0  0  0  0  0  0  0  0  0  0  0  0
   46.8579   31.2452   44.3021 H   0  0  0  0  0  0  0  0  0  0  0  0
   48.1885   28.7823   44.6845 H   0  0  0  0  0  0  0  0  0  0  0  0
   49.2546   27.5678   46.7836 H   0  0  0  0  0  0  0  0  0  0  0  0
   47.6701   31.7011   49.1383 H   0  0  0  0  0  0  0  0  0  0  0  0
   45.4595   33.4938   40.4457 H   0  0  0  0  0  0  0  0  0  0  0  0
   40.2776   35.1490   39.1236 H   0  0  0  0  0  0  0  0  0  0  0  0
  1  2  2  0
  1  6  1  0
  2  3  1  0
  3  8  1  0
  3  4  2  0
  5  4  1  0
  6  5  2  0
  7 15  2  0
  8  7  1  0
  9  8  2  0
  9 10  1  0
 10 14  2  0
 11 10  1  0
 11 12  1  0
 12 13  2  0
 14 13  1  0
 14 15  1  0
 16  1  1  0
 17 16  1  0
 18 17  2  0
 19 20  1  0
 19 18  1  0
 20 21  2  0
 21 17  1  0
 22 20  1  0
 22 23  2  0
  2 24  1  0
  5 25  1  0
  7 26  1  0
  9 27  1  0
 11 28  1  0
 12 29  1  0
 15 30  1  0
 18 31  1  0
 22 32  1  0
M  ISO  8  24  14  25  14  26  14  27  14  28   9  29  14  30  14  31  14
M  ISO  1  32   6
M  END
>  <minimizedAffinity>  (1) 
-5.6251049

>  <minimizedRMSD>  (1) 
0.471188903

$$$$
