
     RDKit          3D

 40 42  0  0  1  0  0  0  0  0999 V2000
   47.2990   34.0430   42.6590 C   0  0  0  0  0  0  0  0  0  0  0  0
   48.2250   35.0570   42.5270 C   0  0  0  0  0  0  0  0  0  0  0  0
   48.7320   35.4920   41.3060 C   0  0  0  0  0  0  0  0  0  0  0  0
   48.2160   34.8050   40.2000 C   0  0  0  0  0  0  0  0  0  0  0  0
   47.2720   33.7720   40.3390 C   0  0  0  0  0  0  0  0  0  0  0  0
   46.8270   33.4050   41.5540 N   0  0  0  0  0  0  0  0  0  0  0  0
   46.7670   33.1170   39.1360 C   0  0  1  0  0  0  0  0  0  0  0  0
   45.2300   33.4410   38.9360 C   0  0  0  0  0  0  0  0  0  0  0  0
   44.8000   32.3240   37.9450 C   0  0  0  0  0  0  0  0  0  0  0  0
   45.4000   32.7890   36.6080 C   0  0  0  0  0  0  0  0  0  0  0  0
   46.8820   32.8010   36.6740 C   0  0  0  0  0  0  0  0  0  0  0  0
   47.5050   33.2980   37.9230 C   0  0  2  0  0  0  0  0  0  0  0  0
   49.0710   32.3840   38.1060 S   0  0  0  0  0  0  0  0  0  0  0  0
   46.7670   32.3410   45.8450 C   0  0  0  0  0  0  0  0  0  0  0  0
   45.8010   33.0840   46.4740 C   0  0  0  0  0  0  0  0  0  0  0  0
   45.3310   34.1840   45.7840 C   0  0  0  0  0  0  0  0  0  0  0  0
   45.8490   34.4580   44.5440 N   0  0  0  0  0  0  0  0  0  0  0  0
   46.8230   33.6610   43.9740 C   0  0  0  0  0  0  0  0  0  0  0  0
   47.2630   32.6350   44.6130 N   0  0  0  0  0  0  0  0  0  0  0  0
   44.3500   35.0810   46.2350 N   0  0  0  0  0  0  0  0  0  0  0  0
   45.2450   32.8160   47.7700 C   0  0  0  0  0  0  0  0  0  0  0  0
   46.0340   32.5020   48.6950 O   0  0  0  0  0  0  0  0  0  0  0  0
   48.5842   35.5514   43.4416 H   0  0  0  0  0  0  0  0  0  0  0  0
   49.4710   36.3020   41.2177 H   0  0  0  0  0  0  0  0  0  0  0  0
   48.5595   35.0818   39.1923 H   0  0  0  0  0  0  0  0  0  0  0  0
   46.9168   32.0468   39.3415 H   0  0  0  0  0  0  0  0  0  0  0  0
   44.6782   33.3696   39.8849 H   0  0  0  0  0  0  0  0  0  0  0  0
   45.0316   34.4605   38.5737 H   0  0  0  0  0  0  0  0  0  0  0  0
   45.2136   31.3499   38.2452 H   0  0  0  0  0  0  0  0  0  0  0  0
   43.7100   32.1821   37.9021 H   0  0  0  0  0  0  0  0  0  0  0  0
   45.0403   33.8042   36.3845 H   0  0  0  0  0  0  0  0  0  0  0  0
   45.0869   32.0905   35.8180 H   0  0  0  0  0  0  0  0  0  0  0  0
   47.2274   31.7678   36.5215 H   0  0  0  0  0  0  0  0  0  0  0  0
   47.1922   33.5186   35.9001 H   0  0  0  0  0  0  0  0  0  0  0  0
   47.5919   34.3881   37.8044 H   0  0  0  0  0  0  0  0  0  0  0  0
   49.3514   32.2204   39.4370 H   0  0  0  0  0  0  0  0  0  0  0  0
   47.1632   31.4571   46.3664 H   0  0  0  0  0  0  0  0  0  0  0  0
   44.0665   35.8746   45.6428 H   0  0  0  0  0  0  0  0  0  0  0  0
   43.9136   34.9456   47.1581 H   0  0  0  0  0  0  0  0  0  0  0  0
   44.1615   32.8836   47.9473 H   0  0  0  0  0  0  0  0  0  0  0  0
  1 18  1  0
  2  1  2  0
  3  2  1  0
  4  5  1  0
  4  3  2  0
  5  6  2  0
  6  1  1  0
  7  5  1  0
  8  7  1  0
  9  8  1  0
 10 11  1  0
 10  9  1  0
 11 12  1  0
 12 13  1  0
 12  7  1  0
 14 15  2  0
 15 21  1  0
 16 20  1  0
 16 15  1  0
 17 16  2  0
 18 17  1  0
 18 19  2  0
 19 14  1  0
 21 22  2  0
  2 23  1  0
  3 24  1  0
  4 25  1  0
  7 26  1  1
  8 27  1  0
  8 28  1  0
  9 29  1  0
  9 30  1  0
 10 31  1  0
 10 32  1  0
 11 33  1  0
 11 34  1  0
 12 35  1  6
 13 36  1  0
 14 37  1  0
 20 38  1  0
 20 39  1  0
 21 40  1  0
M  ISO  8  23  14  24  14  25  14  26  13  27  13  28  13  29  13  30  13
M  ISO  8  31  13  32  13  33  13  34  13  35  13  36  11  37  14  40   6
M  END
>  <minimizedAffinity>  (1) 
-6.11410141

>  <minimizedRMSD>  (1) 
0.432324171

$$$$
