
     RDKit          3D

 14 14  0  0  0  0  0  0  0  0999 V2000
   44.9130   35.1350   44.0460 C   0  0  0  0  0  0  0  0  0  0  0  0
   45.7380   35.3860   42.9360 C   0  0  0  0  0  0  0  0  0  0  0  0
   46.9430   34.6760   42.8270 C   0  0  0  0  0  0  0  0  0  0  0  0
   47.2480   33.7860   43.7970 N   0  0  0  0  0  0  0  0  0  0  0  0
   46.4310   33.5690   44.8540 C   0  0  0  0  0  0  0  0  0  0  0  0
   45.2830   34.2420   44.9630 N   0  0  0  0  0  0  0  0  0  0  0  0
   43.6920   35.8450   44.1690 N   0  0  0  0  0  0  0  0  0  0  0  0
   47.7390   34.9800   41.6670 C   0  0  0  0  0  0  0  0  0  0  0  0
   48.6800   35.8160   41.6320 O   0  0  0  0  0  0  0  0  0  0  0  0
   45.4459   36.1211   42.1716 H   0  0  0  0  0  0  0  0  0  0  0  0
   46.7133   32.8367   45.6248 H   0  0  0  0  0  0  0  0  0  0  0  0
   43.4211   36.5320   43.4509 H   0  0  0  0  0  0  0  0  0  0  0  0
   43.0758   35.6739   44.9764 H   0  0  0  0  0  0  0  0  0  0  0  0
   47.5070   34.4393   40.7376 H   0  0  0  0  0  0  0  0  0  0  0  0
  1  7  1  0
  1  6  2  0
  2  1  1  0
  3  2  2  0
  3  4  1  0
  4  5  2  0
  5  6  1  0
  8  3  1  0
  9  8  2  0
  2 10  1  0
  5 11  1  0
  7 12  1  0
  7 13  1  0
  8 14  1  0
M  ISO  3  10  14  11  14  14   6
M  END
>  <minimizedAffinity>  (1) 
-3.7119627

>  <minimizedRMSD>  (1) 
1.76430202

$$$$
