
     RDKit          3D

 13 13  0  0  0  0  0  0  0  0999 V2000
   45.0230   35.8360   43.8040 C   0  0  0  0  0  0  0  0  0  0  0  0
   45.9590   34.8820   43.3750 C   0  0  0  0  0  0  0  0  0  0  0  0
   46.2950   33.8490   44.2610 C   0  0  0  0  0  0  0  0  0  0  0  0
   45.7060   33.8230   45.4740 N   0  0  0  0  0  0  0  0  0  0  0  0
   44.8040   34.7620   45.8630 C   0  0  0  0  0  0  0  0  0  0  0  0
   44.4760   35.7540   45.0210 N   0  0  0  0  0  0  0  0  0  0  0  0
   46.5430   34.9720   42.0720 C   0  0  0  0  0  0  0  0  0  0  0  0
   47.7310   35.3570   41.9710 O   0  0  0  0  0  0  0  0  0  0  0  0
   44.6970   36.8380   42.9450 O   0  0  0  0  0  0  0  0  0  0  0  0
   47.0232   33.0764   43.9732 H   0  0  0  0  0  0  0  0  0  0  0  0
   44.3457   34.7092   46.8616 H   0  0  0  0  0  0  0  0  0  0  0  0
   45.9606   34.7085   41.1768 H   0  0  0  0  0  0  0  0  0  0  0  0
   45.1156   36.8774   42.0487 H   0  0  0  0  0  0  0  0  0  0  0  0
  1  6  2  0
  2  1  1  0
  2  3  2  0
  3  4  1  0
  4  5  2  0
  6  5  1  0
  7  2  1  0
  8  7  2  0
  9  1  1  0
  3 10  1  0
  5 11  1  0
  7 12  1  0
  9 13  1  0
M  ISO  4  10  14  11  14  12   6  13   3
M  END
>  <minimizedAffinity>  (1) 
-3.51124024

>  <minimizedRMSD>  (1) 
0.787769794

$$$$
