
     RDKit          3D

 25 26  0  0  0  0  0  0  0  0999 V2000
   47.2330   34.1070   40.0600 C   0  0  0  0  0  0  0  0  0  0  0  0
   46.1630   33.5200   40.7090 C   0  0  0  0  0  0  0  0  0  0  0  0
   45.3280   32.7170   39.9690 C   0  0  0  0  0  0  0  0  0  0  0  0
   45.5130   32.4790   38.6210 C   0  0  0  0  0  0  0  0  0  0  0  0
   46.5910   33.0800   38.0030 C   0  0  0  0  0  0  0  0  0  0  0  0
   47.4430   33.8880   38.7180 C   0  0  0  0  0  0  0  0  0  0  0  0
   44.8910   34.9170   43.9710 C   0  0  0  0  0  0  0  0  0  0  0  0
   45.0050   34.6700   42.5950 C   0  0  0  0  0  0  0  0  0  0  0  0
   46.0120   33.8020   42.1290 C   0  0  0  0  0  0  0  0  0  0  0  0
   46.8030   33.2710   43.0770 N   0  0  0  0  0  0  0  0  0  0  0  0
   46.6840   33.5140   44.3820 C   0  0  0  0  0  0  0  0  0  0  0  0
   45.7290   34.3370   44.8330 N   0  0  0  0  0  0  0  0  0  0  0  0
   43.8550   35.8020   44.3860 N   0  0  0  0  0  0  0  0  0  0  0  0
   48.5800   34.5200   38.0580 C   0  0  0  0  0  0  0  0  0  0  0  0
   49.0610   33.9840   37.0130 O   0  0  0  0  0  0  0  0  0  0  0  0
   48.9040   35.6380   41.3520 N   0  0  0  0  0  0  0  0  0  0  0  0
   48.1400   34.9530   40.7710 C   0  0  0  0  0  0  0  0  0  0  0  0
   44.4735   32.2423   40.4734 H   0  0  0  0  0  0  0  0  0  0  0  0
   44.8239   31.8318   38.0585 H   0  0  0  0  0  0  0  0  0  0  0  0
   46.7696   32.9113   36.9308 H   0  0  0  0  0  0  0  0  0  0  0  0
   44.3142   35.1498   41.8860 H   0  0  0  0  0  0  0  0  0  0  0  0
   47.3742   33.0358   45.0925 H   0  0  0  0  0  0  0  0  0  0  0  0
   43.2304   36.2278   43.6864 H   0  0  0  0  0  0  0  0  0  0  0  0
   43.7304   36.0162   45.3857 H   0  0  0  0  0  0  0  0  0  0  0  0
   49.0140   35.4473   38.4600 H   0  0  0  0  0  0  0  0  0  0  0  0
  1  2  2  0
  1 17  1  0
  2  9  1  0
  3  2  1  0
  4  3  2  0
  5  4  1  0
  5  6  2  0
  6  1  1  0
  7 13  1  0
  7 12  2  0
  8  7  1  0
  9  8  2  0
  9 10  1  0
 10 11  2  0
 11 12  1  0
 14  6  1  0
 15 14  2  0
 17 16  3  0
  3 18  1  0
  4 19  1  0
  5 20  1  0
  8 21  1  0
 11 22  1  0
 13 23  1  0
 13 24  1  0
 14 25  1  0
M  ISO  6  18  14  19  14  20  14  21  14  22  14  25   6
M  END
>  <minimizedAffinity>  (1) 
-4.54071999

>  <minimizedRMSD>  (1) 
0.932164192

$$$$
