
     RDKit          3D

 31 33  0  0  0  0  0  0  0  0999 V2000
   44.8680   30.7020   47.9410 Cl  0  0  0  0  0  0  0  0  0  0  0  0
   45.9670   30.1540   46.6690 C   0  0  0  0  0  0  0  0  0  0  0  0
   46.8420   31.0360   46.0830 C   0  0  0  0  0  0  0  0  0  0  0  0
   47.6720   30.5620   45.1150 C   0  0  0  0  0  0  0  0  0  0  0  0
   47.6360   29.2410   44.7350 C   0  0  0  0  0  0  0  0  0  0  0  0
   46.7550   28.3460   45.3210 C   0  0  0  0  0  0  0  0  0  0  0  0
   45.9060   28.8330   46.3130 C   0  0  0  0  0  0  0  0  0  0  0  0
   45.0150   27.8170   46.8660 C   0  0  0  0  0  0  0  0  0  0  0  0
   43.8710   27.2570   46.3220 C   0  0  0  0  0  0  0  0  0  0  0  0
   43.3010   26.3180   47.1620 C   0  0  0  0  0  0  0  0  0  0  0  0
   44.1750   26.3530   48.2360 C   0  0  0  0  0  0  0  0  0  0  0  0
   45.1210   27.2140   48.0160 O   0  0  0  0  0  0  0  0  0  0  0  0
   46.8260   32.4270   46.5260 C   0  0  0  0  0  0  0  0  0  0  0  0
   47.3660   32.6960   47.6220 O   0  0  0  0  0  0  0  0  0  0  0  0
   44.6090   35.1190   45.5230 C   0  0  0  0  0  0  0  0  0  0  0  0
   44.9450   35.4190   44.1940 C   0  0  0  0  0  0  0  0  0  0  0  0
   45.9630   34.6540   43.6680 C   0  0  0  0  0  0  0  0  0  0  0  0
   46.5520   33.6900   44.4540 N   0  0  0  0  0  0  0  0  0  0  0  0
   46.2010   33.4440   45.7050 C   0  0  0  0  0  0  0  0  0  0  0  0
   45.2110   34.1820   46.2270 N   0  0  0  0  0  0  0  0  0  0  0  0
   46.4260   34.8460   42.2990 C   0  0  0  0  0  0  0  0  0  0  0  0
   47.5830   35.2980   42.1130 O   0  0  0  0  0  0  0  0  0  0  0  0
   48.3830   31.2461   44.6287 H   0  0  0  0  0  0  0  0  0  0  0  0
   48.3205   28.8874   43.9498 H   0  0  0  0  0  0  0  0  0  0  0  0
   46.7269   27.2900   45.0144 H   0  0  0  0  0  0  0  0  0  0  0  0
   43.4634   27.5276   45.3368 H   0  0  0  0  0  0  0  0  0  0  0  0
   42.3973   25.7079   47.0165 H   0  0  0  0  0  0  0  0  0  0  0  0
   44.0809   25.7396   49.1443 H   0  0  0  0  0  0  0  0  0  0  0  0
   43.8028   35.6949   46.0009 H   0  0  0  0  0  0  0  0  0  0  0  0
   44.4350   36.2043   43.6167 H   0  0  0  0  0  0  0  0  0  0  0  0
   45.7756   34.6001   41.4467 H   0  0  0  0  0  0  0  0  0  0  0  0
  2  1  1  0
  3 13  1  0
  3  2  2  0
  4  3  1  0
  5  4  2  0
  5  6  1  0
  6  7  2  0
  7  2  1  0
  7  8  1  0
  8 12  1  0
  9  8  2  0
  9 10  1  0
 10 11  2  0
 12 11  1  0
 13 14  2  0
 15 20  2  0
 16 15  1  0
 17 16  2  0
 17 18  1  0
 18 19  2  0
 19 20  1  0
 19 13  1  0
 21 17  1  0
 22 21  2  0
  4 23  1  0
  5 24  1  0
  6 25  1  0
  9 26  1  0
 10 27  1  0
 11 28  1  0
 15 29  1  0
 16 30  1  0
 21 31  1  0
M  ISO  8  23  14  24  14  25  14  26  14  27  14  28  14  29  14  30  14
M  ISO  1  31   6
M  END
>  <minimizedAffinity>  (1) 
-5.02407932

>  <minimizedRMSD>  (1) 
0.543660045

$$$$
