
     RDKit          3D

 38 40  0  0  0  0  0  0  0  0999 V2000
   43.2940   35.1930   41.9050 C   0  0  0  0  0  0  0  0  0  0  0  0
   46.6040   33.7220   42.5900 C   0  0  0  0  0  0  0  0  0  0  0  0
   46.7090   33.9960   43.8950 C   0  0  0  0  0  0  0  0  0  0  0  0
   45.1130   34.8690   44.2200 S   0  0  0  0  0  0  0  0  0  0  0  0
   44.5940   34.6860   42.4510 C   0  0  0  0  0  0  0  0  0  0  0  0
   45.5030   34.1390   42.0650 N   0  0  0  0  0  0  0  0  0  0  0  0
   48.9340   32.5680   39.8530 C   0  0  0  0  0  0  0  0  0  0  0  0
   47.9270   33.2930   40.5100 C   0  0  0  0  0  0  0  0  0  0  0  0
   47.6530   33.0080   41.8180 C   0  0  0  0  0  0  0  0  0  0  0  0
   48.4100   31.9980   42.4190 N   0  0  0  0  0  0  0  0  0  0  0  0
   49.3630   31.3400   41.7340 C   0  0  0  0  0  0  0  0  0  0  0  0
   49.6250   31.6210   40.4620 N   0  0  0  0  0  0  0  0  0  0  0  0
   47.2520   34.2840   39.7590 N   0  0  0  0  0  0  0  0  0  0  0  0
   43.3550   35.3730   40.4200 C   0  0  0  0  0  0  0  0  0  0  0  0
   42.1490   35.0890   39.6680 C   0  0  0  0  0  0  0  0  0  0  0  0
   41.8070   35.4500   38.4050 C   0  0  0  0  0  0  0  0  0  0  0  0
   40.6250   35.1300   37.7680 C   0  0  0  0  0  0  0  0  0  0  0  0
   39.7340   34.3760   38.5080 C   0  0  0  0  0  0  0  0  0  0  0  0
   40.0980   34.0230   39.7810 C   0  0  0  0  0  0  0  0  0  0  0  0
   41.2460   34.3510   40.3600 N   0  0  0  0  0  0  0  0  0  0  0  0
   39.0570   33.2060   40.4830 C   0  0  0  0  0  0  0  0  0  0  0  0
   37.7960   33.7430   40.2920 F   0  0  0  0  0  0  0  0  0  0  0  0
   39.3480   33.0050   41.8110 F   0  0  0  0  0  0  0  0  0  0  0  0
   39.0130   31.9250   39.9110 F   0  0  0  0  0  0  0  0  0  0  0  0
   38.5550   34.0990   37.7210 C   0  0  0  0  0  0  0  0  0  0  0  0
   38.2220   33.0560   37.1100 O   0  0  0  0  0  0  0  0  0  0  0  0
   42.4997   34.4709   42.1451 H   0  0  0  0  0  0  0  0  0  0  0  0
   43.0857   36.1713   42.3628 H   0  0  0  0  0  0  0  0  0  0  0  0
   47.5286   33.7632   44.5907 H   0  0  0  0  0  0  0  0  0  0  0  0
   49.1542   32.7954   38.7995 H   0  0  0  0  0  0  0  0  0  0  0  0
   49.9390   30.5506   42.2391 H   0  0  0  0  0  0  0  0  0  0  0  0
   46.5054   34.8424   40.1967 H   0  0  0  0  0  0  0  0  0  0  0  0
   47.5072   34.4470   38.7745 H   0  0  0  0  0  0  0  0  0  0  0  0
   43.6277   36.4206   40.2246 H   0  0  0  0  0  0  0  0  0  0  0  0
   44.0867   34.6281   40.0741 H   0  0  0  0  0  0  0  0  0  0  0  0
   42.5354   36.0499   37.8398 H   0  0  0  0  0  0  0  0  0  0  0  0
   40.4067   35.4536   36.7396 H   0  0  0  0  0  0  0  0  0  0  0  0
   37.8392   34.9309   37.6462 H   0  0  0  0  0  0  0  0  0  0  0  0
  1  5  1  0
  2  3  2  0
  3  4  1  0
  5  4  1  0
  6  5  2  0
  6  2  1  0
  7 12  2  0
  7  8  1  0
  8  9  2  0
  9 10  1  0
  9  2  1  0
 11 10  2  0
 12 11  1  0
 13  8  1  0
 14  1  1  0
 15 20  1  0
 15 14  1  0
 16 15  2  0
 17 16  1  0
 17 18  2  0
 18 19  1  0
 19 20  2  0
 19 21  1  0
 21 23  1  0
 22 21  1  0
 24 21  1  0
 25 18  1  0
 26 25  2  0
  1 27  1  0
  1 28  1  0
  3 29  1  0
  7 30  1  0
 11 31  1  0
 13 32  1  0
 13 33  1  0
 14 34  1  0
 14 35  1  0
 16 36  1  0
 17 37  1  0
 25 38  1  0
M  ISO  8  27   8  28   8  29  14  30  14  31  14  34   8  35   8  36  14
M  ISO  2  37  14  38   6
M  END
>  <minimizedAffinity>  (1) 
-5.87340784

>  <minimizedRMSD>  (1) 
1.04948878

$$$$
