
     RDKit          3D

 25 26  0  0  1  0  0  0  0  0999 V2000
   46.9050   34.9330   42.0800 C   0  0  2  0  0  0  0  0  0  0  0  0
   46.2770   34.2050   40.9310 C   0  0  0  0  0  0  0  0  0  0  0  0
   47.4730   34.1660   39.9700 C   0  0  0  0  0  0  0  0  0  0  0  0
   48.6870   34.0170   40.8710 C   0  0  1  0  0  0  0  0  0  0  0  0
   48.1600   34.0790   42.2920 C   0  0  0  0  0  0  0  0  0  0  0  0
   44.4520   35.9930   44.7330 C   0  0  0  0  0  0  0  0  0  0  0  0
   45.1620   36.0460   43.5160 C   0  0  0  0  0  0  0  0  0  0  0  0
   46.0880   35.0370   43.2920 C   0  0  0  0  0  0  0  0  0  0  0  0
   46.2540   34.0640   44.2580 N   0  0  0  0  0  0  0  0  0  0  0  0
   45.5520   34.0590   45.4010 C   0  0  0  0  0  0  0  0  0  0  0  0
   44.6550   35.0110   45.6480 N   0  0  0  0  0  0  0  0  0  0  0  0
   49.2900   32.6550   40.7170 C   0  0  0  0  0  0  0  0  0  0  0  0
   50.4220   32.3600   41.1280 O   0  0  0  0  0  0  0  0  0  0  0  0
   47.0779   35.9974   41.8627 H   0  0  0  0  0  0  0  0  0  0  0  0
   45.9471   33.1952   41.2164 H   0  0  0  0  0  0  0  0  0  0  0  0
   45.3659   34.6689   40.5252 H   0  0  0  0  0  0  0  0  0  0  0  0
   47.5337   35.0976   39.3882 H   0  0  0  0  0  0  0  0  0  0  0  0
   47.3936   33.3471   39.2398 H   0  0  0  0  0  0  0  0  0  0  0  0
   49.4324   34.7891   40.6296 H   0  0  0  0  0  0  0  0  0  0  0  0
   48.8750   34.5672   42.9706 H   0  0  0  0  0  0  0  0  0  0  0  0
   47.9779   33.1000   42.7593 H   0  0  0  0  0  0  0  0  0  0  0  0
   43.7081   36.7742   44.9484 H   0  0  0  0  0  0  0  0  0  0  0  0
   44.9906   36.8466   42.7813 H   0  0  0  0  0  0  0  0  0  0  0  0
   45.7189   33.2617   46.1402 H   0  0  0  0  0  0  0  0  0  0  0  0
   48.6984   31.8763   40.2134 H   0  0  0  0  0  0  0  0  0  0  0  0
  1  5  1  0
  1  8  1  0
  2  1  1  0
  3  4  1  0
  3  2  1  0
  4  5  1  0
  6 11  2  0
  7  6  1  0
  8  7  2  0
  8  9  1  0
  9 10  2  0
 10 11  1  0
 12  4  1  0
 12 13  2  0
  1 14  1  6
  2 15  1  0
  2 16  1  0
  3 17  1  0
  3 18  1  0
  4 19  1  1
  5 20  1  0
  5 21  1  0
  6 22  1  0
  7 23  1  0
 10 24  1  0
 12 25  1  0
M  ISO  8  14  13  15  13  16  13  17  13  18  13  19  13  20  13  21  13
M  ISO  4  22  14  23  14  24  14  25   6
M  END
>  <minimizedAffinity>  (1) 
-4.3320365

>  <minimizedRMSD>  (1) 
1.20366192

$$$$
