
     RDKit          3D

 27 28  0  0  1  0  0  0  0  0999 V2000
   45.7520   33.6790   40.2030 O   0  0  0  0  0  0  0  0  0  0  0  0
   47.0960   34.0650   40.8250 P   0  0  2  0  0  0  0  0  0  0  0  0
   47.6110   32.7250   41.7440 O   0  0  0  0  0  0  0  0  0  0  0  0
   46.8720   35.3790   41.9000 O   0  0  0  0  0  0  0  0  0  0  0  0
   44.5070   35.8540   44.6360 C   0  0  0  0  0  0  0  0  0  0  0  0
   45.1960   36.0750   43.4160 C   0  0  0  0  0  0  0  0  0  0  0  0
   46.1920   35.1680   43.0950 C   0  0  0  0  0  0  0  0  0  0  0  0
   46.4630   34.1250   43.9440 N   0  0  0  0  0  0  0  0  0  0  0  0
   45.7770   33.9570   45.0980 C   0  0  0  0  0  0  0  0  0  0  0  0
   44.8040   34.8120   45.4480 N   0  0  0  0  0  0  0  0  0  0  0  0
   48.2190   34.4750   39.6660 O   0  0  0  0  0  0  0  0  0  0  0  0
   47.9420   33.7890   38.5120 C   0  0  2  0  0  0  0  0  0  0  0  0
   48.8240   32.5440   38.3650 C   0  0  0  0  0  0  0  0  0  0  0  0
   48.5320   32.2850   36.8840 C   0  0  0  0  0  0  0  0  0  0  0  0
   48.6420   33.5380   36.2930 O   0  0  0  0  0  0  0  0  0  0  0  0
   48.2800   34.4870   37.2380 C   0  0  0  0  0  0  0  0  0  0  0  0
   47.5302   32.9353   42.7080 H   0  0  0  0  0  0  0  0  0  0  0  0
   43.7077   36.5497   44.9312 H   0  0  0  0  0  0  0  0  0  0  0  0
   44.9519   36.9228   42.7590 H   0  0  0  0  0  0  0  0  0  0  0  0
   46.0197   33.1100   45.7566 H   0  0  0  0  0  0  0  0  0  0  0  0
   46.8612   33.6209   38.6285 H   0  0  0  0  0  0  0  0  0  0  0  0
   49.8867   32.7560   38.5540 H   0  0  0  0  0  0  0  0  0  0  0  0
   48.6254   31.7142   39.0592 H   0  0  0  0  0  0  0  0  0  0  0  0
   49.2666   31.5862   36.4575 H   0  0  0  0  0  0  0  0  0  0  0  0
   47.5452   31.8268   36.7220 H   0  0  0  0  0  0  0  0  0  0  0  0
   49.1177   35.1797   37.4065 H   0  0  0  0  0  0  0  0  0  0  0  0
   47.4100   35.0579   36.8814 H   0  0  0  0  0  0  0  0  0  0  0  0
  2  1  2  0
  2  3  1  0
  2  4  1  0
  4  7  1  0
  5 10  2  0
  6  5  1  0
  7  6  2  0
  7  8  1  0
  8  9  2  0
  9 10  1  0
 11  2  1  0
 12 11  1  0
 13 12  1  0
 14 13  1  0
 15 14  1  0
 15 16  1  0
 16 12  1  0
  3 17  1  0
  5 18  1  0
  6 19  1  0
  9 20  1  0
 12 21  1  6
 13 22  1  0
 13 23  1  0
 14 24  1  0
 14 25  1  0
 16 26  1  0
 16 27  1  0
M  ISO  8  17   3  18  14  19  14  20  14  21  13  22  13  23  13  24  13
M  ISO  3  25  13  26  13  27  13
M  END
>  <minimizedAffinity>  (1) 
-4.23109341

>  <minimizedRMSD>  (1) 
2.13855362

$$$$
