
     RDKit          3D

 39 41  0  0  1  0  0  0  0  0999 V2000
   44.5150   35.6550   44.8340 C   0  0  0  0  0  0  0  0  0  0  0  0
   45.0450   35.7810   43.5370 C   0  0  0  0  0  0  0  0  0  0  0  0
   46.0610   34.9140   43.1800 C   0  0  0  0  0  0  0  0  0  0  0  0
   46.4960   33.9970   44.0720 N   0  0  0  0  0  0  0  0  0  0  0  0
   45.9810   33.8900   45.3020 C   0  0  0  0  0  0  0  0  0  0  0  0
   44.9790   34.7290   45.6860 N   0  0  0  0  0  0  0  0  0  0  0  0
   45.3930   32.5600   47.3450 C   0  0  1  0  0  0  0  0  0  0  0  0
   46.4210   32.9190   46.3200 C   0  0  1  0  0  0  0  0  0  0  0  0
   46.5850   31.5290   45.6560 C   0  0  0  0  0  0  0  0  0  0  0  0
   46.3790   30.6070   46.6320 O   0  0  0  0  0  0  0  0  0  0  0  0
   45.9770   31.2330   47.8080 C   0  0  0  0  0  0  0  0  0  0  0  0
   45.2060   33.4820   48.3290 O   0  0  0  0  0  0  0  0  0  0  0  0
   46.5770   35.0440   41.8990 O   0  0  0  0  0  0  0  0  0  0  0  0
   45.3170   32.9630   40.8220 O   0  0  0  0  0  0  0  0  0  0  0  0
   46.6620   33.6890   40.8620 P   0  0  1  0  0  0  0  0  0  0  0  0
   47.1170   34.2020   39.3490 O   0  0  0  0  0  0  0  0  0  0  0  0
   47.7920   32.6270   41.5480 O   0  0  0  0  0  0  0  0  0  0  0  0
   49.0440   32.9810   41.0470 C   0  0  1  0  0  0  0  0  0  0  0  0
   49.7290   33.8140   42.1060 C   0  0  0  0  0  0  0  0  0  0  0  0
   51.0050   33.0360   42.3230 C   0  0  0  0  0  0  0  0  0  0  0  0
   51.2190   32.3160   41.1520 O   0  0  0  0  0  0  0  0  0  0  0  0
   49.9550   31.7740   40.9390 C   0  0  0  0  0  0  0  0  0  0  0  0
   43.7060   36.3276   45.1549 H   0  0  0  0  0  0  0  0  0  0  0  0
   44.6664   36.5387   42.8352 H   0  0  0  0  0  0  0  0  0  0  0  0
   44.3610   32.5098   46.9675 H   0  0  0  0  0  0  0  0  0  0  0  0
   47.3078   33.4012   46.7571 H   0  0  0  0  0  0  0  0  0  0  0  0
   45.8451   31.4026   44.8519 H   0  0  0  0  0  0  0  0  0  0  0  0
   47.5839   31.4178   45.2091 H   0  0  0  0  0  0  0  0  0  0  0  0
   46.8356   31.3966   48.4758 H   0  0  0  0  0  0  0  0  0  0  0  0
   45.2545   30.6316   48.3792 H   0  0  0  0  0  0  0  0  0  0  0  0
   45.2948   33.0443   49.2125 H   0  0  0  0  0  0  0  0  0  0  0  0
   47.7715   34.9399   39.4337 H   0  0  0  0  0  0  0  0  0  0  0  0
   48.8905   33.4717   40.0746 H   0  0  0  0  0  0  0  0  0  0  0  0
   49.9358   34.8322   41.7447 H   0  0  0  0  0  0  0  0  0  0  0  0
   49.1317   33.9589   43.0182 H   0  0  0  0  0  0  0  0  0  0  0  0
   51.8443   33.7224   42.5084 H   0  0  0  0  0  0  0  0  0  0  0  0
   50.9281   32.3715   43.1962 H   0  0  0  0  0  0  0  0  0  0  0  0
   49.7115   31.0249   41.7068 H   0  0  0  0  0  0  0  0  0  0  0  0
   49.8653   31.2478   39.9772 H   0  0  0  0  0  0  0  0  0  0  0  0
  1  6  2  0
  2  1  1  0
  3  2  2  0
  3  4  1  0
  4  5  2  0
  5  6  1  0
  5  8  1  0
  7 11  1  0
  7 12  1  0
  8  7  1  0
  9  8  1  0
  9 10  1  0
 10 11  1  0
 13  3  1  0
 15 14  2  0
 15 17  1  0
 15 13  1  0
 16 15  1  0
 18 17  1  0
 18 19  1  0
 19 20  1  0
 21 20  1  0
 22 18  1  0
 22 21  1  0
  1 23  1  0
  2 24  1  0
  7 25  1  6
  8 26  1  1
  9 27  1  0
  9 28  1  0
 11 29  1  0
 11 30  1  0
 12 31  1  0
 16 32  1  0
 18 33  1  6
 19 34  1  0
 19 35  1  0
 20 36  1  0
 20 37  1  0
 22 38  1  0
 22 39  1  0
M  ISO  8  23  14  24  14  25  13  26  13  27  13  28  13  29  13  30  13
M  ISO  8  31   3  32   3  33  13  34  13  35  13  36  13  37  13  38  13
M  ISO  1  39  13
M  END
>  <minimizedAffinity>  (1) 
-5.77232885

>  <minimizedRMSD>  (1) 
1.82934296

$$$$
