
     RDKit          3D

 31 33  0  0  1  0  0  0  0  0999 V2000
   45.9760   34.2160   41.0250 C   0  0  0  0  0  0  0  0  0  0  0  0
   46.5560   34.8170   42.1370 C   0  0  0  0  0  0  0  0  0  0  0  0
   47.9050   35.1640   42.0230 C   0  0  0  0  0  0  0  0  0  0  0  0
   48.5650   34.9050   40.8640 N   0  0  0  0  0  0  0  0  0  0  0  0
   47.9590   34.3210   39.8130 C   0  0  0  0  0  0  0  0  0  0  0  0
   46.6580   33.9750   39.8950 N   0  0  0  0  0  0  0  0  0  0  0  0
   45.7680   35.0530   43.3320 C   0  0  0  0  0  0  0  0  0  0  0  0
   45.0730   36.2410   43.5440 C   0  0  0  0  0  0  0  0  0  0  0  0
   44.4800   36.0280   44.7800 C   0  0  0  0  0  0  0  0  0  0  0  0
   44.7960   34.8010   45.2750 N   0  0  0  0  0  0  0  0  0  0  0  0
   45.5740   34.2440   44.3730 N   0  0  0  0  0  0  0  0  0  0  0  0
   44.6430   33.8580   41.0980 O   0  0  0  0  0  0  0  0  0  0  0  0
   43.5880   34.4760   40.4880 C   0  0  0  0  0  0  0  0  0  0  0  0
   43.1190   35.6340   40.7370 O   0  0  0  0  0  0  0  0  0  0  0  0
   42.6320   34.1030   39.3870 C   0  0  2  0  0  0  0  0  0  0  0  0
   42.2010   35.2860   38.5990 C   0  0  0  0  0  0  0  0  0  0  0  0
   40.7890   34.8420   38.1900 C   0  0  0  0  0  0  0  0  0  0  0  0
   40.3330   34.3570   39.4370 O   0  0  0  0  0  0  0  0  0  0  0  0
   41.3360   33.5390   39.9100 C   0  0  0  0  0  0  0  0  0  0  0  0
   48.4278   35.6426   42.8642 H   0  0  0  0  0  0  0  0  0  0  0  0
   48.5238   34.1265   38.8894 H   0  0  0  0  0  0  0  0  0  0  0  0
   45.0100   37.1264   42.8943 H   0  0  0  0  0  0  0  0  0  0  0  0
   43.8369   36.7577   45.2938 H   0  0  0  0  0  0  0  0  0  0  0  0
   44.4897   34.3932   46.1699 H   0  0  0  0  0  0  0  0  0  0  0  0
   43.1944   33.3712   38.7885 H   0  0  0  0  0  0  0  0  0  0  0  0
   42.1791   36.1983   39.2131 H   0  0  0  0  0  0  0  0  0  0  0  0
   42.8631   35.5472   37.7603 H   0  0  0  0  0  0  0  0  0  0  0  0
   40.1811   35.6848   37.8292 H   0  0  0  0  0  0  0  0  0  0  0  0
   40.7442   34.1215   37.3600 H   0  0  0  0  0  0  0  0  0  0  0  0
   41.1932   32.5119   39.5430 H   0  0  0  0  0  0  0  0  0  0  0  0
   41.3336   33.5024   41.0094 H   0  0  0  0  0  0  0  0  0  0  0  0
  1 12  1  0
  1  2  1  0
  2  7  1  0
  3  2  2  0
  4  3  1  0
  5  6  1  0
  5  4  2  0
  6  1  2  0
  7  8  1  0
  7 11  2  0
  8  9  2  0
  9 10  1  0
 11 10  1  0
 13 14  2  0
 13 12  1  0
 15 19  1  0
 15 13  1  0
 16 15  1  0
 17 16  1  0
 17 18  1  0
 18 19  1  0
  3 20  1  0
  5 21  1  0
  8 22  1  0
  9 23  1  0
 10 24  1  0
 15 25  1  6
 16 26  1  0
 16 27  1  0
 17 28  1  0
 17 29  1  0
 19 30  1  0
 19 31  1  0
M  ISO  8  20  14  21  14  22  14  23  14  24   9  25  13  26  13  27  13
M  ISO  4  28  13  29  13  30  13  31  13
M  END
>  <minimizedAffinity>  (1) 
-5.38317633

>  <minimizedRMSD>  (1) 
0.42609942

$$$$
