
     RDKit          3D

 48 51  0  0  1  0  0  0  0  0999 V2000
   42.8380   34.3520   38.9710 C   0  0  1  0  0  0  0  0  0  0  0  0
   43.0530   35.1860   40.2270 C   0  0  1  0  0  0  0  0  0  0  0  0
   41.8010   35.6290   40.6850 O   0  0  0  0  0  0  0  0  0  0  0  0
   40.9230   35.9310   39.6410 C   0  0  0  0  0  0  0  0  0  0  0  0
   40.4810   34.6870   38.8970 C   0  0  2  0  0  0  0  0  0  0  0  0
   41.5680   33.5950   39.1840 C   0  0  1  0  0  0  0  0  0  0  0  0
   42.7380   35.1750   37.8390 O   0  0  0  0  0  0  0  0  0  0  0  0
   40.5480   34.9120   37.5290 O   0  0  0  0  0  0  0  0  0  0  0  0
   43.4670   34.2740   41.2090 O   0  0  0  0  0  0  0  0  0  0  0  0
   44.6180   34.3480   41.8900 C   0  0  0  0  0  0  0  0  0  0  0  0
   45.8450   34.4920   41.2260 C   0  0  0  0  0  0  0  0  0  0  0  0
   46.9990   34.5630   41.9930 C   0  0  0  0  0  0  0  0  0  0  0  0
   46.9090   34.4900   43.3700 N   0  0  0  0  0  0  0  0  0  0  0  0
   45.7060   34.3510   43.9730 C   0  0  0  0  0  0  0  0  0  0  0  0
   44.5650   34.2800   43.2410 N   0  0  0  0  0  0  0  0  0  0  0  0
   48.3480   34.7010   41.3500 C   0  0  0  0  0  0  0  0  0  0  0  0
   49.0640   36.0360   41.5490 C   0  0  0  0  0  0  0  0  0  0  0  0
   49.5370   34.6960   42.1410 C   0  0  0  0  0  0  0  0  0  0  0  0
   41.3300   32.5570   38.3610 O   0  0  0  0  0  0  0  0  0  0  0  0
   40.3640   31.6120   38.4350 C   0  0  0  0  0  0  0  0  0  0  0  0
   39.8760   31.0550   37.3530 O   0  0  0  0  0  0  0  0  0  0  0  0
   39.5060   30.8280   39.3750 C   0  0  2  0  0  0  0  0  0  0  0  0
   38.3360   31.7370   39.7690 C   0  0  0  0  0  0  0  0  0  0  0  0
   37.9220   31.0950   41.0820 C   0  0  0  0  0  0  0  0  0  0  0  0
   39.0750   30.5830   41.6490 O   0  0  0  0  0  0  0  0  0  0  0  0
   40.0720   30.5120   40.6960 C   0  0  0  0  0  0  0  0  0  0  0  0
   43.6844   33.6714   38.7968 H   0  0  0  0  0  0  0  0  0  0  0  0
   43.7477   36.0175   40.0372 H   0  0  0  0  0  0  0  0  0  0  0  0
   40.0356   36.4313   40.0560 H   0  0  0  0  0  0  0  0  0  0  0  0
   41.4503   36.5842   38.9302 H   0  0  0  0  0  0  0  0  0  0  0  0
   39.4630   34.4050   39.2038 H   0  0  0  0  0  0  0  0  0  0  0  0
   41.5895   33.1344   40.1827 H   0  0  0  0  0  0  0  0  0  0  0  0
   42.6237   36.1161   38.1243 H   0  0  0  0  0  0  0  0  0  0  0  0
   40.8265   35.8472   37.3616 H   0  0  0  0  0  0  0  0  0  0  0  0
   45.8911   34.5471   40.1283 H   0  0  0  0  0  0  0  0  0  0  0  0
   45.6517   34.2948   45.0702 H   0  0  0  0  0  0  0  0  0  0  0  0
   48.0355   34.0965   40.4858 H   0  0  0  0  0  0  0  0  0  0  0  0
   49.6117   36.5090   40.7206 H   0  0  0  0  0  0  0  0  0  0  0  0
   48.8079   37.0362   41.9286 H   0  0  0  0  0  0  0  0  0  0  0  0
   49.4691   34.5253   43.2256 H   0  0  0  0  0  0  0  0  0  0  0  0
   50.4804   34.1316   42.1037 H   0  0  0  0  0  0  0  0  0  0  0  0
   39.3037   29.8938   38.8307 H   0  0  0  0  0  0  0  0  0  0  0  0
   38.6598   32.7788   39.9099 H   0  0  0  0  0  0  0  0  0  0  0  0
   37.5349   31.8069   39.0185 H   0  0  0  0  0  0  0  0  0  0  0  0
   37.4725   31.8467   41.7476 H   0  0  0  0  0  0  0  0  0  0  0  0
   37.1734   30.3054   40.9203 H   0  0  0  0  0  0  0  0  0  0  0  0
   40.4945   29.4965   40.6813 H   0  0  0  0  0  0  0  0  0  0  0  0
   40.8657   31.2338   40.9389 H   0  0  0  0  0  0  0  0  0  0  0  0
  1  6  1  0
  1  2  1  0
  2  3  1  0
  2  9  1  0
  4  3  1  0
  5  6  1  0
  5  4  1  0
  7  1  1  0
  8  5  1  0
  9 10  1  0
 10 15  1  0
 11 10  2  0
 11 12  1  0
 12 13  2  0
 13 14  1  0
 15 14  2  0
 16 17  1  0
 16 12  1  0
 16 18  1  0
 17 18  1  0
 19 20  1  0
 19  6  1  0
 21 20  2  0
 22 20  1  0
 22 23  1  0
 22 26  1  0
 23 24  1  0
 24 25  1  0
 26 25  1  0
  1 27  1  6
  2 28  1  6
  4 29  1  0
  4 30  1  0
  5 31  1  1
  6 32  1  1
  7 33  1  0
  8 34  1  0
 11 35  1  0
 14 36  1  0
 16 37  1  0
 17 38  1  0
 17 39  1  0
 18 40  1  0
 18 41  1  0
 22 42  1  6
 23 43  1  0
 23 44  1  0
 24 45  1  0
 24 46  1  0
 26 47  1  0
 26 48  1  0
M  ISO  8  27  13  28  13  29  13  30  13  31  13  32  13  33   3  34   3
M  ISO  8  35  14  36  14  37  13  38  13  39  13  40  13  41  13  42  13
M  ISO  6  43  13  44  13  45  13  46  13  47  13  48  13
M  END
>  <minimizedAffinity>  (1) 
-6.23187017

>  <minimizedRMSD>  (1) 
1.64169705

$$$$
