
     RDKit          3D

 33 34  0  0  1  0  0  0  0  0999 V2000
   47.6020   34.4440   40.4860 C   0  0  0  0  0  0  0  0  0  0  0  0
   46.4600   33.6550   40.4600 C   0  0  0  0  0  0  0  0  0  0  0  0
   46.0910   33.0750   39.2370 C   0  0  0  0  0  0  0  0  0  0  0  0
   46.8760   33.3250   38.1610 N   0  0  0  0  0  0  0  0  0  0  0  0
   47.9830   34.1000   38.2250 C   0  0  0  0  0  0  0  0  0  0  0  0
   48.3190   34.6400   39.3860 N   0  0  0  0  0  0  0  0  0  0  0  0
   48.0360   35.0740   41.7340 C   0  0  0  0  0  0  0  0  0  0  0  0
   49.1520   36.0440   41.4380 C   0  0  0  0  0  0  0  0  0  0  0  0
   45.7660   33.5000   41.6560 O   0  0  0  0  0  0  0  0  0  0  0  0
   43.2680   32.7390   41.9230 O   0  0  0  0  0  0  0  0  0  0  0  0
   44.1740   33.9690   41.9620 P   0  0  1  0  0  0  0  0  0  0  0  0
   44.1100   34.6400   43.5140 O   0  0  0  0  0  0  0  0  0  0  0  0
   43.6100   35.1220   40.8550 O   0  0  0  0  0  0  0  0  0  0  0  0
   42.2750   34.8610   40.5840 C   0  0  1  0  0  0  0  0  0  0  0  0
   41.3090   35.6230   41.4230 C   0  0  0  0  0  0  0  0  0  0  0  0
   40.2560   36.0510   40.4460 C   0  0  0  0  0  0  0  0  0  0  0  0
   40.7540   35.9510   39.1690 O   0  0  0  0  0  0  0  0  0  0  0  0
   41.8930   35.1950   39.1700 C   0  0  0  0  0  0  0  0  0  0  0  0
   45.1965   32.4401   39.1544 H   0  0  0  0  0  0  0  0  0  0  0  0
   48.5935   34.2784   37.3276 H   0  0  0  0  0  0  0  0  0  0  0  0
   47.1909   35.6127   42.1874 H   0  0  0  0  0  0  0  0  0  0  0  0
   48.3924   34.3028   42.4328 H   0  0  0  0  0  0  0  0  0  0  0  0
   49.5770   36.4134   42.3829 H   0  0  0  0  0  0  0  0  0  0  0  0
   49.9357   35.5352   40.8576 H   0  0  0  0  0  0  0  0  0  0  0  0
   48.7573   36.8910   40.8576 H   0  0  0  0  0  0  0  0  0  0  0  0
   44.1788   33.9186   44.1885 H   0  0  0  0  0  0  0  0  0  0  0  0
   42.2055   33.7841   40.7971 H   0  0  0  0  0  0  0  0  0  0  0  0
   40.8799   34.9827   42.2078 H   0  0  0  0  0  0  0  0  0  0  0  0
   41.7742   36.4698   41.9488 H   0  0  0  0  0  0  0  0  0  0  0  0
   39.3740   35.4017   40.5484 H   0  0  0  0  0  0  0  0  0  0  0  0
   39.9670   37.0929   40.6484 H   0  0  0  0  0  0  0  0  0  0  0  0
   41.7158   34.2653   38.6093 H   0  0  0  0  0  0  0  0  0  0  0  0
   42.7079   35.7615   38.6956 H   0  0  0  0  0  0  0  0  0  0  0  0
  1  7  1  0
  2  1  2  0
  2  9  1  0
  3  2  1  0
  4  5  1  0
  4  3  2  0
  5  6  2  0
  6  1  1  0
  8  7  1  0
  9 11  1  0
 11 10  2  0
 11 12  1  0
 13 11  1  0
 14 13  1  0
 14 15  1  0
 16 15  1  0
 17 18  1  0
 17 16  1  0
 18 14  1  0
  3 19  1  0
  5 20  1  0
  7 21  1  0
  7 22  1  0
  8 23  1  0
  8 24  1  0
  8 25  1  0
 12 26  1  0
 14 27  1  6
 15 28  1  0
 15 29  1  0
 16 30  1  0
 16 31  1  0
 18 32  1  0
 18 33  1  0
M  ISO  8  19  14  20  14  21   8  22   8  23   8  24   8  25   8  26   3
M  ISO  7  27  13  28  13  29  13  30  13  31  13  32  13  33  13
M  END
>  <minimizedAffinity>  (1) 
-4.78602886

>  <minimizedRMSD>  (1) 
3.57198167

$$$$
