
     RDKit          3D

 43 46  0  0  1  0  0  0  0  0999 V2000
   48.6890   32.3460   38.0160 O   0  0  0  0  0  0  0  0  0  0  0  0
   48.1140   33.7480   38.2180 P   0  0  2  0  0  0  0  0  0  0  0  0
   49.2710   34.8010   37.5640 O   0  0  0  0  0  0  0  0  0  0  0  0
   47.7220   34.0430   39.7770 O   0  0  0  0  0  0  0  0  0  0  0  0
   47.9270   35.3960   41.7730 C   0  0  1  0  0  0  0  0  0  0  0  0
   49.1900   34.6500   41.7120 C   0  0  0  0  0  0  0  0  0  0  0  0
   48.3930   35.0000   40.4430 C   0  0  1  0  0  0  0  0  0  0  0  0
   45.8830   32.9310   43.8000 C   0  0  0  0  0  0  0  0  0  0  0  0
   46.9750   33.6440   43.3140 C   0  0  0  0  0  0  0  0  0  0  0  0
   46.7620   34.6230   42.3250 C   0  0  0  0  0  0  0  0  0  0  0  0
   45.5010   34.8450   41.8740 N   0  0  0  0  0  0  0  0  0  0  0  0
   44.4520   34.1340   42.3670 C   0  0  0  0  0  0  0  0  0  0  0  0
   44.6410   33.1830   43.3230 N   0  0  0  0  0  0  0  0  0  0  0  0
   46.7620   33.8080   37.2260 O   0  0  0  0  0  0  0  0  0  0  0  0
   45.6890   32.9390   37.3190 C   0  0  0  0  0  0  0  0  0  0  0  0
   45.5670   31.6630   36.8010 C   0  0  0  0  0  0  0  0  0  0  0  0
   44.4370   30.9340   36.9820 C   0  0  0  0  0  0  0  0  0  0  0  0
   43.3750   31.4430   37.6910 C   0  0  0  0  0  0  0  0  0  0  0  0
   43.5280   32.7330   38.2020 C   0  0  0  0  0  0  0  0  0  0  0  0
   44.6690   33.4520   38.0100 N   0  0  0  0  0  0  0  0  0  0  0  0
   42.3860   33.3090   38.9770 C   0  0  2  0  0  0  0  0  0  0  0  0
   41.0800   33.2380   38.2110 C   0  0  0  0  0  0  0  0  0  0  0  0
   40.3750   34.5270   38.5720 C   0  0  0  0  0  0  0  0  0  0  0  0
   41.2870   35.3720   39.1500 O   0  0  0  0  0  0  0  0  0  0  0  0
   42.5380   34.8090   39.1180 C   0  0  0  0  0  0  0  0  0  0  0  0
   49.7624   35.2482   38.2979 H   0  0  0  0  0  0  0  0  0  0  0  0
   47.6259   36.3605   42.2078 H   0  0  0  0  0  0  0  0  0  0  0  0
   50.1436   35.1551   41.9253 H   0  0  0  0  0  0  0  0  0  0  0  0
   49.5841   33.7290   42.1662 H   0  0  0  0  0  0  0  0  0  0  0  0
   48.6218   35.5111   39.4962 H   0  0  0  0  0  0  0  0  0  0  0  0
   46.0291   32.1618   44.5726 H   0  0  0  0  0  0  0  0  0  0  0  0
   47.9873   33.4459   43.6961 H   0  0  0  0  0  0  0  0  0  0  0  0
   43.4378   34.3296   41.9887 H   0  0  0  0  0  0  0  0  0  0  0  0
   46.4024   31.2303   36.2310 H   0  0  0  0  0  0  0  0  0  0  0  0
   44.3699   29.9222   36.5557 H   0  0  0  0  0  0  0  0  0  0  0  0
   42.4529   30.8641   37.8475 H   0  0  0  0  0  0  0  0  0  0  0  0
   42.3836   32.7428   39.9201 H   0  0  0  0  0  0  0  0  0  0  0  0
   40.4879   32.3665   38.5271 H   0  0  0  0  0  0  0  0  0  0  0  0
   41.2299   33.1260   37.1270 H   0  0  0  0  0  0  0  0  0  0  0  0
   39.9617   34.9911   37.6644 H   0  0  0  0  0  0  0  0  0  0  0  0
   39.5513   34.3239   39.2722 H   0  0  0  0  0  0  0  0  0  0  0  0
   43.0737   35.0417   40.0502 H   0  0  0  0  0  0  0  0  0  0  0  0
   43.1109   35.2113   38.2695 H   0  0  0  0  0  0  0  0  0  0  0  0
  2  1  2  0
  2  4  1  0
  3  2  1  0
  4  7  1  0
  5 10  1  0
  6  5  1  0
  7  6  1  0
  7  5  1  0
  9  8  2  0
 10  9  1  0
 11 10  2  0
 11 12  1  0
 12 13  2  0
 13  8  1  0
 14 15  1  0
 14  2  1  0
 15 20  2  0
 16 17  2  0
 16 15  1  0
 17 18  1  0
 18 19  2  0
 20 19  1  0
 21 19  1  0
 21 25  1  0
 22 23  1  0
 22 21  1  0
 23 24  1  0
 25 24  1  0
  3 26  1  0
  5 27  1  6
  6 28  1  0
  6 29  1  0
  7 30  1  6
  8 31  1  0
  9 32  1  0
 12 33  1  0
 16 34  1  0
 17 35  1  0
 18 36  1  0
 21 37  1  1
 22 38  1  0
 22 39  1  0
 23 40  1  0
 23 41  1  0
 25 42  1  0
 25 43  1  0
M  ISO  8  26   3  27  13  28  13  29  13  30  13  31  14  32  14  33  14
M  ISO  8  34  14  35  14  36  14  37  13  38  13  39  13  40  13  41  13
M  ISO  2  42  13  43  13
M  END
>  <minimizedAffinity>  (1) 
-5.09628582

>  <minimizedRMSD>  (1) 
1.08519745

$$$$
