
     RDKit          3D

 32 34  0  0  1  0  0  0  0  0999 V2000
   45.9050   32.7850   47.0150 C   0  0  0  0  0  0  0  0  0  0  0  0
   47.1370   32.1590   47.1950 C   0  0  0  0  0  0  0  0  0  0  0  0
   47.3630   31.3150   48.2590 C   0  0  0  0  0  0  0  0  0  0  0  0
   46.3490   31.0720   49.1850 C   0  0  0  0  0  0  0  0  0  0  0  0
   45.1380   31.6850   49.0090 C   0  0  0  0  0  0  0  0  0  0  0  0
   44.9340   32.5300   47.9330 C   0  0  0  0  0  0  0  0  0  0  0  0
   44.5660   35.5330   45.0080 C   0  0  0  0  0  0  0  0  0  0  0  0
   45.2480   35.4270   43.7920 C   0  0  0  0  0  0  0  0  0  0  0  0
   46.1890   34.3930   43.6540 C   0  0  0  0  0  0  0  0  0  0  0  0
   46.3980   33.5400   44.6980 N   0  0  0  0  0  0  0  0  0  0  0  0
   45.7110   33.6820   45.8600 C   0  0  0  0  0  0  0  0  0  0  0  0
   44.8010   34.6730   46.0130 N   0  0  0  0  0  0  0  0  0  0  0  0
   48.9370   30.5370   48.4720 S   0  0  0  0  0  0  0  0  0  0  0  0
   49.6720   31.1100   50.0160 C   0  0  2  0  0  0  0  0  0  0  0  0
   50.9190   31.8730   49.7130 C   0  0  0  0  0  0  0  0  0  0  0  0
   51.9970   30.9400   50.2320 C   0  0  0  0  0  0  0  0  0  0  0  0
   51.4090   30.3790   51.3540 O   0  0  0  0  0  0  0  0  0  0  0  0
   50.1610   29.9660   50.8700 C   0  0  0  0  0  0  0  0  0  0  0  0
   47.9455   32.3430   46.4721 H   0  0  0  0  0  0  0  0  0  0  0  0
   46.5191   30.4010   50.0399 H   0  0  0  0  0  0  0  0  0  0  0  0
   44.3236   31.5050   49.7262 H   0  0  0  0  0  0  0  0  0  0  0  0
   43.9525   33.0125   47.8156 H   0  0  0  0  0  0  0  0  0  0  0  0
   43.8245   36.3341   45.1441 H   0  0  0  0  0  0  0  0  0  0  0  0
   45.0539   36.1310   42.9694 H   0  0  0  0  0  0  0  0  0  0  0  0
   46.7504   34.2726   42.7157 H   0  0  0  0  0  0  0  0  0  0  0  0
   48.8932   31.6951   50.5269 H   0  0  0  0  0  0  0  0  0  0  0  0
   51.0280   32.0469   48.6323 H   0  0  0  0  0  0  0  0  0  0  0  0
   50.9456   32.8751   50.1659 H   0  0  0  0  0  0  0  0  0  0  0  0
   52.2444   30.1687   49.4877 H   0  0  0  0  0  0  0  0  0  0  0  0
   52.9459   31.4521   50.4497 H   0  0  0  0  0  0  0  0  0  0  0  0
   49.4660   29.7810   51.7023 H   0  0  0  0  0  0  0  0  0  0  0  0
   50.2299   29.0272   50.3009 H   0  0  0  0  0  0  0  0  0  0  0  0
  1  2  2  0
  1  6  1  0
  2  3  1  0
  3 13  1  0
  3  4  2  0
  5  4  1  0
  6  5  2  0
  7 12  2  0
  8  7  1  0
  9  8  2  0
  9 10  1  0
 10 11  2  0
 11 12  1  0
 11  1  1  0
 14 13  1  0
 14 18  1  0
 15 14  1  0
 15 16  1  0
 16 17  1  0
 18 17  1  0
  2 19  1  0
  4 20  1  0
  5 21  1  0
  6 22  1  0
  7 23  1  0
  8 24  1  0
  9 25  1  0
 14 26  1  1
 15 27  1  0
 15 28  1  0
 16 29  1  0
 16 30  1  0
 18 31  1  0
 18 32  1  0
M  ISO  8  19  14  20  14  21  14  22  14  23  14  24  14  25  14  26  13
M  ISO  6  27  13  28  13  29  13  30  13  31  13  32  13
M  END
>  <minimizedAffinity>  (1) 
-5.48803711

>  <minimizedRMSD>  (1) 
1.01035821

$$$$
