
     RDKit          3D

 32 33  0  0  1  0  0  0  0  0999 V2000
   43.3160   35.7780   41.7190 O   0  0  0  0  0  0  0  0  0  0  0  0
   44.5700   35.2540   41.8970 C   0  0  0  0  0  0  0  0  0  0  0  0
   44.4450   35.6340   44.2670 C   0  0  0  0  0  0  0  0  0  0  0  0
   44.8540   34.7500   43.2560 C   0  0  0  0  0  0  0  0  0  0  0  0
   45.4540   33.5820   43.6430 C   0  0  0  0  0  0  0  0  0  0  0  0
   45.6060   33.3730   44.9570 N   0  0  0  0  0  0  0  0  0  0  0  0
   45.2180   34.2120   45.9120 C   0  0  0  0  0  0  0  0  0  0  0  0
   44.6030   35.4130   45.5920 N   0  0  0  0  0  0  0  0  0  0  0  0
   42.2260   35.2060   41.0840 C   0  0  0  0  0  0  0  0  0  0  0  0
   41.1220   35.9410   40.9170 C   0  0  0  0  0  0  0  0  0  0  0  0
   39.8360   35.5410   40.2380 C   0  0  0  0  0  0  0  0  0  0  0  0
   39.8240   34.1290   39.7710 C   0  0  2  0  0  0  0  0  0  0  0  0
   40.1520   34.1590   38.2830 C   0  0  0  0  0  0  0  0  0  0  0  0
   38.7730   34.1060   37.6620 C   0  0  0  0  0  0  0  0  0  0  0  0
   38.0170   33.3240   38.5120 O   0  0  0  0  0  0  0  0  0  0  0  0
   38.4450   33.5150   39.8050 C   0  0  0  0  0  0  0  0  0  0  0  0
   44.6931   34.4189   41.1917 H   0  0  0  0  0  0  0  0  0  0  0  0
   45.2738   36.0817   41.7252 H   0  0  0  0  0  0  0  0  0  0  0  0
   43.9617   36.5731   43.9597 H   0  0  0  0  0  0  0  0  0  0  0  0
   45.7979   32.8439   42.9035 H   0  0  0  0  0  0  0  0  0  0  0  0
   45.3865   33.9510   46.9672 H   0  0  0  0  0  0  0  0  0  0  0  0
   42.2680   34.1674   40.7242 H   0  0  0  0  0  0  0  0  0  0  0  0
   41.1555   36.9622   41.3245 H   0  0  0  0  0  0  0  0  0  0  0  0
   39.0091   35.6789   40.9502 H   0  0  0  0  0  0  0  0  0  0  0  0
   39.7304   36.1767   39.3465 H   0  0  0  0  0  0  0  0  0  0  0  0
   40.5164   33.5647   40.4130 H   0  0  0  0  0  0  0  0  0  0  0  0
   40.6802   35.0838   38.0077 H   0  0  0  0  0  0  0  0  0  0  0  0
   40.8193   33.3475   37.9571 H   0  0  0  0  0  0  0  0  0  0  0  0
   38.3457   35.1168   37.5872 H   0  0  0  0  0  0  0  0  0  0  0  0
   38.7995   33.6937   36.6425 H   0  0  0  0  0  0  0  0  0  0  0  0
   38.4825   32.5487   40.3293 H   0  0  0  0  0  0  0  0  0  0  0  0
   37.7499   34.1821   40.3359 H   0  0  0  0  0  0  0  0  0  0  0  0
  1  2  1  0
  2  4  1  0
  3  8  2  0
  4  5  2  0
  4  3  1  0
  5  6  1  0
  6  7  2  0
  8  7  1  0
  9  1  1  0
 10  9  2  0
 11 10  1  0
 12 16  1  0
 12 11  1  0
 13 12  1  0
 14 13  1  0
 14 15  1  0
 15 16  1  0
  2 17  1  0
  2 18  1  0
  3 19  1  0
  5 20  1  0
  7 21  1  0
  9 22  1  0
 10 23  1  0
 11 24  1  0
 11 25  1  0
 12 26  1  1
 13 27  1  0
 13 28  1  0
 14 29  1  0
 14 30  1  0
 16 31  1  0
 16 32  1  0
M  ISO  8  17   8  18   8  19  14  20  14  21  14  24   8  25   8  26  13
M  ISO  6  27  13  28  13  29  13  30  13  31  13  32  13
M  END
>  <minimizedAffinity>  (1) 
-4.71954536

>  <minimizedRMSD>  (1) 
0.56380111

$$$$
