
     RDKit          3D

 31 33  0  0  1  0  0  0  0  0999 V2000
   44.5720   35.6350   44.8670 C   0  0  0  0  0  0  0  0  0  0  0  0
   45.1790   35.6260   43.5870 C   0  0  0  0  0  0  0  0  0  0  0  0
   46.1480   34.6540   43.3450 C   0  0  0  0  0  0  0  0  0  0  0  0
   46.4580   33.7670   44.3530 N   0  0  0  0  0  0  0  0  0  0  0  0
   45.8570   33.8120   45.5520 C   0  0  0  0  0  0  0  0  0  0  0  0
   44.9060   34.7500   45.8200 N   0  0  0  0  0  0  0  0  0  0  0  0
   46.7690   34.6240   42.0740 N   0  0  0  0  0  0  0  0  0  0  0  0
   47.9640   35.2160   41.9370 C   0  0  0  0  0  0  0  0  0  0  0  0
   48.5780   35.1850   40.6820 C   0  0  0  0  0  0  0  0  0  0  0  0
   47.9310   34.5550   39.6580 C   0  0  0  0  0  0  0  0  0  0  0  0
   48.4920   34.5270   38.5070 O   0  0  0  0  0  0  0  0  0  0  0  0
   46.7300   33.9550   39.7780 N   0  0  0  0  0  0  0  0  0  0  0  0
   46.1870   34.0180   41.0190 C   0  0  0  0  0  0  0  0  0  0  0  0
   45.0760   33.4930   41.2380 O   0  0  0  0  0  0  0  0  0  0  0  0
   46.2460   32.8250   46.5820 C   0  0  2  0  0  0  0  0  0  0  0  0
   46.0720   31.4010   46.0980 C   0  0  0  0  0  0  0  0  0  0  0  0
   45.4750   30.7150   47.3070 C   0  0  0  0  0  0  0  0  0  0  0  0
   45.3730   31.6590   48.3030 O   0  0  0  0  0  0  0  0  0  0  0  0
   45.1790   32.8760   47.6620 C   0  0  0  0  0  0  0  0  0  0  0  0
   43.8032   36.3904   45.0870 H   0  0  0  0  0  0  0  0  0  0  0  0
   44.8968   36.3570   42.8150 H   0  0  0  0  0  0  0  0  0  0  0  0
   48.4486   35.7132   42.7902 H   0  0  0  0  0  0  0  0  0  0  0  0
   49.5589   35.6568   40.5230 H   0  0  0  0  0  0  0  0  0  0  0  0
   46.2618   33.4858   38.9896 H   0  0  0  0  0  0  0  0  0  0  0  0
   47.2813   33.0544   46.8745 H   0  0  0  0  0  0  0  0  0  0  0  0
   45.3891   31.3544   45.2369 H   0  0  0  0  0  0  0  0  0  0  0  0
   47.0073   30.9391   45.7490 H   0  0  0  0  0  0  0  0  0  0  0  0
   44.4791   30.3178   47.0611 H   0  0  0  0  0  0  0  0  0  0  0  0
   46.1067   29.8743   47.6298 H   0  0  0  0  0  0  0  0  0  0  0  0
   45.3413   33.7211   48.3472 H   0  0  0  0  0  0  0  0  0  0  0  0
   44.1589   33.0218   47.2771 H   0  0  0  0  0  0  0  0  0  0  0  0
  1  6  2  0
  2  1  1  0
  3  2  2  0
  3  4  1  0
  4  5  2  0
  5  6  1  0
  7  3  1  0
  8  7  1  0
  9  8  2  0
 10 12  1  0
 10  9  1  0
 11 10  2  0
 12 13  1  0
 13 14  2  0
 13  7  1  0
 15  5  1  0
 15 19  1  0
 16 15  1  0
 16 17  1  0
 17 18  1  0
 19 18  1  0
  1 20  1  0
  2 21  1  0
  8 22  1  0
  9 23  1  0
 12 24  1  0
 15 25  1  1
 16 26  1  0
 16 27  1  0
 17 28  1  0
 17 29  1  0
 19 30  1  0
 19 31  1  0
M  ISO  8  20  14  21  14  22  14  23  14  24   9  25  13  26  13  27  13
M  ISO  4  28  13  29  13  30  13  31  13
M  END
>  <minimizedAffinity>  (1) 
-6.04012156

>  <minimizedRMSD>  (1) 
0.633530617

$$$$
