
     RDKit          3D

 47 50  0  0  1  0  0  0  0  0999 V2000
   45.1310   35.5140   43.2280 C   0  0  0  0  0  0  0  0  0  0  0  0
   45.5260   34.1860   43.2930 C   0  0  0  0  0  0  0  0  0  0  0  0
   45.4720   33.5100   44.4860 C   0  0  0  0  0  0  0  0  0  0  0  0
   45.0110   34.2140   45.5820 N   0  0  0  0  0  0  0  0  0  0  0  0
   44.6340   35.4880   45.5140 C   0  0  0  0  0  0  0  0  0  0  0  0
   44.6990   36.1260   44.3270 N   0  0  0  0  0  0  0  0  0  0  0  0
   45.8360   32.1640   44.7180 C   0  0  0  0  0  0  0  0  0  0  0  0
   45.5210   31.1090   43.8560 C   0  0  0  0  0  0  0  0  0  0  0  0
   45.8140   29.7940   44.1100 C   0  0  0  0  0  0  0  0  0  0  0  0
   46.4590   29.4520   45.2760 C   0  0  0  0  0  0  0  0  0  0  0  0
   46.7940   30.5130   46.1730 C   0  0  0  0  0  0  0  0  0  0  0  0
   47.4340   30.1840   47.3320 C   0  0  0  0  0  0  0  0  0  0  0  0
   47.7860   31.1620   48.2390 C   0  0  0  0  0  0  0  0  0  0  0  0
   47.4820   32.5050   47.9570 C   0  0  0  0  0  0  0  0  0  0  0  0
   46.8220   32.7900   46.7490 C   0  0  0  0  0  0  0  0  0  0  0  0
   46.4810   31.7970   45.8700 C   0  0  0  0  0  0  0  0  0  0  0  0
   45.9570   33.6050   42.1310 O   0  0  0  0  0  0  0  0  0  0  0  0
   48.1600   32.4280   41.3450 O   0  0  0  0  0  0  0  0  0  0  0  0
   47.5200   33.7610   41.5000 P   0  0  1  0  0  0  0  0  0  0  0  0
   47.4790   34.4700   39.9610 O   0  0  0  0  0  0  0  0  0  0  0  0
   47.5840   33.3840   39.0670 C   0  0  2  0  0  0  0  0  0  0  0  0
   48.4630   33.7520   37.8850 C   0  0  0  0  0  0  0  0  0  0  0  0
   47.6310   33.2220   36.7250 C   0  0  0  0  0  0  0  0  0  0  0  0
   46.3390   33.4640   37.1590 O   0  0  0  0  0  0  0  0  0  0  0  0
   46.2870   32.9790   38.4580 C   0  0  0  0  0  0  0  0  0  0  0  0
   48.4060   34.7490   42.5260 O   0  0  0  0  0  0  0  0  0  0  0  0
   49.6220   35.3530   42.2520 C   0  0  0  0  0  0  0  0  0  0  0  0
   49.3250   36.4110   41.6660 O   0  0  0  0  0  0  0  0  0  0  0  0
   50.7160   34.5480   42.7330 N   0  0  0  0  0  0  0  0  0  0  0  0
   45.1748   36.0580   42.2729 H   0  0  0  0  0  0  0  0  0  0  0  0
   44.2749   36.0130   46.4115 H   0  0  0  0  0  0  0  0  0  0  0  0
   45.0055   31.3494   42.9145 H   0  0  0  0  0  0  0  0  0  0  0  0
   45.5346   29.0157   43.3846 H   0  0  0  0  0  0  0  0  0  0  0  0
   46.7065   28.4057   45.5082 H   0  0  0  0  0  0  0  0  0  0  0  0
   47.6711   29.1312   47.5449 H   0  0  0  0  0  0  0  0  0  0  0  0
   48.2996   30.8934   49.1739 H   0  0  0  0  0  0  0  0  0  0  0  0
   47.7520   33.3075   48.6592 H   0  0  0  0  0  0  0  0  0  0  0  0
   46.5741   33.8334   46.5045 H   0  0  0  0  0  0  0  0  0  0  0  0
   47.9894   32.5652   39.6795 H   0  0  0  0  0  0  0  0  0  0  0  0
   48.6083   34.8400   37.8134 H   0  0  0  0  0  0  0  0  0  0  0  0
   49.4828   33.3427   37.9346 H   0  0  0  0  0  0  0  0  0  0  0  0
   47.8045   32.1472   36.5678 H   0  0  0  0  0  0  0  0  0  0  0  0
   47.8684   33.6924   35.7594 H   0  0  0  0  0  0  0  0  0  0  0  0
   45.4449   33.4273   39.0057 H   0  0  0  0  0  0  0  0  0  0  0  0
   46.1357   31.8899   38.4890 H   0  0  0  0  0  0  0  0  0  0  0  0
   51.6866   34.8671   42.6023 H   0  0  0  0  0  0  0  0  0  0  0  0
   50.5275   33.6535   43.2076 H   0  0  0  0  0  0  0  0  0  0  0  0
  1  2  2  0
  1  6  1  0
  2  3  1  0
  3  7  1  0
  3  4  2  0
  5  4  1  0
  6  5  2  0
  7 16  2  0
  8  9  2  0
  8  7  1  0
  9 10  1  0
 10 11  2  0
 11 12  1  0
 12 13  2  0
 14 13  1  0
 15 14  2  0
 16 11  1  0
 16 15  1  0
 17  2  1  0
 19 18  2  0
 19 17  1  0
 19 26  1  0
 20 19  1  0
 21 20  1  0
 22 21  1  0
 23 24  1  0
 23 22  1  0
 24 25  1  0
 25 21  1  0
 27 26  1  0
 27 29  1  0
 28 27  2  0
  1 30  1  0
  5 31  1  0
  8 32  1  0
  9 33  1  0
 10 34  1  0
 12 35  1  0
 13 36  1  0
 14 37  1  0
 15 38  1  0
 21 39  1  1
 22 40  1  0
 22 41  1  0
 23 42  1  0
 23 43  1  0
 25 44  1  0
 25 45  1  0
 29 46  1  0
 29 47  1  0
M  ISO  8  30  14  31  14  32  14  33  14  34  14  35  14  36  14  37  14
M  ISO  8  38  14  39  13  40  13  41  13  42  13  43  13  44  13  45  13
M  END
>  <minimizedAffinity>  (1) 
-6.24490213

>  <minimizedRMSD>  (1) 
1.18542862

$$$$
