
     RDKit          3D

 42 45  0  0  1  0  0  0  0  0999 V2000
   48.1920   34.0400   41.9910 C   0  0  0  0  0  0  0  0  0  0  0  0
   48.2970   35.5460   41.9920 C   0  0  0  0  0  0  0  0  0  0  0  0
   49.5030   34.7190   42.0900 C   0  0  0  0  0  0  0  0  0  0  0  0
   47.8310   33.4440   40.6610 C   0  0  0  0  0  0  0  0  0  0  0  0
   48.1390   34.3150   39.4740 C   0  0  0  0  0  0  0  0  0  0  0  0
   47.7980   33.4750   38.2400 C   0  0  0  0  0  0  0  0  0  0  0  0
   46.4200   33.3830   38.1630 O   0  0  0  0  0  0  0  0  0  0  0  0
   46.0250   32.5560   39.2280 C   0  0  0  0  0  0  0  0  0  0  0  0
   46.3030   33.2500   40.5540 C   0  0  0  0  0  0  0  0  0  0  0  0
   46.7150   34.0980   43.9850 C   0  0  0  0  0  0  0  0  0  0  0  0
   47.6230   33.3940   43.2140 C   0  0  0  0  0  0  0  0  0  0  0  0
   47.9890   32.0630   43.6150 C   0  0  0  0  0  0  0  0  0  0  0  0
   47.4030   31.5850   44.7460 N   0  0  0  0  0  0  0  0  0  0  0  0
   46.5330   32.3090   45.4530 C   0  0  0  0  0  0  0  0  0  0  0  0
   46.1810   33.5430   45.0970 N   0  0  0  0  0  0  0  0  0  0  0  0
   45.9580   31.6720   46.6770 C   0  0  2  0  0  0  0  0  0  0  0  0
   45.3660   32.6550   47.6390 C   0  0  0  0  0  0  0  0  0  0  0  0
   45.8720   32.1950   48.9890 C   0  0  0  0  0  0  0  0  0  0  0  0
   46.5350   30.9930   48.7700 O   0  0  0  0  0  0  0  0  0  0  0  0
   47.1020   31.0820   47.5040 C   0  0  0  0  0  0  0  0  0  0  0  0
   48.0911   36.1133   41.0724 H   0  0  0  0  0  0  0  0  0  0  0  0
   47.8575   36.3581   42.5897 H   0  0  0  0  0  0  0  0  0  0  0  0
   50.0651   34.6843   43.0349 H   0  0  0  0  0  0  0  0  0  0  0  0
   50.4427   34.6611   41.5211 H   0  0  0  0  0  0  0  0  0  0  0  0
   48.4239   32.5180   40.6312 H   0  0  0  0  0  0  0  0  0  0  0  0
   47.5243   35.2269   39.4983 H   0  0  0  0  0  0  0  0  0  0  0  0
   49.1918   34.6338   39.4683 H   0  0  0  0  0  0  0  0  0  0  0  0
   48.1924   33.9607   37.3353 H   0  0  0  0  0  0  0  0  0  0  0  0
   48.2477   32.4742   38.3183 H   0  0  0  0  0  0  0  0  0  0  0  0
   44.9487   32.3445   39.1457 H   0  0  0  0  0  0  0  0  0  0  0  0
   46.5933   31.6151   39.1857 H   0  0  0  0  0  0  0  0  0  0  0  0
   45.7971   34.2264   40.5809 H   0  0  0  0  0  0  0  0  0  0  0  0
   45.9278   32.6475   41.3943 H   0  0  0  0  0  0  0  0  0  0  0  0
   46.4250   35.1176   43.6912 H   0  0  0  0  0  0  0  0  0  0  0  0
   48.7062   31.4617   43.0370 H   0  0  0  0  0  0  0  0  0  0  0  0
   45.2058   30.9607   46.3053 H   0  0  0  0  0  0  0  0  0  0  0  0
   45.7125   33.6754   47.4184 H   0  0  0  0  0  0  0  0  0  0  0  0
   44.2678   32.6895   47.5874 H   0  0  0  0  0  0  0  0  0  0  0  0
   46.5633   32.9397   49.4103 H   0  0  0  0  0  0  0  0  0  0  0  0
   45.0453   32.0703   49.7038 H   0  0  0  0  0  0  0  0  0  0  0  0
   47.3956   30.0908   47.1281 H   0  0  0  0  0  0  0  0  0  0  0  0
   48.0231   31.6826   47.4744 H   0  0  0  0  0  0  0  0  0  0  0  0
  1  2  1  0
  1  3  1  0
  1 11  1  0
  2  3  1  0
  4  1  1  0
  5  4  1  0
  6  5  1  0
  7  6  1  0
  7  8  1  0
  8  9  1  0
  9  4  1  0
 10 15  2  0
 11 12  2  0
 11 10  1  0
 12 13  1  0
 13 14  2  0
 15 14  1  0
 16 14  1  0
 16 20  1  0
 16 17  1  0
 17 18  1  0
 19 18  1  0
 20 19  1  0
  2 21  1  0
  2 22  1  0
  3 23  1  0
  3 24  1  0
  4 25  1  0
  5 26  1  0
  5 27  1  0
  6 28  1  0
  6 29  1  0
  8 30  1  0
  8 31  1  0
  9 32  1  0
  9 33  1  0
 10 34  1  0
 12 35  1  0
 16 36  1  6
 17 37  1  0
 17 38  1  0
 18 39  1  0
 18 40  1  0
 20 41  1  0
 20 42  1  0
M  ISO  8  21  13  22  13  23  13  24  13  25  13  26  13  27  13  28  13
M  ISO  8  29  13  30  13  31  13  32  13  33  13  34  14  35  14  36  13
M  ISO  6  37  13  38  13  39  13  40  13  41  13  42  13
M  END
>  <minimizedAffinity>  (1) 
-5.05474758

>  <minimizedRMSD>  (1) 
2.55046177

$$$$
