
     RDKit          3D

 29 31  0  0  1  0  0  0  0  0999 V2000
   46.1570   32.8060   44.0290 C   0  0  0  0  0  0  0  0  0  0  0  0
   46.9570   31.8610   43.4510 C   0  0  0  0  0  0  0  0  0  0  0  0
   47.6670   30.9210   44.1590 C   0  0  0  0  0  0  0  0  0  0  0  0
   47.5410   30.9700   45.5080 N   0  0  0  0  0  0  0  0  0  0  0  0
   46.7540   31.9000   46.0820 C   0  0  0  0  0  0  0  0  0  0  0  0
   46.0490   32.8310   45.3970 N   0  0  0  0  0  0  0  0  0  0  0  0
   44.2000   35.7720   43.1610 C   0  0  0  0  0  0  0  0  0  0  0  0
   44.0480   35.6240   41.7750 C   0  0  0  0  0  0  0  0  0  0  0  0
   44.6100   34.5130   41.1280 C   0  0  0  0  0  0  0  0  0  0  0  0
   45.2980   33.6050   41.8990 N   0  0  0  0  0  0  0  0  0  0  0  0
   45.4250   33.7790   43.2290 C   0  0  0  0  0  0  0  0  0  0  0  0
   44.8890   34.8430   43.8550 N   0  0  0  0  0  0  0  0  0  0  0  0
   46.6420   31.9200   47.5640 C   0  0  1  0  0  0  0  0  0  0  0  0
   45.2270   32.1600   48.0470 C   0  0  0  0  0  0  0  0  0  0  0  0
   45.2730   31.5010   49.4110 C   0  0  0  0  0  0  0  0  0  0  0  0
   46.4750   30.8330   49.5220 O   0  0  0  0  0  0  0  0  0  0  0  0
   46.9310   30.5890   48.2120 C   0  0  0  0  0  0  0  0  0  0  0  0
   47.0375   31.8521   42.3540 H   0  0  0  0  0  0  0  0  0  0  0  0
   48.3005   30.1727   43.6603 H   0  0  0  0  0  0  0  0  0  0  0  0
   43.7612   36.6382   43.6779 H   0  0  0  0  0  0  0  0  0  0  0  0
   43.4904   36.3758   41.1972 H   0  0  0  0  0  0  0  0  0  0  0  0
   44.5041   34.3730   40.0421 H   0  0  0  0  0  0  0  0  0  0  0  0
   47.3582   32.7112   47.8306 H   0  0  0  0  0  0  0  0  0  0  0  0
   45.0030   33.2342   48.1244 H   0  0  0  0  0  0  0  0  0  0  0  0
   44.4464   31.7670   47.3790 H   0  0  0  0  0  0  0  0  0  0  0  0
   45.1971   32.2660   50.1978 H   0  0  0  0  0  0  0  0  0  0  0  0
   44.4339   30.7988   49.5243 H   0  0  0  0  0  0  0  0  0  0  0  0
   46.3692   29.7740   47.7323 H   0  0  0  0  0  0  0  0  0  0  0  0
   47.9807   30.2670   48.1461 H   0  0  0  0  0  0  0  0  0  0  0  0
  1  6  1  0
  2  1  2  0
  2  3  1  0
  3  4  2  0
  4  5  1  0
  6  5  2  0
  7 12  2  0
  8  7  1  0
  9  8  2  0
  9 10  1  0
 10 11  2  0
 11 12  1  0
 11  1  1  0
 13  5  1  0
 13 14  1  0
 13 17  1  0
 14 15  1  0
 15 16  1  0
 17 16  1  0
  2 18  1  0
  3 19  1  0
  7 20  1  0
  8 21  1  0
  9 22  1  0
 13 23  1  1
 14 24  1  0
 14 25  1  0
 15 26  1  0
 15 27  1  0
 17 28  1  0
 17 29  1  0
M  ISO  8  18  14  19  14  20  14  21  14  22  14  23  13  24  13  25  13
M  ISO  4  26  13  27  13  28  13  29  13
M  END
>  <minimizedAffinity>  (1) 
-4.2111063

>  <minimizedRMSD>  (1) 
2.75640225

$$$$
