
     RDKit          3D

 48 50  0  0  1  0  0  0  0  0999 V2000
   46.9320   35.1270   42.4570 C   0  0  0  0  0  0  0  0  0  0  0  0
   45.5450   34.6750   42.1950 C   0  0  0  0  0  0  0  0  0  0  0  0
   44.4890   35.6140   42.1630 C   0  0  0  0  0  0  0  0  0  0  0  0
   43.0190   34.5960   41.8150 S   0  0  0  0  0  0  0  0  0  0  0  0
   44.0960   33.0060   41.7630 C   0  0  0  0  0  0  0  0  0  0  0  0
   45.1300   33.4560   41.9740 N   0  0  0  0  0  0  0  0  0  0  0  0
   43.5770   31.7410   41.5220 O   0  0  0  0  0  0  0  0  0  0  0  0
   41.5330   30.3280   40.6020 O   0  0  0  0  0  0  0  0  0  0  0  0
   41.9020   31.6060   41.3430 P   0  0  1  0  0  0  0  0  0  0  0  0
   41.2260   31.5060   42.9110 O   0  0  0  0  0  0  0  0  0  0  0  0
   41.2740   32.9880   40.5840 O   0  0  0  0  0  0  0  0  0  0  0  0
   40.1940   32.6930   39.7780 C   0  0  1  0  0  0  0  0  0  0  0  0
   38.9460   32.9650   40.5930 C   0  0  0  0  0  0  0  0  0  0  0  0
   38.1690   33.8850   39.6620 C   0  0  0  0  0  0  0  0  0  0  0  0
   39.1700   34.6750   39.1260 O   0  0  0  0  0  0  0  0  0  0  0  0
   40.1190   33.7490   38.6950 C   0  0  0  0  0  0  0  0  0  0  0  0
   47.8370   35.0150   41.2650 C   0  0  0  0  0  0  0  0  0  0  0  0
   48.9660   34.0950   41.4600 C   0  0  0  0  0  0  0  0  0  0  0  0
   48.9810   32.9510   40.6850 C   0  0  0  0  0  0  0  0  0  0  0  0
   50.0060   32.0330   40.8040 C   0  0  0  0  0  0  0  0  0  0  0  0
   50.9990   32.3050   41.7210 N   0  0  0  0  0  0  0  0  0  0  0  0
   50.9440   33.4460   42.4650 C   0  0  0  0  0  0  0  0  0  0  0  0
   49.9480   34.3050   42.3260 N   0  0  0  0  0  0  0  0  0  0  0  0
   47.6590   32.6530   39.5090 S   0  0  0  0  0  0  0  0  0  0  0  0
   48.3380   32.4260   37.8530 C   0  0  0  0  0  0  0  0  0  0  0  0
   48.2880   33.7430   37.1180 C   0  0  0  0  0  0  0  0  0  0  0  0
   48.0050   33.4880   35.7360 N   0  0  0  0  0  0  0  0  0  0  0  0
   46.9006   36.1806   42.7717 H   0  0  0  0  0  0  0  0  0  0  0  0
   47.3433   34.4689   43.2366 H   0  0  0  0  0  0  0  0  0  0  0  0
   44.5423   36.7024   42.3129 H   0  0  0  0  0  0  0  0  0  0  0  0
   41.9420   31.6119   43.5864 H   0  0  0  0  0  0  0  0  0  0  0  0
   40.2791   31.6655   39.3945 H   0  0  0  0  0  0  0  0  0  0  0  0
   38.3901   32.0382   40.7978 H   0  0  0  0  0  0  0  0  0  0  0  0
   39.1440   33.3954   41.5857 H   0  0  0  0  0  0  0  0  0  0  0  0
   37.6502   33.3132   38.8785 H   0  0  0  0  0  0  0  0  0  0  0  0
   37.3785   34.4585   40.1681 H   0  0  0  0  0  0  0  0  0  0  0  0
   39.8069   33.2974   37.7418 H   0  0  0  0  0  0  0  0  0  0  0  0
   41.0971   34.2233   38.5264 H   0  0  0  0  0  0  0  0  0  0  0  0
   48.2389   36.0139   41.0400 H   0  0  0  0  0  0  0  0  0  0  0  0
   47.2319   34.6084   40.4413 H   0  0  0  0  0  0  0  0  0  0  0  0
   50.0292   31.1201   40.1908 H   0  0  0  0  0  0  0  0  0  0  0  0
   51.7414   33.6558   43.1931 H   0  0  0  0  0  0  0  0  0  0  0  0
   49.3807   32.0832   37.9255 H   0  0  0  0  0  0  0  0  0  0  0  0
   47.7482   31.6736   37.3089 H   0  0  0  0  0  0  0  0  0  0  0  0
   47.4975   34.3764   37.5469 H   0  0  0  0  0  0  0  0  0  0  0  0
   49.2532   34.2620   37.2132 H   0  0  0  0  0  0  0  0  0  0  0  0
   47.2417   32.8002   35.6631 H   0  0  0  0  0  0  0  0  0  0  0  0
   47.7220   34.3650   35.2760 H   0  0  0  0  0  0  0  0  0  0  0  0
  2  1  1  0
  3  2  2  0
  4  3  1  0
  5  4  1  0
  5  6  2  0
  6  2  1  0
  7  5  1  0
  9  8  2  0
  9  7  1  0
  9 10  1  0
 11  9  1  0
 12 11  1  0
 12 13  1  0
 14 13  1  0
 15 14  1  0
 16 15  1  0
 16 12  1  0
 17 18  1  0
 17  1  1  0
 18 23  2  0
 19 20  2  0
 19 18  1  0
 20 21  1  0
 21 22  2  0
 23 22  1  0
 24 19  1  0
 25 24  1  0
 26 25  1  0
 27 26  1  0
  1 28  1  0
  1 29  1  0
  3 30  1  0
 10 31  1  0
 12 32  1  6
 13 33  1  0
 13 34  1  0
 14 35  1  0
 14 36  1  0
 16 37  1  0
 16 38  1  0
 17 39  1  0
 17 40  1  0
 20 41  1  0
 22 42  1  0
 25 43  1  0
 25 44  1  0
 26 45  1  0
 26 46  1  0
 27 47  1  0
 27 48  1  0
M  ISO  8  28   8  29   8  30  14  31   3  32  13  33  13  34  13  35  13
M  ISO  8  36  13  37  13  38  13  39   8  40   8  41  14  42  14  43   8
M  ISO  5  44   8  45   8  46   8  47   5  48   5
M  END
>  <minimizedAffinity>  (1) 
-4.76083136

>  <minimizedRMSD>  (1) 
2.89453936

$$$$
