
     RDKit          3D

 27 28  0  0  1  0  0  0  0  0999 V2000
   46.3750   35.1890   42.5960 C   0  0  0  0  0  0  0  0  0  0  0  0
   46.8870   34.0890   43.3200 C   0  0  0  0  0  0  0  0  0  0  0  0
   46.3150   33.7950   44.5790 C   0  0  0  0  0  0  0  0  0  0  0  0
   45.3070   34.5740   45.0320 N   0  0  0  0  0  0  0  0  0  0  0  0
   44.8510   35.6200   44.2960 C   0  0  0  0  0  0  0  0  0  0  0  0
   45.3660   35.9370   43.0940 N   0  0  0  0  0  0  0  0  0  0  0  0
   46.8770   32.6310   45.3140 C   0  0  2  0  0  0  0  0  0  0  0  0
   46.0840   31.3650   45.0480 C   0  0  0  0  0  0  0  0  0  0  0  0
   46.3790   30.5930   46.3180 C   0  0  0  0  0  0  0  0  0  0  0  0
   46.2460   31.5620   47.2890 O   0  0  0  0  0  0  0  0  0  0  0  0
   46.7180   32.7500   46.7980 C   0  0  0  0  0  0  0  0  0  0  0  0
   47.9150   33.3820   42.7390 O   0  0  0  0  0  0  0  0  0  0  0  0
   50.4100   33.1790   41.8810 O   0  0  0  0  0  0  0  0  0  0  0  0
   49.3400   34.1660   42.1840 P   0  0  0  0  0  0  0  0  0  0  0  0
   49.0160   35.0330   40.7650 O   0  0  0  0  0  0  0  0  0  0  0  0
   49.9040   35.2420   43.3540 O   0  0  0  0  0  0  0  0  0  0  0  0
   46.8033   35.4396   41.6143 H   0  0  0  0  0  0  0  0  0  0  0  0
   44.0295   36.2314   44.6976 H   0  0  0  0  0  0  0  0  0  0  0  0
   47.9245   32.6019   44.9794 H   0  0  0  0  0  0  0  0  0  0  0  0
   45.0095   31.5728   44.9377 H   0  0  0  0  0  0  0  0  0  0  0  0
   46.3485   30.8415   44.1174 H   0  0  0  0  0  0  0  0  0  0  0  0
   45.6547   29.7785   46.4663 H   0  0  0  0  0  0  0  0  0  0  0  0
   47.3640   30.1033   46.3168 H   0  0  0  0  0  0  0  0  0  0  0  0
   47.6913   32.9788   47.2567 H   0  0  0  0  0  0  0  0  0  0  0  0
   46.0107   33.5588   47.0339 H   0  0  0  0  0  0  0  0  0  0  0  0
   48.6792   35.9342   40.9985 H   0  0  0  0  0  0  0  0  0  0  0  0
   49.7138   34.8791   44.2552 H   0  0  0  0  0  0  0  0  0  0  0  0
  1  6  2  0
  1  2  1  0
  2  3  2  0
  3  4  1  0
  5  4  2  0
  6  5  1  0
  7  3  1  0
  7 11  1  0
  8  7  1  0
  8  9  1  0
  9 10  1  0
 11 10  1  0
 12  2  1  0
 13 14  2  0
 14 12  1  0
 14 16  1  0
 15 14  1  0
  1 17  1  0
  5 18  1  0
  7 19  1  1
  8 20  1  0
  8 21  1  0
  9 22  1  0
  9 23  1  0
 11 24  1  0
 11 25  1  0
 15 26  1  0
 16 27  1  0
M  ISO  8  17  14  18  14  19  13  20  13  21  13  22  13  23  13  24  13
M  ISO  3  25  13  26   3  27   3
M  END
>  <minimizedAffinity>  (1) 
-5.11622524

>  <minimizedRMSD>  (1) 
1.1252048

$$$$
