
     RDKit          3D

 41 43  0  0  1  0  0  0  0  0999 V2000
   45.5730   35.6840   43.3790 C   0  0  0  0  0  0  0  0  0  0  0  0
   46.2770   34.4660   43.5970 C   0  0  0  0  0  0  0  0  0  0  0  0
   46.0500   33.7800   44.7730 C   0  0  0  0  0  0  0  0  0  0  0  0
   45.1600   34.3030   45.6720 N   0  0  0  0  0  0  0  0  0  0  0  0
   44.5020   35.4560   45.4500 C   0  0  0  0  0  0  0  0  0  0  0  0
   44.7080   36.1360   44.3170 N   0  0  0  0  0  0  0  0  0  0  0  0
   47.1610   34.0710   42.5650 N   0  0  0  0  0  0  0  0  0  0  0  0
   48.6140   34.1130   42.7110 C   0  0  0  0  0  0  0  0  0  0  0  0
   49.2470   33.5010   41.4890 C   0  0  0  0  0  0  0  0  0  0  0  0
   48.7790   34.0780   40.2680 N   0  0  0  0  0  0  0  0  0  0  0  0
   47.3590   34.1460   40.1390 C   0  0  0  0  0  0  0  0  0  0  0  0
   46.5920   33.6060   41.3130 C   0  0  0  0  0  0  0  0  0  0  0  0
   46.7500   32.5960   44.9630 O   0  0  0  0  0  0  0  0  0  0  0  0
   47.9640   30.8920   46.5800 O   0  0  0  0  0  0  0  0  0  0  0  0
   46.8890   31.9690   46.5600 P   0  0  1  0  0  0  0  0  0  0  0  0
   47.2870   33.2410   47.5720 O   0  0  0  0  0  0  0  0  0  0  0  0
   45.3960   31.2730   46.9670 O   0  0  0  0  0  0  0  0  0  0  0  0
   45.5180   29.9030   47.0150 C   0  0  1  0  0  0  0  0  0  0  0  0
   45.0750   29.3400   48.3730 C   0  0  0  0  0  0  0  0  0  0  0  0
   44.9900   27.8680   47.9490 C   0  0  0  0  0  0  0  0  0  0  0  0
   44.4880   27.8760   46.6600 O   0  0  0  0  0  0  0  0  0  0  0  0
   44.5720   29.1440   46.1360 C   0  0  0  0  0  0  0  0  0  0  0  0
   45.7312   36.2553   42.4524 H   0  0  0  0  0  0  0  0  0  0  0  0
   43.7948   35.8390   46.2005 H   0  0  0  0  0  0  0  0  0  0  0  0
   48.9444   35.1572   42.8139 H   0  0  0  0  0  0  0  0  0  0  0  0
   48.9141   33.5497   43.6069 H   0  0  0  0  0  0  0  0  0  0  0  0
   50.3359   33.6444   41.5495 H   0  0  0  0  0  0  0  0  0  0  0  0
   48.9726   32.4358   41.4754 H   0  0  0  0  0  0  0  0  0  0  0  0
   49.1521   35.0359   40.2035 H   0  0  0  0  0  0  0  0  0  0  0  0
   47.0781   35.2008   40.0029 H   0  0  0  0  0  0  0  0  0  0  0  0
   47.0959   33.5118   39.2796 H   0  0  0  0  0  0  0  0  0  0  0  0
   45.5471   33.9430   41.2457 H   0  0  0  0  0  0  0  0  0  0  0  0
   46.6450   32.5075   41.2907 H   0  0  0  0  0  0  0  0  0  0  0  0
   47.1969   32.9531   48.5149 H   0  0  0  0  0  0  0  0  0  0  0  0
   46.5753   29.7751   46.7396 H   0  0  0  0  0  0  0  0  0  0  0  0
   45.8229   29.5078   49.1619 H   0  0  0  0  0  0  0  0  0  0  0  0
   44.1673   29.7776   48.8140 H   0  0  0  0  0  0  0  0  0  0  0  0
   45.9878   27.4054   47.9687 H   0  0  0  0  0  0  0  0  0  0  0  0
   44.3502   27.2868   48.6293 H   0  0  0  0  0  0  0  0  0  0  0  0
   44.9573   29.1054   45.1064 H   0  0  0  0  0  0  0  0  0  0  0  0
   43.5846   29.6275   46.1016 H   0  0  0  0  0  0  0  0  0  0  0  0
  1  2  2  0
  1  6  1  0
  2  3  1  0
  3 13  1  0
  3  4  2  0
  5  4  1  0
  6  5  2  0
  7  8  1  0
  7  2  1  0
  9  8  1  0
 10  9  1  0
 11 10  1  0
 11 12  1  0
 12  7  1  0
 13 15  1  0
 15 14  2  0
 15 17  1  0
 15 16  1  0
 18 17  1  0
 18 19  1  0
 20 19  1  0
 21 20  1  0
 22 21  1  0
 22 18  1  0
  1 23  1  0
  5 24  1  0
  8 25  1  0
  8 26  1  0
  9 27  1  0
  9 28  1  0
 10 29  1  0
 11 30  1  0
 11 31  1  0
 12 32  1  0
 12 33  1  0
 16 34  1  0
 18 35  1  6
 19 36  1  0
 19 37  1  0
 20 38  1  0
 20 39  1  0
 22 40  1  0
 22 41  1  0
M  ISO  8  23  14  24  14  25  13  26  13  27  13  28  13  29   5  30  13
M  ISO  8  31  13  32  13  33  13  34   3  35  13  36  13  37  13  38  13
M  ISO  3  39  13  40  13  41  13
M  END
>  <minimizedAffinity>  (1) 
-5.37540197

>  <minimizedRMSD>  (1) 
2.71670008

$$$$
