
     RDKit          3D

 37 39  0  0  0  0  0  0  0  0999 V2000
   40.7210   35.6810   39.6040 C   0  0  0  0  0  0  0  0  0  0  0  0
   43.8440   34.7700   41.5280 C   0  0  0  0  0  0  0  0  0  0  0  0
   42.6070   35.3720   41.1990 C   0  0  0  0  0  0  0  0  0  0  0  0
   42.0210   35.0730   39.9760 C   0  0  0  0  0  0  0  0  0  0  0  0
   42.6920   34.1990   39.1590 N   0  0  0  0  0  0  0  0  0  0  0  0
   43.8790   33.6470   39.5230 C   0  0  0  0  0  0  0  0  0  0  0  0
   44.4480   33.9290   40.6920 N   0  0  0  0  0  0  0  0  0  0  0  0
   44.4630   35.1050   42.8350 C   0  0  0  0  0  0  0  0  0  0  0  0
   46.0040   35.3360   42.7160 C   0  0  0  0  0  0  0  0  0  0  0  0
   45.0470   36.3560   43.1570 C   0  0  0  0  0  0  0  0  0  0  0  0
   39.6520   35.3090   40.5980 C   0  0  0  0  0  0  0  0  0  0  0  0
   39.2600   32.9140   40.9190 C   0  0  0  0  0  0  0  0  0  0  0  0
   40.1110   32.7770   41.8350 O   0  0  0  0  0  0  0  0  0  0  0  0
   38.9420   34.1000   40.2180 N   0  0  0  0  0  0  0  0  0  0  0  0
   39.9970   32.1160   38.1870 Cl  0  0  0  0  0  0  0  0  0  0  0  0
   38.8680   31.2900   39.2590 C   0  0  0  0  0  0  0  0  0  0  0  0
   38.5270   31.6820   40.5570 C   0  0  0  0  0  0  0  0  0  0  0  0
   37.6420   30.9620   41.2890 C   0  0  0  0  0  0  0  0  0  0  0  0
   37.0750   29.8290   40.7370 C   0  0  0  0  0  0  0  0  0  0  0  0
   37.3760   29.3940   39.4560 C   0  0  0  0  0  0  0  0  0  0  0  0
   38.2900   30.1450   38.7130 C   0  0  0  0  0  0  0  0  0  0  0  0
   38.6590   29.5760   37.0880 Cl  0  0  0  0  0  0  0  0  0  0  0  0
   40.8280   36.7756   39.5823 H   0  0  0  0  0  0  0  0  0  0  0  0
   40.4269   35.3050   38.6130 H   0  0  0  0  0  0  0  0  0  0  0  0
   42.1178   36.0648   41.8995 H   0  0  0  0  0  0  0  0  0  0  0  0
   44.3811   32.9508   38.8351 H   0  0  0  0  0  0  0  0  0  0  0  0
   43.7256   34.5003   43.3833 H   0  0  0  0  0  0  0  0  0  0  0  0
   46.6984   34.8709   43.4312 H   0  0  0  0  0  0  0  0  0  0  0  0
   46.7714   35.2408   41.9336 H   0  0  0  0  0  0  0  0  0  0  0  0
   44.8502   37.2205   42.5059 H   0  0  0  0  0  0  0  0  0  0  0  0
   44.9976   36.9906   44.0541 H   0  0  0  0  0  0  0  0  0  0  0  0
   40.1220   35.1494   41.5797 H   0  0  0  0  0  0  0  0  0  0  0  0
   38.9222   36.1314   40.6307 H   0  0  0  0  0  0  0  0  0  0  0  0
   38.2356   34.1065   39.4684 H   0  0  0  0  0  0  0  0  0  0  0  0
   37.3784   31.2757   42.3098 H   0  0  0  0  0  0  0  0  0  0  0  0
   36.3574   29.2504   41.3372 H   0  0  0  0  0  0  0  0  0  0  0  0
   36.9112   28.4886   39.0387 H   0  0  0  0  0  0  0  0  0  0  0  0
  1  4  1  0
  1 11  1  0
  2  8  1  0
  3  2  2  0
  4  3  1  0
  5  6  1  0
  5  4  2  0
  6  7  2  0
  7  2  1  0
  8 10  1  0
  9  8  1  0
  9 10  1  0
 12 13  2  0
 14 11  1  0
 14 12  1  0
 15 16  1  0
 16 17  2  0
 17 12  1  0
 17 18  1  0
 19 18  2  0
 20 19  1  0
 21 16  1  0
 21 20  2  0
 22 21  1  0
  1 23  1  0
  1 24  1  0
  3 25  1  0
  6 26  1  0
  8 27  1  0
  9 28  1  0
  9 29  1  0
 10 30  1  0
 10 31  1  0
 11 32  1  0
 11 33  1  0
 14 34  1  0
 18 35  1  0
 19 36  1  0
 20 37  1  0
M  ISO  8  23   8  24   8  25  14  26  14  27  13  28  13  29  13  30  13
M  ISO  6  31  13  32   8  33   8  35  14  36  14  37  14
M  END
>  <minimizedAffinity>  (1) 
-5.38939619

>  <minimizedRMSD>  (1) 
0.717614949

$$$$
