
     RDKit          3D

 38 40  0  0  1  0  0  0  0  0999 V2000
   44.4960   35.8080   44.5210 C   0  0  0  0  0  0  0  0  0  0  0  0
   44.9780   35.7960   43.1970 C   0  0  0  0  0  0  0  0  0  0  0  0
   45.9790   34.8720   42.9040 C   0  0  0  0  0  0  0  0  0  0  0  0
   46.4290   34.0520   43.8690 N   0  0  0  0  0  0  0  0  0  0  0  0
   45.9550   34.0790   45.1200 C   0  0  0  0  0  0  0  0  0  0  0  0
   44.9800   34.9650   45.4470 N   0  0  0  0  0  0  0  0  0  0  0  0
   45.3490   32.7470   47.1580 C   0  0  1  0  0  0  0  0  0  0  0  0
   46.4190   33.2120   46.2160 C   0  0  1  0  0  0  0  0  0  0  0  0
   46.8290   31.8340   45.6390 C   0  0  0  0  0  0  0  0  0  0  0  0
   46.6490   30.9240   46.6340 O   0  0  0  0  0  0  0  0  0  0  0  0
   46.0650   31.5330   47.7390 C   0  0  0  0  0  0  0  0  0  0  0  0
   44.9520   33.6700   48.0780 O   0  0  0  0  0  0  0  0  0  0  0  0
   46.4470   34.8690   41.5990 O   0  0  0  0  0  0  0  0  0  0  0  0
   48.3730   34.3670   39.8300 O   0  0  0  0  0  0  0  0  0  0  0  0
   48.1330   34.7210   41.2980 P   0  0  1  0  0  0  0  0  0  0  0  0
   48.8550   36.1700   41.6970 O   0  0  0  0  0  0  0  0  0  0  0  0
   48.6790   33.4440   42.2590 O   0  0  0  0  0  0  0  0  0  0  0  0
   47.0980   31.0370   41.8760 Cl  0  0  0  0  0  0  0  0  0  0  0  0
   48.8340   31.2400   41.6650 C   0  0  0  0  0  0  0  0  0  0  0  0
   49.5310   32.4330   41.8690 C   0  0  0  0  0  0  0  0  0  0  0  0
   50.8960   32.4640   41.6700 C   0  0  0  0  0  0  0  0  0  0  0  0
   51.5940   31.3620   41.2790 C   0  0  0  0  0  0  0  0  0  0  0  0
   50.8700   30.2020   41.0890 C   0  0  0  0  0  0  0  0  0  0  0  0
   49.5100   30.0860   41.2640 C   0  0  0  0  0  0  0  0  0  0  0  0
   48.6950   28.5610   40.9930 Cl  0  0  0  0  0  0  0  0  0  0  0  0
   43.7077   36.5221   44.8014 H   0  0  0  0  0  0  0  0  0  0  0  0
   44.5837   36.4819   42.4328 H   0  0  0  0  0  0  0  0  0  0  0  0
   44.3754   32.5382   46.6905 H   0  0  0  0  0  0  0  0  0  0  0  0
   47.1876   33.8265   46.7075 H   0  0  0  0  0  0  0  0  0  0  0  0
   46.1964   31.5813   44.7753 H   0  0  0  0  0  0  0  0  0  0  0  0
   47.8742   31.8438   45.2963 H   0  0  0  0  0  0  0  0  0  0  0  0
   46.8312   31.8419   48.4653 H   0  0  0  0  0  0  0  0  0  0  0  0
   45.3843   30.8605   48.2816 H   0  0  0  0  0  0  0  0  0  0  0  0
   45.1049   33.3145   48.9892 H   0  0  0  0  0  0  0  0  0  0  0  0
   48.8983   36.2569   42.6822 H   0  0  0  0  0  0  0  0  0  0  0  0
   51.4371   33.4079   41.8322 H   0  0  0  0  0  0  0  0  0  0  0  0
   52.6823   31.3946   41.1221 H   0  0  0  0  0  0  0  0  0  0  0  0
   51.4213   29.3036   40.7743 H   0  0  0  0  0  0  0  0  0  0  0  0
  1  6  2  0
  2  1  1  0
  3  2  2  0
  3  4  1  0
  4  5  2  0
  5  6  1  0
  5  8  1  0
  7 11  1  0
  7 12  1  0
  8  7  1  0
  9  8  1  0
  9 10  1  0
 10 11  1  0
 13  3  1  0
 15 14  2  0
 15 13  1  0
 15 16  1  0
 15 17  1  0
 19 20  2  0
 19 18  1  0
 20 17  1  0
 21 20  1  0
 22 21  2  0
 23 24  2  0
 23 22  1  0
 24 19  1  0
 25 24  1  0
  1 26  1  0
  2 27  1  0
  7 28  1  6
  8 29  1  1
  9 30  1  0
  9 31  1  0
 11 32  1  0
 11 33  1  0
 12 34  1  0
 16 35  1  0
 21 36  1  0
 22 37  1  0
 23 38  1  0
M  ISO  8  26  14  27  14  28  13  29  13  30  13  31  13  32  13  33  13
M  ISO  5  34   3  35   3  36  14  37  14  38  14
M  END
>  <minimizedAffinity>  (1) 
-5.74600792

>  <minimizedRMSD>  (1) 
2.09275699

$$$$
