
     RDKit          3D

 43 46  0  0  1  0  0  0  0  0999 V2000
   49.0120   31.9630   43.1180 O   0  0  0  0  0  0  0  0  0  0  0  0
   50.1870   32.2730   42.2030 P   0  0  2  0  0  0  0  0  0  0  0  0
   51.5840   31.5520   42.7080 O   0  0  0  0  0  0  0  0  0  0  0  0
   50.2560   33.9570   42.0430 O   0  0  0  0  0  0  0  0  0  0  0  0
   48.0280   34.4750   41.1260 C   0  0  1  0  0  0  0  0  0  0  0  0
   48.7510   35.7590   41.6980 C   0  0  0  0  0  0  0  0  0  0  0  0
   48.9820   34.4490   42.2610 C   0  0  2  0  0  0  0  0  0  0  0  0
   46.5610   34.5070   41.3920 C   0  0  0  0  0  0  0  0  0  0  0  0
   45.8100   34.2730   40.4580 O   0  0  0  0  0  0  0  0  0  0  0  0
   45.3590   35.9350   42.9890 C   0  0  0  0  0  0  0  0  0  0  0  0
   45.9690   34.7870   42.6550 C   0  0  0  0  0  0  0  0  0  0  0  0
   46.0130   33.7790   43.6760 C   0  0  0  0  0  0  0  0  0  0  0  0
   45.4670   33.9950   44.8940 N   0  0  0  0  0  0  0  0  0  0  0  0
   44.8630   35.1850   45.1620 C   0  0  0  0  0  0  0  0  0  0  0  0
   44.8160   36.1170   44.2370 N   0  0  0  0  0  0  0  0  0  0  0  0
   49.6800   31.6470   40.6610 O   0  0  0  0  0  0  0  0  0  0  0  0
   50.5180   31.4890   39.5890 C   0  0  0  0  0  0  0  0  0  0  0  0
   50.2930   31.8140   38.2500 C   0  0  0  0  0  0  0  0  0  0  0  0
   51.2690   31.5760   37.3090 C   0  0  0  0  0  0  0  0  0  0  0  0
   52.4420   31.0270   37.6960 N   0  0  0  0  0  0  0  0  0  0  0  0
   52.6690   30.7080   38.9920 C   0  0  0  0  0  0  0  0  0  0  0  0
   51.7180   30.9330   39.9510 N   0  0  0  0  0  0  0  0  0  0  0  0
   54.6810   30.5710   36.7990 Cl  0  0  0  0  0  0  0  0  0  0  0  0
   54.9490   30.0020   38.4320 C   0  0  0  0  0  0  0  0  0  0  0  0
   53.9560   30.1180   39.3490 C   0  0  0  0  0  0  0  0  0  0  0  0
   54.2590   29.6420   40.6070 C   0  0  0  0  0  0  0  0  0  0  0  0
   55.4640   29.0840   40.9600 C   0  0  0  0  0  0  0  0  0  0  0  0
   56.4610   28.9840   39.9860 C   0  0  0  0  0  0  0  0  0  0  0  0
   56.1800   29.4510   38.7230 C   0  0  0  0  0  0  0  0  0  0  0  0
   57.4150   29.3430   37.4610 Cl  0  0  0  0  0  0  0  0  0  0  0  0
   51.6095   31.5388   43.6976 H   0  0  0  0  0  0  0  0  0  0  0  0
   47.9447   33.8936   40.1960 H   0  0  0  0  0  0  0  0  0  0  0  0
   49.5385   36.2579   41.1140 H   0  0  0  0  0  0  0  0  0  0  0  0
   48.4280   36.7362   42.0863 H   0  0  0  0  0  0  0  0  0  0  0  0
   48.8916   34.0132   43.2669 H   0  0  0  0  0  0  0  0  0  0  0  0
   45.2928   36.7458   42.2486 H   0  0  0  0  0  0  0  0  0  0  0  0
   46.4988   32.8151   43.4641 H   0  0  0  0  0  0  0  0  0  0  0  0
   44.4154   35.3660   46.1504 H   0  0  0  0  0  0  0  0  0  0  0  0
   49.3347   32.2608   37.9467 H   0  0  0  0  0  0  0  0  0  0  0  0
   51.0961   31.8300   36.2528 H   0  0  0  0  0  0  0  0  0  0  0  0
   53.4818   29.7140   41.3821 H   0  0  0  0  0  0  0  0  0  0  0  0
   55.6396   28.7246   41.9847 H   0  0  0  0  0  0  0  0  0  0  0  0
   57.4415   28.5449   40.2223 H   0  0  0  0  0  0  0  0  0  0  0  0
  2  3  1  0
  2  1  2  0
  4  2  1  0
  4  7  1  0
  5  8  1  0
  5  6  1  0
  5  7  1  0
  6  7  1  0
  8 11  1  0
  9  8  2  0
 10 15  2  0
 11 10  1  0
 11 12  2  0
 12 13  1  0
 13 14  2  0
 15 14  1  0
 16  2  1  0
 17 22  1  0
 17 16  1  0
 18 17  2  0
 19 20  2  0
 19 18  1  0
 20 21  1  0
 21 25  1  0
 21 22  2  0
 23 24  1  0
 24 29  2  0
 24 25  1  0
 25 26  2  0
 26 27  1  0
 28 27  2  0
 29 28  1  0
 30 29  1  0
  3 31  1  0
  5 32  1  6
  6 33  1  0
  6 34  1  0
  7 35  1  1
 10 36  1  0
 12 37  1  0
 14 38  1  0
 18 39  1  0
 19 40  1  0
 26 41  1  0
 27 42  1  0
 28 43  1  0
M  ISO  8  31   3  32  13  33  13  34  13  35  13  36  14  37  14  38  14
M  ISO  5  39  14  40  14  41  14  42  14  43  14
M  END
>  <minimizedAffinity>  (1) 
-5.46909904

>  <minimizedRMSD>  (1) 
0.856769145

$$$$
