
     RDKit          3D

 47 49  0  0  0  0  0  0  0  0999 V2000
   46.7580   35.0180   41.9820 C   0  0  0  0  0  0  0  0  0  0  0  0
   45.3260   34.6650   42.0020 C   0  0  0  0  0  0  0  0  0  0  0  0
   44.3360   35.6830   41.8970 C   0  0  0  0  0  0  0  0  0  0  0  0
   42.7630   34.7680   41.9680 S   0  0  0  0  0  0  0  0  0  0  0  0
   43.7140   33.1080   42.1350 C   0  0  0  0  0  0  0  0  0  0  0  0
   44.7920   33.4760   42.1100 N   0  0  0  0  0  0  0  0  0  0  0  0
   43.0790   31.8780   42.2460 O   0  0  0  0  0  0  0  0  0  0  0  0
   41.0880   30.2590   41.6490 O   0  0  0  0  0  0  0  0  0  0  0  0
   41.5720   31.7060   41.4590 P   0  0  1  0  0  0  0  0  0  0  0  0
   40.4830   32.7390   42.2430 O   0  0  0  0  0  0  0  0  0  0  0  0
   41.7240   32.1290   39.8490 O   0  0  0  0  0  0  0  0  0  0  0  0
   42.9500   34.6160   38.5600 Cl  0  0  0  0  0  0  0  0  0  0  0  0
   41.2660   34.1600   38.4260 C   0  0  0  0  0  0  0  0  0  0  0  0
   40.9770   32.9950   39.1030 C   0  0  0  0  0  0  0  0  0  0  0  0
   39.6510   32.5430   39.0570 C   0  0  0  0  0  0  0  0  0  0  0  0
   38.6660   33.2460   38.3560 C   0  0  0  0  0  0  0  0  0  0  0  0
   38.9870   34.4090   37.6890 C   0  0  0  0  0  0  0  0  0  0  0  0
   40.2920   34.8490   37.7370 C   0  0  0  0  0  0  0  0  0  0  0  0
   40.8460   36.3020   36.9430 Cl  0  0  0  0  0  0  0  0  0  0  0  0
   47.5160   34.4750   40.8050 C   0  0  0  0  0  0  0  0  0  0  0  0
   48.7660   33.8030   41.1600 C   0  0  0  0  0  0  0  0  0  0  0  0
   49.0930   32.6620   40.4390 C   0  0  0  0  0  0  0  0  0  0  0  0
   50.2510   31.9570   40.6990 C   0  0  0  0  0  0  0  0  0  0  0  0
   51.0610   32.4520   41.7120 N   0  0  0  0  0  0  0  0  0  0  0  0
   50.7010   33.5730   42.3920 C   0  0  0  0  0  0  0  0  0  0  0  0
   49.5750   34.2380   42.1220 N   0  0  0  0  0  0  0  0  0  0  0  0
   47.9970   32.0890   39.1480 S   0  0  0  0  0  0  0  0  0  0  0  0
   48.7960   32.2290   37.5400 C   0  0  0  0  0  0  0  0  0  0  0  0
   48.4800   33.5800   36.9560 C   0  0  0  0  0  0  0  0  0  0  0  0
   48.0380   33.4070   35.6090 N   0  0  0  0  0  0  0  0  0  0  0  0
   46.8415   36.1147   41.9683 H   0  0  0  0  0  0  0  0  0  0  0  0
   47.2050   34.5642   42.8788 H   0  0  0  0  0  0  0  0  0  0  0  0
   44.4861   36.7681   41.7965 H   0  0  0  0  0  0  0  0  0  0  0  0
   40.5843   32.6429   43.2231 H   0  0  0  0  0  0  0  0  0  0  0  0
   39.3795   31.6160   39.5833 H   0  0  0  0  0  0  0  0  0  0  0  0
   37.6324   32.8700   38.3368 H   0  0  0  0  0  0  0  0  0  0  0  0
   38.2218   34.9708   37.1333 H   0  0  0  0  0  0  0  0  0  0  0  0
   47.7524   35.3111   40.1304 H   0  0  0  0  0  0  0  0  0  0  0  0
   46.8714   33.7188   40.3332 H   0  0  0  0  0  0  0  0  0  0  0  0
   50.5176   31.0517   40.1339 H   0  0  0  0  0  0  0  0  0  0  0  0
   51.3593   33.9445   43.1912 H   0  0  0  0  0  0  0  0  0  0  0  0
   49.8845   32.1228   37.6578 H   0  0  0  0  0  0  0  0  0  0  0  0
   48.4283   31.4376   36.8703 H   0  0  0  0  0  0  0  0  0  0  0  0
   47.6867   34.0617   37.5465 H   0  0  0  0  0  0  0  0  0  0  0  0
   49.3778   34.2152   36.9762 H   0  0  0  0  0  0  0  0  0  0  0  0
   47.0789   33.0316   35.6079 H   0  0  0  0  0  0  0  0  0  0  0  0
   48.0517   34.3155   35.1238 H   0  0  0  0  0  0  0  0  0  0  0  0
  1  2  1  0
  2  6  1  0
  3  4  1  0
  3  2  2  0
  4  5  1  0
  5  7  1  0
  6  5  2  0
  9  8  2  0
  9 10  1  0
  9  7  1  0
 11  9  1  0
 13 12  1  0
 13 14  2  0
 14 11  1  0
 15 14  1  0
 16 15  2  0
 17 18  2  0
 17 16  1  0
 18 13  1  0
 19 18  1  0
 20 21  1  0
 20  1  1  0
 21 26  2  0
 22 23  2  0
 22 21  1  0
 23 24  1  0
 24 25  2  0
 26 25  1  0
 27 22  1  0
 28 27  1  0
 29 28  1  0
 30 29  1  0
  1 31  1  0
  1 32  1  0
  3 33  1  0
 10 34  1  0
 15 35  1  0
 16 36  1  0
 17 37  1  0
 20 38  1  0
 20 39  1  0
 23 40  1  0
 25 41  1  0
 28 42  1  0
 28 43  1  0
 29 44  1  0
 29 45  1  0
 30 46  1  0
 30 47  1  0
M  ISO  8  31   8  32   8  33  14  34   3  35  14  36  14  37  14  38   8
M  ISO  8  39   8  40  14  41  14  42   8  43   8  44   8  45   8  46   5
M  ISO  1  47   5
M  END
>  <minimizedAffinity>  (1) 
-5.53645182

>  <minimizedRMSD>  (1) 
3.15329242

$$$$
