
     RDKit          3D

 43 47  0  0  0  0  0  0  0  0999 V2000
   45.9800   33.3000   41.6410 C   0  0  0  0  0  0  0  0  0  0  0  0
   47.1810   33.9700   41.3570 C   0  0  0  0  0  0  0  0  0  0  0  0
   48.1450   33.9870   42.3470 C   0  0  0  0  0  0  0  0  0  0  0  0
   47.8570   33.3560   43.5210 N   0  0  0  0  0  0  0  0  0  0  0  0
   46.7070   32.7220   43.7770 C   0  0  0  0  0  0  0  0  0  0  0  0
   45.7580   32.6920   42.8320 N   0  0  0  0  0  0  0  0  0  0  0  0
   46.6970   30.7370   45.2200 C   0  0  0  0  0  0  0  0  0  0  0  0
   46.5080   32.0840   45.0630 C   0  0  0  0  0  0  0  0  0  0  0  0
   46.1140   32.9240   46.1250 C   0  0  0  0  0  0  0  0  0  0  0  0
   45.9020   32.3900   47.3910 C   0  0  0  0  0  0  0  0  0  0  0  0
   45.5340   32.8570   48.6070 N   0  0  0  0  0  0  0  0  0  0  0  0
   45.5060   31.8000   49.4740 C   0  0  0  0  0  0  0  0  0  0  0  0
   45.8540   30.7070   48.7820 N   0  0  0  0  0  0  0  0  0  0  0  0
   46.1030   31.0360   47.5050 C   0  0  0  0  0  0  0  0  0  0  0  0
   46.4900   30.1820   46.4820 C   0  0  0  0  0  0  0  0  0  0  0  0
   49.4330   34.6800   42.1020 C   0  0  0  0  0  0  0  0  0  0  0  0
   49.2430   35.7980   41.2790 F   0  0  0  0  0  0  0  0  0  0  0  0
   49.9510   35.1600   43.2790 F   0  0  0  0  0  0  0  0  0  0  0  0
   50.2880   33.7960   41.4890 F   0  0  0  0  0  0  0  0  0  0  0  0
   47.3370   34.5570   40.1430 O   0  0  0  0  0  0  0  0  0  0  0  0
   47.3580   33.8420   38.9720 C   0  0  0  0  0  0  0  0  0  0  0  0
   48.4280   34.3960   38.2820 C   0  0  0  0  0  0  0  0  0  0  0  0
   48.4600   33.4340   36.7060 S   0  0  0  0  0  0  0  0  0  0  0  0
   46.9850   32.4290   37.2740 C   0  0  0  0  0  0  0  0  0  0  0  0
   46.8300   32.9030   38.2550 N   0  0  0  0  0  0  0  0  0  0  0  0
   44.0730   32.4410   37.4730 Cl  0  0  0  0  0  0  0  0  0  0  0  0
   44.9810   31.2940   36.5170 C   0  0  0  0  0  0  0  0  0  0  0  0
   46.3560   31.3360   36.4610 C   0  0  0  0  0  0  0  0  0  0  0  0
   47.1810   30.5090   35.7610 C   0  0  0  0  0  0  0  0  0  0  0  0
   46.5890   29.5090   35.0170 C   0  0  0  0  0  0  0  0  0  0  0  0
   45.2040   29.4040   35.0260 C   0  0  0  0  0  0  0  0  0  0  0  0
   44.4190   30.2850   35.7650 C   0  0  0  0  0  0  0  0  0  0  0  0
   42.6730   30.1820   35.7980 Cl  0  0  0  0  0  0  0  0  0  0  0  0
   45.1940   33.2675   40.8721 H   0  0  0  0  0  0  0  0  0  0  0  0
   47.0046   30.1083   44.3714 H   0  0  0  0  0  0  0  0  0  0  0  0
   45.9745   34.0013   45.9518 H   0  0  0  0  0  0  0  0  0  0  0  0
   45.3138   33.8362   48.8385 H   0  0  0  0  0  0  0  0  0  0  0  0
   45.2459   31.8398   50.5421 H   0  0  0  0  0  0  0  0  0  0  0  0
   46.6285   29.1055   46.6605 H   0  0  0  0  0  0  0  0  0  0  0  0
   49.0955   35.2112   38.5979 H   0  0  0  0  0  0  0  0  0  0  0  0
   48.2737   30.6330   35.7876 H   0  0  0  0  0  0  0  0  0  0  0  0
   47.2012   28.8094   34.4289 H   0  0  0  0  0  0  0  0  0  0  0  0
   44.7187   28.6106   34.4387 H   0  0  0  0  0  0  0  0  0  0  0  0
  1  6  2  0
  2  1  1  0
  2  3  2  0
  3  4  1  0
  4  5  2  0
  5  8  1  0
  6  5  1  0
  7 15  2  0
  8  7  1  0
  8  9  2  0
  9 10  1  0
 10 14  2  0
 10 11  1  0
 11 12  1  0
 13 12  2  0
 14 13  1  0
 15 14  1  0
 16  3  1  0
 16 18  1  0
 17 16  1  0
 19 16  1  0
 20  2  1  0
 21 20  1  0
 22 21  2  0
 23 24  1  0
 23 22  1  0
 24 25  2  0
 25 21  1  0
 27 26  1  0
 28 27  2  0
 28 24  1  0
 29 28  1  0
 30 31  1  0
 30 29  2  0
 31 32  2  0
 32 33  1  0
 32 27  1  0
  1 34  1  0
  7 35  1  0
  9 36  1  0
 11 37  1  0
 12 38  1  0
 15 39  1  0
 22 40  1  0
 29 41  1  0
 30 42  1  0
 31 43  1  0
M  ISO  8  34  14  35  14  36  14  37   9  38  14  39  14  40  14  41  14
M  ISO  2  42  14  43  14
M  END
>  <minimizedAffinity>  (1) 
-6.50442934

>  <minimizedRMSD>  (1) 
0.646840811

$$$$
