
     RDKit          3D

 33 36  0  0  0  0  0  0  0  0999 V2000
   47.1210   31.3280   45.1680 C   0  0  0  0  0  0  0  0  0  0  0  0
   46.8170   32.6850   45.1830 C   0  0  0  0  0  0  0  0  0  0  0  0
   46.2640   33.3220   46.2940 C   0  0  0  0  0  0  0  0  0  0  0  0
   46.0020   32.5770   47.4420 C   0  0  0  0  0  0  0  0  0  0  0  0
   45.4830   32.8510   48.6750 N   0  0  0  0  0  0  0  0  0  0  0  0
   45.4680   31.7010   49.3990 C   0  0  0  0  0  0  0  0  0  0  0  0
   45.9810   30.7220   48.5970 N   0  0  0  0  0  0  0  0  0  0  0  0
   46.3100   31.2410   47.4050 C   0  0  0  0  0  0  0  0  0  0  0  0
   46.8520   30.5910   46.3270 C   0  0  0  0  0  0  0  0  0  0  0  0
   44.4870   28.9080   45.8010 Cl  0  0  0  0  0  0  0  0  0  0  0  0
   46.1240   28.2940   46.0670 C   0  0  0  0  0  0  0  0  0  0  0  0
   47.1740   29.1660   46.3070 C   0  0  0  0  0  0  0  0  0  0  0  0
   48.4450   28.6700   46.5120 C   0  0  0  0  0  0  0  0  0  0  0  0
   48.6070   27.3080   46.4660 C   0  0  0  0  0  0  0  0  0  0  0  0
   47.5940   26.4000   46.2300 C   0  0  0  0  0  0  0  0  0  0  0  0
   46.3350   26.9450   46.0310 C   0  0  0  0  0  0  0  0  0  0  0  0
   45.0350   25.7990   45.7300 Cl  0  0  0  0  0  0  0  0  0  0  0  0
   46.4450   35.1840   42.5150 C   0  0  0  0  0  0  0  0  0  0  0  0
   47.6130   34.9980   41.7650 C   0  0  0  0  0  0  0  0  0  0  0  0
   48.5210   34.0150   42.1790 C   0  0  0  0  0  0  0  0  0  0  0  0
   48.2160   33.2870   43.3000 N   0  0  0  0  0  0  0  0  0  0  0  0
   47.0760   33.4920   44.0050 C   0  0  0  0  0  0  0  0  0  0  0  0
   46.2140   34.4280   43.6090 N   0  0  0  0  0  0  0  0  0  0  0  0
   47.5570   30.8513   44.2777 H   0  0  0  0  0  0  0  0  0  0  0  0
   46.0378   34.3981   46.2642 H   0  0  0  0  0  0  0  0  0  0  0  0
   45.1582   33.7725   49.0009 H   0  0  0  0  0  0  0  0  0  0  0  0
   45.1111   31.5817   50.4326 H   0  0  0  0  0  0  0  0  0  0  0  0
   49.2956   29.3403   46.7049 H   0  0  0  0  0  0  0  0  0  0  0  0
   49.6194   26.9100   46.6293 H   0  0  0  0  0  0  0  0  0  0  0  0
   47.7742   25.3152   46.2017 H   0  0  0  0  0  0  0  0  0  0  0  0
   45.7141   35.9481   42.2118 H   0  0  0  0  0  0  0  0  0  0  0  0
   47.8125   35.6091   40.8724 H   0  0  0  0  0  0  0  0  0  0  0  0
   49.4513   33.8325   41.6211 H   0  0  0  0  0  0  0  0  0  0  0  0
  1  2  2  0
  1  9  1  0
  2  3  1  0
  3  4  2  0
  4  5  1  0
  5  6  1  0
  7  6  2  0
  8  4  1  0
  8  7  1  0
  9  8  2  0
 10 11  1  0
 11 12  2  0
 12  9  1  0
 12 13  1  0
 14 13  2  0
 15 14  1  0
 16 11  1  0
 16 15  2  0
 17 16  1  0
 18 23  2  0
 19 20  2  0
 19 18  1  0
 20 21  1  0
 21 22  2  0
 22  2  1  0
 23 22  1  0
  1 24  1  0
  3 25  1  0
  5 26  1  0
  6 27  1  0
 13 28  1  0
 14 29  1  0
 15 30  1  0
 18 31  1  0
 19 32  1  0
 20 33  1  0
M  ISO  8  24  14  25  14  26   9  27  14  28  14  29  14  30  14  31  14
M  ISO  2  32  14  33  14
M  END
>  <minimizedAffinity>  (1) 
-5.4902935

>  <minimizedRMSD>  (1) 
1.18215811

$$$$
