
     RDKit          3D

 45 48  0  0  1  0  0  0  0  0999 V2000
   44.5630   35.5580   44.6010 C   0  0  0  0  0  0  0  0  0  0  0  0
   45.2380   35.6080   43.3630 C   0  0  0  0  0  0  0  0  0  0  0  0
   46.3420   34.7280   43.1900 C   0  0  0  0  0  0  0  0  0  0  0  0
   46.6810   33.8990   44.2120 N   0  0  0  0  0  0  0  0  0  0  0  0
   46.0050   33.8900   45.3730 C   0  0  0  0  0  0  0  0  0  0  0  0
   44.9430   34.7170   45.5760 N   0  0  0  0  0  0  0  0  0  0  0  0
   46.4290   32.9620   46.4560 C   0  0  2  0  0  0  0  0  0  0  0  0
   46.9490   31.7330   45.7610 C   0  0  0  0  0  0  0  0  0  0  0  0
   46.0710   30.5530   45.7850 C   0  0  0  0  0  0  0  0  0  0  0  0
   45.7780   30.2920   47.2570 C   0  0  0  0  0  0  0  0  0  0  0  0
   45.0010   31.3700   47.8620 C   0  0  0  0  0  0  0  0  0  0  0  0
   45.3720   32.7390   47.4180 C   0  0  0  0  0  0  0  0  0  0  0  0
   44.6910   33.8660   47.9320 N   0  0  0  0  0  0  0  0  0  0  0  0
   47.0600   34.7480   41.9290 C   0  0  0  0  0  0  0  0  0  0  0  0
   48.2160   35.4540   41.8560 C   0  0  0  0  0  0  0  0  0  0  0  0
   48.8840   35.4500   40.6210 C   0  0  0  0  0  0  0  0  0  0  0  0
   48.2910   34.7260   39.6100 C   0  0  0  0  0  0  0  0  0  0  0  0
   47.1360   34.0210   39.6830 C   0  0  0  0  0  0  0  0  0  0  0  0
   46.5230   34.0560   40.9050 N   0  0  0  0  0  0  0  0  0  0  0  0
   48.7810   33.8940   37.2320 Cl  0  0  0  0  0  0  0  0  0  0  0  0
   47.1980   33.1320   37.4040 C   0  0  0  0  0  0  0  0  0  0  0  0
   46.5430   33.2770   38.6110 C   0  0  0  0  0  0  0  0  0  0  0  0
   45.3070   32.6750   38.7250 C   0  0  0  0  0  0  0  0  0  0  0  0
   44.7180   31.9460   37.6890 C   0  0  0  0  0  0  0  0  0  0  0  0
   45.4080   31.8290   36.5040 C   0  0  0  0  0  0  0  0  0  0  0  0
   46.6270   32.4130   36.3660 C   0  0  0  0  0  0  0  0  0  0  0  0
   47.5350   32.2830   34.8650 Cl  0  0  0  0  0  0  0  0  0  0  0  0
   43.7045   36.2243   44.7714 H   0  0  0  0  0  0  0  0  0  0  0  0
   44.9240   36.2979   42.5659 H   0  0  0  0  0  0  0  0  0  0  0  0
   47.2309   33.3776   47.0839 H   0  0  0  0  0  0  0  0  0  0  0  0
   47.8995   31.4539   46.2391 H   0  0  0  0  0  0  0  0  0  0  0  0
   47.0400   32.0107   44.7005 H   0  0  0  0  0  0  0  0  0  0  0  0
   45.1387   30.7566   45.2379 H   0  0  0  0  0  0  0  0  0  0  0  0
   46.5428   29.6840   45.3030 H   0  0  0  0  0  0  0  0  0  0  0  0
   45.2109   29.3536   47.3448 H   0  0  0  0  0  0  0  0  0  0  0  0
   46.7395   30.2285   47.7876 H   0  0  0  0  0  0  0  0  0  0  0  0
   44.2002   31.1827   48.5925 H   0  0  0  0  0  0  0  0  0  0  0  0
   43.9334   33.7410   48.6186 H   0  0  0  0  0  0  0  0  0  0  0  0
   44.9523   34.8122   47.6200 H   0  0  0  0  0  0  0  0  0  0  0  0
   48.6113   36.0035   42.7231 H   0  0  0  0  0  0  0  0  0  0  0  0
   49.8277   35.9943   40.4692 H   0  0  0  0  0  0  0  0  0  0  0  0
   48.8103   34.7195   38.6403 H   0  0  0  0  0  0  0  0  0  0  0  0
   44.7605   32.7734   39.6746 H   0  0  0  0  0  0  0  0  0  0  0  0
   43.7305   31.4786   37.8168 H   0  0  0  0  0  0  0  0  0  0  0  0
   44.9723   31.2623   35.6680 H   0  0  0  0  0  0  0  0  0  0  0  0
  1  6  2  0
  2  1  1  0
  3  2  2  0
  3  4  1  0
  4  5  2  0
  5  6  1  0
  5  7  1  0
  7 12  1  0
  8  9  1  0
  8  7  1  0
  9 10  1  0
 10 11  1  0
 12 11  2  0
 12 13  1  0
 14  3  1  0
 15 14  2  0
 16 15  1  0
 17 18  1  0
 17 16  2  0
 18 19  2  0
 19 14  1  0
 20 21  1  0
 21 22  2  0
 22 23  1  0
 22 18  1  0
 24 23  2  0
 25 24  1  0
 26 25  2  0
 26 21  1  0
 27 26  1  0
  1 28  1  0
  2 29  1  0
  7 30  1  1
  8 31  1  0
  8 32  1  0
  9 33  1  0
  9 34  1  0
 10 35  1  0
 10 36  1  0
 11 37  1  0
 13 38  1  0
 13 39  1  0
 15 40  1  0
 16 41  1  0
 17 42  1  0
 23 43  1  0
 24 44  1  0
 25 45  1  0
M  END
>  <minimizedAffinity>  (1) 
-7.83757973

>  <minimizedRMSD>  (1) 
0.284892648

$$$$
