
     RDKit          3D

 38 40  0  0  1  0  0  0  0  0999 V2000
   43.9080   35.1620   40.9130 C   0  0  1  0  0  0  0  0  0  0  0  0
   43.8610   36.0720   42.1560 C   0  0  0  0  0  0  0  0  0  0  0  0
   44.8960   35.9310   43.1820 C   0  0  0  0  0  0  0  0  0  0  0  0
   45.9180   34.8240   42.8800 C   0  0  0  0  0  0  0  0  0  0  0  0
   45.0230   33.6570   42.5270 C   0  0  0  0  0  0  0  0  0  0  0  0
   44.6490   33.9180   41.0590 C   0  0  2  0  0  0  0  0  0  0  0  0
   44.4510   31.9220   38.7190 Cl  0  0  0  0  0  0  0  0  0  0  0  0
   45.8780   32.8340   39.1640 C   0  0  0  0  0  0  0  0  0  0  0  0
   45.8510   33.7140   40.2170 C   0  0  0  0  0  0  0  0  0  0  0  0
   47.0740   34.3240   40.4030 C   0  0  0  0  0  0  0  0  0  0  0  0
   48.2170   34.1210   39.6610 C   0  0  0  0  0  0  0  0  0  0  0  0
   48.1590   33.2250   38.6250 C   0  0  0  0  0  0  0  0  0  0  0  0
   46.9740   32.5700   38.3700 C   0  0  0  0  0  0  0  0  0  0  0  0
   46.9730   31.4470   37.0390 Cl  0  0  0  0  0  0  0  0  0  0  0  0
   41.4780   34.8620   41.5280 C   0  0  0  0  0  0  0  0  0  0  0  0
   42.4610   35.0210   40.5350 C   0  0  0  0  0  0  0  0  0  0  0  0
   42.0520   34.9110   39.2030 C   0  0  0  0  0  0  0  0  0  0  0  0
   40.7540   34.6560   38.9110 N   0  0  0  0  0  0  0  0  0  0  0  0
   39.8470   34.5070   39.9200 C   0  0  0  0  0  0  0  0  0  0  0  0
   40.2230   34.6140   41.2180 N   0  0  0  0  0  0  0  0  0  0  0  0
   38.4900   34.1920   39.6690 N   0  0  0  0  0  0  0  0  0  0  0  0
   43.0150   35.0950   38.1940 N   0  0  0  0  0  0  0  0  0  0  0  0
   44.5068   35.6047   40.1034 H   0  0  0  0  0  0  0  0  0  0  0  0
   43.0604   36.8176   42.2708 H   0  0  0  0  0  0  0  0  0  0  0  0
   44.9380   36.5587   44.0844 H   0  0  0  0  0  0  0  0  0  0  0  0
   46.5674   35.0992   42.0359 H   0  0  0  0  0  0  0  0  0  0  0  0
   46.6075   34.6181   43.7120 H   0  0  0  0  0  0  0  0  0  0  0  0
   45.5616   32.7036   42.6313 H   0  0  0  0  0  0  0  0  0  0  0  0
   44.1443   33.5787   43.1841 H   0  0  0  0  0  0  0  0  0  0  0  0
   43.9210   33.1874   40.6767 H   0  0  0  0  0  0  0  0  0  0  0  0
   47.1440   35.0471   41.2289 H   0  0  0  0  0  0  0  0  0  0  0  0
   49.1470   34.6609   39.8926 H   0  0  0  0  0  0  0  0  0  0  0  0
   49.0470   33.0315   38.0054 H   0  0  0  0  0  0  0  0  0  0  0  0
   41.7641   34.9467   42.5868 H   0  0  0  0  0  0  0  0  0  0  0  0
   37.8320   34.0867   40.4544 H   0  0  0  0  0  0  0  0  0  0  0  0
   38.1606   34.0681   38.7010 H   0  0  0  0  0  0  0  0  0  0  0  0
   42.7436   35.0201   37.2032 H   0  0  0  0  0  0  0  0  0  0  0  0
   43.9914   35.3046   38.4461 H   0  0  0  0  0  0  0  0  0  0  0  0
  1  6  1  0
  1  2  1  0
  2  3  2  0
  4  3  1  0
  5  4  1  0
  6  5  1  0
  7  8  1  0
  8  9  2  0
  9 10  1  0
  9  6  1  0
 11 10  2  0
 12 11  1  0
 13 12  2  0
 13  8  1  0
 14 13  1  0
 16  1  1  0
 16 15  2  0
 17 16  1  0
 18 17  2  0
 18 19  1  0
 19 20  2  0
 20 15  1  0
 21 19  1  0
 22 17  1  0
  1 23  1  6
  2 24  1  0
  3 25  1  0
  4 26  1  0
  4 27  1  0
  5 28  1  0
  5 29  1  0
  6 30  1  6
 10 31  1  0
 11 32  1  0
 12 33  1  0
 15 34  1  0
 21 35  1  0
 21 36  1  0
 22 37  1  0
 22 38  1  0
M  ISO  8  23  13  24  13  25  13  26  13  27  13  28  13  29  13  30  13
M  ISO  4  31  14  32  14  33  14  34  14
M  END
>  <minimizedAffinity>  (1) 
-5.91544485

>  <minimizedRMSD>  (1) 
6.25735617

$$$$
