
     RDKit          3D

 41 44  0  0  0  0  0  0  0  0999 V2000
   47.9450   33.7360   43.0740 C   0  0  0  0  0  0  0  0  0  0  0  0
   48.2790   33.4630   41.7480 C   0  0  0  0  0  0  0  0  0  0  0  0
   47.4340   33.9450   40.7780 C   0  0  0  0  0  0  0  0  0  0  0  0
   46.3270   34.6540   41.1380 N   0  0  0  0  0  0  0  0  0  0  0  0
   46.0450   34.8910   42.4360 C   0  0  0  0  0  0  0  0  0  0  0  0
   46.8550   34.4330   43.4100 N   0  0  0  0  0  0  0  0  0  0  0  0
   46.1060   31.5000   39.6450 Cl  0  0  0  0  0  0  0  0  0  0  0  0
   47.0820   32.6540   38.7620 C   0  0  0  0  0  0  0  0  0  0  0  0
   47.6480   33.7540   39.3750 C   0  0  0  0  0  0  0  0  0  0  0  0
   48.3610   34.5130   38.4840 C   0  0  0  0  0  0  0  0  0  0  0  0
   48.5340   34.2740   37.1410 C   0  0  0  0  0  0  0  0  0  0  0  0
   47.9490   33.1660   36.5870 C   0  0  0  0  0  0  0  0  0  0  0  0
   47.2150   32.3490   37.4110 C   0  0  0  0  0  0  0  0  0  0  0  0
   46.4810   30.9450   36.6740 Cl  0  0  0  0  0  0  0  0  0  0  0  0
   44.8320   35.6680   42.7950 C   0  0  0  0  0  0  0  0  0  0  0  0
   43.6480   35.2310   41.9860 C   0  0  0  0  0  0  0  0  0  0  0  0
   43.2830   35.8080   40.7940 C   0  0  0  0  0  0  0  0  0  0  0  0
   42.1660   35.1740   40.3230 C   0  0  0  0  0  0  0  0  0  0  0  0
   41.8830   34.2000   41.2800 C   0  0  0  0  0  0  0  0  0  0  0  0
   42.7780   34.3020   42.1950 O   0  0  0  0  0  0  0  0  0  0  0  0
   40.7670   33.2620   41.2140 C   0  0  0  0  0  0  0  0  0  0  0  0
   40.9110   31.9840   41.6810 C   0  0  0  0  0  0  0  0  0  0  0  0
   39.8860   31.0440   41.6460 C   0  0  0  0  0  0  0  0  0  0  0  0
   38.6930   31.5330   41.0880 C   0  0  0  0  0  0  0  0  0  0  0  0
   38.5280   32.8070   40.6150 C   0  0  0  0  0  0  0  0  0  0  0  0
   39.5880   33.6280   40.7000 N   0  0  0  0  0  0  0  0  0  0  0  0
   49.4420   32.7330   41.5030 N   0  0  0  0  0  0  0  0  0  0  0  0
   48.6029   33.3640   43.8732 H   0  0  0  0  0  0  0  0  0  0  0  0
   48.8486   35.4126   38.8878 H   0  0  0  0  0  0  0  0  0  0  0  0
   49.1314   34.9601   36.5226 H   0  0  0  0  0  0  0  0  0  0  0  0
   48.0636   32.9383   35.5169 H   0  0  0  0  0  0  0  0  0  0  0  0
   44.6124   35.5173   43.8623 H   0  0  0  0  0  0  0  0  0  0  0  0
   45.0244   36.7304   42.5843 H   0  0  0  0  0  0  0  0  0  0  0  0
   43.8029   36.6420   40.2999 H   0  0  0  0  0  0  0  0  0  0  0  0
   41.6138   35.3855   39.3955 H   0  0  0  0  0  0  0  0  0  0  0  0
   41.8819   31.6861   42.1036 H   0  0  0  0  0  0  0  0  0  0  0  0
   39.9989   30.0156   42.0197 H   0  0  0  0  0  0  0  0  0  0  0  0
   37.8352   30.8471   41.0272 H   0  0  0  0  0  0  0  0  0  0  0  0
   37.5725   33.1427   40.1856 H   0  0  0  0  0  0  0  0  0  0  0  0
   49.7182   32.5138   40.5352 H   0  0  0  0  0  0  0  0  0  0  0  0
   50.0247   32.4132   42.2898 H   0  0  0  0  0  0  0  0  0  0  0  0
  1  6  2  0
  2  1  1  0
  3  4  1  0
  3  2  2  0
  4  5  2  0
  5 15  1  0
  5  6  1  0
  8  9  2  0
  8  7  1  0
  9  3  1  0
 10  9  1  0
 11 10  2  0
 12 11  1  0
 12 13  2  0
 13  8  1  0
 14 13  1  0
 16 20  1  0
 16 15  1  0
 17 16  2  0
 18 17  1  0
 18 19  2  0
 19 20  1  0
 21 19  1  0
 21 22  2  0
 23 22  1  0
 24 23  2  0
 25 26  2  0
 25 24  1  0
 26 21  1  0
 27  2  1  0
  1 28  1  0
 10 29  1  0
 11 30  1  0
 12 31  1  0
 15 32  1  0
 15 33  1  0
 17 34  1  0
 18 35  1  0
 22 36  1  0
 23 37  1  0
 24 38  1  0
 25 39  1  0
 27 40  1  0
 27 41  1  0
M  ISO  8  28  14  29  14  30  14  31  14  32   8  33   8  34  14  35  14
M  ISO  4  36  14  37  14  38  14  39  14
M  END
>  <minimizedAffinity>  (1) 
-5.85036469

>  <minimizedRMSD>  (1) 
4.51415586

$$$$
