
     RDKit          3D

 48 51  0  0  1  0  0  0  0  0999 V2000
   45.6930   35.4810   43.3890 C   0  0  1  0  0  0  0  0  0  0  0  0
   44.5730   34.9020   43.9880 C   0  0  0  0  0  0  0  0  0  0  0  0
   45.8480   34.6040   44.6650 C   0  0  1  0  0  0  0  0  0  0  0  0
   45.6460   34.2030   41.2390 C   0  0  0  0  0  0  0  0  0  0  0  0
   46.4010   34.9940   42.1630 C   0  0  0  0  0  0  0  0  0  0  0  0
   47.7060   35.2730   41.9120 C   0  0  0  0  0  0  0  0  0  0  0  0
   48.2330   34.7610   40.7520 N   0  0  0  0  0  0  0  0  0  0  0  0
   47.5230   34.0150   39.8780 C   0  0  0  0  0  0  0  0  0  0  0  0
   46.1980   33.7150   40.1040 N   0  0  0  0  0  0  0  0  0  0  0  0
   49.1870   31.5440   40.2730 Cl  0  0  0  0  0  0  0  0  0  0  0  0
   48.9230   32.3710   38.7350 C   0  0  0  0  0  0  0  0  0  0  0  0
   48.1410   33.5000   38.6610 C   0  0  0  0  0  0  0  0  0  0  0  0
   47.9570   34.1180   37.4460 C   0  0  0  0  0  0  0  0  0  0  0  0
   48.5950   33.5360   36.3600 C   0  0  0  0  0  0  0  0  0  0  0  0
   49.3850   32.4130   36.3710 C   0  0  0  0  0  0  0  0  0  0  0  0
   49.5420   31.8240   37.6160 C   0  0  0  0  0  0  0  0  0  0  0  0
   50.5340   30.3800   37.7490 Cl  0  0  0  0  0  0  0  0  0  0  0  0
   46.4640   33.2600   44.5480 C   0  0  0  0  0  0  0  0  0  0  0  0
   45.8950   32.4450   45.5600 N   0  0  0  0  0  0  0  0  0  0  0  0
   45.9100   32.9170   46.8800 C   0  0  0  0  0  0  0  0  0  0  0  0
   47.1800   32.4650   47.6300 C   0  0  0  0  0  0  0  0  0  0  0  0
   47.0710   30.9740   47.7880 C   0  0  0  0  0  0  0  0  0  0  0  0
   47.0280   30.3990   46.3870 C   0  0  0  0  0  0  0  0  0  0  0  0
   46.0250   31.0520   45.4750 C   0  0  2  0  0  0  0  0  0  0  0  0
   46.3570   30.5980   44.0620 C   0  0  0  0  0  0  0  0  0  0  0  0
   45.8747   36.5112   43.0490 H   0  0  0  0  0  0  0  0  0  0  0  0
   43.8408   35.5512   44.4904 H   0  0  0  0  0  0  0  0  0  0  0  0
   43.7704   34.2588   43.5979 H   0  0  0  0  0  0  0  0  0  0  0  0
   46.2585   34.7090   45.6801 H   0  0  0  0  0  0  0  0  0  0  0  0
   44.5899   33.9863   41.4573 H   0  0  0  0  0  0  0  0  0  0  0  0
   48.3105   35.8787   42.6031 H   0  0  0  0  0  0  0  0  0  0  0  0
   47.3392   35.0221   37.3413 H   0  0  0  0  0  0  0  0  0  0  0  0
   48.4527   34.0268   35.3859 H   0  0  0  0  0  0  0  0  0  0  0  0
   49.8569   32.0117   35.4620 H   0  0  0  0  0  0  0  0  0  0  0  0
   46.2506   32.8332   43.5569 H   0  0  0  0  0  0  0  0  0  0  0  0
   47.5560   33.3208   44.6655 H   0  0  0  0  0  0  0  0  0  0  0  0
   45.8756   34.0164   46.8665 H   0  0  0  0  0  0  0  0  0  0  0  0
   45.0355   32.5031   47.4035 H   0  0  0  0  0  0  0  0  0  0  0  0
   48.0773   32.7214   47.0477 H   0  0  0  0  0  0  0  0  0  0  0  0
   47.2658   32.9645   48.6063 H   0  0  0  0  0  0  0  0  0  0  0  0
   47.9434   30.5841   48.3329 H   0  0  0  0  0  0  0  0  0  0  0  0
   46.1736   30.6976   48.3609 H   0  0  0  0  0  0  0  0  0  0  0  0
   48.0258   30.5129   45.9381 H   0  0  0  0  0  0  0  0  0  0  0  0
   46.7199   29.3480   46.4895 H   0  0  0  0  0  0  0  0  0  0  0  0
   45.0285   30.7232   45.8050 H   0  0  0  0  0  0  0  0  0  0  0  0
   47.0058   29.7108   44.1049 H   0  0  0  0  0  0  0  0  0  0  0  0
   45.4277   30.3473   43.5296 H   0  0  0  0  0  0  0  0  0  0  0  0
   46.8776   31.4076   43.5296 H   0  0  0  0  0  0  0  0  0  0  0  0
  1  2  1  0
  1  3  1  0
  2  3  1  0
  4  5  2  0
  5  1  1  0
  6  5  1  0
  7  6  2  0
  8  9  2  0
  8  7  1  0
  9  4  1  0
 11 10  1  0
 12 11  2  0
 12  8  1  0
 13 12  1  0
 14 15  1  0
 14 13  2  0
 15 16  2  0
 16 17  1  0
 16 11  1  0
 18  3  1  0
 18 19  1  0
 19 20  1  0
 20 21  1  0
 21 22  1  0
 23 22  1  0
 24 19  1  0
 24 23  1  0
 25 24  1  0
  1 26  1  1
  2 27  1  0
  2 28  1  0
  3 29  1  1
  4 30  1  0
  6 31  1  0
 13 32  1  0
 14 33  1  0
 15 34  1  0
 18 35  1  0
 18 36  1  0
 20 37  1  0
 20 38  1  0
 21 39  1  0
 21 40  1  0
 22 41  1  0
 22 42  1  0
 23 43  1  0
 23 44  1  0
 24 45  1  1
 25 46  1  0
 25 47  1  0
 25 48  1  0
M  ISO  8  26  13  27  13  28  13  29  13  30  14  31  14  32  14  33  14
M  ISO  8  34  14  35   8  36   8  37  13  38  13  39  13  40  13  41  13
M  ISO  7  42  13  43  13  44  13  45  13  46   8  47   8  48   8
M  END
>  <minimizedAffinity>  (1) 
-5.33072758

>  <minimizedRMSD>  (1) 
3.61256933

$$$$
