
     RDKit          3D

 40 43  0  0  0  0  0  0  0  0999 V2000
   44.6190   35.1160   43.7500 C   0  0  0  0  0  0  0  0  0  0  0  0
   44.0340   34.5220   42.5990 C   0  0  0  0  0  0  0  0  0  0  0  0
   44.2390   33.1730   42.3830 C   0  0  0  0  0  0  0  0  0  0  0  0
   44.9990   32.5080   43.3060 N   0  0  0  0  0  0  0  0  0  0  0  0
   45.5400   33.0790   44.3800 C   0  0  0  0  0  0  0  0  0  0  0  0
   45.3370   34.3810   44.5800 N   0  0  0  0  0  0  0  0  0  0  0  0
   46.9000   31.1130   44.9080 C   0  0  0  0  0  0  0  0  0  0  0  0
   46.3410   32.3040   45.3230 C   0  0  0  0  0  0  0  0  0  0  0  0
   46.5250   32.7800   46.6250 C   0  0  0  0  0  0  0  0  0  0  0  0
   47.2960   32.0200   47.5110 C   0  0  0  0  0  0  0  0  0  0  0  0
   47.8590   30.8170   47.0840 C   0  0  0  0  0  0  0  0  0  0  0  0
   47.6700   30.3570   45.7940 C   0  0  0  0  0  0  0  0  0  0  0  0
   48.5670   30.2900   48.1810 O   0  0  0  0  0  0  0  0  0  0  0  0
   48.8200   31.3550   49.1020 C   0  0  0  0  0  0  0  0  0  0  0  0
   47.6780   32.1860   48.8480 O   0  0  0  0  0  0  0  0  0  0  0  0
   43.2300   35.3120   41.6560 C   0  0  0  0  0  0  0  0  0  0  0  0
   41.9280   35.3280   41.5960 C   0  0  0  0  0  0  0  0  0  0  0  0
   41.1730   36.1520   40.6190 C   0  0  0  0  0  0  0  0  0  0  0  0
   41.4650   35.9480   37.8480 F   0  0  0  0  0  0  0  0  0  0  0  0
   40.4590   35.2520   38.4170 C   0  0  0  0  0  0  0  0  0  0  0  0
   40.2870   35.3370   39.8080 C   0  0  0  0  0  0  0  0  0  0  0  0
   39.2300   34.5820   40.2460 C   0  0  0  0  0  0  0  0  0  0  0  0
   38.3720   33.8000   39.5200 C   0  0  0  0  0  0  0  0  0  0  0  0
   38.6280   33.7830   38.1440 C   0  0  0  0  0  0  0  0  0  0  0  0
   39.6520   34.4910   37.5670 C   0  0  0  0  0  0  0  0  0  0  0  0
   44.4738   36.1879   43.9497 H   0  0  0  0  0  0  0  0  0  0  0  0
   43.8114   32.6579   41.5102 H   0  0  0  0  0  0  0  0  0  0  0  0
   46.7391   30.7589   43.8790 H   0  0  0  0  0  0  0  0  0  0  0  0
   46.0736   33.7306   46.9453 H   0  0  0  0  0  0  0  0  0  0  0  0
   48.1206   29.4074   45.4697 H   0  0  0  0  0  0  0  0  0  0  0  0
   48.8409   30.9979   50.1422 H   0  0  0  0  0  0  0  0  0  0  0  0
   49.7918   31.8543   48.9748 H   0  0  0  0  0  0  0  0  0  0  0  0
   43.7739   35.9444   40.9389 H   0  0  0  0  0  0  0  0  0  0  0  0
   41.3626   34.7020   42.3020 H   0  0  0  0  0  0  0  0  0  0  0  0
   40.5743   36.8955   41.1656 H   0  0  0  0  0  0  0  0  0  0  0  0
   41.8956   36.6449   39.9520 H   0  0  0  0  0  0  0  0  0  0  0  0
   39.0457   34.6080   41.3301 H   0  0  0  0  0  0  0  0  0  0  0  0
   37.5498   33.2322   39.9799 H   0  0  0  0  0  0  0  0  0  0  0  0
   37.9793   33.1749   37.4963 H   0  0  0  0  0  0  0  0  0  0  0  0
   39.8300   34.4609   36.4819 H   0  0  0  0  0  0  0  0  0  0  0  0
  1  6  2  0
  2  1  1  0
  3  2  2  0
  3  4  1  0
  4  5  2  0
  5  6  1  0
  5  8  1  0
  7  8  2  0
  7 12  1  0
  8  9  1  0
  9 10  2  0
 10 15  1  0
 11 10  1  0
 11 13  1  0
 12 11  2  0
 13 14  1  0
 15 14  1  0
 16  2  1  0
 17 16  2  0
 18 17  1  0
 19 20  1  0
 20 21  2  0
 21 22  1  0
 21 18  1  0
 23 22  2  0
 24 23  1  0
 25 24  2  0
 25 20  1  0
  1 26  1  0
  3 27  1  0
  7 28  1  0
  9 29  1  0
 12 30  1  0
 14 31  1  0
 14 32  1  0
 16 33  1  0
 17 34  1  0
 18 35  1  0
 18 36  1  0
 22 37  1  0
 23 38  1  0
 24 39  1  0
 25 40  1  0
M  ISO  8  26  14  27  14  28  14  29  14  30  14  31  13  32  13  35   8
M  ISO  5  36   8  37  14  38  14  39  14  40  14
M  END
>  <minimizedAffinity>  (1) 
-6.85520124

>  <minimizedRMSD>  (1) 
1.47906053

$$$$
