
     RDKit          3D

 32 35  0  0  1  0  0  0  0  0999 V2000
   46.4940   34.9870   41.9400 C   0  0  1  0  0  0  0  0  0  0  0  0
   48.0160   35.2980   41.9200 C   0  0  0  0  0  0  0  0  0  0  0  0
   47.3370   33.9970   41.3730 C   0  0  2  0  0  0  0  0  0  0  0  0
   48.3110   34.5300   39.0890 C   0  0  0  0  0  0  0  0  0  0  0  0
   47.4360   33.8280   39.8900 C   0  0  0  0  0  0  0  0  0  0  0  0
   46.6150   32.9160   39.2210 C   0  0  0  0  0  0  0  0  0  0  0  0
   46.6340   32.6920   37.8680 C   0  0  0  0  0  0  0  0  0  0  0  0
   47.5260   33.4170   37.1030 C   0  0  0  0  0  0  0  0  0  0  0  0
   48.3690   34.3420   37.7210 C   0  0  0  0  0  0  0  0  0  0  0  0
   47.3360   33.0020   35.8000 O   0  0  0  0  0  0  0  0  0  0  0  0
   46.4700   31.8870   35.7640 C   0  0  0  0  0  0  0  0  0  0  0  0
   45.9050   31.8420   37.0510 O   0  0  0  0  0  0  0  0  0  0  0  0
   44.6400   35.4450   45.1730 C   0  0  0  0  0  0  0  0  0  0  0  0
   45.0900   35.7140   43.8350 C   0  0  0  0  0  0  0  0  0  0  0  0
   46.0210   34.8260   43.3640 C   0  0  0  0  0  0  0  0  0  0  0  0
   46.4780   33.7670   44.1320 N   0  0  0  0  0  0  0  0  0  0  0  0
   46.0200   33.5710   45.3700 C   0  0  0  0  0  0  0  0  0  0  0  0
   45.1030   34.4020   45.9000 N   0  0  0  0  0  0  0  0  0  0  0  0
   44.6340   36.8190   43.0780 N   0  0  0  0  0  0  0  0  0  0  0  0
   45.5668   35.4316   41.5494 H   0  0  0  0  0  0  0  0  0  0  0  0
   48.4305   36.0512   41.2337 H   0  0  0  0  0  0  0  0  0  0  0  0
   48.7997   35.5598   42.6461 H   0  0  0  0  0  0  0  0  0  0  0  0
   47.4093   32.9151   41.5583 H   0  0  0  0  0  0  0  0  0  0  0  0
   48.9854   35.2641   39.5540 H   0  0  0  0  0  0  0  0  0  0  0  0
   45.9013   32.3353   39.8238 H   0  0  0  0  0  0  0  0  0  0  0  0
   49.0817   34.9231   37.1174 H   0  0  0  0  0  0  0  0  0  0  0  0
   45.6898   32.0245   35.0009 H   0  0  0  0  0  0  0  0  0  0  0  0
   46.9951   30.9562   35.5036 H   0  0  0  0  0  0  0  0  0  0  0  0
   43.8906   36.1125   45.6233 H   0  0  0  0  0  0  0  0  0  0  0  0
   46.3949   32.7233   45.9624 H   0  0  0  0  0  0  0  0  0  0  0  0
   44.9869   36.9692   42.1220 H   0  0  0  0  0  0  0  0  0  0  0  0
   43.9492   37.4732   43.4829 H   0  0  0  0  0  0  0  0  0  0  0  0
  1 15  1  0
  2  1  1  0
  3  2  1  0
  3  1  1  0
  4  5  2  0
  5  3  1  0
  6  5  1  0
  7  6  2  0
  8  9  2  0
  8  7  1  0
  9  4  1  0
 10  8  1  0
 11 10  1  0
 11 12  1  0
 12  7  1  0
 13 18  2  0
 14 13  1  0
 15 14  2  0
 15 16  1  0
 16 17  2  0
 17 18  1  0
 19 14  1  0
  1 20  1  6
  2 21  1  0
  2 22  1  0
  3 23  1  1
  4 24  1  0
  6 25  1  0
  9 26  1  0
 11 27  1  0
 11 28  1  0
 13 29  1  0
 17 30  1  0
 19 31  1  0
 19 32  1  0
M  ISO  8  20  13  21  13  22  13  23  13  24  14  25  14  26  14  27  13
M  ISO  3  28  13  29  14  30  14
M  END
>  <minimizedAffinity>  (1) 
-5.76407957

>  <minimizedRMSD>  (1) 
0.0802571401

$$$$
