
     RDKit          3D

 48 52  0  0  1  0  0  0  0  0999 V2000
   43.3240   34.5290   40.7030 C   0  0  0  0  0  0  0  0  0  0  0  0
   43.3940   35.7030   40.2050 O   0  0  0  0  0  0  0  0  0  0  0  0
   41.9130   34.2570   40.5040 N   0  0  0  0  0  0  0  0  0  0  0  0
   41.4840   34.2720   39.1210 C   0  0  0  0  0  0  0  0  0  0  0  0
   40.8380   35.6610   38.9240 C   0  0  0  0  0  0  0  0  0  0  0  0
   40.1330   35.9980   40.2460 C   0  0  0  0  0  0  0  0  0  0  0  0
   39.6580   34.7430   40.9430 C   0  0  0  0  0  0  0  0  0  0  0  0
   40.8810   33.9760   41.4770 C   0  0  1  0  0  0  0  0  0  0  0  0
   41.4680   31.5610   41.9720 C   0  0  0  0  0  0  0  0  0  0  0  0
   40.5630   32.5340   41.6130 C   0  0  0  0  0  0  0  0  0  0  0  0
   39.2570   32.1440   41.3580 C   0  0  0  0  0  0  0  0  0  0  0  0
   38.8630   30.8240   41.4580 C   0  0  0  0  0  0  0  0  0  0  0  0
   39.7940   29.8530   41.8230 C   0  0  0  0  0  0  0  0  0  0  0  0
   41.0950   30.2230   42.0790 C   0  0  0  0  0  0  0  0  0  0  0  0
   39.1380   28.6100   41.8480 O   0  0  0  0  0  0  0  0  0  0  0  0
   37.7630   28.9370   42.0970 C   0  0  0  0  0  0  0  0  0  0  0  0
   37.6630   30.1110   41.2760 O   0  0  0  0  0  0  0  0  0  0  0  0
   44.3460   33.8160   41.2460 O   0  0  0  0  0  0  0  0  0  0  0  0
   45.6940   34.0490   41.1210 C   0  0  0  0  0  0  0  0  0  0  0  0
   46.3540   34.6340   42.2000 C   0  0  0  0  0  0  0  0  0  0  0  0
   47.7300   34.8610   42.0480 C   0  0  0  0  0  0  0  0  0  0  0  0
   48.3310   34.5020   40.8690 N   0  0  0  0  0  0  0  0  0  0  0  0
   47.6440   33.9470   39.8730 C   0  0  0  0  0  0  0  0  0  0  0  0
   46.3300   33.7160   39.9860 N   0  0  0  0  0  0  0  0  0  0  0  0
   45.6230   34.9750   43.4020 C   0  0  0  0  0  0  0  0  0  0  0  0
   45.0370   36.2270   43.5970 C   0  0  0  0  0  0  0  0  0  0  0  0
   44.4620   36.1230   44.8360 C   0  0  0  0  0  0  0  0  0  0  0  0
   44.6770   34.8940   45.3680 N   0  0  0  0  0  0  0  0  0  0  0  0
   45.3800   34.2320   44.4760 N   0  0  0  0  0  0  0  0  0  0  0  0
   42.3441   34.1454   38.4470 H   0  0  0  0  0  0  0  0  0  0  0  0
   40.7857   33.4530   38.8937 H   0  0  0  0  0  0  0  0  0  0  0  0
   41.6100   36.4123   38.7014 H   0  0  0  0  0  0  0  0  0  0  0  0
   40.1300   35.6576   38.0821 H   0  0  0  0  0  0  0  0  0  0  0  0
   40.8366   36.5300   40.9033 H   0  0  0  0  0  0  0  0  0  0  0  0
   39.2589   36.6284   40.0258 H   0  0  0  0  0  0  0  0  0  0  0  0
   38.9972   35.0130   41.7799 H   0  0  0  0  0  0  0  0  0  0  0  0
   39.1019   34.1111   40.2348 H   0  0  0  0  0  0  0  0  0  0  0  0
   41.2015   34.2797   42.4845 H   0  0  0  0  0  0  0  0  0  0  0  0
   42.5099   31.8465   42.1792 H   0  0  0  0  0  0  0  0  0  0  0  0
   38.5167   32.9045   41.0690 H   0  0  0  0  0  0  0  0  0  0  0  0
   41.8378   29.4645   42.3672 H   0  0  0  0  0  0  0  0  0  0  0  0
   37.0819   28.1403   41.7633 H   0  0  0  0  0  0  0  0  0  0  0  0
   37.4915   29.0728   43.1543 H   0  0  0  0  0  0  0  0  0  0  0  0
   48.3156   35.3183   42.8592 H   0  0  0  0  0  0  0  0  0  0  0  0
   48.1638   33.6740   38.9428 H   0  0  0  0  0  0  0  0  0  0  0  0
   45.0370   37.0917   42.9171 H   0  0  0  0  0  0  0  0  0  0  0  0
   43.9011   36.9283   45.3329 H   0  0  0  0  0  0  0  0  0  0  0  0
   44.3552   34.5497   46.2839 H   0  0  0  0  0  0  0  0  0  0  0  0
  1 18  1  0
  2  1  2  0
  3  1  1  0
  3  8  1  0
  4  3  1  0
  5  4  1  0
  5  6  1  0
  6  7  1  0
  7  8  1  0
  8 10  1  0
  9 14  2  0
 10  9  1  0
 11 12  1  0
 11 10  2  0
 12 13  2  0
 13 15  1  0
 13 14  1  0
 15 16  1  0
 17 12  1  0
 17 16  1  0
 19 18  1  0
 19 20  1  0
 20 25  1  0
 21 20  2  0
 22 21  1  0
 23 24  1  0
 23 22  2  0
 24 19  2  0
 25 26  1  0
 25 29  2  0
 26 27  2  0
 27 28  1  0
 29 28  1  0
  4 30  1  0
  4 31  1  0
  5 32  1  0
  5 33  1  0
  6 34  1  0
  6 35  1  0
  7 36  1  0
  7 37  1  0
  8 38  1  1
  9 39  1  0
 11 40  1  0
 14 41  1  0
 16 42  1  0
 16 43  1  0
 21 44  1  0
 23 45  1  0
 26 46  1  0
 27 47  1  0
 28 48  1  0
M  ISO  8  30  13  31  13  32  13  33  13  34  13  35  13  36  13  37  13
M  ISO  8  38  13  39  14  40  14  41  14  42  13  43  13  44  14  45  14
M  ISO  3  46  14  47  14  48   9
M  END
>  <minimizedAffinity>  (1) 
-7.24251223

>  <minimizedRMSD>  (1) 
0.9975124

$$$$
