
     RDKit          3D

 47 51  0  0  1  0  0  0  0  0999 V2000
   46.8600   33.0240   38.7430 N   0  0  0  0  0  0  0  0  0  0  0  0
   45.9910   33.3570   37.6110 C   0  0  0  0  0  0  0  0  0  0  0  0
   45.1860   32.1760   37.1520 C   0  0  0  0  0  0  0  0  0  0  0  0
   46.0220   31.1260   36.6330 N   0  0  0  0  0  0  0  0  0  0  0  0
   47.3890   31.3210   37.1400 C   0  0  0  0  0  0  0  0  0  0  0  0
   47.3480   31.6660   38.6100 C   0  0  1  0  0  0  0  0  0  0  0  0
   48.8150   31.0200   40.5990 C   0  0  0  0  0  0  0  0  0  0  0  0
   48.6130   31.3840   39.2920 C   0  0  0  0  0  0  0  0  0  0  0  0
   49.7870   31.5090   38.5730 C   0  0  0  0  0  0  0  0  0  0  0  0
   51.0630   31.2910   39.1080 C   0  0  0  0  0  0  0  0  0  0  0  0
   51.1710   30.9230   40.4540 C   0  0  0  0  0  0  0  0  0  0  0  0
   50.0330   30.7890   41.1960 C   0  0  0  0  0  0  0  0  0  0  0  0
   52.4900   30.7420   40.8420 O   0  0  0  0  0  0  0  0  0  0  0  0
   53.2660   31.2060   39.7540 C   0  0  0  0  0  0  0  0  0  0  0  0
   52.3730   31.3340   38.6640 O   0  0  0  0  0  0  0  0  0  0  0  0
   44.9670   32.8850   41.2250 Br  0  0  0  0  0  0  0  0  0  0  0  0
   46.5190   33.9520   41.0030 C   0  0  0  0  0  0  0  0  0  0  0  0
   46.9450   34.7910   42.0020 C   0  0  0  0  0  0  0  0  0  0  0  0
   48.1060   35.5870   41.8450 C   0  0  0  0  0  0  0  0  0  0  0  0
   48.7890   35.4960   40.6730 C   0  0  0  0  0  0  0  0  0  0  0  0
   48.3290   34.6410   39.6930 C   0  0  0  0  0  0  0  0  0  0  0  0
   47.2100   33.8620   39.8240 C   0  0  0  0  0  0  0  0  0  0  0  0
   45.7540   33.9420   45.3540 C   0  0  0  0  0  0  0  0  0  0  0  0
   44.7630   34.9100   45.6110 C   0  0  0  0  0  0  0  0  0  0  0  0
   44.5270   35.8530   44.5980 C   0  0  0  0  0  0  0  0  0  0  0  0
   45.2380   35.7920   43.4520 N   0  0  0  0  0  0  0  0  0  0  0  0
   46.1850   34.8450   43.2390 C   0  0  0  0  0  0  0  0  0  0  0  0
   46.4240   33.9260   44.2130 N   0  0  0  0  0  0  0  0  0  0  0  0
   45.3025   34.1589   37.9160 H   0  0  0  0  0  0  0  0  0  0  0  0
   46.6304   33.6772   36.7752 H   0  0  0  0  0  0  0  0  0  0  0  0
   44.6112   31.7845   38.0043 H   0  0  0  0  0  0  0  0  0  0  0  0
   44.5188   32.5113   36.3443 H   0  0  0  0  0  0  0  0  0  0  0  0
   46.0252   31.1618   35.6036 H   0  0  0  0  0  0  0  0  0  0  0  0
   47.9659   30.3952   36.9986 H   0  0  0  0  0  0  0  0  0  0  0  0
   47.8659   32.1444   36.5880 H   0  0  0  0  0  0  0  0  0  0  0  0
   46.6424   31.0088   39.1394 H   0  0  0  0  0  0  0  0  0  0  0  0
   47.9204   30.9018   41.2281 H   0  0  0  0  0  0  0  0  0  0  0  0
   49.7146   31.7978   37.5141 H   0  0  0  0  0  0  0  0  0  0  0  0
   50.0889   30.5005   42.2560 H   0  0  0  0  0  0  0  0  0  0  0  0
   53.7175   32.1798   39.9945 H   0  0  0  0  0  0  0  0  0  0  0  0
   54.0884   30.5135   39.5216 H   0  0  0  0  0  0  0  0  0  0  0  0
   48.4449   36.2588   42.6474 H   0  0  0  0  0  0  0  0  0  0  0  0
   49.6961   36.0960   40.5084 H   0  0  0  0  0  0  0  0  0  0  0  0
   48.8940   34.5813   38.7511 H   0  0  0  0  0  0  0  0  0  0  0  0
   45.9756   33.1829   46.1186 H   0  0  0  0  0  0  0  0  0  0  0  0
   44.2026   34.9261   46.5574 H   0  0  0  0  0  0  0  0  0  0  0  0
   43.7676   36.6365   44.7372 H   0  0  0  0  0  0  0  0  0  0  0  0
  1 22  1  0
  2  1  1  0
  3  2  1  0
  4  5  1  0
  4  3  1  0
  5  6  1  0
  6  1  1  0
  6  8  1  0
  7 12  2  0
  8  7  1  0
  9 10  1  0
  9  8  2  0
 10 11  2  0
 11 13  1  0
 11 12  1  0
 14 13  1  0
 15 10  1  0
 15 14  1  0
 17 16  1  0
 17 18  2  0
 18 27  1  0
 19 18  1  0
 20 19  2  0
 21 22  2  0
 21 20  1  0
 22 17  1  0
 23 24  2  0
 25 24  1  0
 26 25  2  0
 27 26  1  0
 27 28  2  0
 28 23  1  0
  2 29  1  0
  2 30  1  0
  3 31  1  0
  3 32  1  0
  4 33  1  0
  5 34  1  0
  5 35  1  0
  6 36  1  1
  7 37  1  0
  9 38  1  0
 12 39  1  0
 14 40  1  0
 14 41  1  0
 19 42  1  0
 20 43  1  0
 21 44  1  0
 23 45  1  0
 24 46  1  0
 25 47  1  0
M  ISO  8  29  13  30  13  31  13  32  13  33   5  34  13  35  13  36  13
M  ISO  8  37  14  38  14  39  14  40  13  41  13  42  14  43  14  44  14
M  ISO  3  45  14  46  14  47  14
M  END
>  <minimizedAffinity>  (1) 
-6.28192568

>  <minimizedRMSD>  (1) 
0.539115429

$$$$
