
     RDKit          3D

 43 47  0  0  1  0  0  0  0  0999 V2000
   48.0230   33.2040   43.1280 N   0  0  0  0  0  0  0  0  0  0  0  0
   49.1690   33.2420   42.3460 C   0  0  0  0  0  0  0  0  0  0  0  0
   50.3360   32.8260   42.5720 O   0  0  0  0  0  0  0  0  0  0  0  0
   46.2880   32.0910   44.4860 C   0  0  1  0  0  0  0  0  0  0  0  0
   46.4030   31.3350   43.3140 C   0  0  0  0  0  0  0  0  0  0  0  0
   47.6470   32.0760   43.9020 C   0  0  1  0  0  0  0  0  0  0  0  0
   45.0500   33.9680   43.1710 C   0  0  0  0  0  0  0  0  0  0  0  0
   45.5430   33.4350   44.4050 C   0  0  0  0  0  0  0  0  0  0  0  0
   45.3470   34.1840   45.5450 C   0  0  0  0  0  0  0  0  0  0  0  0
   44.7110   35.3710   45.4510 N   0  0  0  0  0  0  0  0  0  0  0  0
   44.2500   35.8650   44.2730 C   0  0  0  0  0  0  0  0  0  0  0  0
   44.4310   35.1290   43.0980 N   0  0  0  0  0  0  0  0  0  0  0  0
   49.1010   33.8680   40.9620 C   0  0  2  0  0  0  0  0  0  0  0  0
   48.5810   35.3520   40.9000 C   0  0  0  0  0  0  0  0  0  0  0  0
   47.8180   34.1920   40.3320 C   0  0  1  0  0  0  0  0  0  0  0  0
   47.7350   34.0880   38.8270 C   0  0  0  0  0  0  0  0  0  0  0  0
   48.5410   34.7040   38.1360 O   0  0  0  0  0  0  0  0  0  0  0  0
   45.8320   32.4280   38.7940 C   0  0  0  0  0  0  0  0  0  0  0  0
   46.7230   33.2730   38.1670 C   0  0  0  0  0  0  0  0  0  0  0  0
   46.5930   33.3080   36.7940 C   0  0  0  0  0  0  0  0  0  0  0  0
   45.6630   32.5710   36.0900 C   0  0  0  0  0  0  0  0  0  0  0  0
   44.7950   31.7410   36.7620 C   0  0  0  0  0  0  0  0  0  0  0  0
   44.8890   31.6750   38.1280 C   0  0  0  0  0  0  0  0  0  0  0  0
   43.9760   31.1270   35.8150 O   0  0  0  0  0  0  0  0  0  0  0  0
   44.6570   31.1850   34.5540 C   0  0  0  0  0  0  0  0  0  0  0  0
   45.3400   32.4340   34.7360 O   0  0  0  0  0  0  0  0  0  0  0  0
   47.4156   34.0356   43.1474 H   0  0  0  0  0  0  0  0  0  0  0  0
   45.8883   31.8411   45.4799 H   0  0  0  0  0  0  0  0  0  0  0  0
   45.9400   31.6901   42.3815 H   0  0  0  0  0  0  0  0  0  0  0  0
   46.1756   30.2969   43.0298 H   0  0  0  0  0  0  0  0  0  0  0  0
   48.6578   31.8452   44.2694 H   0  0  0  0  0  0  0  0  0  0  0  0
   45.1934   33.3861   42.2486 H   0  0  0  0  0  0  0  0  0  0  0  0
   45.7043   33.8192   46.5193 H   0  0  0  0  0  0  0  0  0  0  0  0
   43.7375   36.8379   44.2434 H   0  0  0  0  0  0  0  0  0  0  0  0
   49.9806   33.2981   40.6280 H   0  0  0  0  0  0  0  0  0  0  0  0
   48.2298   35.8592   41.8108 H   0  0  0  0  0  0  0  0  0  0  0  0
   48.9621   36.3136   40.5256 H   0  0  0  0  0  0  0  0  0  0  0  0
   46.7932   33.8193   40.4767 H   0  0  0  0  0  0  0  0  0  0  0  0
   45.8763   32.3502   39.8903 H   0  0  0  0  0  0  0  0  0  0  0  0
   47.2712   33.9624   36.2267 H   0  0  0  0  0  0  0  0  0  0  0  0
   44.2104   31.0197   38.6938 H   0  0  0  0  0  0  0  0  0  0  0  0
   43.9568   31.2156   33.7062 H   0  0  0  0  0  0  0  0  0  0  0  0
   45.2965   30.3219   34.3172 H   0  0  0  0  0  0  0  0  0  0  0  0
  1  6  1  0
  2  3  2  0
  2  1  1  0
  5  6  1  0
  5  4  1  0
  6  4  1  0
  7  8  2  0
  8  4  1  0
  8  9  1  0
 10  9  2  0
 11 10  1  0
 12  7  1  0
 12 11  2  0
 13  2  1  0
 14 13  1  0
 15 14  1  0
 15 13  1  0
 16 15  1  0
 17 16  2  0
 19 18  2  0
 19 16  1  0
 20 19  1  0
 21 22  1  0
 21 20  2  0
 22 23  2  0
 23 18  1  0
 24 22  1  0
 25 26  1  0
 25 24  1  0
 26 21  1  0
  1 27  1  0
  4 28  1  1
  5 29  1  0
  5 30  1  0
  6 31  1  1
  7 32  1  0
  9 33  1  0
 11 34  1  0
 13 35  1  6
 14 36  1  0
 14 37  1  0
 15 38  1  1
 18 39  1  0
 20 40  1  0
 23 41  1  0
 25 42  1  0
 25 43  1  0
M  ISO  8  28  13  29  13  30  13  31  13  32  14  33  14  34  14  35  13
M  ISO  8  36  13  37  13  38  13  39  14  40  14  41  14  42  13  43  13
M  END
>  <minimizedAffinity>  (1) 
-5.40838337

>  <minimizedRMSD>  (1) 
0.179931417

$$$$
