
     RDKit          3D

 50 54  0  0  1  0  0  0  0  0999 V2000
   46.6780   35.5000   42.1610 C   0  0  0  0  0  0  0  0  0  0  0  0
   47.9140   35.0590   41.4410 C   0  0  1  0  0  0  0  0  0  0  0  0
   49.1380   35.9140   41.5790 C   0  0  0  0  0  0  0  0  0  0  0  0
   49.0290   34.5870   42.2520 C   0  0  2  0  0  0  0  0  0  0  0  0
   49.8280   33.5580   41.5980 N   0  0  0  0  0  0  0  0  0  0  0  0
   49.0780   32.6650   40.7940 C   0  0  0  0  0  0  0  0  0  0  0  0
   50.0780   31.6770   40.2240 C   0  0  0  0  0  0  0  0  0  0  0  0
   50.7290   30.9250   41.2330 N   0  0  0  0  0  0  0  0  0  0  0  0
   50.8150   31.5980   42.5170 C   0  0  0  0  0  0  0  0  0  0  0  0
   50.9560   33.1070   42.2910 C   0  0  0  0  0  0  0  0  0  0  0  0
   45.8650   34.2590   42.4240 C   0  0  0  0  0  0  0  0  0  0  0  0
   44.6810   34.8390   45.9400 C   0  0  0  0  0  0  0  0  0  0  0  0
   44.8310   34.9760   44.5370 C   0  0  0  0  0  0  0  0  0  0  0  0
   45.6910   34.1260   43.9070 C   0  0  0  0  0  0  0  0  0  0  0  0
   46.3640   33.1930   44.6290 N   0  0  0  0  0  0  0  0  0  0  0  0
   46.2250   33.0670   45.9290 C   0  0  0  0  0  0  0  0  0  0  0  0
   45.3930   33.8760   46.5990 N   0  0  0  0  0  0  0  0  0  0  0  0
   47.1980   30.8060   46.0840 C   0  0  0  0  0  0  0  0  0  0  0  0
   46.9780   32.0440   46.6510 C   0  0  0  0  0  0  0  0  0  0  0  0
   47.4990   32.2540   47.9120 C   0  0  0  0  0  0  0  0  0  0  0  0
   48.1990   31.2450   48.5360 C   0  0  0  0  0  0  0  0  0  0  0  0
   48.4120   30.0060   47.9530 C   0  0  0  0  0  0  0  0  0  0  0  0
   47.8990   29.7850   46.7000 C   0  0  0  0  0  0  0  0  0  0  0  0
   49.1480   29.2620   48.8710 O   0  0  0  0  0  0  0  0  0  0  0  0
   49.6690   30.1290   49.8710 C   0  0  0  0  0  0  0  0  0  0  0  0
   48.8020   31.2530   49.7970 O   0  0  0  0  0  0  0  0  0  0  0  0
   46.1062   36.2029   41.5373 H   0  0  0  0  0  0  0  0  0  0  0  0
   46.9292   36.0152   43.0999 H   0  0  0  0  0  0  0  0  0  0  0  0
   47.3457   34.6522   40.5916 H   0  0  0  0  0  0  0  0  0  0  0  0
   49.8193   36.0490   40.7260 H   0  0  0  0  0  0  0  0  0  0  0  0
   49.3463   36.9453   41.9002 H   0  0  0  0  0  0  0  0  0  0  0  0
   49.1312   34.2266   43.2862 H   0  0  0  0  0  0  0  0  0  0  0  0
   48.3271   32.1406   41.4032 H   0  0  0  0  0  0  0  0  0  0  0  0
   48.5372   33.1967   39.9972 H   0  0  0  0  0  0  0  0  0  0  0  0
   49.5477   30.9844   39.5539 H   0  0  0  0  0  0  0  0  0  0  0  0
   50.8462   32.2506   39.6847 H   0  0  0  0  0  0  0  0  0  0  0  0
   50.2110   30.0445   41.3642 H   0  0  0  0  0  0  0  0  0  0  0  0
   49.9031   31.3974   43.0985 H   0  0  0  0  0  0  0  0  0  0  0  0
   51.6900   31.2254   43.0698 H   0  0  0  0  0  0  0  0  0  0  0  0
   51.8610   33.3109   41.6999 H   0  0  0  0  0  0  0  0  0  0  0  0
   51.0387   33.6272   43.2567 H   0  0  0  0  0  0  0  0  0  0  0  0
   44.8816   34.3470   41.9390 H   0  0  0  0  0  0  0  0  0  0  0  0
   46.3761   33.3737   42.0179 H   0  0  0  0  0  0  0  0  0  0  0  0
   43.9984   35.5011   46.4929 H   0  0  0  0  0  0  0  0  0  0  0  0
   44.2734   35.7409   43.9766 H   0  0  0  0  0  0  0  0  0  0  0  0
   46.7906   30.6190   45.0795 H   0  0  0  0  0  0  0  0  0  0  0  0
   47.3560   33.2214   48.4156 H   0  0  0  0  0  0  0  0  0  0  0  0
   48.0419   28.8175   46.1965 H   0  0  0  0  0  0  0  0  0  0  0  0
   49.6247   29.6593   50.8647 H   0  0  0  0  0  0  0  0  0  0  0  0
   50.7276   30.3850   49.7166 H   0  0  0  0  0  0  0  0  0  0  0  0
  1 11  1  0
  2  3  1  0
  2  1  1  0
  2  4  1  0
  3  4  1  0
  5  4  1  0
  5 10  1  0
  6  5  1  0
  7  6  1  0
  7  8  1  0
  8  9  1  0
 10  9  1  0
 11 14  1  0
 12 17  2  0
 13 12  1  0
 14 13  2  0
 14 15  1  0
 15 16  2  0
 16 17  1  0
 16 19  1  0
 18 19  2  0
 18 23  1  0
 19 20  1  0
 20 21  2  0
 21 26  1  0
 22 21  1  0
 22 24  1  0
 23 22  2  0
 24 25  1  0
 26 25  1  0
  1 27  1  0
  1 28  1  0
  2 29  1  6
  3 30  1  0
  3 31  1  0
  4 32  1  1
  6 33  1  0
  6 34  1  0
  7 35  1  0
  7 36  1  0
  8 37  1  0
  9 38  1  0
  9 39  1  0
 10 40  1  0
 10 41  1  0
 11 42  1  0
 11 43  1  0
 12 44  1  0
 13 45  1  0
 18 46  1  0
 20 47  1  0
 23 48  1  0
 25 49  1  0
 25 50  1  0
M  ISO  8  27   8  28   8  29  13  30  13  31  13  32  13  33  13  34  13
M  ISO  8  35  13  36  13  37   5  38  13  39  13  40  13  41  13  42   8
M  ISO  8  43   8  44  14  45  14  46  14  47  14  48  14  49  13  50  13
M  END
>  <minimizedAffinity>  (1) 
-6.08334398

>  <minimizedRMSD>  (1) 
1.76319027

$$$$
