
     RDKit          3D

 34 37  0  0  0  0  0  0  0  0999 V2000
   46.0030   32.7830   47.0460 C   0  0  0  0  0  0  0  0  0  0  0  0
   47.2540   32.4660   47.5280 C   0  0  0  0  0  0  0  0  0  0  0  0
   47.4200   31.6820   48.6480 C   0  0  0  0  0  0  0  0  0  0  0  0
   46.3170   31.1890   49.3250 C   0  0  0  0  0  0  0  0  0  0  0  0
   45.0590   31.4910   48.8640 C   0  0  0  0  0  0  0  0  0  0  0  0
   44.9130   32.2840   47.7320 C   0  0  0  0  0  0  0  0  0  0  0  0
   44.7010   35.3930   44.8350 C   0  0  0  0  0  0  0  0  0  0  0  0
   45.4660   35.2380   43.6650 C   0  0  0  0  0  0  0  0  0  0  0  0
   46.4400   34.2240   43.6340 C   0  0  0  0  0  0  0  0  0  0  0  0
   46.5990   33.4410   44.7380 N   0  0  0  0  0  0  0  0  0  0  0  0
   45.8430   33.6200   45.8510 C   0  0  0  0  0  0  0  0  0  0  0  0
   44.9020   34.5910   45.8930 N   0  0  0  0  0  0  0  0  0  0  0  0
   49.0560   31.3140   49.2150 S   0  0  0  0  0  0  0  0  0  0  0  0
   49.1030   28.6790   48.1970 C   0  0  0  0  0  0  0  0  0  0  0  0
   49.4700   29.5980   49.1510 C   0  0  0  0  0  0  0  0  0  0  0  0
   50.2600   29.1730   50.2120 C   0  0  0  0  0  0  0  0  0  0  0  0
   50.6690   27.8470   50.3070 C   0  0  0  0  0  0  0  0  0  0  0  0
   50.2810   26.9460   49.3230 C   0  0  0  0  0  0  0  0  0  0  0  0
   49.4970   27.3570   48.2650 C   0  0  0  0  0  0  0  0  0  0  0  0
   50.8340   25.7020   49.6750 O   0  0  0  0  0  0  0  0  0  0  0  0
   51.0870   25.7370   51.0830 C   0  0  0  0  0  0  0  0  0  0  0  0
   51.4460   27.1210   51.2210 O   0  0  0  0  0  0  0  0  0  0  0  0
   48.1428   32.8488   47.0050 H   0  0  0  0  0  0  0  0  0  0  0  0
   46.4468   30.5635   50.2205 H   0  0  0  0  0  0  0  0  0  0  0  0
   44.1714   31.1071   49.3881 H   0  0  0  0  0  0  0  0  0  0  0  0
   43.9008   32.5209   47.3723 H   0  0  0  0  0  0  0  0  0  0  0  0
   43.9317   36.1777   44.8837 H   0  0  0  0  0  0  0  0  0  0  0  0
   45.3065   35.8934   42.7961 H   0  0  0  0  0  0  0  0  0  0  0  0
   47.0595   34.0665   42.7388 H   0  0  0  0  0  0  0  0  0  0  0  0
   48.4767   29.0063   47.3540 H   0  0  0  0  0  0  0  0  0  0  0  0
   50.5654   29.8931   50.9854 H   0  0  0  0  0  0  0  0  0  0  0  0
   49.1902   26.6424   47.4870 H   0  0  0  0  0  0  0  0  0  0  0  0
   50.1904   25.4846   51.6681 H   0  0  0  0  0  0  0  0  0  0  0  0
   51.8381   25.0187   51.4433 H   0  0  0  0  0  0  0  0  0  0  0  0
  1  2  2  0
  1  6  1  0
  2  3  1  0
  3 13  1  0
  3  4  2  0
  5  4  1  0
  6  5  2  0
  7 12  2  0
  8  7  1  0
  9  8  2  0
  9 10  1  0
 10 11  2  0
 11 12  1  0
 11  1  1  0
 14 19  2  0
 14 15  1  0
 15 13  1  0
 15 16  2  0
 16 17  1  0
 17 22  1  0
 18 20  1  0
 18 17  2  0
 19 18  1  0
 20 21  1  0
 21 22  1  0
  2 23  1  0
  4 24  1  0
  5 25  1  0
  6 26  1  0
  7 27  1  0
  8 28  1  0
  9 29  1  0
 14 30  1  0
 16 31  1  0
 19 32  1  0
 21 33  1  0
 21 34  1  0
M  ISO  8  23  14  24  14  25  14  26  14  27  14  28  14  29  14  30  14
M  ISO  4  31  14  32  14  33  13  34  13
M  END
>  <minimizedAffinity>  (1) 
-5.85842848

>  <minimizedRMSD>  (1) 
1.10092735

$$$$
