
     RDKit          3D

 39 42  0  0  1  0  0  0  0  0999 V2000
   46.8790   34.6250   42.3070 N   0  0  0  0  0  0  0  0  0  0  0  0
   48.3350   34.6500   42.3740 C   0  0  0  0  0  0  0  0  0  0  0  0
   48.7540   35.4390   41.1260 C   0  0  0  0  0  0  0  0  0  0  0  0
   48.3820   34.7070   39.8780 C   0  0  0  0  0  0  0  0  0  0  0  0
   47.0620   34.0190   39.9360 C   0  0  0  0  0  0  0  0  0  0  0  0
   46.1710   34.4340   41.0640 C   0  0  1  0  0  0  0  0  0  0  0  0
   44.4720   35.9630   44.8300 C   0  0  0  0  0  0  0  0  0  0  0  0
   45.1990   35.8830   43.6230 C   0  0  0  0  0  0  0  0  0  0  0  0
   46.0980   34.7940   43.4910 C   0  0  0  0  0  0  0  0  0  0  0  0
   46.2010   33.9110   44.5180 N   0  0  0  0  0  0  0  0  0  0  0  0
   45.4740   34.0410   45.6580 C   0  0  0  0  0  0  0  0  0  0  0  0
   44.6150   35.0660   45.8070 N   0  0  0  0  0  0  0  0  0  0  0  0
   45.2250   33.4240   41.2460 O   0  0  0  0  0  0  0  0  0  0  0  0
   43.4800   34.6850   40.4340 C   0  0  0  0  0  0  0  0  0  0  0  0
   43.8730   33.5100   41.0830 C   0  0  0  0  0  0  0  0  0  0  0  0
   42.8680   32.6380   41.4520 C   0  0  0  0  0  0  0  0  0  0  0  0
   41.5430   32.9210   41.1890 C   0  0  0  0  0  0  0  0  0  0  0  0
   41.1870   34.0730   40.5540 C   0  0  0  0  0  0  0  0  0  0  0  0
   42.1650   34.9910   40.1580 C   0  0  0  0  0  0  0  0  0  0  0  0
   39.7840   34.0650   40.4350 O   0  0  0  0  0  0  0  0  0  0  0  0
   39.3110   33.0260   41.2920 C   0  0  0  0  0  0  0  0  0  0  0  0
   40.4210   32.1570   41.4910 O   0  0  0  0  0  0  0  0  0  0  0  0
   48.6751   35.1571   43.2890 H   0  0  0  0  0  0  0  0  0  0  0  0
   48.7735   33.6416   42.4028 H   0  0  0  0  0  0  0  0  0  0  0  0
   48.2501   36.4168   41.1330 H   0  0  0  0  0  0  0  0  0  0  0  0
   49.8463   35.5674   41.1438 H   0  0  0  0  0  0  0  0  0  0  0  0
   49.1555   33.9504   39.6799 H   0  0  0  0  0  0  0  0  0  0  0  0
   48.3063   35.4629   39.0825 H   0  0  0  0  0  0  0  0  0  0  0  0
   46.5324   34.2209   38.9933 H   0  0  0  0  0  0  0  0  0  0  0  0
   47.2824   32.9538   40.1000 H   0  0  0  0  0  0  0  0  0  0  0  0
   45.7168   35.4003   40.7995 H   0  0  0  0  0  0  0  0  0  0  0  0
   43.7637   36.7929   44.9698 H   0  0  0  0  0  0  0  0  0  0  0  0
   45.0745   36.6286   42.8239 H   0  0  0  0  0  0  0  0  0  0  0  0
   45.5883   33.3028   46.4655 H   0  0  0  0  0  0  0  0  0  0  0  0
   44.2586   35.3997   40.1290 H   0  0  0  0  0  0  0  0  0  0  0  0
   43.1282   31.7004   41.9651 H   0  0  0  0  0  0  0  0  0  0  0  0
   41.8939   35.9250   39.6440 H   0  0  0  0  0  0  0  0  0  0  0  0
   38.9740   33.4441   42.2520 H   0  0  0  0  0  0  0  0  0  0  0  0
   38.4533   32.4957   40.8526 H   0  0  0  0  0  0  0  0  0  0  0  0
  1  2  1  0
  1  9  1  0
  3  2  1  0
  4  5  1  0
  4  3  1  0
  5  6  1  0
  6 13  1  0
  6  1  1  0
  7 12  2  0
  8  7  1  0
  9  8  2  0
  9 10  1  0
 10 11  2  0
 11 12  1  0
 14 15  2  0
 15 13  1  0
 15 16  1  0
 17 16  2  0
 17 22  1  0
 18 17  1  0
 19 14  1  0
 19 18  2  0
 20 18  1  0
 20 21  1  0
 21 22  1  0
  2 23  1  0
  2 24  1  0
  3 25  1  0
  3 26  1  0
  4 27  1  0
  4 28  1  0
  5 29  1  0
  5 30  1  0
  6 31  1  6
  7 32  1  0
  8 33  1  0
 11 34  1  0
 14 35  1  0
 16 36  1  0
 19 37  1  0
 21 38  1  0
 21 39  1  0
M  ISO  8  23  13  24  13  25  13  26  13  27  13  28  13  29  13  30  13
M  ISO  8  31  13  32  14  33  14  34  14  35  14  36  14  37  14  38  13
M  ISO  1  39  13
M  END
>  <minimizedAffinity>  (1) 
-6.42216635

>  <minimizedRMSD>  (1) 
0.771326065

$$$$
