
     RDKit          3D

 58 62  0  0  1  0  0  0  0  0999 V2000
   49.3660   32.3220   37.0420 C   0  0  0  0  0  0  0  0  0  0  0  0
   48.5620   32.7370   38.1260 C   0  0  0  0  0  0  0  0  0  0  0  0
   47.2480   32.9720   37.7780 C   0  0  0  0  0  0  0  0  0  0  0  0
   46.7140   32.8350   36.5280 C   0  0  0  0  0  0  0  0  0  0  0  0
   47.5380   32.4260   35.4970 C   0  0  0  0  0  0  0  0  0  0  0  0
   48.8530   32.1770   35.7770 C   0  0  0  0  0  0  0  0  0  0  0  0
   49.2980   32.1150   33.3650 C   0  0  0  0  0  0  0  0  0  0  0  0
   48.2420   32.7960   33.1600 O   0  0  0  0  0  0  0  0  0  0  0  0
   49.6760   31.7560   34.6880 N   0  0  0  0  0  0  0  0  0  0  0  0
   47.8360   28.7330   31.4030 C   0  0  0  0  0  0  0  0  0  0  0  0
   48.5430   29.4170   30.2700 C   0  0  0  0  0  0  0  0  0  0  0  0
   49.2010   30.5930   30.7570 N   0  0  0  0  0  0  0  0  0  0  0  0
   49.6550   31.9230   30.9730 C   0  0  0  0  0  0  0  0  0  0  0  0
   49.5880   32.9940   30.2800 O   0  0  0  0  0  0  0  0  0  0  0  0
   50.2430   31.6210   32.3060 C   0  0  2  0  0  0  0  0  0  0  0  0
   50.0840   30.2170   31.8700 C   0  0  1  0  0  0  0  0  0  0  0  0
   48.8580   29.2420   32.8250 S   0  0  0  0  0  0  0  0  0  0  0  0
   46.4010   29.1040   31.5670 C   0  0  0  0  0  0  0  0  0  0  0  0
   47.9680   27.2400   31.1610 C   0  0  0  0  0  0  0  0  0  0  0  0
   49.0260   32.9040   39.4410 N   0  0  0  0  0  0  0  0  0  0  0  0
   47.6840   34.1950   42.4720 N   0  0  0  0  0  0  0  0  0  0  0  0
   47.9230   34.3920   41.0430 C   0  0  0  0  0  0  0  0  0  0  0  0
   48.3560   33.0060   40.6930 C   0  0  2  0  0  0  0  0  0  0  0  0
   49.3530   32.6810   41.7890 C   0  0  0  0  0  0  0  0  0  0  0  0
   48.7970   33.4350   42.9730 C   0  0  0  0  0  0  0  0  0  0  0  0
   44.7510   36.0430   43.8640 C   0  0  0  0  0  0  0  0  0  0  0  0
   45.7830   35.7010   42.9980 C   0  0  0  0  0  0  0  0  0  0  0  0
   46.6180   34.6170   43.2810 C   0  0  0  0  0  0  0  0  0  0  0  0
   46.3540   33.9480   44.4260 N   0  0  0  0  0  0  0  0  0  0  0  0
   45.3660   34.2620   45.2720 C   0  0  0  0  0  0  0  0  0  0  0  0
   44.5600   35.3250   44.9760 N   0  0  0  0  0  0  0  0  0  0  0  0
   51.8690   31.8440   37.5420 N   0  0  0  0  0  0  0  0  0  0  0  0
   50.7570   32.0560   37.3300 C   0  0  0  0  0  0  0  0  0  0  0  0
   46.5690   33.2992   38.5792 H   0  0  0  0  0  0  0  0  0  0  0  0
   45.6499   33.0460   36.3460 H   0  0  0  0  0  0  0  0  0  0  0  0
   47.1459   32.3038   34.4765 H   0  0  0  0  0  0  0  0  0  0  0  0
   50.5278   31.2024   34.8580 H   0  0  0  0  0  0  0  0  0  0  0  0
   47.8115   29.6992   29.4985 H   0  0  0  0  0  0  0  0  0  0  0  0
   49.2879   28.7332   29.8369 H   0  0  0  0  0  0  0  0  0  0  0  0
   51.2001   31.9744   32.7172 H   0  0  0  0  0  0  0  0  0  0  0  0
   51.0346   29.6655   31.8225 H   0  0  0  0  0  0  0  0  0  0  0  0
   46.1586   29.1667   32.6381 H   0  0  0  0  0  0  0  0  0  0  0  0
   46.2178   30.0791   31.0919 H   0  0  0  0  0  0  0  0  0  0  0  0
   45.7681   28.3399   31.0919 H   0  0  0  0  0  0  0  0  0  0  0  0
   48.0144   26.7148   32.1264 H   0  0  0  0  0  0  0  0  0  0  0  0
   47.0979   26.8827   30.5906 H   0  0  0  0  0  0  0  0  0  0  0  0
   48.8873   27.0409   30.5906 H   0  0  0  0  0  0  0  0  0  0  0  0
   50.0516   32.9645   39.5139 H   0  0  0  0  0  0  0  0  0  0  0  0
   47.0087   34.6874   40.5075 H   0  0  0  0  0  0  0  0  0  0  0  0
   48.6328   35.1918   40.7850 H   0  0  0  0  0  0  0  0  0  0  0  0
   47.4851   32.3388   40.6125 H   0  0  0  0  0  0  0  0  0  0  0  0
   49.3870   31.5995   41.9871 H   0  0  0  0  0  0  0  0  0  0  0  0
   50.3866   32.9611   41.5377 H   0  0  0  0  0  0  0  0  0  0  0  0
   49.5611   34.1067   43.3914 H   0  0  0  0  0  0  0  0  0  0  0  0
   48.4883   32.7510   43.7773 H   0  0  0  0  0  0  0  0  0  0  0  0
   44.0966   36.8974   43.6365 H   0  0  0  0  0  0  0  0  0  0  0  0
   45.9437   36.2887   42.0821 H   0  0  0  0  0  0  0  0  0  0  0  0
   45.2056   33.6754   46.1886 H   0  0  0  0  0  0  0  0  0  0  0  0
  1 33  1  0
  1  2  2  0
  2 20  1  0
  3  2  1  0
  4  3  2  0
  5  6  2  0
  5  4  1  0
  6  1  1  0
  7  9  1  0
  8  7  2  0
  9  6  1  0
 10 18  1  0
 10 17  1  0
 11 12  1  0
 11 10  1  0
 12 13  1  0
 12 16  1  0
 13 15  1  0
 14 13  2  0
 15  7  1  0
 16 15  1  0
 16 17  1  0
 19 10  1  0
 20 23  1  0
 21 25  1  0
 21 28  1  0
 22 21  1  0
 23 22  1  0
 23 24  1  0
 24 25  1  0
 26 31  2  0
 27 28  2  0
 27 26  1  0
 28 29  1  0
 29 30  2  0
 31 30  1  0
 33 32  3  0
  3 34  1  0
  4 35  1  0
  5 36  1  0
  9 37  1  0
 11 38  1  0
 11 39  1  0
 15 40  1  6
 16 41  1  6
 18 42  1  0
 18 43  1  0
 18 44  1  0
 19 45  1  0
 19 46  1  0
 19 47  1  0
 20 48  1  0
 22 49  1  0
 22 50  1  0
 23 51  1  6
 24 52  1  0
 24 53  1  0
 25 54  1  0
 25 55  1  0
 26 56  1  0
 27 57  1  0
 30 58  1  0
M  ISO  8  34  14  35  14  36  14  38  13  39  13  40  13  41  13  42   8
M  ISO  8  43   8  44   8  45   8  46   8  47   8  49  13  50  13  51  13
M  ISO  7  52  13  53  13  54  13  55  13  56  14  57  14  58  14
M  END
>  <minimizedAffinity>  (1) 
-6.69442654

>  <minimizedRMSD>  (1) 
0.770674825

$$$$
