
     RDKit          3D

 40 44  0  0  1  0  0  0  0  0999 V2000
   44.2200   35.5620   43.0870 C   0  0  0  0  0  0  0  0  0  0  0  0
   45.1290   34.5680   42.6630 C   0  0  0  0  0  0  0  0  0  0  0  0
   45.8710   33.9000   43.6260 C   0  0  0  0  0  0  0  0  0  0  0  0
   45.7030   34.2170   44.9200 N   0  0  0  0  0  0  0  0  0  0  0  0
   44.8180   35.1830   45.3180 C   0  0  0  0  0  0  0  0  0  0  0  0
   44.1040   35.8270   44.4050 N   0  0  0  0  0  0  0  0  0  0  0  0
   46.8070   32.8770   43.1830 C   0  0  0  0  0  0  0  0  0  0  0  0
   46.3560   31.5980   42.9600 C   0  0  0  0  0  0  0  0  0  0  0  0
   47.2690   30.6530   42.5400 C   0  0  0  0  0  0  0  0  0  0  0  0
   48.6150   30.9230   42.3330 C   0  0  0  0  0  0  0  0  0  0  0  0
   48.9940   32.2230   42.5770 C   0  0  0  0  0  0  0  0  0  0  0  0
   48.1040   33.1530   42.9880 N   0  0  0  0  0  0  0  0  0  0  0  0
   45.2530   34.2850   41.2680 C   0  0  0  0  0  0  0  0  0  0  0  0
   46.3860   34.4840   40.7230 O   0  0  0  0  0  0  0  0  0  0  0  0
   40.6260   34.5660   39.1900 C   0  0  0  0  0  0  0  0  0  0  0  0
   41.0560   33.2290   39.6500 C   0  0  0  0  0  0  0  0  0  0  0  0
   42.2040   33.2990   40.4560 N   0  0  0  0  0  0  0  0  0  0  0  0
   43.2490   32.9300   41.3470 C   0  0  1  0  0  0  0  0  0  0  0  0
   43.3040   32.2220   42.3800 O   0  0  0  0  0  0  0  0  0  0  0  0
   44.1220   33.7750   40.4390 C   0  0  1  0  0  0  0  0  0  0  0  0
   42.8990   34.6050   40.4710 C   0  0  2  0  0  0  0  0  0  0  0  0
   42.2840   35.3310   38.9330 S   0  0  0  0  0  0  0  0  0  0  0  0
   39.8330   34.5270   37.9120 C   0  0  0  0  0  0  0  0  0  0  0  0
   39.9730   35.3550   40.2790 C   0  0  0  0  0  0  0  0  0  0  0  0
   43.6144   36.1131   42.3525 H   0  0  0  0  0  0  0  0  0  0  0  0
   44.7005   35.4225   46.3851 H   0  0  0  0  0  0  0  0  0  0  0  0
   45.2986   31.3357   43.1119 H   0  0  0  0  0  0  0  0  0  0  0  0
   46.9107   29.6288   42.3591 H   0  0  0  0  0  0  0  0  0  0  0  0
   49.3265   30.1538   41.9983 H   0  0  0  0  0  0  0  0  0  0  0  0
   50.0457   32.5119   42.4342 H   0  0  0  0  0  0  0  0  0  0  0  0
   40.2406   32.7729   40.2306 H   0  0  0  0  0  0  0  0  0  0  0  0
   41.2969   32.6236   38.7637 H   0  0  0  0  0  0  0  0  0  0  0  0
   43.2589   32.8025   43.1807 H   0  0  0  0  0  0  0  0  0  0  0  0
   44.6341   33.5001   39.5051 H   0  0  0  0  0  0  0  0  0  0  0  0
   38.7599   34.4742   38.1478 H   0  0  0  0  0  0  0  0  0  0  0  0
   40.0356   35.4362   37.3269 H   0  0  0  0  0  0  0  0  0  0  0  0
   40.1238   33.6421   37.3269 H   0  0  0  0  0  0  0  0  0  0  0  0
   40.2945   34.9665   41.2566 H   0  0  0  0  0  0  0  0  0  0  0  0
   40.2639   36.4122   40.1909 H   0  0  0  0  0  0  0  0  0  0  0  0
   38.8801   35.2669   40.1909 H   0  0  0  0  0  0  0  0  0  0  0  0
  1  6  2  0
  2  1  1  0
  2  3  2  0
  3  4  1  0
  4  5  2  0
  6  5  1  0
  7  3  1  0
  8  7  2  0
  9  8  1  0
 10  9  2  0
 10 11  1  0
 11 12  2  0
 12  7  1  0
 13  2  1  0
 14 13  2  0
 15 16  1  0
 15 24  1  0
 17 16  1  0
 17 21  1  0
 17 18  1  0
 18 19  1  1
 20 21  1  0
 20 13  1  0
 20 18  1  0
 21 22  1  1
 21 18  1  0
 22 15  1  0
 23 15  1  0
  1 25  1  0
  5 26  1  0
  8 27  1  0
  9 28  1  0
 10 29  1  0
 11 30  1  0
 16 31  1  0
 16 32  1  0
 19 33  1  0
 20 34  1  6
 23 35  1  0
 23 36  1  0
 23 37  1  0
 24 38  1  0
 24 39  1  0
 24 40  1  0
M  ISO  8  25  14  26  14  27  14  28  14  29  14  30  14  31  13  32  13
M  ISO  8  33   3  34  13  35   8  36   8  37   8  38   8  39   8  40   8
M  END
>  <minimizedAffinity>  (1) 
-5.59261799

>  <minimizedRMSD>  (1) 
1.60439551

$$$$
