
     RDKit          3D

 39 42  0  0  1  0  0  0  0  0999 V2000
   45.8170   34.0600   41.0280 C   0  0  0  0  0  0  0  0  0  0  0  0
   46.4380   34.7430   42.0730 C   0  0  0  0  0  0  0  0  0  0  0  0
   47.7630   35.1410   41.8780 C   0  0  0  0  0  0  0  0  0  0  0  0
   48.3610   34.8400   40.6910 N   0  0  0  0  0  0  0  0  0  0  0  0
   47.7280   34.1820   39.7120 C   0  0  0  0  0  0  0  0  0  0  0  0
   46.4480   33.7910   39.8850 N   0  0  0  0  0  0  0  0  0  0  0  0
   45.6970   35.0110   43.3060 C   0  0  0  0  0  0  0  0  0  0  0  0
   45.0070   36.1950   43.5250 C   0  0  0  0  0  0  0  0  0  0  0  0
   44.4700   36.0220   44.7840 C   0  0  0  0  0  0  0  0  0  0  0  0
   44.8110   34.8150   45.2970 N   0  0  0  0  0  0  0  0  0  0  0  0
   45.5510   34.2280   44.3820 N   0  0  0  0  0  0  0  0  0  0  0  0
   44.5120   33.6600   41.2010 O   0  0  0  0  0  0  0  0  0  0  0  0
   43.3990   34.2190   40.6410 C   0  0  0  0  0  0  0  0  0  0  0  0
   43.1390   35.4560   40.4890 O   0  0  0  0  0  0  0  0  0  0  0  0
   38.8680   31.8470   40.2950 C   0  0  0  0  0  0  0  0  0  0  0  0
   38.7780   33.3380   40.5450 C   0  0  0  0  0  0  0  0  0  0  0  0
   40.0830   33.8970   40.2380 N   0  0  0  0  0  0  0  0  0  0  0  0
   41.1530   34.6830   39.6730 C   0  0  0  0  0  0  0  0  0  0  0  0
   41.0730   35.8290   39.1130 O   0  0  0  0  0  0  0  0  0  0  0  0
   42.1430   33.6370   40.0340 C   0  0  2  0  0  0  0  0  0  0  0  0
   41.1060   33.2510   41.0400 C   0  0  2  0  0  0  0  0  0  0  0  0
   40.5600   31.5140   40.9250 S   0  0  0  0  0  0  0  0  0  0  0  0
   37.8440   31.1070   41.1240 C   0  0  0  0  0  0  0  0  0  0  0  0
   38.7150   31.4750   38.8520 C   0  0  0  0  0  0  0  0  0  0  0  0
   48.3099   35.6838   42.6630 H   0  0  0  0  0  0  0  0  0  0  0  0
   48.2497   33.9607   38.7692 H   0  0  0  0  0  0  0  0  0  0  0  0
   44.9113   37.0627   42.8557 H   0  0  0  0  0  0  0  0  0  0  0  0
   43.8473   36.7656   45.3029 H   0  0  0  0  0  0  0  0  0  0  0  0
   44.5448   34.4347   46.2165 H   0  0  0  0  0  0  0  0  0  0  0  0
   38.0123   33.7851   39.8940 H   0  0  0  0  0  0  0  0  0  0  0  0
   38.4961   33.5460   41.5877 H   0  0  0  0  0  0  0  0  0  0  0  0
   42.5946   32.9276   39.3249 H   0  0  0  0  0  0  0  0  0  0  0  0
   41.3594   33.4541   42.0910 H   0  0  0  0  0  0  0  0  0  0  0  0
   38.0567   31.2607   42.1922 H   0  0  0  0  0  0  0  0  0  0  0  0
   36.8389   31.4888   40.8916 H   0  0  0  0  0  0  0  0  0  0  0  0
   37.8910   30.0329   40.8916 H   0  0  0  0  0  0  0  0  0  0  0  0
   38.2976   30.4600   38.7773 H   0  0  0  0  0  0  0  0  0  0  0  0
   38.0369   32.1875   38.3596 H   0  0  0  0  0  0  0  0  0  0  0  0
   39.6982   31.5043   38.3596 H   0  0  0  0  0  0  0  0  0  0  0  0
  1 12  1  0
  1  2  1  0
  2  7  1  0
  3  2  2  0
  4  3  1  0
  5  6  1  0
  5  4  2  0
  6  1  2  0
  7  8  1  0
  7 11  2  0
  8  9  2  0
  9 10  1  0
 11 10  1  0
 13 12  1  0
 14 13  2  0
 15 16  1  0
 15 22  1  0
 15 23  1  0
 17 16  1  0
 17 21  1  0
 18 20  1  0
 18 17  1  0
 19 18  2  0
 20 13  1  0
 20 21  1  0
 21 22  1  0
 24 15  1  0
  3 25  1  0
  5 26  1  0
  8 27  1  0
  9 28  1  0
 10 29  1  0
 16 30  1  0
 16 31  1  0
 20 32  1  6
 21 33  1  1
 23 34  1  0
 23 35  1  0
 23 36  1  0
 24 37  1  0
 24 38  1  0
 24 39  1  0
M  ISO  8  25  14  26  14  27  14  28  14  29   9  30  13  31  13  32  13
M  ISO  7  33  13  34   8  35   8  36   8  37   8  38   8  39   8
M  END
>  <minimizedAffinity>  (1) 
-6.43187857

>  <minimizedRMSD>  (1) 
1.24827135

$$$$
