
     RDKit          3D

 56 61  0  0  1  0  0  0  0  0999 V2000
   44.4530   33.1380   41.9120 C   0  0  0  0  0  0  0  0  0  0  0  0
   44.0050   32.4000   42.8670 O   0  0  0  0  0  0  0  0  0  0  0  0
   45.2750   34.2020   42.3910 N   0  0  0  0  0  0  0  0  0  0  0  0
   45.3150   34.1650   43.8340 C   0  0  0  0  0  0  0  0  0  0  0  0
   44.6010   34.9520   44.6830 C   0  0  0  0  0  0  0  0  0  0  0  0
   44.7850   34.7560   46.0260 C   0  0  0  0  0  0  0  0  0  0  0  0
   45.6650   33.7920   46.4090 N   0  0  0  0  0  0  0  0  0  0  0  0
   46.3550   33.0320   45.5490 C   0  0  0  0  0  0  0  0  0  0  0  0
   46.1860   33.2110   44.2150 N   0  0  0  0  0  0  0  0  0  0  0  0
   43.7360   35.8990   44.1090 N   0  0  0  0  0  0  0  0  0  0  0  0
   47.2760   32.0230   46.1320 C   0  0  0  0  0  0  0  0  0  0  0  0
   46.4870   31.0120   46.9240 C   0  0  1  0  0  0  0  0  0  0  0  0
   45.3380   30.4400   46.2140 C   0  0  0  0  0  0  0  0  0  0  0  0
   45.1250   29.0890   46.4970 N   0  0  0  0  0  0  0  0  0  0  0  0
   44.5450   27.8140   46.4330 C   0  0  1  0  0  0  0  0  0  0  0  0
   43.4350   27.2400   46.2940 O   0  0  0  0  0  0  0  0  0  0  0  0
   45.9460   27.2820   46.6180 C   0  0  0  0  0  0  0  0  0  0  0  0
   46.0140   28.4990   47.4760 C   0  0  2  0  0  0  0  0  0  0  0  0
   47.4860   29.5440   47.3050 S   0  0  0  0  0  0  0  0  0  0  0  0
   46.0430   31.5890   48.2360 C   0  0  0  0  0  0  0  0  0  0  0  0
   44.2120   32.9870   40.5460 O   0  0  0  0  0  0  0  0  0  0  0  0
   42.1980   30.8060   40.6990 Cl  0  0  0  0  0  0  0  0  0  0  0  0
   41.9490   32.4310   40.0870 C   0  0  0  0  0  0  0  0  0  0  0  0
   42.9570   33.3920   40.0540 C   0  0  0  0  0  0  0  0  0  0  0  0
   42.7100   34.6400   39.5680 C   0  0  0  0  0  0  0  0  0  0  0  0
   41.4780   35.0340   39.0870 C   0  0  0  0  0  0  0  0  0  0  0  0
   40.4370   34.0810   39.1080 C   0  0  0  0  0  0  0  0  0  0  0  0
   38.8360   34.4900   38.5170 Cl  0  0  0  0  0  0  0  0  0  0  0  0
   40.7260   32.8260   39.6080 C   0  0  0  0  0  0  0  0  0  0  0  0
   39.1460   32.5930   41.8130 F   0  0  0  0  0  0  0  0  0  0  0  0
   38.8700   31.7420   40.7700 C   0  0  0  0  0  0  0  0  0  0  0  0
   39.6550   31.8340   39.6330 C   0  0  0  0  0  0  0  0  0  0  0  0
   39.3430   30.9520   38.5950 C   0  0  0  0  0  0  0  0  0  0  0  0
   38.2960   30.0590   38.7540 C   0  0  0  0  0  0  0  0  0  0  0  0
   37.5390   30.0190   39.9360 C   0  0  0  0  0  0  0  0  0  0  0  0
   37.8220   30.8810   40.9870 C   0  0  0  0  0  0  0  0  0  0  0  0
   45.7636   34.8892   41.7995 H   0  0  0  0  0  0  0  0  0  0  0  0
   44.2402   35.3571   46.7689 H   0  0  0  0  0  0  0  0  0  0  0  0
   43.1752   36.5169   44.7128 H   0  0  0  0  0  0  0  0  0  0  0  0
   43.6628   35.9753   43.0844 H   0  0  0  0  0  0  0  0  0  0  0  0
   47.8175   31.5114   45.3226 H   0  0  0  0  0  0  0  0  0  0  0  0
   47.9938   32.5262   46.7965 H   0  0  0  0  0  0  0  0  0  0  0  0
   44.4368   31.0021   46.5002 H   0  0  0  0  0  0  0  0  0  0  0  0
   45.5522   30.5155   45.1377 H   0  0  0  0  0  0  0  0  0  0  0  0
   43.0520   27.0420   47.1852 H   0  0  0  0  0  0  0  0  0  0  0  0
   46.0353   26.3157   47.1359 H   0  0  0  0  0  0  0  0  0  0  0  0
   46.6471   27.0279   45.8093 H   0  0  0  0  0  0  0  0  0  0  0  0
   46.4875   31.0113   49.0598 H   0  0  0  0  0  0  0  0  0  0  0  0
   46.3698   32.6371   48.3050 H   0  0  0  0  0  0  0  0  0  0  0  0
   44.9462   31.5416   48.3050 H   0  0  0  0  0  0  0  0  0  0  0  0
   43.5330   35.3698   39.5584 H   0  0  0  0  0  0  0  0  0  0  0  0
   41.3136   36.0513   38.7022 H   0  0  0  0  0  0  0  0  0  0  0  0
   39.9232   30.9667   37.6606 H   0  0  0  0  0  0  0  0  0  0  0  0
   38.0521   29.3655   37.9357 H   0  0  0  0  0  0  0  0  0  0  0  0
   36.7138   29.2978   40.0302 H   0  0  0  0  0  0  0  0  0  0  0  0
   37.2484   30.8749   41.9256 H   0  0  0  0  0  0  0  0  0  0  0  0
  1  3  1  0
  1  2  2  0
  3  4  1  0
  4  9  1  0
  4  5  2  0
  5  6  1  0
  6  7  2  0
  8 11  1  0
  8  7  1  0
  9  8  2  0
 10  5  1  0
 12 11  1  6
 12 19  1  0
 12 20  1  0
 13 12  1  0
 14 13  1  0
 14 18  1  0
 15 16  1  1
 15 14  1  0
 15 17  1  0
 15 18  1  0
 18 17  1  0
 18 19  1  1
 21  1  1  0
 23 22  1  0
 24 23  2  0
 24 21  1  0
 25 24  1  0
 26 27  1  0
 26 25  2  0
 27 29  2  0
 28 27  1  0
 29 32  1  0
 29 23  1  0
 31 36  2  0
 31 30  1  0
 32 31  1  0
 33 34  1  0
 33 32  2  0
 34 35  2  0
 35 36  1  0
  3 37  1  0
  6 38  1  0
 10 39  1  0
 10 40  1  0
 11 41  1  0
 11 42  1  0
 13 43  1  0
 13 44  1  0
 16 45  1  0
 17 46  1  0
 17 47  1  0
 20 48  1  0
 20 49  1  0
 20 50  1  0
 25 51  1  0
 26 52  1  0
 33 53  1  0
 34 54  1  0
 35 55  1  0
 36 56  1  0
M  ISO  8  38  14  41   8  42   8  43  13  44  13  45   3  46  13  47  13
M  ISO  8  48   8  49   8  50   8  51  14  52  14  53  14  54  14  55  14
M  ISO  1  56  14
M  END
>  <minimizedAffinity>  (1) 
-6.84724474

>  <minimizedRMSD>  (1) 
1.65156269

$$$$
