
     RDKit          3D

 52 55  0  0  1  0  0  0  0  0999 V2000
   45.5740   34.3580   42.3600 C   0  0  0  0  0  0  0  0  0  0  0  0
   46.6070   35.1460   41.7700 C   0  0  0  0  0  0  0  0  0  0  0  0
   47.9160   34.8760   42.2100 C   0  0  0  0  0  0  0  0  0  0  0  0
   48.0890   33.9150   43.1340 N   0  0  0  0  0  0  0  0  0  0  0  0
   47.0750   33.1980   43.6610 C   0  0  0  0  0  0  0  0  0  0  0  0
   45.8070   33.4280   43.2640 N   0  0  0  0  0  0  0  0  0  0  0  0
   43.9560   34.0260   40.6970 C   0  0  0  0  0  0  0  0  0  0  0  0
   44.9120   33.4760   40.0510 O   0  0  0  0  0  0  0  0  0  0  0  0
   44.2100   34.5670   41.9690 N   0  0  0  0  0  0  0  0  0  0  0  0
   42.6830   34.0470   40.0690 N   0  0  0  0  0  0  0  0  0  0  0  0
   42.5790   33.7620   38.6240 C   0  0  0  0  0  0  0  0  0  0  0  0
   41.4000   34.5930   38.2200 C   0  0  0  0  0  0  0  0  0  0  0  0
   40.8650   35.2010   39.4840 C   0  0  0  0  0  0  0  0  0  0  0  0
   41.3650   34.2830   40.5730 C   0  0  1  0  0  0  0  0  0  0  0  0
   39.2130   32.9040   40.8550 C   0  0  0  0  0  0  0  0  0  0  0  0
   38.6610   34.0010   40.6310 O   0  0  0  0  0  0  0  0  0  0  0  0
   40.6490   33.0220   40.6910 N   0  0  0  0  0  0  0  0  0  0  0  0
   39.8800   27.9290   41.9110 C   0  0  0  0  0  0  0  0  0  0  0  0
   40.4760   28.6890   40.7150 C   0  0  0  0  0  0  0  0  0  0  0  0
   39.5560   29.7930   40.4530 N   0  0  0  0  0  0  0  0  0  0  0  0
   38.6020   30.7510   40.0020 C   0  0  0  0  0  0  0  0  0  0  0  0
   37.9870   30.7160   38.8820 O   0  0  0  0  0  0  0  0  0  0  0  0
   38.7100   31.5740   41.2350 C   0  0  1  0  0  0  0  0  0  0  0  0
   39.7990   30.6430   41.6130 C   0  0  1  0  0  0  0  0  0  0  0  0
   39.3770   29.3990   42.8990 S   0  0  0  0  0  0  0  0  0  0  0  0
   40.9080   27.1240   42.6210 C   0  0  0  0  0  0  0  0  0  0  0  0
   38.7050   27.1720   41.3870 C   0  0  0  0  0  0  0  0  0  0  0  0
   48.9520   35.6940   41.5920 C   0  0  0  0  0  0  0  0  0  0  0  0
   50.1960   35.1860   41.9580 F   0  0  0  0  0  0  0  0  0  0  0  0
   48.8840   36.9610   42.1860 F   0  0  0  0  0  0  0  0  0  0  0  0
   48.8820   35.7390   40.2330 F   0  0  0  0  0  0  0  0  0  0  0  0
   46.3929   35.9182   41.0164 H   0  0  0  0  0  0  0  0  0  0  0  0
   47.2828   32.4249   44.4154 H   0  0  0  0  0  0  0  0  0  0  0  0
   43.5073   35.0511   42.5459 H   0  0  0  0  0  0  0  0  0  0  0  0
   43.4885   34.0741   38.0897 H   0  0  0  0  0  0  0  0  0  0  0  0
   42.4648   32.6927   38.3926 H   0  0  0  0  0  0  0  0  0  0  0  0
   41.7113   35.3817   37.5192 H   0  0  0  0  0  0  0  0  0  0  0  0
   40.6362   33.9859   37.7120 H   0  0  0  0  0  0  0  0  0  0  0  0
   41.2547   36.2203   39.6227 H   0  0  0  0  0  0  0  0  0  0  0  0
   39.7688   35.2921   39.4782 H   0  0  0  0  0  0  0  0  0  0  0  0
   41.2656   34.7130   41.5806 H   0  0  0  0  0  0  0  0  0  0  0  0
   41.2003   32.1527   40.6556 H   0  0  0  0  0  0  0  0  0  0  0  0
   41.4761   29.0735   40.9642 H   0  0  0  0  0  0  0  0  0  0  0  0
   40.5915   28.0381   39.8358 H   0  0  0  0  0  0  0  0  0  0  0  0
   37.8819   31.8036   41.9217 H   0  0  0  0  0  0  0  0  0  0  0  0
   40.7261   31.1604   41.9006 H   0  0  0  0  0  0  0  0  0  0  0  0
   40.7715   27.2309   43.7073 H   0  0  0  0  0  0  0  0  0  0  0  0
   40.8029   26.0655   42.3406 H   0  0  0  0  0  0  0  0  0  0  0  0
   41.9104   27.4798   42.3406 H   0  0  0  0  0  0  0  0  0  0  0  0
   38.1103   26.7889   42.2294 H   0  0  0  0  0  0  0  0  0  0  0  0
   38.0830   27.8397   40.7727 H   0  0  0  0  0  0  0  0  0  0  0  0
   39.0558   26.3296   40.7727 H   0  0  0  0  0  0  0  0  0  0  0  0
  1  6  2  0
  2  3  2  0
  2  1  1  0
  3  4  1  0
  4  5  2  0
  6  5  1  0
  7  9  1  0
  8  7  2  0
  9  1  1  0
 10 14  1  0
 10  7  1  0
 11 10  1  0
 12 11  1  0
 12 13  1  0
 13 14  1  0
 14 17  1  0
 16 15  2  0
 17 15  1  0
 18 26  1  0
 18 25  1  0
 19 18  1  0
 20 19  1  0
 20 24  1  0
 21 20  1  0
 21 23  1  0
 22 21  2  0
 23 15  1  0
 23 24  1  0
 24 25  1  0
 27 18  1  0
 28 29  1  0
 28 30  1  0
 28  3  1  0
 31 28  1  0
  2 32  1  0
  5 33  1  0
  9 34  1  0
 11 35  1  0
 11 36  1  0
 12 37  1  0
 12 38  1  0
 13 39  1  0
 13 40  1  0
 14 41  1  1
 17 42  1  0
 19 43  1  0
 19 44  1  0
 23 45  1  1
 24 46  1  1
 26 47  1  0
 26 48  1  0
 26 49  1  0
 27 50  1  0
 27 51  1  0
 27 52  1  0
M  ISO  8  32  14  33  14  35  13  36  13  37  13  38  13  39  13  40  13
M  ISO  8  41  13  43  13  44  13  45  13  46  13  47   8  48   8  49   8
M  ISO  3  50   8  51   8  52   8
M  END
>  <minimizedAffinity>  (1) 
-7.1228385

>  <minimizedRMSD>  (1) 
1.46161866

$$$$
