
     RDKit          3D

 47 52  0  0  1  0  0  0  0  0999 V2000
   48.2160   33.3810   43.4110 N   0  0  0  0  0  0  0  0  0  0  0  0
   49.3740   33.4630   42.6560 C   0  0  0  0  0  0  0  0  0  0  0  0
   50.5260   32.9890   42.8570 O   0  0  0  0  0  0  0  0  0  0  0  0
   46.3350   32.1430   44.4470 C   0  0  1  0  0  0  0  0  0  0  0  0
   46.6180   31.4720   43.2290 C   0  0  0  0  0  0  0  0  0  0  0  0
   47.7580   32.1610   43.9990 C   0  0  1  0  0  0  0  0  0  0  0  0
   45.1160   34.0150   43.1410 C   0  0  0  0  0  0  0  0  0  0  0  0
   45.5750   33.4710   44.3630 C   0  0  0  0  0  0  0  0  0  0  0  0
   45.3450   34.1870   45.5190 C   0  0  0  0  0  0  0  0  0  0  0  0
   44.6970   35.3730   45.4390 N   0  0  0  0  0  0  0  0  0  0  0  0
   44.2610   35.8890   44.2590 C   0  0  0  0  0  0  0  0  0  0  0  0
   44.4820   35.1810   43.0730 N   0  0  0  0  0  0  0  0  0  0  0  0
   49.3620   34.2220   41.3320 C   0  0  2  0  0  0  0  0  0  0  0  0
   48.6560   35.6180   41.3490 C   0  0  0  0  0  0  0  0  0  0  0  0
   48.1240   34.4460   40.5920 C   0  0  1  0  0  0  0  0  0  0  0  0
   48.0390   34.3910   39.1220 C   0  0  0  0  0  0  0  0  0  0  0  0
   48.1480   33.1250   38.3870 C   0  0  2  0  0  0  0  0  0  0  0  0
   49.2450   33.0000   37.4150 C   0  0  0  0  0  0  0  0  0  0  0  0
   48.8770   32.2640   36.2700 N   0  0  0  0  0  0  0  0  0  0  0  0
   48.9420   31.5410   35.0470 C   0  0  2  0  0  0  0  0  0  0  0  0
   49.6590   30.6790   34.4710 O   0  0  0  0  0  0  0  0  0  0  0  0
   47.6810   32.3040   34.6950 C   0  0  0  0  0  0  0  0  0  0  0  0
   47.4350   31.9940   36.1250 C   0  0  1  0  0  0  0  0  0  0  0  0
   46.7330   33.2600   37.1890 S   0  0  0  0  0  0  0  0  0  0  0  0
   47.8360   31.8630   39.1460 C   0  0  0  0  0  0  0  0  0  0  0  0
   47.6604   34.2363   43.5552 H   0  0  0  0  0  0  0  0  0  0  0  0
   45.8324   31.8326   45.3749 H   0  0  0  0  0  0  0  0  0  0  0  0
   46.2665   31.8935   42.2757 H   0  0  0  0  0  0  0  0  0  0  0  0
   46.4450   30.4557   42.8454 H   0  0  0  0  0  0  0  0  0  0  0  0
   48.7303   31.8826   44.4316 H   0  0  0  0  0  0  0  0  0  0  0  0
   45.2902   33.4521   42.2122 H   0  0  0  0  0  0  0  0  0  0  0  0
   45.6830   33.8002   46.4917 H   0  0  0  0  0  0  0  0  0  0  0  0
   43.7381   36.8565   44.2372 H   0  0  0  0  0  0  0  0  0  0  0  0
   50.3408   33.8064   41.0505 H   0  0  0  0  0  0  0  0  0  0  0  0
   48.1462   35.9747   42.2561 H   0  0  0  0  0  0  0  0  0  0  0  0
   48.9384   36.6548   41.1139 H   0  0  0  0  0  0  0  0  0  0  0  0
   47.1474   33.9400   40.5781 H   0  0  0  0  0  0  0  0  0  0  0  0
   47.0630   34.8212   38.8529 H   0  0  0  0  0  0  0  0  0  0  0  0
   48.9551   34.9174   38.8160 H   0  0  0  0  0  0  0  0  0  0  0  0
   49.5535   34.0081   37.1011 H   0  0  0  0  0  0  0  0  0  0  0  0
   50.0655   32.4583   37.9083 H   0  0  0  0  0  0  0  0  0  0  0  0
   50.1195   30.1254   35.1504 H   0  0  0  0  0  0  0  0  0  0  0  0
   47.8064   33.3663   34.4383 H   0  0  0  0  0  0  0  0  0  0  0  0
   47.0023   32.0838   33.8578 H   0  0  0  0  0  0  0  0  0  0  0  0
   47.8855   32.0632   40.2265 H   0  0  0  0  0  0  0  0  0  0  0  0
   46.8254   31.5174   38.8831 H   0  0  0  0  0  0  0  0  0  0  0  0
   48.5691   31.0862   38.8831 H   0  0  0  0  0  0  0  0  0  0  0  0
  1  6  1  0
  2  3  2  0
  2  1  1  0
  5  6  1  0
  5  4  1  0
  6  4  1  0
  7  8  2  0
  8  4  1  0
  8  9  1  0
 10  9  2  0
 11 10  1  0
 12  7  1  0
 12 11  2  0
 13 14  1  0
 13  2  1  0
 15 13  1  0
 15 14  1  0
 16 15  1  0
 17 16  1  1
 17 25  1  0
 18 17  1  0
 19 18  1  0
 20 21  1  6
 20 23  1  0
 20 19  1  0
 22 20  1  0
 23 22  1  0
 23 19  1  0
 23 24  1  1
 24 17  1  0
  1 26  1  0
  4 27  1  1
  5 28  1  0
  5 29  1  0
  6 30  1  1
  7 31  1  0
  9 32  1  0
 11 33  1  0
 13 34  1  6
 14 35  1  0
 14 36  1  0
 15 37  1  1
 16 38  1  0
 16 39  1  0
 18 40  1  0
 18 41  1  0
 21 42  1  0
 22 43  1  0
 22 44  1  0
 25 45  1  0
 25 46  1  0
 25 47  1  0
M  ISO  8  27  13  28  13  29  13  30  13  31  14  32  14  33  14  34  13
M  ISO  8  35  13  36  13  37  13  38   8  39   8  40  13  41  13  42   3
M  ISO  5  43  13  44  13  45   8  46   8  47   8
M  END
>  <minimizedAffinity>  (1) 
-5.30876446

>  <minimizedRMSD>  (1) 
1.25134587

$$$$
