
     RDKit          3D

 53 56  0  0  1  0  0  0  0  0999 V2000
   46.1100   31.2120   46.4840 C   0  0  2  0  0  0  0  0  0  0  0  0
   45.0650   30.7720   47.4590 C   0  0  0  0  0  0  0  0  0  0  0  0
   44.6940   29.3740   47.0970 C   0  0  0  0  0  0  0  0  0  0  0  0
   45.3440   28.8270   45.8750 C   0  0  0  0  0  0  0  0  0  0  0  0
   46.8400   28.9340   45.9820 C   0  0  0  0  0  0  0  0  0  0  0  0
   47.2570   30.2220   46.5170 C   0  0  2  0  0  0  0  0  0  0  0  0
   47.6780   29.9650   47.9240 C   0  0  0  0  0  0  0  0  0  0  0  0
   51.8720   27.7450   49.9260 C   0  0  0  0  0  0  0  0  0  0  0  0
   50.8150   28.4340   50.7550 C   0  0  0  0  0  0  0  0  0  0  0  0
   50.1810   29.4390   49.9280 N   0  0  0  0  0  0  0  0  0  0  0  0
   49.6630   30.6160   49.3190 C   0  0  0  0  0  0  0  0  0  0  0  0
   49.6400   31.8170   49.7480 O   0  0  0  0  0  0  0  0  0  0  0  0
   49.2000   29.9360   48.0840 C   0  0  1  0  0  0  0  0  0  0  0  0
   49.5740   28.6790   48.8310 C   0  0  1  0  0  0  0  0  0  0  0  0
   51.1290   27.8890   48.2500 S   0  0  0  0  0  0  0  0  0  0  0  0
   51.9390   26.2620   50.2240 C   0  0  0  0  0  0  0  0  0  0  0  0
   53.2130   28.4070   50.0100 C   0  0  0  0  0  0  0  0  0  0  0  0
   46.5570   32.6150   46.6610 C   0  0  0  0  0  0  0  0  0  0  0  0
   47.3170   32.9740   47.5960 O   0  0  0  0  0  0  0  0  0  0  0  0
   44.6290   35.3080   45.1210 C   0  0  0  0  0  0  0  0  0  0  0  0
   45.1630   35.4160   43.8130 C   0  0  0  0  0  0  0  0  0  0  0  0
   46.1920   34.5470   43.4970 C   0  0  0  0  0  0  0  0  0  0  0  0
   46.5570   33.7080   44.4680 N   0  0  0  0  0  0  0  0  0  0  0  0
   46.0670   33.5990   45.6860 C   0  0  0  0  0  0  0  0  0  0  0  0
   45.0690   34.4300   46.0200 N   0  0  0  0  0  0  0  0  0  0  0  0
   46.7410   34.6470   42.1540 C   0  0  0  0  0  0  0  0  0  0  0  0
   47.4590   33.4940   41.8550 F   0  0  0  0  0  0  0  0  0  0  0  0
   47.5870   35.7070   42.1520 F   0  0  0  0  0  0  0  0  0  0  0  0
   45.7510   34.7300   41.1830 F   0  0  0  0  0  0  0  0  0  0  0  0
   45.6559   31.2139   45.4821 H   0  0  0  0  0  0  0  0  0  0  0  0
   45.4660   30.8036   48.4828 H   0  0  0  0  0  0  0  0  0  0  0  0
   44.1875   31.4342   47.4203 H   0  0  0  0  0  0  0  0  0  0  0  0
   44.9633   28.7237   47.9423 H   0  0  0  0  0  0  0  0  0  0  0  0
   43.6166   29.3984   46.8767 H   0  0  0  0  0  0  0  0  0  0  0  0
   45.0022   29.3957   44.9976 H   0  0  0  0  0  0  0  0  0  0  0  0
   45.0696   27.7670   45.7700 H   0  0  0  0  0  0  0  0  0  0  0  0
   47.2065   28.1378   46.6466 H   0  0  0  0  0  0  0  0  0  0  0  0
   47.2614   28.8332   44.9709 H   0  0  0  0  0  0  0  0  0  0  0  0
   48.0740   30.6557   45.9217 H   0  0  0  0  0  0  0  0  0  0  0  0
   47.2709   30.7608   48.5651 H   0  0  0  0  0  0  0  0  0  0  0  0
   47.2925   28.9762   48.2131 H   0  0  0  0  0  0  0  0  0  0  0  0
   50.0669   27.7005   51.0903 H   0  0  0  0  0  0  0  0  0  0  0  0
   51.2693   28.9004   51.6416 H   0  0  0  0  0  0  0  0  0  0  0  0
   49.5553   30.2268   47.0844 H   0  0  0  0  0  0  0  0  0  0  0  0
   48.7615   27.9392   48.8814 H   0  0  0  0  0  0  0  0  0  0  0  0
   51.9460   26.1068   51.3130 H   0  0  0  0  0  0  0  0  0  0  0  0
   51.0626   25.7604   49.7878 H   0  0  0  0  0  0  0  0  0  0  0  0
   52.8571   25.8415   49.7878 H   0  0  0  0  0  0  0  0  0  0  0  0
   53.4891   28.5433   51.0660 H   0  0  0  0  0  0  0  0  0  0  0  0
   53.9649   27.7766   49.5128 H   0  0  0  0  0  0  0  0  0  0  0  0
   53.1698   29.3873   49.5128 H   0  0  0  0  0  0  0  0  0  0  0  0
   43.8097   35.9835   45.4081 H   0  0  0  0  0  0  0  0  0  0  0  0
   44.7805   36.1503   43.0888 H   0  0  0  0  0  0  0  0  0  0  0  0
  1  6  1  0
  1 18  1  0
  1  2  1  0
  3  2  1  0
  4  5  1  0
  4  3  1  0
  5  6  1  0
  6  7  1  0
  8 17  1  0
  8 16  1  0
  8  9  1  0
 10  9  1  0
 11 12  2  0
 11 10  1  0
 13  7  1  0
 13 14  1  0
 13 11  1  0
 14 15  1  0
 14 10  1  0
 15  8  1  0
 18 19  2  0
 20 25  2  0
 21 20  1  0
 22 21  2  0
 22 23  1  0
 23 24  2  0
 24 25  1  0
 24 18  1  0
 26 22  1  0
 27 26  1  0
 28 26  1  0
 29 26  1  0
  1 30  1  6
  2 31  1  0
  2 32  1  0
  3 33  1  0
  3 34  1  0
  4 35  1  0
  4 36  1  0
  5 37  1  0
  5 38  1  0
  6 39  1  6
  7 40  1  0
  7 41  1  0
  9 42  1  0
  9 43  1  0
 13 44  1  6
 14 45  1  1
 16 46  1  0
 16 47  1  0
 16 48  1  0
 17 49  1  0
 17 50  1  0
 17 51  1  0
 20 52  1  0
 21 53  1  0
M  ISO  8  30  13  31  13  32  13  33  13  34  13  35  13  36  13  37  13
M  ISO  8  38  13  39  13  40   8  41   8  42  13  43  13  44  13  45  13
M  ISO  8  46   8  47   8  48   8  49   8  50   8  51   8  52  14  53  14
M  END
>  <minimizedAffinity>  (1) 
-6.14999962

>  <minimizedRMSD>  (1) 
3.4349978

$$$$
