
     RDKit          3D

 55 59  0  0  1  0  0  0  0  0999 V2000
   45.2270   35.5630   43.1060 C   0  0  0  0  0  0  0  0  0  0  0  0
   45.5810   34.2260   43.1940 C   0  0  0  0  0  0  0  0  0  0  0  0
   45.4460   33.5580   44.3860 C   0  0  0  0  0  0  0  0  0  0  0  0
   44.9490   34.2780   45.4550 N   0  0  0  0  0  0  0  0  0  0  0  0
   44.6100   35.5640   45.3630 C   0  0  0  0  0  0  0  0  0  0  0  0
   44.7560   36.1940   44.1790 N   0  0  0  0  0  0  0  0  0  0  0  0
   45.7580   32.2030   44.6400 C   0  0  0  0  0  0  0  0  0  0  0  0
   45.3980   31.1450   43.8000 C   0  0  0  0  0  0  0  0  0  0  0  0
   45.6410   29.8250   44.0780 C   0  0  0  0  0  0  0  0  0  0  0  0
   46.2760   29.4800   45.2460 C   0  0  0  0  0  0  0  0  0  0  0  0
   46.6540   30.5440   46.1200 C   0  0  0  0  0  0  0  0  0  0  0  0
   47.2860   30.2070   47.2870 C   0  0  0  0  0  0  0  0  0  0  0  0
   47.6790   31.1880   48.1730 C   0  0  0  0  0  0  0  0  0  0  0  0
   47.4280   32.5350   47.8680 C   0  0  0  0  0  0  0  0  0  0  0  0
   46.7750   32.8270   46.6570 C   0  0  0  0  0  0  0  0  0  0  0  0
   46.3920   31.8330   45.7980 C   0  0  0  0  0  0  0  0  0  0  0  0
   46.0560   33.6280   42.0600 O   0  0  0  0  0  0  0  0  0  0  0  0
   48.2290   32.1890   41.8150 O   0  0  0  0  0  0  0  0  0  0  0  0
   47.6890   33.5600   41.6180 P   0  0  1  0  0  0  0  0  0  0  0  0
   47.8800   33.9440   39.9810 O   0  0  0  0  0  0  0  0  0  0  0  0
   47.6720   32.8670   39.1430 C   0  0  0  0  0  0  0  0  0  0  0  0
   48.1350   33.3170   37.7580 C   0  0  2  0  0  0  0  0  0  0  0  0
   47.1470   32.9440   36.6920 C   0  0  0  0  0  0  0  0  0  0  0  0
   47.8710   32.5380   35.5110 N   0  0  0  0  0  0  0  0  0  0  0  0
   48.3980   32.4130   34.1930 C   0  0  0  0  0  0  0  0  0  0  0  0
   48.1050   32.8700   33.0390 O   0  0  0  0  0  0  0  0  0  0  0  0
   49.4990   31.5000   34.6170 C   0  0  0  0  0  0  0  0  0  0  0  0
   48.7190   31.4000   35.8990 C   0  0  1  0  0  0  0  0  0  0  0  0
   49.5220   32.1850   37.3470 S   0  0  0  0  0  0  0  0  0  0  0  0
   48.5580   34.7460   37.7530 C   0  0  0  0  0  0  0  0  0  0  0  0
   48.5300   34.6860   42.5370 O   0  0  0  0  0  0  0  0  0  0  0  0
   49.7040   35.3330   42.1860 C   0  0  0  0  0  0  0  0  0  0  0  0
   49.3320   36.3830   41.6330 O   0  0  0  0  0  0  0  0  0  0  0  0
   50.8540   34.5610   42.5860 N   0  0  0  0  0  0  0  0  0  0  0  0
   45.3349   36.1009   42.1526 H   0  0  0  0  0  0  0  0  0  0  0  0
   44.2176   36.1026   46.2382 H   0  0  0  0  0  0  0  0  0  0  0  0
   44.8874   31.3872   42.8563 H   0  0  0  0  0  0  0  0  0  0  0  0
   45.3286   29.0448   43.3683 H   0  0  0  0  0  0  0  0  0  0  0  0
   46.4843   28.4295   45.4972 H   0  0  0  0  0  0  0  0  0  0  0  0
   47.4810   29.1495   47.5187 H   0  0  0  0  0  0  0  0  0  0  0  0
   48.1852   30.9171   49.1113 H   0  0  0  0  0  0  0  0  0  0  0  0
   47.7328   33.3379   48.5553 H   0  0  0  0  0  0  0  0  0  0  0  0
   46.5681   33.8752   46.3952 H   0  0  0  0  0  0  0  0  0  0  0  0
   48.2603   32.0009   39.4802 H   0  0  0  0  0  0  0  0  0  0  0  0
   46.6157   32.5600   39.1352 H   0  0  0  0  0  0  0  0  0  0  0  0
   46.5183   32.1131   37.0445 H   0  0  0  0  0  0  0  0  0  0  0  0
   46.5038   33.8055   36.4594 H   0  0  0  0  0  0  0  0  0  0  0  0
   49.5833   30.5655   34.0429 H   0  0  0  0  0  0  0  0  0  0  0  0
   50.5634   31.7743   34.5753 H   0  0  0  0  0  0  0  0  0  0  0  0
   48.4121   30.3769   36.1619 H   0  0  0  0  0  0  0  0  0  0  0  0
   48.6631   35.1009   38.7889 H   0  0  0  0  0  0  0  0  0  0  0  0
   49.5228   34.8410   37.2332 H   0  0  0  0  0  0  0  0  0  0  0  0
   47.8004   35.3508   37.2332 H   0  0  0  0  0  0  0  0  0  0  0  0
   51.8027   34.9125   42.3930 H   0  0  0  0  0  0  0  0  0  0  0  0
   50.7269   33.6579   43.0648 H   0  0  0  0  0  0  0  0  0  0  0  0
  1  2  2  0
  1  6  1  0
  2  3  1  0
  3  7  1  0
  3  4  2  0
  5  4  1  0
  6  5  2  0
  7 16  2  0
  8  9  2  0
  8  7  1  0
  9 10  1  0
 10 11  2  0
 11 12  1  0
 12 13  2  0
 14 13  1  0
 15 14  2  0
 16 11  1  0
 16 15  1  0
 17  2  1  0
 19 18  2  0
 19 17  1  0
 19 31  1  0
 20 19  1  0
 21 20  1  0
 22 30  1  1
 22 21  1  0
 23 22  1  0
 24 28  1  0
 24 23  1  0
 25 27  1  0
 25 24  1  0
 26 25  2  0
 28 27  1  0
 28 29  1  0
 29 22  1  0
 32 31  1  0
 32 34  1  0
 33 32  2  0
  1 35  1  0
  5 36  1  0
  8 37  1  0
  9 38  1  0
 10 39  1  0
 12 40  1  0
 13 41  1  0
 14 42  1  0
 15 43  1  0
 21 44  1  0
 21 45  1  0
 23 46  1  0
 23 47  1  0
 27 48  1  0
 27 49  1  0
 28 50  1  1
 30 51  1  0
 30 52  1  0
 30 53  1  0
 34 54  1  0
 34 55  1  0
M  ISO  8  35  14  36  14  37  14  38  14  39  14  40  14  41  14  42  14
M  ISO  8  43  14  44   8  45   8  46  13  47  13  48  13  49  13  50  13
M  ISO  3  51   8  52   8  53   8
M  END
>  <minimizedAffinity>  (1) 
-6.69611835

>  <minimizedRMSD>  (1) 
1.12396145

$$$$
