
     RDKit          3D

 41 44  0  0  0  0  0  0  0  0999 V2000
   47.2900   33.1220   43.7570 N   0  0  0  0  0  0  0  0  0  0  0  0
   45.6690   34.1250   45.3360 C   0  0  0  0  0  0  0  0  0  0  0  0
   44.7530   35.1260   45.4830 C   0  0  0  0  0  0  0  0  0  0  0  0
   44.4440   36.0620   44.5130 C   0  0  0  0  0  0  0  0  0  0  0  0
   45.0920   35.9910   43.3170 C   0  0  0  0  0  0  0  0  0  0  0  0
   46.0200   35.0040   43.1190 C   0  0  0  0  0  0  0  0  0  0  0  0
   46.3100   34.0780   44.1150 C   0  0  0  0  0  0  0  0  0  0  0  0
   47.3850   31.5020   47.2170 C   0  0  0  0  0  0  0  0  0  0  0  0
   46.5740   31.3310   48.3350 C   0  0  0  0  0  0  0  0  0  0  0  0
   45.4210   32.1230   48.4520 C   0  0  0  0  0  0  0  0  0  0  0  0
   45.1270   33.0340   47.4740 N   0  0  0  0  0  0  0  0  0  0  0  0
   45.9550   33.1710   46.3840 C   0  0  0  0  0  0  0  0  0  0  0  0
   47.0500   32.4020   46.2960 N   0  0  0  0  0  0  0  0  0  0  0  0
   48.6490   33.1860   42.7330 S   0  0  0  0  0  0  0  0  0  0  0  0
   48.1690   33.6260   41.3440 O   0  0  0  0  0  0  0  0  0  0  0  0
   49.7220   34.1110   43.1770 O   0  0  0  0  0  0  0  0  0  0  0  0
   49.1710   31.6020   42.5190 O   0  0  0  0  0  0  0  0  0  0  0  0
   51.2400   30.3980   42.5650 C   0  0  0  0  0  0  0  0  0  0  0  0
   50.3610   31.2660   41.9440 C   0  0  0  0  0  0  0  0  0  0  0  0
   50.6850   31.8140   40.7060 C   0  0  0  0  0  0  0  0  0  0  0  0
   51.8870   31.4920   40.0950 C   0  0  0  0  0  0  0  0  0  0  0  0
   52.4630   31.8510   38.9330 N   0  0  0  0  0  0  0  0  0  0  0  0
   53.6400   31.2620   38.7980 N   0  0  0  0  0  0  0  0  0  0  0  0
   53.8930   30.4850   39.8680 C   0  0  0  0  0  0  0  0  0  0  0  0
   52.7840   30.6300   40.6870 C   0  0  0  0  0  0  0  0  0  0  0  0
   52.4330   30.1010   41.9190 C   0  0  0  0  0  0  0  0  0  0  0  0
   47.1542   32.2046   44.2051 H   0  0  0  0  0  0  0  0  0  0  0  0
   44.2214   35.1932   46.4437 H   0  0  0  0  0  0  0  0  0  0  0  0
   43.6940   36.8440   44.7025 H   0  0  0  0  0  0  0  0  0  0  0  0
   44.8726   36.7173   42.5205 H   0  0  0  0  0  0  0  0  0  0  0  0
   46.5456   34.9424   42.1547 H   0  0  0  0  0  0  0  0  0  0  0  0
   48.2961   30.8977   47.0957 H   0  0  0  0  0  0  0  0  0  0  0  0
   46.8305   30.5925   49.1088 H   0  0  0  0  0  0  0  0  0  0  0  0
   44.7587   32.0122   49.3233 H   0  0  0  0  0  0  0  0  0  0  0  0
   47.4428   34.2917   41.4414 H   0  0  0  0  0  0  0  0  0  0  0  0
   49.7491   34.1343   44.1664 H   0  0  0  0  0  0  0  0  0  0  0  0
   51.0011   29.9551   43.5432 H   0  0  0  0  0  0  0  0  0  0  0  0
   49.9856   32.5041   40.2114 H   0  0  0  0  0  0  0  0  0  0  0  0
   52.0460   32.4942   38.2451 H   0  0  0  0  0  0  0  0  0  0  0  0
   54.7856   29.8691   40.0523 H   0  0  0  0  0  0  0  0  0  0  0  0
   53.1349   29.4109   42.4100 H   0  0  0  0  0  0  0  0  0  0  0  0
  1  7  1  0
  2  3  2  0
  2 12  1  0
  4  3  1  0
  5  4  2  0
  6  5  1  0
  6  7  2  0
  7  2  1  0
  8  9  2  0
  9 10  1  0
 11 10  2  0
 12 11  1  0
 13 12  2  0
 13  8  1  0
 14 16  1  0
 14  1  1  0
 15 14  1  0
 17 14  1  0
 19 17  1  0
 19 18  2  0
 20 19  1  0
 21 25  1  0
 21 20  2  0
 22 21  1  0
 23 22  1  0
 23 24  2  0
 24 25  1  0
 25 26  2  0
 26 18  1  0
  1 27  1  0
  3 28  1  0
  4 29  1  0
  5 30  1  0
  6 31  1  0
  8 32  1  0
  9 33  1  0
 10 34  1  0
 15 35  1  0
 16 36  1  0
 18 37  1  0
 20 38  1  0
 22 39  1  0
 24 40  1  0
 26 41  1  0
M  ISO  8  28  14  29  14  30  14  31  14  32  14  33  14  34  14  35   3
M  ISO  6  36   3  37  14  38  14  39   9  40  14  41  14
M  END
>  <minimizedAffinity>  (1) 
-6.31129837

>  <minimizedRMSD>  (1) 
1.46414852

$$$$
