
     RDKit          3D

 50 53  0  0  0  0  0  0  0  0999 V2000
   45.4780   30.1750   47.3010 C   0  0  0  0  0  0  0  0  0  0  0  0
   46.1210   31.2290   46.7450 C   0  0  0  0  0  0  0  0  0  0  0  0
   46.3330   32.3490   47.5280 C   0  0  0  0  0  0  0  0  0  0  0  0
   45.9210   32.4350   48.8370 C   0  0  0  0  0  0  0  0  0  0  0  0
   45.2690   31.3550   49.3900 C   0  0  0  0  0  0  0  0  0  0  0  0
   45.0510   30.2270   48.6120 C   0  0  0  0  0  0  0  0  0  0  0  0
   45.1490   28.8340   46.2320 S   0  0  0  0  0  0  0  0  0  0  0  0
   44.4340   29.2000   44.9980 O   0  0  0  0  0  0  0  0  0  0  0  0
   44.1610   27.9310   47.0100 O   0  0  0  0  0  0  0  0  0  0  0  0
   46.9390   27.2020   44.8480 C   0  0  0  0  0  0  0  0  0  0  0  0
   46.5200   27.7650   46.0430 C   0  0  0  0  0  0  0  0  0  0  0  0
   47.3180   27.4000   47.1310 C   0  0  0  0  0  0  0  0  0  0  0  0
   48.4150   26.5780   47.0980 C   0  0  0  0  0  0  0  0  0  0  0  0
   49.2420   26.1690   48.0780 N   0  0  0  0  0  0  0  0  0  0  0  0
   50.1360   25.3830   47.5030 N   0  0  0  0  0  0  0  0  0  0  0  0
   49.8980   25.2810   46.1660 C   0  0  0  0  0  0  0  0  0  0  0  0
   48.7750   26.0570   45.8880 C   0  0  0  0  0  0  0  0  0  0  0  0
   48.0360   26.3710   44.7660 C   0  0  0  0  0  0  0  0  0  0  0  0
   46.6170   31.3380   45.4510 O   0  0  0  0  0  0  0  0  0  0  0  0
   45.3500   34.2000   43.8180 C   0  0  0  0  0  0  0  0  0  0  0  0
   46.4890   34.7070   43.1630 C   0  0  0  0  0  0  0  0  0  0  0  0
   47.6820   34.0510   43.2950 C   0  0  0  0  0  0  0  0  0  0  0  0
   47.6790   32.9440   44.0600 N   0  0  0  0  0  0  0  0  0  0  0  0
   46.6070   32.4720   44.6720 C   0  0  0  0  0  0  0  0  0  0  0  0
   45.4410   33.0990   44.5530 N   0  0  0  0  0  0  0  0  0  0  0  0
   48.9170   34.4950   42.6430 C   0  0  0  0  0  0  0  0  0  0  0  0
   48.7250   35.6510   41.7130 C   0  0  0  0  0  0  0  0  0  0  0  0
   48.5930   35.2680   40.3090 C   0  0  0  0  0  0  0  0  0  0  0  0
   48.0430   34.3490   39.5280 C   0  0  0  0  0  0  0  0  0  0  0  0
   48.2400   34.2030   38.0310 C   0  0  0  0  0  0  0  0  0  0  0  0
   46.8546   33.2096   47.0837 H   0  0  0  0  0  0  0  0  0  0  0  0
   46.1075   33.3438   49.4280 H   0  0  0  0  0  0  0  0  0  0  0  0
   44.9257   31.3864   50.4346 H   0  0  0  0  0  0  0  0  0  0  0  0
   44.5300   29.3613   49.0469 H   0  0  0  0  0  0  0  0  0  0  0  0
   46.3752   27.4266   43.9306 H   0  0  0  0  0  0  0  0  0  0  0  0
   47.0381   27.8133   48.1112 H   0  0  0  0  0  0  0  0  0  0  0  0
   49.1890   26.4184   49.0759 H   0  0  0  0  0  0  0  0  0  0  0  0
   50.4829   24.6955   45.4414 H   0  0  0  0  0  0  0  0  0  0  0  0
   48.3265   25.9520   43.7913 H   0  0  0  0  0  0  0  0  0  0  0  0
   44.3841   34.7172   43.7202 H   0  0  0  0  0  0  0  0  0  0  0  0
   46.4201   35.6195   42.5526 H   0  0  0  0  0  0  0  0  0  0  0  0
   49.6337   34.7921   43.4228 H   0  0  0  0  0  0  0  0  0  0  0  0
   49.2810   33.6523   42.0369 H   0  0  0  0  0  0  0  0  0  0  0  0
   47.8129   36.1881   42.0124 H   0  0  0  0  0  0  0  0  0  0  0  0
   49.6279   36.2747   41.7895 H   0  0  0  0  0  0  0  0  0  0  0  0
   49.1379   35.9919   39.6852 H   0  0  0  0  0  0  0  0  0  0  0  0
   47.3777   33.6199   40.0136 H   0  0  0  0  0  0  0  0  0  0  0  0
   49.1099   33.5583   37.8368 H   0  0  0  0  0  0  0  0  0  0  0  0
   47.3417   33.7508   37.5853 H   0  0  0  0  0  0  0  0  0  0  0  0
   48.4113   35.1940   37.5853 H   0  0  0  0  0  0  0  0  0  0  0  0
  1  6  2  0
  2  1  1  0
  2  3  2  0
  3  4  1  0
  4  5  2  0
  6  5  1  0
  7  9  2  0
  7  1  1  0
  8  7  2  0
 10 11  2  0
 11  7  1  0
 11 12  1  0
 13 12  2  0
 13 14  1  0
 15 14  1  0
 16 15  2  0
 17 16  1  0
 17 13  1  0
 18 10  1  0
 18 17  2  0
 19  2  1  0
 20 25  2  0
 21 22  2  0
 21 20  1  0
 22 23  1  0
 23 24  2  0
 24 19  1  0
 25 24  1  0
 26 22  1  0
 27 26  1  0
 28 27  1  0
 29 28  2  0
 30 29  1  0
  3 31  1  0
  4 32  1  0
  5 33  1  0
  6 34  1  0
 10 35  1  0
 12 36  1  0
 14 37  1  0
 16 38  1  0
 18 39  1  0
 20 40  1  0
 21 41  1  0
 26 42  1  0
 26 43  1  0
 27 44  1  0
 27 45  1  0
 28 46  1  0
 29 47  1  0
 30 48  1  0
 30 49  1  0
 30 50  1  0
M  ISO  8  31  14  32  14  33  14  34  14  35  14  36  14  37   9  38  14
M  ISO  8  39  14  40  14  41  14  42   8  43   8  44   8  45   8  48   8
M  ISO  2  49   8  50   8
M  END
>  <minimizedAffinity>  (1) 
-5.68317699

>  <minimizedRMSD>  (1) 
2.23661852

$$$$
