
     RDKit          3D

 43 46  0  0  0  0  0  0  0  0999 V2000
   45.6390   31.5940   47.1190 C   0  0  0  0  0  0  0  0  0  0  0  0
   45.5540   32.0530   48.4500 C   0  0  0  0  0  0  0  0  0  0  0  0
   45.3300   31.2240   49.5280 C   0  0  0  0  0  0  0  0  0  0  0  0
   45.1860   29.8820   49.2720 C   0  0  0  0  0  0  0  0  0  0  0  0
   45.2700   29.4220   47.9680 C   0  0  0  0  0  0  0  0  0  0  0  0
   45.4890   30.2790   46.9600 N   0  0  0  0  0  0  0  0  0  0  0  0
   44.7770   36.5870   43.8410 C   0  0  0  0  0  0  0  0  0  0  0  0
   45.6870   36.2900   42.8080 C   0  0  0  0  0  0  0  0  0  0  0  0
   46.3450   35.0510   42.8430 C   0  0  0  0  0  0  0  0  0  0  0  0
   46.0750   34.1920   43.8730 N   0  0  0  0  0  0  0  0  0  0  0  0
   45.1910   34.5210   44.8440 C   0  0  0  0  0  0  0  0  0  0  0  0
   44.5350   35.7230   44.8350 N   0  0  0  0  0  0  0  0  0  0  0  0
   45.8770   32.5430   46.0500 C   0  0  0  0  0  0  0  0  0  0  0  0
   46.8980   32.3740   45.3180 O   0  0  0  0  0  0  0  0  0  0  0  0
   44.9290   33.6080   45.9030 N   0  0  0  0  0  0  0  0  0  0  0  0
   45.1160   28.0050   47.7180 C   0  0  0  0  0  0  0  0  0  0  0  0
   44.5250   27.2290   48.6240 C   0  0  0  0  0  0  0  0  0  0  0  0
   44.2960   25.7580   48.5080 C   0  0  0  0  0  0  0  0  0  0  0  0
   46.6320   24.6880   48.2560 C   0  0  0  0  0  0  0  0  0  0  0  0
   45.5090   25.0120   49.0010 C   0  0  0  0  0  0  0  0  0  0  0  0
   45.4760   24.6170   50.3420 C   0  0  0  0  0  0  0  0  0  0  0  0
   46.5120   23.9240   50.9430 C   0  0  0  0  0  0  0  0  0  0  0  0
   46.6920   23.4560   52.1830 N   0  0  0  0  0  0  0  0  0  0  0  0
   47.8740   22.8620   52.2300 N   0  0  0  0  0  0  0  0  0  0  0  0
   48.4750   22.9350   51.0250 C   0  0  0  0  0  0  0  0  0  0  0  0
   47.6220   23.6120   50.1840 C   0  0  0  0  0  0  0  0  0  0  0  0
   47.6530   24.0030   48.8550 C   0  0  0  0  0  0  0  0  0  0  0  0
   45.6729   33.1303   48.6377 H   0  0  0  0  0  0  0  0  0  0  0  0
   45.2690   31.6209   50.5521 H   0  0  0  0  0  0  0  0  0  0  0  0
   45.0052   29.1773   50.0971 H   0  0  0  0  0  0  0  0  0  0  0  0
   44.2516   37.5534   43.8310 H   0  0  0  0  0  0  0  0  0  0  0  0
   45.8766   37.0086   41.9970 H   0  0  0  0  0  0  0  0  0  0  0  0
   47.0640   34.7758   42.0574 H   0  0  0  0  0  0  0  0  0  0  0  0
   44.1123   33.7058   46.5230 H   0  0  0  0  0  0  0  0  0  0  0  0
   45.4874   27.5689   46.7789 H   0  0  0  0  0  0  0  0  0  0  0  0
   44.1723   27.7173   49.5444 H   0  0  0  0  0  0  0  0  0  0  0  0
   43.4224   25.4755   49.1138 H   0  0  0  0  0  0  0  0  0  0  0  0
   44.1150   25.5007   47.4540 H   0  0  0  0  0  0  0  0  0  0  0  0
   46.7011   24.9779   47.1972 H   0  0  0  0  0  0  0  0  0  0  0  0
   44.5900   24.8675   50.9439 H   0  0  0  0  0  0  0  0  0  0  0  0
   46.0270   23.5427   52.9648 H   0  0  0  0  0  0  0  0  0  0  0  0
   49.4632   22.5289   50.7632 H   0  0  0  0  0  0  0  0  0  0  0  0
   48.5393   23.7509   48.2543 H   0  0  0  0  0  0  0  0  0  0  0  0
  1  2  2  0
  2  3  1  0
  4  3  2  0
  5  4  1  0
  6  1  1  0
  6  5  2  0
  7 12  2  0
  8  9  2  0
  8  7  1  0
  9 10  1  0
 10 11  2  0
 11 15  1  0
 12 11  1  0
 13  1  1  0
 14 13  2  0
 15 13  1  0
 16  5  1  0
 16 17  2  0
 18 17  1  0
 18 20  1  0
 19 27  2  0
 19 20  1  0
 20 21  2  0
 21 22  1  0
 22 23  1  0
 23 24  1  0
 25 24  2  0
 26 22  2  0
 26 25  1  0
 27 26  1  0
  2 28  1  0
  3 29  1  0
  4 30  1  0
  7 31  1  0
  8 32  1  0
  9 33  1  0
 15 34  1  0
 16 35  1  0
 17 36  1  0
 18 37  1  0
 18 38  1  0
 19 39  1  0
 21 40  1  0
 23 41  1  0
 25 42  1  0
 27 43  1  0
M  ISO  8  28  14  29  14  30  14  31  14  32  14  33  14  37   8  38   8
M  ISO  5  39  14  40  14  41   9  42  14  43  14
M  END
>  <minimizedAffinity>  (1) 
-6.53621006

>  <minimizedRMSD>  (1) 
3.18249726

$$$$
