
     RDKit          3D

 46 51  0  0  0  0  0  0  0  0999 V2000
   45.9960   33.3780   41.6460 C   0  0  0  0  0  0  0  0  0  0  0  0
   47.2030   34.0410   41.3690 C   0  0  0  0  0  0  0  0  0  0  0  0
   48.1650   34.0400   42.3610 C   0  0  0  0  0  0  0  0  0  0  0  0
   47.8660   33.3950   43.5310 N   0  0  0  0  0  0  0  0  0  0  0  0
   46.7110   32.7690   43.7780 C   0  0  0  0  0  0  0  0  0  0  0  0
   45.7690   32.7570   42.8320 N   0  0  0  0  0  0  0  0  0  0  0  0
   46.6760   30.7580   45.1880 C   0  0  0  0  0  0  0  0  0  0  0  0
   46.5030   32.1180   45.0540 C   0  0  0  0  0  0  0  0  0  0  0  0
   46.1170   32.9440   46.1240 C   0  0  0  0  0  0  0  0  0  0  0  0
   45.8970   32.3910   47.3820 C   0  0  0  0  0  0  0  0  0  0  0  0
   45.5330   32.8450   48.6060 N   0  0  0  0  0  0  0  0  0  0  0  0
   45.4900   31.7800   49.4570 C   0  0  0  0  0  0  0  0  0  0  0  0
   45.8270   30.6860   48.7480 N   0  0  0  0  0  0  0  0  0  0  0  0
   46.0830   31.0270   47.4740 C   0  0  0  0  0  0  0  0  0  0  0  0
   46.4600   30.1840   46.4400 C   0  0  0  0  0  0  0  0  0  0  0  0
   49.4570   34.7210   42.1300 C   0  0  0  0  0  0  0  0  0  0  0  0
   49.2830   35.8420   41.3090 F   0  0  0  0  0  0  0  0  0  0  0  0
   49.9710   35.1900   43.3140 F   0  0  0  0  0  0  0  0  0  0  0  0
   50.3110   33.8350   41.5190 F   0  0  0  0  0  0  0  0  0  0  0  0
   47.3650   34.6390   40.1640 O   0  0  0  0  0  0  0  0  0  0  0  0
   47.3710   33.9310   38.9830 C   0  0  0  0  0  0  0  0  0  0  0  0
   48.5100   34.4000   38.3430 C   0  0  0  0  0  0  0  0  0  0  0  0
   48.5210   33.4470   36.7580 S   0  0  0  0  0  0  0  0  0  0  0  0
   46.9460   32.5690   37.2600 C   0  0  0  0  0  0  0  0  0  0  0  0
   46.7910   33.0450   38.2370 N   0  0  0  0  0  0  0  0  0  0  0  0
   46.7930   30.2700   36.4600 C   0  0  0  0  0  0  0  0  0  0  0  0
   46.2390   31.5290   36.4230 C   0  0  0  0  0  0  0  0  0  0  0  0
   45.1390   31.9430   35.7270 C   0  0  0  0  0  0  0  0  0  0  0  0
   44.5090   30.9700   34.9680 C   0  0  0  0  0  0  0  0  0  0  0  0
   43.4180   31.0030   34.1650 N   0  0  0  0  0  0  0  0  0  0  0  0
   43.2350   29.7820   33.6640 N   0  0  0  0  0  0  0  0  0  0  0  0
   44.1780   28.9360   34.1140 C   0  0  0  0  0  0  0  0  0  0  0  0
   45.0030   29.6760   34.9490 C   0  0  0  0  0  0  0  0  0  0  0  0
   46.1130   29.3580   35.6820 C   0  0  0  0  0  0  0  0  0  0  0  0
   45.2093   33.3613   40.8773 H   0  0  0  0  0  0  0  0  0  0  0  0
   46.9770   30.1405   44.3289 H   0  0  0  0  0  0  0  0  0  0  0  0
   45.9891   34.0252   45.9672 H   0  0  0  0  0  0  0  0  0  0  0  0
   45.3251   33.8236   48.8509 H   0  0  0  0  0  0  0  0  0  0  0  0
   45.2284   31.8094   50.5250 H   0  0  0  0  0  0  0  0  0  0  0  0
   46.5840   29.1030   46.6013 H   0  0  0  0  0  0  0  0  0  0  0  0
   49.2301   35.1542   38.6930 H   0  0  0  0  0  0  0  0  0  0  0  0
   47.6865   30.0175   37.0498 H   0  0  0  0  0  0  0  0  0  0  0  0
   44.7770   32.9810   35.7665 H   0  0  0  0  0  0  0  0  0  0  0  0
   42.8320   31.8285   33.9749 H   0  0  0  0  0  0  0  0  0  0  0  0
   44.2762   27.8682   33.8687 H   0  0  0  0  0  0  0  0  0  0  0  0
   46.4816   28.3221   35.6489 H   0  0  0  0  0  0  0  0  0  0  0  0
  1  6  2  0
  2  1  1  0
  2  3  2  0
  3  4  1  0
  4  5  2  0
  5  8  1  0
  6  5  1  0
  7 15  2  0
  8  7  1  0
  8  9  2  0
  9 10  1  0
 10 14  2  0
 10 11  1  0
 11 12  1  0
 13 12  2  0
 14 13  1  0
 15 14  1  0
 16  3  1  0
 16 18  1  0
 17 16  1  0
 19 16  1  0
 20  2  1  0
 21 20  1  0
 22 21  2  0
 23 24  1  0
 23 22  1  0
 24 25  2  0
 25 21  1  0
 27 26  2  0
 27 24  1  0
 28 27  1  0
 29 28  2  0
 30 29  1  0
 31 32  2  0
 31 30  1  0
 32 33  1  0
 33 29  1  0
 33 34  2  0
 34 26  1  0
  1 35  1  0
  7 36  1  0
  9 37  1  0
 11 38  1  0
 12 39  1  0
 15 40  1  0
 22 41  1  0
 26 42  1  0
 28 43  1  0
 30 44  1  0
 32 45  1  0
 34 46  1  0
M  ISO  8  35  14  36  14  37  14  38   9  39  14  40  14  41  14  42  14
M  ISO  4  43  14  44   9  45  14  46  14
M  END
>  <minimizedAffinity>  (1) 
-7.02910757

>  <minimizedRMSD>  (1) 
0.722077668

$$$$
