
     RDKit          3D

 49 53  0  0  1  0  0  0  0  0999 V2000
   44.7240   35.0500   45.2520 C   0  0  0  0  0  0  0  0  0  0  0  0
   45.5170   34.9270   44.0990 C   0  0  0  0  0  0  0  0  0  0  0  0
   46.5180   33.9420   44.0650 C   0  0  0  0  0  0  0  0  0  0  0  0
   46.6160   33.1890   45.1870 N   0  0  0  0  0  0  0  0  0  0  0  0
   45.8510   33.3180   46.2820 C   0  0  0  0  0  0  0  0  0  0  0  0
   44.9000   34.2660   46.2940 N   0  0  0  0  0  0  0  0  0  0  0  0
   47.3810   33.7150   42.9690 N   0  0  0  0  0  0  0  0  0  0  0  0
   46.9590   32.8720   41.8740 C   0  0  0  0  0  0  0  0  0  0  0  0
   48.1440   32.3390   41.1030 C   0  0  0  0  0  0  0  0  0  0  0  0
   49.0790   33.3210   40.7040 N   0  0  0  0  0  0  0  0  0  0  0  0
   49.2990   34.3920   41.5970 C   0  0  2  0  0  0  0  0  0  0  0  0
   48.6790   34.3200   42.9360 C   0  0  0  0  0  0  0  0  0  0  0  0
   48.8520   35.6800   40.9490 C   0  0  0  0  0  0  0  0  0  0  0  0
   49.6530   36.7360   41.3570 F   0  0  0  0  0  0  0  0  0  0  0  0
   47.5780   35.9380   41.4450 F   0  0  0  0  0  0  0  0  0  0  0  0
   48.8720   35.6360   39.5850 F   0  0  0  0  0  0  0  0  0  0  0  0
   46.0500   32.4480   47.4320 C   0  0  0  0  0  0  0  0  0  0  0  0
   44.9680   32.0390   48.1700 C   0  0  0  0  0  0  0  0  0  0  0  0
   45.2020   31.2080   49.2610 C   0  0  0  0  0  0  0  0  0  0  0  0
   46.5040   30.8630   49.5120 C   0  0  0  0  0  0  0  0  0  0  0  0
   47.5890   31.2670   48.7820 C   0  0  0  0  0  0  0  0  0  0  0  0
   47.3310   32.0730   47.7290 N   0  0  0  0  0  0  0  0  0  0  0  0
   49.4070   29.6860   48.5630 C   0  0  0  0  0  0  0  0  0  0  0  0
   48.9720   30.9050   49.0420 C   0  0  0  0  0  0  0  0  0  0  0  0
   49.8350   31.7280   49.7340 C   0  0  0  0  0  0  0  0  0  0  0  0
   51.1370   31.3320   49.9490 C   0  0  0  0  0  0  0  0  0  0  0  0
   52.2110   31.8910   50.5750 N   0  0  0  0  0  0  0  0  0  0  0  0
   53.2700   31.1000   50.5130 N   0  0  0  0  0  0  0  0  0  0  0  0
   52.9610   29.9620   49.8380 C   0  0  0  0  0  0  0  0  0  0  0  0
   51.6350   30.1070   49.4870 C   0  0  0  0  0  0  0  0  0  0  0  0
   50.7370   29.3160   48.8000 C   0  0  0  0  0  0  0  0  0  0  0  0
   43.9382   35.8191   45.2845 H   0  0  0  0  0  0  0  0  0  0  0  0
   45.3567   35.5911   43.2369 H   0  0  0  0  0  0  0  0  0  0  0  0
   46.3824   32.0255   42.2752 H   0  0  0  0  0  0  0  0  0  0  0  0
   46.3423   33.4739   41.1903 H   0  0  0  0  0  0  0  0  0  0  0  0
   48.6652   31.6076   41.7382 H   0  0  0  0  0  0  0  0  0  0  0  0
   47.7411   31.8998   40.1785 H   0  0  0  0  0  0  0  0  0  0  0  0
   49.9823   32.8488   40.5555 H   0  0  0  0  0  0  0  0  0  0  0  0
   50.3805   34.3351   41.7899 H   0  0  0  0  0  0  0  0  0  0  0  0
   49.3444   33.7367   43.5895 H   0  0  0  0  0  0  0  0  0  0  0  0
   48.5428   35.3596   43.2687 H   0  0  0  0  0  0  0  0  0  0  0  0
   43.9485   32.3578   47.9075 H   0  0  0  0  0  0  0  0  0  0  0  0
   44.3788   30.8443   49.8936 H   0  0  0  0  0  0  0  0  0  0  0  0
   46.6934   30.2055   50.3733 H   0  0  0  0  0  0  0  0  0  0  0  0
   48.7268   29.0221   48.0094 H   0  0  0  0  0  0  0  0  0  0  0  0
   49.4846   32.6991   50.1138 H   0  0  0  0  0  0  0  0  0  0  0  0
   52.1997   32.8114   51.0372 H   0  0  0  0  0  0  0  0  0  0  0  0
   53.6233   29.1114   49.6193 H   0  0  0  0  0  0  0  0  0  0  0  0
   51.0837   28.3442   48.4186 H   0  0  0  0  0  0  0  0  0  0  0  0
  1  6  2  0
  2  1  1  0
  3  2  2  0
  3  4  1  0
  4  5  2  0
  5  6  1  0
  5 17  1  0
  7  3  1  0
  8  7  1  0
  9  8  1  0
 10  9  1  0
 10 11  1  0
 11 12  1  0
 12  7  1  0
 13 14  1  0
 13 15  1  0
 13 11  1  0
 16 13  1  0
 17 22  1  0
 17 18  2  0
 18 19  1  0
 19 20  2  0
 21 24  1  0
 21 20  1  0
 22 21  2  0
 23 31  2  0
 23 24  1  0
 24 25  2  0
 25 26  1  0
 26 27  1  0
 28 27  1  0
 29 28  2  0
 30 29  1  0
 30 26  2  0
 31 30  1  0
  1 32  1  0
  2 33  1  0
  8 34  1  0
  8 35  1  0
  9 36  1  0
  9 37  1  0
 10 38  1  0
 11 39  1  1
 12 40  1  0
 12 41  1  0
 18 42  1  0
 19 43  1  0
 20 44  1  0
 23 45  1  0
 25 46  1  0
 27 47  1  0
 29 48  1  0
 31 49  1  0
M  ISO  8  32  14  33  14  34  13  35  13  36  13  37  13  38   5  39  13
M  ISO  8  40  13  41  13  42  14  43  14  44  14  45  14  46  14  47   9
M  ISO  2  48  14  49  14
M  END
>  <minimizedAffinity>  (1) 
-7.78851509

>  <minimizedRMSD>  (1) 
0.204552472

$$$$
