
     RDKit          3D

 54 59  0  0  1  0  0  0  0  0999 V2000
   47.0180   29.2810   46.3210 N   0  0  0  0  0  0  0  0  0  0  0  0
   46.4020   28.9790   45.0890 C   0  0  1  0  0  0  0  0  0  0  0  0
   45.0980   28.2840   45.3610 C   0  0  0  0  0  0  0  0  0  0  0  0
   44.2820   29.2800   45.9950 N   0  0  0  0  0  0  0  0  0  0  0  0
   44.7720   29.6200   47.3120 C   0  0  0  0  0  0  0  0  0  0  0  0
   46.2570   29.7560   47.4100 C   0  0  2  0  0  0  0  0  0  0  0  0
   45.6690   32.1960   43.8420 C   0  0  0  0  0  0  0  0  0  0  0  0
   45.8130   31.5150   42.6460 C   0  0  0  0  0  0  0  0  0  0  0  0
   46.1060   30.2240   42.9430 C   0  0  0  0  0  0  0  0  0  0  0  0
   46.1360   30.1340   44.2900 N   0  0  0  0  0  0  0  0  0  0  0  0
   45.8730   31.3230   44.8070 N   0  0  0  0  0  0  0  0  0  0  0  0
   44.7700   35.4520   45.2950 C   0  0  0  0  0  0  0  0  0  0  0  0
   44.7660   36.3030   44.1870 C   0  0  0  0  0  0  0  0  0  0  0  0
   45.0730   35.7460   42.9560 C   0  0  0  0  0  0  0  0  0  0  0  0
   45.3560   34.4200   42.9040 N   0  0  0  0  0  0  0  0  0  0  0  0
   45.3480   33.6320   43.9980 C   0  0  0  0  0  0  0  0  0  0  0  0
   45.0550   34.1370   45.2090 N   0  0  0  0  0  0  0  0  0  0  0  0
   46.5490   31.1950   47.7670 C   0  0  1  0  0  0  0  0  0  0  0  0
   46.2930   31.5730   49.2260 C   0  0  0  0  0  0  0  0  0  0  0  0
   47.6560   31.5750   48.6570 C   0  0  1  0  0  0  0  0  0  0  0  0
   48.6850   30.5220   49.0890 C   0  0  0  0  0  0  0  0  0  0  0  0
   50.3270   30.5430   51.0000 C   0  0  0  0  0  0  0  0  0  0  0  0
   49.7520   31.1570   49.9200 C   0  0  0  0  0  0  0  0  0  0  0  0
   50.2030   32.4430   49.5960 C   0  0  0  0  0  0  0  0  0  0  0  0
   51.1870   33.0510   50.3460 C   0  0  0  0  0  0  0  0  0  0  0  0
   51.7720   34.2630   50.2290 N   0  0  0  0  0  0  0  0  0  0  0  0
   52.6620   34.3720   51.2020 N   0  0  0  0  0  0  0  0  0  0  0  0
   52.6760   33.2530   51.9590 C   0  0  0  0  0  0  0  0  0  0  0  0
   51.7390   32.3960   51.4280 C   0  0  0  0  0  0  0  0  0  0  0  0
   51.3150   31.1110   51.7830 C   0  0  0  0  0  0  0  0  0  0  0  0
   47.7309   29.9982   46.1254 H   0  0  0  0  0  0  0  0  0  0  0  0
   47.1023   28.3440   44.5265 H   0  0  0  0  0  0  0  0  0  0  0  0
   44.6362   27.9436   44.4224 H   0  0  0  0  0  0  0  0  0  0  0  0
   45.2253   27.3887   45.9873 H   0  0  0  0  0  0  0  0  0  0  0  0
   44.2789   30.1288   45.4115 H   0  0  0  0  0  0  0  0  0  0  0  0
   44.3199   30.5778   47.6091 H   0  0  0  0  0  0  0  0  0  0  0  0
   44.4922   28.7860   47.9724 H   0  0  0  0  0  0  0  0  0  0  0  0
   46.5991   29.0686   48.1977 H   0  0  0  0  0  0  0  0  0  0  0  0
   45.7089   31.9426   41.6379 H   0  0  0  0  0  0  0  0  0  0  0  0
   46.2844   29.4091   42.2260 H   0  0  0  0  0  0  0  0  0  0  0  0
   44.5298   35.8739   46.2821 H   0  0  0  0  0  0  0  0  0  0  0  0
   44.5286   37.3723   44.2878 H   0  0  0  0  0  0  0  0  0  0  0  0
   45.0869   36.3624   42.0451 H   0  0  0  0  0  0  0  0  0  0  0  0
   46.2516   31.5336   46.7635 H   0  0  0  0  0  0  0  0  0  0  0  0
   45.7945   32.5219   49.4732 H   0  0  0  0  0  0  0  0  0  0  0  0
   45.8011   31.0968   50.0869 H   0  0  0  0  0  0  0  0  0  0  0  0
   48.4562   32.3282   48.6080 H   0  0  0  0  0  0  0  0  0  0  0  0
   48.1813   29.7415   49.6781 H   0  0  0  0  0  0  0  0  0  0  0  0
   49.1432   30.0778   48.1931 H   0  0  0  0  0  0  0  0  0  0  0  0
   49.9806   29.5323   51.2619 H   0  0  0  0  0  0  0  0  0  0  0  0
   49.7681   32.9724   48.7354 H   0  0  0  0  0  0  0  0  0  0  0  0
   51.5632   34.9731   49.5127 H   0  0  0  0  0  0  0  0  0  0  0  0
   53.3151   33.0629   52.8339 H   0  0  0  0  0  0  0  0  0  0  0  0
   51.7466   30.5784   52.6432 H   0  0  0  0  0  0  0  0  0  0  0  0
  1  6  1  0
  2  3  1  0
  2  1  1  0
  3  4  1  0
  4  5  1  0
  5  6  1  0
  6 18  1  0
  7 16  1  0
  7 11  2  0
  8  9  2  0
  8  7  1  0
  9 10  1  0
 10 11  1  0
 10  2  1  0
 13 12  2  0
 14 13  1  0
 15 14  2  0
 15 16  1  0
 16 17  2  0
 17 12  1  0
 18 20  1  0
 18 19  1  0
 20 21  1  0
 20 19  1  0
 21 23  1  0
 22 30  2  0
 23 22  1  0
 24 23  2  0
 24 25  1  0
 25 29  2  0
 26 25  1  0
 26 27  1  0
 27 28  2  0
 29 30  1  0
 29 28  1  0
  1 31  1  0
  2 32  1  6
  3 33  1  0
  3 34  1  0
  4 35  1  0
  5 36  1  0
  5 37  1  0
  6 38  1  1
  8 39  1  0
  9 40  1  0
 12 41  1  0
 13 42  1  0
 14 43  1  0
 18 44  1  6
 19 45  1  0
 19 46  1  0
 20 47  1  6
 21 48  1  0
 21 49  1  0
 22 50  1  0
 24 51  1  0
 26 52  1  0
 28 53  1  0
 30 54  1  0
M  ISO  8  31   5  32  13  33  13  34  13  35   5  36  13  37  13  38  13
M  ISO  8  39  14  40  14  41  14  42  14  43  14  44  13  45  13  46  13
M  ISO  8  47  13  48   8  49   8  50  14  51  14  52   9  53  14  54  14
M  END
>  <minimizedAffinity>  (1) 
-6.39750528

>  <minimizedRMSD>  (1) 
1.8040334

$$$$
