
     RDKit          3D

 50 54  0  0  0  0  0  0  0  0999 V2000
   44.3100   33.5290   41.3330 C   0  0  0  0  0  0  0  0  0  0  0  0
   43.4540   33.2960   42.2650 O   0  0  0  0  0  0  0  0  0  0  0  0
   45.5140   34.1190   41.8290 N   0  0  0  0  0  0  0  0  0  0  0  0
   45.3800   34.3190   43.2580 C   0  0  0  0  0  0  0  0  0  0  0  0
   44.6890   35.3160   43.8740 C   0  0  0  0  0  0  0  0  0  0  0  0
   44.6770   35.3400   45.2440 C   0  0  0  0  0  0  0  0  0  0  0  0
   45.3530   34.3740   45.8930 N   0  0  0  0  0  0  0  0  0  0  0  0
   46.0370   33.3880   45.2660 C   0  0  0  0  0  0  0  0  0  0  0  0
   46.0530   33.3550   43.9140 N   0  0  0  0  0  0  0  0  0  0  0  0
   47.1390   31.2040   45.3910 C   0  0  0  0  0  0  0  0  0  0  0  0
   46.7550   32.3580   46.0430 C   0  0  0  0  0  0  0  0  0  0  0  0
   47.0370   32.5420   47.3800 C   0  0  0  0  0  0  0  0  0  0  0  0
   47.7130   31.5300   48.0310 C   0  0  0  0  0  0  0  0  0  0  0  0
   48.1500   31.3570   49.3010 N   0  0  0  0  0  0  0  0  0  0  0  0
   48.7640   30.1740   49.4270 N   0  0  0  0  0  0  0  0  0  0  0  0
   48.7540   29.5300   48.2580 C   0  0  0  0  0  0  0  0  0  0  0  0
   48.0930   30.3750   47.3660 C   0  0  0  0  0  0  0  0  0  0  0  0
   47.8110   30.1870   46.0190 C   0  0  0  0  0  0  0  0  0  0  0  0
   44.0320   36.2540   43.0390 N   0  0  0  0  0  0  0  0  0  0  0  0
   44.1690   33.2690   39.9660 O   0  0  0  0  0  0  0  0  0  0  0  0
   42.4080   30.8760   39.8510 Cl  0  0  0  0  0  0  0  0  0  0  0  0
   42.0270   32.4860   39.2780 C   0  0  0  0  0  0  0  0  0  0  0  0
   42.9220   33.5490   39.3770 C   0  0  0  0  0  0  0  0  0  0  0  0
   42.5790   34.7900   38.9160 C   0  0  0  0  0  0  0  0  0  0  0  0
   41.3550   35.0620   38.3370 C   0  0  0  0  0  0  0  0  0  0  0  0
   40.4310   33.9990   38.2260 C   0  0  0  0  0  0  0  0  0  0  0  0
   38.8530   34.2560   37.5050 Cl  0  0  0  0  0  0  0  0  0  0  0  0
   40.8160   32.7620   38.7050 C   0  0  0  0  0  0  0  0  0  0  0  0
   39.0750   32.2580   40.7350 F   0  0  0  0  0  0  0  0  0  0  0  0
   38.9990   31.4270   39.6390 C   0  0  0  0  0  0  0  0  0  0  0  0
   39.8670   31.6570   38.5950 C   0  0  0  0  0  0  0  0  0  0  0  0
   39.7610   30.7930   37.4980 C   0  0  0  0  0  0  0  0  0  0  0  0
   38.8160   29.7810   37.5220 C   0  0  0  0  0  0  0  0  0  0  0  0
   37.9660   29.6040   38.6140 C   0  0  0  0  0  0  0  0  0  0  0  0
   38.0430   30.4460   39.7220 C   0  0  0  0  0  0  0  0  0  0  0  0
   46.3403   34.3618   41.2640 H   0  0  0  0  0  0  0  0  0  0  0  0
   44.1335   36.1220   45.7945 H   0  0  0  0  0  0  0  0  0  0  0  0
   46.8960   31.0955   44.3237 H   0  0  0  0  0  0  0  0  0  0  0  0
   46.7351   33.4591   47.9070 H   0  0  0  0  0  0  0  0  0  0  0  0
   48.0273   32.0394   50.0627 H   0  0  0  0  0  0  0  0  0  0  0  0
   49.1789   28.5385   48.0425 H   0  0  0  0  0  0  0  0  0  0  0  0
   48.1102   29.2728   45.4855 H   0  0  0  0  0  0  0  0  0  0  0  0
   43.4954   37.0278   43.4563 H   0  0  0  0  0  0  0  0  0  0  0  0
   44.0911   36.1619   42.0148 H   0  0  0  0  0  0  0  0  0  0  0  0
   43.3096   35.6069   39.0104 H   0  0  0  0  0  0  0  0  0  0  0  0
   41.1082   36.0710   37.9749 H   0  0  0  0  0  0  0  0  0  0  0  0
   40.4211   30.9168   36.6268 H   0  0  0  0  0  0  0  0  0  0  0  0
   38.7337   29.1016   36.6608 H   0  0  0  0  0  0  0  0  0  0  0  0
   37.2261   28.7901   38.6004 H   0  0  0  0  0  0  0  0  0  0  0  0
   37.3866   30.3327   40.5974 H   0  0  0  0  0  0  0  0  0  0  0  0
  1  3  1  0
  1  2  2  0
  3  4  1  0
  4  5  2  0
  4  9  1  0
  5  6  1  0
  6  7  2  0
  8  7  1  0
  8 11  1  0
  9  8  2  0
 10 18  2  0
 10 11  1  0
 11 12  2  0
 12 13  1  0
 13 14  1  0
 14 15  1  0
 16 15  2  0
 17 13  2  0
 17 16  1  0
 18 17  1  0
 19  5  1  0
 20  1  1  0
 22 23  2  0
 22 21  1  0
 23 20  1  0
 24 23  1  0
 25 24  2  0
 26 25  1  0
 26 28  2  0
 27 26  1  0
 28 22  1  0
 30 35  2  0
 30 29  1  0
 31 28  1  0
 31 30  1  0
 32 33  1  0
 32 31  2  0
 33 34  2  0
 34 35  1  0
  3 36  1  0
  6 37  1  0
 10 38  1  0
 12 39  1  0
 14 40  1  0
 16 41  1  0
 18 42  1  0
 19 43  1  0
 19 44  1  0
 24 45  1  0
 25 46  1  0
 32 47  1  0
 33 48  1  0
 34 49  1  0
 35 50  1  0
M  END
>  <minimizedAffinity>  (1) 
-7.7373457

>  <minimizedRMSD>  (1) 
2.62254262

$$$$
