
     RDKit          3D

 43 48  0  0  0  0  0  0  0  0999 V2000
   46.8150   31.2380   45.1920 C   0  0  0  0  0  0  0  0  0  0  0  0
   46.6450   32.6090   45.2830 C   0  0  0  0  0  0  0  0  0  0  0  0
   46.2080   33.2300   46.4280 C   0  0  0  0  0  0  0  0  0  0  0  0
   45.9170   32.4730   47.5630 C   0  0  0  0  0  0  0  0  0  0  0  0
   45.4780   32.7340   48.8250 N   0  0  0  0  0  0  0  0  0  0  0  0
   45.3810   31.5580   49.4940 C   0  0  0  0  0  0  0  0  0  0  0  0
   45.7620   30.5820   48.6340 N   0  0  0  0  0  0  0  0  0  0  0  0
   46.0950   31.1230   47.4420 C   0  0  0  0  0  0  0  0  0  0  0  0
   46.5300   30.4670   46.3140 C   0  0  0  0  0  0  0  0  0  0  0  0
   46.3530   35.1810   42.6620 C   0  0  0  0  0  0  0  0  0  0  0  0
   47.5200   34.9930   41.9310 C   0  0  0  0  0  0  0  0  0  0  0  0
   48.4040   33.9950   42.3280 C   0  0  0  0  0  0  0  0  0  0  0  0
   48.0860   33.2370   43.4260 N   0  0  0  0  0  0  0  0  0  0  0  0
   46.9370   33.4430   44.1200 C   0  0  0  0  0  0  0  0  0  0  0  0
   46.0870   34.4020   43.7400 N   0  0  0  0  0  0  0  0  0  0  0  0
   46.6850   29.0150   46.2980 C   0  0  0  0  0  0  0  0  0  0  0  0
   47.8780   28.3570   46.5320 C   0  0  0  0  0  0  0  0  0  0  0  0
   47.5430   27.0050   46.4140 C   0  0  0  0  0  0  0  0  0  0  0  0
   46.2000   26.9230   46.1220 C   0  0  0  0  0  0  0  0  0  0  0  0
   45.7320   28.1500   46.0620 O   0  0  0  0  0  0  0  0  0  0  0  0
   44.2690   25.8240   45.1120 C   0  0  0  0  0  0  0  0  0  0  0  0
   45.4010   25.7220   45.9080 C   0  0  0  0  0  0  0  0  0  0  0  0
   45.7640   24.5220   46.4830 C   0  0  0  0  0  0  0  0  0  0  0  0
   44.9670   23.4100   46.2460 C   0  0  0  0  0  0  0  0  0  0  0  0
   45.1140   22.1290   46.6970 N   0  0  0  0  0  0  0  0  0  0  0  0
   44.1090   21.4030   46.2130 N   0  0  0  0  0  0  0  0  0  0  0  0
   43.3100   22.1800   45.4590 C   0  0  0  0  0  0  0  0  0  0  0  0
   43.8180   23.4610   45.4530 C   0  0  0  0  0  0  0  0  0  0  0  0
   43.5110   24.6880   44.9090 C   0  0  0  0  0  0  0  0  0  0  0  0
   47.1654   30.7719   44.2593 H   0  0  0  0  0  0  0  0  0  0  0  0
   46.0877   34.3232   46.4497 H   0  0  0  0  0  0  0  0  0  0  0  0
   45.2573   33.6650   49.2064 H   0  0  0  0  0  0  0  0  0  0  0  0
   45.0552   31.4222   50.5359 H   0  0  0  0  0  0  0  0  0  0  0  0
   45.6415   35.9655   42.3648 H   0  0  0  0  0  0  0  0  0  0  0  0
   47.7404   35.6213   41.0554 H   0  0  0  0  0  0  0  0  0  0  0  0
   49.3374   33.8177   41.7736 H   0  0  0  0  0  0  0  0  0  0  0  0
   48.8613   28.7950   46.7582 H   0  0  0  0  0  0  0  0  0  0  0  0
   48.2316   26.1556   46.5335 H   0  0  0  0  0  0  0  0  0  0  0  0
   43.9835   26.7832   44.6554 H   0  0  0  0  0  0  0  0  0  0  0  0
   46.6623   24.4478   47.1135 H   0  0  0  0  0  0  0  0  0  0  0  0
   45.8706   21.7850   47.3054 H   0  0  0  0  0  0  0  0  0  0  0  0
   42.4020   21.8478   44.9344 H   0  0  0  0  0  0  0  0  0  0  0  0
   42.6132   24.7675   44.2785 H   0  0  0  0  0  0  0  0  0  0  0  0
  1  2  2  0
  1  9  1  0
  2  3  1  0
  3  4  2  0
  4  5  1  0
  5  6  1  0
  7  6  2  0
  8  4  1  0
  8  7  1  0
  9  8  2  0
 10 15  2  0
 11 12  2  0
 11 10  1  0
 12 13  1  0
 13 14  2  0
 14  2  1  0
 15 14  1  0
 16  9  1  0
 16 17  2  0
 18 17  1  0
 19 18  2  0
 20 19  1  0
 20 16  1  0
 21 22  2  0
 22 19  1  0
 22 23  1  0
 24 23  2  0
 24 25  1  0
 26 25  1  0
 27 26  2  0
 28 27  1  0
 28 24  1  0
 29 21  1  0
 29 28  2  0
  1 30  1  0
  3 31  1  0
  5 32  1  0
  6 33  1  0
 10 34  1  0
 11 35  1  0
 12 36  1  0
 17 37  1  0
 18 38  1  0
 21 39  1  0
 23 40  1  0
 25 41  1  0
 27 42  1  0
 29 43  1  0
M  ISO  8  30  14  31  14  32   9  33  14  34  14  35  14  36  14  37  14
M  ISO  6  38  14  39  14  40  14  41   9  42  14  43  14
M  END
>  <minimizedAffinity>  (1) 
-5.80413151

>  <minimizedRMSD>  (1) 
1.05842865

$$$$
