
     RDKit          3D

 43 47  0  0  0  0  0  0  0  0999 V2000
   48.9400   33.3820   37.6750 Cl  0  0  0  0  0  0  0  0  0  0  0  0
   47.2040   33.1300   37.6880 C   0  0  0  0  0  0  0  0  0  0  0  0
   46.5000   33.3920   38.8140 C   0  0  0  0  0  0  0  0  0  0  0  0
   45.1640   33.0420   38.7540 C   0  0  0  0  0  0  0  0  0  0  0  0
   44.5390   32.4710   37.6640 C   0  0  0  0  0  0  0  0  0  0  0  0
   45.2940   32.2230   36.5310 C   0  0  0  0  0  0  0  0  0  0  0  0
   46.6420   32.5620   36.5540 C   0  0  0  0  0  0  0  0  0  0  0  0
   48.5960   32.7770   34.9160 C   0  0  0  0  0  0  0  0  0  0  0  0
   47.3800   32.2740   35.3320 C   0  0  0  0  0  0  0  0  0  0  0  0
   46.7720   31.3650   34.4580 C   0  0  0  0  0  0  0  0  0  0  0  0
   47.3110   30.9670   33.2530 C   0  0  0  0  0  0  0  0  0  0  0  0
   46.8910   30.1240   32.2950 N   0  0  0  0  0  0  0  0  0  0  0  0
   47.8170   30.1130   31.3330 N   0  0  0  0  0  0  0  0  0  0  0  0
   48.8390   30.9340   31.6380 C   0  0  0  0  0  0  0  0  0  0  0  0
   48.5270   31.4860   32.8630 C   0  0  0  0  0  0  0  0  0  0  0  0
   49.1420   32.3840   33.7120 C   0  0  0  0  0  0  0  0  0  0  0  0
   48.8090   35.3390   41.0100 C   0  0  0  0  0  0  0  0  0  0  0  0
   48.2050   34.8380   39.8460 C   0  0  0  0  0  0  0  0  0  0  0  0
   47.1180   33.9830   39.9700 C   0  0  0  0  0  0  0  0  0  0  0  0
   46.6940   33.6850   41.2190 N   0  0  0  0  0  0  0  0  0  0  0  0
   47.2710   34.1700   42.3310 C   0  0  0  0  0  0  0  0  0  0  0  0
   48.3360   34.9990   42.2300 N   0  0  0  0  0  0  0  0  0  0  0  0
   45.0430   35.9960   43.3420 Cl  0  0  0  0  0  0  0  0  0  0  0  0
   45.7300   34.6440   44.2100 C   0  0  0  0  0  0  0  0  0  0  0  0
   46.7460   33.8740   43.6460 C   0  0  0  0  0  0  0  0  0  0  0  0
   47.2010   32.8490   44.4070 C   0  0  0  0  0  0  0  0  0  0  0  0
   46.7150   32.5470   45.6740 C   0  0  0  0  0  0  0  0  0  0  0  0
   45.7160   33.3200   46.2030 C   0  0  0  0  0  0  0  0  0  0  0  0
   45.1990   32.8280   47.8030 Cl  0  0  0  0  0  0  0  0  0  0  0  0
   45.2260   34.3620   45.4760 C   0  0  0  0  0  0  0  0  0  0  0  0
   44.5500   33.2339   39.6463 H   0  0  0  0  0  0  0  0  0  0  0  0
   43.4686   32.2196   37.6950 H   0  0  0  0  0  0  0  0  0  0  0  0
   44.8401   31.7702   35.6371 H   0  0  0  0  0  0  0  0  0  0  0  0
   49.1341   33.4972   35.5499 H   0  0  0  0  0  0  0  0  0  0  0  0
   45.8007   30.9405   34.7519 H   0  0  0  0  0  0  0  0  0  0  0  0
   46.0139   29.5841   32.3014 H   0  0  0  0  0  0  0  0  0  0  0  0
   49.7384   31.1255   31.0343 H   0  0  0  0  0  0  0  0  0  0  0  0
   50.1132   32.8060   33.4143 H   0  0  0  0  0  0  0  0  0  0  0  0
   49.6741   36.0136   40.9288 H   0  0  0  0  0  0  0  0  0  0  0  0
   48.5863   35.1179   38.8529 H   0  0  0  0  0  0  0  0  0  0  0  0
   48.0034   32.2178   43.9974 H   0  0  0  0  0  0  0  0  0  0  0  0
   47.1265   31.7002   46.2428 H   0  0  0  0  0  0  0  0  0  0  0  0
   44.4233   34.9874   45.8939 H   0  0  0  0  0  0  0  0  0  0  0  0
  1  2  1  0
  2  3  2  0
  3 19  1  0
  4  3  1  0
  5  4  2  0
  6  7  2  0
  6  5  1  0
  7  2  1  0
  8  9  2  0
  9  7  1  0
 10  9  1  0
 11 10  2  0
 12 11  1  0
 13 14  2  0
 13 12  1  0
 14 15  1  0
 15 11  1  0
 15 16  2  0
 16  8  1  0
 17 22  2  0
 18 19  2  0
 18 17  1  0
 19 20  1  0
 20 21  2  0
 21 25  1  0
 22 21  1  0
 23 24  1  0
 24 30  2  0
 25 24  1  0
 25 26  2  0
 26 27  1  0
 27 28  2  0
 28 29  1  0
 30 28  1  0
  4 31  1  0
  5 32  1  0
  6 33  1  0
  8 34  1  0
 10 35  1  0
 12 36  1  0
 14 37  1  0
 16 38  1  0
 17 39  1  0
 18 40  1  0
 26 41  1  0
 27 42  1  0
 30 43  1  0
M  ISO  8  31  14  32  14  33  14  34  14  35  14  36   9  37  14  38  14
M  ISO  5  39  14  40  14  41  14  42  14  43  14
M  END
>  <minimizedAffinity>  (1) 
-7.45847368

>  <minimizedRMSD>  (1) 
0.720907211

$$$$
