
     RDKit          3D

 46 50  0  0  1  0  0  0  0  0999 V2000
   46.9030   33.0550   42.5730 C   0  0  1  0  0  0  0  0  0  0  0  0
   46.9130   34.3530   43.3320 C   0  0  0  0  0  0  0  0  0  0  0  0
   46.9910   35.4320   42.2580 C   0  0  0  0  0  0  0  0  0  0  0  0
   48.3900   35.3480   41.6860 C   0  0  0  0  0  0  0  0  0  0  0  0
   48.7540   34.0060   41.1740 C   0  0  0  0  0  0  0  0  0  0  0  0
   48.2650   32.8450   41.9370 C   0  0  2  0  0  0  0  0  0  0  0  0
   47.0440   30.3890   45.2840 C   0  0  0  0  0  0  0  0  0  0  0  0
   47.4340   31.4990   44.5360 C   0  0  0  0  0  0  0  0  0  0  0  0
   46.6170   31.8970   43.4600 C   0  0  0  0  0  0  0  0  0  0  0  0
   45.5020   31.1550   43.2360 N   0  0  0  0  0  0  0  0  0  0  0  0
   45.1520   30.0960   43.9690 C   0  0  0  0  0  0  0  0  0  0  0  0
   45.9080   29.6980   44.9950 N   0  0  0  0  0  0  0  0  0  0  0  0
   48.1460   31.5940   41.0550 C   0  0  0  0  0  0  0  0  0  0  0  0
   48.3380   31.8780   39.6210 C   0  0  0  0  0  0  0  0  0  0  0  0
   47.3850   32.2710   38.7960 C   0  0  0  0  0  0  0  0  0  0  0  0
   47.7100   32.5160   37.4390 N   0  0  0  0  0  0  0  0  0  0  0  0
   47.3210   32.5300   36.0760 C   0  0  2  0  0  0  0  0  0  0  0  0
   46.2190   32.4460   35.4710 O   0  0  0  0  0  0  0  0  0  0  0  0
   48.6810   32.6810   35.5550 C   0  0  0  0  0  0  0  0  0  0  0  0
   48.9970   32.9790   37.0010 C   0  0  1  0  0  0  0  0  0  0  0  0
   50.1950   31.7220   37.5780 S   0  0  0  0  0  0  0  0  0  0  0  0
   49.7720   31.6370   39.3150 C   0  0  0  0  0  0  0  0  0  0  0  0
   46.0040   32.4730   39.2180 C   0  0  0  0  0  0  0  0  0  0  0  0
   45.0130   31.7630   39.4990 O   0  0  0  0  0  0  0  0  0  0  0  0
   45.4620   33.7230   39.4130 O   0  0  0  0  0  0  0  0  0  0  0  0
   46.1103   33.1153   41.8128 H   0  0  0  0  0  0  0  0  0  0  0  0
   45.9929   34.4622   43.9248 H   0  0  0  0  0  0  0  0  0  0  0  0
   47.7514   34.4124   44.0417 H   0  0  0  0  0  0  0  0  0  0  0  0
   46.2445   35.2443   41.4722 H   0  0  0  0  0  0  0  0  0  0  0  0
   46.7834   36.4297   42.6722 H   0  0  0  0  0  0  0  0  0  0  0  0
   48.4682   36.0670   40.8572 H   0  0  0  0  0  0  0  0  0  0  0  0
   49.0837   35.5725   42.5096 H   0  0  0  0  0  0  0  0  0  0  0  0
   48.3576   33.9221   40.1513 H   0  0  0  0  0  0  0  0  0  0  0  0
   49.8502   33.9580   41.2513 H   0  0  0  0  0  0  0  0  0  0  0  0
   49.0191   32.7138   42.7270 H   0  0  0  0  0  0  0  0  0  0  0  0
   47.6698   30.0640   46.1282 H   0  0  0  0  0  0  0  0  0  0  0  0
   48.3549   32.0491   44.7796 H   0  0  0  0  0  0  0  0  0  0  0  0
   44.2313   29.5455   43.7254 H   0  0  0  0  0  0  0  0  0  0  0  0
   48.9080   30.8673   41.3732 H   0  0  0  0  0  0  0  0  0  0  0  0
   47.1260   31.2011   41.1783 H   0  0  0  0  0  0  0  0  0  0  0  0
   45.4835   32.3899   36.1313 H   0  0  0  0  0  0  0  0  0  0  0  0
   49.1385   31.7683   35.1455 H   0  0  0  0  0  0  0  0  0  0  0  0
   48.9520   33.3374   34.7149 H   0  0  0  0  0  0  0  0  0  0  0  0
   50.0363   30.6345   39.6826 H   0  0  0  0  0  0  0  0  0  0  0  0
   50.3333   32.4434   39.8096 H   0  0  0  0  0  0  0  0  0  0  0  0
   44.5189   33.8143   39.7000 H   0  0  0  0  0  0  0  0  0  0  0  0
  1  2  1  0
  1  9  1  0
  3  2  1  0
  4  3  1  0
  5  4  1  0
  5  6  1  0
  6  1  1  0
  8  7  2  0
  9  8  1  0
 10  9  2  0
 10 11  1  0
 11 12  2  0
 12  7  1  0
 13  6  1  0
 14 13  1  0
 15 23  1  0
 15 14  2  0
 16 15  1  0
 17 18  1  6
 17 20  1  0
 17 16  1  0
 19 17  1  0
 20 19  1  0
 20 16  1  0
 20 21  1  1
 21 22  1  0
 22 14  1  0
 23 25  1  0
 23 24  2  0
  1 26  1  6
  2 27  1  0
  2 28  1  0
  3 29  1  0
  3 30  1  0
  4 31  1  0
  4 32  1  0
  5 33  1  0
  5 34  1  0
  6 35  1  1
  7 36  1  0
  8 37  1  0
 11 38  1  0
 13 39  1  0
 13 40  1  0
 18 41  1  0
 19 42  1  0
 19 43  1  0
 22 44  1  0
 22 45  1  0
 25 46  1  0
M  ISO  8  26  13  27  13  28  13  29  13  30  13  31  13  32  13  33  13
M  ISO  8  34  13  35  13  36  14  37  14  38  14  39   8  40   8  41   3
M  ISO  5  42  13  43  13  44  13  45  13  46   3
M  END
>  <minimizedAffinity>  (1) 
-4.36348248

>  <minimizedRMSD>  (1) 
5.95791721

$$$$
