
     RDKit          3D

 51 55  0  0  1  0  0  0  0  0999 V2000
   44.6170   36.4580   44.2750 C   0  0  0  0  0  0  0  0  0  0  0  0
   45.0770   36.1030   43.0030 C   0  0  0  0  0  0  0  0  0  0  0  0
   45.6650   34.8550   42.7790 C   0  0  0  0  0  0  0  0  0  0  0  0
   45.7720   33.9950   43.8490 N   0  0  0  0  0  0  0  0  0  0  0  0
   45.3200   34.3560   45.0770 C   0  0  0  0  0  0  0  0  0  0  0  0
   44.7590   35.5670   45.2630 N   0  0  0  0  0  0  0  0  0  0  0  0
   45.4920   33.3530   46.1540 C   0  0  0  0  0  0  0  0  0  0  0  0
   46.6220   32.0940   45.5600 S   0  0  0  0  0  0  0  0  0  0  0  0
   47.5430   31.3850   46.9060 C   0  0  0  0  0  0  0  0  0  0  0  0
   47.7070   32.1420   48.0460 C   0  0  0  0  0  0  0  0  0  0  0  0
   48.4160   31.6020   49.0770 C   0  0  0  0  0  0  0  0  0  0  0  0
   48.9740   30.3140   49.0080 C   0  0  0  0  0  0  0  0  0  0  0  0
   49.6620   29.8320   50.0580 N   0  0  0  0  0  0  0  0  0  0  0  0
   50.2100   28.5980   50.0230 C   0  0  0  0  0  0  0  0  0  0  0  0
   50.0550   27.8420   48.9030 C   0  0  0  0  0  0  0  0  0  0  0  0
   49.3480   28.3480   47.8370 C   0  0  0  0  0  0  0  0  0  0  0  0
   48.7670   29.6090   47.8260 C   0  0  0  0  0  0  0  0  0  0  0  0
   48.0620   30.1190   46.7690 C   0  0  0  0  0  0  0  0  0  0  0  0
   46.2220   34.4090   41.5180 C   0  0  0  0  0  0  0  0  0  0  0  0
   47.2380   33.3890   41.4590 C   0  0  0  0  0  0  0  0  0  0  0  0
   48.5520   33.3970   41.6460 C   0  0  0  0  0  0  0  0  0  0  0  0
   49.4020   32.2330   41.5500 N   0  0  0  0  0  0  0  0  0  0  0  0
   50.5990   31.6040   41.1090 C   0  0  0  0  0  0  0  0  0  0  0  0
   51.7550   32.1120   41.0010 O   0  0  0  0  0  0  0  0  0  0  0  0
   49.7510   30.3660   40.9440 C   0  0  0  0  0  0  0  0  0  0  0  0
   49.0280   30.9530   42.1330 C   0  0  2  0  0  0  0  0  0  0  0  0
   47.2370   30.7430   42.1570 S   0  0  0  0  0  0  0  0  0  0  0  0
   46.6350   32.0820   41.0920 C   0  0  0  0  0  0  0  0  0  0  0  0
   49.1430   34.6870   41.9820 C   0  0  0  0  0  0  0  0  0  0  0  0
   50.2380   34.7010   42.6430 O   0  0  0  0  0  0  0  0  0  0  0  0
   49.7310   35.8910   42.3180 O   0  0  0  0  0  0  0  0  0  0  0  0
   44.1532   37.4386   44.4575 H   0  0  0  0  0  0  0  0  0  0  0  0
   44.9749   36.8137   42.1697 H   0  0  0  0  0  0  0  0  0  0  0  0
   45.9080   33.8353   47.0508 H   0  0  0  0  0  0  0  0  0  0  0  0
   44.5230   32.9042   46.4177 H   0  0  0  0  0  0  0  0  0  0  0  0
   47.2783   33.1522   48.1214 H   0  0  0  0  0  0  0  0  0  0  0  0
   48.5562   32.1939   49.9935 H   0  0  0  0  0  0  0  0  0  0  0  0
   50.7721   28.2110   50.8857 H   0  0  0  0  0  0  0  0  0  0  0  0
   50.4916   26.8338   48.8501 H   0  0  0  0  0  0  0  0  0  0  0  0
   49.2366   27.7177   46.9424 H   0  0  0  0  0  0  0  0  0  0  0  0
   47.9164   29.5386   45.8460 H   0  0  0  0  0  0  0  0  0  0  0  0
   45.3764   34.0388   40.9197 H   0  0  0  0  0  0  0  0  0  0  0  0
   46.7646   35.3012   41.1723 H   0  0  0  0  0  0  0  0  0  0  0  0
   49.1693   30.3050   40.0124 H   0  0  0  0  0  0  0  0  0  0  0  0
   50.1473   29.3408   40.8999 H   0  0  0  0  0  0  0  0  0  0  0  0
   49.2528   30.6260   43.1589 H   0  0  0  0  0  0  0  0  0  0  0  0
   45.5419   32.1530   41.1921 H   0  0  0  0  0  0  0  0  0  0  0  0
   46.9217   31.8510   40.0554 H   0  0  0  0  0  0  0  0  0  0  0  0
   49.3277   35.2164   41.0356 H   0  0  0  0  0  0  0  0  0  0  0  0
   48.4118   35.1508   42.6604 H   0  0  0  0  0  0  0  0  0  0  0  0
   49.5164   36.3947   43.1428 H   0  0  0  0  0  0  0  0  0  0  0  0
  1  6  2  0
  2  1  1  0
  3  2  2  0
  3  4  1  0
  4  5  2  0
  5  6  1  0
  5  7  1  0
  8  7  1  0
  8  9  1  0
  9 10  2  0
 10 11  1  0
 12 11  2  0
 12 13  1  0
 14 13  2  0
 15 14  1  0
 16 15  2  0
 17 16  1  0
 17 12  1  0
 18  9  1  0
 18 17  2  0
 19  3  1  0
 20 19  1  0
 20 21  2  0
 21 29  1  0
 22 21  1  0
 22 26  1  0
 23 22  1  0
 24 23  2  0
 25 23  1  0
 26 25  1  0
 26 27  1  0
 28 20  1  0
 28 27  1  0
 29 30  1  0
 31 30  1  0
  1 32  1  0
  2 33  1  0
  7 34  1  0
  7 35  1  0
 10 36  1  0
 11 37  1  0
 14 38  1  0
 15 39  1  0
 16 40  1  0
 18 41  1  0
 19 42  1  0
 19 43  1  0
 25 44  1  0
 25 45  1  0
 26 46  1  1
 28 47  1  0
 28 48  1  0
 29 49  1  0
 29 50  1  0
 31 51  1  0
M  ISO  8  32  14  33  14  34   8  35   8  36  14  37  14  38  14  39  14
M  ISO  8  40  14  41  14  42   8  43   8  44  13  45  13  46  13  47  13
M  ISO  4  48  13  49   8  50   8  51   3
M  END
>  <minimizedAffinity>  (1) 
-6.24102736

>  <minimizedRMSD>  (1) 
2.03128552

$$$$
