
     RDKit          3D

 32 34  0  0  1  0  0  0  0  0999 V2000
   46.4660   31.5810   45.1820 C   0  0  0  0  0  0  0  0  0  0  0  0
   46.5720   31.0500   46.3840 C   0  0  0  0  0  0  0  0  0  0  0  0
   45.8410   29.8800   46.7110 N   0  0  0  0  0  0  0  0  0  0  0  0
   44.9480   29.2370   47.6470 C   0  0  0  0  0  0  0  0  0  0  0  0
   44.7480   29.3540   48.9030 O   0  0  0  0  0  0  0  0  0  0  0  0
   44.4470   28.4530   46.4650 C   0  0  0  0  0  0  0  0  0  0  0  0
   45.8310   28.6500   45.9020 C   0  0  1  0  0  0  0  0  0  0  0  0
   45.9160   29.1740   44.1710 S   0  0  0  0  0  0  0  0  0  0  0  0
   45.5670   30.9770   44.2060 C   0  0  0  0  0  0  0  0  0  0  0  0
   47.4640   31.6500   47.4020 C   0  0  0  0  0  0  0  0  0  0  0  0
   47.5870   32.7680   47.9530 O   0  0  0  0  0  0  0  0  0  0  0  0
   48.4870   31.0420   48.0590 O   0  0  0  0  0  0  0  0  0  0  0  0
   47.1240   32.7440   44.6340 C   0  0  0  0  0  0  0  0  0  0  0  0
   45.3410   35.7590   43.2600 C   0  0  0  0  0  0  0  0  0  0  0  0
   46.2080   34.6630   43.3170 C   0  0  0  0  0  0  0  0  0  0  0  0
   46.2270   33.9300   44.4900 C   0  0  0  0  0  0  0  0  0  0  0  0
   45.4190   34.3060   45.5010 N   0  0  0  0  0  0  0  0  0  0  0  0
   44.5900   35.3700   45.4180 C   0  0  0  0  0  0  0  0  0  0  0  0
   44.5470   36.0990   44.3050 N   0  0  0  0  0  0  0  0  0  0  0  0
   47.0220   34.3490   42.1920 C   0  0  0  0  0  0  0  0  0  0  0  0
   47.8290   35.2130   41.7770 O   0  0  0  0  0  0  0  0  0  0  0  0
   44.1743   27.4090   46.6790 H   0  0  0  0  0  0  0  0  0  0  0  0
   43.5345   28.7232   45.9133 H   0  0  0  0  0  0  0  0  0  0  0  0
   46.5526   27.8202   45.9295 H   0  0  0  0  0  0  0  0  0  0  0  0
   45.7451   31.4129   43.2119 H   0  0  0  0  0  0  0  0  0  0  0  0
   44.5180   31.1622   44.4804 H   0  0  0  0  0  0  0  0  0  0  0  0
   49.0184   31.5477   48.7238 H   0  0  0  0  0  0  0  0  0  0  0  0
   47.9568   33.0172   45.2987 H   0  0  0  0  0  0  0  0  0  0  0  0
   47.4645   32.4741   43.6234 H   0  0  0  0  0  0  0  0  0  0  0  0
   45.3022   36.3624   42.3411 H   0  0  0  0  0  0  0  0  0  0  0  0
   43.9492   35.6343   46.2721 H   0  0  0  0  0  0  0  0  0  0  0  0
   46.9442   33.3693   41.6979 H   0  0  0  0  0  0  0  0  0  0  0  0
  1  2  2  0
  2  3  1  0
  2 10  1  0
  3  4  1  0
  4  5  2  0
  6  4  1  0
  7  8  1  0
  7  6  1  0
  7  3  1  0
  8  9  1  0
  9  1  1  0
 10 11  2  0
 10 12  1  0
 13  1  1  0
 14 15  2  0
 14 19  1  0
 15 16  1  0
 16 13  1  0
 16 17  2  0
 18 17  1  0
 19 18  2  0
 20 15  1  0
 21 20  2  0
  6 22  1  0
  6 23  1  0
  7 24  1  1
  9 25  1  0
  9 26  1  0
 12 27  1  0
 13 28  1  0
 13 29  1  0
 14 30  1  0
 18 31  1  0
 20 32  1  0
M  ISO  8  22  13  23  13  24  13  25  13  26  13  27   3  28   8  29   8
M  ISO  3  30  14  31  14  32   6
M  END
>  <minimizedAffinity>  (1) 
-4.82607698

>  <minimizedRMSD>  (1) 
3.39024043

$$$$
