
     RDKit          3D

 57 61  0  0  1  0  0  0  0  0999 V2000
   44.6520   34.7950   45.6530 C   0  0  0  0  0  0  0  0  0  0  0  0
   45.3220   34.5850   44.4520 C   0  0  0  0  0  0  0  0  0  0  0  0
   46.3830   33.6780   44.4040 C   0  0  0  0  0  0  0  0  0  0  0  0
   46.6530   33.0770   45.5870 N   0  0  0  0  0  0  0  0  0  0  0  0
   46.0150   33.2790   46.7250 C   0  0  0  0  0  0  0  0  0  0  0  0
   45.0180   34.1420   46.7380 N   0  0  0  0  0  0  0  0  0  0  0  0
   47.1550   33.3560   43.2620 C   0  0  0  0  0  0  0  0  0  0  0  0
   48.2050   34.2080   42.9520 C   0  0  0  0  0  0  0  0  0  0  0  0
   49.0590   34.0500   41.8820 C   0  0  0  0  0  0  0  0  0  0  0  0
   48.9020   32.9940   41.0350 C   0  0  0  0  0  0  0  0  0  0  0  0
   47.8820   32.1100   41.2820 C   0  0  0  0  0  0  0  0  0  0  0  0
   47.6640   31.0300   40.4770 C   0  0  0  0  0  0  0  0  0  0  0  0
   46.6590   30.1210   40.6820 C   0  0  0  0  0  0  0  0  0  0  0  0
   45.8260   30.3440   41.7910 C   0  0  0  0  0  0  0  0  0  0  0  0
   46.0760   31.4450   42.5830 C   0  0  0  0  0  0  0  0  0  0  0  0
   47.0610   32.3260   42.3740 C   0  0  0  0  0  0  0  0  0  0  0  0
   45.1250   31.5200   43.6530 N   0  0  0  0  0  0  0  0  0  0  0  0
   46.5310   32.4700   47.8790 C   0  0  0  0  0  0  0  0  0  0  0  0
   45.7920   32.6870   49.0080 F   0  0  0  0  0  0  0  0  0  0  0  0
   47.8710   32.7490   48.0930 F   0  0  0  0  0  0  0  0  0  0  0  0
   46.5230   31.1050   47.5170 F   0  0  0  0  0  0  0  0  0  0  0  0
   44.9890   35.2570   43.1880 C   0  0  0  0  0  0  0  0  0  0  0  0
   43.9680   34.5740   42.3550 C   0  0  0  0  0  0  0  0  0  0  0  0
   42.1450   32.6470   38.8060 C   0  0  0  0  0  0  0  0  0  0  0  0
   41.5810   33.8120   39.0810 C   0  0  0  0  0  0  0  0  0  0  0  0
   42.1950   34.6980   40.0110 N   0  0  0  0  0  0  0  0  0  0  0  0
   41.9550   35.5320   41.1690 C   0  0  0  0  0  0  0  0  0  0  0  0
   40.9470   36.0240   41.7860 O   0  0  0  0  0  0  0  0  0  0  0  0
   43.4120   35.5780   41.3440 C   0  0  2  0  0  0  0  0  0  0  0  0
   43.6160   35.0450   39.9550 C   0  0  1  0  0  0  0  0  0  0  0  0
   44.5470   33.5080   39.8310 S   0  0  0  0  0  0  0  0  0  0  0  0
   43.4010   32.1680   39.4340 C   0  0  0  0  0  0  0  0  0  0  0  0
   41.4680   31.7780   37.8240 C   0  0  0  0  0  0  0  0  0  0  0  0
   40.3190   34.2230   38.4290 C   0  0  0  0  0  0  0  0  0  0  0  0
   39.1680   33.9850   38.8670 O   0  0  0  0  0  0  0  0  0  0  0  0
   40.1990   34.9140   37.2660 O   0  0  0  0  0  0  0  0  0  0  0  0
   43.8151   35.5075   45.6973 H   0  0  0  0  0  0  0  0  0  0  0  0
   48.3681   35.0746   43.6095 H   0  0  0  0  0  0  0  0  0  0  0  0
   49.8674   34.7763   41.7116 H   0  0  0  0  0  0  0  0  0  0  0  0
   49.5750   32.8540   40.1762 H   0  0  0  0  0  0  0  0  0  0  0  0
   48.3319   30.8807   39.6158 H   0  0  0  0  0  0  0  0  0  0  0  0
   46.5121   29.2608   40.0124 H   0  0  0  0  0  0  0  0  0  0  0  0
   44.9968   29.6590   42.0214 H   0  0  0  0  0  0  0  0  0  0  0  0
   45.1772   32.2898   44.3354 H   0  0  0  0  0  0  0  0  0  0  0  0
   44.3895   30.8041   43.7394 H   0  0  0  0  0  0  0  0  0  0  0  0
   44.6146   36.2634   43.4268 H   0  0  0  0  0  0  0  0  0  0  0  0
   45.9140   35.2599   42.5928 H   0  0  0  0  0  0  0  0  0  0  0  0
   44.4289   33.7288   41.8228 H   0  0  0  0  0  0  0  0  0  0  0  0
   43.1561   34.1937   42.9923 H   0  0  0  0  0  0  0  0  0  0  0  0
   43.8582   36.5217   41.6908 H   0  0  0  0  0  0  0  0  0  0  0  0
   44.1152   35.6675   39.1979 H   0  0  0  0  0  0  0  0  0  0  0  0
   43.1479   31.6363   40.3631 H   0  0  0  0  0  0  0  0  0  0  0  0
   43.9020   31.5104   38.7083 H   0  0  0  0  0  0  0  0  0  0  0  0
   40.8757   31.0177   38.3542 H   0  0  0  0  0  0  0  0  0  0  0  0
   40.8033   32.3863   37.1929 H   0  0  0  0  0  0  0  0  0  0  0  0
   42.2204   31.2823   37.1929 H   0  0  0  0  0  0  0  0  0  0  0  0
   41.0092   35.1927   36.7700 H   0  0  0  0  0  0  0  0  0  0  0  0
  1  6  2  0
  2  1  1  0
  3  2  2  0
  3  4  1  0
  4  5  2  0
  5  6  1  0
  5 18  1  0
  7  3  1  0
  8  7  2  0
  9  8  1  0
 10 11  1  0
 10  9  2  0
 11 16  2  0
 12 13  2  0
 12 11  1  0
 13 14  1  0
 14 15  2  0
 15 17  1  0
 16 15  1  0
 16  7  1  0
 18 20  1  0
 18 19  1  0
 21 18  1  0
 22  2  1  0
 23 22  1  0
 24 25  2  0
 24 32  1  0
 25 26  1  0
 26 27  1  0
 27 29  1  0
 27 28  2  0
 29 23  1  0
 30 31  1  0
 30 26  1  0
 30 29  1  0
 32 31  1  0
 33 24  1  0
 34 35  2  0
 34 25  1  0
 36 34  1  0
  1 37  1  0
  8 38  1  0
  9 39  1  0
 10 40  1  0
 12 41  1  0
 13 42  1  0
 14 43  1  0
 17 44  1  0
 17 45  1  0
 22 46  1  0
 22 47  1  0
 23 48  1  0
 23 49  1  0
 29 50  1  6
 30 51  1  6
 32 52  1  0
 32 53  1  0
 33 54  1  0
 33 55  1  0
 33 56  1  0
 36 57  1  0
M  ISO  8  37  14  38  14  39  14  40  14  41  14  42  14  43  14  46   8
M  ISO  8  47   8  48   8  49   8  50  13  51  13  52  13  53  13  54   8
M  ISO  3  55   8  56   8  57   3
M  END
>  <minimizedAffinity>  (1) 
-6.81771231

>  <minimizedRMSD>  (1) 
1.99874043

$$$$
