
     RDKit          3D

 51 55  0  0  1  0  0  0  0  0999 V2000
   46.2950   33.8890   40.7200 C   0  0  0  0  0  0  0  0  0  0  0  0
   44.9760   33.6280   40.4680 C   0  0  0  0  0  0  0  0  0  0  0  0
   44.9720   32.7560   39.4370 N   0  0  0  0  0  0  0  0  0  0  0  0
   46.2450   32.5000   39.0790 C   0  0  0  0  0  0  0  0  0  0  0  0
   47.0660   33.2040   39.8770 N   0  0  0  0  0  0  0  0  0  0  0  0
   46.7810   31.6600   38.0610 N   0  0  0  0  0  0  0  0  0  0  0  0
   43.8640   32.1340   38.7490 C   0  0  0  0  0  0  0  0  0  0  0  0
   39.5910   33.0060   38.8460 C   0  0  0  0  0  0  0  0  0  0  0  0
   39.9940   32.4570   39.9680 C   0  0  0  0  0  0  0  0  0  0  0  0
   41.2600   31.8130   40.0370 N   0  0  0  0  0  0  0  0  0  0  0  0
   42.4780   31.6980   40.8100 C   0  0  0  0  0  0  0  0  0  0  0  0
   42.8670   31.9460   42.0020 O   0  0  0  0  0  0  0  0  0  0  0  0
   43.1040   31.1540   39.6040 C   0  0  1  0  0  0  0  0  0  0  0  0
   41.7270   30.8510   39.0560 C   0  0  2  0  0  0  0  0  0  0  0  0
   41.3400   31.4790   37.4280 S   0  0  0  0  0  0  0  0  0  0  0  0
   40.4000   33.0170   37.6020 C   0  0  0  0  0  0  0  0  0  0  0  0
   38.2750   33.6480   38.8230 C   0  0  0  0  0  0  0  0  0  0  0  0
   39.1410   32.4920   41.1720 C   0  0  0  0  0  0  0  0  0  0  0  0
   39.4140   33.0310   42.2690 O   0  0  0  0  0  0  0  0  0  0  0  0
   37.9020   31.9560   41.3450 O   0  0  0  0  0  0  0  0  0  0  0  0
   46.8210   34.8120   41.7870 C   0  0  0  0  0  0  0  0  0  0  0  0
   47.9080   35.4570   41.6930 O   0  0  0  0  0  0  0  0  0  0  0  0
   45.3850   36.2010   43.2110 C   0  0  0  0  0  0  0  0  0  0  0  0
   46.0880   35.0040   42.9900 C   0  0  0  0  0  0  0  0  0  0  0  0
   45.9920   34.0820   44.0160 C   0  0  0  0  0  0  0  0  0  0  0  0
   45.2910   34.3060   45.1280 N   0  0  0  0  0  0  0  0  0  0  0  0
   44.6260   35.4850   45.2960 C   0  0  0  0  0  0  0  0  0  0  0  0
   44.6830   36.4180   44.3330 N   0  0  0  0  0  0  0  0  0  0  0  0
   46.6770   32.8380   43.8740 C   0  0  0  0  0  0  0  0  0  0  0  0
   47.9720   32.4660   43.7120 C   0  0  0  0  0  0  0  0  0  0  0  0
   48.3230   31.1980   43.6050 C   0  0  0  0  0  0  0  0  0  0  0  0
   47.3440   30.2830   43.6640 C   0  0  0  0  0  0  0  0  0  0  0  0
   45.8320   31.2770   43.8830 S   0  0  0  0  0  0  0  0  0  0  0  0
   44.1029   34.0413   40.9942 H   0  0  0  0  0  0  0  0  0  0  0  0
   47.8009   31.5904   37.9347 H   0  0  0  0  0  0  0  0  0  0  0  0
   46.1487   31.1222   37.4512 H   0  0  0  0  0  0  0  0  0  0  0  0
   43.1702   32.9222   38.4212 H   0  0  0  0  0  0  0  0  0  0  0  0
   44.2824   31.5703   37.9021 H   0  0  0  0  0  0  0  0  0  0  0  0
   43.8840   30.3847   39.7031 H   0  0  0  0  0  0  0  0  0  0  0  0
   41.4065   29.8045   38.9462 H   0  0  0  0  0  0  0  0  0  0  0  0
   41.0999   33.8649   37.6352 H   0  0  0  0  0  0  0  0  0  0  0  0
   39.7207   33.1126   36.7421 H   0  0  0  0  0  0  0  0  0  0  0  0
   37.9309   33.8159   39.8542 H   0  0  0  0  0  0  0  0  0  0  0  0
   38.3466   34.6124   38.2988 H   0  0  0  0  0  0  0  0  0  0  0  0
   37.5590   32.9980   38.2988 H   0  0  0  0  0  0  0  0  0  0  0  0
   37.4371   32.0541   42.2135 H   0  0  0  0  0  0  0  0  0  0  0  0
   45.4115   36.9845   42.4393 H   0  0  0  0  0  0  0  0  0  0  0  0
   44.0477   35.6696   46.2133 H   0  0  0  0  0  0  0  0  0  0  0  0
   48.7503   33.2421   43.6687 H   0  0  0  0  0  0  0  0  0  0  0  0
   49.3747   30.9039   43.4729 H   0  0  0  0  0  0  0  0  0  0  0  0
   47.4329   29.1887   43.5961 H   0  0  0  0  0  0  0  0  0  0  0  0
  1 21  1  0
  2  1  2  0
  3  2  1  0
  4  3  1  0
  4  5  2  0
  5  1  1  0
  6  4  1  0
  7  3  1  0
  8  9  2  0
  9 10  1  0
  9 18  1  0
 10 11  1  0
 11 12  2  0
 13  7  1  0
 13 11  1  0
 14 15  1  0
 14 13  1  0
 14 10  1  0
 15 16  1  0
 16  8  1  0
 17  8  1  0
 18 20  1  0
 18 19  2  0
 21 24  1  0
 22 21  2  0
 23 28  2  0
 24 23  1  0
 24 25  2  0
 25 26  1  0
 26 27  2  0
 28 27  1  0
 29 33  1  0
 29 25  1  0
 30 29  2  0
 31 32  2  0
 31 30  1  0
 32 33  1  0
  2 34  1  0
  6 35  1  0
  6 36  1  0
  7 37  1  0
  7 38  1  0
 13 39  1  1
 14 40  1  1
 16 41  1  0
 16 42  1  0
 17 43  1  0
 17 44  1  0
 17 45  1  0
 20 46  1  0
 23 47  1  0
 27 48  1  0
 30 49  1  0
 31 50  1  0
 32 51  1  0
M  ISO  8  34  14  37   8  38   8  39  13  40  13  41  13  42  13  43   8
M  ISO  8  44   8  45   8  46   3  47  14  48  14  49  14  50  14  51  14
M  END
>  <minimizedAffinity>  (1) 
-5.82710838

>  <minimizedRMSD>  (1) 
0.993390679

$$$$
