
     RDKit          3D

 46 48  0  0  0  0  0  0  0  0999 V2000
   46.3190   32.8990   45.5360 C   0  0  0  0  0  0  0  0  0  0  0  0
   46.8210   32.9380   44.2470 C   0  0  0  0  0  0  0  0  0  0  0  0
   46.4420   33.9460   43.3790 C   0  0  0  0  0  0  0  0  0  0  0  0
   45.5540   34.8710   43.8760 N   0  0  0  0  0  0  0  0  0  0  0  0
   45.0660   34.8110   45.1480 C   0  0  0  0  0  0  0  0  0  0  0  0
   45.4450   33.8400   45.9680 N   0  0  0  0  0  0  0  0  0  0  0  0
   44.1180   35.8050   45.5390 N   0  0  0  0  0  0  0  0  0  0  0  0
   48.2380   33.3530   42.0110 C   0  0  0  0  0  0  0  0  0  0  0  0
   48.7120   32.8120   43.0320 O   0  0  0  0  0  0  0  0  0  0  0  0
   46.9590   34.0360   42.0680 N   0  0  0  0  0  0  0  0  0  0  0  0
   46.8410   31.8420   46.4560 C   0  0  0  0  0  0  0  0  0  0  0  0
   45.8390   30.7730   46.6630 C   0  0  0  0  0  0  0  0  0  0  0  0
   45.3000   30.8060   48.0640 C   0  0  0  0  0  0  0  0  0  0  0  0
   46.4050   30.6730   49.0940 C   0  0  0  0  0  0  0  0  0  0  0  0
   47.5840   31.5350   48.8110 C   0  0  0  0  0  0  0  0  0  0  0  0
   47.3320   32.5140   47.6930 C   0  0  0  0  0  0  0  0  0  0  0  0
   48.8700   33.4000   40.5940 C   0  0  0  0  0  0  0  0  0  0  0  0
   48.8620   32.0220   40.0170 C   0  0  0  0  0  0  0  0  0  0  0  0
   47.9420   32.0220   38.8030 C   0  0  0  0  0  0  0  0  0  0  0  0
   48.4140   32.9790   37.9060 O   0  0  0  0  0  0  0  0  0  0  0  0
   48.3340   34.2700   38.3820 C   0  0  0  0  0  0  0  0  0  0  0  0
   47.9220   34.3280   39.8310 C   0  0  0  0  0  0  0  0  0  0  0  0
   47.5255   32.1629   43.9108 H   0  0  0  0  0  0  0  0  0  0  0  0
   43.7249   35.7955   46.4910 H   0  0  0  0  0  0  0  0  0  0  0  0
   43.8274   36.5314   44.8690 H   0  0  0  0  0  0  0  0  0  0  0  0
   46.5008   34.5112   41.2774 H   0  0  0  0  0  0  0  0  0  0  0  0
   47.6978   31.3070   46.0204 H   0  0  0  0  0  0  0  0  0  0  0  0
   45.0094   30.9153   45.9548 H   0  0  0  0  0  0  0  0  0  0  0  0
   46.3245   29.8001   46.4967 H   0  0  0  0  0  0  0  0  0  0  0  0
   44.7781   31.7612   48.2226 H   0  0  0  0  0  0  0  0  0  0  0  0
   44.6129   29.9558   48.1869 H   0  0  0  0  0  0  0  0  0  0  0  0
   45.9992   30.9496   50.0783 H   0  0  0  0  0  0  0  0  0  0  0  0
   46.7516   29.6294   49.0652 H   0  0  0  0  0  0  0  0  0  0  0  0
   47.8355   32.0979   49.7220 H   0  0  0  0  0  0  0  0  0  0  0  0
   48.4093   30.8782   48.4987 H   0  0  0  0  0  0  0  0  0  0  0  0
   48.2713   33.0380   47.4625 H   0  0  0  0  0  0  0  0  0  0  0  0
   46.5539   33.2158   48.0276 H   0  0  0  0  0  0  0  0  0  0  0  0
   49.9125   33.7498   40.5656 H   0  0  0  0  0  0  0  0  0  0  0  0
   49.8806   31.7394   39.7128 H   0  0  0  0  0  0  0  0  0  0  0  0
   48.5059   31.2981   40.7647 H   0  0  0  0  0  0  0  0  0  0  0  0
   47.9496   31.0296   38.3286 H   0  0  0  0  0  0  0  0  0  0  0  0
   46.9105   32.2563   39.1047 H   0  0  0  0  0  0  0  0  0  0  0  0
   49.3199   34.7463   38.2765 H   0  0  0  0  0  0  0  0  0  0  0  0
   47.5656   34.7949   37.7954 H   0  0  0  0  0  0  0  0  0  0  0  0
   48.0117   35.3568   40.2100 H   0  0  0  0  0  0  0  0  0  0  0  0
   46.8749   34.0159   39.9579 H   0  0  0  0  0  0  0  0  0  0  0  0
  1  6  1  0
  1 11  1  0
  2  1  2  0
  3  4  2  0
  3  2  1  0
  4  5  1  0
  5  7  1  0
  5  6  2  0
  8 10  1  0
  8  9  2  0
 10  3  1  0
 11 12  1  0
 11 16  1  0
 12 13  1  0
 13 14  1  0
 15 14  1  0
 16 15  1  0
 17  8  1  0
 18 17  1  0
 19 18  1  0
 20 21  1  0
 20 19  1  0
 21 22  1  0
 22 17  1  0
  2 23  1  0
  7 24  1  0
  7 25  1  0
 10 26  1  0
 11 27  1  0
 12 28  1  0
 12 29  1  0
 13 30  1  0
 13 31  1  0
 14 32  1  0
 14 33  1  0
 15 34  1  0
 15 35  1  0
 16 36  1  0
 16 37  1  0
 17 38  1  0
 18 39  1  0
 18 40  1  0
 19 41  1  0
 19 42  1  0
 21 43  1  0
 21 44  1  0
 22 45  1  0
 22 46  1  0
M  ISO  8  23  14  27  13  28  13  29  13  30  13  31  13  32  13  33  13
M  ISO  8  34  13  35  13  36  13  37  13  38  13  39  13  40  13  41  13
M  ISO  5  42  13  43  13  44  13  45  13  46  13
M  END
>  <minimizedAffinity>  (1) 
-6.15374041

>  <minimizedRMSD>  (1) 
1.79710352

$$$$
