
     RDKit          3D

 31 33  0  0  0  0  0  0  0  0999 V2000
   45.8880   33.1180   46.4500 C   0  0  0  0  0  0  0  0  0  0  0  0
   45.3030   32.9510   47.7320 C   0  0  0  0  0  0  0  0  0  0  0  0
   45.9280   32.1370   48.6180 C   0  0  0  0  0  0  0  0  0  0  0  0
   47.1300   31.4880   48.2410 C   0  0  0  0  0  0  0  0  0  0  0  0
   47.3770   32.0700   46.5350 S   0  0  0  0  0  0  0  0  0  0  0  0
   48.0180   30.6040   48.8790 C   0  0  0  0  0  0  0  0  0  0  0  0
   49.1810   31.3650   49.4860 C   0  0  0  0  0  0  0  0  0  0  0  0
   50.2150   30.3790   49.9900 C   0  0  0  0  0  0  0  0  0  0  0  0
   49.7160   29.1030   49.9030 O   0  0  0  0  0  0  0  0  0  0  0  0
   49.4870   28.6670   48.6180 C   0  0  0  0  0  0  0  0  0  0  0  0
   48.6570   29.6700   47.8530 C   0  0  0  0  0  0  0  0  0  0  0  0
   44.3180   35.8330   44.4770 C   0  0  0  0  0  0  0  0  0  0  0  0
   44.3680   35.2440   43.1880 C   0  0  0  0  0  0  0  0  0  0  0  0
   44.9300   33.9600   43.0500 C   0  0  0  0  0  0  0  0  0  0  0  0
   45.3960   33.3590   44.1830 N   0  0  0  0  0  0  0  0  0  0  0  0
   45.3260   33.9620   45.3950 C   0  0  0  0  0  0  0  0  0  0  0  0
   44.7880   35.1990   45.5440 N   0  0  0  0  0  0  0  0  0  0  0  0
   44.3691   33.4672   47.9993 H   0  0  0  0  0  0  0  0  0  0  0  0
   45.5054   31.9816   49.6216 H   0  0  0  0  0  0  0  0  0  0  0  0
   47.4378   30.0601   49.6390 H   0  0  0  0  0  0  0  0  0  0  0  0
   49.6339   32.0145   48.7224 H   0  0  0  0  0  0  0  0  0  0  0  0
   48.8215   31.9823   50.3225 H   0  0  0  0  0  0  0  0  0  0  0  0
   51.1255   30.4585   49.3778 H   0  0  0  0  0  0  0  0  0  0  0  0
   50.4554   30.6063   51.0391 H   0  0  0  0  0  0  0  0  0  0  0  0
   50.4510   28.5308   48.1059 H   0  0  0  0  0  0  0  0  0  0  0  0
   48.9390   27.7142   48.6607 H   0  0  0  0  0  0  0  0  0  0  0  0
   49.2974   30.2446   47.1677 H   0  0  0  0  0  0  0  0  0  0  0  0
   47.8866   29.1630   47.2535 H   0  0  0  0  0  0  0  0  0  0  0  0
   43.8809   36.8355   44.5949 H   0  0  0  0  0  0  0  0  0  0  0  0
   43.9749   35.7803   42.3117 H   0  0  0  0  0  0  0  0  0  0  0  0
   44.9907   33.4628   42.0706 H   0  0  0  0  0  0  0  0  0  0  0  0
  1  5  1  0
  1  2  2  0
  2  3  1  0
  4  3  2  0
  4  6  1  0
  5  4  1  0
  6  7  1  0
  7  8  1  0
  9  8  1  0
 10  9  1  0
 11 10  1  0
 11  6  1  0
 12 17  2  0
 13 12  1  0
 14 13  2  0
 14 15  1  0
 15 16  2  0
 16 17  1  0
 16  1  1  0
  2 18  1  0
  3 19  1  0
  6 20  1  0
  7 21  1  0
  7 22  1  0
  8 23  1  0
  8 24  1  0
 10 25  1  0
 10 26  1  0
 11 27  1  0
 11 28  1  0
 12 29  1  0
 13 30  1  0
 14 31  1  0
M  ISO  8  18  14  19  14  20  13  21  13  22  13  23  13  24  13  25  13
M  ISO  6  26  13  27  13  28  13  29  14  30  14  31  14
M  END
>  <minimizedAffinity>  (1) 
-4.74215841

>  <minimizedRMSD>  (1) 
0.968784451

$$$$
