
     RDKit          3D

 47 51  0  0  1  0  0  0  0  0999 V2000
   46.4150   32.4800   46.0900 C   0  0  1  0  0  0  0  0  0  0  0  0
   46.8730   32.6920   47.4710 C   0  0  0  0  0  0  0  0  0  0  0  0
   45.4880   32.0290   47.1080 C   0  0  2  0  0  0  0  0  0  0  0  0
   45.2360   30.6320   47.4760 C   0  0  0  0  0  0  0  0  0  0  0  0
   45.1050   30.1040   48.7190 C   0  0  0  0  0  0  0  0  0  0  0  0
   44.9920   28.7630   49.0270 C   0  0  0  0  0  0  0  0  0  0  0  0
   45.0180   27.8710   47.9470 C   0  0  0  0  0  0  0  0  0  0  0  0
   45.1480   28.3760   46.6530 C   0  0  0  0  0  0  0  0  0  0  0  0
   45.1010   27.4620   45.6160 C   0  0  0  0  0  0  0  0  0  0  0  0
   45.1500   27.9290   44.3090 C   0  0  0  0  0  0  0  0  0  0  0  0
   45.2410   29.2810   44.0450 C   0  0  0  0  0  0  0  0  0  0  0  0
   45.2870   30.1430   45.1160 C   0  0  0  0  0  0  0  0  0  0  0  0
   45.2510   29.7320   46.4410 C   0  0  0  0  0  0  0  0  0  0  0  0
   44.7130   35.5090   44.8410 C   0  0  0  0  0  0  0  0  0  0  0  0
   45.3260   35.6880   43.5500 C   0  0  0  0  0  0  0  0  0  0  0  0
   46.3310   34.7470   43.1560 C   0  0  0  0  0  0  0  0  0  0  0  0
   46.6560   33.7560   43.9890 N   0  0  0  0  0  0  0  0  0  0  0  0
   46.0370   33.6290   45.2140 C   0  0  0  0  0  0  0  0  0  0  0  0
   45.0990   34.4770   45.6250 N   0  0  0  0  0  0  0  0  0  0  0  0
   47.0090   34.8490   41.8620 C   0  0  0  0  0  0  0  0  0  0  0  0
   46.9250   33.5670   41.0450 C   0  0  0  0  0  0  0  0  0  0  0  0
   48.0160   33.7070   39.9780 C   0  0  0  0  0  0  0  0  0  0  0  0
   48.2700   35.0520   39.6900 O   0  0  0  0  0  0  0  0  0  0  0  0
   48.9790   35.6930   40.6990 C   0  0  0  0  0  0  0  0  0  0  0  0
   48.5030   35.1350   42.0170 C   0  0  0  0  0  0  0  0  0  0  0  0
   46.8898   31.9882   45.2282 H   0  0  0  0  0  0  0  0  0  0  0  0
   47.6908   32.0859   47.8881 H   0  0  0  0  0  0  0  0  0  0  0  0
   47.2141   33.5453   48.0755 H   0  0  0  0  0  0  0  0  0  0  0  0
   44.4166   32.2051   47.2844 H   0  0  0  0  0  0  0  0  0  0  0  0
   45.0871   30.8115   49.5611 H   0  0  0  0  0  0  0  0  0  0  0  0
   44.8872   28.4136   50.0648 H   0  0  0  0  0  0  0  0  0  0  0  0
   44.9370   26.7872   48.1170 H   0  0  0  0  0  0  0  0  0  0  0  0
   45.0261   26.3842   45.8228 H   0  0  0  0  0  0  0  0  0  0  0  0
   45.1159   27.2133   43.4744 H   0  0  0  0  0  0  0  0  0  0  0  0
   45.2756   29.6568   43.0117 H   0  0  0  0  0  0  0  0  0  0  0  0
   45.3564   31.2213   44.9101 H   0  0  0  0  0  0  0  0  0  0  0  0
   43.9363   36.2069   45.1868 H   0  0  0  0  0  0  0  0  0  0  0  0
   45.0327   36.5179   42.8902 H   0  0  0  0  0  0  0  0  0  0  0  0
   46.4874   35.6725   41.3524 H   0  0  0  0  0  0  0  0  0  0  0  0
   47.1157   32.6898   41.6807 H   0  0  0  0  0  0  0  0  0  0  0  0
   45.9286   33.4230   40.6019 H   0  0  0  0  0  0  0  0  0  0  0  0
   48.9404   33.2377   40.3458 H   0  0  0  0  0  0  0  0  0  0  0  0
   47.6703   33.2123   39.0583 H   0  0  0  0  0  0  0  0  0  0  0  0
   50.0560   35.5040   40.5788 H   0  0  0  0  0  0  0  0  0  0  0  0
   48.8129   36.7796   40.6572 H   0  0  0  0  0  0  0  0  0  0  0  0
   48.6668   35.8686   42.8201 H   0  0  0  0  0  0  0  0  0  0  0  0
   49.0546   34.2206   42.2807 H   0  0  0  0  0  0  0  0  0  0  0  0
  1  3  1  0
  1  2  1  0
  3  2  1  0
  3  4  1  0
  4  5  2  0
  5  6  1  0
  7  6  2  0
  8  7  1  0
  9  8  2  0
 10  9  1  0
 11 10  2  0
 11 12  1  0
 12 13  2  0
 13  8  1  0
 13  4  1  0
 14 19  2  0
 15 14  1  0
 16 15  2  0
 16 17  1  0
 17 18  2  0
 18 19  1  0
 18  1  1  0
 20 25  1  0
 20 16  1  0
 21 20  1  0
 22 21  1  0
 23 22  1  0
 23 24  1  0
 24 25  1  0
  1 26  1  6
  2 27  1  0
  2 28  1  0
  3 29  1  1
  5 30  1  0
  6 31  1  0
  7 32  1  0
  9 33  1  0
 10 34  1  0
 11 35  1  0
 12 36  1  0
 14 37  1  0
 15 38  1  0
 20 39  1  0
 21 40  1  0
 21 41  1  0
 22 42  1  0
 22 43  1  0
 24 44  1  0
 24 45  1  0
 25 46  1  0
 25 47  1  0
M  ISO  8  26  13  27  13  28  13  29  13  30  14  31  14  32  14  33  14
M  ISO  8  34  14  35  14  36  14  37  14  38  14  39  13  40  13  41  13
M  ISO  6  42  13  43  13  44  13  45  13  46  13  47  13
M  END
>  <minimizedAffinity>  (1) 
-5.91056919

>  <minimizedRMSD>  (1) 
0.394263268

$$$$
