
     RDKit          3D

 44 46  0  0  0  0  0  0  0  0999 V2000
   43.6710   35.0740   40.1770 O   0  0  0  0  0  0  0  0  0  0  0  0
   43.2330   34.8380   41.6170 P   0  0  1  0  0  0  0  0  0  0  0  0
   43.1970   33.1530   41.8960 O   0  0  0  0  0  0  0  0  0  0  0  0
   44.3720   35.5090   42.6690 O   0  0  0  0  0  0  0  0  0  0  0  0
   46.3980   34.3960   43.0870 C   0  0  0  0  0  0  0  0  0  0  0  0
   45.1820   34.8270   43.5610 C   0  0  0  0  0  0  0  0  0  0  0  0
   44.8560   34.5430   44.9110 C   0  0  0  0  0  0  0  0  0  0  0  0
   45.7680   33.8670   45.6350 N   0  0  0  0  0  0  0  0  0  0  0  0
   46.9430   33.4600   45.1460 C   0  0  0  0  0  0  0  0  0  0  0  0
   47.2590   33.7270   43.8630 N   0  0  0  0  0  0  0  0  0  0  0  0
   46.7980   34.6560   41.7020 C   0  0  0  0  0  0  0  0  0  0  0  0
   48.1680   35.2710   41.6850 C   0  0  0  0  0  0  0  0  0  0  0  0
   41.6600   35.4100   41.8700 O   0  0  0  0  0  0  0  0  0  0  0  0
   40.6010   34.7220   41.3110 C   0  0  0  0  0  0  0  0  0  0  0  0
   39.8820   35.3460   40.2890 C   0  0  0  0  0  0  0  0  0  0  0  0
   38.8050   34.7270   39.6700 C   0  0  0  0  0  0  0  0  0  0  0  0
   38.4600   33.4720   40.0960 N   0  0  0  0  0  0  0  0  0  0  0  0
   39.1510   32.8820   41.0720 C   0  0  0  0  0  0  0  0  0  0  0  0
   40.1760   33.5000   41.6430 N   0  0  0  0  0  0  0  0  0  0  0  0
   38.7070   31.5210   41.4680 C   0  0  0  0  0  0  0  0  0  0  0  0
   37.9250   30.8200   40.3690 C   0  0  0  0  0  0  0  0  0  0  0  0
   38.8450   29.9520   39.5170 C   0  0  0  0  0  0  0  0  0  0  0  0
   40.1200   30.5050   39.4360 O   0  0  0  0  0  0  0  0  0  0  0  0
   40.7790   30.5270   40.6410 C   0  0  0  0  0  0  0  0  0  0  0  0
   39.8610   30.6120   41.8390 C   0  0  0  0  0  0  0  0  0  0  0  0
   43.1933   32.9799   42.8707 H   0  0  0  0  0  0  0  0  0  0  0  0
   43.8984   34.8615   45.3486 H   0  0  0  0  0  0  0  0  0  0  0  0
   47.6483   32.9103   45.7866 H   0  0  0  0  0  0  0  0  0  0  0  0
   46.8135   33.7100   41.1408 H   0  0  0  0  0  0  0  0  0  0  0  0
   46.0797   35.3465   41.2358 H   0  0  0  0  0  0  0  0  0  0  0  0
   48.5132   35.4260   42.7179 H   0  0  0  0  0  0  0  0  0  0  0  0
   48.8650   34.5994   41.1623 H   0  0  0  0  0  0  0  0  0  0  0  0
   48.1293   36.2381   41.1623 H   0  0  0  0  0  0  0  0  0  0  0  0
   40.1773   36.3552   39.9660 H   0  0  0  0  0  0  0  0  0  0  0  0
   38.2474   35.2274   38.8646 H   0  0  0  0  0  0  0  0  0  0  0  0
   38.0644   31.6914   42.3443 H   0  0  0  0  0  0  0  0  0  0  0  0
   37.1516   30.1850   40.8259 H   0  0  0  0  0  0  0  0  0  0  0  0
   37.4637   31.5824   39.7241 H   0  0  0  0  0  0  0  0  0  0  0  0
   38.9151   28.9514   39.9685 H   0  0  0  0  0  0  0  0  0  0  0  0
   38.4257   29.8888   38.5020 H   0  0  0  0  0  0  0  0  0  0  0  0
   41.3758   29.6069   40.7264 H   0  0  0  0  0  0  0  0  0  0  0  0
   41.3999   31.4350   40.6491 H   0  0  0  0  0  0  0  0  0  0  0  0
   40.4049   31.0285   42.6996 H   0  0  0  0  0  0  0  0  0  0  0  0
   39.4926   29.6130   42.1152 H   0  0  0  0  0  0  0  0  0  0  0  0
  2  1  2  0
  2 13  1  0
  2  3  1  0
  2  4  1  0
  4  6  1  0
  5  6  2  0
  5 10  1  0
  6  7  1  0
  7  8  2  0
  9  8  1  0
 10  9  2  0
 11  5  1  0
 12 11  1  0
 14 19  1  0
 14 13  1  0
 15 14  2  0
 16 17  2  0
 16 15  1  0
 17 18  1  0
 18 20  1  0
 18 19  2  0
 20 25  1  0
 21 20  1  0
 22 21  1  0
 23 22  1  0
 23 24  1  0
 24 25  1  0
  3 26  1  0
  7 27  1  0
  9 28  1  0
 11 29  1  0
 11 30  1  0
 12 31  1  0
 12 32  1  0
 12 33  1  0
 15 34  1  0
 16 35  1  0
 20 36  1  0
 21 37  1  0
 21 38  1  0
 22 39  1  0
 22 40  1  0
 24 41  1  0
 24 42  1  0
 25 43  1  0
 25 44  1  0
M  ISO  8  26   3  27  14  28  14  29   8  30   8  31   8  32   8  33   8
M  ISO  8  34  14  35  14  36  13  37  13  38  13  39  13  40  13  41  13
M  ISO  3  42  13  43  13  44  13
M  END
>  <minimizedAffinity>  (1) 
-5.67435789

>  <minimizedRMSD>  (1) 
1.34144557

$$$$
