
     RDKit          3D

 47 50  0  0  0  0  0  0  0  0999 V2000
   45.1190   33.9480   40.7230 C   0  0  0  0  0  0  0  0  0  0  0  0
   44.0690   33.6320   39.9030 C   0  0  0  0  0  0  0  0  0  0  0  0
   44.3700   33.1320   38.6690 C   0  0  0  0  0  0  0  0  0  0  0  0
   45.6580   32.9300   38.2130 C   0  0  0  0  0  0  0  0  0  0  0  0
   46.6810   33.2600   39.0660 C   0  0  0  0  0  0  0  0  0  0  0  0
   46.4400   33.7660   40.3160 C   0  0  0  0  0  0  0  0  0  0  0  0
   40.7990   35.2920   40.7870 C   0  0  0  0  0  0  0  0  0  0  0  0
   42.0970   35.1050   40.2810 C   0  0  0  0  0  0  0  0  0  0  0  0
   42.7330   33.8570   40.4120 C   0  0  0  0  0  0  0  0  0  0  0  0
   42.0160   32.9030   41.0390 N   0  0  0  0  0  0  0  0  0  0  0  0
   40.7860   33.0920   41.5140 C   0  0  0  0  0  0  0  0  0  0  0  0
   40.1790   34.2840   41.3880 N   0  0  0  0  0  0  0  0  0  0  0  0
   40.2010   36.5500   40.6360 N   0  0  0  0  0  0  0  0  0  0  0  0
   47.5970   34.0830   41.1440 C   0  0  0  0  0  0  0  0  0  0  0  0
   48.1280   35.3470   40.9470 C   0  0  0  0  0  0  0  0  0  0  0  0
   49.2340   35.8310   41.6440 C   0  0  0  0  0  0  0  0  0  0  0  0
   49.8170   35.0020   42.5700 C   0  0  0  0  0  0  0  0  0  0  0  0
   49.2900   33.7340   42.7720 C   0  0  0  0  0  0  0  0  0  0  0  0
   48.1970   33.2650   42.0790 C   0  0  0  0  0  0  0  0  0  0  0  0
   47.6000   31.9290   42.2550 C   0  0  0  0  0  0  0  0  0  0  0  0
   48.6170   30.8030   42.2530 C   0  0  0  0  0  0  0  0  0  0  0  0
   47.8530   29.5980   42.8170 C   0  0  0  0  0  0  0  0  0  0  0  0
   47.8930   29.7440   44.2150 O   0  0  0  0  0  0  0  0  0  0  0  0
   47.6030   31.0270   44.6090 C   0  0  0  0  0  0  0  0  0  0  0  0
   46.8670   31.8360   43.5800 C   0  0  0  0  0  0  0  0  0  0  0  0
   44.7070   34.9230   43.1110 N   0  0  0  0  0  0  0  0  0  0  0  0
   44.8910   34.4800   42.0370 C   0  0  0  0  0  0  0  0  0  0  0  0
   43.5373   32.8747   37.9979 H   0  0  0  0  0  0  0  0  0  0  0  0
   45.8550   32.5226   37.2104 H   0  0  0  0  0  0  0  0  0  0  0  0
   47.7208   33.1146   38.7378 H   0  0  0  0  0  0  0  0  0  0  0  0
   42.6165   35.9361   39.7816 H   0  0  0  0  0  0  0  0  0  0  0  0
   40.2621   32.2642   42.0143 H   0  0  0  0  0  0  0  0  0  0  0  0
   40.7118   37.3097   40.1640 H   0  0  0  0  0  0  0  0  0  0  0  0
   39.2506   36.7151   40.9970 H   0  0  0  0  0  0  0  0  0  0  0  0
   47.6526   36.0025   40.2024 H   0  0  0  0  0  0  0  0  0  0  0  0
   49.6259   36.8419   41.4585 H   0  0  0  0  0  0  0  0  0  0  0  0
   50.6919   35.3389   43.1454 H   0  0  0  0  0  0  0  0  0  0  0  0
   49.7649   33.0774   43.5159 H   0  0  0  0  0  0  0  0  0  0  0  0
   46.9237   31.8113   41.3955 H   0  0  0  0  0  0  0  0  0  0  0  0
   48.9683   30.5976   41.2310 H   0  0  0  0  0  0  0  0  0  0  0  0
   49.5125   31.0457   42.8439 H   0  0  0  0  0  0  0  0  0  0  0  0
   46.8124   29.6022   42.4603 H   0  0  0  0  0  0  0  0  0  0  0  0
   48.3002   28.6461   42.4947 H   0  0  0  0  0  0  0  0  0  0  0  0
   46.9833   30.9773   45.5165 H   0  0  0  0  0  0  0  0  0  0  0  0
   48.5661   31.5310   44.7773 H   0  0  0  0  0  0  0  0  0  0  0  0
   46.7241   32.8536   43.9724 H   0  0  0  0  0  0  0  0  0  0  0  0
   45.9102   31.3281   43.3887 H   0  0  0  0  0  0  0  0  0  0  0  0
  1 27  1  0
  2  9  1  0
  2  1  2  0
  3  2  1  0
  4  3  2  0
  4  5  1  0
  5  6  2  0
  6  1  1  0
  6 14  1  0
  7 12  2  0
  8  9  2  0
  8  7  1  0
  9 10  1  0
 10 11  2  0
 12 11  1  0
 13  7  1  0
 14 19  1  0
 15 14  2  0
 15 16  1  0
 16 17  2  0
 17 18  1  0
 19 20  1  0
 19 18  2  0
 20 25  1  0
 21 20  1  0
 21 22  1  0
 22 23  1  0
 23 24  1  0
 25 24  1  0
 27 26  3  0
  3 28  1  0
  4 29  1  0
  5 30  1  0
  8 31  1  0
 11 32  1  0
 13 33  1  0
 13 34  1  0
 15 35  1  0
 16 36  1  0
 17 37  1  0
 18 38  1  0
 20 39  1  0
 21 40  1  0
 21 41  1  0
 22 42  1  0
 22 43  1  0
 24 44  1  0
 24 45  1  0
 25 46  1  0
 25 47  1  0
M  ISO  8  28  14  29  14  30  14  31  14  32  14  35  14  36  14  37  14
M  ISO  8  38  14  39  13  40  13  41  13  42  13  43  13  44  13  45  13
M  ISO  2  46  13  47  13
M  END
>  <minimizedAffinity>  (1) 
-6.14238214

>  <minimizedRMSD>  (1) 
0.743315101

$$$$
