
     RDKit          3D

 49 53  0  0  0  0  0  0  0  0999 V2000
   49.8060   30.2760   49.5740 C   0  0  0  0  0  0  0  0  0  0  0  0
   50.0220   31.5120   50.0890 N   0  0  0  0  0  0  0  0  0  0  0  0
   50.7340   31.7510   51.1970 C   0  0  0  0  0  0  0  0  0  0  0  0
   51.2590   30.6880   51.8240 N   0  0  0  0  0  0  0  0  0  0  0  0
   51.1010   29.4330   51.3910 C   0  0  0  0  0  0  0  0  0  0  0  0
   51.6670   28.3450   52.0260 C   0  0  0  0  0  0  0  0  0  0  0  0
   51.5130   27.0790   51.5420 C   0  0  0  0  0  0  0  0  0  0  0  0
   50.7770   26.8490   50.3910 C   0  0  0  0  0  0  0  0  0  0  0  0
   50.1960   27.9320   49.7360 C   0  0  0  0  0  0  0  0  0  0  0  0
   50.3590   29.2150   50.2400 C   0  0  0  0  0  0  0  0  0  0  0  0
   49.5230   27.5140   48.4990 C   0  0  0  0  0  0  0  0  0  0  0  0
   50.6050   26.9320   47.5120 C   0  0  0  0  0  0  0  0  0  0  0  0
   50.0520   26.8610   46.1070 C   0  0  0  0  0  0  0  0  0  0  0  0
   48.7960   26.2940   46.1810 O   0  0  0  0  0  0  0  0  0  0  0  0
   48.6740   25.4940   47.2810 C   0  0  0  0  0  0  0  0  0  0  0  0
   48.6580   26.3060   48.5870 C   0  0  0  0  0  0  0  0  0  0  0  0
   48.8880   29.9940   48.1290 S   0  0  0  0  0  0  0  0  0  0  0  0
   46.1060   32.6340   46.9380 C   0  0  0  0  0  0  0  0  0  0  0  0
   47.2240   31.8180   47.0060 C   0  0  0  0  0  0  0  0  0  0  0  0
   47.4270   30.9830   48.0740 C   0  0  0  0  0  0  0  0  0  0  0  0
   46.5080   30.9400   49.1100 C   0  0  0  0  0  0  0  0  0  0  0  0
   45.4020   31.7260   49.0730 C   0  0  0  0  0  0  0  0  0  0  0  0
   45.2240   32.5590   47.9860 C   0  0  0  0  0  0  0  0  0  0  0  0
   44.7270   35.3380   44.9070 C   0  0  0  0  0  0  0  0  0  0  0  0
   45.4710   35.2700   43.7090 C   0  0  0  0  0  0  0  0  0  0  0  0
   46.4450   34.2910   43.6020 C   0  0  0  0  0  0  0  0  0  0  0  0
   46.6660   33.4230   44.6350 N   0  0  0  0  0  0  0  0  0  0  0  0
   45.9200   33.5250   45.7810 C   0  0  0  0  0  0  0  0  0  0  0  0
   44.9540   34.4780   45.9180 N   0  0  0  0  0  0  0  0  0  0  0  0
   50.8818   32.7730   51.5761 H   0  0  0  0  0  0  0  0  0  0  0  0
   52.2549   28.5028   52.9422 H   0  0  0  0  0  0  0  0  0  0  0  0
   51.9773   26.2332   52.0703 H   0  0  0  0  0  0  0  0  0  0  0  0
   50.6536   25.8279   50.0010 H   0  0  0  0  0  0  0  0  0  0  0  0
   48.9563   28.4154   48.2225 H   0  0  0  0  0  0  0  0  0  0  0  0
   51.4911   27.5837   47.5203 H   0  0  0  0  0  0  0  0  0  0  0  0
   50.8786   25.9182   47.8397 H   0  0  0  0  0  0  0  0  0  0  0  0
   50.7069   26.2411   45.4771 H   0  0  0  0  0  0  0  0  0  0  0  0
   49.9967   27.8656   45.6624 H   0  0  0  0  0  0  0  0  0  0  0  0
   47.7349   24.9264   47.2046 H   0  0  0  0  0  0  0  0  0  0  0  0
   49.5446   24.8223   47.3100 H   0  0  0  0  0  0  0  0  0  0  0  0
   49.0199   25.6682   49.4069 H   0  0  0  0  0  0  0  0  0  0  0  0
   47.6254   26.6382   48.7697 H   0  0  0  0  0  0  0  0  0  0  0  0
   47.9607   31.8407   46.1895 H   0  0  0  0  0  0  0  0  0  0  0  0
   46.6750   30.2675   49.9643 H   0  0  0  0  0  0  0  0  0  0  0  0
   44.6651   31.7001   49.8893 H   0  0  0  0  0  0  0  0  0  0  0  0
   44.3276   33.1960   47.9591 H   0  0  0  0  0  0  0  0  0  0  0  0
   43.9482   36.1071   45.0164 H   0  0  0  0  0  0  0  0  0  0  0  0
   45.2827   35.9738   42.8848 H   0  0  0  0  0  0  0  0  0  0  0  0
   47.0431   34.2115   42.6822 H   0  0  0  0  0  0  0  0  0  0  0  0
  1  2  2  0
  1 10  1  0
  2  3  1  0
  3  4  2  0
  5  4  1  0
  5  6  2  0
  7  6  1  0
  8  7  2  0
  9 10  2  0
  9  8  1  0
 10  5  1  0
 11 16  1  0
 11  9  1  0
 12 11  1  0
 13 14  1  0
 13 12  1  0
 14 15  1  0
 15 16  1  0
 17  1  1  0
 18 19  2  0
 18 23  1  0
 19 20  1  0
 20 17  1  0
 20 21  2  0
 22 21  1  0
 23 22  2  0
 24 29  2  0
 25 24  1  0
 26 25  2  0
 26 27  1  0
 27 28  2  0
 28 29  1  0
 28 18  1  0
  3 30  1  0
  6 31  1  0
  7 32  1  0
  8 33  1  0
 11 34  1  0
 12 35  1  0
 12 36  1  0
 13 37  1  0
 13 38  1  0
 15 39  1  0
 15 40  1  0
 16 41  1  0
 16 42  1  0
 19 43  1  0
 21 44  1  0
 22 45  1  0
 23 46  1  0
 24 47  1  0
 25 48  1  0
 26 49  1  0
M  ISO  8  30  14  31  14  32  14  33  14  34  13  35  13  36  13  37  13
M  ISO  8  38  13  39  13  40  13  41  13  42  13  43  14  44  14  45  14
M  ISO  4  46  14  47  14  48  14  49  14
M  END
>  <minimizedAffinity>  (1) 
-6.6287322

>  <minimizedRMSD>  (1) 
0.491259158

$$$$
