
     RDKit          3D

 34 36  0  0  1  0  0  0  0  0999 V2000
   45.5220   33.5710   41.6140 C   0  0  0  0  0  0  0  0  0  0  0  0
   45.9780   34.1250   42.8550 C   0  0  0  0  0  0  0  0  0  0  0  0
   45.2600   35.1820   43.3820 C   0  0  0  0  0  0  0  0  0  0  0  0
   44.1730   35.6290   42.6980 N   0  0  0  0  0  0  0  0  0  0  0  0
   43.7680   35.1010   41.5480 C   0  0  0  0  0  0  0  0  0  0  0  0
   44.4520   34.0650   41.0100 N   0  0  0  0  0  0  0  0  0  0  0  0
   42.5780   35.5970   40.8080 C   0  0  0  0  0  0  0  0  0  0  0  0
   41.2870   35.4430   41.5660 C   0  0  0  0  0  0  0  0  0  0  0  0
   40.1970   35.9440   40.6270 C   0  0  0  0  0  0  0  0  0  0  0  0
   40.0120   35.0030   39.6440 O   0  0  0  0  0  0  0  0  0  0  0  0
   41.0930   34.1710   39.4850 C   0  0  0  0  0  0  0  0  0  0  0  0
   42.4310   34.8460   39.5180 C   0  0  0  0  0  0  0  0  0  0  0  0
   47.1840   33.6020   43.5560 C   0  0  1  0  0  0  0  0  0  0  0  0
   48.0890   32.6990   42.8790 C   0  0  0  0  0  0  0  0  0  0  0  0
   48.5500   34.0950   43.0890 C   0  0  1  0  0  0  0  0  0  0  0  0
   48.6560   35.0530   41.9540 C   0  0  0  0  0  0  0  0  0  0  0  0
   49.9090   35.6370   41.8850 F   0  0  0  0  0  0  0  0  0  0  0  0
   47.6930   36.0600   42.0430 F   0  0  0  0  0  0  0  0  0  0  0  0
   48.4710   34.3580   40.7890 F   0  0  0  0  0  0  0  0  0  0  0  0
   46.0651   32.7290   41.1599 H   0  0  0  0  0  0  0  0  0  0  0  0
   45.5604   35.6500   44.3311 H   0  0  0  0  0  0  0  0  0  0  0  0
   42.7559   36.6703   40.6460 H   0  0  0  0  0  0  0  0  0  0  0  0
   41.1165   34.3872   41.8232 H   0  0  0  0  0  0  0  0  0  0  0  0
   41.3005   36.0065   42.5106 H   0  0  0  0  0  0  0  0  0  0  0  0
   39.2607   36.0874   41.1862 H   0  0  0  0  0  0  0  0  0  0  0  0
   40.4914   36.9059   40.1818 H   0  0  0  0  0  0  0  0  0  0  0  0
   40.9919   33.6642   38.5140 H   0  0  0  0  0  0  0  0  0  0  0  0
   41.0774   33.4843   40.3442 H   0  0  0  0  0  0  0  0  0  0  0  0
   43.2258   34.0894   39.4411 H   0  0  0  0  0  0  0  0  0  0  0  0
   42.5102   35.5466   38.6737 H   0  0  0  0  0  0  0  0  0  0  0  0
   46.6384   33.5636   44.5104 H   0  0  0  0  0  0  0  0  0  0  0  0
   47.8507   32.3536   41.8622 H   0  0  0  0  0  0  0  0  0  0  0  0
   48.5084   31.7129   43.1275 H   0  0  0  0  0  0  0  0  0  0  0  0
   49.4263   34.5737   43.5505 H   0  0  0  0  0  0  0  0  0  0  0  0
  1  2  2  0
  2  3  1  0
  2 13  1  0
  4  3  2  0
  5  4  1  0
  6  5  2  0
  6  1  1  0
  7  5  1  0
  7  8  1  0
  9  8  1  0
 10  9  1  0
 11 12  1  0
 11 10  1  0
 12  7  1  0
 14 15  1  0
 14 13  1  0
 15 13  1  0
 16 18  1  0
 16 15  1  0
 17 16  1  0
 19 16  1  0
  1 20  1  0
  3 21  1  0
  7 22  1  0
  8 23  1  0
  8 24  1  0
  9 25  1  0
  9 26  1  0
 11 27  1  0
 11 28  1  0
 12 29  1  0
 12 30  1  0
 13 31  1  1
 14 32  1  0
 14 33  1  0
 15 34  1  1
M  ISO  8  20  14  21  14  22  13  23  13  24  13  25  13  26  13  27  13
M  ISO  7  28  13  29  13  30  13  31  13  32  13  33  13  34  13
M  END
>  <minimizedAffinity>  (1) 
-5.34064579

>  <minimizedRMSD>  (1) 
4.78367424

$$$$
