
     RDKit          3D

 42 45  0  0  1  0  0  0  0  0999 V2000
   48.0230   33.3010   43.6000 N   0  0  0  0  0  0  0  0  0  0  0  0
   49.0180   33.0750   42.6700 C   0  0  0  0  0  0  0  0  0  0  0  0
   50.1290   32.4890   42.7770 O   0  0  0  0  0  0  0  0  0  0  0  0
   46.1370   32.4160   44.9350 C   0  0  1  0  0  0  0  0  0  0  0  0
   46.4390   31.4200   43.9690 C   0  0  0  0  0  0  0  0  0  0  0  0
   47.5640   32.3170   44.5210 C   0  0  1  0  0  0  0  0  0  0  0  0
   44.8600   33.7820   43.1330 C   0  0  0  0  0  0  0  0  0  0  0  0
   45.3710   33.6570   44.4490 C   0  0  0  0  0  0  0  0  0  0  0  0
   45.1870   34.7070   45.3180 C   0  0  0  0  0  0  0  0  0  0  0  0
   44.5340   35.8110   44.8890 N   0  0  0  0  0  0  0  0  0  0  0  0
   44.0480   35.9270   43.6290 C   0  0  0  0  0  0  0  0  0  0  0  0
   44.2220   34.8720   42.7270 N   0  0  0  0  0  0  0  0  0  0  0  0
   48.8460   33.5650   41.2420 C   0  0  2  0  0  0  0  0  0  0  0  0
   48.5320   35.0930   41.0730 C   0  0  0  0  0  0  0  0  0  0  0  0
   47.5440   33.9890   40.7320 C   0  0  1  0  0  0  0  0  0  0  0  0
   47.2400   33.9170   39.2490 C   0  0  0  0  0  0  0  0  0  0  0  0
   47.0650   32.5120   38.7480 C   0  0  0  0  0  0  0  0  0  0  0  0
   46.4770   32.6570   37.3420 C   0  0  0  0  0  0  0  0  0  0  0  0
   46.9920   33.7870   36.7090 O   0  0  0  0  0  0  0  0  0  0  0  0
   48.3220   34.0070   37.0670 C   0  0  0  0  0  0  0  0  0  0  0  0
   48.4170   34.4920   38.4930 C   0  0  0  0  0  0  0  0  0  0  0  0
   47.5881   34.2342   43.6292 H   0  0  0  0  0  0  0  0  0  0  0  0
   45.6237   32.3859   45.9075 H   0  0  0  0  0  0  0  0  0  0  0  0
   46.0993   31.5416   42.9298 H   0  0  0  0  0  0  0  0  0  0  0  0
   46.2766   30.3345   43.8960 H   0  0  0  0  0  0  0  0  0  0  0  0
   48.5288   32.1930   45.0346 H   0  0  0  0  0  0  0  0  0  0  0  0
   44.9966   32.9499   42.4267 H   0  0  0  0  0  0  0  0  0  0  0  0
   45.5662   34.6496   46.3490 H   0  0  0  0  0  0  0  0  0  0  0  0
   43.5219   36.8418   43.3187 H   0  0  0  0  0  0  0  0  0  0  0  0
   49.5926   32.8462   40.8732 H   0  0  0  0  0  0  0  0  0  0  0  0
   48.3743   35.7327   41.9539 H   0  0  0  0  0  0  0  0  0  0  0  0
   48.9854   35.9479   40.5500 H   0  0  0  0  0  0  0  0  0  0  0  0
   46.5294   33.6949   41.0387 H   0  0  0  0  0  0  0  0  0  0  0  0
   46.3020   34.4694   39.0912 H   0  0  0  0  0  0  0  0  0  0  0  0
   48.0340   31.9929   38.7091 H   0  0  0  0  0  0  0  0  0  0  0  0
   46.4135   31.9190   39.4067 H   0  0  0  0  0  0  0  0  0  0  0  0
   46.7298   31.7646   36.7506 H   0  0  0  0  0  0  0  0  0  0  0  0
   45.3851   32.7628   37.4234 H   0  0  0  0  0  0  0  0  0  0  0  0
   48.8832   33.0662   36.9674 H   0  0  0  0  0  0  0  0  0  0  0  0
   48.7447   34.7754   36.4030 H   0  0  0  0  0  0  0  0  0  0  0  0
   49.3585   34.1467   38.9451 H   0  0  0  0  0  0  0  0  0  0  0  0
   48.4010   35.5913   38.5299 H   0  0  0  0  0  0  0  0  0  0  0  0
  1  6  1  0
  2  3  2  0
  2  1  1  0
  5  6  1  0
  5  4  1  0
  6  4  1  0
  7  8  2  0
  8  4  1  0
  8  9  1  0
 10  9  2  0
 11 10  1  0
 12  7  1  0
 12 11  2  0
 13  2  1  0
 14 13  1  0
 15 14  1  0
 15 13  1  0
 16 15  1  0
 17 16  1  0
 18 17  1  0
 19 20  1  0
 19 18  1  0
 20 21  1  0
 21 16  1  0
  1 22  1  0
  4 23  1  1
  5 24  1  0
  5 25  1  0
  6 26  1  1
  7 27  1  0
  9 28  1  0
 11 29  1  0
 13 30  1  6
 14 31  1  0
 14 32  1  0
 15 33  1  1
 16 34  1  0
 17 35  1  0
 17 36  1  0
 18 37  1  0
 18 38  1  0
 20 39  1  0
 20 40  1  0
 21 41  1  0
 21 42  1  0
M  ISO  8  23  13  24  13  25  13  26  13  27  14  28  14  29  14  30  13
M  ISO  8  31  13  32  13  33  13  34  13  35  13  36  13  37  13  38  13
M  ISO  4  39  13  40  13  41  13  42  13
M  END
>  <minimizedAffinity>  (1) 
-4.76936579

>  <minimizedRMSD>  (1) 
1.41841936

$$$$
