
     RDKit          3D

 39 42  0  0  1  0  0  0  0  0999 V2000
   47.1360   34.0670   42.4770 C   0  0  2  0  0  0  0  0  0  0  0  0
   48.5040   34.6300   42.6050 C   0  0  0  0  0  0  0  0  0  0  0  0
   48.8330   35.6180   41.5420 C   0  0  0  0  0  0  0  0  0  0  0  0
   48.6270   35.1010   40.1510 C   0  0  0  0  0  0  0  0  0  0  0  0
   47.4040   34.2210   40.0060 C   0  0  0  0  0  0  0  0  0  0  0  0
   46.4590   34.3710   41.1710 C   0  0  1  0  0  0  0  0  0  0  0  0
   46.2440   34.4790   43.5820 C   0  0  0  0  0  0  0  0  0  0  0  0
   45.5740   35.6840   43.3680 C   0  0  0  0  0  0  0  0  0  0  0  0
   44.6930   36.1830   44.3400 C   0  0  0  0  0  0  0  0  0  0  0  0
   44.5570   35.4040   45.4810 N   0  0  0  0  0  0  0  0  0  0  0  0
   45.2220   34.2480   45.6520 C   0  0  0  0  0  0  0  0  0  0  0  0
   46.0620   33.7930   44.6980 N   0  0  0  0  0  0  0  0  0  0  0  0
   45.3700   33.3450   40.9820 C   0  0  2  0  0  0  0  0  0  0  0  0
   44.6250   33.3300   39.6630 C   0  0  0  0  0  0  0  0  0  0  0  0
   43.9420   33.7150   40.9220 C   0  0  1  0  0  0  0  0  0  0  0  0
   43.0130   32.7170   41.5160 C   0  0  0  0  0  0  0  0  0  0  0  0
   41.6950   32.5330   41.2560 N   0  0  0  0  0  0  0  0  0  0  0  0
   41.2190   31.5210   42.0110 C   0  0  0  0  0  0  0  0  0  0  0  0
   42.2480   31.0600   42.7570 N   0  0  0  0  0  0  0  0  0  0  0  0
   43.3320   31.7820   42.4590 N   0  0  0  0  0  0  0  0  0  0  0  0
   47.3035   32.9808   42.5224 H   0  0  0  0  0  0  0  0  0  0  0  0
   48.5873   35.1274   43.5826 H   0  0  0  0  0  0  0  0  0  0  0  0
   49.2122   33.7942   42.5051 H   0  0  0  0  0  0  0  0  0  0  0  0
   48.1944   36.5027   41.6812 H   0  0  0  0  0  0  0  0  0  0  0  0
   49.9033   35.8513   41.6417 H   0  0  0  0  0  0  0  0  0  0  0  0
   48.5192   35.9605   39.4730 H   0  0  0  0  0  0  0  0  0  0  0  0
   49.5015   34.4807   39.9048 H   0  0  0  0  0  0  0  0  0  0  0  0
   46.8752   34.4974   39.0819 H   0  0  0  0  0  0  0  0  0  0  0  0
   47.7405   33.1742   39.9740 H   0  0  0  0  0  0  0  0  0  0  0  0
   46.0848   35.4050   41.2012 H   0  0  0  0  0  0  0  0  0  0  0  0
   45.7366   36.2442   42.4354 H   0  0  0  0  0  0  0  0  0  0  0  0
   44.1467   37.1284   44.2066 H   0  0  0  0  0  0  0  0  0  0  0  0
   45.0806   33.6685   46.5762 H   0  0  0  0  0  0  0  0  0  0  0  0
   45.9419   32.6302   41.5920 H   0  0  0  0  0  0  0  0  0  0  0  0
   44.3856   32.3741   39.1742 H   0  0  0  0  0  0  0  0  0  0  0  0
   44.7693   33.7940   38.6761 H   0  0  0  0  0  0  0  0  0  0  0  0
   43.3474   34.5896   41.2247 H   0  0  0  0  0  0  0  0  0  0  0  0
   40.1864   31.1418   42.0182 H   0  0  0  0  0  0  0  0  0  0  0  0
   42.2040   30.2871   43.4364 H   0  0  0  0  0  0  0  0  0  0  0  0
  1  2  1  0
  1  7  1  0
  3  2  1  0
  4  3  1  0
  5  4  1  0
  5  6  1  0
  6  1  1  0
  7 12  1  0
  8  7  2  0
  8  9  1  0
  9 10  2  0
 10 11  1  0
 12 11  2  0
 13  6  1  0
 14 15  1  0
 14 13  1  0
 15 13  1  0
 15 16  1  0
 16 20  2  0
 17 16  1  0
 17 18  2  0
 18 19  1  0
 20 19  1  0
  1 21  1  1
  2 22  1  0
  2 23  1  0
  3 24  1  0
  3 25  1  0
  4 26  1  0
  4 27  1  0
  5 28  1  0
  5 29  1  0
  6 30  1  1
  8 31  1  0
  9 32  1  0
 11 33  1  0
 13 34  1  1
 14 35  1  0
 14 36  1  0
 15 37  1  6
 18 38  1  0
 19 39  1  0
M  ISO  8  21  13  22  13  23  13  24  13  25  13  26  13  27  13  28  13
M  ISO  8  29  13  30  13  31  14  32  14  33  14  34  13  35  13  36  13
M  ISO  3  37  13  38  14  39   9
M  END
>  <minimizedAffinity>  (1) 
-6.12080526

>  <minimizedRMSD>  (1) 
0.504388034

$$$$
