
     RDKit          3D

 36 40  0  0  0  0  0  0  0  0999 V2000
   47.2040   31.2150   45.2130 C   0  0  0  0  0  0  0  0  0  0  0  0
   46.9200   32.5620   45.1520 C   0  0  0  0  0  0  0  0  0  0  0  0
   46.3600   33.2530   46.2030 C   0  0  0  0  0  0  0  0  0  0  0  0
   46.0520   32.5970   47.3990 C   0  0  0  0  0  0  0  0  0  0  0  0
   45.5150   32.9430   48.5960 N   0  0  0  0  0  0  0  0  0  0  0  0
   45.4690   31.8310   49.3790 C   0  0  0  0  0  0  0  0  0  0  0  0
   45.9800   30.8170   48.6460 N   0  0  0  0  0  0  0  0  0  0  0  0
   46.3470   31.2520   47.4300 C   0  0  0  0  0  0  0  0  0  0  0  0
   46.8980   30.5460   46.4110 C   0  0  0  0  0  0  0  0  0  0  0  0
   46.7210   35.0300   42.4300 C   0  0  0  0  0  0  0  0  0  0  0  0
   47.8060   34.6810   41.6250 C   0  0  0  0  0  0  0  0  0  0  0  0
   48.6050   33.5950   42.0220 C   0  0  0  0  0  0  0  0  0  0  0  0
   48.2840   32.9300   43.1770 N   0  0  0  0  0  0  0  0  0  0  0  0
   47.2180   33.3040   43.9310 C   0  0  0  0  0  0  0  0  0  0  0  0
   46.4560   34.3360   43.5570 N   0  0  0  0  0  0  0  0  0  0  0  0
   47.1750   29.1070   46.5460 C   0  0  0  0  0  0  0  0  0  0  0  0
   48.3140   28.4790   46.0750 C   0  0  0  0  0  0  0  0  0  0  0  0
   48.1300   27.1380   46.4290 C   0  0  0  0  0  0  0  0  0  0  0  0
   46.9050   27.0270   47.0890 C   0  0  0  0  0  0  0  0  0  0  0  0
   46.3710   28.2460   47.1310 O   0  0  0  0  0  0  0  0  0  0  0  0
   46.3770   25.7710   47.6070 C   0  0  0  0  0  0  0  0  0  0  0  0
   46.6020   24.4480   47.4670 N   0  0  0  0  0  0  0  0  0  0  0  0
   45.7410   23.7710   48.2510 C   0  0  0  0  0  0  0  0  0  0  0  0
   44.9660   24.6840   48.8910 N   0  0  0  0  0  0  0  0  0  0  0  0
   45.3640   25.8780   48.4900 N   0  0  0  0  0  0  0  0  0  0  0  0
   47.6517   30.6850   44.3594 H   0  0  0  0  0  0  0  0  0  0  0  0
   46.1534   34.3286   46.1012 H   0  0  0  0  0  0  0  0  0  0  0  0
   45.1970   33.8849   48.8655 H   0  0  0  0  0  0  0  0  0  0  0  0
   45.0892   31.7693   50.4095 H   0  0  0  0  0  0  0  0  0  0  0  0
   46.0779   35.8756   42.1445 H   0  0  0  0  0  0  0  0  0  0  0  0
   48.0299   35.2406   40.7048 H   0  0  0  0  0  0  0  0  0  0  0  0
   49.4705   33.2849   41.4181 H   0  0  0  0  0  0  0  0  0  0  0  0
   49.1664   28.9293   45.5452 H   0  0  0  0  0  0  0  0  0  0  0  0
   48.8292   26.3142   46.2230 H   0  0  0  0  0  0  0  0  0  0  0  0
   45.6773   22.6777   48.3540 H   0  0  0  0  0  0  0  0  0  0  0  0
   44.2108   24.4835   49.5621 H   0  0  0  0  0  0  0  0  0  0  0  0
  1  9  2  0
  2  1  1  0
  2  3  2  0
  3  4  1  0
  4  8  2  0
  4  5  1  0
  5  6  1  0
  7  6  2  0
  8  7  1  0
  9 16  1  0
  9  8  1  0
 10 15  2  0
 11 12  2  0
 11 10  1  0
 12 13  1  0
 13 14  2  0
 14  2  1  0
 15 14  1  0
 16 20  1  0
 17 18  1  0
 17 16  2  0
 18 19  2  0
 19 20  1  0
 19 21  1  0
 21 25  2  0
 22 21  1  0
 22 23  2  0
 23 24  1  0
 25 24  1  0
  1 26  1  0
  3 27  1  0
  5 28  1  0
  6 29  1  0
 10 30  1  0
 11 31  1  0
 12 32  1  0
 17 33  1  0
 18 34  1  0
 23 35  1  0
 24 36  1  0
M  ISO  8  26  14  27  14  28   9  29  14  30  14  31  14  32  14  33  14
M  ISO  3  34  14  35  14  36   9
M  END
>  <minimizedAffinity>  (1) 
-5.7737608

>  <minimizedRMSD>  (1) 
0.991342247

$$$$
