
     RDKit          3D

 28 30  0  0  0  0  0  0  0  0999 V2000
   47.5570   34.1210   43.3100 C   0  0  0  0  0  0  0  0  0  0  0  0
   44.2170   35.6410   43.3950 C   0  0  0  0  0  0  0  0  0  0  0  0
   43.7290   35.4310   42.1060 C   0  0  0  0  0  0  0  0  0  0  0  0
   44.5430   34.7670   41.2030 C   0  0  0  0  0  0  0  0  0  0  0  0
   45.7580   34.3580   41.6080 N   0  0  0  0  0  0  0  0  0  0  0  0
   46.2040   34.5790   42.8710 C   0  0  0  0  0  0  0  0  0  0  0  0
   45.4170   35.2300   43.7710 N   0  0  0  0  0  0  0  0  0  0  0  0
   42.4280   35.9180   41.8250 N   0  0  0  0  0  0  0  0  0  0  0  0
   47.4480   32.8350   44.0680 C   0  0  0  0  0  0  0  0  0  0  0  0
   47.6370   31.5950   43.5150 C   0  0  0  0  0  0  0  0  0  0  0  0
   47.4550   30.6500   44.5140 C   0  0  0  0  0  0  0  0  0  0  0  0
   47.1570   31.3840   45.6480 C   0  0  0  0  0  0  0  0  0  0  0  0
   47.1680   32.6360   45.3320 O   0  0  0  0  0  0  0  0  0  0  0  0
   46.8540   31.0630   47.0430 C   0  0  0  0  0  0  0  0  0  0  0  0
   47.8170   31.3930   47.9250 N   0  0  0  0  0  0  0  0  0  0  0  0
   47.3930   31.0360   49.1540 C   0  0  0  0  0  0  0  0  0  0  0  0
   46.1790   30.4920   49.0220 N   0  0  0  0  0  0  0  0  0  0  0  0
   45.8490   30.5100   47.7210 N   0  0  0  0  0  0  0  0  0  0  0  0
   48.0072   34.8874   43.9580 H   0  0  0  0  0  0  0  0  0  0  0  0
   48.1869   33.9616   42.4224 H   0  0  0  0  0  0  0  0  0  0  0  0
   43.5827   36.1663   44.1242 H   0  0  0  0  0  0  0  0  0  0  0  0
   44.2019   34.5780   40.1744 H   0  0  0  0  0  0  0  0  0  0  0  0
   42.0210   35.7886   40.8877 H   0  0  0  0  0  0  0  0  0  0  0  0
   41.8896   36.4013   42.5581 H   0  0  0  0  0  0  0  0  0  0  0  0
   47.8885   31.3863   42.4647 H   0  0  0  0  0  0  0  0  0  0  0  0
   47.5310   29.5563   44.4241 H   0  0  0  0  0  0  0  0  0  0  0  0
   47.9462   31.1685   50.0955 H   0  0  0  0  0  0  0  0  0  0  0  0
   45.5969   30.1225   49.7872 H   0  0  0  0  0  0  0  0  0  0  0  0
  1  9  1  0
  2  7  2  0
  3  2  1  0
  4  5  1  0
  4  3  2  0
  5  6  2  0
  6  1  1  0
  6  7  1  0
  8  3  1  0
  9 13  1  0
 10  9  2  0
 10 11  1  0
 11 12  2  0
 12 14  1  0
 13 12  1  0
 14 18  2  0
 14 15  1  0
 15 16  2  0
 17 16  1  0
 18 17  1  0
  1 19  1  0
  1 20  1  0
  2 21  1  0
  4 22  1  0
  8 23  1  0
  8 24  1  0
 10 25  1  0
 11 26  1  0
 16 27  1  0
 17 28  1  0
M  ISO  8  19   8  20   8  21  14  22  14  25  14  26  14  27  14  28   9
M  END
>  <minimizedAffinity>  (1) 
-4.66462803

>  <minimizedRMSD>  (1) 
3.26040483

$$$$
