
     RDKit          3D

 32 34  0  0  1  0  0  0  0  0999 V2000
   46.1040   33.8900   43.0030 C   0  0  2  0  0  0  0  0  0  0  0  0
   45.4470   35.0550   42.3650 C   0  0  2  0  0  0  0  0  0  0  0  0
   45.3360   36.2440   43.2760 C   0  0  0  0  0  0  0  0  0  0  0  0
   44.6020   35.8920   44.5550 C   0  0  0  0  0  0  0  0  0  0  0  0
   45.0410   34.5950   45.1600 C   0  0  0  0  0  0  0  0  0  0  0  0
   46.2880   34.0440   44.5090 C   0  0  0  0  0  0  0  0  0  0  0  0
   47.4340   33.6120   42.4260 C   0  0  0  0  0  0  0  0  0  0  0  0
   48.4930   34.4050   42.9060 C   0  0  0  0  0  0  0  0  0  0  0  0
   49.7880   34.1970   42.4150 C   0  0  0  0  0  0  0  0  0  0  0  0
   49.9310   33.1990   41.4720 N   0  0  0  0  0  0  0  0  0  0  0  0
   48.8990   32.4560   41.0310 C   0  0  0  0  0  0  0  0  0  0  0  0
   47.6570   32.6590   41.5040 N   0  0  0  0  0  0  0  0  0  0  0  0
   44.0680   34.6740   41.9520 C   0  0  0  0  0  0  0  0  0  0  0  0
   43.1350   35.4750   41.4120 N   0  0  0  0  0  0  0  0  0  0  0  0
   42.0160   34.8050   41.1650 C   0  0  0  0  0  0  0  0  0  0  0  0
   42.2440   33.5470   41.5550 N   0  0  0  0  0  0  0  0  0  0  0  0
   43.4730   33.4550   42.0300 N   0  0  0  0  0  0  0  0  0  0  0  0
   45.4142   33.0564   42.8048 H   0  0  0  0  0  0  0  0  0  0  0  0
   46.0753   35.3377   41.5075 H   0  0  0  0  0  0  0  0  0  0  0  0
   46.3466   36.5973   43.5286 H   0  0  0  0  0  0  0  0  0  0  0  0
   44.7681   37.0287   42.7547 H   0  0  0  0  0  0  0  0  0  0  0  0
   44.7756   36.6939   45.2876 H   0  0  0  0  0  0  0  0  0  0  0  0
   43.5381   35.7841   44.2973 H   0  0  0  0  0  0  0  0  0  0  0  0
   45.2431   34.7554   46.2293 H   0  0  0  0  0  0  0  0  0  0  0  0
   44.2333   33.8644   45.0053 H   0  0  0  0  0  0  0  0  0  0  0  0
   46.5150   33.0599   44.9449 H   0  0  0  0  0  0  0  0  0  0  0  0
   47.1138   34.7483   44.6880 H   0  0  0  0  0  0  0  0  0  0  0  0
   48.3050   35.1824   43.6612 H   0  0  0  0  0  0  0  0  0  0  0  0
   50.6435   34.7955   42.7614 H   0  0  0  0  0  0  0  0  0  0  0  0
   49.0735   31.6751   40.2762 H   0  0  0  0  0  0  0  0  0  0  0  0
   41.0889   35.2042   40.7279 H   0  0  0  0  0  0  0  0  0  0  0  0
   41.5682   32.7720   41.4947 H   0  0  0  0  0  0  0  0  0  0  0  0
  1  6  1  0
  2  1  1  0
  2  3  1  0
  3  4  1  0
  4  5  1  0
  6  5  1  0
  7  8  2  0
  7  1  1  0
  9  8  1  0
 10  9  2  0
 11 10  1  0
 11 12  2  0
 12  7  1  0
 13 17  2  0
 13  2  1  0
 14 13  1  0
 15 14  2  0
 15 16  1  0
 16 17  1  0
  1 18  1  1
  2 19  1  6
  3 20  1  0
  3 21  1  0
  4 22  1  0
  4 23  1  0
  5 24  1  0
  5 25  1  0
  6 26  1  0
  6 27  1  0
  8 28  1  0
  9 29  1  0
 11 30  1  0
 15 31  1  0
 16 32  1  0
M  ISO  8  18  13  19  13  20  13  21  13  22  13  23  13  24  13  25  13
M  ISO  7  26  13  27  13  28  14  29  14  30  14  31  14  32   9
M  END
>  <minimizedAffinity>  (1) 
-4.94983387

>  <minimizedRMSD>  (1) 
2.34896636

$$$$
