
     RDKit          3D

 34 36  0  0  0  0  0  0  0  0999 V2000
   46.1380   32.5740   46.9350 C   0  0  0  0  0  0  0  0  0  0  0  0
   45.2130   32.5860   47.9310 C   0  0  0  0  0  0  0  0  0  0  0  0
   45.4090   31.7610   49.0230 C   0  0  0  0  0  0  0  0  0  0  0  0
   46.5240   30.9410   49.0980 C   0  0  0  0  0  0  0  0  0  0  0  0
   47.4530   30.9620   48.0450 C   0  0  0  0  0  0  0  0  0  0  0  0
   47.2300   31.7590   47.0280 N   0  0  0  0  0  0  0  0  0  0  0  0
   44.9240   35.0300   44.5300 C   0  0  0  0  0  0  0  0  0  0  0  0
   45.8900   34.9160   43.5030 C   0  0  0  0  0  0  0  0  0  0  0  0
   46.9520   34.0060   43.6230 C   0  0  0  0  0  0  0  0  0  0  0  0
   46.9460   33.2950   44.7660 N   0  0  0  0  0  0  0  0  0  0  0  0
   46.0430   33.4050   45.7240 C   0  0  0  0  0  0  0  0  0  0  0  0
   45.0420   34.2650   45.6060 N   0  0  0  0  0  0  0  0  0  0  0  0
   43.8680   35.9720   44.3400 N   0  0  0  0  0  0  0  0  0  0  0  0
   48.6370   30.1180   48.0820 C   0  0  0  0  0  0  0  0  0  0  0  0
   49.6730   30.3600   48.8700 C   0  0  0  0  0  0  0  0  0  0  0  0
   49.7130   31.5300   49.7980 C   0  0  0  0  0  0  0  0  0  0  0  0
   51.1240   32.0460   49.7100 C   0  0  0  0  0  0  0  0  0  0  0  0
   52.1560   31.3900   49.1610 N   0  0  0  0  0  0  0  0  0  0  0  0
   53.2350   32.1700   49.2760 C   0  0  0  0  0  0  0  0  0  0  0  0
   52.8450   33.3030   49.9000 N   0  0  0  0  0  0  0  0  0  0  0  0
   51.5420   33.2360   50.1720 N   0  0  0  0  0  0  0  0  0  0  0  0
   44.3287   33.2373   47.8696 H   0  0  0  0  0  0  0  0  0  0  0  0
   44.6728   31.7553   49.8403 H   0  0  0  0  0  0  0  0  0  0  0  0
   46.6786   30.2850   49.9674 H   0  0  0  0  0  0  0  0  0  0  0  0
   45.8084   35.5448   42.6041 H   0  0  0  0  0  0  0  0  0  0  0  0
   47.7237   33.8842   42.8487 H   0  0  0  0  0  0  0  0  0  0  0  0
   43.8314   36.5382   43.4804 H   0  0  0  0  0  0  0  0  0  0  0  0
   43.1428   36.0854   45.0626 H   0  0  0  0  0  0  0  0  0  0  0  0
   48.6734   29.2371   47.4242 H   0  0  0  0  0  0  0  0  0  0  0  0
   50.5340   29.6760   48.8404 H   0  0  0  0  0  0  0  0  0  0  0  0
   48.9979   32.3022   49.4782 H   0  0  0  0  0  0  0  0  0  0  0  0
   49.4368   31.2528   50.8260 H   0  0  0  0  0  0  0  0  0  0  0  0
   54.2512   31.9336   48.9276 H   0  0  0  0  0  0  0  0  0  0  0  0
   53.4600   34.0965   50.1301 H   0  0  0  0  0  0  0  0  0  0  0  0
  1  6  1  0
  1  2  2  0
  2  3  1  0
  3  4  2  0
  5 14  1  0
  5  4  1  0
  6  5  2  0
  7 12  2  0
  8  9  2  0
  8  7  1  0
  9 10  1  0
 10 11  2  0
 11  1  1  0
 12 11  1  0
 13  7  1  0
 14 15  2  0
 15 16  1  0
 17 16  1  0
 17 21  2  0
 18 19  2  0
 18 17  1  0
 19 20  1  0
 20 21  1  0
  2 22  1  0
  3 23  1  0
  4 24  1  0
  8 25  1  0
  9 26  1  0
 13 27  1  0
 13 28  1  0
 14 29  1  0
 15 30  1  0
 16 31  1  0
 16 32  1  0
 19 33  1  0
 20 34  1  0
M  ISO  8  22  14  23  14  24  14  25  14  26  14  31   8  32   8  33  14
M  ISO  1  34   9
M  END
>  <minimizedAffinity>  (1) 
-6.2788558

>  <minimizedRMSD>  (1) 
0.804422855

$$$$
