
     RDKit          3D

 36 39  0  0  0  0  0  0  0  0999 V2000
   45.5460   32.3670   40.5040 Cl  0  0  0  0  0  0  0  0  0  0  0  0
   46.8230   33.4780   40.1620 C   0  0  0  0  0  0  0  0  0  0  0  0
   47.3950   34.2240   41.1600 C   0  0  0  0  0  0  0  0  0  0  0  0
   48.4210   35.1220   40.9180 C   0  0  0  0  0  0  0  0  0  0  0  0
   48.8440   35.2330   39.6070 C   0  0  0  0  0  0  0  0  0  0  0  0
   48.2740   34.4840   38.5890 C   0  0  0  0  0  0  0  0  0  0  0  0
   47.2840   33.6250   38.8570 C   0  0  0  0  0  0  0  0  0  0  0  0
   46.8940   32.9080   44.5650 C   0  0  0  0  0  0  0  0  0  0  0  0
   45.9510   33.8190   45.1070 C   0  0  0  0  0  0  0  0  0  0  0  0
   45.5110   34.8550   44.3020 C   0  0  0  0  0  0  0  0  0  0  0  0
   46.0020   34.9550   43.0270 N   0  0  0  0  0  0  0  0  0  0  0  0
   46.9050   34.0650   42.5360 C   0  0  0  0  0  0  0  0  0  0  0  0
   47.3310   33.0670   43.3070 N   0  0  0  0  0  0  0  0  0  0  0  0
   44.5170   35.8780   44.7660 C   0  0  0  0  0  0  0  0  0  0  0  0
   44.9800   37.1400   44.5380 F   0  0  0  0  0  0  0  0  0  0  0  0
   43.3410   35.6890   44.0640 F   0  0  0  0  0  0  0  0  0  0  0  0
   44.3030   35.6340   46.1020 F   0  0  0  0  0  0  0  0  0  0  0  0
   46.6610   32.8210   37.8110 C   0  0  0  0  0  0  0  0  0  0  0  0
   45.5970   33.2510   37.0050 C   0  0  0  0  0  0  0  0  0  0  0  0
   45.2660   32.2420   36.1320 C   0  0  0  0  0  0  0  0  0  0  0  0
   46.1480   31.2330   36.4460 C   0  0  0  0  0  0  0  0  0  0  0  0
   46.9480   31.6010   37.4290 O   0  0  0  0  0  0  0  0  0  0  0  0
   46.3490   29.8860   35.9120 C   0  0  0  0  0  0  0  0  0  0  0  0
   46.2360   28.6720   36.4680 N   0  0  0  0  0  0  0  0  0  0  0  0
   46.5340   27.7140   35.5470 C   0  0  0  0  0  0  0  0  0  0  0  0
   46.8330   28.3830   34.4150 N   0  0  0  0  0  0  0  0  0  0  0  0
   46.7280   29.7000   34.6130 N   0  0  0  0  0  0  0  0  0  0  0  0
   48.8748   35.7150   41.7257 H   0  0  0  0  0  0  0  0  0  0  0  0
   49.6554   35.9350   39.3645 H   0  0  0  0  0  0  0  0  0  0  0  0
   48.6372   34.5965   37.5568 H   0  0  0  0  0  0  0  0  0  0  0  0
   47.2663   32.0723   45.1758 H   0  0  0  0  0  0  0  0  0  0  0  0
   45.5807   33.7052   46.1365 H   0  0  0  0  0  0  0  0  0  0  0  0
   45.1075   34.2344   37.0620 H   0  0  0  0  0  0  0  0  0  0  0  0
   44.4800   32.2412   35.3624 H   0  0  0  0  0  0  0  0  0  0  0  0
   46.5313   26.6240   35.6953 H   0  0  0  0  0  0  0  0  0  0  0  0
   47.1037   27.9415   33.5247 H   0  0  0  0  0  0  0  0  0  0  0  0
  2  1  1  0
  2  3  2  0
  3 12  1  0
  4  3  1  0
  5  4  2  0
  6  7  2  0
  6  5  1  0
  7  2  1  0
  8  9  2  0
 10 14  1  0
 10  9  1  0
 11 10  2  0
 12 11  1  0
 12 13  2  0
 13  8  1  0
 14 17  1  0
 15 14  1  0
 16 14  1  0
 18  7  1  0
 19 18  2  0
 20 21  2  0
 20 19  1  0
 21 22  1  0
 22 18  1  0
 23 21  1  0
 23 24  1  0
 25 24  2  0
 26 27  1  0
 26 25  1  0
 27 23  2  0
  4 28  1  0
  5 29  1  0
  6 30  1  0
  8 31  1  0
  9 32  1  0
 19 33  1  0
 20 34  1  0
 25 35  1  0
 26 36  1  0
M  ISO  8  28  14  29  14  30  14  31  14  32  14  33  14  34  14  35  14
M  ISO  1  36   9
M  END
>  <minimizedAffinity>  (1) 
-5.60276413

>  <minimizedRMSD>  (1) 
0.20925568

$$$$
