
     RDKit          3D

 29 31  0  0  0  0  0  0  0  0999 V2000
   46.8830   34.9280   42.3370 C   0  0  0  0  0  0  0  0  0  0  0  0
   45.4440   34.9570   41.9510 C   0  0  0  0  0  0  0  0  0  0  0  0
   44.5080   35.7290   42.6980 C   0  0  0  0  0  0  0  0  0  0  0  0
   42.9170   35.3970   41.7930 S   0  0  0  0  0  0  0  0  0  0  0  0
   43.8220   34.2710   40.5680 C   0  0  0  0  0  0  0  0  0  0  0  0
   44.8930   34.3170   40.9440 N   0  0  0  0  0  0  0  0  0  0  0  0
   43.1950   33.5500   39.4310 C   0  0  0  0  0  0  0  0  0  0  0  0
   41.9400   33.1240   39.2940 N   0  0  0  0  0  0  0  0  0  0  0  0
   41.7730   32.5120   38.1100 C   0  0  0  0  0  0  0  0  0  0  0  0
   42.9850   32.5630   37.4860 N   0  0  0  0  0  0  0  0  0  0  0  0
   43.8340   33.1930   38.2970 N   0  0  0  0  0  0  0  0  0  0  0  0
   47.8340   34.9440   41.1980 C   0  0  0  0  0  0  0  0  0  0  0  0
   48.9660   33.9960   41.3440 C   0  0  0  0  0  0  0  0  0  0  0  0
   49.0010   32.9070   40.4770 C   0  0  0  0  0  0  0  0  0  0  0  0
   50.0310   31.9900   40.5650 C   0  0  0  0  0  0  0  0  0  0  0  0
   50.9910   32.2000   41.5220 N   0  0  0  0  0  0  0  0  0  0  0  0
   50.9210   33.2710   42.3460 C   0  0  0  0  0  0  0  0  0  0  0  0
   49.9300   34.1400   42.2520 N   0  0  0  0  0  0  0  0  0  0  0  0
   47.7080   32.6900   39.2400 S   0  0  0  0  0  0  0  0  0  0  0  0
   47.0865   35.8079   42.9649 H   0  0  0  0  0  0  0  0  0  0  0  0
   47.0436   33.9741   42.8607 H   0  0  0  0  0  0  0  0  0  0  0  0
   44.6816   36.3594   43.5826 H   0  0  0  0  0  0  0  0  0  0  0  0
   40.8474   32.0614   37.7225 H   0  0  0  0  0  0  0  0  0  0  0  0
   43.2046   32.1825   36.5544 H   0  0  0  0  0  0  0  0  0  0  0  0
   48.2439   35.9604   41.1038 H   0  0  0  0  0  0  0  0  0  0  0  0
   47.2694   34.6309   40.3074 H   0  0  0  0  0  0  0  0  0  0  0  0
   50.0794   31.1219   39.8911 H   0  0  0  0  0  0  0  0  0  0  0  0
   51.7017   33.4207   43.1064 H   0  0  0  0  0  0  0  0  0  0  0  0
   46.5062   32.4883   39.8661 H   0  0  0  0  0  0  0  0  0  0  0  0
  2  1  1  0
  2  3  2  0
  4  3  1  0
  5  6  2  0
  5  4  1  0
  6  2  1  0
  7  5  1  0
  8  7  1  0
  9  8  2  0
 10  9  1  0
 10 11  1  0
 11  7  2  0
 12 13  1  0
 12  1  1  0
 13 18  2  0
 14 15  2  0
 14 13  1  0
 15 16  1  0
 16 17  2  0
 18 17  1  0
 19 14  1  0
  1 20  1  0
  1 21  1  0
  3 22  1  0
  9 23  1  0
 10 24  1  0
 12 25  1  0
 12 26  1  0
 15 27  1  0
 17 28  1  0
 19 29  1  0
M  ISO  8  20   8  21   8  22  14  23  14  24   9  25   8  26   8  27  14
M  ISO  2  28  14  29  11
M  END
>  <minimizedAffinity>  (1) 
-4.41611481

>  <minimizedRMSD>  (1) 
1.54142129

$$$$
