
     RDKit          3D

 32 36  0  0  1  0  0  0  0  0999 V2000
   43.5510   33.8780   40.4970 C   0  0  1  0  0  0  0  0  0  0  0  0
   44.4390   33.4130   39.4710 C   0  0  2  0  0  0  0  0  0  0  0  0
   43.5190   32.4690   40.1500 C   0  0  0  0  0  0  0  0  0  0  0  0
   44.2640   35.7430   41.9000 C   0  0  0  0  0  0  0  0  0  0  0  0
   44.1090   34.3700   41.7620 C   0  0  0  0  0  0  0  0  0  0  0  0
   44.4250   33.5120   42.8090 C   0  0  0  0  0  0  0  0  0  0  0  0
   44.8890   34.1050   43.9630 N   0  0  0  0  0  0  0  0  0  0  0  0
   45.0370   35.4370   44.0940 C   0  0  0  0  0  0  0  0  0  0  0  0
   44.7210   36.2540   43.0490 N   0  0  0  0  0  0  0  0  0  0  0  0
   45.8610   33.0760   39.6720 C   0  0  1  0  0  0  0  0  0  0  0  0
   46.6680   33.7480   39.0020 O   0  0  0  0  0  0  0  0  0  0  0  0
   47.2140   33.1990   40.2160 C   0  0  2  0  0  0  0  0  0  0  0  0
   47.9010   31.8360   40.3450 C   0  0  0  0  0  0  0  0  0  0  0  0
   47.7560   32.7270   41.4670 C   0  0  1  0  0  0  0  0  0  0  0  0
   48.9940   33.3220   41.9710 C   0  0  0  0  0  0  0  0  0  0  0  0
   50.2300   32.7620   41.8170 N   0  0  0  0  0  0  0  0  0  0  0  0
   51.1440   33.5610   42.3950 C   0  0  0  0  0  0  0  0  0  0  0  0
   50.4400   34.6120   42.8990 N   0  0  0  0  0  0  0  0  0  0  0  0
   49.1330   34.4510   42.6330 N   0  0  0  0  0  0  0  0  0  0  0  0
   42.7679   34.6470   40.5710 H   0  0  0  0  0  0  0  0  0  0  0  0
   44.6490   33.8252   38.4730 H   0  0  0  0  0  0  0  0  0  0  0  0
   42.6567   32.0508   39.6101 H   0  0  0  0  0  0  0  0  0  0  0  0
   43.6282   31.5215   40.6979 H   0  0  0  0  0  0  0  0  0  0  0  0
   44.0108   36.4113   41.0638 H   0  0  0  0  0  0  0  0  0  0  0  0
   44.3111   32.4214   42.7213 H   0  0  0  0  0  0  0  0  0  0  0  0
   45.4101   35.8629   45.0371 H   0  0  0  0  0  0  0  0  0  0  0  0
   45.2468   32.2160   39.9773 H   0  0  0  0  0  0  0  0  0  0  0  0
   47.3109   30.9092   40.2917 H   0  0  0  0  0  0  0  0  0  0  0  0
   48.7371   31.3231   39.8471 H   0  0  0  0  0  0  0  0  0  0  0  0
   47.3155   32.6382   42.4710 H   0  0  0  0  0  0  0  0  0  0  0  0
   52.2308   33.3997   42.4493 H   0  0  0  0  0  0  0  0  0  0  0  0
   50.8478   35.4097   43.4072 H   0  0  0  0  0  0  0  0  0  0  0  0
  1  5  1  0
  2 10  1  0
  2  3  1  0
  2  1  1  0
  3  1  1  0
  4  9  2  0
  5  4  1  0
  5  6  2  0
  6  7  1  0
  7  8  2  0
  9  8  1  0
 10 12  1  0
 11 10  1  0
 12 11  1  6
 12 13  1  0
 12 14  1  0
 13 14  1  0
 14 15  1  0
 15 19  2  0
 16 15  1  0
 16 17  2  0
 17 18  1  0
 19 18  1  0
  1 20  1  6
  2 21  1  6
  3 22  1  0
  3 23  1  0
  4 24  1  0
  6 25  1  0
  8 26  1  0
 10 27  1  6
 13 28  1  0
 13 29  1  0
 14 30  1  1
 17 31  1  0
 18 32  1  0
M  ISO  8  20  13  21  13  22  13  23  13  24  14  25  14  26  14  27  13
M  ISO  5  28  13  29  13  30  13  31  14  32   9
M  END
>  <minimizedAffinity>  (1) 
-4.30116129

>  <minimizedRMSD>  (1) 
2.55905461

$$$$
