
     RDKit          3D

 25 26  0  0  0  0  0  0  0  0999 V2000
   48.2870   33.3410   43.4230 O   0  0  0  0  0  0  0  0  0  0  0  0
   46.9750   33.3810   42.9790 C   0  0  0  0  0  0  0  0  0  0  0  0
   45.0940   34.2940   46.0610 C   0  0  0  0  0  0  0  0  0  0  0  0
   45.9330   33.5820   45.1820 C   0  0  0  0  0  0  0  0  0  0  0  0
   46.1100   34.1040   43.9090 C   0  0  0  0  0  0  0  0  0  0  0  0
   45.4690   35.2680   43.5810 N   0  0  0  0  0  0  0  0  0  0  0  0
   44.6730   35.9220   44.4550 C   0  0  0  0  0  0  0  0  0  0  0  0
   44.4950   35.4300   45.6800 N   0  0  0  0  0  0  0  0  0  0  0  0
   50.0220   33.0510   41.4900 O   0  0  0  0  0  0  0  0  0  0  0  0
   49.2390   34.0940   42.2310 P   0  0  2  0  0  0  0  0  0  0  0  0
   50.2040   35.2330   43.0180 O   0  0  0  0  0  0  0  0  0  0  0  0
   48.2060   34.8640   41.1540 O   0  0  0  0  0  0  0  0  0  0  0  0
   48.0180   34.5410   39.8190 C   0  0  0  0  0  0  0  0  0  0  0  0
   48.6820   34.8400   38.6880 N   0  0  0  0  0  0  0  0  0  0  0  0
   48.0820   34.2700   37.6300 C   0  0  0  0  0  0  0  0  0  0  0  0
   47.0350   33.6180   38.1660 N   0  0  0  0  0  0  0  0  0  0  0  0
   46.9570   33.7540   39.4790 N   0  0  0  0  0  0  0  0  0  0  0  0
   46.9451   33.8834   42.0009 H   0  0  0  0  0  0  0  0  0  0  0  0
   46.6076   32.3469   42.9033 H   0  0  0  0  0  0  0  0  0  0  0  0
   44.9276   33.9105   47.0785 H   0  0  0  0  0  0  0  0  0  0  0  0
   46.4278   32.6499   45.4923 H   0  0  0  0  0  0  0  0  0  0  0  0
   44.1744   36.8560   44.1566 H   0  0  0  0  0  0  0  0  0  0  0  0
   50.1113   35.1236   43.9976 H   0  0  0  0  0  0  0  0  0  0  0  0
   48.3780   34.3239   36.5719 H   0  0  0  0  0  0  0  0  0  0  0  0
   46.3630   33.0692   37.6109 H   0  0  0  0  0  0  0  0  0  0  0  0
  2  1  1  0
  2  5  1  0
  4  3  2  0
  5  4  1  0
  6  5  2  0
  6  7  1  0
  7  8  2  0
  8  3  1  0
 10  9  2  0
 10 11  1  0
 10  1  1  0
 12 10  1  0
 13 12  1  0
 14 13  1  0
 15 16  1  0
 15 14  2  0
 16 17  1  0
 17 13  2  0
  2 18  1  0
  2 19  1  0
  3 20  1  0
  4 21  1  0
  7 22  1  0
 11 23  1  0
 15 24  1  0
 16 25  1  0
M  ISO  8  18   8  19   8  20  14  21  14  22  14  23   3  24  14  25   9
M  END
>  <minimizedAffinity>  (1) 
-4.8883543

>  <minimizedRMSD>  (1) 
1.24199593

$$$$
