
     RDKit          3D

 20 21  0  0  0  0  0  0  0  0999 V2000
   45.6690   33.0670   46.8110 C   0  0  0  0  0  0  0  0  0  0  0  0
   44.5550   35.8680   44.6430 C   0  0  0  0  0  0  0  0  0  0  0  0
   45.2880   35.6100   43.4800 C   0  0  0  0  0  0  0  0  0  0  0  0
   46.1430   34.4920   43.4540 C   0  0  0  0  0  0  0  0  0  0  0  0
   46.2470   33.6860   44.5460 N   0  0  0  0  0  0  0  0  0  0  0  0
   45.5070   33.9810   45.6640 C   0  0  0  0  0  0  0  0  0  0  0  0
   44.6880   35.0480   45.6950 N   0  0  0  0  0  0  0  0  0  0  0  0
   46.6120   31.6320   46.2330 S   0  0  0  0  0  0  0  0  0  0  0  0
   47.5320   31.0230   47.6440 C   0  0  0  0  0  0  0  0  0  0  0  0
   48.6100   30.2200   47.6420 N   0  0  0  0  0  0  0  0  0  0  0  0
   49.0110   29.9890   48.9080 C   0  0  0  0  0  0  0  0  0  0  0  0
   48.1620   30.6650   49.7080 N   0  0  0  0  0  0  0  0  0  0  0  0
   47.2730   31.2860   48.9520 N   0  0  0  0  0  0  0  0  0  0  0  0
   46.2143   33.5735   47.6210 H   0  0  0  0  0  0  0  0  0  0  0  0
   44.6885   32.7556   47.2004 H   0  0  0  0  0  0  0  0  0  0  0  0
   43.8777   36.7332   44.6937 H   0  0  0  0  0  0  0  0  0  0  0  0
   45.1981   36.2678   42.6029 H   0  0  0  0  0  0  0  0  0  0  0  0
   46.7282   34.2693   42.5496 H   0  0  0  0  0  0  0  0  0  0  0  0
   49.8633   29.3706   49.2259 H   0  0  0  0  0  0  0  0  0  0  0  0
   48.1998   30.6929   50.7369 H   0  0  0  0  0  0  0  0  0  0  0  0
  2  7  2  0
  3  2  1  0
  4  3  2  0
  4  5  1  0
  5  6  2  0
  6  7  1  0
  6  1  1  0
  8  1  1  0
  8  9  1  0
  9 13  2  0
 10  9  1  0
 10 11  2  0
 11 12  1  0
 13 12  1  0
  1 14  1  0
  1 15  1  0
  2 16  1  0
  3 17  1  0
  4 18  1  0
 11 19  1  0
 12 20  1  0
M  ISO  7  14   8  15   8  16  14  17  14  18  14  19  14  20   9
M  END
>  <minimizedAffinity>  (1) 
-4.22201633

>  <minimizedRMSD>  (1) 
1.22129917

$$$$
