
     RDKit          3D

 36 38  0  0  0  0  0  0  0  0999 V2000
   44.5320   35.6170   44.8030 C   0  0  0  0  0  0  0  0  0  0  0  0
   45.1280   35.5900   43.5230 C   0  0  0  0  0  0  0  0  0  0  0  0
   46.1500   34.6820   43.3220 C   0  0  0  0  0  0  0  0  0  0  0  0
   46.5120   33.8760   44.3650 N   0  0  0  0  0  0  0  0  0  0  0  0
   45.9290   33.9250   45.5640 C   0  0  0  0  0  0  0  0  0  0  0  0
   44.9240   34.8000   45.8030 N   0  0  0  0  0  0  0  0  0  0  0  0
   46.7690   34.6360   42.0360 N   0  0  0  0  0  0  0  0  0  0  0  0
   47.9610   35.2400   41.8880 C   0  0  0  0  0  0  0  0  0  0  0  0
   48.5640   35.1950   40.6340 C   0  0  0  0  0  0  0  0  0  0  0  0
   47.9180   34.5420   39.6150 C   0  0  0  0  0  0  0  0  0  0  0  0
   48.4980   34.5210   38.4800 O   0  0  0  0  0  0  0  0  0  0  0  0
   46.7260   33.9390   39.7630 N   0  0  0  0  0  0  0  0  0  0  0  0
   46.1940   34.0180   41.0030 C   0  0  0  0  0  0  0  0  0  0  0  0
   45.0820   33.4820   41.2320 O   0  0  0  0  0  0  0  0  0  0  0  0
   46.5250   32.9380   46.5000 C   0  0  0  0  0  0  0  0  0  0  0  0
   45.5330   32.5850   47.6000 C   0  0  0  0  0  0  0  0  0  0  0  0
   45.4360   30.1330   47.7330 C   0  0  0  0  0  0  0  0  0  0  0  0
   46.4600   30.2230   48.4310 O   0  0  0  0  0  0  0  0  0  0  0  0
   44.8750   31.3470   47.2770 N   0  0  0  0  0  0  0  0  0  0  0  0
   44.8680   28.8300   47.4180 C   0  0  0  0  0  0  0  0  0  0  0  0
   44.1730   28.5230   46.3310 N   0  0  0  0  0  0  0  0  0  0  0  0
   43.7930   27.2310   46.3510 C   0  0  0  0  0  0  0  0  0  0  0  0
   44.2860   26.7340   47.5150 N   0  0  0  0  0  0  0  0  0  0  0  0
   44.9340   27.7060   48.1540 N   0  0  0  0  0  0  0  0  0  0  0  0
   43.7171   36.3313   44.9921 H   0  0  0  0  0  0  0  0  0  0  0  0
   44.7929   36.2632   42.7201 H   0  0  0  0  0  0  0  0  0  0  0  0
   48.4449   35.7539   42.7317 H   0  0  0  0  0  0  0  0  0  0  0  0
   49.5396   35.6738   40.4635 H   0  0  0  0  0  0  0  0  0  0  0  0
   46.2527   33.4524   38.9884 H   0  0  0  0  0  0  0  0  0  0  0  0
   46.7905   32.0262   45.9449 H   0  0  0  0  0  0  0  0  0  0  0  0
   47.4241   33.3769   46.9571 H   0  0  0  0  0  0  0  0  0  0  0  0
   46.0683   32.4769   48.5549 H   0  0  0  0  0  0  0  0  0  0  0  0
   44.7835   33.3854   47.6868 H   0  0  0  0  0  0  0  0  0  0  0  0
   44.0077   31.3457   46.7215 H   0  0  0  0  0  0  0  0  0  0  0  0
   43.2092   26.6940   45.5889 H   0  0  0  0  0  0  0  0  0  0  0  0
   44.1767   25.7655   47.8482 H   0  0  0  0  0  0  0  0  0  0  0  0
  1  6  2  0
  2  1  1  0
  3  2  2  0
  3  4  1  0
  4  5  2  0
  5  6  1  0
  5 15  1  0
  7  3  1  0
  8  7  1  0
  9  8  2  0
 10 12  1  0
 10  9  1  0
 11 10  2  0
 12 13  1  0
 13 14  2  0
 13  7  1  0
 15 16  1  0
 17 18  2  0
 19 16  1  0
 19 17  1  0
 20 17  1  0
 20 24  2  0
 21 22  2  0
 21 20  1  0
 22 23  1  0
 23 24  1  0
  1 25  1  0
  2 26  1  0
  8 27  1  0
  9 28  1  0
 12 29  1  0
 15 30  1  0
 15 31  1  0
 16 32  1  0
 16 33  1  0
 19 34  1  0
 22 35  1  0
 23 36  1  0
M  ISO  8  25  14  26  14  27  14  28  14  29   9  30   8  31   8  32   8
M  ISO  3  33   8  35  14  36   9
M  END
>  <minimizedAffinity>  (1) 
-6.21217537

>  <minimizedRMSD>  (1) 
1.09056997

$$$$
