
     RDKit          3D

 41 44  0  0  0  0  0  0  0  0999 V2000
   45.9850   33.1760   41.6230 C   0  0  0  0  0  0  0  0  0  0  0  0
   47.1530   33.8760   41.3070 C   0  0  0  0  0  0  0  0  0  0  0  0
   48.1260   33.9540   42.2900 C   0  0  0  0  0  0  0  0  0  0  0  0
   47.8660   33.3440   43.4800 N   0  0  0  0  0  0  0  0  0  0  0  0
   46.7440   32.6780   43.7650 C   0  0  0  0  0  0  0  0  0  0  0  0
   45.7890   32.5900   42.8290 N   0  0  0  0  0  0  0  0  0  0  0  0
   46.8670   30.7400   45.2650 C   0  0  0  0  0  0  0  0  0  0  0  0
   46.5750   32.0670   45.0660 C   0  0  0  0  0  0  0  0  0  0  0  0
   46.1030   32.9030   46.0940 C   0  0  0  0  0  0  0  0  0  0  0  0
   45.9130   32.3970   47.3730 C   0  0  0  0  0  0  0  0  0  0  0  0
   45.4900   32.8750   48.5720 N   0  0  0  0  0  0  0  0  0  0  0  0
   45.5300   31.8430   49.4720 C   0  0  0  0  0  0  0  0  0  0  0  0
   45.9780   30.7430   48.8130 N   0  0  0  0  0  0  0  0  0  0  0  0
   46.2170   31.0620   47.5340 C   0  0  0  0  0  0  0  0  0  0  0  0
   46.6830   30.2160   46.5430 C   0  0  0  0  0  0  0  0  0  0  0  0
   49.3860   34.6840   42.0150 C   0  0  0  0  0  0  0  0  0  0  0  0
   49.1480   35.7860   41.1840 F   0  0  0  0  0  0  0  0  0  0  0  0
   49.9100   35.1900   43.1790 F   0  0  0  0  0  0  0  0  0  0  0  0
   50.2560   33.8200   41.3940 F   0  0  0  0  0  0  0  0  0  0  0  0
   47.2790   34.4380   40.0780 O   0  0  0  0  0  0  0  0  0  0  0  0
   47.3570   33.6960   38.9270 C   0  0  0  0  0  0  0  0  0  0  0  0
   48.3150   34.3660   38.1760 C   0  0  0  0  0  0  0  0  0  0  0  0
   48.4110   33.3570   36.6310 S   0  0  0  0  0  0  0  0  0  0  0  0
   47.1080   32.1860   37.2930 C   0  0  0  0  0  0  0  0  0  0  0  0
   46.9250   32.6670   38.2690 N   0  0  0  0  0  0  0  0  0  0  0  0
   46.7120   31.0830   36.4730 N   0  0  0  0  0  0  0  0  0  0  0  0
   46.3720   31.2040   34.8080 S   0  0  0  0  0  0  0  0  0  0  0  0
   47.6860   31.1920   34.0790 O   0  0  0  0  0  0  0  0  0  0  0  0
   45.6160   32.4620   34.4940 O   0  0  0  0  0  0  0  0  0  0  0  0
   45.4130   29.8960   34.3400 O   0  0  0  0  0  0  0  0  0  0  0  0
   45.1939   33.0978   40.8628 H   0  0  0  0  0  0  0  0  0  0  0  0
   47.2346   30.1104   44.4413 H   0  0  0  0  0  0  0  0  0  0  0  0
   45.8838   33.9603   45.8842 H   0  0  0  0  0  0  0  0  0  0  0  0
   45.1923   33.8411   48.7693 H   0  0  0  0  0  0  0  0  0  0  0  0
   45.2503   31.8956   50.5346 H   0  0  0  0  0  0  0  0  0  0  0  0
   46.9020   29.1597   46.7580 H   0  0  0  0  0  0  0  0  0  0  0  0
   48.8781   35.2742   38.4371 H   0  0  0  0  0  0  0  0  0  0  0  0
   46.6271   30.1575   36.9170 H   0  0  0  0  0  0  0  0  0  0  0  0
   48.4273   31.1852   34.7351 H   0  0  0  0  0  0  0  0  0  0  0  0
   45.3492   32.9060   35.3377 H   0  0  0  0  0  0  0  0  0  0  0  0
   45.0725   29.4316   35.1453 H   0  0  0  0  0  0  0  0  0  0  0  0
  1  6  2  0
  2  1  1  0
  2  3  2  0
  3  4  1  0
  4  5  2  0
  5  8  1  0
  6  5  1  0
  7 15  2  0
  8  7  1  0
  8  9  2  0
  9 10  1  0
 10 14  2  0
 10 11  1  0
 11 12  1  0
 13 12  2  0
 14 13  1  0
 15 14  1  0
 16  3  1  0
 16 18  1  0
 17 16  1  0
 19 16  1  0
 20  2  1  0
 21 20  1  0
 22 21  2  0
 23 24  1  0
 23 22  1  0
 24 25  2  0
 25 21  1  0
 26 24  1  0
 27 26  1  0
 28 27  1  0
 29 27  1  0
 30 27  1  0
  1 31  1  0
  7 32  1  0
  9 33  1  0
 11 34  1  0
 12 35  1  0
 15 36  1  0
 22 37  1  0
 26 38  1  0
 28 39  1  0
 29 40  1  0
 30 41  1  0
M  ISO  8  31  14  32  14  33  14  34   9  35  14  36  14  37  14  39   3
M  ISO  2  40   3  41   3
M  END
>  <minimizedAffinity>  (1) 
-6.39006901

>  <minimizedRMSD>  (1) 
0.332702667

$$$$
