
     RDKit          3D

 38 41  0  0  0  0  0  0  0  0999 V2000
   45.4710   34.8500   43.5210 C   0  0  0  0  0  0  0  0  0  0  0  0
   46.1840   33.7700   44.0940 C   0  0  0  0  0  0  0  0  0  0  0  0
   46.0090   33.5380   45.4450 C   0  0  0  0  0  0  0  0  0  0  0  0
   45.1800   34.3380   46.1480 N   0  0  0  0  0  0  0  0  0  0  0  0
   44.5030   35.3710   45.5760 C   0  0  0  0  0  0  0  0  0  0  0  0
   44.6540   35.6150   44.2830 N   0  0  0  0  0  0  0  0  0  0  0  0
   46.9870   32.7050   47.5160 C   0  0  0  0  0  0  0  0  0  0  0  0
   46.6670   32.4700   46.1840 C   0  0  0  0  0  0  0  0  0  0  0  0
   46.9850   31.2470   45.6430 C   0  0  0  0  0  0  0  0  0  0  0  0
   47.6060   30.2550   46.3710 C   0  0  0  0  0  0  0  0  0  0  0  0
   48.0050   29.0000   46.0510 N   0  0  0  0  0  0  0  0  0  0  0  0
   48.5730   28.4520   47.1780 C   0  0  0  0  0  0  0  0  0  0  0  0
   48.5140   29.3640   48.1540 N   0  0  0  0  0  0  0  0  0  0  0  0
   47.9250   30.4800   47.6850 C   0  0  0  0  0  0  0  0  0  0  0  0
   47.6160   31.6960   48.2520 C   0  0  0  0  0  0  0  0  0  0  0  0
   45.6430   35.0890   42.1580 O   0  0  0  0  0  0  0  0  0  0  0  0
   44.6690   34.7040   41.2520 C   0  0  0  0  0  0  0  0  0  0  0  0
   45.3760   33.8860   40.4390 C   0  0  0  0  0  0  0  0  0  0  0  0
   44.0350   33.3480   39.1850 S   0  0  0  0  0  0  0  0  0  0  0  0
   42.7800   34.4130   40.1090 C   0  0  0  0  0  0  0  0  0  0  0  0
   43.4080   34.8290   40.9150 N   0  0  0  0  0  0  0  0  0  0  0  0
   41.4430   34.4190   39.5830 N   0  0  0  0  0  0  0  0  0  0  0  0
   40.2330   35.0360   40.6020 S   0  0  0  0  0  0  0  0  0  0  0  0
   40.1630   36.5350   40.5910 O   0  0  0  0  0  0  0  0  0  0  0  0
   38.8700   34.5050   40.1790 O   0  0  0  0  0  0  0  0  0  0  0  0
   40.4280   34.5590   42.2010 O   0  0  0  0  0  0  0  0  0  0  0  0
   46.8514   33.1399   43.4877 H   0  0  0  0  0  0  0  0  0  0  0  0
   43.8349   35.9990   46.1836 H   0  0  0  0  0  0  0  0  0  0  0  0
   46.7488   33.6712   47.9847 H   0  0  0  0  0  0  0  0  0  0  0  0
   46.7345   31.0528   44.5897 H   0  0  0  0  0  0  0  0  0  0  0  0
   47.9021   28.5416   45.1344 H   0  0  0  0  0  0  0  0  0  0  0  0
   49.0003   27.4418   47.2614 H   0  0  0  0  0  0  0  0  0  0  0  0
   47.8694   31.8777   49.3069 H   0  0  0  0  0  0  0  0  0  0  0  0
   46.4385   33.6051   40.4863 H   0  0  0  0  0  0  0  0  0  0  0  0
   41.2299   34.0679   38.6384 H   0  0  0  0  0  0  0  0  0  0  0  0
   40.1473   36.8715   41.5219 H   0  0  0  0  0  0  0  0  0  0  0  0
   38.3330   34.2958   40.9840 H   0  0  0  0  0  0  0  0  0  0  0  0
   40.1301   35.2876   42.8014 H   0  0  0  0  0  0  0  0  0  0  0  0
  1  2  2  0
  1  6  1  0
  2  3  1  0
  3  4  2  0
  3  8  1  0
  5  4  1  0
  6  5  2  0
  7 15  2  0
  8  7  1  0
  9  8  2  0
  9 10  1  0
 10 14  2  0
 11 10  1  0
 11 12  1  0
 12 13  2  0
 14 13  1  0
 14 15  1  0
 16  1  1  0
 17 16  1  0
 18 17  2  0
 19 20  1  0
 19 18  1  0
 20 21  2  0
 21 17  1  0
 22 20  1  0
 22 23  1  0
 23 26  1  0
 24 23  1  0
 25 23  1  0
  2 27  1  0
  5 28  1  0
  7 29  1  0
  9 30  1  0
 11 31  1  0
 12 32  1  0
 15 33  1  0
 18 34  1  0
 22 35  1  0
 24 36  1  0
 25 37  1  0
 26 38  1  0
M  ISO  8  27  14  28  14  29  14  30  14  31   9  32  14  33  14  34  14
M  ISO  3  36   3  37   3  38   3
M  END
>  <minimizedAffinity>  (1) 
-6.53829908

>  <minimizedRMSD>  (1) 
1.0181011

$$$$
