
     RDKit          3D

 40 41  0  0  1  0  0  0  0  0999 V2000
   48.4680   31.4240   48.6700 C   0  0  0  0  0  0  0  0  0  0  0  0
   49.4380   32.0060   49.2490 O   0  0  0  0  0  0  0  0  0  0  0  0
   49.1760   30.1960   48.7700 N   0  0  0  0  0  0  0  0  0  0  0  0
   48.7800   29.3620   47.6260 C   0  0  0  0  0  0  0  0  0  0  0  0
   49.4790   28.0380   47.8160 C   0  0  0  0  0  0  0  0  0  0  0  0
   49.3490   27.6210   49.2300 N   0  0  0  0  0  0  0  0  0  0  0  0
   50.3560   28.3550   49.9200 C   0  0  0  0  0  0  0  0  0  0  0  0
   50.1170   29.8260   49.8050 C   0  0  2  0  0  0  0  0  0  0  0  0
   49.8270   30.3680   51.0740 N   0  0  0  0  0  0  0  0  0  0  0  0
   51.2020   30.8840   51.9120 S   0  0  0  0  0  0  0  0  0  0  0  0
   52.4570   30.4980   51.1470 O   0  0  0  0  0  0  0  0  0  0  0  0
   51.1940   32.3650   52.2240 O   0  0  0  0  0  0  0  0  0  0  0  0
   51.3570   30.1210   53.4210 O   0  0  0  0  0  0  0  0  0  0  0  0
   47.4530   32.2740   48.3510 O   0  0  0  0  0  0  0  0  0  0  0  0
   45.4190   30.7900   47.5640 O   0  0  0  0  0  0  0  0  0  0  0  0
   45.8150   32.0490   48.3660 P   0  0  1  0  0  0  0  0  0  0  0  0
   45.2450   31.7910   49.9220 O   0  0  0  0  0  0  0  0  0  0  0  0
   45.0360   33.3730   47.6600 O   0  0  0  0  0  0  0  0  0  0  0  0
   46.6890   33.5010   44.4350 C   0  0  0  0  0  0  0  0  0  0  0  0
   46.3290   33.1080   45.7470 C   0  0  0  0  0  0  0  0  0  0  0  0
   45.3360   33.8010   46.3950 C   0  0  0  0  0  0  0  0  0  0  0  0
   44.7330   34.8430   45.7500 N   0  0  0  0  0  0  0  0  0  0  0  0
   45.0910   35.1960   44.5100 C   0  0  0  0  0  0  0  0  0  0  0  0
   46.0590   34.5420   43.8390 N   0  0  0  0  0  0  0  0  0  0  0  0
   49.0981   29.8305   46.6830 H   0  0  0  0  0  0  0  0  0  0  0  0
   47.6881   29.2381   47.5760 H   0  0  0  0  0  0  0  0  0  0  0  0
   49.0177   27.2810   47.1647 H   0  0  0  0  0  0  0  0  0  0  0  0
   50.5429   28.1396   47.5556 H   0  0  0  0  0  0  0  0  0  0  0  0
   48.4146   27.8571   49.5935 H   0  0  0  0  0  0  0  0  0  0  0  0
   50.3449   28.0703   50.9825 H   0  0  0  0  0  0  0  0  0  0  0  0
   51.3320   28.1213   49.4698 H   0  0  0  0  0  0  0  0  0  0  0  0
   51.0515   30.2879   49.4538 H   0  0  0  0  0  0  0  0  0  0  0  0
   49.1986   31.1745   50.9490 H   0  0  0  0  0  0  0  0  0  0  0  0
   53.1786   30.2760   51.7874 H   0  0  0  0  0  0  0  0  0  0  0  0
   51.1933   32.4955   53.2054 H   0  0  0  0  0  0  0  0  0  0  0  0
   51.2220   30.7856   54.1422 H   0  0  0  0  0  0  0  0  0  0  0  0
   45.9218   32.0973   50.5764 H   0  0  0  0  0  0  0  0  0  0  0  0
   47.4821   32.9597   43.8984 H   0  0  0  0  0  0  0  0  0  0  0  0
   46.8351   32.2637   46.2378 H   0  0  0  0  0  0  0  0  0  0  0  0
   44.5817   36.0423   44.0258 H   0  0  0  0  0  0  0  0  0  0  0  0
  1  3  1  0
  1  2  2  0
  3  8  1  0
  4  5  1  0
  4  3  1  0
  5  6  1  0
  6  7  1  0
  8  7  1  0
  8  9  1  0
  9 10  1  0
 10 12  1  0
 10 13  1  0
 11 10  1  0
 14 16  1  0
 14  1  1  0
 16 15  2  0
 16 17  1  0
 18 16  1  0
 19 20  2  0
 20 21  1  0
 21 18  1  0
 22 21  2  0
 23 22  1  0
 24 19  1  0
 24 23  2  0
  4 25  1  0
  4 26  1  0
  5 27  1  0
  5 28  1  0
  6 29  1  0
  7 30  1  0
  7 31  1  0
  8 32  1  6
  9 33  1  0
 11 34  1  0
 12 35  1  0
 13 36  1  0
 17 37  1  0
 19 38  1  0
 20 39  1  0
 23 40  1  0
M  ISO  8  25  13  26  13  27  13  28  13  29   5  30  13  31  13  32  13
M  ISO  8  33   5  34   3  35   3  36   3  37   3  38  14  39  14  40  14
M  END
>  <minimizedAffinity>  (1) 
-6.04387665

>  <minimizedRMSD>  (1) 
0.561824501

$$$$
