
     RDKit          3D

 35 37  0  0  1  0  0  0  0  0999 V2000
   43.0560   33.5530   40.0570 C   0  0  0  0  0  0  0  0  0  0  0  0
   43.5070   32.8940   38.9330 C   0  0  0  0  0  0  0  0  0  0  0  0
   44.5920   32.0410   38.9280 C   0  0  0  0  0  0  0  0  0  0  0  0
   45.2760   31.8150   40.0750 C   0  0  0  0  0  0  0  0  0  0  0  0
   44.8620   32.4550   41.2410 C   0  0  0  0  0  0  0  0  0  0  0  0
   43.7700   33.2950   41.1830 C   0  0  0  0  0  0  0  0  0  0  0  0
   40.4720   34.0140   40.0730 C   0  0  1  0  0  0  0  0  0  0  0  0
   41.1820   34.6480   41.2580 C   0  0  0  0  0  0  0  0  0  0  0  0
   41.8910   34.4490   40.0650 C   0  0  1  0  0  0  0  0  0  0  0  0
   40.0970   32.5920   40.1980 C   0  0  0  0  0  0  0  0  0  0  0  0
   40.2020   31.8160   39.0030 C   0  0  0  0  0  0  0  0  0  0  0  0
   39.8440   30.4610   39.1440 C   0  0  0  0  0  0  0  0  0  0  0  0
   39.4380   30.0080   40.3650 N   0  0  0  0  0  0  0  0  0  0  0  0
   39.3620   30.8110   41.4630 C   0  0  0  0  0  0  0  0  0  0  0  0
   39.6940   32.1260   41.3930 N   0  0  0  0  0  0  0  0  0  0  0  0
   43.6010   33.7260   42.5270 N   0  0  0  0  0  0  0  0  0  0  0  0
   44.3910   35.1520   43.0920 S   0  0  0  0  0  0  0  0  0  0  0  0
   44.3630   36.1710   41.9620 O   0  0  0  0  0  0  0  0  0  0  0  0
   45.8070   34.9210   43.4480 O   0  0  0  0  0  0  0  0  0  0  0  0
   43.5290   35.8580   44.3570 O   0  0  0  0  0  0  0  0  0  0  0  0
   42.9715   33.0574   37.9862 H   0  0  0  0  0  0  0  0  0  0  0  0
   44.9003   31.5462   37.9952 H   0  0  0  0  0  0  0  0  0  0  0  0
   46.1430   31.1381   40.0856 H   0  0  0  0  0  0  0  0  0  0  0  0
   45.3956   32.2935   42.1892 H   0  0  0  0  0  0  0  0  0  0  0  0
   39.5987   34.2032   39.4314 H   0  0  0  0  0  0  0  0  0  0  0  0
   40.9167   35.6678   41.5736 H   0  0  0  0  0  0  0  0  0  0  0  0
   41.3403   34.3604   42.3079 H   0  0  0  0  0  0  0  0  0  0  0  0
   42.4473   35.0815   39.3576 H   0  0  0  0  0  0  0  0  0  0  0  0
   40.5367   32.2438   38.0464 H   0  0  0  0  0  0  0  0  0  0  0  0
   39.8911   29.7785   38.2826 H   0  0  0  0  0  0  0  0  0  0  0  0
   39.0265   30.3876   42.4212 H   0  0  0  0  0  0  0  0  0  0  0  0
   43.0035   33.1839   43.1673 H   0  0  0  0  0  0  0  0  0  0  0  0
   44.3379   37.0847   42.3422 H   0  0  0  0  0  0  0  0  0  0  0  0
   45.9013   34.9056   44.4334 H   0  0  0  0  0  0  0  0  0  0  0  0
   43.9021   35.5524   45.2216 H   0  0  0  0  0  0  0  0  0  0  0  0
  1  9  1  0
  1  6  1  0
  2  1  2  0
  3  2  1  0
  3  4  2  0
  4  5  1  0
  6  5  2  0
  6 16  1  0
  7 10  1  0
  7  8  1  0
  9  7  1  0
  9  8  1  0
 10 15  2  0
 11 12  2  0
 11 10  1  0
 12 13  1  0
 13 14  2  0
 15 14  1  0
 16 17  1  0
 17 19  1  0
 17 20  1  0
 18 17  1  0
  2 21  1  0
  3 22  1  0
  4 23  1  0
  5 24  1  0
  7 25  1  6
  8 26  1  0
  8 27  1  0
  9 28  1  6
 11 29  1  0
 12 30  1  0
 14 31  1  0
 16 32  1  0
 18 33  1  0
 19 34  1  0
 20 35  1  0
M  ISO  8  21  14  22  14  23  14  24  14  25  13  26  13  27  13  28  13
M  ISO  6  29  14  30  14  31  14  33   3  34   3  35   3
M  END
>  <minimizedAffinity>  (1) 
-4.19417572

>  <minimizedRMSD>  (1) 
5.84209394

$$$$
