
     RDKit          3D

 35 36  0  0  0  0  0  0  0  0999 V2000
   43.8410   35.2510   41.5220 C   0  0  0  0  0  0  0  0  0  0  0  0
   42.6720   34.9240   41.0230 C   0  0  0  0  0  0  0  0  0  0  0  0
   44.3330   35.7530   43.9010 C   0  0  0  0  0  0  0  0  0  0  0  0
   44.3510   34.8770   42.8190 C   0  0  0  0  0  0  0  0  0  0  0  0
   44.8770   33.6230   43.0230 C   0  0  0  0  0  0  0  0  0  0  0  0
   45.3600   33.2750   44.2570 N   0  0  0  0  0  0  0  0  0  0  0  0
   45.3280   34.1530   45.2870 C   0  0  0  0  0  0  0  0  0  0  0  0
   44.8200   35.3720   45.1020 N   0  0  0  0  0  0  0  0  0  0  0  0
   45.8070   33.8620   46.5860 N   0  0  0  0  0  0  0  0  0  0  0  0
   45.8020   32.2820   47.2780 S   0  0  0  0  0  0  0  0  0  0  0  0
   46.9240   32.1280   48.2800 O   0  0  0  0  0  0  0  0  0  0  0  0
   45.8520   31.2250   46.2240 O   0  0  0  0  0  0  0  0  0  0  0  0
   44.3410   32.1320   48.1070 O   0  0  0  0  0  0  0  0  0  0  0  0
   42.2000   35.3440   39.6690 C   0  0  0  0  0  0  0  0  0  0  0  0
   40.8500   34.8000   39.3770 C   0  0  0  0  0  0  0  0  0  0  0  0
   40.4200   34.7460   38.0530 C   0  0  0  0  0  0  0  0  0  0  0  0
   39.1520   34.2360   37.7730 C   0  0  0  0  0  0  0  0  0  0  0  0
   38.3150   33.7810   38.7940 C   0  0  0  0  0  0  0  0  0  0  0  0
   38.7350   33.8310   40.1090 C   0  0  0  0  0  0  0  0  0  0  0  0
   40.0000   34.3430   40.3680 C   0  0  0  0  0  0  0  0  0  0  0  0
   44.4952   35.8700   40.8905 H   0  0  0  0  0  0  0  0  0  0  0  0
   42.0011   34.3051   41.6369 H   0  0  0  0  0  0  0  0  0  0  0  0
   43.9185   36.7643   43.7768 H   0  0  0  0  0  0  0  0  0  0  0  0
   44.9100   32.8992   42.1954 H   0  0  0  0  0  0  0  0  0  0  0  0
   46.1802   34.6382   47.1510 H   0  0  0  0  0  0  0  0  0  0  0  0
   46.5561   32.1785   49.1977 H   0  0  0  0  0  0  0  0  0  0  0  0
   45.8942   30.3335   46.6524 H   0  0  0  0  0  0  0  0  0  0  0  0
   44.5115   32.1495   49.0820 H   0  0  0  0  0  0  0  0  0  0  0  0
   42.1605   36.4425   39.6279 H   0  0  0  0  0  0  0  0  0  0  0  0
   42.9026   34.9521   38.9188 H   0  0  0  0  0  0  0  0  0  0  0  0
   41.0709   35.1004   37.2401 H   0  0  0  0  0  0  0  0  0  0  0  0
   38.8056   34.1915   36.7299 H   0  0  0  0  0  0  0  0  0  0  0  0
   37.3192   33.3820   38.5506 H   0  0  0  0  0  0  0  0  0  0  0  0
   38.0882   33.4766   40.9251 H   0  0  0  0  0  0  0  0  0  0  0  0
   40.3426   34.3872   41.4123 H   0  0  0  0  0  0  0  0  0  0  0  0
  1  4  1  0
  2  1  2  0
  3  8  2  0
  4  5  2  0
  4  3  1  0
  5  6  1  0
  6  7  2  0
  7  9  1  0
  8  7  1  0
  9 10  1  0
 10 13  1  0
 10 11  1  0
 12 10  1  0
 14  2  1  0
 15 14  1  0
 15 20  1  0
 16 15  2  0
 17 16  1  0
 17 18  2  0
 18 19  1  0
 19 20  2  0
  1 21  1  0
  2 22  1  0
  3 23  1  0
  5 24  1  0
  9 25  1  0
 11 26  1  0
 12 27  1  0
 13 28  1  0
 14 29  1  0
 14 30  1  0
 16 31  1  0
 17 32  1  0
 18 33  1  0
 19 34  1  0
 20 35  1  0
M  ISO  8  23  14  24  14  26   3  27   3  28   3  29   8  30   8  31  14
M  ISO  4  32  14  33  14  34  14  35  14
M  END
>  <minimizedAffinity>  (1) 
-6.8173151

>  <minimizedRMSD>  (1) 
0.414651334

$$$$
