
     RDKit          3D

 34 35  0  0  0  0  0  0  0  0999 V2000
   44.6100   35.3900   44.9610 C   0  0  0  0  0  0  0  0  0  0  0  0
   45.1770   35.4180   43.6560 C   0  0  0  0  0  0  0  0  0  0  0  0
   46.2370   34.5330   43.4020 C   0  0  0  0  0  0  0  0  0  0  0  0
   46.6640   33.7060   44.4040 N   0  0  0  0  0  0  0  0  0  0  0  0
   46.0950   33.7190   45.6170 C   0  0  0  0  0  0  0  0  0  0  0  0
   45.0730   34.5480   45.9140 N   0  0  0  0  0  0  0  0  0  0  0  0
   46.8120   34.5510   42.1050 N   0  0  0  0  0  0  0  0  0  0  0  0
   47.9910   35.2010   41.9490 C   0  0  0  0  0  0  0  0  0  0  0  0
   48.5870   35.2430   40.6960 C   0  0  0  0  0  0  0  0  0  0  0  0
   47.9370   34.6150   39.6810 C   0  0  0  0  0  0  0  0  0  0  0  0
   48.4660   34.6380   38.5100 O   0  0  0  0  0  0  0  0  0  0  0  0
   46.7670   33.9630   39.8100 N   0  0  0  0  0  0  0  0  0  0  0  0
   46.2330   33.9550   41.0510 C   0  0  0  0  0  0  0  0  0  0  0  0
   45.1580   33.3890   41.2980 O   0  0  0  0  0  0  0  0  0  0  0  0
   46.7270   32.7430   46.5250 C   0  0  0  0  0  0  0  0  0  0  0  0
   45.8730   32.3860   47.7090 C   0  0  0  0  0  0  0  0  0  0  0  0
   44.8630   31.4530   47.3310 N   0  0  0  0  0  0  0  0  0  0  0  0
   45.3050   29.8090   47.6210 S   0  0  0  0  0  0  0  0  0  0  0  0
   44.3760   28.9540   46.7810 O   0  0  0  0  0  0  0  0  0  0  0  0
   46.6950   29.5210   47.1970 O   0  0  0  0  0  0  0  0  0  0  0  0
   45.0480   29.4000   49.2080 O   0  0  0  0  0  0  0  0  0  0  0  0
   43.7772   36.0676   45.2003 H   0  0  0  0  0  0  0  0  0  0  0  0
   44.8016   36.1024   42.8810 H   0  0  0  0  0  0  0  0  0  0  0  0
   48.4717   35.6913   42.8083 H   0  0  0  0  0  0  0  0  0  0  0  0
   49.5431   35.7616   40.5319 H   0  0  0  0  0  0  0  0  0  0  0  0
   46.3076   33.4994   39.0131 H   0  0  0  0  0  0  0  0  0  0  0  0
   46.9369   31.8244   45.9574 H   0  0  0  0  0  0  0  0  0  0  0  0
   47.6430   33.2102   46.9157 H   0  0  0  0  0  0  0  0  0  0  0  0
   46.5053   31.9388   48.4901 H   0  0  0  0  0  0  0  0  0  0  0  0
   45.3909   33.2988   48.0890 H   0  0  0  0  0  0  0  0  0  0  0  0
   44.6727   31.5674   46.3252 H   0  0  0  0  0  0  0  0  0  0  0  0
   43.7934   28.4178   47.3753 H   0  0  0  0  0  0  0  0  0  0  0  0
   47.2662   29.4027   47.9969 H   0  0  0  0  0  0  0  0  0  0  0  0
   45.4720   30.0747   49.7955 H   0  0  0  0  0  0  0  0  0  0  0  0
  1  6  2  0
  2  1  1  0
  3  2  2  0
  3  4  1  0
  4  5  2  0
  5  6  1  0
  5 15  1  0
  7  3  1  0
  8  7  1  0
  9  8  2  0
 10 12  1  0
 10  9  1  0
 11 10  2  0
 12 13  1  0
 13 14  2  0
 13  7  1  0
 15 16  1  0
 17 18  1  0
 17 16  1  0
 18 21  1  0
 19 18  1  0
 20 18  1  0
  1 22  1  0
  2 23  1  0
  8 24  1  0
  9 25  1  0
 12 26  1  0
 15 27  1  0
 15 28  1  0
 16 29  1  0
 16 30  1  0
 17 31  1  0
 19 32  1  0
 20 33  1  0
 21 34  1  0
M  ISO  8  22  14  23  14  24  14  25  14  26   9  27   8  28   8  29   8
M  ISO  5  30   8  31   5  32   3  33   3  34   3
M  END
>  <minimizedAffinity>  (1) 
-5.85786104

>  <minimizedRMSD>  (1) 
1.20621455

$$$$
