
     RDKit          3D

 30 31  0  0  0  0  0  0  0  0999 V2000
   46.6380   34.7930   42.1020 C   0  0  0  0  0  0  0  0  0  0  0  0
   47.8830   35.3320   41.9510 C   0  0  0  0  0  0  0  0  0  0  0  0
   48.6920   35.1930   40.8380 C   0  0  0  0  0  0  0  0  0  0  0  0
   48.2040   34.4380   39.7730 C   0  0  0  0  0  0  0  0  0  0  0  0
   46.9540   33.8880   39.9070 C   0  0  0  0  0  0  0  0  0  0  0  0
   46.1970   34.0600   41.0340 C   0  0  0  0  0  0  0  0  0  0  0  0
   44.4170   36.1960   44.7710 C   0  0  0  0  0  0  0  0  0  0  0  0
   45.0840   36.1020   43.5200 C   0  0  0  0  0  0  0  0  0  0  0  0
   45.9080   35.0160   43.3130 C   0  0  0  0  0  0  0  0  0  0  0  0
   46.0540   34.0830   44.2990 N   0  0  0  0  0  0  0  0  0  0  0  0
   45.3930   34.2160   45.4860 C   0  0  0  0  0  0  0  0  0  0  0  0
   44.5740   35.2780   45.7120 N   0  0  0  0  0  0  0  0  0  0  0  0
   45.5370   33.2450   46.5170 N   0  0  0  0  0  0  0  0  0  0  0  0
   44.9160   33.4740   41.1250 N   0  0  0  0  0  0  0  0  0  0  0  0
   43.3100   33.9260   40.7130 S   0  0  0  0  0  0  0  0  0  0  0  0
   42.8290   33.1920   39.4950 O   0  0  0  0  0  0  0  0  0  0  0  0
   43.2440   35.4130   40.5020 O   0  0  0  0  0  0  0  0  0  0  0  0
   42.3110   33.6130   42.0400 O   0  0  0  0  0  0  0  0  0  0  0  0
   48.2769   35.9286   42.7870 H   0  0  0  0  0  0  0  0  0  0  0  0
   49.6861   35.6620   40.7948 H   0  0  0  0  0  0  0  0  0  0  0  0
   48.7984   34.2886   38.8596 H   0  0  0  0  0  0  0  0  0  0  0  0
   46.5464   33.2881   39.0800 H   0  0  0  0  0  0  0  0  0  0  0  0
   43.7539   37.0525   44.9624 H   0  0  0  0  0  0  0  0  0  0  0  0
   44.9477   36.8691   42.7435 H   0  0  0  0  0  0  0  0  0  0  0  0
   45.0314   33.3599   47.4070 H   0  0  0  0  0  0  0  0  0  0  0  0
   46.1468   32.4275   46.3730 H   0  0  0  0  0  0  0  0  0  0  0  0
   44.9535   32.5348   41.5463 H   0  0  0  0  0  0  0  0  0  0  0  0
   42.3082   32.3972   39.7729 H   0  0  0  0  0  0  0  0  0  0  0  0
   43.2237   35.8703   41.3798 H   0  0  0  0  0  0  0  0  0  0  0  0
   42.8152   33.7710   42.8772 H   0  0  0  0  0  0  0  0  0  0  0  0
  1  9  1  0
  2  1  2  0
  3  2  1  0
  4  5  1  0
  4  3  2  0
  5  6  2  0
  6 14  1  0
  6  1  1  0
  7 12  2  0
  8  7  1  0
  9  8  2  0
  9 10  1  0
 10 11  2  0
 11 12  1  0
 11 13  1  0
 15 14  1  0
 15 18  1  0
 16 15  1  0
 17 15  1  0
  2 19  1  0
  3 20  1  0
  4 21  1  0
  5 22  1  0
  7 23  1  0
  8 24  1  0
 13 25  1  0
 13 26  1  0
 14 27  1  0
 16 28  1  0
 17 29  1  0
 18 30  1  0
M  ISO  8  19  14  20  14  21  14  22  14  23  14  24  14  28   3  29   3
M  ISO  1  30   3
M  END
>  <minimizedAffinity>  (1) 
-5.99361181

>  <minimizedRMSD>  (1) 
0.926031232

$$$$
