
     RDKit          3D

 24 24  0  0  0  0  0  0  0  0999 V2000
   44.6890   35.7980   44.7530 C   0  0  0  0  0  0  0  0  0  0  0  0
   45.3140   35.9890   43.4930 C   0  0  0  0  0  0  0  0  0  0  0  0
   46.0780   34.9410   42.9980 C   0  0  0  0  0  0  0  0  0  0  0  0
   46.1920   33.8070   43.7210 N   0  0  0  0  0  0  0  0  0  0  0  0
   45.5910   33.6520   44.9140 C   0  0  0  0  0  0  0  0  0  0  0  0
   44.8430   34.6310   45.4370 N   0  0  0  0  0  0  0  0  0  0  0  0
   45.7580   32.4360   45.6120 N   0  0  0  0  0  0  0  0  0  0  0  0
   46.1010   32.2760   47.2730 S   0  0  0  0  0  0  0  0  0  0  0  0
   44.9520   32.5470   48.1700 O   0  0  0  0  0  0  0  0  0  0  0  0
   46.5610   30.8500   47.5240 O   0  0  0  0  0  0  0  0  0  0  0  0
   47.4160   33.2330   47.7570 O   0  0  0  0  0  0  0  0  0  0  0  0
   46.6850   35.1440   41.7560 O   0  0  0  0  0  0  0  0  0  0  0  0
   48.4200   33.3380   40.9240 O   0  0  0  0  0  0  0  0  0  0  0  0
   48.3360   34.7200   41.5550 P   0  0  0  0  0  0  0  0  0  0  0  0
   49.0800   35.8790   40.6240 O   0  0  0  0  0  0  0  0  0  0  0  0
   49.0270   34.6280   43.1120 O   0  0  0  0  0  0  0  0  0  0  0  0
   44.0731   36.6022   45.1818 H   0  0  0  0  0  0  0  0  0  0  0  0
   45.1978   36.9282   42.9322 H   0  0  0  0  0  0  0  0  0  0  0  0
   45.6639   31.5668   45.0675 H   0  0  0  0  0  0  0  0  0  0  0  0
   45.2459   32.4777   49.1128 H   0  0  0  0  0  0  0  0  0  0  0  0
   46.6136   30.6870   48.4991 H   0  0  0  0  0  0  0  0  0  0  0  0
   47.4565   33.2625   48.7457 H   0  0  0  0  0  0  0  0  0  0  0  0
   49.5101   36.5490   41.2125 H   0  0  0  0  0  0  0  0  0  0  0  0
   48.3162   34.7226   43.7946 H   0  0  0  0  0  0  0  0  0  0  0  0
  1  6  2  0
  2  1  1  0
  3  2  2  0
  3  4  1  0
  4  5  2  0
  5  6  1  0
  5  7  1  0
  7  8  1  0
  8 10  1  0
  8 11  1  0
  8  9  1  0
 12  3  1  0
 13 14  2  0
 14 12  1  0
 14 16  1  0
 15 14  1  0
  1 17  1  0
  2 18  1  0
  7 19  1  0
  9 20  1  0
 10 21  1  0
 11 22  1  0
 15 23  1  0
 16 24  1  0
M  ISO  7  17  14  18  14  20   3  21   3  22   3  23   3  24   3
M  END
>  <minimizedAffinity>  (1) 
-5.67929792

>  <minimizedRMSD>  (1) 
0.88678968

$$$$
