
     RDKit          3D

 45 47  0  0  1  0  0  0  0  0999 V2000
   47.1460   30.0240   47.9880 C   0  0  2  0  0  0  0  0  0  0  0  0
   45.7100   30.2760   48.2460 C   0  0  2  0  0  0  0  0  0  0  0  0
   45.0130   29.4140   47.2590 C   0  0  0  0  0  0  0  0  0  0  0  0
   45.8200   28.3140   47.0300 O   0  0  0  0  0  0  0  0  0  0  0  0
   47.0350   28.5310   47.5940 C   0  0  0  0  0  0  0  0  0  0  0  0
   45.3500   31.6030   48.1550 O   0  0  0  0  0  0  0  0  0  0  0  0
   47.4560   32.9040   47.4680 O   0  0  0  0  0  0  0  0  0  0  0  0
   46.1860   32.3270   46.9080 P   0  0  1  0  0  0  0  0  0  0  0  0
   46.5860   31.1620   45.7460 O   0  0  0  0  0  0  0  0  0  0  0  0
   45.3240   33.6280   46.2090 O   0  0  0  0  0  0  0  0  0  0  0  0
   45.1990   35.7670   43.3530 C   0  0  0  0  0  0  0  0  0  0  0  0
   46.2730   35.3200   42.5390 C   0  0  0  0  0  0  0  0  0  0  0  0
   47.0390   34.2500   43.0230 C   0  0  0  0  0  0  0  0  0  0  0  0
   46.7030   33.7210   44.2260 N   0  0  0  0  0  0  0  0  0  0  0  0
   45.6760   34.1720   44.9680 C   0  0  0  0  0  0  0  0  0  0  0  0
   44.9300   35.1930   44.5260 N   0  0  0  0  0  0  0  0  0  0  0  0
   44.4480   36.8200   42.8760 O   0  0  0  0  0  0  0  0  0  0  0  0
   47.9460   30.2020   49.0860 O   0  0  0  0  0  0  0  0  0  0  0  0
   50.0050   29.1910   49.7970 C   0  0  2  0  0  0  0  0  0  0  0  0
   49.2720   30.3040   49.0030 C   0  0  2  0  0  0  0  0  0  0  0  0
   49.7250   31.5780   49.6770 C   0  0  0  0  0  0  0  0  0  0  0  0
   51.0780   31.5320   50.0060 O   0  0  0  0  0  0  0  0  0  0  0  0
   51.2850   30.7770   51.1560 C   0  0  0  0  0  0  0  0  0  0  0  0
   50.2690   29.6690   51.2300 C   0  0  2  0  0  0  0  0  0  0  0  0
   51.2800   28.9880   49.2670 O   0  0  0  0  0  0  0  0  0  0  0  0
   50.8990   28.5790   51.8500 O   0  0  0  0  0  0  0  0  0  0  0  0
   47.6113   30.6993   47.2549 H   0  0  0  0  0  0  0  0  0  0  0  0
   45.4361   30.0330   49.2833 H   0  0  0  0  0  0  0  0  0  0  0  0
   44.0416   29.0908   47.6614 H   0  0  0  0  0  0  0  0  0  0  0  0
   44.8294   29.9633   46.3238 H   0  0  0  0  0  0  0  0  0  0  0  0
   47.1430   27.9035   48.4910 H   0  0  0  0  0  0  0  0  0  0  0  0
   47.8294   28.2748   46.8775 H   0  0  0  0  0  0  0  0  0  0  0  0
   46.8719   30.3292   46.1985 H   0  0  0  0  0  0  0  0  0  0  0  0
   46.4945   35.7926   41.5707 H   0  0  0  0  0  0  0  0  0  0  0  0
   47.8861   33.8519   42.4451 H   0  0  0  0  0  0  0  0  0  0  0  0
   44.6682   37.2290   42.0018 H   0  0  0  0  0  0  0  0  0  0  0  0
   49.3784   28.2880   49.7532 H   0  0  0  0  0  0  0  0  0  0  0  0
   49.5064   30.2522   47.9295 H   0  0  0  0  0  0  0  0  0  0  0  0
   49.5522   32.4235   48.9948 H   0  0  0  0  0  0  0  0  0  0  0  0
   49.1492   31.6986   50.6065 H   0  0  0  0  0  0  0  0  0  0  0  0
   52.2959   30.3441   51.1312 H   0  0  0  0  0  0  0  0  0  0  0  0
   51.1800   31.4248   52.0388 H   0  0  0  0  0  0  0  0  0  0  0  0
   49.3590   30.0058   51.7481 H   0  0  0  0  0  0  0  0  0  0  0  0
   51.9315   28.8843   50.0051 H   0  0  0  0  0  0  0  0  0  0  0  0
   50.8408   28.6797   52.8331 H   0  0  0  0  0  0  0  0  0  0  0  0
  1  2  1  0
  1 18  1  0
  3  2  1  0
  4  3  1  0
  4  5  1  0
  5  1  1  0
  6  2  1  0
  8  7  2  0
  8  6  1  0
  9  8  1  0
 10  8  1  0
 11 16  2  0
 12 13  2  0
 12 11  1  0
 13 14  1  0
 14 15  2  0
 15 10  1  0
 16 15  1  0
 17 11  1  0
 19 25  1  0
 19 24  1  0
 20 18  1  0
 20 21  1  0
 20 19  1  0
 21 22  1  0
 22 23  1  0
 23 24  1  0
 24 26  1  0
  1 27  1  6
  2 28  1  1
  3 29  1  0
  3 30  1  0
  5 31  1  0
  5 32  1  0
  9 33  1  0
 12 34  1  0
 13 35  1  0
 17 36  1  0
 19 37  1  1
 20 38  1  6
 21 39  1  0
 21 40  1  0
 23 41  1  0
 23 42  1  0
 24 43  1  1
 25 44  1  0
 26 45  1  0
M  ISO  8  27  13  28  13  29  13  30  13  31  13  32  13  33   3  34  14
M  ISO  8  35  14  36   3  37  13  38  13  39  13  40  13  41  13  42  13
M  ISO  3  43  13  44   3  45   3
M  END
>  <minimizedAffinity>  (1) 
-5.53719568

>  <minimizedRMSD>  (1) 
0.546695888

$$$$
