
     RDKit          3D

 27 28  0  0  1  0  0  0  0  0999 V2000
   45.4710   32.4680   47.6940 C   0  0  1  0  0  0  0  0  0  0  0  0
   46.4090   32.5010   46.5330 C   0  0  1  0  0  0  0  0  0  0  0  0
   47.3140   31.2810   46.5880 C   0  0  0  0  0  0  0  0  0  0  0  0
   46.7520   30.2560   47.3220 O   0  0  0  0  0  0  0  0  0  0  0  0
   46.6310   30.5550   48.6710 C   0  0  0  0  0  0  0  0  0  0  0  0
   46.2400   31.9930   48.9090 C   0  0  2  0  0  0  0  0  0  0  0  0
   44.9010   33.7180   47.9250 O   0  0  0  0  0  0  0  0  0  0  0  0
   45.3530   32.0960   50.0030 O   0  0  0  0  0  0  0  0  0  0  0  0
   45.6690   32.5230   45.3120 O   0  0  0  0  0  0  0  0  0  0  0  0
   45.5220   35.2950   43.0770 C   0  0  0  0  0  0  0  0  0  0  0  0
   46.8140   35.3230   42.4900 C   0  0  0  0  0  0  0  0  0  0  0  0
   47.7460   34.3390   42.9000 C   0  0  0  0  0  0  0  0  0  0  0  0
   47.3240   33.4410   43.8290 N   0  0  0  0  0  0  0  0  0  0  0  0
   46.0900   33.4500   44.3600 C   0  0  0  0  0  0  0  0  0  0  0  0
   45.2080   34.3720   43.9790 N   0  0  0  0  0  0  0  0  0  0  0  0
   44.6425   31.7777   47.4769 H   0  0  0  0  0  0  0  0  0  0  0  0
   47.0276   33.4094   46.5793 H   0  0  0  0  0  0  0  0  0  0  0  0
   47.4954   30.9262   45.5627 H   0  0  0  0  0  0  0  0  0  0  0  0
   48.2539   31.5755   47.0778 H   0  0  0  0  0  0  0  0  0  0  0  0
   45.8617   29.9025   49.1098 H   0  0  0  0  0  0  0  0  0  0  0  0
   47.6128   30.3925   49.1398 H   0  0  0  0  0  0  0  0  0  0  0  0
   47.1498   32.5806   49.1013 H   0  0  0  0  0  0  0  0  0  0  0  0
   44.8302   33.8733   48.9002 H   0  0  0  0  0  0  0  0  0  0  0  0
   45.8640   32.0367   50.8489 H   0  0  0  0  0  0  0  0  0  0  0  0
   44.7734   36.0451   42.7820 H   0  0  0  0  0  0  0  0  0  0  0  0
   47.0822   36.0835   41.7418 H   0  0  0  0  0  0  0  0  0  0  0  0
   48.7644   34.3030   42.4859 H   0  0  0  0  0  0  0  0  0  0  0  0
  1  7  1  0
  1  6  1  0
  2  9  1  0
  2  3  1  0
  2  1  1  0
  3  4  1  0
  4  5  1  0
  5  6  1  0
  6  8  1  0
 10 15  2  0
 11 12  2  0
 11 10  1  0
 12 13  1  0
 13 14  2  0
 14  9  1  0
 15 14  1  0
  1 16  1  6
  2 17  1  1
  3 18  1  0
  3 19  1  0
  5 20  1  0
  5 21  1  0
  6 22  1  1
  7 23  1  0
  8 24  1  0
 10 25  1  0
 11 26  1  0
 12 27  1  0
M  ISO  8  16  13  17  13  18  13  19  13  20  13  21  13  22  13  23   3
M  ISO  4  24   3  25  14  26  14  27  14
M  END
>  <minimizedAffinity>  (1) 
-5.08819389

>  <minimizedRMSD>  (1) 
2.40168762

$$$$
