
     RDKit          3D

 44 46  0  0  1  0  0  0  0  0999 V2000
   44.7180   35.4150   44.2360 C   0  0  0  0  0  0  0  0  0  0  0  0
   45.5170   35.5130   43.0770 C   0  0  0  0  0  0  0  0  0  0  0  0
   46.6680   34.7210   43.0260 C   0  0  0  0  0  0  0  0  0  0  0  0
   46.9550   33.9190   44.0670 N   0  0  0  0  0  0  0  0  0  0  0  0
   46.1830   33.8420   45.1570 C   0  0  0  0  0  0  0  0  0  0  0  0
   45.0560   34.6000   45.2360 N   0  0  0  0  0  0  0  0  0  0  0  0
   45.2770   32.7100   47.2050 C   0  0  1  0  0  0  0  0  0  0  0  0
   46.4590   32.9850   46.3260 C   0  0  1  0  0  0  0  0  0  0  0  0
   46.7400   31.5440   45.8540 C   0  0  0  0  0  0  0  0  0  0  0  0
   46.3670   30.7150   46.8620 O   0  0  0  0  0  0  0  0  0  0  0  0
   45.7840   31.4500   47.8910 C   0  0  0  0  0  0  0  0  0  0  0  0
   44.9440   33.7280   48.0490 O   0  0  0  0  0  0  0  0  0  0  0  0
   47.4310   34.8340   41.8830 O   0  0  0  0  0  0  0  0  0  0  0  0
   47.6910   32.2010   41.5920 O   0  0  0  0  0  0  0  0  0  0  0  0
   48.4010   33.5250   41.3760 P   0  0  1  0  0  0  0  0  0  0  0  0
   48.8090   33.7630   39.7700 O   0  0  0  0  0  0  0  0  0  0  0  0
   49.7950   33.5560   42.3620 O   0  0  0  0  0  0  0  0  0  0  0  0
   49.2380   31.2350   42.1790 C   0  0  1  0  0  0  0  0  0  0  0  0
   50.3540   32.2800   42.2950 C   0  0  1  0  0  0  0  0  0  0  0  0
   51.3130   32.0920   41.1640 C   0  0  0  0  0  0  0  0  0  0  0  0
   50.7130   31.8510   39.9360 O   0  0  0  0  0  0  0  0  0  0  0  0
   50.0840   30.6230   39.9090 C   0  0  0  0  0  0  0  0  0  0  0  0
   49.7380   30.1110   41.2960 C   0  0  2  0  0  0  0  0  0  0  0  0
   48.9270   30.6860   43.4220 O   0  0  0  0  0  0  0  0  0  0  0  0
   48.7570   29.1400   41.2400 O   0  0  0  0  0  0  0  0  0  0  0  0
   43.8027   36.0199   44.3158 H   0  0  0  0  0  0  0  0  0  0  0  0
   45.2457   36.1841   42.2487 H   0  0  0  0  0  0  0  0  0  0  0  0
   44.3183   32.5986   46.6773 H   0  0  0  0  0  0  0  0  0  0  0  0
   47.2626   33.5289   46.8441 H   0  0  0  0  0  0  0  0  0  0  0  0
   46.1566   31.3230   44.9480 H   0  0  0  0  0  0  0  0  0  0  0  0
   47.8047   31.4116   45.6113 H   0  0  0  0  0  0  0  0  0  0  0  0
   46.5269   31.6978   48.6635 H   0  0  0  0  0  0  0  0  0  0  0  0
   44.9834   30.8970   48.4041 H   0  0  0  0  0  0  0  0  0  0  0  0
   45.0430   33.4253   48.9864 H   0  0  0  0  0  0  0  0  0  0  0  0
   49.6629   34.2611   39.7168 H   0  0  0  0  0  0  0  0  0  0  0  0
   48.3423   31.7226   41.7668 H   0  0  0  0  0  0  0  0  0  0  0  0
   50.9304   32.1527   43.2232 H   0  0  0  0  0  0  0  0  0  0  0  0
   51.9232   33.0030   41.0756 H   0  0  0  0  0  0  0  0  0  0  0  0
   51.9078   31.1981   41.4029 H   0  0  0  0  0  0  0  0  0  0  0  0
   49.1555   30.7160   39.3265 H   0  0  0  0  0  0  0  0  0  0  0  0
   50.7799   29.9033   39.4533 H   0  0  0  0  0  0  0  0  0  0  0  0
   50.6601   29.6836   41.7169 H   0  0  0  0  0  0  0  0  0  0  0  0
   49.2636   31.2802   44.1387 H   0  0  0  0  0  0  0  0  0  0  0  0
   48.4958   28.8814   42.1592 H   0  0  0  0  0  0  0  0  0  0  0  0
  1  6  2  0
  2  1  1  0
  3  2  2  0
  3  4  1  0
  4  5  2  0
  5  6  1  0
  5  8  1  0
  7 11  1  0
  7 12  1  0
  8  7  1  0
  9  8  1  0
  9 10  1  0
 10 11  1  0
 13  3  1  0
 15 14  2  0
 15 13  1  0
 15 17  1  0
 16 15  1  0
 18 19  1  0
 18 24  1  0
 19 17  1  0
 20 19  1  0
 21 20  1  0
 22 21  1  0
 22 23  1  0
 23 25  1  0
 23 18  1  0
  1 26  1  0
  2 27  1  0
  7 28  1  6
  8 29  1  1
  9 30  1  0
  9 31  1  0
 11 32  1  0
 11 33  1  0
 12 34  1  0
 16 35  1  0
 18 36  1  6
 19 37  1  1
 20 38  1  0
 20 39  1  0
 22 40  1  0
 22 41  1  0
 23 42  1  1
 24 43  1  0
 25 44  1  0
M  ISO  8  26  14  27  14  28  13  29  13  30  13  31  13  32  13  33  13
M  ISO  8  34   3  35   3  36  13  37  13  38  13  39  13  40  13  41  13
M  ISO  3  42  13  43   3  44   3
M  END
>  <minimizedAffinity>  (1) 
-5.48444128

>  <minimizedRMSD>  (1) 
1.6049372

$$$$
