
     RDKit          3D

 43 46  0  0  1  0  0  0  0  0999 V2000
   49.5420   33.4550   41.5190 N   0  0  0  0  0  0  0  0  0  0  0  0
   50.7520   33.1770   42.2420 C   0  0  0  0  0  0  0  0  0  0  0  0
   51.3730   31.8620   41.8620 C   0  0  0  0  0  0  0  0  0  0  0  0
   50.4570   30.7590   42.3650 C   0  0  0  0  0  0  0  0  0  0  0  0
   49.0160   31.1400   42.1610 C   0  0  0  0  0  0  0  0  0  0  0  0
   48.9050   32.2280   41.1160 C   0  0  2  0  0  0  0  0  0  0  0  0
   47.3170   34.6760   42.0200 C   0  0  1  0  0  0  0  0  0  0  0  0
   48.4080   35.6480   41.7730 C   0  0  0  0  0  0  0  0  0  0  0  0
   48.7280   34.3050   42.3080 C   0  0  2  0  0  0  0  0  0  0  0  0
   45.5520   36.0520   43.1570 C   0  0  0  0  0  0  0  0  0  0  0  0
   46.3750   34.9160   43.1180 C   0  0  0  0  0  0  0  0  0  0  0  0
   46.2560   33.9940   44.1830 C   0  0  0  0  0  0  0  0  0  0  0  0
   45.3650   34.2560   45.1680 N   0  0  0  0  0  0  0  0  0  0  0  0
   44.5870   35.3570   45.1770 C   0  0  0  0  0  0  0  0  0  0  0  0
   44.6750   36.2760   44.1600 N   0  0  0  0  0  0  0  0  0  0  0  0
   49.3350   31.7170   39.8470 N   0  0  0  0  0  0  0  0  0  0  0  0
   48.9340   32.4300   38.6570 C   0  0  0  0  0  0  0  0  0  0  0  0
   48.2810   33.6130   38.4030 C   0  0  0  0  0  0  0  0  0  0  0  0
   48.0860   33.9860   37.0950 C   0  0  0  0  0  0  0  0  0  0  0  0
   48.5230   33.2160   36.0340 C   0  0  0  0  0  0  0  0  0  0  0  0
   49.1740   32.0370   36.3370 C   0  0  0  0  0  0  0  0  0  0  0  0
   49.3770   31.6490   37.6260 N   0  0  0  0  0  0  0  0  0  0  0  0
   51.4758   33.9793   42.0360 H   0  0  0  0  0  0  0  0  0  0  0  0
   50.4928   33.1227   43.3097 H   0  0  0  0  0  0  0  0  0  0  0  0
   51.4734   31.7967   40.7685 H   0  0  0  0  0  0  0  0  0  0  0  0
   52.3746   31.7650   42.3063 H   0  0  0  0  0  0  0  0  0  0  0  0
   50.6685   29.8319   41.8120 H   0  0  0  0  0  0  0  0  0  0  0  0
   50.6373   30.6078   43.4395 H   0  0  0  0  0  0  0  0  0  0  0  0
   48.4507   30.2572   41.8276 H   0  0  0  0  0  0  0  0  0  0  0  0
   48.6058   31.5125   43.1112 H   0  0  0  0  0  0  0  0  0  0  0  0
   47.8495   32.5173   41.0050 H   0  0  0  0  0  0  0  0  0  0  0  0
   46.5088   34.2341   41.4187 H   0  0  0  0  0  0  0  0  0  0  0  0
   48.6877   35.9094   40.7418 H   0  0  0  0  0  0  0  0  0  0  0  0
   48.6150   36.6802   42.0919 H   0  0  0  0  0  0  0  0  0  0  0  0
   49.1999   33.8602   43.1965 H   0  0  0  0  0  0  0  0  0  0  0  0
   45.6235   36.7867   42.3414 H   0  0  0  0  0  0  0  0  0  0  0  0
   46.8735   33.0841   44.2107 H   0  0  0  0  0  0  0  0  0  0  0  0
   43.8785   35.5201   46.0025 H   0  0  0  0  0  0  0  0  0  0  0  0
   49.9128   30.8665   39.7861 H   0  0  0  0  0  0  0  0  0  0  0  0
   47.9229   34.2463   39.2280 H   0  0  0  0  0  0  0  0  0  0  0  0
   47.5636   34.9310   36.8850 H   0  0  0  0  0  0  0  0  0  0  0  0
   48.3591   33.5292   34.9923 H   0  0  0  0  0  0  0  0  0  0  0  0
   49.5366   31.3971   35.5191 H   0  0  0  0  0  0  0  0  0  0  0  0
  1  2  1  0
  1  9  1  0
  3  2  1  0
  3  4  1  0
  5  4  1  0
  6  1  1  0
  6  5  1  0
  7  9  1  0
  7 11  1  0
  8  7  1  0
  8  9  1  0
 10 15  2  0
 11 10  1  0
 11 12  2  0
 12 13  1  0
 13 14  2  0
 15 14  1  0
 16  6  1  0
 17 16  1  0
 18 17  2  0
 19 18  1  0
 20 21  1  0
 20 19  2  0
 21 22  2  0
 22 17  1  0
  2 23  1  0
  2 24  1  0
  3 25  1  0
  3 26  1  0
  4 27  1  0
  4 28  1  0
  5 29  1  0
  5 30  1  0
  6 31  1  6
  7 32  1  6
  8 33  1  0
  8 34  1  0
  9 35  1  1
 10 36  1  0
 12 37  1  0
 14 38  1  0
 16 39  1  0
 18 40  1  0
 19 41  1  0
 20 42  1  0
 21 43  1  0
M  ISO  8  23  13  24  13  25  13  26  13  27  13  28  13  29  13  30  13
M  ISO  8  31  13  32  13  33  13  34  13  35  13  36  14  37  14  38  14
M  ISO  4  40  14  41  14  42  14  43  14
M  END
>  <minimizedAffinity>  (1) 
-5.39127111

>  <minimizedRMSD>  (1) 
2.5277586

$$$$
