
     RDKit          3D

 37 39  0  0  1  0  0  0  0  0999 V2000
   44.5130   35.5550   44.9790 C   0  0  0  0  0  0  0  0  0  0  0  0
   45.0420   35.7500   43.6890 C   0  0  0  0  0  0  0  0  0  0  0  0
   46.0840   34.9170   43.3090 C   0  0  0  0  0  0  0  0  0  0  0  0
   46.5390   33.9800   44.1640 N   0  0  0  0  0  0  0  0  0  0  0  0
   46.0210   33.8130   45.3850 C   0  0  0  0  0  0  0  0  0  0  0  0
   45.0020   34.6040   45.7990 N   0  0  0  0  0  0  0  0  0  0  0  0
   45.4810   32.4570   47.4290 C   0  0  1  0  0  0  0  0  0  0  0  0
   46.4790   32.8170   46.3690 C   0  0  1  0  0  0  0  0  0  0  0  0
   46.6260   31.4420   45.6960 C   0  0  0  0  0  0  0  0  0  0  0  0
   46.3860   30.5050   46.6500 O   0  0  0  0  0  0  0  0  0  0  0  0
   46.0800   31.1170   47.8560 C   0  0  0  0  0  0  0  0  0  0  0  0
   45.3630   33.3710   48.4340 O   0  0  0  0  0  0  0  0  0  0  0  0
   46.5990   35.1160   42.0340 O   0  0  0  0  0  0  0  0  0  0  0  0
   46.0530   32.6570   41.1780 O   0  0  0  0  0  0  0  0  0  0  0  0
   47.0880   33.7670   41.0890 P   0  0  1  0  0  0  0  0  0  0  0  0
   47.3190   34.2910   39.5160 O   0  0  0  0  0  0  0  0  0  0  0  0
   48.5400   33.2170   41.7630 O   0  0  0  0  0  0  0  0  0  0  0  0
   49.4820   32.5730   40.9680 C   0  0  0  0  0  0  0  0  0  0  0  0
   50.7140   32.3790   41.5740 C   0  0  0  0  0  0  0  0  0  0  0  0
   51.7470   31.7560   40.9130 C   0  0  0  0  0  0  0  0  0  0  0  0
   51.5650   31.3170   39.6360 C   0  0  0  0  0  0  0  0  0  0  0  0
   50.3190   31.5340   39.0750 C   0  0  0  0  0  0  0  0  0  0  0  0
   49.2920   32.1420   39.7050 N   0  0  0  0  0  0  0  0  0  0  0  0
   43.6846   36.1911   45.3242 H   0  0  0  0  0  0  0  0  0  0  0  0
   44.6482   36.5252   43.0152 H   0  0  0  0  0  0  0  0  0  0  0  0
   44.4336   32.4206   47.0950 H   0  0  0  0  0  0  0  0  0  0  0  0
   47.3846   33.2879   46.7790 H   0  0  0  0  0  0  0  0  0  0  0  0
   45.8982   31.3425   44.8772 H   0  0  0  0  0  0  0  0  0  0  0  0
   47.6326   31.3193   45.2697 H   0  0  0  0  0  0  0  0  0  0  0  0
   46.9851   31.2657   48.4632 H   0  0  0  0  0  0  0  0  0  0  0  0
   45.3986   30.5206   48.4804 H   0  0  0  0  0  0  0  0  0  0  0  0
   45.4225   32.9099   49.3081 H   0  0  0  0  0  0  0  0  0  0  0  0
   47.7183   35.1968   39.5252 H   0  0  0  0  0  0  0  0  0  0  0  0
   50.8685   32.7306   42.6048 H   0  0  0  0  0  0  0  0  0  0  0  0
   52.7161   31.6128   41.4133 H   0  0  0  0  0  0  0  0  0  0  0  0
   52.3692   30.8147   39.0784 H   0  0  0  0  0  0  0  0  0  0  0  0
   50.1541   31.1870   38.0443 H   0  0  0  0  0  0  0  0  0  0  0  0
  1  6  2  0
  2  1  1  0
  3  2  2  0
  3  4  1  0
  4  5  2  0
  5  6  1  0
  5  8  1  0
  7 11  1  0
  7 12  1  0
  8  7  1  0
  9  8  1  0
  9 10  1  0
 10 11  1  0
 13  3  1  0
 15 14  2  0
 15 17  1  0
 15 13  1  0
 16 15  1  0
 18 19  2  0
 18 17  1  0
 20 19  1  0
 21 20  2  0
 22 21  1  0
 22 23  2  0
 23 18  1  0
  1 24  1  0
  2 25  1  0
  7 26  1  6
  8 27  1  1
  9 28  1  0
  9 29  1  0
 11 30  1  0
 11 31  1  0
 12 32  1  0
 16 33  1  0
 19 34  1  0
 20 35  1  0
 21 36  1  0
 22 37  1  0
M  ISO  8  24  14  25  14  26  13  27  13  28  13  29  13  30  13  31  13
M  ISO  6  32   3  33   3  34  14  35  14  36  14  37  14
M  END
>  <minimizedAffinity>  (1) 
-5.7785759

>  <minimizedRMSD>  (1) 
2.28535914

$$$$
