
     RDKit          3D

 44 47  0  0  0  0  0  0  0  0999 V2000
   38.5690   31.8110   41.2160 C   0  0  0  0  0  0  0  0  0  0  0  0
   39.8640   31.6110   40.7360 C   0  0  0  0  0  0  0  0  0  0  0  0
   40.1420   30.3990   40.1240 C   0  0  0  0  0  0  0  0  0  0  0  0
   39.1640   29.4860   40.0240 N   0  0  0  0  0  0  0  0  0  0  0  0
   37.9080   29.7220   40.5080 C   0  0  0  0  0  0  0  0  0  0  0  0
   37.5750   30.8600   41.1050 N   0  0  0  0  0  0  0  0  0  0  0  0
   36.8910   28.6300   40.3420 C   0  0  0  0  0  0  0  0  0  0  0  0
   37.5780   27.2610   40.3500 C   0  0  0  0  0  0  0  0  0  0  0  0
   36.6210   26.1710   40.5520 C   0  0  0  0  0  0  0  0  0  0  0  0
   36.9920   24.9030   40.9530 C   0  0  0  0  0  0  0  0  0  0  0  0
   35.9780   23.9770   41.1020 C   0  0  0  0  0  0  0  0  0  0  0  0
   34.6420   24.2960   40.8610 C   0  0  0  0  0  0  0  0  0  0  0  0
   34.3320   25.5830   40.4610 C   0  0  0  0  0  0  0  0  0  0  0  0
   35.3200   26.4910   40.3140 N   0  0  0  0  0  0  0  0  0  0  0  0
   41.1000   32.8710   40.9080 S   0  0  0  0  0  0  0  0  0  0  0  0
   41.0200   33.9960   39.5450 C   0  0  0  0  0  0  0  0  0  0  0  0
   39.9510   34.0520   38.6500 C   0  0  0  0  0  0  0  0  0  0  0  0
   39.9650   34.9640   37.6060 C   0  0  0  0  0  0  0  0  0  0  0  0
   41.0070   35.8240   37.4240 C   0  0  0  0  0  0  0  0  0  0  0  0
   42.0660   35.7690   38.3100 C   0  0  0  0  0  0  0  0  0  0  0  0
   42.0880   34.8670   39.3690 C   0  0  0  0  0  0  0  0  0  0  0  0
   43.2020   34.8240   40.2850 C   0  0  0  0  0  0  0  0  0  0  0  0
   44.2930   34.0110   40.1320 C   0  0  0  0  0  0  0  0  0  0  0  0
   45.3640   33.9770   41.0250 C   0  0  0  0  0  0  0  0  0  0  0  0
   45.3220   34.7890   42.0940 N   0  0  0  0  0  0  0  0  0  0  0  0
   44.2520   35.5880   42.2480 C   0  0  0  0  0  0  0  0  0  0  0  0
   43.2300   35.6040   41.3750 N   0  0  0  0  0  0  0  0  0  0  0  0
   38.3302   32.7676   41.7037 H   0  0  0  0  0  0  0  0  0  0  0  0
   41.1464   30.1894   39.7274 H   0  0  0  0  0  0  0  0  0  0  0  0
   36.3642   28.7665   39.3861 H   0  0  0  0  0  0  0  0  0  0  0  0
   36.1750   28.6769   41.1757 H   0  0  0  0  0  0  0  0  0  0  0  0
   38.0873   27.1131   39.3863 H   0  0  0  0  0  0  0  0  0  0  0  0
   38.2949   27.2442   41.1841 H   0  0  0  0  0  0  0  0  0  0  0  0
   38.0435   24.6430   41.1444 H   0  0  0  0  0  0  0  0  0  0  0  0
   36.2324   22.9554   41.4209 H   0  0  0  0  0  0  0  0  0  0  0  0
   33.8522   23.5406   40.9863 H   0  0  0  0  0  0  0  0  0  0  0  0
   33.2872   25.8649   40.2639 H   0  0  0  0  0  0  0  0  0  0  0  0
   39.0957   33.3713   38.7730 H   0  0  0  0  0  0  0  0  0  0  0  0
   39.1153   34.9944   36.9080 H   0  0  0  0  0  0  0  0  0  0  0  0
   41.0048   36.5440   36.5923 H   0  0  0  0  0  0  0  0  0  0  0  0
   42.9139   36.4565   38.1744 H   0  0  0  0  0  0  0  0  0  0  0  0
   44.3268   33.3473   39.2555 H   0  0  0  0  0  0  0  0  0  0  0  0
   46.2184   33.3045   40.8585 H   0  0  0  0  0  0  0  0  0  0  0  0
   44.2112   36.2545   43.1222 H   0  0  0  0  0  0  0  0  0  0  0  0
  2 15  1  0
  2  1  2  0
  3  2  1  0
  4  3  2  0
  4  5  1  0
  5  6  2  0
  6  1  1  0
  7  8  1  0
  7  5  1  0
  8  9  1  0
  9 10  2  0
 10 11  1  0
 12 11  2  0
 13 12  1  0
 14 13  2  0
 14  9  1  0
 16 15  1  0
 17 16  2  0
 18 17  1  0
 19 18  2  0
 19 20  1  0
 20 21  2  0
 21 16  1  0
 21 22  1  0
 22 27  1  0
 23 22  2  0
 23 24  1  0
 24 25  2  0
 25 26  1  0
 27 26  2  0
  1 28  1  0
  3 29  1  0
  7 30  1  0
  7 31  1  0
  8 32  1  0
  8 33  1  0
 10 34  1  0
 11 35  1  0
 12 36  1  0
 13 37  1  0
 17 38  1  0
 18 39  1  0
 19 40  1  0
 20 41  1  0
 23 42  1  0
 24 43  1  0
 26 44  1  0
M  ISO  8  28  14  29  14  30   8  31   8  32   8  33   8  34  14  35  14
M  ISO  8  36  14  37  14  38  14  39  14  40  14  41  14  42  14  43  14
M  ISO  1  44  14
M  END
>  <minimizedAffinity>  (1) 
-5.48631334

>  <minimizedRMSD>  (1) 
2.91123939

$$$$
