
     RDKit          3D

 41 45  0  0  1  0  0  0  0  0999 V2000
   47.4850   32.8840   41.4330 C   0  0  1  0  0  0  0  0  0  0  0  0
   48.1330   34.1460   41.1440 C   0  0  0  0  0  0  0  0  0  0  0  0
   48.9730   32.8940   41.1080 C   0  0  2  0  0  0  0  0  0  0  0  0
   49.3290   32.3800   39.7560 C   0  0  0  0  0  0  0  0  0  0  0  0
   50.2540   31.3880   39.5130 C   0  0  0  0  0  0  0  0  0  0  0  0
   50.5360   30.9460   38.2410 C   0  0  0  0  0  0  0  0  0  0  0  0
   49.8750   31.5090   37.1610 C   0  0  0  0  0  0  0  0  0  0  0  0
   50.1170   31.1150   35.8850 N   0  0  0  0  0  0  0  0  0  0  0  0
   49.4750   31.6660   34.8420 C   0  0  0  0  0  0  0  0  0  0  0  0
   48.5150   32.6810   34.9900 C   0  0  0  0  0  0  0  0  0  0  0  0
   48.2410   33.1110   36.2820 C   0  0  0  0  0  0  0  0  0  0  0  0
   48.9240   32.5190   37.3400 C   0  0  0  0  0  0  0  0  0  0  0  0
   48.6900   32.9170   38.6450 C   0  0  0  0  0  0  0  0  0  0  0  0
   47.0950   33.4960   43.8410 C   0  0  0  0  0  0  0  0  0  0  0  0
   47.0960   32.5090   42.8200 C   0  0  0  0  0  0  0  0  0  0  0  0
   46.7270   31.2240   43.1650 C   0  0  0  0  0  0  0  0  0  0  0  0
   46.3870   30.9850   44.4630 N   0  0  0  0  0  0  0  0  0  0  0  0
   46.3940   31.9320   45.4130 C   0  0  0  0  0  0  0  0  0  0  0  0
   46.7510   33.1980   45.1020 N   0  0  0  0  0  0  0  0  0  0  0  0
   46.0210   31.6330   46.7950 C   0  0  0  0  0  0  0  0  0  0  0  0
   45.4830   30.4040   47.1120 C   0  0  0  0  0  0  0  0  0  0  0  0
   45.1070   30.0570   48.4100 C   0  0  0  0  0  0  0  0  0  0  0  0
   45.3120   31.0380   49.3710 C   0  0  0  0  0  0  0  0  0  0  0  0
   45.8490   32.2690   49.0640 C   0  0  0  0  0  0  0  0  0  0  0  0
   46.1990   32.5550   47.7800 N   0  0  0  0  0  0  0  0  0  0  0  0
   46.5835   32.3986   41.0309 H   0  0  0  0  0  0  0  0  0  0  0  0
   47.9027   34.6742   40.2070 H   0  0  0  0  0  0  0  0  0  0  0  0
   48.2115   35.1060   41.6753 H   0  0  0  0  0  0  0  0  0  0  0  0
   49.9012   32.5510   41.5885 H   0  0  0  0  0  0  0  0  0  0  0  0
   50.7842   30.9348   40.3636 H   0  0  0  0  0  0  0  0  0  0  0  0
   51.2804   30.1518   38.0825 H   0  0  0  0  0  0  0  0  0  0  0  0
   49.7108   31.3075   33.8291 H   0  0  0  0  0  0  0  0  0  0  0  0
   48.0022   33.1166   34.1198 H   0  0  0  0  0  0  0  0  0  0  0  0
   47.4997   33.9028   36.4650 H   0  0  0  0  0  0  0  0  0  0  0  0
   47.9484   33.7117   38.8139 H   0  0  0  0  0  0  0  0  0  0  0  0
   47.3829   34.5280   43.5917 H   0  0  0  0  0  0  0  0  0  0  0  0
   46.7080   30.4187   42.4160 H   0  0  0  0  0  0  0  0  0  0  0  0
   45.3444   29.6661   46.3081 H   0  0  0  0  0  0  0  0  0  0  0  0
   44.6779   29.0743   48.6551 H   0  0  0  0  0  0  0  0  0  0  0  0
   45.0359   30.8248   50.4142 H   0  0  0  0  0  0  0  0  0  0  0  0
   45.9947   33.0194   49.8550 H   0  0  0  0  0  0  0  0  0  0  0  0
  1 15  1  0
  2  1  1  0
  3  2  1  0
  3  1  1  0
  4  3  1  0
  5  4  2  0
  6  5  1  0
  7 12  1  0
  7  6  2  0
  8  7  1  0
  9 10  1  0
  9  8  2  0
 10 11  2  0
 11 12  1  0
 12 13  2  0
 13  4  1  0
 14 19  2  0
 15 16  2  0
 15 14  1  0
 16 17  1  0
 17 18  2  0
 18 20  1  0
 19 18  1  0
 20 21  2  0
 20 25  1  0
 21 22  1  0
 22 23  2  0
 24 23  1  0
 25 24  2  0
  1 26  1  6
  2 27  1  0
  2 28  1  0
  3 29  1  1
  5 30  1  0
  6 31  1  0
  9 32  1  0
 10 33  1  0
 11 34  1  0
 13 35  1  0
 14 36  1  0
 16 37  1  0
 21 38  1  0
 22 39  1  0
 23 40  1  0
 24 41  1  0
M  ISO  8  26  13  27  13  28  13  29  13  30  14  31  14  32  14  33  14
M  ISO  8  34  14  35  14  36  14  37  14  38  14  39  14  40  14  41  14
M  END
>  <minimizedAffinity>  (1) 
-5.43098783

>  <minimizedRMSD>  (1) 
3.97369599

$$$$
