
     RDKit          3D

 28 29  0  0  0  0  0  0  0  0999 V2000
   47.0080   32.0620   48.3000 O   0  0  0  0  0  0  0  0  0  0  0  0
   45.9700   32.3550   47.2280 P   0  0  1  0  0  0  0  0  0  0  0  0
   44.6870   33.2570   47.8620 O   0  0  0  0  0  0  0  0  0  0  0  0
   46.7330   33.1860   45.9750 O   0  0  0  0  0  0  0  0  0  0  0  0
   44.4790   35.6260   44.7210 C   0  0  0  0  0  0  0  0  0  0  0  0
   44.8560   35.8140   43.3730 C   0  0  0  0  0  0  0  0  0  0  0  0
   45.9490   35.0280   42.9340 C   0  0  0  0  0  0  0  0  0  0  0  0
   46.5380   34.1790   43.8190 N   0  0  0  0  0  0  0  0  0  0  0  0
   46.1280   34.0530   45.0820 C   0  0  0  0  0  0  0  0  0  0  0  0
   45.1090   34.7640   45.5420 N   0  0  0  0  0  0  0  0  0  0  0  0
   45.3470   30.8750   46.7250 O   0  0  0  0  0  0  0  0  0  0  0  0
   45.6060   29.9320   47.7020 C   0  0  0  0  0  0  0  0  0  0  0  0
   44.8650   28.6810   47.3870 C   0  0  0  0  0  0  0  0  0  0  0  0
   44.0960   28.4880   46.2580 C   0  0  0  0  0  0  0  0  0  0  0  0
   43.4240   27.3070   46.0080 C   0  0  0  0  0  0  0  0  0  0  0  0
   43.5460   26.2820   46.9510 C   0  0  0  0  0  0  0  0  0  0  0  0
   44.3260   26.4780   48.0940 C   0  0  0  0  0  0  0  0  0  0  0  0
   44.9570   27.6550   48.2830 N   0  0  0  0  0  0  0  0  0  0  0  0
   44.7229   33.2318   48.8510 H   0  0  0  0  0  0  0  0  0  0  0  0
   43.6344   36.2087   45.1175 H   0  0  0  0  0  0  0  0  0  0  0  0
   44.3367   36.5218   42.7102 H   0  0  0  0  0  0  0  0  0  0  0  0
   46.3142   35.1023   41.8991 H   0  0  0  0  0  0  0  0  0  0  0  0
   46.6853   29.7219   47.7329 H   0  0  0  0  0  0  0  0  0  0  0  0
   45.2811   30.3162   48.6802 H   0  0  0  0  0  0  0  0  0  0  0  0
   44.0147   29.3068   45.5280 H   0  0  0  0  0  0  0  0  0  0  0  0
   42.8156   27.1779   45.1007 H   0  0  0  0  0  0  0  0  0  0  0  0
   43.0294   25.3237   46.7937 H   0  0  0  0  0  0  0  0  0  0  0  0
   44.4251   25.6739   48.8381 H   0  0  0  0  0  0  0  0  0  0  0  0
  2  3  1  0
  2  1  2  0
  4  2  1  0
  5 10  2  0
  6  5  1  0
  7  6  2  0
  7  8  1  0
  8  9  2  0
  9 10  1  0
  9  4  1  0
 11  2  1  0
 11 12  1  0
 13 12  1  0
 13 18  1  0
 14 13  2  0
 15 14  1  0
 15 16  2  0
 16 17  1  0
 17 18  2  0
  3 19  1  0
  5 20  1  0
  6 21  1  0
  7 22  1  0
 12 23  1  0
 12 24  1  0
 14 25  1  0
 15 26  1  0
 16 27  1  0
 17 28  1  0
M  ISO  8  19   3  20  14  21  14  22  14  23   8  24   8  25  14  26  14
M  ISO  2  27  14  28  14
M  END
>  <minimizedAffinity>  (1) 
-4.76870823

>  <minimizedRMSD>  (1) 
0.530929148

$$$$
