
     RDKit          3D

 39 41  0  0  1  0  0  0  0  0999 V2000
   46.6920   32.8150   46.5890 C   0  0  2  0  0  0  0  0  0  0  0  0
   47.0860   32.7560   45.1650 C   0  0  1  0  0  0  0  0  0  0  0  0
   46.5960   31.4400   44.7280 O   0  0  0  0  0  0  0  0  0  0  0  0
   47.2680   30.7070   45.7380 C   0  0  0  0  0  0  0  0  0  0  0  0
   46.6240   31.3470   46.9900 C   0  0  2  0  0  0  0  0  0  0  0  0
   44.7200   35.2580   43.9840 C   0  0  0  0  0  0  0  0  0  0  0  0
   45.3290   35.7910   42.8410 C   0  0  0  0  0  0  0  0  0  0  0  0
   46.5880   35.2740   42.4570 C   0  0  0  0  0  0  0  0  0  0  0  0
   47.1420   34.2940   43.2040 N   0  0  0  0  0  0  0  0  0  0  0  0
   46.5230   33.8000   44.3060 C   0  0  0  0  0  0  0  0  0  0  0  0
   45.3130   34.2750   44.7010 N   0  0  0  0  0  0  0  0  0  0  0  0
   43.4770   35.7390   44.4060 O   0  0  0  0  0  0  0  0  0  0  0  0
   45.3650   33.3560   46.6930 O   0  0  0  0  0  0  0  0  0  0  0  0
   45.3440   30.9090   47.0820 O   0  0  0  0  0  0  0  0  0  0  0  0
   45.0330   29.9460   47.9990 C   0  0  0  0  0  0  0  0  0  0  0  0
   45.6070   28.5610   47.6730 C   0  0  0  0  0  0  0  0  0  0  0  0
   44.5440   27.5670   47.4210 C   0  0  0  0  0  0  0  0  0  0  0  0
   44.1230   26.4510   48.0980 C   0  0  0  0  0  0  0  0  0  0  0  0
   43.0950   25.6190   47.7270 C   0  0  0  0  0  0  0  0  0  0  0  0
   42.3870   25.8730   46.5880 C   0  0  0  0  0  0  0  0  0  0  0  0
   42.8000   26.9910   45.8990 C   0  0  0  0  0  0  0  0  0  0  0  0
   43.8080   27.7820   46.2870 N   0  0  0  0  0  0  0  0  0  0  0  0
   47.3745   33.4248   47.1992 H   0  0  0  0  0  0  0  0  0  0  0  0
   48.1713   32.9127   45.0775 H   0  0  0  0  0  0  0  0  0  0  0  0
   47.0559   29.6296   45.6729 H   0  0  0  0  0  0  0  0  0  0  0  0
   48.3662   30.7562   45.6997 H   0  0  0  0  0  0  0  0  0  0  0  0
   47.0909   31.1277   47.9616 H   0  0  0  0  0  0  0  0  0  0  0  0
   44.8426   36.5879   42.2594 H   0  0  0  0  0  0  0  0  0  0  0  0
   47.1061   35.6621   41.5676 H   0  0  0  0  0  0  0  0  0  0  0  0
   43.0254   36.4577   43.8965 H   0  0  0  0  0  0  0  0  0  0  0  0
   45.1228   33.4547   47.6478 H   0  0  0  0  0  0  0  0  0  0  0  0
   45.4255   30.2610   48.9771 H   0  0  0  0  0  0  0  0  0  0  0  0
   43.9377   29.8446   47.9930 H   0  0  0  0  0  0  0  0  0  0  0  0
   46.2388   28.6405   46.7760 H   0  0  0  0  0  0  0  0  0  0  0  0
   46.1904   28.2218   48.5417 H   0  0  0  0  0  0  0  0  0  0  0  0
   44.6588   26.1986   49.0249 H   0  0  0  0  0  0  0  0  0  0  0  0
   42.8421   24.7472   48.3483 H   0  0  0  0  0  0  0  0  0  0  0  0
   41.5557   25.2374   46.2489 H   0  0  0  0  0  0  0  0  0  0  0  0
   42.2685   27.2506   44.9716 H   0  0  0  0  0  0  0  0  0  0  0  0
  1 13  1  0
  1  5  1  0
  2  1  1  0
  3  2  1  0
  3  4  1  0
  4  5  1  0
  5 14  1  0
  6 12  1  0
  6 11  2  0
  7  6  1  0
  8  7  2  0
  8  9  1  0
  9 10  2  0
 10 11  1  0
 10  2  1  0
 14 15  1  0
 16 15  1  0
 17 16  1  0
 17 18  2  0
 19 18  1  0
 20 19  2  0
 21 22  2  0
 21 20  1  0
 22 17  1  0
  1 23  1  1
  2 24  1  1
  4 25  1  0
  4 26  1  0
  5 27  1  1
  7 28  1  0
  8 29  1  0
 12 30  1  0
 13 31  1  0
 15 32  1  0
 15 33  1  0
 16 34  1  0
 16 35  1  0
 18 36  1  0
 19 37  1  0
 20 38  1  0
 21 39  1  0
M  ISO  8  23  13  24  13  25  13  26  13  27  13  28  14  29  14  30   3
M  ISO  8  31   3  32   8  33   8  34   8  35   8  36  14  37  14  38  14
M  ISO  1  39  14
M  END
>  <minimizedAffinity>  (1) 
-5.6312108

>  <minimizedRMSD>  (1) 
1.12157905

$$$$
