
     RDKit          3D

 36 39  0  0  1  0  0  0  0  0999 V2000
   47.4030   33.7170   39.7860 C   0  0  0  0  0  0  0  0  0  0  0  0
   48.3020   34.4160   38.9810 C   0  0  0  0  0  0  0  0  0  0  0  0
   47.9580   34.2280   37.6510 C   0  0  0  0  0  0  0  0  0  0  0  0
   46.8550   33.4160   37.7150 C   0  0  0  0  0  0  0  0  0  0  0  0
   46.5560   33.1360   38.9460 O   0  0  0  0  0  0  0  0  0  0  0  0
   46.1050   32.9280   36.5470 C   0  0  2  0  0  0  0  0  0  0  0  0
   45.3910   31.6360   36.6200 C   0  0  0  0  0  0  0  0  0  0  0  0
   46.6770   31.6560   35.9060 C   0  0  2  0  0  0  0  0  0  0  0  0
   47.9140   31.0580   36.4000 C   0  0  0  0  0  0  0  0  0  0  0  0
   48.0870   30.1840   37.4500 C   0  0  0  0  0  0  0  0  0  0  0  0
   49.3040   29.6780   37.8510 C   0  0  0  0  0  0  0  0  0  0  0  0
   50.4440   30.0490   37.1830 C   0  0  0  0  0  0  0  0  0  0  0  0
   50.2680   30.9150   36.1430 C   0  0  0  0  0  0  0  0  0  0  0  0
   49.0810   31.3920   35.7720 N   0  0  0  0  0  0  0  0  0  0  0  0
   47.3140   33.5860   41.1800 O   0  0  0  0  0  0  0  0  0  0  0  0
   47.3920   34.7320   41.9960 C   0  0  0  0  0  0  0  0  0  0  0  0
   48.2590   35.5870   41.6600 O   0  0  0  0  0  0  0  0  0  0  0  0
   46.4960   34.7930   43.0950 C   0  0  0  0  0  0  0  0  0  0  0  0
   45.6040   35.8300   43.0570 C   0  0  0  0  0  0  0  0  0  0  0  0
   44.6950   35.9480   44.1080 C   0  0  0  0  0  0  0  0  0  0  0  0
   44.7440   35.0410   45.0990 N   0  0  0  0  0  0  0  0  0  0  0  0
   45.6240   34.0400   45.1100 C   0  0  0  0  0  0  0  0  0  0  0  0
   46.4990   33.9310   44.0930 N   0  0  0  0  0  0  0  0  0  0  0  0
   49.1477   35.0192   39.3428 H   0  0  0  0  0  0  0  0  0  0  0  0
   48.4528   34.6341   36.7564 H   0  0  0  0  0  0  0  0  0  0  0  0
   45.8103   33.9401   36.2328 H   0  0  0  0  0  0  0  0  0  0  0  0
   45.3143   31.1126   37.5844 H   0  0  0  0  0  0  0  0  0  0  0  0
   44.3753   31.3111   36.3502 H   0  0  0  0  0  0  0  0  0  0  0  0
   46.9989   31.3294   34.9062 H   0  0  0  0  0  0  0  0  0  0  0  0
   47.1923   29.8683   38.0066 H   0  0  0  0  0  0  0  0  0  0  0  0
   49.3616   28.9816   38.7005 H   0  0  0  0  0  0  0  0  0  0  0  0
   51.4373   29.6720   37.4680 H   0  0  0  0  0  0  0  0  0  0  0  0
   51.1562   31.2371   35.5796 H   0  0  0  0  0  0  0  0  0  0  0  0
   45.6040   36.5480   42.2236 H   0  0  0  0  0  0  0  0  0  0  0  0
   43.9563   36.7629   44.1257 H   0  0  0  0  0  0  0  0  0  0  0  0
   45.6350   33.3146   45.9369 H   0  0  0  0  0  0  0  0  0  0  0  0
  1 15  1  0
  2  1  2  0
  3  4  2  0
  3  2  1  0
  4  5  1  0
  5  1  1  0
  6  7  1  0
  6  4  1  0
  8  9  1  0
  8  6  1  0
  8  7  1  0
  9 10  2  0
 10 11  1  0
 12 11  2  0
 13 12  1  0
 14 13  2  0
 14  9  1  0
 15 16  1  0
 16 18  1  0
 17 16  2  0
 18 23  1  0
 19 18  2  0
 19 20  1  0
 20 21  2  0
 21 22  1  0
 23 22  2  0
  2 24  1  0
  3 25  1  0
  6 26  1  6
  7 27  1  0
  7 28  1  0
  8 29  1  6
 10 30  1  0
 11 31  1  0
 12 32  1  0
 13 33  1  0
 19 34  1  0
 20 35  1  0
 22 36  1  0
M  ISO  8  24  14  25  14  26  13  27  13  28  13  29  13  30  14  31  14
M  ISO  5  32  14  33  14  34  14  35  14  36  14
M  END
>  <minimizedAffinity>  (1) 
-4.62326765

>  <minimizedRMSD>  (1) 
0.822873056

$$$$
