
     RDKit          3D

 38 40  0  0  1  0  0  0  0  0999 V2000
   45.3380   34.7650   42.5960 C   0  0  0  0  0  0  0  0  0  0  0  0
   46.5730   35.1490   42.0140 C   0  0  0  0  0  0  0  0  0  0  0  0
   47.7310   34.6310   42.6130 C   0  0  0  0  0  0  0  0  0  0  0  0
   47.5980   33.8200   43.6780 N   0  0  0  0  0  0  0  0  0  0  0  0
   46.3930   33.4810   44.2010 C   0  0  0  0  0  0  0  0  0  0  0  0
   45.2670   33.9580   43.6520 N   0  0  0  0  0  0  0  0  0  0  0  0
   43.7980   34.5600   40.8480 C   0  0  0  0  0  0  0  0  0  0  0  0
   44.5970   33.6850   40.3960 O   0  0  0  0  0  0  0  0  0  0  0  0
   44.1140   35.2530   42.0410 N   0  0  0  0  0  0  0  0  0  0  0  0
   42.6220   34.7630   40.0830 N   0  0  0  0  0  0  0  0  0  0  0  0
   42.4870   34.2750   38.7140 C   0  0  0  0  0  0  0  0  0  0  0  0
   41.6530   35.3590   38.0810 C   0  0  0  0  0  0  0  0  0  0  0  0
   41.1540   36.2440   39.1810 C   0  0  0  0  0  0  0  0  0  0  0  0
   41.3690   35.4430   40.4260 C   0  0  1  0  0  0  0  0  0  0  0  0
   40.3700   34.3450   40.5790 C   0  0  0  0  0  0  0  0  0  0  0  0
   39.1540   34.4160   39.9220 C   0  0  0  0  0  0  0  0  0  0  0  0
   38.1510   33.4640   39.9870 C   0  0  0  0  0  0  0  0  0  0  0  0
   38.4200   32.3510   40.7900 C   0  0  0  0  0  0  0  0  0  0  0  0
   39.6330   32.2780   41.4450 C   0  0  0  0  0  0  0  0  0  0  0  0
   40.5660   33.2370   41.3420 N   0  0  0  0  0  0  0  0  0  0  0  0
   48.9870   35.0470   41.9880 C   0  0  0  0  0  0  0  0  0  0  0  0
   49.5310   33.9770   41.2930 F   0  0  0  0  0  0  0  0  0  0  0  0
   49.8830   35.3210   43.0270 F   0  0  0  0  0  0  0  0  0  0  0  0
   48.8590   36.0980   41.1230 F   0  0  0  0  0  0  0  0  0  0  0  0
   46.6203   35.8164   41.1409 H   0  0  0  0  0  0  0  0  0  0  0  0
   46.3400   32.8152   45.0750 H   0  0  0  0  0  0  0  0  0  0  0  0
   43.5418   36.0043   42.4521 H   0  0  0  0  0  0  0  0  0  0  0  0
   43.4669   34.1851   38.2224 H   0  0  0  0  0  0  0  0  0  0  0  0
   42.0430   33.2713   38.6407 H   0  0  0  0  0  0  0  0  0  0  0  0
   42.2662   35.9426   37.3785 H   0  0  0  0  0  0  0  0  0  0  0  0
   40.8113   34.9236   37.5224 H   0  0  0  0  0  0  0  0  0  0  0  0
   41.7276   37.1819   39.2171 H   0  0  0  0  0  0  0  0  0  0  0  0
   40.1015   36.5327   39.0435 H   0  0  0  0  0  0  0  0  0  0  0  0
   41.3301   36.0668   41.3312 H   0  0  0  0  0  0  0  0  0  0  0  0
   38.9692   35.3019   39.2966 H   0  0  0  0  0  0  0  0  0  0  0  0
   37.2024   33.5759   39.4415 H   0  0  0  0  0  0  0  0  0  0  0  0
   37.6772   31.5469   40.8979 H   0  0  0  0  0  0  0  0  0  0  0  0
   39.8426   31.4009   42.0749 H   0  0  0  0  0  0  0  0  0  0  0  0
  1  6  1  0
  2  1  2  0
  2  3  1  0
  3  4  2  0
  4  5  1  0
  6  5  2  0
  7  9  1  0
  8  7  2  0
  9  1  1  0
 10 14  1  0
 10  7  1  0
 11 10  1  0
 12 11  1  0
 12 13  1  0
 13 14  1  0
 14 15  1  0
 15 20  2  0
 16 17  2  0
 16 15  1  0
 17 18  1  0
 18 19  2  0
 20 19  1  0
 21  3  1  0
 21 23  1  0
 22 21  1  0
 24 21  1  0
  2 25  1  0
  5 26  1  0
  9 27  1  0
 11 28  1  0
 11 29  1  0
 12 30  1  0
 12 31  1  0
 13 32  1  0
 13 33  1  0
 14 34  1  1
 16 35  1  0
 17 36  1  0
 18 37  1  0
 19 38  1  0
M  ISO  8  25  14  26  14  28  13  29  13  30  13  31  13  32  13  33  13
M  ISO  5  34  13  35  14  36  14  37  14  38  14
M  END
>  <minimizedAffinity>  (1) 
-7.38226175

>  <minimizedRMSD>  (1) 
1.3587395

$$$$
