
     RDKit          3D

 36 38  0  0  0  0  0  0  0  0999 V2000
   47.1860   29.8780   45.0550 F   0  0  0  0  0  0  0  0  0  0  0  0
   47.2390   30.6980   46.1370 C   0  0  0  0  0  0  0  0  0  0  0  0
   46.8750   32.0150   46.0010 C   0  0  0  0  0  0  0  0  0  0  0  0
   46.9480   32.8170   47.1450 C   0  0  0  0  0  0  0  0  0  0  0  0
   47.3670   32.2910   48.3380 C   0  0  0  0  0  0  0  0  0  0  0  0
   47.7220   30.9560   48.4170 C   0  0  0  0  0  0  0  0  0  0  0  0
   47.6630   30.1180   47.2960 C   0  0  0  0  0  0  0  0  0  0  0  0
   48.0670   28.7500   47.5360 C   0  0  0  0  0  0  0  0  0  0  0  0
   47.3350   27.6000   47.3730 C   0  0  0  0  0  0  0  0  0  0  0  0
   47.7600   26.3280   47.6130 C   0  0  0  0  0  0  0  0  0  0  0  0
   49.0370   26.1270   48.0640 C   0  0  0  0  0  0  0  0  0  0  0  0
   49.7760   27.2730   48.2310 C   0  0  0  0  0  0  0  0  0  0  0  0
   49.3100   28.5080   47.9790 N   0  0  0  0  0  0  0  0  0  0  0  0
   46.7730   34.0930   43.0000 C   0  0  0  0  0  0  0  0  0  0  0  0
   45.6480   33.6480   42.3180 C   0  0  0  0  0  0  0  0  0  0  0  0
   44.9070   32.6110   42.9060 C   0  0  0  0  0  0  0  0  0  0  0  0
   45.3180   32.1040   44.0900 N   0  0  0  0  0  0  0  0  0  0  0  0
   46.4280   32.5740   44.7200 C   0  0  0  0  0  0  0  0  0  0  0  0
   47.1540   33.5680   44.1720 N   0  0  0  0  0  0  0  0  0  0  0  0
   45.2790   34.2630   41.0290 C   0  0  0  0  0  0  0  0  0  0  0  0
   44.9810   35.5970   41.2120 F   0  0  0  0  0  0  0  0  0  0  0  0
   46.4010   34.2210   40.1970 F   0  0  0  0  0  0  0  0  0  0  0  0
   44.2470   33.6670   40.3810 F   0  0  0  0  0  0  0  0  0  0  0  0
   47.4870   35.0970   42.4250 O   0  0  0  0  0  0  0  0  0  0  0  0
   48.8110   35.0190   41.9300 C   0  0  0  0  0  0  0  0  0  0  0  0
   49.6550   35.3170   43.0110 F   0  0  0  0  0  0  0  0  0  0  0  0
   49.0350   33.7920   41.3830 F   0  0  0  0  0  0  0  0  0  0  0  0
   49.0220   36.0540   41.0420 F   0  0  0  0  0  0  0  0  0  0  0  0
   46.6666   33.8787   47.0858 H   0  0  0  0  0  0  0  0  0  0  0  0
   47.4213   32.9291   49.2324 H   0  0  0  0  0  0  0  0  0  0  0  0
   48.0576   30.5441   49.3802 H   0  0  0  0  0  0  0  0  0  0  0  0
   46.3023   27.7173   47.0127 H   0  0  0  0  0  0  0  0  0  0  0  0
   47.0865   25.4743   47.4467 H   0  0  0  0  0  0  0  0  0  0  0  0
   49.4400   25.1257   48.2761 H   0  0  0  0  0  0  0  0  0  0  0  0
   50.8102   27.1738   48.5923 H   0  0  0  0  0  0  0  0  0  0  0  0
   44.0067   32.2173   42.4116 H   0  0  0  0  0  0  0  0  0  0  0  0
  1  2  1  0
  2  7  2  0
  3  2  1  0
  3  4  2  0
  4  5  1  0
  5  6  2  0
  7  8  1  0
  7  6  1  0
  8 13  1  0
  9  8  2  0
  9 10  1  0
 10 11  2  0
 11 12  1  0
 13 12  2  0
 14 19  2  0
 15 16  2  0
 15 14  1  0
 16 17  1  0
 17 18  2  0
 18  3  1  0
 19 18  1  0
 20 21  1  0
 20 15  1  0
 22 20  1  0
 23 20  1  0
 24 14  1  0
 25 24  1  0
 25 26  1  0
 27 25  1  0
 28 25  1  0
  4 29  1  0
  5 30  1  0
  6 31  1  0
  9 32  1  0
 10 33  1  0
 11 34  1  0
 12 35  1  0
 16 36  1  0
M  ISO  8  29  14  30  14  31  14  32  14  33  14  34  14  35  14  36  14
M  END
>  <minimizedAffinity>  (1) 
-5.67113495

>  <minimizedRMSD>  (1) 
0.5320158

$$$$
