
     RDKit          3D

 45 48  0  0  1  0  0  0  0  0999 V2000
   47.0350   33.3660   42.9790 C   0  0  0  0  0  0  0  0  0  0  0  0
   48.1120   33.0470   43.5530 O   0  0  0  0  0  0  0  0  0  0  0  0
   46.6340   32.8810   41.6810 N   0  0  0  0  0  0  0  0  0  0  0  0
   45.3440   32.3880   41.2050 C   0  0  0  0  0  0  0  0  0  0  0  0
   44.9680   33.1310   39.9230 C   0  0  0  0  0  0  0  0  0  0  0  0
   45.9830   32.8350   38.8440 C   0  0  0  0  0  0  0  0  0  0  0  0
   47.1840   32.1600   39.4430 C   0  0  0  0  0  0  0  0  0  0  0  0
   47.6720   32.8790   40.6740 C   0  0  2  0  0  0  0  0  0  0  0  0
   45.7780   35.4680   43.0000 C   0  0  0  0  0  0  0  0  0  0  0  0
   46.1500   34.2760   43.6690 C   0  0  0  0  0  0  0  0  0  0  0  0
   45.6670   34.0230   44.9330 C   0  0  0  0  0  0  0  0  0  0  0  0
   44.8440   34.9350   45.4990 N   0  0  0  0  0  0  0  0  0  0  0  0
   44.4780   36.0810   44.8720 C   0  0  0  0  0  0  0  0  0  0  0  0
   44.9530   36.3260   43.6320 N   0  0  0  0  0  0  0  0  0  0  0  0
   46.0650   32.8000   45.5980 C   0  0  0  0  0  0  0  0  0  0  0  0
   45.5960   31.5990   45.1570 C   0  0  0  0  0  0  0  0  0  0  0  0
   45.9900   30.4450   45.8060 C   0  0  0  0  0  0  0  0  0  0  0  0
   46.8430   30.4460   46.8930 C   0  0  0  0  0  0  0  0  0  0  0  0
   47.2900   31.7000   47.3000 C   0  0  0  0  0  0  0  0  0  0  0  0
   46.8870   32.7990   46.6470 N   0  0  0  0  0  0  0  0  0  0  0  0
   48.9560   32.3090   41.1370 C   0  0  0  0  0  0  0  0  0  0  0  0
   50.1160   33.0220   41.3570 C   0  0  0  0  0  0  0  0  0  0  0  0
   51.2940   32.4530   41.7890 C   0  0  0  0  0  0  0  0  0  0  0  0
   51.3610   31.1010   42.0280 C   0  0  0  0  0  0  0  0  0  0  0  0
   50.2030   30.3960   41.8070 C   0  0  0  0  0  0  0  0  0  0  0  0
   49.0670   30.9720   41.3860 N   0  0  0  0  0  0  0  0  0  0  0  0
   45.4148   31.3098   40.9988 H   0  0  0  0  0  0  0  0  0  0  0  0
   44.5750   32.5597   41.9725 H   0  0  0  0  0  0  0  0  0  0  0  0
   43.9730   32.8020   39.5886 H   0  0  0  0  0  0  0  0  0  0  0  0
   44.9533   34.2129   40.1211 H   0  0  0  0  0  0  0  0  0  0  0  0
   46.2936   33.7764   38.3673 H   0  0  0  0  0  0  0  0  0  0  0  0
   45.5304   32.1699   38.0937 H   0  0  0  0  0  0  0  0  0  0  0  0
   46.9143   31.1291   39.7159 H   0  0  0  0  0  0  0  0  0  0  0  0
   47.9917   32.1720   38.6964 H   0  0  0  0  0  0  0  0  0  0  0  0
   47.8843   33.9324   40.4387 H   0  0  0  0  0  0  0  0  0  0  0  0
   46.1533   35.6878   41.9896 H   0  0  0  0  0  0  0  0  0  0  0  0
   43.8057   36.7984   45.3654 H   0  0  0  0  0  0  0  0  0  0  0  0
   44.9131   31.5491   44.2961 H   0  0  0  0  0  0  0  0  0  0  0  0
   45.6070   29.4808   45.4406 H   0  0  0  0  0  0  0  0  0  0  0  0
   47.1479   29.5196   47.4018 H   0  0  0  0  0  0  0  0  0  0  0  0
   47.9737   31.7889   48.1571 H   0  0  0  0  0  0  0  0  0  0  0  0
   50.0996   34.1071   41.1772 H   0  0  0  0  0  0  0  0  0  0  0  0
   52.1831   33.0821   41.9430 H   0  0  0  0  0  0  0  0  0  0  0  0
   52.2844   30.6140   42.3746 H   0  0  0  0  0  0  0  0  0  0  0  0
   50.2074   29.3102   41.9832 H   0  0  0  0  0  0  0  0  0  0  0  0
  1  2  2  0
  1 10  1  0
  3  1  1  0
  4  3  1  0
  5  4  1  0
  6  7  1  0
  6  5  1  0
  7  8  1  0
  8 21  1  0
  8  3  1  0
  9 14  2  0
  9 10  1  0
 10 11  2  0
 11 12  1  0
 11 15  1  0
 13 12  2  0
 14 13  1  0
 15 20  1  0
 16 15  2  0
 16 17  1  0
 17 18  2  0
 18 19  1  0
 20 19  2  0
 21 22  2  0
 21 26  1  0
 22 23  1  0
 23 24  2  0
 25 24  1  0
 26 25  2  0
  4 27  1  0
  4 28  1  0
  5 29  1  0
  5 30  1  0
  6 31  1  0
  6 32  1  0
  7 33  1  0
  7 34  1  0
  8 35  1  6
  9 36  1  0
 13 37  1  0
 16 38  1  0
 17 39  1  0
 18 40  1  0
 19 41  1  0
 22 42  1  0
 23 43  1  0
 24 44  1  0
 25 45  1  0
M  ISO  8  27  13  28  13  29  13  30  13  31  13  32  13  33  13  34  13
M  ISO  8  35  13  36  14  37  14  38  14  39  14  40  14  41  14  42  14
M  ISO  3  43  14  44  14  45  14
M  END
>  <minimizedAffinity>  (1) 
-5.38073921

>  <minimizedRMSD>  (1) 
0.719363213

$$$$
