
     RDKit          3D

 21 22  0  0  0  0  0  0  0  0999 V2000
   45.1360   35.7210   43.7940 C   0  0  0  0  0  0  0  0  0  0  0  0
   46.0190   34.6560   43.5540 C   0  0  0  0  0  0  0  0  0  0  0  0
   46.2090   33.6950   44.5560 C   0  0  0  0  0  0  0  0  0  0  0  0
   45.5130   33.8680   45.7050 N   0  0  0  0  0  0  0  0  0  0  0  0
   44.6720   34.8820   45.9310 C   0  0  0  0  0  0  0  0  0  0  0  0
   44.4900   35.8020   44.9740 N   0  0  0  0  0  0  0  0  0  0  0  0
   44.9110   36.7210   42.8090 N   0  0  0  0  0  0  0  0  0  0  0  0
   46.7010   34.6000   42.2680 C   0  0  0  0  0  0  0  0  0  0  0  0
   46.2660   33.8620   41.2180 C   0  0  0  0  0  0  0  0  0  0  0  0
   46.9710   33.8640   40.0330 C   0  0  0  0  0  0  0  0  0  0  0  0
   48.1160   34.6110   39.9140 C   0  0  0  0  0  0  0  0  0  0  0  0
   48.5440   35.3570   40.9970 C   0  0  0  0  0  0  0  0  0  0  0  0
   47.8210   35.3230   42.1320 N   0  0  0  0  0  0  0  0  0  0  0  0
   46.8897   32.8423   44.4163 H   0  0  0  0  0  0  0  0  0  0  0  0
   44.1370   34.9601   46.8889 H   0  0  0  0  0  0  0  0  0  0  0  0
   45.3986   36.6705   41.9031 H   0  0  0  0  0  0  0  0  0  0  0  0
   44.2604   37.4960   43.0012 H   0  0  0  0  0  0  0  0  0  0  0  0
   45.3496   33.2608   41.3111 H   0  0  0  0  0  0  0  0  0  0  0  0
   46.6149   33.2657   39.1814 H   0  0  0  0  0  0  0  0  0  0  0  0
   48.6843   34.6163   38.9722 H   0  0  0  0  0  0  0  0  0  0  0  0
   49.4575   35.9663   40.9322 H   0  0  0  0  0  0  0  0  0  0  0  0
  1  6  2  0
  2  1  1  0
  2  3  2  0
  3  4  1  0
  4  5  2  0
  6  5  1  0
  7  1  1  0
  8  2  1  0
  9  8  2  0
 10  9  1  0
 11 10  2  0
 11 12  1  0
 12 13  2  0
 13  8  1  0
  3 14  1  0
  5 15  1  0
  7 16  1  0
  7 17  1  0
  9 18  1  0
 10 19  1  0
 11 20  1  0
 12 21  1  0
M  ISO  6  14  14  15  14  18  14  19  14  20  14  21  14
M  END
>  <minimizedAffinity>  (1) 
-4.74972868

>  <minimizedRMSD>  (1) 
1.34863794

$$$$
