
     RDKit          3D

 38 40  0  0  0  0  0  0  0  0999 V2000
   45.6370   34.3970   41.7710 N   0  0  0  0  0  0  0  0  0  0  0  0
   46.3970   35.2410   42.6180 C   0  0  0  0  0  0  0  0  0  0  0  0
   46.9430   34.2230   43.6320 C   0  0  0  0  0  0  0  0  0  0  0  0
   47.7390   33.1440   43.0410 C   0  0  0  0  0  0  0  0  0  0  0  0
   47.5860   32.9210   41.5660 C   0  0  0  0  0  0  0  0  0  0  0  0
   46.4450   33.5620   40.8930 C   0  0  0  0  0  0  0  0  0  0  0  0
   46.1790   33.2840   39.5230 C   0  0  0  0  0  0  0  0  0  0  0  0
   45.0490   32.7110   39.0650 C   0  0  0  0  0  0  0  0  0  0  0  0
   44.8130   32.4500   37.7320 C   0  0  0  0  0  0  0  0  0  0  0  0
   45.7480   32.7710   36.7700 C   0  0  0  0  0  0  0  0  0  0  0  0
   46.9000   33.3610   37.2800 C   0  0  0  0  0  0  0  0  0  0  0  0
   47.0710   33.5880   38.5740 N   0  0  0  0  0  0  0  0  0  0  0  0
   44.3130   34.1340   41.8480 C   0  0  0  0  0  0  0  0  0  0  0  0
   43.5240   35.4010   42.0560 C   0  0  0  0  0  0  0  0  0  0  0  0
   42.4290   35.4070   41.0670 C   0  0  0  0  0  0  0  0  0  0  0  0
   41.1270   35.6770   41.4230 C   0  0  0  0  0  0  0  0  0  0  0  0
   40.1220   35.6750   40.4510 C   0  0  0  0  0  0  0  0  0  0  0  0
   40.5020   35.4000   39.1790 N   0  0  0  0  0  0  0  0  0  0  0  0
   41.7740   35.1420   38.8640 C   0  0  0  0  0  0  0  0  0  0  0  0
   42.7060   35.1500   39.8070 N   0  0  0  0  0  0  0  0  0  0  0  0
   47.2092   35.7394   42.0685 H   0  0  0  0  0  0  0  0  0  0  0  0
   45.8255   36.0667   43.0670 H   0  0  0  0  0  0  0  0  0  0  0  0
   47.5757   34.7616   44.3528 H   0  0  0  0  0  0  0  0  0  0  0  0
   46.0684   33.7468   44.0992 H   0  0  0  0  0  0  0  0  0  0  0  0
   48.7984   33.3669   43.2358 H   0  0  0  0  0  0  0  0  0  0  0  0
   47.3680   32.2216   43.5116 H   0  0  0  0  0  0  0  0  0  0  0  0
   48.3014   32.3002   41.0068 H   0  0  0  0  0  0  0  0  0  0  0  0
   44.2725   32.4365   39.7942 H   0  0  0  0  0  0  0  0  0  0  0  0
   43.8655   31.9790   37.4313 H   0  0  0  0  0  0  0  0  0  0  0  0
   45.5966   32.5781   35.6977 H   0  0  0  0  0  0  0  0  0  0  0  0
   47.6996   33.6501   36.5821 H   0  0  0  0  0  0  0  0  0  0  0  0
   43.9859   33.6555   40.9131 H   0  0  0  0  0  0  0  0  0  0  0  0
   44.1367   33.4658   42.7038 H   0  0  0  0  0  0  0  0  0  0  0  0
   43.1103   35.4231   43.0750 H   0  0  0  0  0  0  0  0  0  0  0  0
   44.1672   36.2842   41.9283 H   0  0  0  0  0  0  0  0  0  0  0  0
   40.8773   35.8943   42.4720 H   0  0  0  0  0  0  0  0  0  0  0  0
   39.0731   35.8865   40.7061 H   0  0  0  0  0  0  0  0  0  0  0  0
   42.0486   34.9227   37.8216 H   0  0  0  0  0  0  0  0  0  0  0  0
  1 13  1  0
  1  2  1  0
  2  3  1  0
  4  3  1  0
  5  4  1  0
  6  5  2  0
  6  1  1  0
  7  6  1  0
  8  7  2  0
  9  8  1  0
 10 11  1  0
 10  9  2  0
 11 12  2  0
 12  7  1  0
 13 14  1  0
 15 16  2  0
 15 14  1  0
 17 16  1  0
 18 17  2  0
 19 18  1  0
 19 20  2  0
 20 15  1  0
  2 21  1  0
  2 22  1  0
  3 23  1  0
  3 24  1  0
  4 25  1  0
  4 26  1  0
  5 27  1  0
  8 28  1  0
  9 29  1  0
 10 30  1  0
 11 31  1  0
 13 32  1  0
 13 33  1  0
 14 34  1  0
 14 35  1  0
 16 36  1  0
 17 37  1  0
 19 38  1  0
M  ISO  8  21  13  22  13  23  13  24  13  25  13  26  13  27  13  28  14
M  ISO  8  29  14  30  14  31  14  32   8  33   8  34   8  35   8  36  14
M  ISO  2  37  14  38  14
M  END
>  <minimizedAffinity>  (1) 
-4.6438942

>  <minimizedRMSD>  (1) 
6.01310968

$$$$
