
     RDKit          3D

 32 35  0  0  0  0  0  0  0  0999 V2000
   44.4400   35.8940   44.8940 C   0  0  0  0  0  0  0  0  0  0  0  0
   45.0230   35.8600   43.5940 C   0  0  0  0  0  0  0  0  0  0  0  0
   45.9300   34.8360   43.3350 C   0  0  0  0  0  0  0  0  0  0  0  0
   46.2350   33.9170   44.2960 N   0  0  0  0  0  0  0  0  0  0  0  0
   45.6390   34.0060   45.5260 C   0  0  0  0  0  0  0  0  0  0  0  0
   44.7620   34.9780   45.8050 N   0  0  0  0  0  0  0  0  0  0  0  0
   47.8800   35.2030   41.9360 C   0  0  0  0  0  0  0  0  0  0  0  0
   46.6010   34.6810   42.0490 C   0  0  0  0  0  0  0  0  0  0  0  0
   46.0550   34.0590   40.9560 C   0  0  0  0  0  0  0  0  0  0  0  0
   46.7300   33.9350   39.7530 C   0  0  0  0  0  0  0  0  0  0  0  0
   46.3810   33.3670   38.5690 N   0  0  0  0  0  0  0  0  0  0  0  0
   47.4370   33.5320   37.7140 C   0  0  0  0  0  0  0  0  0  0  0  0
   48.4210   34.1990   38.3830 N   0  0  0  0  0  0  0  0  0  0  0  0
   47.9980   34.4490   39.6310 C   0  0  0  0  0  0  0  0  0  0  0  0
   48.5720   35.0840   40.7250 C   0  0  0  0  0  0  0  0  0  0  0  0
   45.9870   33.0050   46.5320 C   0  0  0  0  0  0  0  0  0  0  0  0
   45.2190   32.8910   47.6660 C   0  0  0  0  0  0  0  0  0  0  0  0
   45.4960   31.9690   48.6500 C   0  0  0  0  0  0  0  0  0  0  0  0
   46.6020   31.1360   48.4560 C   0  0  0  0  0  0  0  0  0  0  0  0
   47.3640   31.2740   47.2940 C   0  0  0  0  0  0  0  0  0  0  0  0
   47.0470   32.2050   46.3490 N   0  0  0  0  0  0  0  0  0  0  0  0
   43.7176   36.6840   45.1470 H   0  0  0  0  0  0  0  0  0  0  0  0
   44.7679   36.6089   42.8298 H   0  0  0  0  0  0  0  0  0  0  0  0
   48.3488   35.7081   42.7934 H   0  0  0  0  0  0  0  0  0  0  0  0
   45.0405   33.6418   41.0378 H   0  0  0  0  0  0  0  0  0  0  0  0
   45.4885   32.8996   38.3549 H   0  0  0  0  0  0  0  0  0  0  0  0
   47.4839   33.1872   36.6705 H   0  0  0  0  0  0  0  0  0  0  0  0
   49.5866   35.5000   40.6383 H   0  0  0  0  0  0  0  0  0  0  0  0
   44.3540   33.5588   47.7916 H   0  0  0  0  0  0  0  0  0  0  0  0
   44.8722   31.8908   49.5527 H   0  0  0  0  0  0  0  0  0  0  0  0
   46.8688   30.3807   49.2099 H   0  0  0  0  0  0  0  0  0  0  0  0
   48.2350   30.6205   47.1381 H   0  0  0  0  0  0  0  0  0  0  0  0
  1  6  2  0
  2  1  1  0
  3  2  2  0
  3  4  1  0
  4  5  2  0
  5  6  1  0
  5 16  1  0
  7  8  2  0
  8  3  1  0
  9  8  1  0
 10  9  2  0
 11 10  1  0
 12 13  2  0
 12 11  1  0
 13 14  1  0
 14 10  1  0
 14 15  2  0
 15  7  1  0
 16 17  2  0
 17 18  1  0
 19 18  2  0
 20 19  1  0
 21 16  1  0
 21 20  2  0
  1 22  1  0
  2 23  1  0
  7 24  1  0
  9 25  1  0
 11 26  1  0
 12 27  1  0
 15 28  1  0
 17 29  1  0
 18 30  1  0
 19 31  1  0
 20 32  1  0
M  ISO  8  22  14  23  14  24  14  25  14  26   9  27  14  28  14  29  14
M  ISO  3  30  14  31  14  32  14
M  END
>  <minimizedAffinity>  (1) 
-7.06135702

>  <minimizedRMSD>  (1) 
0.4265095

$$$$
