
     RDKit          3D

 26 27  0  0  0  0  0  0  0  0999 V2000
   45.2110   34.0710   40.7760 C   0  0  0  0  0  0  0  0  0  0  0  0
   45.5800   34.8510   41.8690 C   0  0  0  0  0  0  0  0  0  0  0  0
   44.5690   35.4990   42.5630 C   0  0  0  0  0  0  0  0  0  0  0  0
   43.2770   35.3540   42.1610 N   0  0  0  0  0  0  0  0  0  0  0  0
   42.9610   34.5830   41.0870 C   0  0  0  0  0  0  0  0  0  0  0  0
   43.9300   33.9510   40.4070 N   0  0  0  0  0  0  0  0  0  0  0  0
   41.5710   34.4360   40.6670 C   0  0  0  0  0  0  0  0  0  0  0  0
   40.7230   33.6200   41.3890 C   0  0  0  0  0  0  0  0  0  0  0  0
   39.3890   33.4320   41.0490 C   0  0  0  0  0  0  0  0  0  0  0  0
   38.9220   34.1030   39.9350 C   0  0  0  0  0  0  0  0  0  0  0  0
   39.7740   34.9260   39.2020 C   0  0  0  0  0  0  0  0  0  0  0  0
   41.0550   35.0640   39.5880 N   0  0  0  0  0  0  0  0  0  0  0  0
   46.9550   35.0070   42.2980 C   0  0  0  0  0  0  0  0  0  0  0  0
   48.0110   35.1260   41.5180 C   0  0  0  0  0  0  0  0  0  0  0  0
   49.4000   35.2840   42.0680 C   0  0  0  0  0  0  0  0  0  0  0  0
   45.9881   33.5427   40.2042 H   0  0  0  0  0  0  0  0  0  0  0  0
   44.8102   36.1267   43.4335 H   0  0  0  0  0  0  0  0  0  0  0  0
   41.1204   33.0964   42.2710 H   0  0  0  0  0  0  0  0  0  0  0  0
   38.7329   32.7772   41.6412 H   0  0  0  0  0  0  0  0  0  0  0  0
   37.8728   33.9868   39.6256 H   0  0  0  0  0  0  0  0  0  0  0  0
   39.4020   35.4588   38.3145 H   0  0  0  0  0  0  0  0  0  0  0  0
   47.1358   35.0283   43.3828 H   0  0  0  0  0  0  0  0  0  0  0  0
   47.8703   35.1090   40.4272 H   0  0  0  0  0  0  0  0  0  0  0  0
   49.3618   35.2796   43.1673 H   0  0  0  0  0  0  0  0  0  0  0  0
   50.0292   34.4516   41.7197 H   0  0  0  0  0  0  0  0  0  0  0  0
   49.8261   36.2364   41.7197 H   0  0  0  0  0  0  0  0  0  0  0  0
  1  2  2  0
  2 13  1  0
  2  3  1  0
  4  3  2  0
  5  4  1  0
  6  1  1  0
  6  5  2  0
  7  5  1  0
  7  8  2  0
  9  8  1  0
 10  9  2  0
 11 12  2  0
 11 10  1  0
 12  7  1  0
 14 15  1  0
 14 13  2  0
  1 16  1  0
  3 17  1  0
  8 18  1  0
  9 19  1  0
 10 20  1  0
 11 21  1  0
 13 22  1  0
 14 23  1  0
 15 24  1  0
 15 25  1  0
 15 26  1  0
M  ISO  8  16  14  17  14  18  14  19  14  20  14  21  14  24   8  25   8
M  ISO  1  26   8
M  END
>  <minimizedAffinity>  (1) 
-4.95607424

>  <minimizedRMSD>  (1) 
7.27731705

$$$$
