
     RDKit          3D

 44 47  0  0  1  0  0  0  0  0999 V2000
   46.5790   33.2180   44.8680 F   0  0  0  0  0  0  0  0  0  0  0  0
   47.2710   32.0460   44.7290 C   0  0  0  0  0  0  0  0  0  0  0  0
   48.1200   31.9180   43.6590 C   0  0  0  0  0  0  0  0  0  0  0  0
   48.8050   30.7510   43.5260 C   0  0  0  0  0  0  0  0  0  0  0  0
   48.6270   29.7400   44.4640 C   0  0  0  0  0  0  0  0  0  0  0  0
   47.7810   29.8650   45.5330 C   0  0  0  0  0  0  0  0  0  0  0  0
   47.0850   31.0680   45.6560 C   0  0  0  0  0  0  0  0  0  0  0  0
   46.2160   31.1570   46.7820 N   0  0  0  0  0  0  0  0  0  0  0  0
   45.0820   30.3540   47.1660 C   0  0  0  0  0  0  0  0  0  0  0  0
   45.3690   30.0380   48.6350 C   0  0  0  0  0  0  0  0  0  0  0  0
   46.3020   31.1420   49.0630 C   0  0  0  0  0  0  0  0  0  0  0  0
   46.2060   32.0890   47.8940 C   0  0  2  0  0  0  0  0  0  0  0  0
   45.0280   32.9890   47.9280 C   0  0  0  0  0  0  0  0  0  0  0  0
   49.0140   35.1470   42.1800 C   0  0  0  0  0  0  0  0  0  0  0  0
   48.5280   35.0610   40.8710 C   0  0  0  0  0  0  0  0  0  0  0  0
   47.8990   33.8630   40.5500 C   0  0  0  0  0  0  0  0  0  0  0  0
   47.7920   32.8910   41.4720 N   0  0  0  0  0  0  0  0  0  0  0  0
   48.2670   33.0030   42.7120 C   0  0  0  0  0  0  0  0  0  0  0  0
   48.8860   34.1420   43.0790 N   0  0  0  0  0  0  0  0  0  0  0  0
   47.3580   33.6780   39.2080 C   0  0  0  0  0  0  0  0  0  0  0  0
   48.1110   34.0650   38.1180 C   0  0  0  0  0  0  0  0  0  0  0  0
   47.6340   33.9040   36.8410 C   0  0  0  0  0  0  0  0  0  0  0  0
   46.3680   33.3390   36.7560 C   0  0  0  0  0  0  0  0  0  0  0  0
   45.5820   32.9390   37.8410 C   0  0  0  0  0  0  0  0  0  0  0  0
   46.1390   33.1370   39.0530 N   0  0  0  0  0  0  0  0  0  0  0  0
   49.4955   30.6076   42.6818 H   0  0  0  0  0  0  0  0  0  0  0  0
   49.1886   28.8020   44.3421 H   0  0  0  0  0  0  0  0  0  0  0  0
   47.6554   29.0522   46.2634 H   0  0  0  0  0  0  0  0  0  0  0  0
   44.1434   30.9175   47.0584 H   0  0  0  0  0  0  0  0  0  0  0  0
   44.9559   29.4550   46.5448 H   0  0  0  0  0  0  0  0  0  0  0  0
   44.4427   30.0554   49.2281 H   0  0  0  0  0  0  0  0  0  0  0  0
   45.8000   29.0362   48.7790 H   0  0  0  0  0  0  0  0  0  0  0  0
   45.9607   31.6177   49.9942 H   0  0  0  0  0  0  0  0  0  0  0  0
   47.3254   30.8036   49.2823 H   0  0  0  0  0  0  0  0  0  0  0  0
   47.0164   32.8319   47.8582 H   0  0  0  0  0  0  0  0  0  0  0  0
   44.7556   33.1971   48.9732 H   0  0  0  0  0  0  0  0  0  0  0  0
   45.2725   33.9325   47.4180 H   0  0  0  0  0  0  0  0  0  0  0  0
   44.1820   32.5051   47.4180 H   0  0  0  0  0  0  0  0  0  0  0  0
   49.5222   36.0710   42.4928 H   0  0  0  0  0  0  0  0  0  0  0  0
   48.6357   35.8824   40.1473 H   0  0  0  0  0  0  0  0  0  0  0  0
   49.1056   34.5079   38.2745 H   0  0  0  0  0  0  0  0  0  0  0  0
   48.2107   34.2000   35.9523 H   0  0  0  0  0  0  0  0  0  0  0  0
   45.9481   33.1939   35.7497 H   0  0  0  0  0  0  0  0  0  0  0  0
   44.5832   32.4956   37.7152 H   0  0  0  0  0  0  0  0  0  0  0  0
  2  1  1  0
  2  7  2  0
  3  2  1  0
  4  3  2  0
  4  5  1  0
  5  6  2  0
  6  7  1  0
  7  8  1  0
  8  9  1  0
  8 12  1  0
  9 10  1  0
 10 11  1  0
 12 13  1  0
 12 11  1  0
 14 19  2  0
 15 14  1  0
 16 15  2  0
 16 17  1  0
 17 18  2  0
 18 19  1  0
 18  3  1  0
 20 16  1  0
 21 20  2  0
 22 21  1  0
 23 22  2  0
 23 24  1  0
 24 25  2  0
 25 20  1  0
  4 26  1  0
  5 27  1  0
  6 28  1  0
  9 29  1  0
  9 30  1  0
 10 31  1  0
 10 32  1  0
 11 33  1  0
 11 34  1  0
 12 35  1  6
 13 36  1  0
 13 37  1  0
 13 38  1  0
 14 39  1  0
 15 40  1  0
 21 41  1  0
 22 42  1  0
 23 43  1  0
 24 44  1  0
M  ISO  8  26  14  27  14  28  14  29  13  30  13  31  13  32  13  33  13
M  ISO  8  34  13  35  13  36   8  37   8  38   8  39  14  40  14  41  14
M  ISO  3  42  14  43  14  44  14
M  END
>  <minimizedAffinity>  (1) 
-5.57618284

>  <minimizedRMSD>  (1) 
0.936369419

$$$$
