
     RDKit          3D

 41 43  0  0  1  0  0  0  0  0999 V2000
   48.2840   31.2950   48.4610 C   0  0  0  0  0  0  0  0  0  0  0  0
   48.9230   32.0990   49.2300 O   0  0  0  0  0  0  0  0  0  0  0  0
   49.1750   30.2450   48.8380 N   0  0  0  0  0  0  0  0  0  0  0  0
   49.3120   29.3290   47.7190 C   0  0  0  0  0  0  0  0  0  0  0  0
   50.1860   28.1960   48.2250 C   0  0  0  0  0  0  0  0  0  0  0  0
   49.7780   27.8070   49.5790 N   0  0  0  0  0  0  0  0  0  0  0  0
   50.3550   28.7870   50.4520 C   0  0  0  0  0  0  0  0  0  0  0  0
   49.8220   30.1320   50.1310 C   0  0  1  0  0  0  0  0  0  0  0  0
   50.9350   31.1260   50.2670 C   0  0  0  0  0  0  0  0  0  0  0  0
   51.0600   31.9150   51.3990 C   0  0  0  0  0  0  0  0  0  0  0  0
   52.0550   32.8460   51.5890 C   0  0  0  0  0  0  0  0  0  0  0  0
   52.9900   32.9850   50.5610 C   0  0  0  0  0  0  0  0  0  0  0  0
   52.8690   32.1980   49.4300 C   0  0  0  0  0  0  0  0  0  0  0  0
   51.8620   31.2900   49.2930 N   0  0  0  0  0  0  0  0  0  0  0  0
   47.2450   31.8780   47.8140 O   0  0  0  0  0  0  0  0  0  0  0  0
   44.8330   30.8220   47.6550 O   0  0  0  0  0  0  0  0  0  0  0  0
   45.6530   32.0090   48.2280 P   0  0  1  0  0  0  0  0  0  0  0  0
   45.4340   31.9470   49.8920 O   0  0  0  0  0  0  0  0  0  0  0  0
   44.9960   33.4250   47.5860 O   0  0  0  0  0  0  0  0  0  0  0  0
   46.6300   33.5620   44.3500 C   0  0  0  0  0  0  0  0  0  0  0  0
   46.2670   33.1640   45.6630 C   0  0  0  0  0  0  0  0  0  0  0  0
   45.2970   33.8620   46.3240 C   0  0  0  0  0  0  0  0  0  0  0  0
   44.7020   34.9270   45.6990 N   0  0  0  0  0  0  0  0  0  0  0  0
   45.0680   35.2840   44.4460 C   0  0  0  0  0  0  0  0  0  0  0  0
   46.0070   34.6240   43.7790 N   0  0  0  0  0  0  0  0  0  0  0  0
   49.7914   29.8327   46.8667 H   0  0  0  0  0  0  0  0  0  0  0  0
   48.3350   28.9647   47.3687 H   0  0  0  0  0  0  0  0  0  0  0  0
   50.0851   27.3313   47.5527 H   0  0  0  0  0  0  0  0  0  0  0  0
   51.2327   28.5334   48.2487 H   0  0  0  0  0  0  0  0  0  0  0  0
   48.7513   27.8127   49.6607 H   0  0  0  0  0  0  0  0  0  0  0  0
   50.1073   28.5367   51.4941 H   0  0  0  0  0  0  0  0  0  0  0  0
   51.4467   28.7909   50.3173 H   0  0  0  0  0  0  0  0  0  0  0  0
   49.0147   30.3366   50.8496 H   0  0  0  0  0  0  0  0  0  0  0  0
   50.3148   31.7888   52.1983 H   0  0  0  0  0  0  0  0  0  0  0  0
   52.1113   33.4513   52.5058 H   0  0  0  0  0  0  0  0  0  0  0  0
   53.8118   33.7108   50.6496 H   0  0  0  0  0  0  0  0  0  0  0  0
   53.6049   32.3079   48.6198 H   0  0  0  0  0  0  0  0  0  0  0  0
   46.2808   32.1867   50.3454 H   0  0  0  0  0  0  0  0  0  0  0  0
   47.4095   33.0145   43.7999 H   0  0  0  0  0  0  0  0  0  0  0  0
   46.7602   32.3051   46.1417 H   0  0  0  0  0  0  0  0  0  0  0  0
   44.5747   36.1432   43.9679 H   0  0  0  0  0  0  0  0  0  0  0  0
  1  3  1  0
  1  2  2  0
  3  8  1  0
  4  5  1  0
  4  3  1  0
  5  6  1  0
  6  7  1  0
  8  9  1  0
  8  7  1  0
  9 10  2  0
 10 11  1  0
 12 11  2  0
 13 12  1  0
 14 13  2  0
 14  9  1  0
 15 17  1  0
 15  1  1  0
 17 16  2  0
 17 18  1  0
 19 17  1  0
 20 21  2  0
 21 22  1  0
 22 19  1  0
 23 22  2  0
 24 23  1  0
 25 20  1  0
 25 24  2  0
  4 26  1  0
  4 27  1  0
  5 28  1  0
  5 29  1  0
  6 30  1  0
  7 31  1  0
  7 32  1  0
  8 33  1  1
 10 34  1  0
 11 35  1  0
 12 36  1  0
 13 37  1  0
 18 38  1  0
 20 39  1  0
 21 40  1  0
 24 41  1  0
M  ISO  8  26  13  27  13  28  13  29  13  30   5  31  13  32  13  33  13
M  ISO  8  34  14  35  14  36  14  37  14  38   3  39  14  40  14  41  14
M  END
>  <minimizedAffinity>  (1) 
-5.9862237

>  <minimizedRMSD>  (1) 
0.982500553

$$$$
