
     RDKit          3D

 45 48  0  0  1  0  0  0  0  0999 V2000
   44.8930   35.0120   45.1260 C   0  0  0  0  0  0  0  0  0  0  0  0
   45.6780   34.7650   44.0050 C   0  0  0  0  0  0  0  0  0  0  0  0
   46.4870   33.6330   44.0300 C   0  0  0  0  0  0  0  0  0  0  0  0
   46.5040   32.8160   45.0950 N   0  0  0  0  0  0  0  0  0  0  0  0
   45.7250   33.0860   46.1730 C   0  0  0  0  0  0  0  0  0  0  0  0
   44.9200   34.1760   46.2000 N   0  0  0  0  0  0  0  0  0  0  0  0
   47.2520   31.8260   47.6850 C   0  0  2  0  0  0  0  0  0  0  0  0
   45.7790   32.1580   47.3000 C   0  0  1  0  0  0  0  0  0  0  0  0
   45.3640   32.6450   48.4940 O   0  0  0  0  0  0  0  0  0  0  0  0
   45.7810   31.7740   49.4620 C   0  0  0  0  0  0  0  0  0  0  0  0
   46.9350   30.9650   48.9140 C   0  0  2  0  0  0  0  0  0  0  0  0
   47.8850   32.9350   48.1040 O   0  0  0  0  0  0  0  0  0  0  0  0
   47.9980   30.8690   49.7820 O   0  0  0  0  0  0  0  0  0  0  0  0
   45.6220   35.6860   42.8730 C   0  0  0  0  0  0  0  0  0  0  0  0
   44.5950   35.2760   41.9190 C   0  0  0  0  0  0  0  0  0  0  0  0
   43.2690   35.6950   42.0100 C   0  0  0  0  0  0  0  0  0  0  0  0
   42.2540   35.3050   41.1710 C   0  0  0  0  0  0  0  0  0  0  0  0
   42.5820   34.4350   40.1670 C   0  0  0  0  0  0  0  0  0  0  0  0
   43.9050   34.0050   40.0590 C   0  0  0  0  0  0  0  0  0  0  0  0
   44.9560   34.4120   40.9270 C   0  0  0  0  0  0  0  0  0  0  0  0
   46.1730   33.7920   40.4830 C   0  0  0  0  0  0  0  0  0  0  0  0
   47.4070   34.3760   40.3330 C   0  0  0  0  0  0  0  0  0  0  0  0
   48.5420   33.7860   39.8330 C   0  0  0  0  0  0  0  0  0  0  0  0
   48.4470   32.4720   39.4340 C   0  0  0  0  0  0  0  0  0  0  0  0
   47.2260   31.8710   39.5740 C   0  0  0  0  0  0  0  0  0  0  0  0
   46.1740   32.5270   40.0730 N   0  0  0  0  0  0  0  0  0  0  0  0
   44.2399   35.8969   45.1452 H   0  0  0  0  0  0  0  0  0  0  0  0
   47.1233   33.4038   43.1625 H   0  0  0  0  0  0  0  0  0  0  0  0
   47.8760   31.3890   46.8914 H   0  0  0  0  0  0  0  0  0  0  0  0
   45.1479   31.3385   46.9257 H   0  0  0  0  0  0  0  0  0  0  0  0
   46.1093   32.3349   50.3495 H   0  0  0  0  0  0  0  0  0  0  0  0
   44.9554   31.1064   49.7496 H   0  0  0  0  0  0  0  0  0  0  0  0
   46.7120   29.9062   48.7160 H   0  0  0  0  0  0  0  0  0  0  0  0
   47.8962   32.9546   49.0937 H   0  0  0  0  0  0  0  0  0  0  0  0
   47.6665   30.8989   50.7144 H   0  0  0  0  0  0  0  0  0  0  0  0
   45.3890   36.6960   43.2414 H   0  0  0  0  0  0  0  0  0  0  0  0
   46.5975   35.6785   42.3647 H   0  0  0  0  0  0  0  0  0  0  0  0
   43.0146   36.3949   42.8196 H   0  0  0  0  0  0  0  0  0  0  0  0
   41.2260   35.6745   41.3000 H   0  0  0  0  0  0  0  0  0  0  0  0
   41.8178   34.0816   39.4591 H   0  0  0  0  0  0  0  0  0  0  0  0
   44.1519   33.3041   39.2480 H   0  0  0  0  0  0  0  0  0  0  0  0
   47.4956   35.4267   40.6462 H   0  0  0  0  0  0  0  0  0  0  0  0
   49.4885   34.3410   39.7546 H   0  0  0  0  0  0  0  0  0  0  0  0
   49.3117   31.9309   39.0222 H   0  0  0  0  0  0  0  0  0  0  0  0
   47.1071   30.8211   39.2681 H   0  0  0  0  0  0  0  0  0  0  0  0
  1  6  2  0
  2  3  2  0
  2  1  1  0
  3  4  1  0
  4  5  2  0
  5  6  1  0
  5  8  1  0
  7 12  1  0
  7 11  1  0
  8  7  1  0
  8  9  1  0
  9 10  1  0
 11 10  1  0
 11 13  1  0
 14  2  1  0
 15 16  2  0
 15 14  1  0
 17 16  1  0
 18 17  2  0
 19 18  1  0
 19 20  2  0
 20 15  1  0
 21 20  1  0
 22 21  2  0
 23 22  1  0
 24 25  1  0
 24 23  2  0
 25 26  2  0
 26 21  1  0
  1 27  1  0
  3 28  1  0
  7 29  1  6
  8 30  1  6
 10 31  1  0
 10 32  1  0
 11 33  1  6
 12 34  1  0
 13 35  1  0
 14 36  1  0
 14 37  1  0
 16 38  1  0
 17 39  1  0
 18 40  1  0
 19 41  1  0
 22 42  1  0
 23 43  1  0
 24 44  1  0
 25 45  1  0
M  ISO  8  27  14  28  14  29  13  30  13  31  13  32  13  33  13  34   3
M  ISO  8  35   3  36   8  37   8  38  14  39  14  40  14  41  14  42  14
M  ISO  3  43  14  44  14  45  14
M  END
>  <minimizedAffinity>  (1) 
-7.0246582

>  <minimizedRMSD>  (1) 
0.558826506

$$$$
