
     RDKit          3D

 46 50  0  0  0  0  0  0  0  0999 V2000
   46.2410   30.2800   48.5030 C   0  0  0  0  0  0  0  0  0  0  0  0
   45.8910   27.8520   47.6630 C   0  0  0  0  0  0  0  0  0  0  0  0
   45.5970   29.2040   47.7460 C   0  0  0  0  0  0  0  0  0  0  0  0
   44.5030   29.6350   46.9830 C   0  0  0  0  0  0  0  0  0  0  0  0
   43.7670   28.7740   46.2020 C   0  0  0  0  0  0  0  0  0  0  0  0
   42.7100   28.9000   45.3980 N   0  0  0  0  0  0  0  0  0  0  0  0
   42.3610   27.7220   44.8500 C   0  0  0  0  0  0  0  0  0  0  0  0
   43.2330   26.7540   45.3100 C   0  0  0  0  0  0  0  0  0  0  0  0
   44.0920   27.4320   46.1450 C   0  0  0  0  0  0  0  0  0  0  0  0
   45.1610   27.0040   46.8880 C   0  0  0  0  0  0  0  0  0  0  0  0
   45.5400   25.5910   46.8570 C   0  0  0  0  0  0  0  0  0  0  0  0
   45.1240   24.6830   47.7980 C   0  0  0  0  0  0  0  0  0  0  0  0
   45.4580   23.3490   47.8040 C   0  0  0  0  0  0  0  0  0  0  0  0
   46.2690   22.8590   46.8060 C   0  0  0  0  0  0  0  0  0  0  0  0
   46.6720   23.7690   45.8840 C   0  0  0  0  0  0  0  0  0  0  0  0
   46.3260   25.0510   45.9140 N   0  0  0  0  0  0  0  0  0  0  0  0
   47.5100   30.8020   47.9600 C   0  0  0  0  0  0  0  0  0  0  0  0
   46.6030   32.9250   45.2280 C   0  0  0  0  0  0  0  0  0  0  0  0
   47.2430   31.8490   44.5620 C   0  0  0  0  0  0  0  0  0  0  0  0
   47.6530   30.9390   45.4830 C   0  0  0  0  0  0  0  0  0  0  0  0
   47.2790   31.4390   46.6670 N   0  0  0  0  0  0  0  0  0  0  0  0
   46.6520   32.6210   46.5200 N   0  0  0  0  0  0  0  0  0  0  0  0
   44.5150   35.8440   44.5490 C   0  0  0  0  0  0  0  0  0  0  0  0
   44.9380   36.2410   43.2910 C   0  0  0  0  0  0  0  0  0  0  0  0
   45.9580   35.5060   42.6540 C   0  0  0  0  0  0  0  0  0  0  0  0
   46.4590   34.4410   43.3300 N   0  0  0  0  0  0  0  0  0  0  0  0
   46.0420   34.0710   44.5370 C   0  0  0  0  0  0  0  0  0  0  0  0
   45.0680   34.7760   45.1450 N   0  0  0  0  0  0  0  0  0  0  0  0
   45.5319   31.1190   48.5594 H   0  0  0  0  0  0  0  0  0  0  0  0
   46.5025   29.8349   49.4744 H   0  0  0  0  0  0  0  0  0  0  0  0
   46.7384   27.4530   48.2399 H   0  0  0  0  0  0  0  0  0  0  0  0
   44.2232   30.6985   47.0096 H   0  0  0  0  0  0  0  0  0  0  0  0
   42.2216   29.7890   45.2190 H   0  0  0  0  0  0  0  0  0  0  0  0
   41.5246   27.5576   44.1547 H   0  0  0  0  0  0  0  0  0  0  0  0
   43.2394   25.6819   45.0641 H   0  0  0  0  0  0  0  0  0  0  0  0
   44.4754   25.0493   48.6074 H   0  0  0  0  0  0  0  0  0  0  0  0
   45.0824   22.6833   48.5950 H   0  0  0  0  0  0  0  0  0  0  0  0
   46.5699   21.8020   46.7591 H   0  0  0  0  0  0  0  0  0  0  0  0
   47.3219   23.4258   45.0655 H   0  0  0  0  0  0  0  0  0  0  0  0
   47.9285   31.5405   48.6596 H   0  0  0  0  0  0  0  0  0  0  0  0
   48.2153   29.9681   47.8292 H   0  0  0  0  0  0  0  0  0  0  0  0
   47.3846   31.7649   43.4744 H   0  0  0  0  0  0  0  0  0  0  0  0
   48.1805   29.9921   45.2957 H   0  0  0  0  0  0  0  0  0  0  0  0
   43.7216   36.4071   45.0623 H   0  0  0  0  0  0  0  0  0  0  0  0
   44.4859   37.1143   42.7981 H   0  0  0  0  0  0  0  0  0  0  0  0
   46.3303   35.7823   41.6565 H   0  0  0  0  0  0  0  0  0  0  0  0
  2  3  2  0
  3  1  1  0
  4  3  1  0
  5  4  2  0
  6  5  1  0
  7  8  2  0
  7  6  1  0
  8  9  1  0
  9  5  1  0
  9 10  2  0
 10  2  1  0
 11 10  1  0
 11 12  2  0
 12 13  1  0
 14 13  2  0
 15 16  2  0
 15 14  1  0
 16 11  1  0
 17  1  1  0
 18 22  2  0
 19 18  1  0
 19 20  2  0
 20 21  1  0
 21 17  1  0
 22 21  1  0
 23 28  2  0
 24 23  1  0
 25 24  2  0
 25 26  1  0
 26 27  2  0
 27 28  1  0
 27 18  1  0
  1 29  1  0
  1 30  1  0
  2 31  1  0
  4 32  1  0
  6 33  1  0
  7 34  1  0
  8 35  1  0
 12 36  1  0
 13 37  1  0
 14 38  1  0
 15 39  1  0
 17 40  1  0
 17 41  1  0
 19 42  1  0
 20 43  1  0
 23 44  1  0
 24 45  1  0
 25 46  1  0
M  ISO  8  29   8  30   8  31  14  32  14  33   9  34  14  35  14  36  14
M  ISO  8  37  14  38  14  39  14  40   8  41   8  42  14  43  14  44  14
M  ISO  2  45  14  46  14
M  END
>  <minimizedAffinity>  (1) 
-5.30633545

>  <minimizedRMSD>  (1) 
1.11244953

$$$$
