
     RDKit          3D

 45 48  0  0  0  0  0  0  0  0999 V2000
   39.5360   35.3860   40.2870 C   0  0  0  0  0  0  0  0  0  0  0  0
   38.9510   33.0120   40.1680 C   0  0  0  0  0  0  0  0  0  0  0  0
   39.0000   32.8640   41.4260 O   0  0  0  0  0  0  0  0  0  0  0  0
   39.1120   34.2480   39.5030 N   0  0  0  0  0  0  0  0  0  0  0  0
   38.7130   31.8320   39.3120 C   0  0  0  0  0  0  0  0  0  0  0  0
   39.1270   31.8520   37.9990 C   0  0  0  0  0  0  0  0  0  0  0  0
   38.9690   30.8250   37.0960 C   0  0  0  0  0  0  0  0  0  0  0  0
   38.3270   29.6770   37.5890 C   0  0  0  0  0  0  0  0  0  0  0  0
   37.9290   29.6920   38.8970 C   0  0  0  0  0  0  0  0  0  0  0  0
   38.1100   30.7230   39.7320 N   0  0  0  0  0  0  0  0  0  0  0  0
   37.2580   28.5330   39.4720 C   0  0  0  0  0  0  0  0  0  0  0  0
   35.9680   28.1690   39.1500 C   0  0  0  0  0  0  0  0  0  0  0  0
   35.2980   27.0820   39.6700 C   0  0  0  0  0  0  0  0  0  0  0  0
   35.9450   26.2810   40.5860 C   0  0  0  0  0  0  0  0  0  0  0  0
   37.2360   26.6360   40.9130 C   0  0  0  0  0  0  0  0  0  0  0  0
   37.8320   27.7100   40.3700 N   0  0  0  0  0  0  0  0  0  0  0  0
   40.8600   35.9740   39.8180 C   0  0  0  0  0  0  0  0  0  0  0  0
   43.7750   34.5850   41.8020 C   0  0  0  0  0  0  0  0  0  0  0  0
   42.7170   35.4420   41.3960 C   0  0  0  0  0  0  0  0  0  0  0  0
   41.9800   35.1150   40.2740 C   0  0  0  0  0  0  0  0  0  0  0  0
   42.3370   33.9550   39.6200 N   0  0  0  0  0  0  0  0  0  0  0  0
   43.3630   33.1710   40.0580 C   0  0  0  0  0  0  0  0  0  0  0  0
   44.0720   33.4870   41.1380 N   0  0  0  0  0  0  0  0  0  0  0  0
   44.5710   34.9630   43.0130 C   0  0  0  0  0  0  0  0  0  0  0  0
   46.0480   35.3520   42.6170 C   0  0  0  0  0  0  0  0  0  0  0  0
   45.0960   36.2390   43.2850 C   0  0  0  0  0  0  0  0  0  0  0  0
   38.7630   36.1656   40.2190 H   0  0  0  0  0  0  0  0  0  0  0  0
   39.6794   35.0375   41.3204 H   0  0  0  0  0  0  0  0  0  0  0  0
   38.9331   34.3354   38.4924 H   0  0  0  0  0  0  0  0  0  0  0  0
   39.6257   32.7650   37.6417 H   0  0  0  0  0  0  0  0  0  0  0  0
   39.3222   30.8985   36.0569 H   0  0  0  0  0  0  0  0  0  0  0  0
   38.1514   28.8005   36.9480 H   0  0  0  0  0  0  0  0  0  0  0  0
   35.4314   28.7945   38.4214 H   0  0  0  0  0  0  0  0  0  0  0  0
   34.2667   26.8583   39.3597 H   0  0  0  0  0  0  0  0  0  0  0  0
   35.4560   25.4031   41.0334 H   0  0  0  0  0  0  0  0  0  0  0  0
   37.7927   26.0237   41.6376 H   0  0  0  0  0  0  0  0  0  0  0  0
   40.9801   36.9839   40.2371 H   0  0  0  0  0  0  0  0  0  0  0  0
   40.8658   36.0260   38.7192 H   0  0  0  0  0  0  0  0  0  0  0  0
   42.4877   36.3536   41.9673 H   0  0  0  0  0  0  0  0  0  0  0  0
   43.6107   32.2536   39.5039 H   0  0  0  0  0  0  0  0  0  0  0  0
   43.9899   34.2895   43.6601 H   0  0  0  0  0  0  0  0  0  0  0  0
   46.9065   34.9334   43.1626 H   0  0  0  0  0  0  0  0  0  0  0  0
   46.6602   35.3677   41.7033 H   0  0  0  0  0  0  0  0  0  0  0  0
   44.7000   37.1043   42.7332 H   0  0  0  0  0  0  0  0  0  0  0  0
   45.1625   36.8252   44.2134 H   0  0  0  0  0  0  0  0  0  0  0  0
  2  3  2  0
  4  2  1  0
  4  1  1  0
  5 10  1  0
  5  2  1  0
  6  5  2  0
  7  8  2  0
  7  6  1  0
  8  9  1  0
  9 11  1  0
  9 10  2  0
 11 16  1  0
 12 11  2  0
 12 13  1  0
 13 14  2  0
 14 15  1  0
 16 15  2  0
 17 20  1  0
 17  1  1  0
 18 24  1  0
 19 18  2  0
 20 19  1  0
 21 22  1  0
 21 20  2  0
 22 23  2  0
 23 18  1  0
 24 26  1  0
 25 24  1  0
 25 26  1  0
  1 27  1  0
  1 28  1  0
  4 29  1  0
  6 30  1  0
  7 31  1  0
  8 32  1  0
 12 33  1  0
 13 34  1  0
 14 35  1  0
 15 36  1  0
 17 37  1  0
 17 38  1  0
 19 39  1  0
 22 40  1  0
 24 41  1  0
 25 42  1  0
 25 43  1  0
 26 44  1  0
 26 45  1  0
M  ISO  8  27   8  28   8  30  14  31  14  32  14  33  14  34  14  35  14
M  ISO  8  36  14  37   8  38   8  39  14  40  14  41  13  42  13  43  13
M  ISO  2  44  13  45  13
M  END
>  <minimizedAffinity>  (1) 
-5.33393621

>  <minimizedRMSD>  (1) 
1.76384342

$$$$
