
     RDKit          3D

 37 40  0  0  0  0  0  0  0  0999 V2000
   45.6650   34.5570   41.6220 C   0  0  0  0  0  0  0  0  0  0  0  0
   46.8760   34.7050   41.2960 O   0  0  0  0  0  0  0  0  0  0  0  0
   44.5570   34.2030   40.6620 C   0  0  0  0  0  0  0  0  0  0  0  0
   43.2260   34.5100   40.7960 C   0  0  0  0  0  0  0  0  0  0  0  0
   42.6190   33.9980   39.7110 N   0  0  0  0  0  0  0  0  0  0  0  0
   43.5430   33.3990   38.9410 C   0  0  0  0  0  0  0  0  0  0  0  0
   44.7540   33.5210   39.5240 N   0  0  0  0  0  0  0  0  0  0  0  0
   43.4350   32.7070   37.6930 N   0  0  0  0  0  0  0  0  0  0  0  0
   41.2370   34.0490   39.3770 C   0  0  0  0  0  0  0  0  0  0  0  0
   40.2460   33.8840   40.3200 C   0  0  0  0  0  0  0  0  0  0  0  0
   38.8970   33.9380   39.9710 C   0  0  0  0  0  0  0  0  0  0  0  0
   38.5760   34.1650   38.6290 C   0  0  0  0  0  0  0  0  0  0  0  0
   39.5910   34.3260   37.7090 C   0  0  0  0  0  0  0  0  0  0  0  0
   40.8820   34.2640   38.1020 N   0  0  0  0  0  0  0  0  0  0  0  0
   44.8210   35.9670   43.4350 C   0  0  0  0  0  0  0  0  0  0  0  0
   45.3680   34.7470   43.0100 C   0  0  0  0  0  0  0  0  0  0  0  0
   45.5740   33.8110   44.0060 C   0  0  0  0  0  0  0  0  0  0  0  0
   45.2790   34.0420   45.2820 N   0  0  0  0  0  0  0  0  0  0  0  0
   44.7490   35.2410   45.6540 C   0  0  0  0  0  0  0  0  0  0  0  0
   44.5260   36.1890   44.7270 N   0  0  0  0  0  0  0  0  0  0  0  0
   46.1290   32.5590   43.6410 C   0  0  0  0  0  0  0  0  0  0  0  0
   47.3810   32.0320   43.5890 C   0  0  0  0  0  0  0  0  0  0  0  0
   47.6330   30.8000   43.2000 C   0  0  0  0  0  0  0  0  0  0  0  0
   46.5630   30.0570   42.8440 C   0  0  0  0  0  0  0  0  0  0  0  0
   45.1450   31.1860   43.0810 S   0  0  0  0  0  0  0  0  0  0  0  0
   42.7529   35.0617   41.6217 H   0  0  0  0  0  0  0  0  0  0  0  0
   42.5167   32.6068   37.2375 H   0  0  0  0  0  0  0  0  0  0  0  0
   44.2756   32.3091   37.2503 H   0  0  0  0  0  0  0  0  0  0  0  0
   40.5246   33.7061   41.3692 H   0  0  0  0  0  0  0  0  0  0  0  0
   38.1098   33.8061   40.7279 H   0  0  0  0  0  0  0  0  0  0  0  0
   37.5244   34.2147   38.3102 H   0  0  0  0  0  0  0  0  0  0  0  0
   39.3483   34.5056   36.6512 H   0  0  0  0  0  0  0  0  0  0  0  0
   44.6296   36.7583   42.6952 H   0  0  0  0  0  0  0  0  0  0  0  0
   44.5044   35.4327   46.7092 H   0  0  0  0  0  0  0  0  0  0  0  0
   48.2274   32.6681   43.8875 H   0  0  0  0  0  0  0  0  0  0  0  0
   48.6566   30.3986   43.1668 H   0  0  0  0  0  0  0  0  0  0  0  0
   46.5482   29.0146   42.4930 H   0  0  0  0  0  0  0  0  0  0  0  0
  1 16  1  0
  2  1  2  0
  3  4  2  0
  3  1  1  0
  5  4  1  0
  6  7  2  0
  6  5  1  0
  7  3  1  0
  8  6  1  0
  9  5  1  0
  9 10  2  0
 11 10  1  0
 12 11  2  0
 13 14  2  0
 13 12  1  0
 14  9  1  0
 15 20  2  0
 16 15  1  0
 16 17  2  0
 17 18  1  0
 18 19  2  0
 20 19  1  0
 21 17  1  0
 22 21  2  0
 23 22  1  0
 24 25  1  0
 24 23  2  0
 25 21  1  0
  4 26  1  0
  8 27  1  0
  8 28  1  0
 10 29  1  0
 11 30  1  0
 12 31  1  0
 13 32  1  0
 15 33  1  0
 19 34  1  0
 22 35  1  0
 23 36  1  0
 24 37  1  0
M  ISO  8  26  14  29  14  30  14  31  14  32  14  33  14  34  14  35  14
M  ISO  2  36  14  37  14
M  END
>  <minimizedAffinity>  (1) 
-5.95929146

>  <minimizedRMSD>  (1) 
1.50399792

$$$$
