
     RDKit          3D

 42 45  0  0  0  0  0  0  0  0999 V2000
   46.5480   31.6080   38.6930 C   0  0  0  0  0  0  0  0  0  0  0  0
   46.3970   32.9630   38.7230 C   0  0  0  0  0  0  0  0  0  0  0  0
   45.7380   33.6100   37.6920 C   0  0  0  0  0  0  0  0  0  0  0  0
   45.2310   32.8900   36.6370 C   0  0  0  0  0  0  0  0  0  0  0  0
   45.3620   31.5030   36.5660 C   0  0  0  0  0  0  0  0  0  0  0  0
   46.0350   30.8750   37.6220 C   0  0  0  0  0  0  0  0  0  0  0  0
   45.5720   35.3530   43.2240 Cl  0  0  0  0  0  0  0  0  0  0  0  0
   46.5410   34.9130   41.8380 C   0  0  0  0  0  0  0  0  0  0  0  0
   46.0490   34.1020   40.8670 C   0  0  0  0  0  0  0  0  0  0  0  0
   46.8880   33.8230   39.8000 C   0  0  0  0  0  0  0  0  0  0  0  0
   48.1600   34.3350   39.7220 C   0  0  0  0  0  0  0  0  0  0  0  0
   48.6340   35.1430   40.7030 C   0  0  0  0  0  0  0  0  0  0  0  0
   47.8120   35.4290   41.7640 C   0  0  0  0  0  0  0  0  0  0  0  0
   43.0740   31.9890   41.8320 C   0  0  0  0  0  0  0  0  0  0  0  0
   44.3810   32.4710   41.7220 C   0  0  0  0  0  0  0  0  0  0  0  0
   44.6960   33.5950   40.9890 C   0  0  0  0  0  0  0  0  0  0  0  0
   43.6290   34.1840   40.3890 N   0  0  0  0  0  0  0  0  0  0  0  0
   42.3790   33.7360   40.4850 C   0  0  0  0  0  0  0  0  0  0  0  0
   42.1080   32.6440   41.2050 N   0  0  0  0  0  0  0  0  0  0  0  0
   47.3010   30.7850   39.9540 S   0  0  0  0  0  0  0  0  0  0  0  0
   46.2960   30.1840   40.9140 O   0  0  0  0  0  0  0  0  0  0  0  0
   47.9160   29.5160   39.2610 O   0  0  0  0  0  0  0  0  0  0  0  0
   48.5520   31.4030   40.9520 C   0  0  0  0  0  0  0  0  0  0  0  0
   49.8440   31.5010   40.3660 C   0  0  0  0  0  0  0  0  0  0  0  0
   51.0590   31.9540   40.8970 C   0  0  0  0  0  0  0  0  0  0  0  0
   50.9240   32.3600   42.2010 C   0  0  0  0  0  0  0  0  0  0  0  0
   49.7120   32.2920   42.8170 C   0  0  0  0  0  0  0  0  0  0  0  0
   48.6260   31.8430   42.2130 N   0  0  0  0  0  0  0  0  0  0  0  0
   45.6198   34.7033   37.7172 H   0  0  0  0  0  0  0  0  0  0  0  0
   44.7084   33.4210   35.8277 H   0  0  0  0  0  0  0  0  0  0  0  0
   44.9557   30.9291   35.7201 H   0  0  0  0  0  0  0  0  0  0  0  0
   46.1616   29.7824   37.6067 H   0  0  0  0  0  0  0  0  0  0  0  0
   48.7974   34.0887   38.8600 H   0  0  0  0  0  0  0  0  0  0  0  0
   49.6512   35.5583   40.6494 H   0  0  0  0  0  0  0  0  0  0  0  0
   48.1773   36.0830   42.5695 H   0  0  0  0  0  0  0  0  0  0  0  0
   42.8528   31.0887   42.4241 H   0  0  0  0  0  0  0  0  0  0  0  0
   45.1888   31.9332   42.2398 H   0  0  0  0  0  0  0  0  0  0  0  0
   41.5657   34.2675   39.9691 H   0  0  0  0  0  0  0  0  0  0  0  0
   49.8988   31.1647   39.3201 H   0  0  0  0  0  0  0  0  0  0  0  0
   52.0054   31.9809   40.3371 H   0  0  0  0  0  0  0  0  0  0  0  0
   51.7976   32.7414   42.7499 H   0  0  0  0  0  0  0  0  0  0  0  0
   49.6334   32.6251   43.8624 H   0  0  0  0  0  0  0  0  0  0  0  0
  1  2  1  0
  1 20  1  0
  2 10  1  0
  3  2  2  0
  4  3  1  0
  5  4  2  0
  5  6  1  0
  6  1  2  0
  8  7  1  0
  9 16  1  0
  9  8  2  0
 10  9  1  0
 11 10  2  0
 11 12  1  0
 12 13  2  0
 13  8  1  0
 15 14  2  0
 16 15  1  0
 17 18  1  0
 17 16  2  0
 18 19  2  0
 19 14  1  0
 20 21  2  0
 20 23  1  0
 22 20  2  0
 23 28  2  0
 24 25  2  0
 24 23  1  0
 25 26  1  0
 26 27  2  0
 28 27  1  0
  3 29  1  0
  4 30  1  0
  5 31  1  0
  6 32  1  0
 11 33  1  0
 12 34  1  0
 13 35  1  0
 14 36  1  0
 15 37  1  0
 18 38  1  0
 24 39  1  0
 25 40  1  0
 26 41  1  0
 27 42  1  0
M  ISO  8  29  14  30  14  31  14  32  14  33  14  34  14  35  14  36  14
M  ISO  6  37  14  38  14  39  14  40  14  41  14  42  14
M  END
>  <minimizedAffinity>  (1) 
-4.86222935

>  <minimizedRMSD>  (1) 
4.34422207

$$$$
