
     RDKit          3D

 29 31  0  0  1  0  0  0  0  0999 V2000
   46.0390   33.1310   42.7730 C   0  0  0  0  0  0  0  0  0  0  0  0
   47.3160   32.7290   42.2600 C   0  0  0  0  0  0  0  0  0  0  0  0
   48.1200   31.9810   43.0990 C   0  0  0  0  0  0  0  0  0  0  0  0
   47.6620   31.6720   44.3450 N   0  0  0  0  0  0  0  0  0  0  0  0
   46.4610   32.0640   44.7950 C   0  0  0  0  0  0  0  0  0  0  0  0
   45.6560   32.7950   43.9940 N   0  0  0  0  0  0  0  0  0  0  0  0
   45.9680   31.7350   46.1270 C   0  0  0  0  0  0  0  0  0  0  0  0
   45.8600   32.7740   47.0410 C   0  0  0  0  0  0  0  0  0  0  0  0
   45.4010   32.4950   48.2990 C   0  0  0  0  0  0  0  0  0  0  0  0
   45.0500   31.1930   48.6500 C   0  0  0  0  0  0  0  0  0  0  0  0
   45.1680   30.1980   47.7320 C   0  0  0  0  0  0  0  0  0  0  0  0
   45.6240   30.4870   46.4870 N   0  0  0  0  0  0  0  0  0  0  0  0
   47.7630   33.1060   40.9030 C   0  0  1  0  0  0  0  0  0  0  0  0
   47.0900   34.1540   40.1650 C   0  0  0  0  0  0  0  0  0  0  0  0
   48.4300   34.4660   40.7210 C   0  0  1  0  0  0  0  0  0  0  0  0
   48.5960   35.3840   41.8780 C   0  0  0  0  0  0  0  0  0  0  0  0
   49.2930   36.5310   41.5420 F   0  0  0  0  0  0  0  0  0  0  0  0
   49.2410   34.7580   42.9460 F   0  0  0  0  0  0  0  0  0  0  0  0
   47.3440   35.7840   42.2860 F   0  0  0  0  0  0  0  0  0  0  0  0
   45.3662   33.7290   42.1407 H   0  0  0  0  0  0  0  0  0  0  0  0
   49.1121   31.6410   42.7671 H   0  0  0  0  0  0  0  0  0  0  0  0
   46.1378   33.8005   46.7595 H   0  0  0  0  0  0  0  0  0  0  0  0
   45.3083   33.3040   49.0386 H   0  0  0  0  0  0  0  0  0  0  0  0
   44.6803   30.9723   49.6622 H   0  0  0  0  0  0  0  0  0  0  0  0
   44.8958   29.1655   47.9963 H   0  0  0  0  0  0  0  0  0  0  0  0
   48.0171   32.0592   40.6803 H   0  0  0  0  0  0  0  0  0  0  0  0
   46.1989   34.6342   40.5956 H   0  0  0  0  0  0  0  0  0  0  0  0
   46.6500   34.2148   39.1587 H   0  0  0  0  0  0  0  0  0  0  0  0
   49.3815   34.8409   40.3159 H   0  0  0  0  0  0  0  0  0  0  0  0
  1  6  2  0
  2  1  1  0
  2  3  2  0
  3  4  1  0
  4  5  2  0
  5  7  1  0
  6  5  1  0
  7 12  1  0
  7  8  2  0
  8  9  1  0
  9 10  2  0
 11 10  1  0
 12 11  2  0
 13  2  1  0
 14 15  1  0
 14 13  1  0
 15 13  1  0
 15 16  1  0
 16 19  1  0
 16 18  1  0
 17 16  1  0
  1 20  1  0
  3 21  1  0
  8 22  1  0
  9 23  1  0
 10 24  1  0
 11 25  1  0
 13 26  1  6
 14 27  1  0
 14 28  1  0
 15 29  1  6
M  ISO  8  20  14  21  14  22  14  23  14  24  14  25  14  26  13  27  13
M  ISO  2  28  13  29  13
M  END
>  <minimizedAffinity>  (1) 
-5.36207771

>  <minimizedRMSD>  (1) 
2.0997231

$$$$
