
     RDKit          3D

 48 51  0  0  1  0  0  0  0  0999 V2000
   47.1010   34.0990   42.4750 C   0  0  2  0  0  0  0  0  0  0  0  0
   48.5160   34.5610   42.6580 C   0  0  0  0  0  0  0  0  0  0  0  0
   48.9180   35.5720   41.6580 C   0  0  0  0  0  0  0  0  0  0  0  0
   48.7260   35.0840   40.2430 C   0  0  0  0  0  0  0  0  0  0  0  0
   47.4340   34.3490   40.0270 C   0  0  0  0  0  0  0  0  0  0  0  0
   46.4730   34.4740   41.1840 C   0  0  1  0  0  0  0  0  0  0  0  0
   46.2270   34.4800   43.6020 C   0  0  0  0  0  0  0  0  0  0  0  0
   45.5300   35.6550   43.3760 C   0  0  0  0  0  0  0  0  0  0  0  0
   44.6520   36.1440   44.3590 C   0  0  0  0  0  0  0  0  0  0  0  0
   44.5580   35.3710   45.5220 N   0  0  0  0  0  0  0  0  0  0  0  0
   45.2610   34.2330   45.6920 C   0  0  0  0  0  0  0  0  0  0  0  0
   46.0900   33.8020   44.7220 N   0  0  0  0  0  0  0  0  0  0  0  0
   45.3260   33.5310   40.9350 C   0  0  2  0  0  0  0  0  0  0  0  0
   44.9680   33.2380   39.4870 C   0  0  0  0  0  0  0  0  0  0  0  0
   44.0620   34.0300   40.3320 C   0  0  1  0  0  0  0  0  0  0  0  0
   42.8360   33.4940   40.9920 C   0  0  0  0  0  0  0  0  0  0  0  0
   41.7540   34.5290   41.1850 C   0  0  0  0  0  0  0  0  0  0  0  0
   40.6510   34.3570   40.2050 C   0  0  0  0  0  0  0  0  0  0  0  0
   39.3810   33.9210   40.5180 C   0  0  0  0  0  0  0  0  0  0  0  0
   38.3940   33.7790   39.5710 C   0  0  0  0  0  0  0  0  0  0  0  0
   38.7050   34.0890   38.2700 C   0  0  0  0  0  0  0  0  0  0  0  0
   39.9630   34.5240   37.9450 C   0  0  0  0  0  0  0  0  0  0  0  0
   40.8980   34.6480   38.9040 N   0  0  0  0  0  0  0  0  0  0  0  0
   47.1970   33.0034   42.4544 H   0  0  0  0  0  0  0  0  0  0  0  0
   48.6164   34.9993   43.6619 H   0  0  0  0  0  0  0  0  0  0  0  0
   49.1710   33.6867   42.5294 H   0  0  0  0  0  0  0  0  0  0  0  0
   48.3106   36.4771   41.8058 H   0  0  0  0  0  0  0  0  0  0  0  0
   49.9887   35.7799   41.8005 H   0  0  0  0  0  0  0  0  0  0  0  0
   48.7473   35.9538   39.5700 H   0  0  0  0  0  0  0  0  0  0  0  0
   49.5388   34.3724   40.0357 H   0  0  0  0  0  0  0  0  0  0  0  0
   46.9494   34.7530   39.1259 H   0  0  0  0  0  0  0  0  0  0  0  0
   47.6806   33.2820   39.9234 H   0  0  0  0  0  0  0  0  0  0  0  0
   46.1479   35.5227   41.2515 H   0  0  0  0  0  0  0  0  0  0  0  0
   45.6627   36.2032   42.4316 H   0  0  0  0  0  0  0  0  0  0  0  0
   44.0773   37.0721   44.2232 H   0  0  0  0  0  0  0  0  0  0  0  0
   45.1574   33.6565   46.6231 H   0  0  0  0  0  0  0  0  0  0  0  0
   45.5707   32.9498   41.8363 H   0  0  0  0  0  0  0  0  0  0  0  0
   44.6883   32.2182   39.1839 H   0  0  0  0  0  0  0  0  0  0  0  0
   45.4608   33.3899   38.5154 H   0  0  0  0  0  0  0  0  0  0  0  0
   43.5621   34.9866   40.1201 H   0  0  0  0  0  0  0  0  0  0  0  0
   42.4331   32.6810   40.3702 H   0  0  0  0  0  0  0  0  0  0  0  0
   43.1331   33.1464   41.9924 H   0  0  0  0  0  0  0  0  0  0  0  0
   41.3459   34.4333   42.2020 H   0  0  0  0  0  0  0  0  0  0  0  0
   42.1982   35.5235   41.0316 H   0  0  0  0  0  0  0  0  0  0  0  0
   39.1484   33.6774   41.5652 H   0  0  0  0  0  0  0  0  0  0  0  0
   37.3884   33.4286   39.8467 H   0  0  0  0  0  0  0  0  0  0  0  0
   37.9409   33.9877   37.4852 H   0  0  0  0  0  0  0  0  0  0  0  0
   40.2079   34.7714   36.9015 H   0  0  0  0  0  0  0  0  0  0  0  0
  1  2  1  0
  1  7  1  0
  3  2  1  0
  4  3  1  0
  5  4  1  0
  5  6  1  0
  6  1  1  0
  7 12  1  0
  8  7  2  0
  8  9  1  0
  9 10  2  0
 10 11  1  0
 12 11  2  0
 13  6  1  0
 14 15  1  0
 14 13  1  0
 15 13  1  0
 15 16  1  0
 16 17  1  0
 18 19  2  0
 18 17  1  0
 20 19  1  0
 21 20  2  0
 22 21  1  0
 22 23  2  0
 23 18  1  0
  1 24  1  6
  2 25  1  0
  2 26  1  0
  3 27  1  0
  3 28  1  0
  4 29  1  0
  4 30  1  0
  5 31  1  0
  5 32  1  0
  6 33  1  1
  8 34  1  0
  9 35  1  0
 11 36  1  0
 13 37  1  1
 14 38  1  0
 14 39  1  0
 15 40  1  6
 16 41  1  0
 16 42  1  0
 17 43  1  0
 17 44  1  0
 19 45  1  0
 20 46  1  0
 21 47  1  0
 22 48  1  0
M  ISO  8  24  13  25  13  26  13  27  13  28  13  29  13  30  13  31  13
M  ISO  8  32  13  33  13  34  14  35  14  36  14  37  13  38  13  39  13
M  ISO  8  40  13  41   8  42   8  43   8  44   8  45  14  46  14  47  14
M  ISO  1  48  14
M  END
>  <minimizedAffinity>  (1) 
-6.84393549

>  <minimizedRMSD>  (1) 
1.3246094

$$$$
