
     RDKit          3D

 36 39  0  0  0  0  0  0  0  0999 V2000
   46.3190   32.1860   47.1330 C   0  0  0  0  0  0  0  0  0  0  0  0
   46.0360   30.9020   46.7240 C   0  0  0  0  0  0  0  0  0  0  0  0
   46.7740   29.8040   47.1320 C   0  0  0  0  0  0  0  0  0  0  0  0
   47.8620   29.9300   47.9900 C   0  0  0  0  0  0  0  0  0  0  0  0
   48.1210   31.2220   48.3810 C   0  0  0  0  0  0  0  0  0  0  0  0
   47.3990   32.2860   47.9820 C   0  0  0  0  0  0  0  0  0  0  0  0
   49.4920   31.5180   49.4810 S   0  0  0  0  0  0  0  0  0  0  0  0
   50.2250   29.9210   49.7730 C   0  0  0  0  0  0  0  0  0  0  0  0
   51.3170   29.9020   50.5770 C   0  0  0  0  0  0  0  0  0  0  0  0
   51.9010   28.6610   50.8170 C   0  0  0  0  0  0  0  0  0  0  0  0
   51.4220   27.4770   50.2810 C   0  0  0  0  0  0  0  0  0  0  0  0
   50.2980   27.5960   49.4680 C   0  0  0  0  0  0  0  0  0  0  0  0
   49.6870   28.8010   49.2010 C   0  0  0  0  0  0  0  0  0  0  0  0
   48.5760   28.7770   48.3590 N   0  0  0  0  0  0  0  0  0  0  0  0
   45.5380   33.3310   46.6920 C   0  0  0  0  0  0  0  0  0  0  0  0
   44.6720   33.7340   47.5220 O   0  0  0  0  0  0  0  0  0  0  0  0
   44.9490   35.5870   43.8840 C   0  0  0  0  0  0  0  0  0  0  0  0
   45.9890   35.3120   42.9700 C   0  0  0  0  0  0  0  0  0  0  0  0
   46.8830   34.3270   43.3610 C   0  0  0  0  0  0  0  0  0  0  0  0
   46.6770   33.7410   44.5440 N   0  0  0  0  0  0  0  0  0  0  0  0
   45.6980   33.9950   45.4130 C   0  0  0  0  0  0  0  0  0  0  0  0
   44.8120   34.9510   45.0580 N   0  0  0  0  0  0  0  0  0  0  0  0
   47.9790   34.0230   42.4320 C   0  0  0  0  0  0  0  0  0  0  0  0
   49.1710   33.9100   43.1290 F   0  0  0  0  0  0  0  0  0  0  0  0
   48.1250   35.1610   41.6200 F   0  0  0  0  0  0  0  0  0  0  0  0
   47.7740   32.9000   41.7020 F   0  0  0  0  0  0  0  0  0  0  0  0
   45.1867   30.7417   46.0436 H   0  0  0  0  0  0  0  0  0  0  0  0
   46.4925   28.8049   46.7679 H   0  0  0  0  0  0  0  0  0  0  0  0
   47.6850   33.2819   48.3513 H   0  0  0  0  0  0  0  0  0  0  0  0
   51.7225   30.8241   51.0190 H   0  0  0  0  0  0  0  0  0  0  0  0
   52.7884   28.6187   51.4656 H   0  0  0  0  0  0  0  0  0  0  0  0
   51.8983   26.5065   50.4843 H   0  0  0  0  0  0  0  0  0  0  0  0
   49.8782   26.6845   49.0177 H   0  0  0  0  0  0  0  0  0  0  0  0
   48.2627   27.8684   47.9887 H   0  0  0  0  0  0  0  0  0  0  0  0
   44.2137   36.3616   43.6208 H   0  0  0  0  0  0  0  0  0  0  0  0
   46.0838   35.8436   42.0117 H   0  0  0  0  0  0  0  0  0  0  0  0
  1  6  2  0
  2  3  2  0
  2  1  1  0
  3  4  1  0
  4 14  1  0
  4  5  2  0
  5  7  1  0
  6  5  1  0
  7  8  1  0
  8  9  2  0
  9 10  1  0
 11 10  2  0
 12 11  1  0
 13 12  2  0
 13  8  1  0
 14 13  1  0
 15  1  1  0
 15 16  2  0
 17 22  2  0
 18 19  2  0
 18 17  1  0
 19 20  1  0
 20 21  2  0
 21 15  1  0
 22 21  1  0
 23 24  1  0
 23 19  1  0
 25 23  1  0
 26 23  1  0
  2 27  1  0
  3 28  1  0
  6 29  1  0
  9 30  1  0
 10 31  1  0
 11 32  1  0
 12 33  1  0
 14 34  1  0
 17 35  1  0
 18 36  1  0
M  ISO  8  27  14  28  14  29  14  30  14  31  14  32  14  33  14  35  14
M  ISO  1  36  14
M  END
>  <minimizedAffinity>  (1) 
-6.4527688

>  <minimizedRMSD>  (1) 
1.53705001

$$$$
