
     RDKit          3D

 51 55  0  0  1  0  0  0  0  0999 V2000
   44.9900   29.9660   48.0930 C   0  0  0  0  0  0  0  0  0  0  0  0
   45.3610   28.6100   47.6820 C   0  0  0  0  0  0  0  0  0  0  0  0
   44.5090   28.1250   46.5620 C   0  0  0  0  0  0  0  0  0  0  0  0
   44.4710   28.4350   45.2250 C   0  0  0  0  0  0  0  0  0  0  0  0
   43.5670   27.8400   44.3780 C   0  0  0  0  0  0  0  0  0  0  0  0
   42.6440   26.9030   44.7930 C   0  0  0  0  0  0  0  0  0  0  0  0
   42.6530   26.5670   46.1250 C   0  0  0  0  0  0  0  0  0  0  0  0
   43.5560   27.1680   46.9460 C   0  0  0  0  0  0  0  0  0  0  0  0
   41.4790   25.3700   46.6730 S   0  0  0  0  0  0  0  0  0  0  0  0
   40.5230   24.8770   45.2510 C   0  0  0  0  0  0  0  0  0  0  0  0
   39.5460   23.9420   45.4670 C   0  0  0  0  0  0  0  0  0  0  0  0
   38.7780   23.5200   44.4210 C   0  0  0  0  0  0  0  0  0  0  0  0
   39.0090   24.0490   43.1740 C   0  0  0  0  0  0  0  0  0  0  0  0
   40.0070   24.9840   43.0290 C   0  0  0  0  0  0  0  0  0  0  0  0
   40.8160   25.4520   44.0420 C   0  0  0  0  0  0  0  0  0  0  0  0
   41.8040   26.4090   43.7670 N   0  0  0  0  0  0  0  0  0  0  0  0
   45.2660   30.9830   47.2110 O   0  0  0  0  0  0  0  0  0  0  0  0
   46.6140   32.9090   46.7270 C   0  0  2  0  0  0  0  0  0  0  0  0
   47.0520   32.7910   45.3200 C   0  0  1  0  0  0  0  0  0  0  0  0
   46.5930   31.4530   44.9240 O   0  0  0  0  0  0  0  0  0  0  0  0
   47.2410   30.7810   45.9870 C   0  0  0  0  0  0  0  0  0  0  0  0
   46.5450   31.4580   47.1830 C   0  0  2  0  0  0  0  0  0  0  0  0
   44.7070   35.2450   43.9740 C   0  0  0  0  0  0  0  0  0  0  0  0
   45.3370   35.7140   42.8160 C   0  0  0  0  0  0  0  0  0  0  0  0
   46.5980   35.1720   42.4830 C   0  0  0  0  0  0  0  0  0  0  0  0
   47.1450   34.2260   43.2900 N   0  0  0  0  0  0  0  0  0  0  0  0
   46.5100   33.7940   44.4000 C   0  0  0  0  0  0  0  0  0  0  0  0
   45.2910   34.2950   44.7540 N   0  0  0  0  0  0  0  0  0  0  0  0
   43.4590   35.7430   44.3590 O   0  0  0  0  0  0  0  0  0  0  0  0
   45.2790   33.4440   46.7730 O   0  0  0  0  0  0  0  0  0  0  0  0
   43.9056   29.9718   48.2773 H   0  0  0  0  0  0  0  0  0  0  0  0
   45.6117   30.1770   48.9756 H   0  0  0  0  0  0  0  0  0  0  0  0
   46.4119   28.6104   47.3570 H   0  0  0  0  0  0  0  0  0  0  0  0
   45.2159   27.9382   48.5408 H   0  0  0  0  0  0  0  0  0  0  0  0
   45.1789   29.1750   44.8234 H   0  0  0  0  0  0  0  0  0  0  0  0
   43.5803   28.1254   43.3158 H   0  0  0  0  0  0  0  0  0  0  0  0
   43.5379   26.8779   48.0069 H   0  0  0  0  0  0  0  0  0  0  0  0
   39.3817   23.5345   46.4754 H   0  0  0  0  0  0  0  0  0  0  0  0
   37.9881   22.7698   44.5733 H   0  0  0  0  0  0  0  0  0  0  0  0
   38.4079   23.7311   42.3094 H   0  0  0  0  0  0  0  0  0  0  0  0
   40.1734   25.3921   42.0212 H   0  0  0  0  0  0  0  0  0  0  0  0
   41.9197   26.7571   42.8045 H   0  0  0  0  0  0  0  0  0  0  0  0
   47.2721   33.5518   47.3301 H   0  0  0  0  0  0  0  0  0  0  0  0
   48.1383   32.9535   45.2599 H   0  0  0  0  0  0  0  0  0  0  0  0
   47.0520   29.6976   45.9626 H   0  0  0  0  0  0  0  0  0  0  0  0
   48.3387   30.8525   45.9842 H   0  0  0  0  0  0  0  0  0  0  0  0
   46.9640   31.3005   48.1878 H   0  0  0  0  0  0  0  0  0  0  0  0
   44.8648   36.4810   42.1846 H   0  0  0  0  0  0  0  0  0  0  0  0
   47.1301   35.5114   41.5821 H   0  0  0  0  0  0  0  0  0  0  0  0
   43.0113   36.4346   43.8101 H   0  0  0  0  0  0  0  0  0  0  0  0
   45.0005   33.5556   47.7165 H   0  0  0  0  0  0  0  0  0  0  0  0
  2  1  1  0
  3  8  1  0
  3  2  1  0
  4  3  2  0
  5  6  2  0
  5  4  1  0
  6  7  1  0
  7  9  1  0
  7  8  2  0
 10 11  2  0
 10  9  1  0
 12 11  1  0
 13 12  2  0
 14 13  1  0
 14 15  2  0
 15 10  1  0
 16 15  1  0
 16  6  1  0
 17  1  1  0
 18 30  1  0
 18 22  1  0
 19 18  1  0
 20 19  1  0
 20 21  1  0
 21 22  1  0
 22 17  1  0
 23 29  1  0
 23 28  2  0
 24 23  1  0
 25 24  2  0
 25 26  1  0
 26 27  2  0
 27 28  1  0
 27 19  1  0
  1 31  1  0
  1 32  1  0
  2 33  1  0
  2 34  1  0
  4 35  1  0
  5 36  1  0
  8 37  1  0
 11 38  1  0
 12 39  1  0
 13 40  1  0
 14 41  1  0
 16 42  1  0
 18 43  1  1
 19 44  1  1
 21 45  1  0
 21 46  1  0
 22 47  1  1
 24 48  1  0
 25 49  1  0
 29 50  1  0
 30 51  1  0
M  ISO  8  31   8  32   8  33   8  34   8  35  14  36  14  37  14  38  14
M  ISO  8  39  14  40  14  41  14  43  13  44  13  45  13  46  13  47  13
M  ISO  4  48  14  49  14  50   3  51   3
M  END
>  <minimizedAffinity>  (1) 
-6.4624052

>  <minimizedRMSD>  (1) 
0.368417233

$$$$
