
     RDKit          3D

 32 35  0  0  0  0  0  0  0  0999 V2000
   44.6690   34.6410   41.3410 C   0  0  0  0  0  0  0  0  0  0  0  0
   43.8400   35.7040   41.6330 C   0  0  0  0  0  0  0  0  0  0  0  0
   42.5590   35.6830   41.1200 C   0  0  0  0  0  0  0  0  0  0  0  0
   42.0250   34.6850   40.3330 C   0  0  0  0  0  0  0  0  0  0  0  0
   42.8930   33.6540   40.0730 C   0  0  0  0  0  0  0  0  0  0  0  0
   44.1720   33.6260   40.5570 C   0  0  0  0  0  0  0  0  0  0  0  0
   42.3410   32.2960   39.0690 S   0  0  0  0  0  0  0  0  0  0  0  0
   40.6550   32.6630   38.6220 C   0  0  0  0  0  0  0  0  0  0  0  0
   39.9650   31.7960   37.8500 C   0  0  0  0  0  0  0  0  0  0  0  0
   38.6470   32.0150   37.4620 C   0  0  0  0  0  0  0  0  0  0  0  0
   38.0700   33.1820   37.9130 C   0  0  0  0  0  0  0  0  0  0  0  0
   38.7980   34.0350   38.6920 C   0  0  0  0  0  0  0  0  0  0  0  0
   40.1030   33.8330   39.0860 C   0  0  0  0  0  0  0  0  0  0  0  0
   40.7120   34.8080   39.8910 N   0  0  0  0  0  0  0  0  0  0  0  0
   46.3450   34.5700   41.9550 S   0  0  0  0  0  0  0  0  0  0  0  0
   45.3070   34.6120   44.5320 C   0  0  0  0  0  0  0  0  0  0  0  0
   46.2460   34.0160   43.6570 C   0  0  0  0  0  0  0  0  0  0  0  0
   47.0650   33.0120   44.1550 C   0  0  0  0  0  0  0  0  0  0  0  0
   46.9360   32.6390   45.4590 N   0  0  0  0  0  0  0  0  0  0  0  0
   46.0230   33.2350   46.2650 C   0  0  0  0  0  0  0  0  0  0  0  0
   45.2180   34.2060   45.8180 N   0  0  0  0  0  0  0  0  0  0  0  0
   44.1887   36.5417   42.2549 H   0  0  0  0  0  0  0  0  0  0  0  0
   41.9077   36.5364   41.3598 H   0  0  0  0  0  0  0  0  0  0  0  0
   44.8191   32.7706   40.3132 H   0  0  0  0  0  0  0  0  0  0  0  0
   40.4668   30.8768   37.5134 H   0  0  0  0  0  0  0  0  0  0  0  0
   38.0982   31.2990   36.8326 H   0  0  0  0  0  0  0  0  0  0  0  0
   37.0305   33.4248   37.6475 H   0  0  0  0  0  0  0  0  0  0  0  0
   38.3034   34.9568   39.0321 H   0  0  0  0  0  0  0  0  0  0  0  0
   40.1698   35.6405   40.1629 H   0  0  0  0  0  0  0  0  0  0  0  0
   44.6459   35.4102   44.1634 H   0  0  0  0  0  0  0  0  0  0  0  0
   47.8075   32.5245   43.5061 H   0  0  0  0  0  0  0  0  0  0  0  0
   45.9419   32.9120   47.3134 H   0  0  0  0  0  0  0  0  0  0  0  0
  1  2  2  0
  1 15  1  0
  3  2  1  0
  4  3  2  0
  5  4  1  0
  5  6  2  0
  6  1  1  0
  7  5  1  0
  8  7  1  0
  8 13  2  0
  9  8  1  0
 10  9  2  0
 10 11  1  0
 11 12  2  0
 12 13  1  0
 13 14  1  0
 14  4  1  0
 15 17  1  0
 16 21  2  0
 17 18  2  0
 17 16  1  0
 18 19  1  0
 19 20  2  0
 21 20  1  0
  2 22  1  0
  3 23  1  0
  6 24  1  0
  9 25  1  0
 10 26  1  0
 11 27  1  0
 12 28  1  0
 14 29  1  0
 16 30  1  0
 18 31  1  0
 20 32  1  0
M  ISO  8  22  14  23  14  24  14  25  14  26  14  27  14  28  14  30  14
M  ISO  2  31  14  32  14
M  END
>  <minimizedAffinity>  (1) 
-5.92322159

>  <minimizedRMSD>  (1) 
2.57689595

$$$$
