
     RDKit          3D

 45 48  0  0  0  0  0  0  0  0999 V2000
   49.6390   31.7840   40.1050 O   0  0  0  0  0  0  0  0  0  0  0  0
   49.2970   32.1650   38.8240 C   0  0  0  0  0  0  0  0  0  0  0  0
   48.4020   33.1660   38.5090 C   0  0  0  0  0  0  0  0  0  0  0  0
   48.1530   33.4420   37.1810 C   0  0  0  0  0  0  0  0  0  0  0  0
   48.7290   32.7940   36.1110 C   0  0  0  0  0  0  0  0  0  0  0  0
   49.6110   31.8080   36.4700 C   0  0  0  0  0  0  0  0  0  0  0  0
   49.8910   31.4980   37.7740 C   0  0  0  0  0  0  0  0  0  0  0  0
   50.4340   30.8840   35.1890 S   0  0  0  0  0  0  0  0  0  0  0  0
   49.8450   31.5410   33.6440 C   0  0  0  0  0  0  0  0  0  0  0  0
   50.2890   31.0420   32.4520 C   0  0  0  0  0  0  0  0  0  0  0  0
   49.8760   31.5010   31.2190 C   0  0  0  0  0  0  0  0  0  0  0  0
   48.9570   32.5290   31.2420 C   0  0  0  0  0  0  0  0  0  0  0  0
   48.5130   33.0290   32.4470 C   0  0  0  0  0  0  0  0  0  0  0  0
   48.9320   32.5620   33.6730 C   0  0  0  0  0  0  0  0  0  0  0  0
   48.3700   33.1940   34.8050 N   0  0  0  0  0  0  0  0  0  0  0  0
   47.8570   29.8140   40.2880 O   0  0  0  0  0  0  0  0  0  0  0  0
   48.7930   30.6740   41.0690 P   0  0  1  0  0  0  0  0  0  0  0  0
   49.9950   29.7660   41.8570 O   0  0  0  0  0  0  0  0  0  0  0  0
   47.9470   31.5110   42.2780 O   0  0  0  0  0  0  0  0  0  0  0  0
   48.6630   32.5730   42.7770 C   0  0  0  0  0  0  0  0  0  0  0  0
   47.9160   33.8470   42.5770 C   0  0  0  0  0  0  0  0  0  0  0  0
   44.8940   35.0470   44.4720 C   0  0  0  0  0  0  0  0  0  0  0  0
   45.8580   34.8770   43.4380 C   0  0  0  0  0  0  0  0  0  0  0  0
   46.9190   34.0120   43.6690 C   0  0  0  0  0  0  0  0  0  0  0  0
   47.0070   33.3690   44.8460 N   0  0  0  0  0  0  0  0  0  0  0  0
   46.0710   33.5550   45.8120 C   0  0  0  0  0  0  0  0  0  0  0  0
   45.0310   34.3800   45.6300 N   0  0  0  0  0  0  0  0  0  0  0  0
   43.8030   35.9090   44.2900 N   0  0  0  0  0  0  0  0  0  0  0  0
   47.8957   33.7343   39.3032 H   0  0  0  0  0  0  0  0  0  0  0  0
   47.4356   34.2455   36.9581 H   0  0  0  0  0  0  0  0  0  0  0  0
   50.6102   30.6941   37.9898 H   0  0  0  0  0  0  0  0  0  0  0  0
   51.0222   30.2224   32.4776 H   0  0  0  0  0  0  0  0  0  0  0  0
   50.2549   31.0749   30.2783 H   0  0  0  0  0  0  0  0  0  0  0  0
   48.5785   32.9498   30.2988 H   0  0  0  0  0  0  0  0  0  0  0  0
   47.7807   33.8496   32.4285 H   0  0  0  0  0  0  0  0  0  0  0  0
   47.6896   33.9564   34.6760 H   0  0  0  0  0  0  0  0  0  0  0  0
   49.8831   29.8505   42.8370 H   0  0  0  0  0  0  0  0  0  0  0  0
   48.8356   32.4197   43.8525 H   0  0  0  0  0  0  0  0  0  0  0  0
   49.6231   32.6364   42.2438 H   0  0  0  0  0  0  0  0  0  0  0  0
   48.6204   34.6917   42.5925 H   0  0  0  0  0  0  0  0  0  0  0  0
   47.3977   33.8206   41.6071 H   0  0  0  0  0  0  0  0  0  0  0  0
   45.7647   35.4156   42.4835 H   0  0  0  0  0  0  0  0  0  0  0  0
   46.1688   33.0160   46.7659 H   0  0  0  0  0  0  0  0  0  0  0  0
   43.6944   36.4222   43.4036 H   0  0  0  0  0  0  0  0  0  0  0  0
   43.1102   36.0289   45.0427 H   0  0  0  0  0  0  0  0  0  0  0  0
  1 17  1  0
  2  1  1  0
  3  2  2  0
  4  3  1  0
  5  6  1  0
  5  4  2  0
  6  7  2  0
  7  2  1  0
  8  6  1  0
  9 14  2  0
  9  8  1  0
 10  9  1  0
 11 12  1  0
 11 10  2  0
 12 13  2  0
 13 14  1  0
 14 15  1  0
 15  5  1  0
 17 16  2  0
 17 18  1  0
 17 19  1  0
 19 20  1  0
 21 20  1  0
 21 24  1  0
 22 27  2  0
 23 24  2  0
 23 22  1  0
 24 25  1  0
 25 26  2  0
 27 26  1  0
 28 22  1  0
  3 29  1  0
  4 30  1  0
  7 31  1  0
 10 32  1  0
 11 33  1  0
 12 34  1  0
 13 35  1  0
 15 36  1  0
 18 37  1  0
 20 38  1  0
 20 39  1  0
 21 40  1  0
 21 41  1  0
 23 42  1  0
 26 43  1  0
 28 44  1  0
 28 45  1  0
M  ISO  8  29  14  30  14  31  14  32  14  33  14  34  14  35  14  37   3
M  ISO  6  38   8  39   8  40   8  41   8  42  14  43  14
M  END
>  <minimizedAffinity>  (1) 
-6.07436037

>  <minimizedRMSD>  (1) 
3.87797475

$$$$
