
     RDKit          3D

 42 46  0  0  0  0  0  0  0  0999 V2000
   49.4730   29.5690   49.1960 C   0  0  0  0  0  0  0  0  0  0  0  0
   48.9400   28.7030   48.2640 C   0  0  0  0  0  0  0  0  0  0  0  0
   49.2730   27.3660   48.3300 C   0  0  0  0  0  0  0  0  0  0  0  0
   50.1150   26.8210   49.2740 C   0  0  0  0  0  0  0  0  0  0  0  0
   50.6150   27.7270   50.1730 C   0  0  0  0  0  0  0  0  0  0  0  0
   50.3220   29.0630   50.1600 C   0  0  0  0  0  0  0  0  0  0  0  0
   51.7150   27.1260   51.4380 S   0  0  0  0  0  0  0  0  0  0  0  0
   51.8890   25.3740   51.1820 C   0  0  0  0  0  0  0  0  0  0  0  0
   52.6930   24.6600   52.0290 C   0  0  0  0  0  0  0  0  0  0  0  0
   52.8650   23.3020   51.8790 C   0  0  0  0  0  0  0  0  0  0  0  0
   52.1930   22.6920   50.8400 C   0  0  0  0  0  0  0  0  0  0  0  0
   51.3940   23.4480   50.0080 C   0  0  0  0  0  0  0  0  0  0  0  0
   51.2060   24.8060   50.1380 C   0  0  0  0  0  0  0  0  0  0  0  0
   50.3540   25.4300   49.2030 N   0  0  0  0  0  0  0  0  0  0  0  0
   49.1200   31.3140   49.2160 S   0  0  0  0  0  0  0  0  0  0  0  0
   46.0420   32.7590   47.0620 C   0  0  0  0  0  0  0  0  0  0  0  0
   47.2930   32.4550   47.5360 C   0  0  0  0  0  0  0  0  0  0  0  0
   47.4790   31.6720   48.6540 C   0  0  0  0  0  0  0  0  0  0  0  0
   46.3770   31.1650   49.3370 C   0  0  0  0  0  0  0  0  0  0  0  0
   45.1120   31.4570   48.8810 C   0  0  0  0  0  0  0  0  0  0  0  0
   44.9650   32.2470   47.7540 C   0  0  0  0  0  0  0  0  0  0  0  0
   44.7180   35.3490   44.8450 C   0  0  0  0  0  0  0  0  0  0  0  0
   45.4610   35.2100   43.6820 C   0  0  0  0  0  0  0  0  0  0  0  0
   46.4290   34.2180   43.6550 C   0  0  0  0  0  0  0  0  0  0  0  0
   46.6350   33.4070   44.7470 N   0  0  0  0  0  0  0  0  0  0  0  0
   45.8660   33.5890   45.8750 C   0  0  0  0  0  0  0  0  0  0  0  0
   44.9160   34.5590   45.9110 N   0  0  0  0  0  0  0  0  0  0  0  0
   48.2609   29.0723   47.4814 H   0  0  0  0  0  0  0  0  0  0  0  0
   48.8373   26.6905   47.5791 H   0  0  0  0  0  0  0  0  0  0  0  0
   50.7612   29.7318   50.9148 H   0  0  0  0  0  0  0  0  0  0  0  0
   53.2124   25.1817   52.8463 H   0  0  0  0  0  0  0  0  0  0  0  0
   53.5112   22.7276   52.5591 H   0  0  0  0  0  0  0  0  0  0  0  0
   52.2939   21.6090   50.6761 H   0  0  0  0  0  0  0  0  0  0  0  0
   50.8732   22.9328   49.1874 H   0  0  0  0  0  0  0  0  0  0  0  0
   49.9041   24.8694   48.4653 H   0  0  0  0  0  0  0  0  0  0  0  0
   48.1739   32.8483   47.0075 H   0  0  0  0  0  0  0  0  0  0  0  0
   46.5158   30.5385   50.2304 H   0  0  0  0  0  0  0  0  0  0  0  0
   44.2276   31.0670   49.4062 H   0  0  0  0  0  0  0  0  0  0  0  0
   43.9499   32.4751   47.3967 H   0  0  0  0  0  0  0  0  0  0  0  0
   43.9443   36.1293   44.8946 H   0  0  0  0  0  0  0  0  0  0  0  0
   45.2886   35.8626   42.8135 H   0  0  0  0  0  0  0  0  0  0  0  0
   47.0391   34.0778   42.7505 H   0  0  0  0  0  0  0  0  0  0  0  0
  1 15  1  0
  1  6  2  0
  2  3  2  0
  2  1  1  0
  3  4  1  0
  4  5  2  0
  5  7  1  0
  6  5  1  0
  8  7  1  0
  8  9  2  0
 10  9  1  0
 11 10  2  0
 12 13  2  0
 12 11  1  0
 13  8  1  0
 14  4  1  0
 14 13  1  0
 16 17  2  0
 16 21  1  0
 17 18  1  0
 18 15  1  0
 18 19  2  0
 20 19  1  0
 21 20  2  0
 22 27  2  0
 23 22  1  0
 24 23  2  0
 24 25  1  0
 25 26  2  0
 26 27  1  0
 26 16  1  0
  2 28  1  0
  3 29  1  0
  6 30  1  0
  9 31  1  0
 10 32  1  0
 11 33  1  0
 12 34  1  0
 14 35  1  0
 17 36  1  0
 19 37  1  0
 20 38  1  0
 21 39  1  0
 22 40  1  0
 23 41  1  0
 24 42  1  0
M  ISO  8  28  14  29  14  30  14  31  14  32  14  33  14  34  14  36  14
M  ISO  6  37  14  38  14  39  14  40  14  41  14  42  14
M  END
>  <minimizedAffinity>  (1) 
-6.50602674

>  <minimizedRMSD>  (1) 
1.82762802

$$$$
