
     RDKit          3D

 60 65  0  0  1  0  0  0  0  0999 V2000
   45.3200   33.3690   40.9770 C   0  0  2  0  0  0  0  0  0  0  0  0
   44.5970   33.3500   39.6430 C   0  0  0  0  0  0  0  0  0  0  0  0
   43.9050   33.8190   40.8550 C   0  0  1  0  0  0  0  0  0  0  0  0
   47.0880   34.1000   42.4540 C   0  0  2  0  0  0  0  0  0  0  0  0
   48.4860   34.6300   42.5890 C   0  0  0  0  0  0  0  0  0  0  0  0
   48.8240   35.6030   41.5310 C   0  0  0  0  0  0  0  0  0  0  0  0
   48.6150   35.0640   40.1360 C   0  0  0  0  0  0  0  0  0  0  0  0
   47.3780   34.2270   39.9950 C   0  0  0  0  0  0  0  0  0  0  0  0
   46.4240   34.3750   41.1570 C   0  0  1  0  0  0  0  0  0  0  0  0
   46.2160   34.4980   43.5760 C   0  0  0  0  0  0  0  0  0  0  0  0
   45.5660   35.7010   43.3590 C   0  0  0  0  0  0  0  0  0  0  0  0
   44.6950   36.2110   44.3370 C   0  0  0  0  0  0  0  0  0  0  0  0
   44.5580   35.4250   45.4880 N   0  0  0  0  0  0  0  0  0  0  0  0
   45.2140   34.2580   45.6490 C   0  0  0  0  0  0  0  0  0  0  0  0
   46.0380   33.8110   44.6850 N   0  0  0  0  0  0  0  0  0  0  0  0
   42.9610   32.9680   41.6550 C   0  0  0  0  0  0  0  0  0  0  0  0
   41.8410   32.3820   40.8350 C   0  0  0  0  0  0  0  0  0  0  0  0
   41.6430   30.9820   41.2930 C   0  0  0  0  0  0  0  0  0  0  0  0
   41.5960   29.9660   40.3620 C   0  0  0  0  0  0  0  0  0  0  0  0
   41.4110   28.6750   40.8110 C   0  0  0  0  0  0  0  0  0  0  0  0
   41.2670   28.3060   42.1320 C   0  0  0  0  0  0  0  0  0  0  0  0
   41.3200   29.3450   43.0150 C   0  0  0  0  0  0  0  0  0  0  0  0
   41.5010   30.6380   42.6210 C   0  0  0  0  0  0  0  0  0  0  0  0
   41.1460   28.9920   44.7500 S   0  0  0  0  0  0  0  0  0  0  0  0
   40.9290   27.2280   44.8930 C   0  0  0  0  0  0  0  0  0  0  0  0
   40.7710   26.6750   46.1150 C   0  0  0  0  0  0  0  0  0  0  0  0
   40.5990   25.3210   46.3000 C   0  0  0  0  0  0  0  0  0  0  0  0
   40.5930   24.5260   45.1700 C   0  0  0  0  0  0  0  0  0  0  0  0
   40.7600   25.1370   43.9390 C   0  0  0  0  0  0  0  0  0  0  0  0
   40.9320   26.4900   43.7350 C   0  0  0  0  0  0  0  0  0  0  0  0
   41.0880   26.9510   42.4130 N   0  0  0  0  0  0  0  0  0  0  0  0
   45.8449   32.6426   41.6148 H   0  0  0  0  0  0  0  0  0  0  0  0
   44.3142   32.3914   39.1835 H   0  0  0  0  0  0  0  0  0  0  0  0
   44.7917   33.7698   38.6451 H   0  0  0  0  0  0  0  0  0  0  0  0
   43.3014   34.7247   41.0141 H   0  0  0  0  0  0  0  0  0  0  0  0
   47.2329   33.0101   42.4870 H   0  0  0  0  0  0  0  0  0  0  0  0
   48.5837   35.1237   43.5671 H   0  0  0  0  0  0  0  0  0  0  0  0
   49.1774   33.7796   42.4957 H   0  0  0  0  0  0  0  0  0  0  0  0
   48.1909   36.4932   41.6600 H   0  0  0  0  0  0  0  0  0  0  0  0
   49.8939   35.8374   41.6332 H   0  0  0  0  0  0  0  0  0  0  0  0
   48.5406   35.9143   39.4421 H   0  0  0  0  0  0  0  0  0  0  0  0
   49.4725   34.4133   39.9096 H   0  0  0  0  0  0  0  0  0  0  0  0
   46.8563   34.5264   39.0740 H   0  0  0  0  0  0  0  0  0  0  0  0
   47.6968   33.1746   39.9656 H   0  0  0  0  0  0  0  0  0  0  0  0
   46.0489   35.4089   41.1723 H   0  0  0  0  0  0  0  0  0  0  0  0
   45.7308   36.2561   42.4237 H   0  0  0  0  0  0  0  0  0  0  0  0
   44.1578   37.1621   44.2073 H   0  0  0  0  0  0  0  0  0  0  0  0
   45.0750   33.6715   46.5692 H   0  0  0  0  0  0  0  0  0  0  0  0
   43.5321   32.1426   42.1052 H   0  0  0  0  0  0  0  0  0  0  0  0
   42.5015   33.6186   42.4137 H   0  0  0  0  0  0  0  0  0  0  0  0
   42.1091   32.3946   39.7682 H   0  0  0  0  0  0  0  0  0  0  0  0
   40.9183   32.9672   40.9619 H   0  0  0  0  0  0  0  0  0  0  0  0
   41.7033   30.1796   39.2883 H   0  0  0  0  0  0  0  0  0  0  0  0
   41.3755   27.8763   40.0554 H   0  0  0  0  0  0  0  0  0  0  0  0
   41.5347   31.4293   43.3843 H   0  0  0  0  0  0  0  0  0  0  0  0
   40.7800   27.3318   46.9973 H   0  0  0  0  0  0  0  0  0  0  0  0
   40.4718   24.8910   47.3044 H   0  0  0  0  0  0  0  0  0  0  0  0
   40.4591   23.4369   45.2464 H   0  0  0  0  0  0  0  0  0  0  0  0
   40.7551   24.4895   43.0498 H   0  0  0  0  0  0  0  0  0  0  0  0
   41.0695   26.2735   41.6374 H   0  0  0  0  0  0  0  0  0  0  0  0
  1  9  1  0
  2  3  1  0
  2  1  1  0
  3  1  1  0
  3 16  1  0
  4  5  1  0
  4 10  1  0
  6  5  1  0
  7  6  1  0
  8  7  1  0
  8  9  1  0
  9  4  1  0
 10 15  1  0
 11 10  2  0
 11 12  1  0
 12 13  2  0
 13 14  1  0
 15 14  2  0
 17 18  1  0
 17 16  1  0
 18 23  2  0
 19 20  2  0
 19 18  1  0
 20 21  1  0
 21 31  1  0
 21 22  2  0
 22 24  1  0
 23 22  1  0
 24 25  1  0
 25 26  2  0
 26 27  1  0
 28 27  2  0
 29 28  1  0
 30 29  2  0
 30 25  1  0
 31 30  1  0
  1 32  1  1
  2 33  1  0
  2 34  1  0
  3 35  1  6
  4 36  1  1
  5 37  1  0
  5 38  1  0
  6 39  1  0
  6 40  1  0
  7 41  1  0
  7 42  1  0
  8 43  1  0
  8 44  1  0
  9 45  1  1
 11 46  1  0
 12 47  1  0
 14 48  1  0
 16 49  1  0
 16 50  1  0
 17 51  1  0
 17 52  1  0
 19 53  1  0
 20 54  1  0
 23 55  1  0
 26 56  1  0
 27 57  1  0
 28 58  1  0
 29 59  1  0
 31 60  1  0
M  ISO  8  32  13  33  13  34  13  35  13  36  13  37  13  38  13  39  13
M  ISO  8  40  13  41  13  42  13  43  13  44  13  45  13  46  14  47  14
M  ISO  8  48  14  49   8  50   8  51   8  52   8  53  14  54  14  55  14
M  ISO  4  56  14  57  14  58  14  59  14
M  END
>  <minimizedAffinity>  (1) 
-6.81684303

>  <minimizedRMSD>  (1) 
2.56178546

$$$$
