
     RDKit          3D

 50 55  0  0  0  0  0  0  0  0999 V2000
   44.4150   36.1980   44.8520 C   0  0  0  0  0  0  0  0  0  0  0  0
   45.0830   36.0580   43.6180 C   0  0  0  0  0  0  0  0  0  0  0  0
   45.8950   34.9430   43.4080 C   0  0  0  0  0  0  0  0  0  0  0  0
   46.0170   34.0150   44.4150 N   0  0  0  0  0  0  0  0  0  0  0  0
   45.3540   34.1870   45.5890 C   0  0  0  0  0  0  0  0  0  0  0  0
   44.5750   35.2530   45.7960 N   0  0  0  0  0  0  0  0  0  0  0  0
   46.6030   34.7410   42.1760 C   0  0  0  0  0  0  0  0  0  0  0  0
   47.8720   35.1970   41.9080 C   0  0  0  0  0  0  0  0  0  0  0  0
   48.4740   34.9500   40.6780 C   0  0  0  0  0  0  0  0  0  0  0  0
   47.8490   34.2470   39.6720 C   0  0  0  0  0  0  0  0  0  0  0  0
   46.5890   33.7980   39.9450 C   0  0  0  0  0  0  0  0  0  0  0  0
   46.0180   34.0450   41.1410 C   0  0  0  0  0  0  0  0  0  0  0  0
   45.7380   32.8840   38.6760 S   0  0  0  0  0  0  0  0  0  0  0  0
   46.8460   32.7950   37.2840 C   0  0  0  0  0  0  0  0  0  0  0  0
   46.3950   32.1270   36.1750 C   0  0  0  0  0  0  0  0  0  0  0  0
   47.2010   32.0200   35.0630 C   0  0  0  0  0  0  0  0  0  0  0  0
   48.4540   32.5930   35.0920 C   0  0  0  0  0  0  0  0  0  0  0  0
   48.8400   33.2470   36.2390 C   0  0  0  0  0  0  0  0  0  0  0  0
   48.0800   33.3870   37.3820 C   0  0  0  0  0  0  0  0  0  0  0  0
   48.6010   34.0880   38.4920 N   0  0  0  0  0  0  0  0  0  0  0  0
   45.5740   33.1110   46.5870 C   0  0  0  0  0  0  0  0  0  0  0  0
   46.7830   31.9600   45.9260 S   0  0  0  0  0  0  0  0  0  0  0  0
   47.7410   31.2280   47.2380 C   0  0  0  0  0  0  0  0  0  0  0  0
   48.0200   32.0050   48.3380 C   0  0  0  0  0  0  0  0  0  0  0  0
   48.7510   31.4490   49.3450 C   0  0  0  0  0  0  0  0  0  0  0  0
   49.2180   30.1330   49.2920 C   0  0  0  0  0  0  0  0  0  0  0  0
   49.9330   29.6350   50.3190 N   0  0  0  0  0  0  0  0  0  0  0  0
   50.3920   28.3720   50.2970 C   0  0  0  0  0  0  0  0  0  0  0  0
   50.1190   27.5840   49.2000 C   0  0  0  0  0  0  0  0  0  0  0  0
   49.3810   28.0970   48.1390 C   0  0  0  0  0  0  0  0  0  0  0  0
   48.9010   29.4100   48.1560 C   0  0  0  0  0  0  0  0  0  0  0  0
   48.1680   29.9300   47.1220 C   0  0  0  0  0  0  0  0  0  0  0  0
   43.7708   37.0695   45.0404 H   0  0  0  0  0  0  0  0  0  0  0  0
   44.9654   36.8178   42.8314 H   0  0  0  0  0  0  0  0  0  0  0  0
   48.4185   35.7644   42.6758 H   0  0  0  0  0  0  0  0  0  0  0  0
   49.4905   35.3318   40.5020 H   0  0  0  0  0  0  0  0  0  0  0  0
   45.0010   33.6589   41.3039 H   0  0  0  0  0  0  0  0  0  0  0  0
   45.3912   31.6772   36.1731 H   0  0  0  0  0  0  0  0  0  0  0  0
   46.8505   31.4863   34.1673 H   0  0  0  0  0  0  0  0  0  0  0  0
   49.1258   32.5293   34.2233 H   0  0  0  0  0  0  0  0  0  0  0  0
   49.8432   33.6982   36.2455 H   0  0  0  0  0  0  0  0  0  0  0  0
   49.5477   34.4900   38.4374 H   0  0  0  0  0  0  0  0  0  0  0  0
   45.9497   33.5459   47.5249 H   0  0  0  0  0  0  0  0  0  0  0  0
   44.6283   32.5880   46.7922 H   0  0  0  0  0  0  0  0  0  0  0  0
   47.6639   33.0437   48.4031 H   0  0  0  0  0  0  0  0  0  0  0  0
   48.9817   32.0581   50.2314 H   0  0  0  0  0  0  0  0  0  0  0  0
   50.9756   27.9741   51.1403 H   0  0  0  0  0  0  0  0  0  0  0  0
   50.4855   26.5475   49.1636 H   0  0  0  0  0  0  0  0  0  0  0  0
   49.1707   27.4572   47.2692 H   0  0  0  0  0  0  0  0  0  0  0  0
   47.9308   29.3288   46.2319 H   0  0  0  0  0  0  0  0  0  0  0  0
  1  6  2  0
  2  1  1  0
  3  2  2  0
  3  4  1  0
  4  5  2  0
  5  6  1  0
  5 21  1  0
  7  3  1  0
  8  7  2  0
  9  8  1  0
 10 11  1  0
 10  9  2  0
 11 12  2  0
 12  7  1  0
 13 11  1  0
 14 19  2  0
 14 13  1  0
 15 14  1  0
 16 17  1  0
 16 15  2  0
 17 18  2  0
 18 19  1  0
 19 20  1  0
 20 10  1  0
 22 21  1  0
 22 23  1  0
 23 24  2  0
 24 25  1  0
 26 25  2  0
 26 27  1  0
 28 27  2  0
 29 28  1  0
 30 31  1  0
 30 29  2  0
 31 26  1  0
 32 23  1  0
 32 31  2  0
  1 33  1  0
  2 34  1  0
  8 35  1  0
  9 36  1  0
 12 37  1  0
 15 38  1  0
 16 39  1  0
 17 40  1  0
 18 41  1  0
 20 42  1  0
 21 43  1  0
 21 44  1  0
 24 45  1  0
 25 46  1  0
 28 47  1  0
 29 48  1  0
 30 49  1  0
 32 50  1  0
M  END
>  <minimizedAffinity>  (1) 
-8.05762959

>  <minimizedRMSD>  (1) 
0.591743767

$$$$
