
     RDKit          3D

 51 56  0  0  0  0  0  0  0  0999 V2000
   43.5630   34.4430   40.9190 C   0  0  0  0  0  0  0  0  0  0  0  0
   43.4610   33.5420   39.9160 C   0  0  0  0  0  0  0  0  0  0  0  0
   44.6770   32.9990   39.4370 C   0  0  0  0  0  0  0  0  0  0  0  0
   45.8550   33.3910   39.9800 N   0  0  0  0  0  0  0  0  0  0  0  0
   45.9000   34.2920   40.9720 C   0  0  0  0  0  0  0  0  0  0  0  0
   44.7510   34.7700   41.3910 N   0  0  0  0  0  0  0  0  0  0  0  0
   42.4430   32.9140   39.0920 C   0  0  0  0  0  0  0  0  0  0  0  0
   41.5990   33.2760   38.0720 C   0  0  0  0  0  0  0  0  0  0  0  0
   40.7270   32.4020   37.4820 C   0  0  0  0  0  0  0  0  0  0  0  0
   40.6310   31.0840   37.8720 C   0  0  0  0  0  0  0  0  0  0  0  0
   41.4460   30.6580   38.8880 C   0  0  0  0  0  0  0  0  0  0  0  0
   42.2990   31.5530   39.4480 C   0  0  0  0  0  0  0  0  0  0  0  0
   41.3180   28.9620   39.3830 S   0  0  0  0  0  0  0  0  0  0  0  0
   40.0720   28.2080   38.3570 C   0  0  0  0  0  0  0  0  0  0  0  0
   39.8420   26.8980   38.6020 C   0  0  0  0  0  0  0  0  0  0  0  0
   38.8850   26.2320   37.8470 C   0  0  0  0  0  0  0  0  0  0  0  0
   38.2080   26.9320   36.8750 C   0  0  0  0  0  0  0  0  0  0  0  0
   38.5100   28.2660   36.6950 C   0  0  0  0  0  0  0  0  0  0  0  0
   39.4460   28.9830   37.4110 C   0  0  0  0  0  0  0  0  0  0  0  0
   39.6850   30.3510   37.1530 N   0  0  0  0  0  0  0  0  0  0  0  0
   44.7120   32.0000   38.4100 N   0  0  0  0  0  0  0  0  0  0  0  0
   41.9800   35.1000   41.4950 S   0  0  0  0  0  0  0  0  0  0  0  0
   39.6140   34.2840   40.5820 C   0  0  0  0  0  0  0  0  0  0  0  0
   40.7000   33.8790   41.3770 C   0  0  0  0  0  0  0  0  0  0  0  0
   40.7400   32.6290   41.9640 C   0  0  0  0  0  0  0  0  0  0  0  0
   39.7060   31.7390   41.7800 C   0  0  0  0  0  0  0  0  0  0  0  0
   38.6130   32.1200   40.9910 C   0  0  0  0  0  0  0  0  0  0  0  0
   38.5500   33.3720   40.3920 C   0  0  0  0  0  0  0  0  0  0  0  0
   37.7110   31.0380   40.9640 O   0  0  0  0  0  0  0  0  0  0  0  0
   38.1150   30.1490   41.9450 C   0  0  0  0  0  0  0  0  0  0  0  0
   39.4640   30.4490   42.2200 O   0  0  0  0  0  0  0  0  0  0  0  0
   47.0390   34.7610   41.5870 O   0  0  0  0  0  0  0  0  0  0  0  0
   48.2210   34.8220   40.8250 C   0  0  0  0  0  0  0  0  0  0  0  0
   49.0420   33.7420   41.0540 F   0  0  0  0  0  0  0  0  0  0  0  0
   47.8270   34.8840   39.4780 F   0  0  0  0  0  0  0  0  0  0  0  0
   48.9000   35.9750   41.1760 F   0  0  0  0  0  0  0  0  0  0  0  0
   41.6247   34.3153   37.7127 H   0  0  0  0  0  0  0  0  0  0  0  0
   40.0807   32.7639   36.6688 H   0  0  0  0  0  0  0  0  0  0  0  0
   42.9425   31.1828   40.2597 H   0  0  0  0  0  0  0  0  0  0  0  0
   40.4034   26.3688   39.3861 H   0  0  0  0  0  0  0  0  0  0  0  0
   38.6728   25.1670   38.0226 H   0  0  0  0  0  0  0  0  0  0  0  0
   37.4438   26.4394   36.2559 H   0  0  0  0  0  0  0  0  0  0  0  0
   37.9561   28.8049   35.9122 H   0  0  0  0  0  0  0  0  0  0  0  0
   39.1454   30.8217   36.4126 H   0  0  0  0  0  0  0  0  0  0  0  0
   45.6154   31.6267   38.0852 H   0  0  0  0  0  0  0  0  0  0  0  0
   43.8338   31.6553   37.9967 H   0  0  0  0  0  0  0  0  0  0  0  0
   39.5923   35.2823   40.1206 H   0  0  0  0  0  0  0  0  0  0  0  0
   41.6036   32.3431   42.5824 H   0  0  0  0  0  0  0  0  0  0  0  0
   37.6819   33.6509   39.7766 H   0  0  0  0  0  0  0  0  0  0  0  0
   37.5040   30.2778   42.8506 H   0  0  0  0  0  0  0  0  0  0  0  0
   37.9970   29.1069   41.6131 H   0  0  0  0  0  0  0  0  0  0  0  0
  1  6  2  0
  1 22  1  0
  2  1  1  0
  3  2  2  0
  3  4  1  0
  4  5  2  0
  5  6  1  0
  5 32  1  0
  7 12  1  0
  7  2  1  0
  8  7  2  0
  9 10  2  0
  9  8  1  0
 10 11  1  0
 11 13  1  0
 11 12  2  0
 14 15  2  0
 14 13  1  0
 16 15  1  0
 17 16  2  0
 18 17  1  0
 18 19  2  0
 19 14  1  0
 20 19  1  0
 20 10  1  0
 21  3  1  0
 23 24  2  0
 24 22  1  0
 24 25  1  0
 26 25  2  0
 26 31  1  0
 27 26  1  0
 28 23  1  0
 28 27  2  0
 29 27  1  0
 29 30  1  0
 30 31  1  0
 33 34  1  0
 33 36  1  0
 33 32  1  0
 35 33  1  0
  8 37  1  0
  9 38  1  0
 12 39  1  0
 15 40  1  0
 16 41  1  0
 17 42  1  0
 18 43  1  0
 20 44  1  0
 21 45  1  0
 21 46  1  0
 23 47  1  0
 25 48  1  0
 28 49  1  0
 30 50  1  0
 30 51  1  0
M  ISO  8  37  14  38  14  39  14  40  14  41  14  42  14  43  14  47  14
M  ISO  4  48  14  49  14  50  13  51  13
M  END
>  <minimizedAffinity>  (1) 
-6.05099726

>  <minimizedRMSD>  (1) 
0.878361404

$$$$
