
     RDKit          3D

 44 48  0  0  0  0  0  0  0  0999 V2000
   45.6020   32.1190   39.7530 Cl  0  0  0  0  0  0  0  0  0  0  0  0
   46.8130   33.2140   39.1950 C   0  0  0  0  0  0  0  0  0  0  0  0
   47.4590   34.0660   40.0510 C   0  0  0  0  0  0  0  0  0  0  0  0
   48.4380   34.9570   39.6280 C   0  0  0  0  0  0  0  0  0  0  0  0
   48.7310   34.9380   38.2820 C   0  0  0  0  0  0  0  0  0  0  0  0
   48.0880   34.0870   37.4100 C   0  0  0  0  0  0  0  0  0  0  0  0
   47.1320   33.2240   37.8550 C   0  0  0  0  0  0  0  0  0  0  0  0
   46.5140   32.3660   36.8510 C   0  0  0  0  0  0  0  0  0  0  0  0
   45.1800   32.0540   37.0130 C   0  0  0  0  0  0  0  0  0  0  0  0
   44.5860   31.2450   36.0740 C   0  0  0  0  0  0  0  0  0  0  0  0
   45.2050   30.7070   34.9660 C   0  0  0  0  0  0  0  0  0  0  0  0
   46.5290   31.0530   34.8590 C   0  0  0  0  0  0  0  0  0  0  0  0
   47.1730   31.8480   35.7550 C   0  0  0  0  0  0  0  0  0  0  0  0
   47.4620   30.4340   33.4770 S   0  0  0  0  0  0  0  0  0  0  0  0
   46.3450   29.4420   32.5100 C   0  0  0  0  0  0  0  0  0  0  0  0
   46.7550   28.8260   31.3830 C   0  0  0  0  0  0  0  0  0  0  0  0
   45.9430   28.0390   30.5800 C   0  0  0  0  0  0  0  0  0  0  0  0
   44.6270   27.9080   31.0090 C   0  0  0  0  0  0  0  0  0  0  0  0
   44.2310   28.5450   32.1600 C   0  0  0  0  0  0  0  0  0  0  0  0
   45.0660   29.3200   32.9340 C   0  0  0  0  0  0  0  0  0  0  0  0
   44.4640   29.8880   34.0800 N   0  0  0  0  0  0  0  0  0  0  0  0
   47.3270   33.0910   43.6140 C   0  0  0  0  0  0  0  0  0  0  0  0
   46.3980   34.0050   44.1440 C   0  0  0  0  0  0  0  0  0  0  0  0
   45.8360   34.9330   43.2790 C   0  0  0  0  0  0  0  0  0  0  0  0
   46.2010   34.9250   41.9660 N   0  0  0  0  0  0  0  0  0  0  0  0
   47.1010   34.0340   41.4730 C   0  0  0  0  0  0  0  0  0  0  0  0
   47.6590   33.1200   42.3050 N   0  0  0  0  0  0  0  0  0  0  0  0
   44.8350   35.9570   43.7270 C   0  0  0  0  0  0  0  0  0  0  0  0
   45.1970   37.2070   43.3260 F   0  0  0  0  0  0  0  0  0  0  0  0
   43.6030   35.6460   43.1540 F   0  0  0  0  0  0  0  0  0  0  0  0
   44.7460   35.8600   45.0860 F   0  0  0  0  0  0  0  0  0  0  0  0
   48.9484   35.6368   40.3261 H   0  0  0  0  0  0  0  0  0  0  0  0
   49.4999   35.6215   37.8926 H   0  0  0  0  0  0  0  0  0  0  0  0
   48.3495   34.1044   36.3417 H   0  0  0  0  0  0  0  0  0  0  0  0
   44.6082   32.4415   37.8691 H   0  0  0  0  0  0  0  0  0  0  0  0
   43.5223   31.0056   36.2195 H   0  0  0  0  0  0  0  0  0  0  0  0
   48.2371   32.0820   35.6034 H   0  0  0  0  0  0  0  0  0  0  0  0
   47.8044   28.9564   31.0799 H   0  0  0  0  0  0  0  0  0  0  0  0
   46.3146   27.5519   29.6664 H   0  0  0  0  0  0  0  0  0  0  0  0
   43.9117   27.3018   30.4339 H   0  0  0  0  0  0  0  0  0  0  0  0
   43.1857   28.4293   32.4823 H   0  0  0  0  0  0  0  0  0  0  0  0
   43.4695   29.7029   34.2738 H   0  0  0  0  0  0  0  0  0  0  0  0
   47.7892   32.3426   44.2745 H   0  0  0  0  0  0  0  0  0  0  0  0
   46.1260   33.9846   45.2096 H   0  0  0  0  0  0  0  0  0  0  0  0
  2  1  1  0
  2  3  2  0
  3 26  1  0
  4  3  1  0
  5  4  2  0
  6  7  2  0
  6  5  1  0
  7  2  1  0
  8  9  2  0
  8  7  1  0
 10  9  1  0
 11 10  2  0
 12 11  1  0
 12 13  2  0
 13  8  1  0
 14 12  1  0
 15 20  2  0
 15 14  1  0
 16 15  1  0
 17 18  1  0
 17 16  2  0
 18 19  2  0
 19 20  1  0
 20 21  1  0
 21 11  1  0
 22 23  2  0
 24 28  1  0
 24 23  1  0
 25 24  2  0
 26 25  1  0
 26 27  2  0
 27 22  1  0
 28 31  1  0
 29 28  1  0
 30 28  1  0
  4 32  1  0
  5 33  1  0
  6 34  1  0
  9 35  1  0
 10 36  1  0
 13 37  1  0
 16 38  1  0
 17 39  1  0
 18 40  1  0
 19 41  1  0
 21 42  1  0
 22 43  1  0
 23 44  1  0
M  ISO  8  32  14  33  14  34  14  35  14  36  14  37  14  38  14  39  14
M  ISO  4  40  14  41  14  43  14  44  14
M  END
>  <minimizedAffinity>  (1) 
-7.07289028

>  <minimizedRMSD>  (1) 
1.19103575

$$$$
