
     RDKit          3D

 36 38  0  0  0  0  0  0  0  0999 V2000
   47.5670   33.9960   42.8910 C   0  0  0  0  0  0  0  0  0  0  0  0
   48.3610   33.1130   42.1430 C   0  0  0  0  0  0  0  0  0  0  0  0
   48.5790   31.8490   42.6920 C   0  0  0  0  0  0  0  0  0  0  0  0
   48.0220   31.5490   43.9000 N   0  0  0  0  0  0  0  0  0  0  0  0
   47.2750   32.4110   44.5810 C   0  0  0  0  0  0  0  0  0  0  0  0
   47.0440   33.6470   44.0740 N   0  0  0  0  0  0  0  0  0  0  0  0
   45.3230   30.0710   44.5050 Cl  0  0  0  0  0  0  0  0  0  0  0  0
   45.7960   30.9790   45.9280 C   0  0  0  0  0  0  0  0  0  0  0  0
   46.7020   32.0390   45.8740 C   0  0  0  0  0  0  0  0  0  0  0  0
   47.0650   32.7450   47.0040 C   0  0  0  0  0  0  0  0  0  0  0  0
   46.5030   32.3750   48.2280 C   0  0  0  0  0  0  0  0  0  0  0  0
   45.6100   31.3210   48.2470 C   0  0  0  0  0  0  0  0  0  0  0  0
   44.9450   30.9150   49.8080 Cl  0  0  0  0  0  0  0  0  0  0  0  0
   45.2400   30.6140   47.1390 C   0  0  0  0  0  0  0  0  0  0  0  0
   48.8990   33.5150   40.8810 C   0  0  0  0  0  0  0  0  0  0  0  0
   47.9370   34.4080   40.1580 C   0  0  0  0  0  0  0  0  0  0  0  0
   48.9170   34.1920   37.2000 Cl  0  0  0  0  0  0  0  0  0  0  0  0
   47.3210   33.6530   37.7470 C   0  0  0  0  0  0  0  0  0  0  0  0
   47.1400   33.7900   39.1030 C   0  0  0  0  0  0  0  0  0  0  0  0
   45.9160   33.3180   39.5900 C   0  0  0  0  0  0  0  0  0  0  0  0
   44.9410   32.7550   38.7950 C   0  0  0  0  0  0  0  0  0  0  0  0
   45.1660   32.6400   37.4290 C   0  0  0  0  0  0  0  0  0  0  0  0
   46.3680   33.0980   36.9330 C   0  0  0  0  0  0  0  0  0  0  0  0
   47.3685   35.0028   42.4949 H   0  0  0  0  0  0  0  0  0  0  0  0
   49.1905   31.1062   42.1588 H   0  0  0  0  0  0  0  0  0  0  0  0
   47.7797   33.5789   46.9416 H   0  0  0  0  0  0  0  0  0  0  0  0
   46.7647   32.9092   49.1533 H   0  0  0  0  0  0  0  0  0  0  0  0
   44.5236   29.7821   47.2082 H   0  0  0  0  0  0  0  0  0  0  0  0
   49.8416   34.0574   41.0461 H   0  0  0  0  0  0  0  0  0  0  0  0
   49.0782   32.6181   40.2699 H   0  0  0  0  0  0  0  0  0  0  0  0
   47.2415   34.8222   40.9028 H   0  0  0  0  0  0  0  0  0  0  0  0
   48.5619   35.1568   39.6493 H   0  0  0  0  0  0  0  0  0  0  0  0
   45.7208   33.4011   40.6693 H   0  0  0  0  0  0  0  0  0  0  0  0
   43.9974   32.4015   39.2362 H   0  0  0  0  0  0  0  0  0  0  0  0
   44.4093   32.1977   36.7644 H   0  0  0  0  0  0  0  0  0  0  0  0
   46.5678   33.0158   35.8544 H   0  0  0  0  0  0  0  0  0  0  0  0
  1  6  2  0
  2  3  2  0
  2  1  1  0
  3  4  1  0
  4  5  2  0
  5  9  1  0
  6  5  1  0
  7  8  1  0
  8 14  2  0
  9  8  1  0
  9 10  2  0
 10 11  1  0
 11 12  2  0
 12 13  1  0
 14 12  1  0
 15  2  1  0
 16 15  1  0
 17 18  1  0
 18 19  2  0
 19 20  1  0
 19 16  1  0
 21 20  2  0
 22 21  1  0
 23 22  2  0
 23 18  1  0
  1 24  1  0
  3 25  1  0
 10 26  1  0
 11 27  1  0
 14 28  1  0
 15 29  1  0
 15 30  1  0
 16 31  1  0
 16 32  1  0
 20 33  1  0
 21 34  1  0
 22 35  1  0
 23 36  1  0
M  ISO  8  24  14  25  14  26  14  27  14  28  14  29   8  30   8  31   8
M  ISO  5  32   8  33  14  34  14  35  14  36  14
M  END
>  <minimizedAffinity>  (1) 
-4.93116522

>  <minimizedRMSD>  (1) 
2.04694629

$$$$
