
     RDKit          3D

 35 37  0  0  0  0  0  0  0  0999 V2000
   46.6520   34.7700   41.9520 C   0  0  0  0  0  0  0  0  0  0  0  0
   47.9190   35.3360   41.8870 C   0  0  0  0  0  0  0  0  0  0  0  0
   48.6490   35.1650   40.7150 C   0  0  0  0  0  0  0  0  0  0  0  0
   48.1270   34.4660   39.6760 C   0  0  0  0  0  0  0  0  0  0  0  0
   46.8770   33.8980   39.7170 C   0  0  0  0  0  0  0  0  0  0  0  0
   46.1440   34.0730   40.9010 C   0  0  0  0  0  0  0  0  0  0  0  0
   44.5350   36.1620   44.7510 C   0  0  0  0  0  0  0  0  0  0  0  0
   45.1840   36.0910   43.4890 C   0  0  0  0  0  0  0  0  0  0  0  0
   45.9300   34.9760   43.2110 C   0  0  0  0  0  0  0  0  0  0  0  0
   46.0100   33.9950   44.1590 N   0  0  0  0  0  0  0  0  0  0  0  0
   45.3890   34.0750   45.3530 C   0  0  0  0  0  0  0  0  0  0  0  0
   44.6440   35.1730   45.6480 N   0  0  0  0  0  0  0  0  0  0  0  0
   43.5430   34.0370   40.9790 C   0  0  0  0  0  0  0  0  0  0  0  0
   43.2230   35.1780   40.6910 O   0  0  0  0  0  0  0  0  0  0  0  0
   44.8530   33.5420   41.0970 N   0  0  0  0  0  0  0  0  0  0  0  0
   42.4900   33.1480   41.2130 O   0  0  0  0  0  0  0  0  0  0  0  0
   40.2290   31.5720   42.4520 Cl  0  0  0  0  0  0  0  0  0  0  0  0
   40.0890   32.8260   41.2420 C   0  0  0  0  0  0  0  0  0  0  0  0
   41.2120   33.4620   40.7660 C   0  0  0  0  0  0  0  0  0  0  0  0
   41.0890   34.4610   39.8000 C   0  0  0  0  0  0  0  0  0  0  0  0
   39.8450   34.8170   39.3180 C   0  0  0  0  0  0  0  0  0  0  0  0
   38.7000   34.1790   39.7940 C   0  0  0  0  0  0  0  0  0  0  0  0
   38.8490   33.1830   40.7580 C   0  0  0  0  0  0  0  0  0  0  0  0
   48.3320   35.9015   42.7353 H   0  0  0  0  0  0  0  0  0  0  0  0
   49.6560   35.5994   40.6302 H   0  0  0  0  0  0  0  0  0  0  0  0
   48.7296   34.3493   38.7632 H   0  0  0  0  0  0  0  0  0  0  0  0
   46.4707   33.3341   38.8644 H   0  0  0  0  0  0  0  0  0  0  0  0
   43.9304   37.0475   44.9966 H   0  0  0  0  0  0  0  0  0  0  0  0
   45.0903   36.9068   42.7571 H   0  0  0  0  0  0  0  0  0  0  0  0
   45.4845   33.2578   46.0831 H   0  0  0  0  0  0  0  0  0  0  0  0
   44.8750   32.5573   41.3983 H   0  0  0  0  0  0  0  0  0  0  0  0
   41.9882   34.9680   39.4201 H   0  0  0  0  0  0  0  0  0  0  0  0
   39.7569   35.6059   38.5565 H   0  0  0  0  0  0  0  0  0  0  0  0
   37.7037   34.4548   39.4181 H   0  0  0  0  0  0  0  0  0  0  0  0
   37.9550   32.6695   41.1417 H   0  0  0  0  0  0  0  0  0  0  0  0
  1  9  1  0
  2  1  2  0
  3  2  1  0
  4  5  1  0
  4  3  2  0
  5  6  2  0
  6 15  1  0
  6  1  1  0
  7 12  2  0
  8  7  1  0
  9  8  2  0
  9 10  1  0
 10 11  2  0
 11 12  1  0
 13 15  1  0
 13 16  1  0
 14 13  2  0
 18 17  1  0
 19 16  1  0
 19 18  2  0
 20 19  1  0
 21 22  1  0
 21 20  2  0
 22 23  2  0
 23 18  1  0
  2 24  1  0
  3 25  1  0
  4 26  1  0
  5 27  1  0
  7 28  1  0
  8 29  1  0
 11 30  1  0
 15 31  1  0
 20 32  1  0
 21 33  1  0
 22 34  1  0
 23 35  1  0
M  ISO  8  24  14  25  14  26  14  27  14  28  14  29  14  30  14  32  14
M  ISO  3  33  14  34  14  35  14
M  END
>  <minimizedAffinity>  (1) 
-7.09860373

>  <minimizedRMSD>  (1) 
0.256024212

$$$$
