
     RDKit          3D

 21 22  0  0  0  0  0  0  0  0999 V2000
   45.9210   35.3000   42.7730 S   0  0  0  0  0  0  0  0  0  0  0  0
   45.3190   34.3270   45.3100 C   0  0  0  0  0  0  0  0  0  0  0  0
   46.1170   34.1800   44.1730 C   0  0  0  0  0  0  0  0  0  0  0  0
   47.0580   33.1620   44.1410 C   0  0  0  0  0  0  0  0  0  0  0  0
   47.1500   32.3520   45.2410 N   0  0  0  0  0  0  0  0  0  0  0  0
   46.3720   32.5170   46.3140 C   0  0  0  0  0  0  0  0  0  0  0  0
   45.4490   33.5010   46.3680 N   0  0  0  0  0  0  0  0  0  0  0  0
   48.7720   35.7330   41.6570 Cl  0  0  0  0  0  0  0  0  0  0  0  0
   47.6070   34.7380   40.7980 C   0  0  0  0  0  0  0  0  0  0  0  0
   46.3040   34.5020   41.2480 C   0  0  0  0  0  0  0  0  0  0  0  0
   45.4800   33.6980   40.4790 C   0  0  0  0  0  0  0  0  0  0  0  0
   45.9150   33.1400   39.3060 C   0  0  0  0  0  0  0  0  0  0  0  0
   47.2050   33.3740   38.8610 C   0  0  0  0  0  0  0  0  0  0  0  0
   48.0720   34.1800   39.6040 C   0  0  0  0  0  0  0  0  0  0  0  0
   44.5701   35.1320   45.3430 H   0  0  0  0  0  0  0  0  0  0  0  0
   47.7060   33.0109   43.2651 H   0  0  0  0  0  0  0  0  0  0  0  0
   46.4855   31.8373   47.1714 H   0  0  0  0  0  0  0  0  0  0  0  0
   44.4519   33.5027   40.8179 H   0  0  0  0  0  0  0  0  0  0  0  0
   45.2379   32.5046   38.7163 H   0  0  0  0  0  0  0  0  0  0  0  0
   47.5491   32.9235   37.9183 H   0  0  0  0  0  0  0  0  0  0  0  0
   49.0981   34.3710   39.2566 H   0  0  0  0  0  0  0  0  0  0  0  0
  1  3  1  0
  2  7  2  0
  3  2  1  0
  4  3  2  0
  4  5  1  0
  5  6  2  0
  6  7  1  0
  9 10  2  0
  9  8  1  0
 10  1  1  0
 11 10  1  0
 12 11  2  0
 13 12  1  0
 13 14  2  0
 14  9  1  0
  2 15  1  0
  4 16  1  0
  6 17  1  0
 11 18  1  0
 12 19  1  0
 13 20  1  0
 14 21  1  0
M  ISO  7  15  14  16  14  17  14  18  14  19  14  20  14  21  14
M  END
>  <minimizedAffinity>  (1) 
-4.24156332

>  <minimizedRMSD>  (1) 
2.3544383

$$$$
