
     RDKit          3D

 40 42  0  0  0  0  0  0  0  0999 V2000
   47.9020   30.0570   44.7630 F   0  0  0  0  0  0  0  0  0  0  0  0
   47.6890   30.7170   45.9610 C   0  0  0  0  0  0  0  0  0  0  0  0
   47.0170   31.9060   45.9630 C   0  0  0  0  0  0  0  0  0  0  0  0
   46.8490   32.4950   47.2050 C   0  0  0  0  0  0  0  0  0  0  0  0
   47.3310   31.9140   48.3500 C   0  0  0  0  0  0  0  0  0  0  0  0
   48.0020   30.7140   48.2850 C   0  0  0  0  0  0  0  0  0  0  0  0
   48.1980   30.0770   47.0600 C   0  0  0  0  0  0  0  0  0  0  0  0
   46.8190   34.1210   43.0660 C   0  0  0  0  0  0  0  0  0  0  0  0
   45.6420   33.7190   42.4240 C   0  0  0  0  0  0  0  0  0  0  0  0
   44.9110   32.6680   43.0070 C   0  0  0  0  0  0  0  0  0  0  0  0
   45.3630   32.0950   44.1420 N   0  0  0  0  0  0  0  0  0  0  0  0
   46.5080   32.5120   44.7320 C   0  0  0  0  0  0  0  0  0  0  0  0
   47.2220   33.5200   44.1880 N   0  0  0  0  0  0  0  0  0  0  0  0
   45.2140   34.3940   41.1880 C   0  0  0  0  0  0  0  0  0  0  0  0
   44.9120   35.7260   41.4610 F   0  0  0  0  0  0  0  0  0  0  0  0
   46.2960   34.4040   40.3030 F   0  0  0  0  0  0  0  0  0  0  0  0
   44.1570   33.8410   40.5600 F   0  0  0  0  0  0  0  0  0  0  0  0
   47.5140   35.1290   42.5020 O   0  0  0  0  0  0  0  0  0  0  0  0
   48.8180   35.0570   41.9680 C   0  0  0  0  0  0  0  0  0  0  0  0
   49.7110   35.2840   43.0160 F   0  0  0  0  0  0  0  0  0  0  0  0
   49.0100   33.8400   41.3550 F   0  0  0  0  0  0  0  0  0  0  0  0
   49.0280   36.1080   41.0920 F   0  0  0  0  0  0  0  0  0  0  0  0
   48.9240   28.7670   46.9480 C   0  0  0  0  0  0  0  0  0  0  0  0
   48.7250   26.3620   48.8390 Cl  0  0  0  0  0  0  0  0  0  0  0  0
   49.9610   27.6010   48.9390 C   0  0  0  0  0  0  0  0  0  0  0  0
   49.9150   28.6220   48.0120 C   0  0  0  0  0  0  0  0  0  0  0  0
   50.9050   29.6090   48.0960 C   0  0  0  0  0  0  0  0  0  0  0  0
   51.9010   29.5850   49.0590 C   0  0  0  0  0  0  0  0  0  0  0  0
   51.9200   28.5510   49.9710 C   0  0  0  0  0  0  0  0  0  0  0  0
   50.9520   27.5440   49.9260 C   0  0  0  0  0  0  0  0  0  0  0  0
   46.3149   33.4541   47.2750 H   0  0  0  0  0  0  0  0  0  0  0  0
   47.1812   32.4076   49.3215 H   0  0  0  0  0  0  0  0  0  0  0  0
   48.3868   30.2536   49.2069 H   0  0  0  0  0  0  0  0  0  0  0  0
   43.9785   32.3161   42.5415 H   0  0  0  0  0  0  0  0  0  0  0  0
   48.1961   27.9455   47.0207 H   0  0  0  0  0  0  0  0  0  0  0  0
   49.4446   28.7378   45.9794 H   0  0  0  0  0  0  0  0  0  0  0  0
   50.8914   30.4350   47.3696 H   0  0  0  0  0  0  0  0  0  0  0  0
   52.6634   30.3771   49.0953 H   0  0  0  0  0  0  0  0  0  0  0  0
   52.7046   28.5184   50.7413 H   0  0  0  0  0  0  0  0  0  0  0  0
   50.9686   26.7199   50.6544 H   0  0  0  0  0  0  0  0  0  0  0  0
  1  2  1  0
  2  3  2  0
  2  7  1  0
  3  4  1  0
  4  5  2  0
  6  5  1  0
  7  6  2  0
  8 13  2  0
  9 10  2  0
  9  8  1  0
 10 11  1  0
 11 12  2  0
 12  3  1  0
 13 12  1  0
 14 15  1  0
 14  9  1  0
 16 14  1  0
 17 14  1  0
 18  8  1  0
 19 18  1  0
 19 20  1  0
 21 19  1  0
 22 19  1  0
 23  7  1  0
 23 26  1  0
 24 25  1  0
 25 30  2  0
 26 27  2  0
 26 25  1  0
 27 28  1  0
 28 29  2  0
 30 29  1  0
  4 31  1  0
  5 32  1  0
  6 33  1  0
 10 34  1  0
 23 35  1  0
 23 36  1  0
 27 37  1  0
 28 38  1  0
 29 39  1  0
 30 40  1  0
M  ISO  8  31  14  32  14  33  14  34  14  35   8  36   8  37  14  38  14
M  ISO  2  39  14  40  14
M  END
>  <minimizedAffinity>  (1) 
-5.8029542

>  <minimizedRMSD>  (1) 
0.797428966

$$$$
