
     RDKit          3D

 49 52  0  0  0  0  0  0  0  0999 V2000
   45.0310   35.4920   43.3940 C   0  0  0  0  0  0  0  0  0  0  0  0
   45.4760   34.1780   43.4270 C   0  0  0  0  0  0  0  0  0  0  0  0
   45.4750   33.4800   44.6040 C   0  0  0  0  0  0  0  0  0  0  0  0
   45.0140   34.1470   45.7210 N   0  0  0  0  0  0  0  0  0  0  0  0
   44.5930   35.3950   45.6870 C   0  0  0  0  0  0  0  0  0  0  0  0
   44.6050   36.0650   44.5160 N   0  0  0  0  0  0  0  0  0  0  0  0
   45.8990   32.1380   44.8080 C   0  0  0  0  0  0  0  0  0  0  0  0
   45.6150   31.1020   43.9210 C   0  0  0  0  0  0  0  0  0  0  0  0
   45.9580   29.7970   44.1310 C   0  0  0  0  0  0  0  0  0  0  0  0
   46.6310   29.4480   45.2900 C   0  0  0  0  0  0  0  0  0  0  0  0
   46.9330   30.4940   46.2120 C   0  0  0  0  0  0  0  0  0  0  0  0
   47.5930   30.1590   47.3600 C   0  0  0  0  0  0  0  0  0  0  0  0
   47.9120   31.1240   48.2910 C   0  0  0  0  0  0  0  0  0  0  0  0
   47.5470   32.4650   48.0350 C   0  0  0  0  0  0  0  0  0  0  0  0
   46.8690   32.7520   46.8360 C   0  0  0  0  0  0  0  0  0  0  0  0
   46.5660   31.7740   45.9440 C   0  0  0  0  0  0  0  0  0  0  0  0
   45.8980   33.6420   42.2450 O   0  0  0  0  0  0  0  0  0  0  0  0
   48.2360   32.5530   41.7210 O   0  0  0  0  0  0  0  0  0  0  0  0
   47.4350   33.8080   41.6010 P   0  0  1  0  0  0  0  0  0  0  0  0
   47.3710   34.2070   39.9690 O   0  0  0  0  0  0  0  0  0  0  0  0
   46.3740   33.4420   39.3960 C   0  0  0  0  0  0  0  0  0  0  0  0
   44.7340   31.6370   37.4200 Cl  0  0  0  0  0  0  0  0  0  0  0  0
   46.3020   32.2830   36.9690 C   0  0  0  0  0  0  0  0  0  0  0  0
   46.6900   33.0960   38.0140 C   0  0  0  0  0  0  0  0  0  0  0  0
   47.9230   33.7530   37.7580 C   0  0  0  0  0  0  0  0  0  0  0  0
   48.6860   33.6200   36.6050 C   0  0  0  0  0  0  0  0  0  0  0  0
   48.1940   32.7640   35.6170 C   0  0  0  0  0  0  0  0  0  0  0  0
   47.0150   32.1100   35.8070 C   0  0  0  0  0  0  0  0  0  0  0  0
   48.2210   35.0540   42.4360 O   0  0  0  0  0  0  0  0  0  0  0  0
   49.5040   35.5120   42.2240 C   0  0  0  0  0  0  0  0  0  0  0  0
   49.3910   36.5070   41.5220 O   0  0  0  0  0  0  0  0  0  0  0  0
   50.4900   34.6850   42.8890 N   0  0  0  0  0  0  0  0  0  0  0  0
   45.0306   36.0544   42.4486 H   0  0  0  0  0  0  0  0  0  0  0  0
   44.2353   35.8858   46.6042 H   0  0  0  0  0  0  0  0  0  0  0  0
   45.0805   31.3510   42.9924 H   0  0  0  0  0  0  0  0  0  0  0  0
   45.7019   29.0294   43.3859 H   0  0  0  0  0  0  0  0  0  0  0  0
   46.9210   28.4062   45.4916 H   0  0  0  0  0  0  0  0  0  0  0  0
   47.8721   29.1108   47.5429 H   0  0  0  0  0  0  0  0  0  0  0  0
   48.4414   30.8551   49.2170 H   0  0  0  0  0  0  0  0  0  0  0  0
   47.7864   33.2627   48.7535 H   0  0  0  0  0  0  0  0  0  0  0  0
   46.5784   33.7900   46.6167 H   0  0  0  0  0  0  0  0  0  0  0  0
   46.2556   32.5160   39.9778 H   0  0  0  0  0  0  0  0  0  0  0  0
   45.4442   34.0297   39.3997 H   0  0  0  0  0  0  0  0  0  0  0  0
   48.3066   34.4248   38.5400 H   0  0  0  0  0  0  0  0  0  0  0  0
   49.6336   34.1635   36.4760 H   0  0  0  0  0  0  0  0  0  0  0  0
   48.7594   32.6181   34.6848 H   0  0  0  0  0  0  0  0  0  0  0  0
   46.6306   31.4386   35.0251 H   0  0  0  0  0  0  0  0  0  0  0  0
   51.4911   34.9152   42.8129 H   0  0  0  0  0  0  0  0  0  0  0  0
   50.1900   33.8667   43.4380 H   0  0  0  0  0  0  0  0  0  0  0  0
  1  2  2  0
  1  6  1  0
  2  3  1  0
  3  7  1  0
  3  4  2  0
  5  4  1  0
  6  5  2  0
  7 16  2  0
  8  9  2  0
  8  7  1  0
  9 10  1  0
 10 11  2  0
 11 12  1  0
 12 13  2  0
 14 13  1  0
 15 14  2  0
 16 11  1  0
 16 15  1  0
 17  2  1  0
 19 18  2  0
 19 17  1  0
 19 29  1  0
 20 19  1  0
 21 20  1  0
 23 22  1  0
 23 24  2  0
 24 21  1  0
 25 24  1  0
 26 25  2  0
 27 28  2  0
 27 26  1  0
 28 23  1  0
 30 29  1  0
 30 32  1  0
 31 30  2  0
  1 33  1  0
  5 34  1  0
  8 35  1  0
  9 36  1  0
 10 37  1  0
 12 38  1  0
 13 39  1  0
 14 40  1  0
 15 41  1  0
 21 42  1  0
 21 43  1  0
 25 44  1  0
 26 45  1  0
 27 46  1  0
 28 47  1  0
 32 48  1  0
 32 49  1  0
M  ISO  8  33  14  34  14  35  14  36  14  37  14  38  14  39  14  40  14
M  ISO  7  41  14  42   8  43   8  44  14  45  14  46  14  47  14
M  END
>  <minimizedAffinity>  (1) 
-6.44514704

>  <minimizedRMSD>  (1) 
1.6497854

$$$$
