
     RDKit          3D

 44 47  0  0  1  0  0  0  0  0999 V2000
   49.6770   33.6220   41.4740 N   0  0  0  0  0  0  0  0  0  0  0  0
   50.7640   33.1830   42.3000 C   0  0  0  0  0  0  0  0  0  0  0  0
   51.3540   31.8750   41.8620 C   0  0  0  0  0  0  0  0  0  0  0  0
   50.3300   30.7940   42.0960 C   0  0  0  0  0  0  0  0  0  0  0  0
   48.9490   31.2850   41.7690 C   0  0  0  0  0  0  0  0  0  0  0  0
   49.0380   32.5050   40.8330 C   0  0  2  0  0  0  0  0  0  0  0  0
   47.3880   34.7190   41.9610 C   0  0  1  0  0  0  0  0  0  0  0  0
   48.4250   35.7510   41.7150 C   0  0  0  0  0  0  0  0  0  0  0  0
   48.8160   34.4290   42.2550 C   0  0  2  0  0  0  0  0  0  0  0  0
   45.5810   36.0370   43.1180 C   0  0  0  0  0  0  0  0  0  0  0  0
   46.4340   34.9210   43.0610 C   0  0  0  0  0  0  0  0  0  0  0  0
   46.3410   33.9780   44.1100 C   0  0  0  0  0  0  0  0  0  0  0  0
   45.4410   34.2040   45.1030 N   0  0  0  0  0  0  0  0  0  0  0  0
   44.6370   35.2850   45.1270 C   0  0  0  0  0  0  0  0  0  0  0  0
   44.6970   36.2230   44.1280 N   0  0  0  0  0  0  0  0  0  0  0  0
   49.5860   32.1000   39.6100 N   0  0  0  0  0  0  0  0  0  0  0  0
   47.8600   31.8510   37.0540 Cl  0  0  0  0  0  0  0  0  0  0  0  0
   49.5690   31.4920   37.1320 C   0  0  0  0  0  0  0  0  0  0  0  0
   50.1280   31.6990   38.4020 C   0  0  0  0  0  0  0  0  0  0  0  0
   51.4990   31.4200   38.4990 C   0  0  0  0  0  0  0  0  0  0  0  0
   52.2750   30.9760   37.4530 C   0  0  0  0  0  0  0  0  0  0  0  0
   51.5910   30.8200   36.2740 C   0  0  0  0  0  0  0  0  0  0  0  0
   50.2630   31.0540   36.0420 C   0  0  0  0  0  0  0  0  0  0  0  0
   51.5537   33.9483   42.2730 H   0  0  0  0  0  0  0  0  0  0  0  0
   50.3629   33.0354   43.3136 H   0  0  0  0  0  0  0  0  0  0  0  0
   52.2610   31.6614   42.4465 H   0  0  0  0  0  0  0  0  0  0  0  0
   51.6241   31.9180   40.7965 H   0  0  0  0  0  0  0  0  0  0  0  0
   50.5658   29.9300   41.4573 H   0  0  0  0  0  0  0  0  0  0  0  0
   50.3588   30.5061   43.1573 H   0  0  0  0  0  0  0  0  0  0  0  0
   48.3845   30.4829   41.2711 H   0  0  0  0  0  0  0  0  0  0  0  0
   48.4372   31.5762   42.6981 H   0  0  0  0  0  0  0  0  0  0  0  0
   48.0366   32.8968   40.6014 H   0  0  0  0  0  0  0  0  0  0  0  0
   46.6091   34.2273   41.3597 H   0  0  0  0  0  0  0  0  0  0  0  0
   48.6940   36.0248   40.6841 H   0  0  0  0  0  0  0  0  0  0  0  0
   48.5732   36.7940   42.0316 H   0  0  0  0  0  0  0  0  0  0  0  0
   49.3091   34.0147   43.1467 H   0  0  0  0  0  0  0  0  0  0  0  0
   45.6330   36.7859   42.3140 H   0  0  0  0  0  0  0  0  0  0  0  0
   46.9811   33.0835   44.1223 H   0  0  0  0  0  0  0  0  0  0  0  0
   43.9257   35.4165   45.9557 H   0  0  0  0  0  0  0  0  0  0  0  0
   49.1027   32.8762   39.1359 H   0  0  0  0  0  0  0  0  0  0  0  0
   51.9856   31.5656   39.4747 H   0  0  0  0  0  0  0  0  0  0  0  0
   53.3498   30.7646   37.5533 H   0  0  0  0  0  0  0  0  0  0  0  0
   52.1790   30.4653   35.4147 H   0  0  0  0  0  0  0  0  0  0  0  0
   49.7940   30.9017   35.0587 H   0  0  0  0  0  0  0  0  0  0  0  0
  1  9  1  0
  1  2  1  0
  3  4  1  0
  3  2  1  0
  5  4  1  0
  6  1  1  0
  6  5  1  0
  7  9  1  0
  7 11  1  0
  8  7  1  0
  8  9  1  0
 10 15  2  0
 11 10  1  0
 11 12  2  0
 12 13  1  0
 13 14  2  0
 15 14  1  0
 16  6  1  0
 17 18  1  0
 18 19  2  0
 19 20  1  0
 19 16  1  0
 21 20  2  0
 22 21  1  0
 23 22  2  0
 23 18  1  0
  2 24  1  0
  2 25  1  0
  3 26  1  0
  3 27  1  0
  4 28  1  0
  4 29  1  0
  5 30  1  0
  5 31  1  0
  6 32  1  6
  7 33  1  6
  8 34  1  0
  8 35  1  0
  9 36  1  1
 10 37  1  0
 12 38  1  0
 14 39  1  0
 16 40  1  0
 20 41  1  0
 21 42  1  0
 22 43  1  0
 23 44  1  0
M  ISO  8  24  13  25  13  26  13  27  13  28  13  29  13  30  13  31  13
M  ISO  8  32  13  33  13  34  13  35  13  36  13  37  14  38  14  39  14
M  ISO  4  41  14  42  14  43  14  44  14
M  END
>  <minimizedAffinity>  (1) 
-5.22414541

>  <minimizedRMSD>  (1) 
1.40443206

$$$$
