
     RDKit          3D

 47 49  0  0  0  0  0  0  0  0999 V2000
   42.2200   31.9110   42.4870 N   0  0  0  0  0  0  0  0  0  0  0  0
   43.1210   32.5380   41.5780 C   0  0  0  0  0  0  0  0  0  0  0  0
   43.7190   34.9550   41.8270 C   0  0  0  0  0  0  0  0  0  0  0  0
   43.9540   33.6290   42.1570 C   0  0  0  0  0  0  0  0  0  0  0  0
   44.9760   33.3450   43.0310 C   0  0  0  0  0  0  0  0  0  0  0  0
   45.7320   34.3500   43.5560 C   0  0  0  0  0  0  0  0  0  0  0  0
   45.5190   35.6750   43.2440 C   0  0  0  0  0  0  0  0  0  0  0  0
   44.4820   35.9220   42.3600 C   0  0  0  0  0  0  0  0  0  0  0  0
   40.3700   35.8490   40.3010 C   0  0  0  0  0  0  0  0  0  0  0  0
   41.3560   35.6510   41.2870 C   0  0  0  0  0  0  0  0  0  0  0  0
   42.6170   35.1980   40.8930 C   0  0  0  0  0  0  0  0  0  0  0  0
   42.8140   34.9740   39.5700 N   0  0  0  0  0  0  0  0  0  0  0  0
   41.8430   35.1740   38.6370 C   0  0  0  0  0  0  0  0  0  0  0  0
   40.6370   35.6090   39.0220 N   0  0  0  0  0  0  0  0  0  0  0  0
   40.5930   31.9120   41.9190 S   0  0  0  0  0  0  0  0  0  0  0  0
   39.7750   32.9750   42.6050 O   0  0  0  0  0  0  0  0  0  0  0  0
   39.9570   30.5840   42.0870 O   0  0  0  0  0  0  0  0  0  0  0  0
   40.6540   32.2860   40.2750 O   0  0  0  0  0  0  0  0  0  0  0  0
   40.2520   31.1480   39.5830 C   0  0  0  0  0  0  0  0  0  0  0  0
   38.9590   31.4440   38.8400 C   0  0  0  0  0  0  0  0  0  0  0  0
   39.1820   29.7230   36.2780 Cl  0  0  0  0  0  0  0  0  0  0  0  0
   38.2150   29.3550   37.6870 C   0  0  0  0  0  0  0  0  0  0  0  0
   38.1710   30.1920   38.7960 C   0  0  0  0  0  0  0  0  0  0  0  0
   37.3630   29.7930   39.8410 C   0  0  0  0  0  0  0  0  0  0  0  0
   36.6400   28.6200   39.7770 C   0  0  0  0  0  0  0  0  0  0  0  0
   36.6770   27.7830   38.6800 C   0  0  0  0  0  0  0  0  0  0  0  0
   37.4740   28.1660   37.6380 C   0  0  0  0  0  0  0  0  0  0  0  0
   42.5193   30.9355   42.6273 H   0  0  0  0  0  0  0  0  0  0  0  0
   42.5303   32.9629   40.7530 H   0  0  0  0  0  0  0  0  0  0  0  0
   43.8247   31.7550   41.2590 H   0  0  0  0  0  0  0  0  0  0  0  0
   45.1848   32.3012   43.3081 H   0  0  0  0  0  0  0  0  0  0  0  0
   46.5422   34.0939   44.2546 H   0  0  0  0  0  0  0  0  0  0  0  0
   46.1322   36.4833   43.6690 H   0  0  0  0  0  0  0  0  0  0  0  0
   44.2728   36.9650   42.0801 H   0  0  0  0  0  0  0  0  0  0  0  0
   39.3709   36.2052   40.5923 H   0  0  0  0  0  0  0  0  0  0  0  0
   41.1372   35.8493   42.3466 H   0  0  0  0  0  0  0  0  0  0  0  0
   42.0481   34.9795   37.5739 H   0  0  0  0  0  0  0  0  0  0  0  0
   39.8550   32.8710   43.5863 H   0  0  0  0  0  0  0  0  0  0  0  0
   39.8611   30.3837   43.0518 H   0  0  0  0  0  0  0  0  0  0  0  0
   41.0324   30.8607   38.8629 H   0  0  0  0  0  0  0  0  0  0  0  0
   40.0896   30.3229   40.2922 H   0  0  0  0  0  0  0  0  0  0  0  0
   38.3930   32.2250   39.3688 H   0  0  0  0  0  0  0  0  0  0  0  0
   39.1719   31.8022   37.8220 H   0  0  0  0  0  0  0  0  0  0  0  0
   37.2942   30.4215   40.7411 H   0  0  0  0  0  0  0  0  0  0  0  0
   36.0092   28.3406   40.6338 H   0  0  0  0  0  0  0  0  0  0  0  0
   36.0926   26.8517   38.6461 H   0  0  0  0  0  0  0  0  0  0  0  0
   37.5353   27.5289   36.7434 H   0  0  0  0  0  0  0  0  0  0  0  0
  2  4  1  0
  2  1  1  0
  3  4  1  0
  3  8  2  0
  4  5  2  0
  5  6  1  0
  7  6  2  0
  8  7  1  0
  9 10  2  0
 11 10  1  0
 11  3  1  0
 12 11  2  0
 13 14  2  0
 13 12  1  0
 14  9  1  0
 15 17  1  0
 15  1  1  0
 15 16  1  0
 18 15  1  0
 19 18  1  0
 20 19  1  0
 21 22  1  0
 22 23  2  0
 23 20  1  0
 23 24  1  0
 25 24  2  0
 26 25  1  0
 27 22  1  0
 27 26  2  0
  1 28  1  0
  2 29  1  0
  2 30  1  0
  5 31  1  0
  6 32  1  0
  7 33  1  0
  8 34  1  0
  9 35  1  0
 10 36  1  0
 13 37  1  0
 16 38  1  0
 17 39  1  0
 19 40  1  0
 19 41  1  0
 20 42  1  0
 20 43  1  0
 24 44  1  0
 25 45  1  0
 26 46  1  0
 27 47  1  0
M  ISO  8  28   5  29   8  30   8  31  14  32  14  33  14  34  14  35  14
M  ISO  8  36  14  37  14  38   3  39   3  40   8  41   8  42   8  43   8
M  ISO  4  44  14  45  14  46  14  47  14
M  END
>  <minimizedAffinity>  (1) 
-5.66561508

>  <minimizedRMSD>  (1) 
3.29905415

$$$$
