
     RDKit          3D

 25 26  0  0  0  0  0  0  0  0999 V2000
   46.8680   32.6970   46.5820 C   0  0  0  0  0  0  0  0  0  0  0  0
   45.6410   31.8040   49.2180 Cl  0  0  0  0  0  0  0  0  0  0  0  0
   45.4760   30.9190   47.7120 C   0  0  0  0  0  0  0  0  0  0  0  0
   46.0780   31.4220   46.5790 C   0  0  0  0  0  0  0  0  0  0  0  0
   45.9160   30.6790   45.4050 C   0  0  0  0  0  0  0  0  0  0  0  0
   45.2090   29.5110   45.3400 C   0  0  0  0  0  0  0  0  0  0  0  0
   44.6150   29.0280   46.4960 C   0  0  0  0  0  0  0  0  0  0  0  0
   44.7510   29.7390   47.6880 C   0  0  0  0  0  0  0  0  0  0  0  0
   44.6210   35.1870   45.1270 C   0  0  0  0  0  0  0  0  0  0  0  0
   45.1060   35.3380   43.8100 C   0  0  0  0  0  0  0  0  0  0  0  0
   46.2030   34.5750   43.4480 C   0  0  0  0  0  0  0  0  0  0  0  0
   46.7450   33.7440   44.3460 N   0  0  0  0  0  0  0  0  0  0  0  0
   46.2590   33.6230   45.5920 C   0  0  0  0  0  0  0  0  0  0  0  0
   45.1860   34.3430   46.0070 N   0  0  0  0  0  0  0  0  0  0  0  0
   44.3890   36.2750   43.0070 N   0  0  0  0  0  0  0  0  0  0  0  0
   46.8386   33.1509   47.5836 H   0  0  0  0  0  0  0  0  0  0  0  0
   47.9166   32.4949   46.3182 H   0  0  0  0  0  0  0  0  0  0  0  0
   46.3834   31.0555   44.4831 H   0  0  0  0  0  0  0  0  0  0  0  0
   45.1132   28.9652   44.3898 H   0  0  0  0  0  0  0  0  0  0  0  0
   44.0403   28.0903   46.4731 H   0  0  0  0  0  0  0  0  0  0  0  0
   44.2824   29.3627   48.6093 H   0  0  0  0  0  0  0  0  0  0  0  0
   43.7507   35.7805   45.4439 H   0  0  0  0  0  0  0  0  0  0  0  0
   46.6240   34.6509   42.4346 H   0  0  0  0  0  0  0  0  0  0  0  0
   44.6774   36.4454   42.0330 H   0  0  0  0  0  0  0  0  0  0  0  0
   43.5832   36.7809   43.4015 H   0  0  0  0  0  0  0  0  0  0  0  0
  3  2  1  0
  4  1  1  0
  4  3  2  0
  5  4  1  0
  6  5  2  0
  6  7  1  0
  7  8  2  0
  8  3  1  0
  9 14  2  0
 10  9  1  0
 11 10  2  0
 11 12  1  0
 12 13  2  0
 13 14  1  0
 13  1  1  0
 15 10  1  0
  1 16  1  0
  1 17  1  0
  5 18  1  0
  6 19  1  0
  7 20  1  0
  8 21  1  0
  9 22  1  0
 11 23  1  0
 15 24  1  0
 15 25  1  0
M  ISO  8  16   8  17   8  18  14  19  14  20  14  21  14  22  14  23  14
M  END
>  <minimizedAffinity>  (1) 
-4.74167156

>  <minimizedRMSD>  (1) 
1.40555871

$$$$
