
     RDKit          3D

 46 48  0  0  0  0  0  0  0  0999 V2000
   44.8900   35.7350   43.7790 C   0  0  0  0  0  0  0  0  0  0  0  0
   44.1090   35.6480   42.5910 C   0  0  0  0  0  0  0  0  0  0  0  0
   43.9250   34.3940   42.0470 C   0  0  0  0  0  0  0  0  0  0  0  0
   44.4740   33.3220   42.6350 N   0  0  0  0  0  0  0  0  0  0  0  0
   45.2090   33.4680   43.7660 C   0  0  0  0  0  0  0  0  0  0  0  0
   45.4200   34.6210   44.3300 N   0  0  0  0  0  0  0  0  0  0  0  0
   45.7760   32.2240   44.3440 C   0  0  0  0  0  0  0  0  0  0  0  0
   46.5590   32.5810   45.5810 C   0  0  0  0  0  0  0  0  0  0  0  0
   46.0610   31.9140   46.7610 C   0  0  0  0  0  0  0  0  0  0  0  0
   45.2910   32.4350   47.7830 C   0  0  0  0  0  0  0  0  0  0  0  0
   44.8680   31.7160   48.8600 C   0  0  0  0  0  0  0  0  0  0  0  0
   45.2230   30.4000   48.9400 C   0  0  0  0  0  0  0  0  0  0  0  0
   45.9910   29.8650   47.9280 C   0  0  0  0  0  0  0  0  0  0  0  0
   46.4110   30.6080   46.8430 C   0  0  0  0  0  0  0  0  0  0  0  0
   48.5280   29.4880   46.4750 C   0  0  0  0  0  0  0  0  0  0  0  0
   49.2930   29.8380   47.4630 O   0  0  0  0  0  0  0  0  0  0  0  0
   47.1890   29.7320   46.0100 N   0  0  0  0  0  0  0  0  0  0  0  0
   43.1090   34.3800   40.8200 C   0  0  0  0  0  0  0  0  0  0  0  0
   42.0910   35.5000   40.7910 C   0  0  0  0  0  0  0  0  0  0  0  0
   41.7460   35.9920   37.7790 Cl  0  0  0  0  0  0  0  0  0  0  0  0
   40.6550   35.1120   38.8240 C   0  0  0  0  0  0  0  0  0  0  0  0
   40.8440   34.9160   40.1860 C   0  0  0  0  0  0  0  0  0  0  0  0
   39.9490   34.2150   40.9670 C   0  0  0  0  0  0  0  0  0  0  0  0
   38.8200   33.6870   40.3780 C   0  0  0  0  0  0  0  0  0  0  0  0
   38.5640   33.8410   39.0310 C   0  0  0  0  0  0  0  0  0  0  0  0
   39.5020   34.5540   38.3050 C   0  0  0  0  0  0  0  0  0  0  0  0
   45.0625   36.7139   44.2501 H   0  0  0  0  0  0  0  0  0  0  0  0
   43.6708   36.5438   42.1267 H   0  0  0  0  0  0  0  0  0  0  0  0
   44.9615   31.5333   44.6077 H   0  0  0  0  0  0  0  0  0  0  0  0
   46.4346   31.7355   43.6107 H   0  0  0  0  0  0  0  0  0  0  0  0
   47.6096   32.2924   45.4293 H   0  0  0  0  0  0  0  0  0  0  0  0
   46.4569   33.6645   45.7407 H   0  0  0  0  0  0  0  0  0  0  0  0
   45.0020   33.4947   47.7234 H   0  0  0  0  0  0  0  0  0  0  0  0
   44.2560   32.1838   49.6453 H   0  0  0  0  0  0  0  0  0  0  0  0
   44.9037   29.7814   49.7917 H   0  0  0  0  0  0  0  0  0  0  0  0
   46.2803   28.8054   47.9873 H   0  0  0  0  0  0  0  0  0  0  0  0
   49.0583   28.8056   45.7945 H   0  0  0  0  0  0  0  0  0  0  0  0
   46.8163   29.3115   45.1468 H   0  0  0  0  0  0  0  0  0  0  0  0
   43.7755   34.4859   39.9513 H   0  0  0  0  0  0  0  0  0  0  0  0
   42.5601   33.4271   40.7932 H   0  0  0  0  0  0  0  0  0  0  0  0
   41.8886   35.8582   41.8112 H   0  0  0  0  0  0  0  0  0  0  0  0
   42.4556   36.3589   40.2085 H   0  0  0  0  0  0  0  0  0  0  0  0
   40.1332   34.0794   42.0430 H   0  0  0  0  0  0  0  0  0  0  0  0
   38.1041   33.1280   40.9985 H   0  0  0  0  0  0  0  0  0  0  0  0
   37.6635   33.4201   38.5599 H   0  0  0  0  0  0  0  0  0  0  0  0
   39.3150   34.6872   37.2292 H   0  0  0  0  0  0  0  0  0  0  0  0
  1  6  2  0
  2  1  1  0
  3  2  2  0
  3  4  1  0
  4  5  2  0
  5  6  1  0
  5  7  1  0
  7  8  1  0
  8  9  1  0
  9 14  1  0
  9 10  2  0
 10 11  1  0
 11 12  2  0
 13 12  1  0
 14 13  2  0
 15 16  2  0
 17 15  1  0
 17 14  1  0
 18  3  1  0
 19 18  1  0
 20 21  1  0
 21 22  2  0
 22 19  1  0
 22 23  1  0
 24 23  2  0
 25 24  1  0
 26 21  1  0
 26 25  2  0
  1 27  1  0
  2 28  1  0
  7 29  1  0
  7 30  1  0
  8 31  1  0
  8 32  1  0
 10 33  1  0
 11 34  1  0
 12 35  1  0
 13 36  1  0
 15 37  1  0
 17 38  1  0
 18 39  1  0
 18 40  1  0
 19 41  1  0
 19 42  1  0
 23 43  1  0
 24 44  1  0
 25 45  1  0
 26 46  1  0
M  ISO  8  27  14  28  14  29   8  30   8  31   8  32   8  33  14  34  14
M  ISO  8  35  14  36  14  37   6  39   8  40   8  41   8  42   8  43  14
M  ISO  3  44  14  45  14  46  14
M  END
>  <minimizedAffinity>  (1) 
-6.36248398

>  <minimizedRMSD>  (1) 
1.7654593

$$$$
