
     RDKit          3D

 38 41  0  0  0  0  0  0  0  0999 V2000
   43.9820   34.7750   40.9630 C   0  0  0  0  0  0  0  0  0  0  0  0
   43.9490   33.8710   39.9360 C   0  0  0  0  0  0  0  0  0  0  0  0
   45.1370   33.2490   39.5600 C   0  0  0  0  0  0  0  0  0  0  0  0
   46.2610   33.5850   40.2480 N   0  0  0  0  0  0  0  0  0  0  0  0
   46.2650   34.4730   41.2530 C   0  0  0  0  0  0  0  0  0  0  0  0
   45.1190   35.0390   41.5750 N   0  0  0  0  0  0  0  0  0  0  0  0
   47.1030   33.7030   37.1250 Cl  0  0  0  0  0  0  0  0  0  0  0  0
   46.1220   32.2940   37.4150 C   0  0  0  0  0  0  0  0  0  0  0  0
   45.3270   32.2650   38.5290 C   0  0  0  0  0  0  0  0  0  0  0  0
   44.6430   31.0710   38.6250 C   0  0  0  0  0  0  0  0  0  0  0  0
   44.7410   30.0380   37.7220 C   0  0  0  0  0  0  0  0  0  0  0  0
   45.5600   30.1380   36.6240 C   0  0  0  0  0  0  0  0  0  0  0  0
   46.2710   31.3080   36.4740 C   0  0  0  0  0  0  0  0  0  0  0  0
   42.4050   35.5450   41.3970 S   0  0  0  0  0  0  0  0  0  0  0  0
   40.0400   34.9370   40.2690 C   0  0  0  0  0  0  0  0  0  0  0  0
   41.0520   34.4400   41.0750 C   0  0  0  0  0  0  0  0  0  0  0  0
   40.9790   33.1560   41.5800 C   0  0  0  0  0  0  0  0  0  0  0  0
   39.9110   32.3170   41.3110 C   0  0  0  0  0  0  0  0  0  0  0  0
   38.8950   32.8250   40.4980 C   0  0  0  0  0  0  0  0  0  0  0  0
   38.9370   34.1210   39.9690 C   0  0  0  0  0  0  0  0  0  0  0  0
   37.9130   31.8210   40.3490 O   0  0  0  0  0  0  0  0  0  0  0  0
   38.2010   30.8700   41.3510 C   0  0  0  0  0  0  0  0  0  0  0  0
   39.5700   31.0230   41.6620 O   0  0  0  0  0  0  0  0  0  0  0  0
   47.3800   34.8340   41.9670 O   0  0  0  0  0  0  0  0  0  0  0  0
   48.5720   35.1270   41.3030 C   0  0  0  0  0  0  0  0  0  0  0  0
   49.5530   34.2150   41.5280 F   0  0  0  0  0  0  0  0  0  0  0  0
   48.2160   35.2430   39.9470 F   0  0  0  0  0  0  0  0  0  0  0  0
   49.0180   36.3530   41.7870 F   0  0  0  0  0  0  0  0  0  0  0  0
   43.0056   33.6409   39.4193 H   0  0  0  0  0  0  0  0  0  0  0  0
   43.9711   30.9352   39.4853 H   0  0  0  0  0  0  0  0  0  0  0  0
   44.1560   29.1202   37.8813 H   0  0  0  0  0  0  0  0  0  0  0  0
   45.6445   29.3184   35.8953 H   0  0  0  0  0  0  0  0  0  0  0  0
   46.9451   31.4486   35.6162 H   0  0  0  0  0  0  0  0  0  0  0  0
   40.1000   35.9597   39.8685 H   0  0  0  0  0  0  0  0  0  0  0  0
   41.7968   32.7880   42.2171 H   0  0  0  0  0  0  0  0  0  0  0  0
   38.1218   34.4927   39.3308 H   0  0  0  0  0  0  0  0  0  0  0  0
   37.5847   31.0578   42.2426 H   0  0  0  0  0  0  0  0  0  0  0  0
   37.9812   29.8485   41.0072 H   0  0  0  0  0  0  0  0  0  0  0  0
  1 14  1  0
  1  6  1  0
  2  1  2  0
  3  2  1  0
  3  4  2  0
  4  5  1  0
  5  6  2  0
  5 24  1  0
  7  8  1  0
  8  9  2  0
  9 10  1  0
  9  3  1  0
 11 10  2  0
 12 11  1  0
 13 12  2  0
 13  8  1  0
 15 16  2  0
 16 14  1  0
 16 17  1  0
 18 17  2  0
 18 23  1  0
 19 18  1  0
 20 15  1  0
 20 19  2  0
 21 19  1  0
 21 22  1  0
 22 23  1  0
 25 26  1  0
 25 28  1  0
 25 24  1  0
 27 25  1  0
  2 29  1  0
 10 30  1  0
 11 31  1  0
 12 32  1  0
 13 33  1  0
 15 34  1  0
 17 35  1  0
 20 36  1  0
 22 37  1  0
 22 38  1  0
M  ISO  8  29  14  30  14  31  14  32  14  33  14  34  14  35  14  36  14
M  ISO  2  37  13  38  13
M  END
>  <minimizedAffinity>  (1) 
-6.1219058

>  <minimizedRMSD>  (1) 
0.194585606

$$$$
