
     RDKit          3D

 51 54  0  0  1  0  0  0  0  0999 V2000
   46.9660   32.7530   45.5560 C   0  0  0  0  0  0  0  0  0  0  0  0
   45.8680   33.4170   46.0900 C   0  0  0  0  0  0  0  0  0  0  0  0
   45.1870   34.3780   45.3060 C   0  0  0  0  0  0  0  0  0  0  0  0
   45.6830   34.5970   44.0240 N   0  0  0  0  0  0  0  0  0  0  0  0
   46.7470   33.9250   43.5720 C   0  0  0  0  0  0  0  0  0  0  0  0
   47.3750   33.0210   44.3220 N   0  0  0  0  0  0  0  0  0  0  0  0
   47.6140   31.7580   46.3860 C   0  0  2  0  0  0  0  0  0  0  0  0
   47.3750   30.3160   45.8410 C   0  0  0  0  0  0  0  0  0  0  0  0
   48.1860   29.3480   46.6310 C   0  0  0  0  0  0  0  0  0  0  0  0
   48.1730   29.5340   48.1070 C   0  0  0  0  0  0  0  0  0  0  0  0
   48.1630   30.9090   48.5390 C   0  0  0  0  0  0  0  0  0  0  0  0
   47.1680   31.8010   47.7640 C   0  0  2  0  0  0  0  0  0  0  0  0
   45.8320   31.2110   47.8790 N   0  0  0  0  0  0  0  0  0  0  0  0
   45.1460   30.6630   48.9750 C   0  0  0  0  0  0  0  0  0  0  0  0
   44.5940   31.3820   49.8850 O   0  0  0  0  0  0  0  0  0  0  0  0
   45.0980   29.2360   48.9980 N   0  0  0  0  0  0  0  0  0  0  0  0
   47.2310   34.2210   42.2200 C   0  0  0  0  0  0  0  0  0  0  0  0
   48.2470   35.1250   42.0110 C   0  0  0  0  0  0  0  0  0  0  0  0
   48.7470   35.4470   40.7700 C   0  0  0  0  0  0  0  0  0  0  0  0
   48.1470   34.7850   39.7040 C   0  0  0  0  0  0  0  0  0  0  0  0
   47.1330   33.8820   39.9060 C   0  0  0  0  0  0  0  0  0  0  0  0
   46.6810   33.6060   41.1600 N   0  0  0  0  0  0  0  0  0  0  0  0
   48.2270   34.5000   37.2000 Cl  0  0  0  0  0  0  0  0  0  0  0  0
   46.9030   33.3720   37.4930 C   0  0  0  0  0  0  0  0  0  0  0  0
   46.4970   33.1820   38.7970 C   0  0  0  0  0  0  0  0  0  0  0  0
   45.4580   32.2850   38.9250 C   0  0  0  0  0  0  0  0  0  0  0  0
   44.8770   31.6380   37.8530 C   0  0  0  0  0  0  0  0  0  0  0  0
   45.3310   31.8750   36.5730 C   0  0  0  0  0  0  0  0  0  0  0  0
   46.3680   32.7620   36.3810 C   0  0  0  0  0  0  0  0  0  0  0  0
   45.5312   33.1972   47.1138 H   0  0  0  0  0  0  0  0  0  0  0  0
   44.3119   34.9232   45.6893 H   0  0  0  0  0  0  0  0  0  0  0  0
   48.6858   32.0033   46.3521 H   0  0  0  0  0  0  0  0  0  0  0  0
   46.3087   30.0614   45.9316 H   0  0  0  0  0  0  0  0  0  0  0  0
   47.6737   30.2686   44.7834 H   0  0  0  0  0  0  0  0  0  0  0  0
   47.8068   28.3380   46.4163 H   0  0  0  0  0  0  0  0  0  0  0  0
   49.2284   29.5144   46.3216 H   0  0  0  0  0  0  0  0  0  0  0  0
   47.2738   29.0424   48.5067 H   0  0  0  0  0  0  0  0  0  0  0  0
   49.1087   29.0957   48.4844 H   0  0  0  0  0  0  0  0  0  0  0  0
   47.8938   30.9352   49.6052 H   0  0  0  0  0  0  0  0  0  0  0  0
   49.1687   31.3113   48.3476 H   0  0  0  0  0  0  0  0  0  0  0  0
   47.1272   32.8329   48.1429 H   0  0  0  0  0  0  0  0  0  0  0  0
   45.3000   31.1953   46.9972 H   0  0  0  0  0  0  0  0  0  0  0  0
   44.6146   28.7493   49.7664 H   0  0  0  0  0  0  0  0  0  0  0  0
   45.5467   28.6934   48.2462 H   0  0  0  0  0  0  0  0  0  0  0  0
   48.6863   35.6205   42.8893 H   0  0  0  0  0  0  0  0  0  0  0  0
   49.5608   36.1740   40.6314 H   0  0  0  0  0  0  0  0  0  0  0  0
   48.4916   34.9889   38.6795 H   0  0  0  0  0  0  0  0  0  0  0  0
   45.0721   32.0740   39.9333 H   0  0  0  0  0  0  0  0  0  0  0  0
   44.0502   30.9320   38.0203 H   0  0  0  0  0  0  0  0  0  0  0  0
   44.8710   31.3623   35.7154 H   0  0  0  0  0  0  0  0  0  0  0  0
   46.7550   32.9753   35.3736 H   0  0  0  0  0  0  0  0  0  0  0  0
  1  2  2  0
  1  7  1  0
  3  2  1  0
  4  3  2  0
  5  4  1  0
  5  6  2  0
  6  1  1  0
  7 12  1  0
  8  7  1  0
  8  9  1  0
  9 10  1  0
 10 11  1  0
 12 13  1  0
 12 11  1  0
 13 14  1  0
 14 16  1  0
 14 15  2  0
 17  5  1  0
 18 17  2  0
 19 18  1  0
 20 21  1  0
 20 19  2  0
 21 22  2  0
 22 17  1  0
 23 24  1  0
 24 25  2  0
 25 26  1  0
 25 21  1  0
 27 26  2  0
 28 27  1  0
 29 28  2  0
 29 24  1  0
  2 30  1  0
  3 31  1  0
  7 32  1  1
  8 33  1  0
  8 34  1  0
  9 35  1  0
  9 36  1  0
 10 37  1  0
 10 38  1  0
 11 39  1  0
 11 40  1  0
 12 41  1  1
 13 42  1  0
 16 43  1  0
 16 44  1  0
 18 45  1  0
 19 46  1  0
 20 47  1  0
 26 48  1  0
 27 49  1  0
 28 50  1  0
 29 51  1  0
M  ISO  8  30  14  31  14  32  13  33  13  34  13  35  13  36  13  37  13
M  ISO  8  38  13  39  13  40  13  41  13  45  14  46  14  47  14  48  14
M  ISO  3  49  14  50  14  51  14
M  END
>  <minimizedAffinity>  (1) 
-6.8459487

>  <minimizedRMSD>  (1) 
0.294984043

$$$$
