
     RDKit          3D

 38 41  0  0  0  0  0  0  0  0999 V2000
   45.2670   33.0340   41.1380 Cl  0  0  0  0  0  0  0  0  0  0  0  0
   46.6790   34.0440   41.0350 C   0  0  0  0  0  0  0  0  0  0  0  0
   47.0560   34.8760   42.0470 C   0  0  0  0  0  0  0  0  0  0  0  0
   48.1850   35.6170   41.8400 C   0  0  0  0  0  0  0  0  0  0  0  0
   48.9170   35.5560   40.7050 C   0  0  0  0  0  0  0  0  0  0  0  0
   48.5400   34.7190   39.6840 C   0  0  0  0  0  0  0  0  0  0  0  0
   47.3930   33.9520   39.8690 C   0  0  0  0  0  0  0  0  0  0  0  0
   44.4750   35.8350   44.6520 C   0  0  0  0  0  0  0  0  0  0  0  0
   45.2440   35.8440   43.4800 C   0  0  0  0  0  0  0  0  0  0  0  0
   46.2380   34.9040   43.2420 C   0  0  0  0  0  0  0  0  0  0  0  0
   46.3960   33.9830   44.2410 N   0  0  0  0  0  0  0  0  0  0  0  0
   45.6620   33.9780   45.3570 C   0  0  0  0  0  0  0  0  0  0  0  0
   44.7190   34.8860   45.5600 N   0  0  0  0  0  0  0  0  0  0  0  0
   46.9770   33.0470   38.7750 C   0  0  0  0  0  0  0  0  0  0  0  0
   47.3290   31.6890   38.7250 C   0  0  0  0  0  0  0  0  0  0  0  0
   46.5710   31.0800   37.2060 S   0  0  0  0  0  0  0  0  0  0  0  0
   45.8540   32.8230   36.8350 C   0  0  0  0  0  0  0  0  0  0  0  0
   46.2490   33.3670   37.7300 N   0  0  0  0  0  0  0  0  0  0  0  0
   45.0620   33.1810   35.7050 N   0  0  0  0  0  0  0  0  0  0  0  0
   50.3370   31.7730   38.2020 Cl  0  0  0  0  0  0  0  0  0  0  0  0
   49.5160   30.8900   39.4920 C   0  0  0  0  0  0  0  0  0  0  0  0
   48.1310   30.8950   39.6760 C   0  0  0  0  0  0  0  0  0  0  0  0
   47.5770   30.1730   40.7150 C   0  0  0  0  0  0  0  0  0  0  0  0
   48.4230   29.4560   41.5530 C   0  0  0  0  0  0  0  0  0  0  0  0
   49.7930   29.4650   41.3530 C   0  0  0  0  0  0  0  0  0  0  0  0
   50.3560   30.1810   40.3190 C   0  0  0  0  0  0  0  0  0  0  0  0
   48.5154   36.2983   42.6379 H   0  0  0  0  0  0  0  0  0  0  0  0
   49.8174   36.1789   40.5992 H   0  0  0  0  0  0  0  0  0  0  0  0
   49.1232   34.6567   38.7534 H   0  0  0  0  0  0  0  0  0  0  0  0
   43.6918   36.5890   44.8195 H   0  0  0  0  0  0  0  0  0  0  0  0
   45.0539   36.6207   42.7246 H   0  0  0  0  0  0  0  0  0  0  0  0
   45.8436   33.2070   46.1203 H   0  0  0  0  0  0  0  0  0  0  0  0
   44.7247   34.1483   35.5982 H   0  0  0  0  0  0  0  0  0  0  0  0
   44.8271   32.4723   34.9954 H   0  0  0  0  0  0  0  0  0  0  0  0
   46.4889   30.1656   40.8760 H   0  0  0  0  0  0  0  0  0  0  0  0
   47.9990   28.8745   42.3849 H   0  0  0  0  0  0  0  0  0  0  0  0
   50.4425   28.8913   42.0305 H   0  0  0  0  0  0  0  0  0  0  0  0
   51.4444   30.1855   40.1597 H   0  0  0  0  0  0  0  0  0  0  0  0
  2  1  1  0
  2  3  2  0
  3 10  1  0
  4  3  1  0
  5  4  2  0
  6  7  2  0
  6  5  1  0
  7  2  1  0
  8 13  2  0
  9  8  1  0
 10  9  2  0
 10 11  1  0
 11 12  2  0
 12 13  1  0
 14  7  1  0
 15 14  2  0
 15 22  1  0
 16 15  1  0
 17 16  1  0
 17 18  2  0
 18 14  1  0
 19 17  1  0
 20 21  1  0
 21 22  2  0
 21 26  1  0
 22 23  1  0
 23 24  2  0
 25 24  1  0
 26 25  2  0
  4 27  1  0
  5 28  1  0
  6 29  1  0
  8 30  1  0
  9 31  1  0
 12 32  1  0
 19 33  1  0
 19 34  1  0
 23 35  1  0
 24 36  1  0
 25 37  1  0
 26 38  1  0
M  ISO  8  27  14  28  14  29  14  30  14  31  14  32  14  35  14  36  14
M  ISO  2  37  14  38  14
M  END
>  <minimizedAffinity>  (1) 
-6.16681719

>  <minimizedRMSD>  (1) 
0.720273972

$$$$
