
     RDKit          3D

 40 42  0  0  1  0  0  0  0  0999 V2000
   45.6390   34.3430   44.9740 C   0  0  0  0  0  0  0  0  0  0  0  0
   46.3880   34.0480   43.8200 C   0  0  0  0  0  0  0  0  0  0  0  0
   47.1820   32.9050   43.8620 C   0  0  0  0  0  0  0  0  0  0  0  0
   47.1920   32.1440   44.9990 N   0  0  0  0  0  0  0  0  0  0  0  0
   46.4510   32.4860   46.0640 C   0  0  0  0  0  0  0  0  0  0  0  0
   45.6770   33.5730   46.0640 N   0  0  0  0  0  0  0  0  0  0  0  0
   46.5270   31.5990   47.2160 N   0  0  0  0  0  0  0  0  0  0  0  0
   46.3340   32.1890   48.5150 C   0  0  0  0  0  0  0  0  0  0  0  0
   45.6350   31.2690   49.4180 C   0  0  0  0  0  0  0  0  0  0  0  0
   45.0370   30.0310   48.8300 C   0  0  0  0  0  0  0  0  0  0  0  0
   45.8900   29.3560   47.8180 C   0  0  0  0  0  0  0  0  0  0  0  0
   46.7740   30.2000   46.9840 C   0  0  2  0  0  0  0  0  0  0  0  0
   48.2550   30.6400   49.5580 Cl  0  0  0  0  0  0  0  0  0  0  0  0
   49.0100   29.9690   48.1090 C   0  0  0  0  0  0  0  0  0  0  0  0
   48.2010   29.8140   46.9740 C   0  0  0  0  0  0  0  0  0  0  0  0
   48.8960   29.2860   45.9180 C   0  0  0  0  0  0  0  0  0  0  0  0
   50.2300   28.9430   45.9450 C   0  0  0  0  0  0  0  0  0  0  0  0
   50.9560   29.1240   47.0950 C   0  0  0  0  0  0  0  0  0  0  0  0
   50.3470   29.6440   48.1970 C   0  0  0  0  0  0  0  0  0  0  0  0
   44.8710   35.4730   44.8940 O   0  0  0  0  0  0  0  0  0  0  0  0
   44.4630   36.0790   43.7160 C   0  0  0  0  0  0  0  0  0  0  0  0
   45.1060   37.0330   43.1590 O   0  0  0  0  0  0  0  0  0  0  0  0
   43.3060   35.7260   42.9900 N   0  0  0  0  0  0  0  0  0  0  0  0
   46.3482   34.6896   42.9274 H   0  0  0  0  0  0  0  0  0  0  0  0
   47.7927   32.6179   42.9933 H   0  0  0  0  0  0  0  0  0  0  0  0
   47.3153   32.4374   48.9454 H   0  0  0  0  0  0  0  0  0  0  0  0
   45.7206   33.0946   48.3980 H   0  0  0  0  0  0  0  0  0  0  0  0
   46.3566   30.9517   50.1853 H   0  0  0  0  0  0  0  0  0  0  0  0
   44.7724   31.8447   49.7847 H   0  0  0  0  0  0  0  0  0  0  0  0
   44.8456   29.3201   49.6474 H   0  0  0  0  0  0  0  0  0  0  0  0
   44.1202   30.3434   48.3085 H   0  0  0  0  0  0  0  0  0  0  0  0
   46.5307   28.6405   48.3543 H   0  0  0  0  0  0  0  0  0  0  0  0
   45.1769   28.9154   47.1057 H   0  0  0  0  0  0  0  0  0  0  0  0
   46.4890   29.9962   45.9413 H   0  0  0  0  0  0  0  0  0  0  0  0
   48.3478   29.1238   44.9782 H   0  0  0  0  0  0  0  0  0  0  0  0
   50.7111   28.5257   45.0481 H   0  0  0  0  0  0  0  0  0  0  0  0
   52.0212   28.8514   47.1269 H   0  0  0  0  0  0  0  0  0  0  0  0
   50.9064   29.8003   49.1312 H   0  0  0  0  0  0  0  0  0  0  0  0
   43.0709   36.2261   42.1208 H   0  0  0  0  0  0  0  0  0  0  0  0
   42.6964   34.9682   43.3292 H   0  0  0  0  0  0  0  0  0  0  0  0
  1  6  2  0
  2  3  2  0
  2  1  1  0
  3  4  1  0
  4  5  2  0
  5  6  1  0
  5  7  1  0
  7  8  1  0
  8  9  1  0
 10  9  1  0
 11 10  1  0
 12  7  1  0
 12 11  1  0
 14 19  2  0
 14 13  1  0
 15 12  1  0
 15 14  1  0
 16 17  1  0
 16 15  2  0
 17 18  2  0
 18 19  1  0
 20  1  1  0
 21 20  1  0
 22 21  2  0
 23 21  1  0
  2 24  1  0
  3 25  1  0
  8 26  1  0
  8 27  1  0
  9 28  1  0
  9 29  1  0
 10 30  1  0
 10 31  1  0
 11 32  1  0
 11 33  1  0
 12 34  1  6
 16 35  1  0
 17 36  1  0
 18 37  1  0
 19 38  1  0
 23 39  1  0
 23 40  1  0
M  ISO  8  24  14  25  14  26  13  27  13  28  13  29  13  30  13  31  13
M  ISO  7  32  13  33  13  34  13  35  14  36  14  37  14  38  14
M  END
>  <minimizedAffinity>  (1) 
-6.21511364

>  <minimizedRMSD>  (1) 
0.596701443

$$$$
