
     RDKit          3D

 51 55  0  0  1  0  0  0  0  0999 V2000
   47.3000   31.0720   46.9360 C   0  0  0  0  0  0  0  0  0  0  0  0
   47.4200   31.6990   48.2860 C   0  0  1  0  0  0  0  0  0  0  0  0
   47.0730   30.8060   49.4280 C   0  0  0  0  0  0  0  0  0  0  0  0
   48.4560   31.2320   49.2270 C   0  0  1  0  0  0  0  0  0  0  0  0
   49.4980   30.2880   48.7160 C   0  0  2  0  0  0  0  0  0  0  0  0
   49.8870   29.2050   49.7540 C   0  0  0  0  0  0  0  0  0  0  0  0
   50.8480   30.2620   49.4240 C   0  0  2  0  0  0  0  0  0  0  0  0
   51.1470   29.6040   52.3310 Cl  0  0  0  0  0  0  0  0  0  0  0  0
   51.2970   31.2210   51.6470 C   0  0  0  0  0  0  0  0  0  0  0  0
   51.1400   31.4160   50.2850 C   0  0  0  0  0  0  0  0  0  0  0  0
   51.2690   32.7140   49.8040 C   0  0  0  0  0  0  0  0  0  0  0  0
   51.5440   33.8110   50.6130 C   0  0  0  0  0  0  0  0  0  0  0  0
   51.6880   33.5380   51.9680 C   0  0  0  0  0  0  0  0  0  0  0  0
   51.5710   32.2670   52.5060 C   0  0  0  0  0  0  0  0  0  0  0  0
   46.1550   33.0050   46.2250 C   0  0  0  0  0  0  0  0  0  0  0  0
   46.9960   32.1200   45.8900 C   0  0  0  0  0  0  0  0  0  0  0  0
   44.5360   35.8420   44.5130 C   0  0  0  0  0  0  0  0  0  0  0  0
   45.1810   35.8720   43.2830 C   0  0  0  0  0  0  0  0  0  0  0  0
   46.1410   34.9250   43.0780 C   0  0  0  0  0  0  0  0  0  0  0  0
   46.4230   34.0170   44.0540 N   0  0  0  0  0  0  0  0  0  0  0  0
   45.7760   34.0190   45.2380 C   0  0  0  0  0  0  0  0  0  0  0  0
   44.8470   34.9360   45.4350 N   0  0  0  0  0  0  0  0  0  0  0  0
   46.8980   34.8330   41.8410 C   0  0  0  0  0  0  0  0  0  0  0  0
   48.0950   35.4480   41.6110 C   0  0  0  0  0  0  0  0  0  0  0  0
   48.8020   35.3500   40.4290 C   0  0  0  0  0  0  0  0  0  0  0  0
   48.2940   34.5890   39.3900 C   0  0  0  0  0  0  0  0  0  0  0  0
   47.0910   33.9480   39.5660 C   0  0  0  0  0  0  0  0  0  0  0  0
   46.4380   34.0880   40.7720 C   0  0  0  0  0  0  0  0  0  0  0  0
   48.2470   30.5727   46.6834 H   0  0  0  0  0  0  0  0  0  0  0  0
   46.4787   30.3405   46.9555 H   0  0  0  0  0  0  0  0  0  0  0  0
   47.1305   32.6929   47.9140 H   0  0  0  0  0  0  0  0  0  0  0  0
   46.4944   31.1986   50.2772 H   0  0  0  0  0  0  0  0  0  0  0  0
   46.5649   29.8358   49.5304 H   0  0  0  0  0  0  0  0  0  0  0  0
   49.1999   31.7055   49.8846 H   0  0  0  0  0  0  0  0  0  0  0  0
   49.1842   30.3485   47.6634 H   0  0  0  0  0  0  0  0  0  0  0  0
   49.4028   29.1932   50.7416 H   0  0  0  0  0  0  0  0  0  0  0  0
   49.9149   28.1054   49.7517 H   0  0  0  0  0  0  0  0  0  0  0  0
   51.9112   30.1973   49.1493 H   0  0  0  0  0  0  0  0  0  0  0  0
   51.1468   32.8825   48.7239 H   0  0  0  0  0  0  0  0  0  0  0  0
   51.6412   34.8287   50.2069 H   0  0  0  0  0  0  0  0  0  0  0  0
   51.9061   34.3744   52.6483 H   0  0  0  0  0  0  0  0  0  0  0  0
   51.6928   32.0958   53.5858 H   0  0  0  0  0  0  0  0  0  0  0  0
   45.7186   33.0124   47.2347 H   0  0  0  0  0  0  0  0  0  0  0  0
   47.4754   32.1141   44.9000 H   0  0  0  0  0  0  0  0  0  0  0  0
   43.7520   36.5829   44.7285 H   0  0  0  0  0  0  0  0  0  0  0  0
   44.9310   36.6194   42.5156 H   0  0  0  0  0  0  0  0  0  0  0  0
   48.5233   36.0602   42.4183 H   0  0  0  0  0  0  0  0  0  0  0  0
   49.7627   35.8732   40.3136 H   0  0  0  0  0  0  0  0  0  0  0  0
   48.8431   34.4990   38.4411 H   0  0  0  0  0  0  0  0  0  0  0  0
   46.6581   33.3358   38.7611 H   0  0  0  0  0  0  0  0  0  0  0  0
   45.4770   33.5666   40.8926 H   0  0  0  0  0  0  0  0  0  0  0  0
  1  2  1  0
  2  4  1  0
  2  3  1  0
  4  3  1  0
  5  4  1  0
  5  7  1  0
  5  6  1  0
  7  6  1  0
  7 10  1  0
  9  8  1  0
  9 14  2  0
 10  9  1  0
 11 10  2  0
 11 12  1  0
 12 13  2  0
 13 14  1  0
 16 15  2  0
 16  1  1  0
 17 22  2  0
 18 17  1  0
 19 18  2  0
 19 20  1  0
 20 21  2  0
 21 22  1  0
 21 15  1  0
 23 19  1  0
 24 23  2  0
 25 24  1  0
 26 27  1  0
 26 25  2  0
 27 28  2  0
 28 23  1  0
  1 29  1  0
  1 30  1  0
  2 31  1  6
  3 32  1  0
  3 33  1  0
  4 34  1  1
  5 35  1  6
  6 36  1  0
  6 37  1  0
  7 38  1  6
 11 39  1  0
 12 40  1  0
 13 41  1  0
 14 42  1  0
 15 43  1  0
 16 44  1  0
 17 45  1  0
 18 46  1  0
 24 47  1  0
 25 48  1  0
 26 49  1  0
 27 50  1  0
 28 51  1  0
M  ISO  8  29   8  30   8  31  13  32  13  33  13  34  13  35  13  36  13
M  ISO  8  37  13  38  13  39  14  40  14  41  14  42  14  45  14  46  14
M  ISO  5  47  14  48  14  49  14  50  14  51  14
M  END
>  <minimizedAffinity>  (1) 
-7.32631302

>  <minimizedRMSD>  (1) 
1.84253049

$$$$
