
     RDKit          3D

 23 24  0  0  0  0  0  0  0  0999 V2000
   45.2080   35.7750   42.8130 C   0  0  0  0  0  0  0  0  0  0  0  0
   46.0760   34.6630   42.7750 C   0  0  0  0  0  0  0  0  0  0  0  0
   46.2650   33.9480   43.9620 C   0  0  0  0  0  0  0  0  0  0  0  0
   45.6070   34.3670   45.0670 N   0  0  0  0  0  0  0  0  0  0  0  0
   44.7820   35.4340   45.0760 C   0  0  0  0  0  0  0  0  0  0  0  0
   44.5880   36.1290   43.9560 N   0  0  0  0  0  0  0  0  0  0  0  0
   48.7950   35.8550   41.9840 Cl  0  0  0  0  0  0  0  0  0  0  0  0
   47.8480   34.8450   40.9140 C   0  0  0  0  0  0  0  0  0  0  0  0
   46.6660   34.4290   41.4640 C   0  0  0  0  0  0  0  0  0  0  0  0
   45.8100   33.6210   40.7070 C   0  0  0  0  0  0  0  0  0  0  0  0
   46.1370   33.2310   39.4050 C   0  0  0  0  0  0  0  0  0  0  0  0
   47.3380   33.6700   38.8840 C   0  0  0  0  0  0  0  0  0  0  0  0
   48.1780   34.4660   39.6310 C   0  0  0  0  0  0  0  0  0  0  0  0
   47.1730   32.8140   43.8500 C   0  0  0  0  0  0  0  0  0  0  0  0
   47.2840   32.2170   45.1120 F   0  0  0  0  0  0  0  0  0  0  0  0
   48.4280   33.3150   43.5960 F   0  0  0  0  0  0  0  0  0  0  0  0
   46.7870   31.8580   42.9790 F   0  0  0  0  0  0  0  0  0  0  0  0
   45.0352   36.3604   41.8979 H   0  0  0  0  0  0  0  0  0  0  0  0
   44.2713   35.7292   46.0045 H   0  0  0  0  0  0  0  0  0  0  0  0
   44.8589   33.2854   41.1462 H   0  0  0  0  0  0  0  0  0  0  0  0
   45.4600   32.5955   38.8152 H   0  0  0  0  0  0  0  0  0  0  0  0
   47.6267   33.3813   37.8626 H   0  0  0  0  0  0  0  0  0  0  0  0
   49.1294   34.8052   39.1955 H   0  0  0  0  0  0  0  0  0  0  0  0
  1  6  2  0
  2  1  1  0
  2  3  2  0
  3  4  1  0
  4  5  2  0
  6  5  1  0
  8  9  2  0
  8  7  1  0
  9  2  1  0
 10  9  1  0
 11 10  2  0
 12 11  1  0
 12 13  2  0
 13  8  1  0
 14  3  1  0
 14 15  1  0
 16 14  1  0
 17 14  1  0
  1 18  1  0
  5 19  1  0
 10 20  1  0
 11 21  1  0
 12 22  1  0
 13 23  1  0
M  ISO  6  18  14  19  14  20  14  21  14  22  14  23  14
M  END
>  <minimizedAffinity>  (1) 
-5.12316751

>  <minimizedRMSD>  (1) 
3.49791694

$$$$
