
     RDKit          3D

 46 49  0  0  1  0  0  0  0  0999 V2000
   46.8680   33.3190   43.3960 C   0  0  0  0  0  0  0  0  0  0  0  0
   47.9970   33.0240   43.8920 O   0  0  0  0  0  0  0  0  0  0  0  0
   46.4210   32.9010   42.0990 N   0  0  0  0  0  0  0  0  0  0  0  0
   45.1300   32.3710   41.6700 C   0  0  0  0  0  0  0  0  0  0  0  0
   44.6260   33.1820   40.4670 C   0  0  0  0  0  0  0  0  0  0  0  0
   45.5660   33.0030   39.3070 C   0  0  0  0  0  0  0  0  0  0  0  0
   46.8590   32.3980   39.7810 C   0  0  0  0  0  0  0  0  0  0  0  0
   47.3830   33.0160   41.0350 C   0  0  2  0  0  0  0  0  0  0  0  0
   49.4630   35.0080   41.6550 Cl  0  0  0  0  0  0  0  0  0  0  0  0
   49.7740   33.2630   41.6400 C   0  0  0  0  0  0  0  0  0  0  0  0
   48.7040   32.4140   41.3350 C   0  0  0  0  0  0  0  0  0  0  0  0
   49.0280   31.0820   41.3460 C   0  0  0  0  0  0  0  0  0  0  0  0
   50.2990   30.6310   41.6330 C   0  0  0  0  0  0  0  0  0  0  0  0
   51.3240   31.5040   41.9290 C   0  0  0  0  0  0  0  0  0  0  0  0
   51.0600   32.8580   41.9340 C   0  0  0  0  0  0  0  0  0  0  0  0
   45.4920   35.3310   43.6370 C   0  0  0  0  0  0  0  0  0  0  0  0
   45.9850   34.1320   44.2000 C   0  0  0  0  0  0  0  0  0  0  0  0
   45.6130   33.7840   45.4810 C   0  0  0  0  0  0  0  0  0  0  0  0
   44.7840   34.6050   46.1580 N   0  0  0  0  0  0  0  0  0  0  0  0
   44.3020   35.7600   45.6300 C   0  0  0  0  0  0  0  0  0  0  0  0
   44.6680   36.1000   44.3770 N   0  0  0  0  0  0  0  0  0  0  0  0
   46.1320   32.5550   46.0440 C   0  0  0  0  0  0  0  0  0  0  0  0
   45.6970   31.3500   45.5800 C   0  0  0  0  0  0  0  0  0  0  0  0
   46.2030   30.1860   46.1270 C   0  0  0  0  0  0  0  0  0  0  0  0
   47.1420   30.1870   47.1360 C   0  0  0  0  0  0  0  0  0  0  0  0
   47.5550   31.4420   47.5760 C   0  0  0  0  0  0  0  0  0  0  0  0
   47.0400   32.5450   47.0190 N   0  0  0  0  0  0  0  0  0  0  0  0
   45.2432   31.3157   41.3809 H   0  0  0  0  0  0  0  0  0  0  0  0
   44.4068   32.4460   42.4955 H   0  0  0  0  0  0  0  0  0  0  0  0
   43.6232   32.8303   40.1829 H   0  0  0  0  0  0  0  0  0  0  0  0
   44.5802   34.2470   40.7384 H   0  0  0  0  0  0  0  0  0  0  0  0
   45.7686   33.9819   38.8479 H   0  0  0  0  0  0  0  0  0  0  0  0
   45.1034   32.3327   38.5676 H   0  0  0  0  0  0  0  0  0  0  0  0
   46.6950   31.3258   39.9638 H   0  0  0  0  0  0  0  0  0  0  0  0
   47.6072   32.5784   38.9950 H   0  0  0  0  0  0  0  0  0  0  0  0
   47.5373   34.0982   40.9125 H   0  0  0  0  0  0  0  0  0  0  0  0
   48.2442   30.3449   41.1172 H   0  0  0  0  0  0  0  0  0  0  0  0
   50.4997   29.5495   41.6256 H   0  0  0  0  0  0  0  0  0  0  0  0
   52.3325   31.1284   42.1567 H   0  0  0  0  0  0  0  0  0  0  0  0
   51.8480   33.5901   42.1646 H   0  0  0  0  0  0  0  0  0  0  0  0
   45.7745   35.6304   42.6169 H   0  0  0  0  0  0  0  0  0  0  0  0
   43.6272   36.4047   46.2122 H   0  0  0  0  0  0  0  0  0  0  0  0
   44.9482   31.3039   44.7755 H   0  0  0  0  0  0  0  0  0  0  0  0
   45.8422   29.2208   45.7420 H   0  0  0  0  0  0  0  0  0  0  0  0
   47.5397   29.2560   47.5662 H   0  0  0  0  0  0  0  0  0  0  0  0
   48.3022   31.5268   48.3788 H   0  0  0  0  0  0  0  0  0  0  0  0
  1  2  2  0
  1 17  1  0
  3  1  1  0
  4  3  1  0
  5  4  1  0
  6  7  1  0
  6  5  1  0
  7  8  1  0
  8 11  1  0
  8  3  1  0
 10  9  1  0
 10 15  2  0
 11 12  2  0
 11 10  1  0
 12 13  1  0
 13 14  2  0
 14 15  1  0
 16 17  2  0
 16 21  1  0
 17 18  1  0
 18 22  1  0
 18 19  2  0
 20 19  1  0
 21 20  2  0
 22 27  1  0
 23 22  2  0
 23 24  1  0
 24 25  2  0
 25 26  1  0
 27 26  2  0
  4 28  1  0
  4 29  1  0
  5 30  1  0
  5 31  1  0
  6 32  1  0
  6 33  1  0
  7 34  1  0
  7 35  1  0
  8 36  1  6
 12 37  1  0
 13 38  1  0
 14 39  1  0
 15 40  1  0
 16 41  1  0
 20 42  1  0
 23 43  1  0
 24 44  1  0
 25 45  1  0
 26 46  1  0
M  ISO  8  28  13  29  13  30  13  31  13  32  13  33  13  34  13  35  13
M  ISO  8  36  13  37  14  38  14  39  14  40  14  41  14  42  14  43  14
M  ISO  3  44  14  45  14  46  14
M  END
>  <minimizedAffinity>  (1) 
-5.55187416

>  <minimizedRMSD>  (1) 
1.03822982

$$$$
