
     RDKit          3D

 37 40  0  0  0  0  0  0  0  0999 V2000
   45.5670   32.1060   40.1430 F   0  0  0  0  0  0  0  0  0  0  0  0
   44.6970   33.1400   40.1540 C   0  0  0  0  0  0  0  0  0  0  0  0
   44.7090   34.0180   41.2070 C   0  0  0  0  0  0  0  0  0  0  0  0
   43.8210   35.0810   41.2280 C   0  0  0  0  0  0  0  0  0  0  0  0
   42.9110   35.2920   40.2120 C   0  0  0  0  0  0  0  0  0  0  0  0
   42.9280   34.3970   39.1770 C   0  0  0  0  0  0  0  0  0  0  0  0
   43.7980   33.3290   39.1280 C   0  0  0  0  0  0  0  0  0  0  0  0
   46.1360   33.4120   37.1910 Cl  0  0  0  0  0  0  0  0  0  0  0  0
   44.7500   32.3640   37.0180 C   0  0  0  0  0  0  0  0  0  0  0  0
   43.7420   32.4250   37.9820 C   0  0  0  0  0  0  0  0  0  0  0  0
   42.7010   31.5640   37.7560 C   0  0  0  0  0  0  0  0  0  0  0  0
   42.5640   30.6870   36.7160 C   0  0  0  0  0  0  0  0  0  0  0  0
   43.6080   30.6730   35.7860 C   0  0  0  0  0  0  0  0  0  0  0  0
   44.6980   31.5090   35.9350 C   0  0  0  0  0  0  0  0  0  0  0  0
   46.2040   33.3250   44.3230 C   0  0  0  0  0  0  0  0  0  0  0  0
   47.2110   34.0400   43.7090 C   0  0  0  0  0  0  0  0  0  0  0  0
   46.8100   34.4050   42.4590 C   0  0  0  0  0  0  0  0  0  0  0  0
   45.5770   33.9260   42.3060 N   0  0  0  0  0  0  0  0  0  0  0  0
   45.2130   33.2760   43.4260 N   0  0  0  0  0  0  0  0  0  0  0  0
   47.1890   31.2810   47.1880 C   0  0  0  0  0  0  0  0  0  0  0  0
   46.3360   31.7300   48.2070 C   0  0  0  0  0  0  0  0  0  0  0  0
   45.4210   32.7440   47.8880 C   0  0  0  0  0  0  0  0  0  0  0  0
   45.4330   33.2080   46.6260 N   0  0  0  0  0  0  0  0  0  0  0  0
   46.2580   32.7680   45.6590 C   0  0  0  0  0  0  0  0  0  0  0  0
   47.1620   31.7850   45.9250 N   0  0  0  0  0  0  0  0  0  0  0  0
   43.8417   35.7773   42.0793 H   0  0  0  0  0  0  0  0  0  0  0  0
   42.2073   36.1372   40.2332 H   0  0  0  0  0  0  0  0  0  0  0  0
   42.2172   34.5357   38.3490 H   0  0  0  0  0  0  0  0  0  0  0  0
   41.8846   31.5798   38.4930 H   0  0  0  0  0  0  0  0  0  0  0  0
   41.6857   30.0322   36.6170 H   0  0  0  0  0  0  0  0  0  0  0  0
   43.5610   29.9887   34.9260 H   0  0  0  0  0  0  0  0  0  0  0  0
   45.5153   31.4936   35.1990 H   0  0  0  0  0  0  0  0  0  0  0  0
   48.1862   34.2785   44.1585 H   0  0  0  0  0  0  0  0  0  0  0  0
   47.3896   34.9809   41.7226 H   0  0  0  0  0  0  0  0  0  0  0  0
   47.9122   30.4856   47.4208 H   0  0  0  0  0  0  0  0  0  0  0  0
   46.3830   31.3024   49.2194 H   0  0  0  0  0  0  0  0  0  0  0  0
   44.7229   33.1429   48.6387 H   0  0  0  0  0  0  0  0  0  0  0  0
  1  2  1  0
  2  3  2  0
  3  4  1  0
  3 18  1  0
  5  4  2  0
  6  5  1  0
  7  6  2  0
  7  2  1  0
  9  8  1  0
  9 10  2  0
 10  7  1  0
 11 10  1  0
 12 11  2  0
 13 14  2  0
 13 12  1  0
 14  9  1  0
 15 24  1  0
 16 15  1  0
 17 16  2  0
 18 17  1  0
 18 19  1  0
 19 15  2  0
 20 21  2  0
 22 21  1  0
 23 22  2  0
 24 25  2  0
 24 23  1  0
 25 20  1  0
  4 26  1  0
  5 27  1  0
  6 28  1  0
 11 29  1  0
 12 30  1  0
 13 31  1  0
 14 32  1  0
 16 33  1  0
 17 34  1  0
 20 35  1  0
 21 36  1  0
 22 37  1  0
M  ISO  8  26  14  27  14  28  14  29  14  30  14  31  14  32  14  33  14
M  ISO  4  34  14  35  14  36  14  37  14
M  END
>  <minimizedAffinity>  (1) 
-5.22601318

>  <minimizedRMSD>  (1) 
0.896201849

$$$$
