
     RDKit          3D

 36 39  0  0  0  0  0  0  0  0999 V2000
   44.1600   35.7840   42.2300 O   0  0  0  0  0  0  0  0  0  0  0  0
   43.4020   35.2690   41.1910 C   0  0  0  0  0  0  0  0  0  0  0  0
   43.8680   34.6140   40.0770 C   0  0  0  0  0  0  0  0  0  0  0  0
   42.9820   34.1590   39.1250 C   0  0  0  0  0  0  0  0  0  0  0  0
   41.6180   34.3400   39.2490 C   0  0  0  0  0  0  0  0  0  0  0  0
   40.8160   33.8690   38.2820 N   0  0  0  0  0  0  0  0  0  0  0  0
   39.4790   34.0250   38.3650 C   0  0  0  0  0  0  0  0  0  0  0  0
   38.9740   34.6790   39.4690 C   0  0  0  0  0  0  0  0  0  0  0  0
   39.8030   35.1770   40.4900 C   0  0  0  0  0  0  0  0  0  0  0  0
   41.1730   34.9980   40.3720 C   0  0  0  0  0  0  0  0  0  0  0  0
   42.0360   35.4730   41.3540 C   0  0  0  0  0  0  0  0  0  0  0  0
   44.6250   35.5630   44.6480 C   0  0  0  0  0  0  0  0  0  0  0  0
   44.5750   35.0710   43.3360 C   0  0  0  0  0  0  0  0  0  0  0  0
   44.9820   33.7500   43.1490 C   0  0  0  0  0  0  0  0  0  0  0  0
   45.3940   33.0250   44.2080 N   0  0  0  0  0  0  0  0  0  0  0  0
   45.4300   33.5300   45.4650 C   0  0  0  0  0  0  0  0  0  0  0  0
   45.0360   34.8090   45.6510 N   0  0  0  0  0  0  0  0  0  0  0  0
   47.7110   31.6770   44.9040 Cl  0  0  0  0  0  0  0  0  0  0  0  0
   46.9200   31.8790   46.4710 C   0  0  0  0  0  0  0  0  0  0  0  0
   45.8720   32.7630   46.6260 C   0  0  0  0  0  0  0  0  0  0  0  0
   45.2610   32.9060   47.8770 C   0  0  0  0  0  0  0  0  0  0  0  0
   45.7410   32.1420   48.9200 C   0  0  0  0  0  0  0  0  0  0  0  0
   46.7910   31.2660   48.7360 C   0  0  0  0  0  0  0  0  0  0  0  0
   47.4170   31.1020   47.5140 C   0  0  0  0  0  0  0  0  0  0  0  0
   44.9481   34.4528   39.9451 H   0  0  0  0  0  0  0  0  0  0  0  0
   43.3724   33.6359   38.2396 H   0  0  0  0  0  0  0  0  0  0  0  0
   38.8128   33.6429   37.5775 H   0  0  0  0  0  0  0  0  0  0  0  0
   37.8858   34.8158   39.5539 H   0  0  0  0  0  0  0  0  0  0  0  0
   39.3753   35.6957   41.3606 H   0  0  0  0  0  0  0  0  0  0  0  0
   41.6471   35.9978   42.2390 H   0  0  0  0  0  0  0  0  0  0  0  0
   44.3151   36.5997   44.8460 H   0  0  0  0  0  0  0  0  0  0  0  0
   44.9668   33.3029   42.1441 H   0  0  0  0  0  0  0  0  0  0  0  0
   44.4247   33.6054   48.0236 H   0  0  0  0  0  0  0  0  0  0  0  0
   45.2794   32.2324   49.9144 H   0  0  0  0  0  0  0  0  0  0  0  0
   47.1437   30.6754   49.5944 H   0  0  0  0  0  0  0  0  0  0  0  0
   48.2543   30.4023   47.3748 H   0  0  0  0  0  0  0  0  0  0  0  0
  1 13  1  0
  2 11  1  0
  2  1  1  0
  3  2  2  0
  4  5  2  0
  4  3  1  0
  5 10  1  0
  6  7  2  0
  6  5  1  0
  7  8  1  0
  8  9  2  0
 10  9  1  0
 10 11  2  0
 12 17  2  0
 13 12  1  0
 14 13  2  0
 14 15  1  0
 15 16  2  0
 16 17  1  0
 16 20  1  0
 18 19  1  0
 19 20  2  0
 19 24  1  0
 20 21  1  0
 21 22  2  0
 23 22  1  0
 24 23  2  0
  3 25  1  0
  4 26  1  0
  7 27  1  0
  8 28  1  0
  9 29  1  0
 11 30  1  0
 12 31  1  0
 14 32  1  0
 21 33  1  0
 22 34  1  0
 23 35  1  0
 24 36  1  0
M  ISO  8  25  14  26  14  27  14  28  14  29  14  30  14  31  14  32  14
M  ISO  4  33  14  34  14  35  14  36  14
M  END
>  <minimizedAffinity>  (1) 
-6.90561152

>  <minimizedRMSD>  (1) 
1.19436848

$$$$
