
     RDKit          3D

 35 37  0  0  0  0  0  0  0  0999 V2000
   47.4550   34.0020   39.4170 C   0  0  0  0  0  0  0  0  0  0  0  0
   46.3160   33.5410   39.7910 O   0  0  0  0  0  0  0  0  0  0  0  0
   47.6890   33.4760   38.0610 C   0  0  0  0  0  0  0  0  0  0  0  0
   48.7350   33.8340   37.1660 C   0  0  0  0  0  0  0  0  0  0  0  0
   48.6970   33.1770   35.9650 C   0  0  0  0  0  0  0  0  0  0  0  0
   47.7560   32.2720   35.6560 C   0  0  0  0  0  0  0  0  0  0  0  0
   46.7140   32.2770   37.2460 S   0  0  0  0  0  0  0  0  0  0  0  0
   49.5390   32.4410   33.1890 Cl  0  0  0  0  0  0  0  0  0  0  0  0
   48.1350   31.4190   33.4080 C   0  0  0  0  0  0  0  0  0  0  0  0
   47.4140   31.4400   34.5820 C   0  0  0  0  0  0  0  0  0  0  0  0
   46.3040   30.6580   34.8080 C   0  0  0  0  0  0  0  0  0  0  0  0
   45.8590   29.7820   33.8090 C   0  0  0  0  0  0  0  0  0  0  0  0
   46.5640   29.7350   32.6140 C   0  0  0  0  0  0  0  0  0  0  0  0
   47.6800   30.5400   32.4220 C   0  0  0  0  0  0  0  0  0  0  0  0
   48.0240   34.7860   40.3610 O   0  0  0  0  0  0  0  0  0  0  0  0
   49.3780   35.4750   42.4370 O   0  0  0  0  0  0  0  0  0  0  0  0
   48.7970   34.2770   41.7500 P   0  0  2  0  0  0  0  0  0  0  0  0
   50.0530   33.2630   41.3240 O   0  0  0  0  0  0  0  0  0  0  0  0
   47.6730   33.4750   42.7860 O   0  0  0  0  0  0  0  0  0  0  0  0
   46.1290   35.2910   42.7720 C   0  0  0  0  0  0  0  0  0  0  0  0
   46.6590   34.1920   43.4170 C   0  0  0  0  0  0  0  0  0  0  0  0
   46.1550   33.8480   44.6770 C   0  0  0  0  0  0  0  0  0  0  0  0
   45.1540   34.6380   45.1920 N   0  0  0  0  0  0  0  0  0  0  0  0
   44.6660   35.6930   44.5400 C   0  0  0  0  0  0  0  0  0  0  0  0
   45.1470   36.0220   43.3370 N   0  0  0  0  0  0  0  0  0  0  0  0
   49.5082   34.5751   37.4170 H   0  0  0  0  0  0  0  0  0  0  0  0
   49.4738   33.4016   35.2193 H   0  0  0  0  0  0  0  0  0  0  0  0
   45.7694   30.7204   35.7673 H   0  0  0  0  0  0  0  0  0  0  0  0
   44.9741   29.1481   33.9675 H   0  0  0  0  0  0  0  0  0  0  0  0
   46.2367   29.0555   31.8133 H   0  0  0  0  0  0  0  0  0  0  0  0
   48.2210   30.4836   31.4659 H   0  0  0  0  0  0  0  0  0  0  0  0
   50.4866   32.9130   42.1423 H   0  0  0  0  0  0  0  0  0  0  0  0
   46.5138   35.5750   41.7814 H   0  0  0  0  0  0  0  0  0  0  0  0
   46.5436   32.9816   45.2322 H   0  0  0  0  0  0  0  0  0  0  0  0
   43.8647   36.2950   44.9934 H   0  0  0  0  0  0  0  0  0  0  0  0
  1  2  2  0
  1 15  1  0
  3  1  1  0
  4  3  2  0
  5  4  1  0
  6  5  2  0
  6  7  1  0
  7  3  1  0
  8  9  1  0
  9 10  2  0
 10 11  1  0
 10  6  1  0
 12 11  2  0
 13 12  1  0
 14 13  2  0
 14  9  1  0
 15 17  1  0
 17 16  2  0
 17 19  1  0
 18 17  1  0
 19 21  1  0
 20 25  2  0
 20 21  1  0
 21 22  2  0
 22 23  1  0
 24 23  2  0
 25 24  1  0
  4 26  1  0
  5 27  1  0
 11 28  1  0
 12 29  1  0
 13 30  1  0
 14 31  1  0
 18 32  1  0
 20 33  1  0
 22 34  1  0
 24 35  1  0
M  ISO  8  26  14  27  14  28  14  29  14  30  14  31  14  32   3  33  14
M  ISO  2  34  14  35  14
M  END
>  <minimizedAffinity>  (1) 
-5.42429161

>  <minimizedRMSD>  (1) 
0.293543518

$$$$
