
     RDKit          3D

 22 23  0  0  0  0  0  0  0  0999 V2000
   46.0890   34.7370   43.4400 C   0  0  0  0  0  0  0  0  0  0  0  0
   45.1660   35.7750   43.6670 C   0  0  0  0  0  0  0  0  0  0  0  0
   44.4990   35.8000   44.8880 C   0  0  0  0  0  0  0  0  0  0  0  0
   44.7820   34.8120   45.7950 N   0  0  0  0  0  0  0  0  0  0  0  0
   45.6700   33.8470   45.5240 C   0  0  0  0  0  0  0  0  0  0  0  0
   46.3250   33.7920   44.3690 N   0  0  0  0  0  0  0  0  0  0  0  0
   47.4310   31.6220   44.6960 Cl  0  0  0  0  0  0  0  0  0  0  0  0
   46.7210   31.7360   46.2890 C   0  0  0  0  0  0  0  0  0  0  0  0
   45.9180   32.8280   46.5430 C   0  0  0  0  0  0  0  0  0  0  0  0
   45.3590   32.9130   47.8010 C   0  0  0  0  0  0  0  0  0  0  0  0
   45.5590   31.9730   48.8080 C   0  0  0  0  0  0  0  0  0  0  0  0
   46.3810   30.9170   48.4510 C   0  0  0  0  0  0  0  0  0  0  0  0
   46.9750   30.7580   47.2210 C   0  0  0  0  0  0  0  0  0  0  0  0
   46.7380   34.7720   42.1630 C   0  0  0  0  0  0  0  0  0  0  0  0
   47.8080   35.3940   41.9020 O   0  0  0  0  0  0  0  0  0  0  0  0
   44.9776   36.5431   42.9025 H   0  0  0  0  0  0  0  0  0  0  0  0
   43.7672   36.5883   45.1182 H   0  0  0  0  0  0  0  0  0  0  0  0
   44.7153   33.7771   48.0222 H   0  0  0  0  0  0  0  0  0  0  0  0
   45.1021   32.0615   49.8047 H   0  0  0  0  0  0  0  0  0  0  0  0
   46.5738   30.1452   49.2107 H   0  0  0  0  0  0  0  0  0  0  0  0
   47.6185   29.8950   46.9951 H   0  0  0  0  0  0  0  0  0  0  0  0
   46.2668   34.2117   41.3419 H   0  0  0  0  0  0  0  0  0  0  0  0
  1  2  2  0
  1  6  1  0
  2  3  1  0
  3  4  2  0
  5  4  1  0
  5  9  1  0
  6  5  2  0
  7  8  1  0
  8  9  2  0
  8 13  1  0
  9 10  1  0
 10 11  2  0
 12 11  1  0
 13 12  2  0
 14  1  1  0
 15 14  2  0
  2 16  1  0
  3 17  1  0
 10 18  1  0
 11 19  1  0
 12 20  1  0
 13 21  1  0
 14 22  1  0
M  ISO  7  16  14  17  14  18  14  19  14  20  14  21  14  22   6
M  END
>  <minimizedAffinity>  (1) 
-4.96129894

>  <minimizedRMSD>  (1) 
0.541378379

$$$$
