
     RDKit          3D

 27 28  0  0  0  0  0  0  0  0999 V2000
   42.5470   33.8940   39.4700 C   0  0  0  0  0  0  0  0  0  0  0  0
   41.8160   33.2060   40.4390 C   0  0  0  0  0  0  0  0  0  0  0  0
   42.4910   32.7760   41.5900 C   0  0  0  0  0  0  0  0  0  0  0  0
   43.8050   33.0460   41.7060 N   0  0  0  0  0  0  0  0  0  0  0  0
   44.4820   33.7190   40.7410 C   0  0  0  0  0  0  0  0  0  0  0  0
   43.8690   34.1450   39.6270 N   0  0  0  0  0  0  0  0  0  0  0  0
   45.1480   35.7480   42.8390 Cl  0  0  0  0  0  0  0  0  0  0  0  0
   46.3120   34.9340   41.8550 C   0  0  0  0  0  0  0  0  0  0  0  0
   45.9100   33.9970   40.8960 C   0  0  0  0  0  0  0  0  0  0  0  0
   46.8730   33.3680   40.1290 C   0  0  0  0  0  0  0  0  0  0  0  0
   48.1990   33.6850   40.3360 C   0  0  0  0  0  0  0  0  0  0  0  0
   48.6330   34.6010   41.2700 C   0  0  0  0  0  0  0  0  0  0  0  0
   47.6560   35.2360   42.0450 C   0  0  0  0  0  0  0  0  0  0  0  0
   40.3660   32.9590   40.2120 C   0  0  0  0  0  0  0  0  0  0  0  0
   39.6490   34.1320   40.4090 F   0  0  0  0  0  0  0  0  0  0  0  0
   40.1930   32.6020   38.8880 F   0  0  0  0  0  0  0  0  0  0  0  0
   39.8230   32.0130   41.0180 F   0  0  0  0  0  0  0  0  0  0  0  0
   41.8870   34.3030   38.3680 O   0  0  0  0  0  0  0  0  0  0  0  0
   41.4540   35.6090   38.0530 C   0  0  0  0  0  0  0  0  0  0  0  0
   41.0950   36.2110   39.2650 F   0  0  0  0  0  0  0  0  0  0  0  0
   42.4560   36.2890   37.4190 F   0  0  0  0  0  0  0  0  0  0  0  0
   40.2830   35.5600   37.3270 F   0  0  0  0  0  0  0  0  0  0  0  0
   41.9582   32.2293   42.3820 H   0  0  0  0  0  0  0  0  0  0  0  0
   46.5866   32.6279   39.3672 H   0  0  0  0  0  0  0  0  0  0  0  0
   48.9550   33.1768   39.7193 H   0  0  0  0  0  0  0  0  0  0  0  0
   49.7023   34.8235   41.4007 H   0  0  0  0  0  0  0  0  0  0  0  0
   47.9514   35.9744   42.8049 H   0  0  0  0  0  0  0  0  0  0  0  0
  1  6  2  0
  1  2  1  0
  2  3  2  0
  3  4  1  0
  5  9  1  0
  5  4  2  0
  6  5  1  0
  8 13  2  0
  8  7  1  0
  9  8  1  0
 10 11  1  0
 10  9  2  0
 11 12  2  0
 12 13  1  0
 14 15  1  0
 14  2  1  0
 14 17  1  0
 16 14  1  0
 18  1  1  0
 19 18  1  0
 19 20  1  0
 21 19  1  0
 22 19  1  0
  3 23  1  0
 10 24  1  0
 11 25  1  0
 12 26  1  0
 13 27  1  0
M  ISO  5  23  14  24  14  25  14  26  14  27  14
M  END
>  <minimizedAffinity>  (1) 
-5.41242933

>  <minimizedRMSD>  (1) 
6.57192802

$$$$
