
     RDKit          3D

 47 50  0  0  1  0  0  0  0  0999 V2000
   47.5730   35.4440   41.8760 C   0  0  0  0  0  0  0  0  0  0  0  0
   48.8690   34.7920   41.5170 C   0  0  1  0  0  0  0  0  0  0  0  0
   50.0020   34.9500   42.4950 C   0  0  0  0  0  0  0  0  0  0  0  0
   49.2880   33.6530   42.3250 C   0  0  2  0  0  0  0  0  0  0  0  0
   50.0700   32.6740   41.5730 N   0  0  0  0  0  0  0  0  0  0  0  0
   49.4520   32.2290   40.3780 C   0  0  0  0  0  0  0  0  0  0  0  0
   50.4100   31.2190   39.7680 C   0  0  0  0  0  0  0  0  0  0  0  0
   50.5900   30.0890   40.6100 N   0  0  0  0  0  0  0  0  0  0  0  0
   50.4200   30.3600   42.0250 C   0  0  0  0  0  0  0  0  0  0  0  0
   50.8530   31.7930   42.3280 C   0  0  0  0  0  0  0  0  0  0  0  0
   46.5740   34.3390   42.0690 C   0  0  0  0  0  0  0  0  0  0  0  0
   44.5400   35.7160   44.8920 C   0  0  0  0  0  0  0  0  0  0  0  0
   45.1240   35.5740   43.6160 C   0  0  0  0  0  0  0  0  0  0  0  0
   45.9400   34.5050   43.4180 C   0  0  0  0  0  0  0  0  0  0  0  0
   46.1600   33.6290   44.4290 N   0  0  0  0  0  0  0  0  0  0  0  0
   45.6150   33.7610   45.6190 C   0  0  0  0  0  0  0  0  0  0  0  0
   44.8050   34.8020   45.8590 N   0  0  0  0  0  0  0  0  0  0  0  0
   47.5400   31.5600   44.8000 Cl  0  0  0  0  0  0  0  0  0  0  0  0
   46.7810   31.7250   46.3610 C   0  0  0  0  0  0  0  0  0  0  0  0
   45.9170   32.7600   46.6440 C   0  0  0  0  0  0  0  0  0  0  0  0
   45.3220   32.8830   47.8750 C   0  0  0  0  0  0  0  0  0  0  0  0
   45.5730   31.9690   48.8730 C   0  0  0  0  0  0  0  0  0  0  0  0
   46.4350   30.9250   48.6090 C   0  0  0  0  0  0  0  0  0  0  0  0
   47.0120   30.8240   47.3800 C   0  0  0  0  0  0  0  0  0  0  0  0
   47.2473   36.1124   41.0653 H   0  0  0  0  0  0  0  0  0  0  0  0
   47.6740   36.0504   42.7882 H   0  0  0  0  0  0  0  0  0  0  0  0
   48.7399   34.9711   40.4394 H   0  0  0  0  0  0  0  0  0  0  0  0
   51.0345   35.0664   42.1338 H   0  0  0  0  0  0  0  0  0  0  0  0
   50.2282   35.6205   43.3372 H   0  0  0  0  0  0  0  0  0  0  0  0
   48.7723   32.9565   43.0024 H   0  0  0  0  0  0  0  0  0  0  0  0
   48.4852   31.7540   40.6006 H   0  0  0  0  0  0  0  0  0  0  0  0
   49.2519   33.0639   39.6904 H   0  0  0  0  0  0  0  0  0  0  0  0
   50.0055   30.8827   38.8019 H   0  0  0  0  0  0  0  0  0  0  0  0
   51.3866   31.7084   39.6382 H   0  0  0  0  0  0  0  0  0  0  0  0
   49.9047   29.3708   40.3354 H   0  0  0  0  0  0  0  0  0  0  0  0
   49.3621   30.2318   42.2977 H   0  0  0  0  0  0  0  0  0  0  0  0
   51.0378   29.6608   42.6076 H   0  0  0  0  0  0  0  0  0  0  0  0
   51.9129   31.9220   42.0634 H   0  0  0  0  0  0  0  0  0  0  0  0
   50.7209   32.0029   43.3997 H   0  0  0  0  0  0  0  0  0  0  0  0
   45.8028   34.3944   41.2866 H   0  0  0  0  0  0  0  0  0  0  0  0
   47.0741   33.3614   42.0039 H   0  0  0  0  0  0  0  0  0  0  0  0
   43.8723   36.5645   45.1023 H   0  0  0  0  0  0  0  0  0  0  0  0
   44.9270   36.2995   42.8130 H   0  0  0  0  0  0  0  0  0  0  0  0
   44.6366   33.7219   48.0660 H   0  0  0  0  0  0  0  0  0  0  0  0
   45.0967   32.0689   49.8595 H   0  0  0  0  0  0  0  0  0  0  0  0
   46.6549   30.1787   49.3866 H   0  0  0  0  0  0  0  0  0  0  0  0
   47.6955   29.9833   47.1903 H   0  0  0  0  0  0  0  0  0  0  0  0
  1 11  1  0
  2  1  1  0
  2  4  1  0
  2  3  1  0
  4  3  1  0
  5  4  1  0
  5 10  1  0
  6  5  1  0
  7  6  1  0
  7  8  1  0
  8  9  1  0
  9 10  1  0
 11 14  1  0
 12 17  2  0
 13 12  1  0
 14 13  2  0
 14 15  1  0
 15 16  2  0
 16 17  1  0
 16 20  1  0
 18 19  1  0
 19 20  2  0
 19 24  1  0
 20 21  1  0
 21 22  2  0
 23 22  1  0
 24 23  2  0
  1 25  1  0
  1 26  1  0
  2 27  1  6
  3 28  1  0
  3 29  1  0
  4 30  1  1
  6 31  1  0
  6 32  1  0
  7 33  1  0
  7 34  1  0
  8 35  1  0
  9 36  1  0
  9 37  1  0
 10 38  1  0
 10 39  1  0
 11 40  1  0
 11 41  1  0
 12 42  1  0
 13 43  1  0
 21 44  1  0
 22 45  1  0
 23 46  1  0
 24 47  1  0
M  ISO  8  25   8  26   8  27  13  28  13  29  13  30  13  31  13  32  13
M  ISO  8  33  13  34  13  35   5  36  13  37  13  38  13  39  13  40   8
M  ISO  7  41   8  42  14  43  14  44  14  45  14  46  14  47  14
M  END
>  <minimizedAffinity>  (1) 
-6.11187458

>  <minimizedRMSD>  (1) 
0.668923974

$$$$
