
     RDKit          3D

 47 51  0  0  0  0  0  0  0  0999 V2000
   46.0280   27.9850   47.9240 C   0  0  0  0  0  0  0  0  0  0  0  0
   45.7540   29.3330   47.7960 C   0  0  0  0  0  0  0  0  0  0  0  0
   44.6630   29.6690   46.9920 C   0  0  0  0  0  0  0  0  0  0  0  0
   43.8940   28.7200   46.3580 C   0  0  0  0  0  0  0  0  0  0  0  0
   42.8210   28.7460   45.5490 N   0  0  0  0  0  0  0  0  0  0  0  0
   42.4500   27.5020   45.1990 C   0  0  0  0  0  0  0  0  0  0  0  0
   43.3110   26.5880   45.7970 C   0  0  0  0  0  0  0  0  0  0  0  0
   44.1900   27.3760   46.5030 C   0  0  0  0  0  0  0  0  0  0  0  0
   45.2630   27.0410   47.2950 C   0  0  0  0  0  0  0  0  0  0  0  0
   44.4230   25.6860   49.8990 Cl  0  0  0  0  0  0  0  0  0  0  0  0
   45.3000   24.9000   48.6030 C   0  0  0  0  0  0  0  0  0  0  0  0
   45.6150   25.6370   47.4790 C   0  0  0  0  0  0  0  0  0  0  0  0
   46.3070   25.1100   46.3960 C   0  0  0  0  0  0  0  0  0  0  0  0
   46.7000   23.7790   46.4500 C   0  0  0  0  0  0  0  0  0  0  0  0
   46.3950   23.0060   47.5750 C   0  0  0  0  0  0  0  0  0  0  0  0
   45.7060   23.5800   48.6220 C   0  0  0  0  0  0  0  0  0  0  0  0
   46.4330   30.4860   48.3740 C   0  0  0  0  0  0  0  0  0  0  0  0
   47.6760   30.9370   47.7130 C   0  0  0  0  0  0  0  0  0  0  0  0
   46.6160   33.0540   45.0300 C   0  0  0  0  0  0  0  0  0  0  0  0
   47.2060   31.9700   44.3330 C   0  0  0  0  0  0  0  0  0  0  0  0
   47.6640   31.0660   45.2350 C   0  0  0  0  0  0  0  0  0  0  0  0
   47.3690   31.5710   46.4440 N   0  0  0  0  0  0  0  0  0  0  0  0
   46.7480   32.7490   46.3180 N   0  0  0  0  0  0  0  0  0  0  0  0
   44.4720   35.9370   44.4410 C   0  0  0  0  0  0  0  0  0  0  0  0
   44.8720   36.3850   43.1900 C   0  0  0  0  0  0  0  0  0  0  0  0
   45.8890   35.6880   42.5430 C   0  0  0  0  0  0  0  0  0  0  0  0
   46.4100   34.6260   43.1840 N   0  0  0  0  0  0  0  0  0  0  0  0
   46.0230   34.2000   44.3860 C   0  0  0  0  0  0  0  0  0  0  0  0
   45.0480   34.8670   45.0070 N   0  0  0  0  0  0  0  0  0  0  0  0
   46.8781   27.6642   48.5440 H   0  0  0  0  0  0  0  0  0  0  0  0
   44.4089   30.7311   46.8605 H   0  0  0  0  0  0  0  0  0  0  0  0
   42.3458   29.6053   45.2382 H   0  0  0  0  0  0  0  0  0  0  0  0
   41.6025   27.2481   44.5453 H   0  0  0  0  0  0  0  0  0  0  0  0
   43.2932   25.4907   45.7227 H   0  0  0  0  0  0  0  0  0  0  0  0
   46.5379   25.7310   45.5179 H   0  0  0  0  0  0  0  0  0  0  0  0
   47.2507   23.3331   45.6086 H   0  0  0  0  0  0  0  0  0  0  0  0
   46.7018   21.9508   47.6239 H   0  0  0  0  0  0  0  0  0  0  0  0
   45.4714   22.9652   49.5034 H   0  0  0  0  0  0  0  0  0  0  0  0
   45.7258   31.3284   48.3598 H   0  0  0  0  0  0  0  0  0  0  0  0
   46.7465   30.1585   49.3762 H   0  0  0  0  0  0  0  0  0  0  0  0
   48.1922   31.6582   48.3637 H   0  0  0  0  0  0  0  0  0  0  0  0
   48.3216   30.0652   47.5310 H   0  0  0  0  0  0  0  0  0  0  0  0
   47.2804   31.8769   43.2395 H   0  0  0  0  0  0  0  0  0  0  0  0
   48.1726   30.1146   45.0202 H   0  0  0  0  0  0  0  0  0  0  0  0
   43.6706   36.4676   44.9760 H   0  0  0  0  0  0  0  0  0  0  0  0
   44.4006   37.2630   42.7242 H   0  0  0  0  0  0  0  0  0  0  0  0
   46.2511   35.9927   41.5500 H   0  0  0  0  0  0  0  0  0  0  0  0
  2  1  2  0
  2 17  1  0
  3  2  1  0
  4  8  1  0
  4  3  2  0
  5  4  1  0
  6  5  1  0
  6  7  2  0
  7  8  1  0
  8  9  2  0
  9 12  1  0
  9  1  1  0
 11 16  2  0
 11 10  1  0
 12 11  1  0
 13 14  1  0
 13 12  2  0
 14 15  2  0
 15 16  1  0
 18 17  1  0
 19 23  2  0
 20 19  1  0
 20 21  2  0
 21 22  1  0
 22 18  1  0
 23 22  1  0
 24 29  2  0
 25 24  1  0
 26 27  1  0
 26 25  2  0
 27 28  2  0
 28 29  1  0
 28 19  1  0
  1 30  1  0
  3 31  1  0
  5 32  1  0
  6 33  1  0
  7 34  1  0
 13 35  1  0
 14 36  1  0
 15 37  1  0
 16 38  1  0
 17 39  1  0
 17 40  1  0
 18 41  1  0
 18 42  1  0
 20 43  1  0
 21 44  1  0
 24 45  1  0
 25 46  1  0
 26 47  1  0
M  ISO  8  30  14  31  14  32   9  33  14  34  14  35  14  36  14  37  14
M  ISO  8  38  14  39   8  40   8  41   8  42   8  43  14  44  14  45  14
M  ISO  2  46  14  47  14
M  END
>  <minimizedAffinity>  (1) 
-5.45187187

>  <minimizedRMSD>  (1) 
1.02961552

$$$$
