
     RDKit          3D

 26 27  0  0  0  0  0  0  0  0999 V2000
   44.5470   35.9790   44.5270 C   0  0  0  0  0  0  0  0  0  0  0  0
   45.1860   35.9820   43.2780 C   0  0  0  0  0  0  0  0  0  0  0  0
   46.0920   34.9680   43.0010 C   0  0  0  0  0  0  0  0  0  0  0  0
   46.3260   34.0110   43.9540 N   0  0  0  0  0  0  0  0  0  0  0  0
   45.6940   34.0460   45.1350 C   0  0  0  0  0  0  0  0  0  0  0  0
   44.8140   35.0120   45.4310 N   0  0  0  0  0  0  0  0  0  0  0  0
   47.5420   31.8730   44.3070 Cl  0  0  0  0  0  0  0  0  0  0  0  0
   46.7800   31.9630   45.9000 C   0  0  0  0  0  0  0  0  0  0  0  0
   45.9550   33.0190   46.1370 C   0  0  0  0  0  0  0  0  0  0  0  0
   45.3750   33.0620   47.3880 C   0  0  0  0  0  0  0  0  0  0  0  0
   45.5970   32.1110   48.3640 C   0  0  0  0  0  0  0  0  0  0  0  0
   46.4420   31.0690   48.0590 C   0  0  0  0  0  0  0  0  0  0  0  0
   47.0500   30.9740   46.8250 C   0  0  0  0  0  0  0  0  0  0  0  0
   46.7140   34.9890   41.7590 O   0  0  0  0  0  0  0  0  0  0  0  0
   48.6000   33.2640   41.1100 O   0  0  0  0  0  0  0  0  0  0  0  0
   48.3960   34.6650   41.6590 P   0  0  0  0  0  0  0  0  0  0  0  0
   49.0970   35.8410   40.6820 O   0  0  0  0  0  0  0  0  0  0  0  0
   49.0180   34.7350   43.2270 O   0  0  0  0  0  0  0  0  0  0  0  0
   43.8231   36.7702   44.7717 H   0  0  0  0  0  0  0  0  0  0  0  0
   44.9744   36.7676   42.5377 H   0  0  0  0  0  0  0  0  0  0  0  0
   44.6996   33.8986   47.6203 H   0  0  0  0  0  0  0  0  0  0  0  0
   45.1154   32.1838   49.3503 H   0  0  0  0  0  0  0  0  0  0  0  0
   46.6368   30.2949   48.8159 H   0  0  0  0  0  0  0  0  0  0  0  0
   47.7261   30.1399   46.5860 H   0  0  0  0  0  0  0  0  0  0  0  0
   49.5121   36.5375   41.2501 H   0  0  0  0  0  0  0  0  0  0  0  0
   48.2781   34.6517   43.8795 H   0  0  0  0  0  0  0  0  0  0  0  0
  1  6  2  0
  2  1  1  0
  3  2  2  0
  3  4  1  0
  4  5  2  0
  5  6  1  0
  5  9  1  0
  7  8  1  0
  8  9  2  0
  8 13  1  0
  9 10  1  0
 10 11  2  0
 12 11  1  0
 13 12  2  0
 14  3  1  0
 15 16  2  0
 16 14  1  0
 16 18  1  0
 17 16  1  0
  1 19  1  0
  2 20  1  0
 10 21  1  0
 11 22  1  0
 12 23  1  0
 13 24  1  0
 17 25  1  0
 18 26  1  0
M  ISO  8  19  14  20  14  21  14  22  14  23  14  24  14  25   3  26   3
M  END
>  <minimizedAffinity>  (1) 
-5.93605852

>  <minimizedRMSD>  (1) 
0.113433734

$$$$
