
     RDKit          3D

 33 35  0  0  0  0  0  0  0  0999 V2000
   44.9110   33.4630   41.4360 C   0  0  0  0  0  0  0  0  0  0  0  0
   43.5810   34.1030   41.2500 C   0  0  0  0  0  0  0  0  0  0  0  0
   43.2410   35.2730   42.0240 C   0  0  0  0  0  0  0  0  0  0  0  0
   41.5350   35.6400   41.4110 S   0  0  0  0  0  0  0  0  0  0  0  0
   41.6060   34.1660   40.2430 C   0  0  0  0  0  0  0  0  0  0  0  0
   42.6290   33.7240   40.4300 N   0  0  0  0  0  0  0  0  0  0  0  0
   41.2170   35.8570   37.7060 Cl  0  0  0  0  0  0  0  0  0  0  0  0
   40.1350   34.6140   38.2490 C   0  0  0  0  0  0  0  0  0  0  0  0
   40.3820   33.9140   39.3820 C   0  0  0  0  0  0  0  0  0  0  0  0
   39.6060   32.9250   39.8970 C   0  0  0  0  0  0  0  0  0  0  0  0
   38.4590   32.6000   39.2050 C   0  0  0  0  0  0  0  0  0  0  0  0
   38.1610   33.2890   38.0360 C   0  0  0  0  0  0  0  0  0  0  0  0
   38.9780   34.3030   37.5270 C   0  0  0  0  0  0  0  0  0  0  0  0
   45.9520   33.9320   40.4670 C   0  0  0  0  0  0  0  0  0  0  0  0
   47.3010   34.0540   41.0520 C   0  0  0  0  0  0  0  0  0  0  0  0
   48.2070   33.0080   40.7910 C   0  0  0  0  0  0  0  0  0  0  0  0
   49.4810   33.0820   41.3200 C   0  0  0  0  0  0  0  0  0  0  0  0
   49.8160   34.1670   42.0800 N   0  0  0  0  0  0  0  0  0  0  0  0
   48.9180   35.1510   42.3070 C   0  0  0  0  0  0  0  0  0  0  0  0
   47.7000   35.0740   41.7980 N   0  0  0  0  0  0  0  0  0  0  0  0
   47.6970   31.6050   39.7810 S   0  0  0  0  0  0  0  0  0  0  0  0
   45.2620   33.6838   42.4549 H   0  0  0  0  0  0  0  0  0  0  0  0
   44.7739   32.3858   41.2601 H   0  0  0  0  0  0  0  0  0  0  0  0
   43.8384   35.8054   42.7787 H   0  0  0  0  0  0  0  0  0  0  0  0
   39.8813   32.4056   40.8268 H   0  0  0  0  0  0  0  0  0  0  0  0
   37.7903   31.8077   39.5725 H   0  0  0  0  0  0  0  0  0  0  0  0
   37.2442   33.0258   37.4881 H   0  0  0  0  0  0  0  0  0  0  0  0
   38.7218   34.8337   36.5982 H   0  0  0  0  0  0  0  0  0  0  0  0
   45.6499   34.9180   40.0843 H   0  0  0  0  0  0  0  0  0  0  0  0
   46.0153   33.1726   39.6737 H   0  0  0  0  0  0  0  0  0  0  0  0
   50.2124   32.2820   41.1328 H   0  0  0  0  0  0  0  0  0  0  0  0
   49.2017   36.0204   42.9183 H   0  0  0  0  0  0  0  0  0  0  0  0
   47.3205   30.5693   40.5949 H   0  0  0  0  0  0  0  0  0  0  0  0
  2  1  1  0
  2  3  2  0
  4  3  1  0
  5  6  2  0
  5  4  1  0
  6  2  1  0
  7  8  1  0
  8  9  2  0
  9 10  1  0
  9  5  1  0
 11 10  2  0
 12 11  1  0
 13 12  2  0
 13  8  1  0
 14 15  1  0
 14  1  1  0
 15 20  1  0
 16 15  2  0
 16 17  1  0
 17 18  2  0
 18 19  1  0
 20 19  2  0
 21 16  1  0
  1 22  1  0
  1 23  1  0
  3 24  1  0
 10 25  1  0
 11 26  1  0
 12 27  1  0
 13 28  1  0
 14 29  1  0
 14 30  1  0
 17 31  1  0
 19 32  1  0
 21 33  1  0
M  ISO  8  22   8  23   8  24  14  25  14  26  14  27  14  28  14  29   8
M  ISO  4  30   8  31  14  32  14  33  11
M  END
>  <minimizedAffinity>  (1) 
-5.28662634

>  <minimizedRMSD>  (1) 
1.98759806

$$$$
