
     RDKit          3D

 44 47  0  0  1  0  0  0  0  0999 V2000
   48.3360   34.1020   40.8990 C   0  0  0  0  0  0  0  0  0  0  0  0
   47.7630   34.1070   39.6470 C   0  0  0  0  0  0  0  0  0  0  0  0
   48.1130   33.1990   38.6360 C   0  0  0  0  0  0  0  0  0  0  0  0
   49.0730   32.2930   38.9750 N   0  0  0  0  0  0  0  0  0  0  0  0
   49.6290   32.2910   40.1930 C   0  0  0  0  0  0  0  0  0  0  0  0
   49.2620   33.1790   41.1260 N   0  0  0  0  0  0  0  0  0  0  0  0
   50.6640   31.2840   40.5890 C   0  0  2  0  0  0  0  0  0  0  0  0
   51.2070   31.3280   41.9820 C   0  0  0  0  0  0  0  0  0  0  0  0
   52.0480   31.8010   40.7850 C   0  0  1  0  0  0  0  0  0  0  0  0
   52.3870   32.0510   37.8380 Cl  0  0  0  0  0  0  0  0  0  0  0  0
   53.3120   30.9940   38.9070 C   0  0  0  0  0  0  0  0  0  0  0  0
   53.1250   30.9020   40.2900 C   0  0  0  0  0  0  0  0  0  0  0  0
   53.9210   30.0320   41.0070 C   0  0  0  0  0  0  0  0  0  0  0  0
   54.8720   29.2810   40.3470 C   0  0  0  0  0  0  0  0  0  0  0  0
   55.0640   29.3650   38.9830 C   0  0  0  0  0  0  0  0  0  0  0  0
   54.2720   30.2340   38.2580 C   0  0  0  0  0  0  0  0  0  0  0  0
   47.9500   35.0400   41.9200 C   0  0  0  0  0  0  0  0  0  0  0  0
   46.5000   34.8800   42.2480 C   0  0  0  0  0  0  0  0  0  0  0  0
   44.5780   36.3870   43.9610 Cl  0  0  0  0  0  0  0  0  0  0  0  0
   45.3950   34.9570   44.5030 C   0  0  0  0  0  0  0  0  0  0  0  0
   46.2610   34.3440   43.6220 C   0  0  0  0  0  0  0  0  0  0  0  0
   46.9160   33.2000   44.0520 C   0  0  0  0  0  0  0  0  0  0  0  0
   46.7040   32.6960   45.3180 C   0  0  0  0  0  0  0  0  0  0  0  0
   45.8250   33.3240   46.2030 C   0  0  0  0  0  0  0  0  0  0  0  0
   45.1760   34.4660   45.7640 C   0  0  0  0  0  0  0  0  0  0  0  0
   44.2760   35.1670   46.5750 O   0  0  0  0  0  0  0  0  0  0  0  0
   46.9921   34.8606   39.4283 H   0  0  0  0  0  0  0  0  0  0  0  0
   47.6456   33.2172   37.6404 H   0  0  0  0  0  0  0  0  0  0  0  0
   50.2080   30.4875   39.9827 H   0  0  0  0  0  0  0  0  0  0  0  0
   50.8152   32.0579   42.7057 H   0  0  0  0  0  0  0  0  0  0  0  0
   51.3402   30.5997   42.7955 H   0  0  0  0  0  0  0  0  0  0  0  0
   52.5994   32.7245   40.5544 H   0  0  0  0  0  0  0  0  0  0  0  0
   53.7983   29.9380   42.0961 H   0  0  0  0  0  0  0  0  0  0  0  0
   55.4998   28.5904   40.9292 H   0  0  0  0  0  0  0  0  0  0  0  0
   55.8305   28.7537   38.4843 H   0  0  0  0  0  0  0  0  0  0  0  0
   54.4029   30.3224   37.1694 H   0  0  0  0  0  0  0  0  0  0  0  0
   48.5491   34.8591   42.8246 H   0  0  0  0  0  0  0  0  0  0  0  0
   48.1237   36.0620   41.5521 H   0  0  0  0  0  0  0  0  0  0  0  0
   46.0131   35.8630   42.1670 H   0  0  0  0  0  0  0  0  0  0  0  0
   46.0834   34.1515   41.5369 H   0  0  0  0  0  0  0  0  0  0  0  0
   47.6143   32.6875   43.3740 H   0  0  0  0  0  0  0  0  0  0  0  0
   47.2349   31.7863   45.6353 H   0  0  0  0  0  0  0  0  0  0  0  0
   45.6540   32.9254   47.2139 H   0  0  0  0  0  0  0  0  0  0  0  0
   44.0865   34.8496   47.4934 H   0  0  0  0  0  0  0  0  0  0  0  0
  1  6  1  0
  1 17  1  0
  2  1  2  0
  3  4  2  0
  3  2  1  0
  4  5  1  0
  5  7  1  0
  5  6  2  0
  7  9  1  0
  7  8  1  0
  9  8  1  0
 10 11  1  0
 11 12  2  0
 12  9  1  0
 12 13  1  0
 14 13  2  0
 15 14  1  0
 16 11  1  0
 16 15  2  0
 17 18  1  0
 18 21  1  0
 19 20  1  0
 20 25  2  0
 21 22  2  0
 21 20  1  0
 22 23  1  0
 23 24  2  0
 25 24  1  0
 25 26  1  0
  2 27  1  0
  3 28  1  0
  7 29  1  6
  8 30  1  0
  8 31  1  0
  9 32  1  1
 13 33  1  0
 14 34  1  0
 15 35  1  0
 16 36  1  0
 17 37  1  0
 17 38  1  0
 18 39  1  0
 18 40  1  0
 22 41  1  0
 23 42  1  0
 24 43  1  0
 26 44  1  0
M  ISO  8  27  14  28  14  29  13  30  13  31  13  32  13  33  14  34  14
M  ISO  8  35  14  36  14  37   8  38   8  39   8  40   8  41  14  42  14
M  ISO  2  43  14  44   3
M  END
>  <minimizedAffinity>  (1) 
-6.24427891

>  <minimizedRMSD>  (1) 
0.344616294

$$$$
