
     RDKit          3D

 47 50  0  0  1  0  0  0  0  0999 V2000
   47.4740   32.9630   44.3810 C   0  0  2  0  0  0  0  0  0  0  0  0
   47.3990   33.3700   42.9530 C   0  0  1  0  0  0  0  0  0  0  0  0
   47.3430   32.1700   42.0100 C   0  0  0  0  0  0  0  0  0  0  0  0
   48.4600   31.4080   42.3560 O   0  0  0  0  0  0  0  0  0  0  0  0
   48.2930   30.7710   43.5660 C   0  0  0  0  0  0  0  0  0  0  0  0
   47.3120   31.4350   44.4800 C   0  0  1  0  0  0  0  0  0  0  0  0
   45.0290   36.1670   42.8300 C   0  0  0  0  0  0  0  0  0  0  0  0
   44.0030   35.7170   41.9450 C   0  0  0  0  0  0  0  0  0  0  0  0
   44.1840   34.4200   41.4090 C   0  0  0  0  0  0  0  0  0  0  0  0
   45.2780   33.7050   41.7540 N   0  0  0  0  0  0  0  0  0  0  0  0
   46.2150   34.1870   42.5990 C   0  0  0  0  0  0  0  0  0  0  0  0
   46.0880   35.4210   43.1360 N   0  0  0  0  0  0  0  0  0  0  0  0
   44.8630   37.4120   43.3500 O   0  0  0  0  0  0  0  0  0  0  0  0
   46.5000   33.5540   45.1930 O   0  0  0  0  0  0  0  0  0  0  0  0
   47.4820   31.1060   45.8050 O   0  0  0  0  0  0  0  0  0  0  0  0
   46.3560   28.6610   45.5760 F   0  0  0  0  0  0  0  0  0  0  0  0
   46.1680   29.5030   46.6120 C   0  0  0  0  0  0  0  0  0  0  0  0
   46.7000   30.7570   46.8120 C   0  0  0  0  0  0  0  0  0  0  0  0
   46.3240   31.3800   47.9910 C   0  0  0  0  0  0  0  0  0  0  0  0
   45.4810   30.8510   48.9480 C   0  0  0  0  0  0  0  0  0  0  0  0
   44.9820   29.6010   48.6970 C   0  0  0  0  0  0  0  0  0  0  0  0
   45.3080   28.9100   47.5450 C   0  0  0  0  0  0  0  0  0  0  0  0
   43.0550   28.6550   45.5340 Cl  0  0  0  0  0  0  0  0  0  0  0  0
   43.6490   27.3570   46.5650 C   0  0  0  0  0  0  0  0  0  0  0  0
   44.6880   27.6030   47.4460 C   0  0  0  0  0  0  0  0  0  0  0  0
   45.1420   26.5650   48.2500 C   0  0  0  0  0  0  0  0  0  0  0  0
   44.5810   25.3060   48.1880 C   0  0  0  0  0  0  0  0  0  0  0  0
   43.5460   25.0990   47.2970 C   0  0  0  0  0  0  0  0  0  0  0  0
   43.0520   26.0970   46.4700 C   0  0  0  0  0  0  0  0  0  0  0  0
   48.4546   33.3040   44.7445 H   0  0  0  0  0  0  0  0  0  0  0  0
   48.3170   33.9637   42.8314 H   0  0  0  0  0  0  0  0  0  0  0  0
   47.4029   32.4955   40.9610 H   0  0  0  0  0  0  0  0  0  0  0  0
   46.4035   31.6054   42.1031 H   0  0  0  0  0  0  0  0  0  0  0  0
   47.9434   29.7465   43.3708 H   0  0  0  0  0  0  0  0  0  0  0  0
   49.2678   30.7998   44.0749 H   0  0  0  0  0  0  0  0  0  0  0  0
   46.3195   31.0878   44.1569 H   0  0  0  0  0  0  0  0  0  0  0  0
   43.1295   36.3376   41.6962 H   0  0  0  0  0  0  0  0  0  0  0  0
   43.4406   33.9971   40.7173 H   0  0  0  0  0  0  0  0  0  0  0  0
   44.0667   37.9477   43.1072 H   0  0  0  0  0  0  0  0  0  0  0  0
   46.7334   33.4124   46.1446 H   0  0  0  0  0  0  0  0  0  0  0  0
   46.7327   32.3834   48.1812 H   0  0  0  0  0  0  0  0  0  0  0  0
   45.2240   31.4043   49.8633 H   0  0  0  0  0  0  0  0  0  0  0  0
   44.3058   29.1356   49.4292 H   0  0  0  0  0  0  0  0  0  0  0  0
   45.9679   26.7512   48.9523 H   0  0  0  0  0  0  0  0  0  0  0  0
   44.9473   24.4909   48.8294 H   0  0  0  0  0  0  0  0  0  0  0  0
   43.0933   24.0980   47.2408 H   0  0  0  0  0  0  0  0  0  0  0  0
   42.2259   25.9050   45.7695 H   0  0  0  0  0  0  0  0  0  0  0  0
  1  6  1  0
  1 14  1  0
  2  1  1  0
  3  4  1  0
  3  2  1  0
  4  5  1  0
  5  6  1  0
  6 15  1  0
  7 12  2  0
  7 13  1  0
  8  7  1  0
  9 10  1  0
  9  8  2  0
 10 11  2  0
 11  2  1  0
 11 12  1  0
 15 18  1  0
 16 17  1  0
 17 18  2  0
 17 22  1  0
 18 19  1  0
 19 20  2  0
 21 20  1  0
 22 21  2  0
 23 24  1  0
 24 25  2  0
 25 22  1  0
 25 26  1  0
 27 26  2  0
 28 27  1  0
 29 24  1  0
 29 28  2  0
  1 30  1  1
  2 31  1  6
  3 32  1  0
  3 33  1  0
  5 34  1  0
  5 35  1  0
  6 36  1  6
  8 37  1  0
  9 38  1  0
 13 39  1  0
 14 40  1  0
 19 41  1  0
 20 42  1  0
 21 43  1  0
 26 44  1  0
 27 45  1  0
 28 46  1  0
 29 47  1  0
M  ISO  8  30  13  31  13  32  13  33  13  34  13  35  13  36  13  37  14
M  ISO  8  38  14  39   3  40   3  41  14  42  14  43  14  44  14  45  14
M  ISO  2  46  14  47  14
M  END
>  <minimizedAffinity>  (1) 
-6.07567167

>  <minimizedRMSD>  (1) 
1.12714708

$$$$
