
     RDKit          3D

 45 48  0  0  1  0  0  0  0  0999 V2000
   47.5030   32.8310   43.6410 C   0  0  0  0  0  0  0  0  0  0  0  0
   48.1120   33.3300   42.5660 C   0  0  0  0  0  0  0  0  0  0  0  0
   48.9890   32.4670   41.9460 C   0  0  0  0  0  0  0  0  0  0  0  0
   49.1550   31.1830   42.4900 N   0  0  0  0  0  0  0  0  0  0  0  0
   48.5190   30.7600   43.5580 C   0  0  0  0  0  0  0  0  0  0  0  0
   47.6360   31.5940   44.2010 N   0  0  0  0  0  0  0  0  0  0  0  0
   48.0340   34.6560   42.0660 C   0  0  1  0  0  0  0  0  0  0  0  0
   48.8550   35.2980   41.2070 C   0  0  0  0  0  0  0  0  0  0  0  0
   47.4940   34.9130   40.6520 C   0  0  1  0  0  0  0  0  0  0  0  0
   45.9410   32.2110   40.0880 Cl  0  0  0  0  0  0  0  0  0  0  0  0
   47.1300   32.9230   39.0590 C   0  0  0  0  0  0  0  0  0  0  0  0
   47.6660   34.1330   39.4800 C   0  0  0  0  0  0  0  0  0  0  0  0
   48.5830   34.6170   38.5200 C   0  0  0  0  0  0  0  0  0  0  0  0
   48.9190   34.0050   37.3340 C   0  0  0  0  0  0  0  0  0  0  0  0
   48.3250   32.8220   37.0370 C   0  0  0  0  0  0  0  0  0  0  0  0
   47.4200   32.2710   37.9050 C   0  0  0  0  0  0  0  0  0  0  0  0
   46.4740   33.5050   44.4620 C   0  0  0  0  0  0  0  0  0  0  0  0
   45.9800   33.8710   45.4880 O   0  0  0  0  0  0  0  0  0  0  0  0
   44.5280   31.5770   43.0410 Cl  0  0  0  0  0  0  0  0  0  0  0  0
   44.4830   33.3230   42.8010 C   0  0  0  0  0  0  0  0  0  0  0  0
   45.4350   34.0670   43.5410 C   0  0  0  0  0  0  0  0  0  0  0  0
   45.2940   35.4110   43.2690 C   0  0  0  0  0  0  0  0  0  0  0  0
   44.4600   36.0580   42.4690 C   0  0  0  0  0  0  0  0  0  0  0  0
   43.5700   35.2640   41.7850 C   0  0  0  0  0  0  0  0  0  0  0  0
   43.5690   33.9100   41.9400 C   0  0  0  0  0  0  0  0  0  0  0  0
   42.6330   33.2370   41.2060 O   0  0  0  0  0  0  0  0  0  0  0  0
   40.2840   32.6210   40.2190 O   0  0  0  0  0  0  0  0  0  0  0  0
   40.9990   32.9610   41.5050 P   0  0  0  0  0  0  0  0  0  0  0  0
   40.8480   31.7050   42.6380 O   0  0  0  0  0  0  0  0  0  0  0  0
   40.2750   34.3110   42.2400 O   0  0  0  0  0  0  0  0  0  0  0  0
   49.5447   32.7757   41.0483 H   0  0  0  0  0  0  0  0  0  0  0  0
   48.6923   29.7419   43.9367 H   0  0  0  0  0  0  0  0  0  0  0  0
   47.7662   34.9069   43.1030 H   0  0  0  0  0  0  0  0  0  0  0  0
   49.0856   36.3602   41.3762 H   0  0  0  0  0  0  0  0  0  0  0  0
   49.8847   35.1095   40.8692 H   0  0  0  0  0  0  0  0  0  0  0  0
   46.5013   35.2495   40.3184 H   0  0  0  0  0  0  0  0  0  0  0  0
   49.0757   35.5751   38.7420 H   0  0  0  0  0  0  0  0  0  0  0  0
   49.6473   34.4613   36.6475 H   0  0  0  0  0  0  0  0  0  0  0  0
   48.5705   32.3046   36.0978 H   0  0  0  0  0  0  0  0  0  0  0  0
   46.9346   31.3124   37.6696 H   0  0  0  0  0  0  0  0  0  0  0  0
   45.9974   36.0598   43.8114 H   0  0  0  0  0  0  0  0  0  0  0  0
   44.4781   37.1524   42.3596 H   0  0  0  0  0  0  0  0  0  0  0  0
   42.8459   35.7299   41.1005 H   0  0  0  0  0  0  0  0  0  0  0  0
   40.8930   32.0792   43.5535 H   0  0  0  0  0  0  0  0  0  0  0  0
   40.3252   34.2174   43.2243 H   0  0  0  0  0  0  0  0  0  0  0  0
  1  6  1  0
  1 17  1  0
  2  1  2  0
  3  4  2  0
  3  2  1  0
  4  5  1  0
  5  6  2  0
  7  2  1  0
  8  7  1  0
  9  8  1  0
  9  7  1  0
 11 12  2  0
 11 10  1  0
 12  9  1  0
 13 12  1  0
 14 13  2  0
 15 14  1  0
 15 16  2  0
 16 11  1  0
 17 18  2  0
 20 19  1  0
 20 21  2  0
 21 17  1  0
 22 21  1  0
 23 22  2  0
 24 25  2  0
 24 23  1  0
 25 20  1  0
 26 28  1  0
 26 25  1  0
 27 28  2  0
 28 30  1  0
 28 29  1  0
  3 31  1  0
  5 32  1  0
  7 33  1  1
  8 34  1  0
  8 35  1  0
  9 36  1  1
 13 37  1  0
 14 38  1  0
 15 39  1  0
 16 40  1  0
 22 41  1  0
 23 42  1  0
 24 43  1  0
 29 44  1  0
 30 45  1  0
M  ISO  8  31  14  32  14  33  13  34  13  35  13  36  13  37  14  38  14
M  ISO  7  39  14  40  14  41  14  42  14  43  14  44   3  45   3
M  END
>  <minimizedAffinity>  (1) 
-6.15416908

>  <minimizedRMSD>  (1) 
0.800188184

$$$$
