
     RDKit          3D

 46 49  0  0  0  0  0  0  0  0999 V2000
   40.6370   35.5480   39.2890 C   0  0  0  0  0  0  0  0  0  0  0  0
   39.9170   33.9520   40.9870 C   0  0  0  0  0  0  0  0  0  0  0  0
   40.1040   34.7720   41.9400 O   0  0  0  0  0  0  0  0  0  0  0  0
   40.0680   34.2600   39.6210 N   0  0  0  0  0  0  0  0  0  0  0  0
   39.5100   32.5590   41.3100 C   0  0  0  0  0  0  0  0  0  0  0  0
   38.3510   32.0510   40.7530 C   0  0  0  0  0  0  0  0  0  0  0  0
   37.8620   30.7780   40.9680 C   0  0  0  0  0  0  0  0  0  0  0  0
   38.6190   29.9830   41.8120 C   0  0  0  0  0  0  0  0  0  0  0  0
   39.7610   30.5100   42.3490 C   0  0  0  0  0  0  0  0  0  0  0  0
   40.2060   31.7600   42.1140 N   0  0  0  0  0  0  0  0  0  0  0  0
   42.2750   29.3000   41.1640 Cl  0  0  0  0  0  0  0  0  0  0  0  0
   41.7550   29.0920   42.8380 C   0  0  0  0  0  0  0  0  0  0  0  0
   40.5850   29.7030   43.2410 C   0  0  0  0  0  0  0  0  0  0  0  0
   40.2850   29.4690   44.5650 C   0  0  0  0  0  0  0  0  0  0  0  0
   41.0510   28.7100   45.4190 C   0  0  0  0  0  0  0  0  0  0  0  0
   42.2080   28.1300   44.9450 C   0  0  0  0  0  0  0  0  0  0  0  0
   42.5790   28.3180   43.6290 C   0  0  0  0  0  0  0  0  0  0  0  0
   42.0680   35.4330   38.7530 C   0  0  0  0  0  0  0  0  0  0  0  0
   44.1700   34.2550   41.6790 C   0  0  0  0  0  0  0  0  0  0  0  0
   43.4130   35.1060   40.8280 C   0  0  0  0  0  0  0  0  0  0  0  0
   42.8740   34.5870   39.6670 C   0  0  0  0  0  0  0  0  0  0  0  0
   43.1170   33.2560   39.4140 N   0  0  0  0  0  0  0  0  0  0  0  0
   43.8550   32.4850   40.2700 C   0  0  0  0  0  0  0  0  0  0  0  0
   44.3720   32.9870   41.3890 N   0  0  0  0  0  0  0  0  0  0  0  0
   44.7580   34.8380   42.9260 C   0  0  0  0  0  0  0  0  0  0  0  0
   46.2660   35.2540   42.6970 C   0  0  0  0  0  0  0  0  0  0  0  0
   45.1900   36.1660   43.0910 C   0  0  0  0  0  0  0  0  0  0  0  0
   40.0094   36.0244   38.5214 H   0  0  0  0  0  0  0  0  0  0  0  0
   40.6709   36.1476   40.2106 H   0  0  0  0  0  0  0  0  0  0  0  0
   39.7846   33.5947   38.8876 H   0  0  0  0  0  0  0  0  0  0  0  0
   37.7748   32.7112   40.0881 H   0  0  0  0  0  0  0  0  0  0  0  0
   36.9333   30.4193   40.5002 H   0  0  0  0  0  0  0  0  0  0  0  0
   38.3096   28.9534   42.0447 H   0  0  0  0  0  0  0  0  0  0  0  0
   39.3671   29.9216   44.9682 H   0  0  0  0  0  0  0  0  0  0  0  0
   40.7444   28.5679   46.4658 H   0  0  0  0  0  0  0  0  0  0  0  0
   42.8333   27.5196   45.6131 H   0  0  0  0  0  0  0  0  0  0  0  0
   43.4978   27.8674   43.2256 H   0  0  0  0  0  0  0  0  0  0  0  0
   42.0488   34.9762   37.7525 H   0  0  0  0  0  0  0  0  0  0  0  0
   42.5170   36.4353   38.6909 H   0  0  0  0  0  0  0  0  0  0  0  0
   43.2587   36.1630   41.0906 H   0  0  0  0  0  0  0  0  0  0  0  0
   44.0250   31.4256   40.0278 H   0  0  0  0  0  0  0  0  0  0  0  0
   44.1087   34.2262   43.5696 H   0  0  0  0  0  0  0  0  0  0  0  0
   47.0469   34.9604   43.4139 H   0  0  0  0  0  0  0  0  0  0  0  0
   47.0085   35.1837   41.8885 H   0  0  0  0  0  0  0  0  0  0  0  0
   44.8505   36.9271   42.3730 H   0  0  0  0  0  0  0  0  0  0  0  0
   45.0941   36.8719   43.9291 H   0  0  0  0  0  0  0  0  0  0  0  0
  1  4  1  0
  2  5  1  0
  2  3  2  0
  4  2  1  0
  5 10  2  0
  6  7  2  0
  6  5  1  0
  7  8  1  0
  8  9  2  0
  9 13  1  0
 10  9  1  0
 11 12  1  0
 12 13  2  0
 12 17  1  0
 13 14  1  0
 14 15  2  0
 16 15  1  0
 17 16  2  0
 18  1  1  0
 18 21  1  0
 19 25  1  0
 20 19  2  0
 21 20  1  0
 22 21  2  0
 22 23  1  0
 23 24  2  0
 24 19  1  0
 25 27  1  0
 26 25  1  0
 26 27  1  0
  1 28  1  0
  1 29  1  0
  4 30  1  0
  6 31  1  0
  7 32  1  0
  8 33  1  0
 14 34  1  0
 15 35  1  0
 16 36  1  0
 17 37  1  0
 18 38  1  0
 18 39  1  0
 20 40  1  0
 23 41  1  0
 25 42  1  0
 26 43  1  0
 26 44  1  0
 27 45  1  0
 27 46  1  0
M  ISO  8  28   8  29   8  31  14  32  14  33  14  34  14  35  14  36  14
M  ISO  8  37  14  38   8  39   8  40  14  41  14  42  13  43  13  44  13
M  ISO  2  45  13  46  13
M  END
>  <minimizedAffinity>  (1) 
-5.82646561

>  <minimizedRMSD>  (1) 
3.41065264

$$$$
