
     RDKit          3D

 49 52  0  0  1  0  0  0  0  0999 V2000
   48.7090   32.3050   37.0670 C   0  0  0  0  0  0  0  0  0  0  0  0
   48.0190   33.0350   38.0420 C   0  0  0  0  0  0  0  0  0  0  0  0
   46.7080   33.2920   37.6920 C   0  0  0  0  0  0  0  0  0  0  0  0
   46.0980   32.9000   36.5360 C   0  0  0  0  0  0  0  0  0  0  0  0
   46.8190   32.1860   35.6110 C   0  0  0  0  0  0  0  0  0  0  0  0
   48.1320   31.8990   35.9050 C   0  0  0  0  0  0  0  0  0  0  0  0
   49.3860   31.8140   33.7910 C   0  0  0  0  0  0  0  0  0  0  0  0
   49.1260   33.0640   33.6200 O   0  0  0  0  0  0  0  0  0  0  0  0
   48.8650   31.1520   34.9230 N   0  0  0  0  0  0  0  0  0  0  0  0
   47.8810   30.3040   31.6020 Cl  0  0  0  0  0  0  0  0  0  0  0  0
   49.6170   30.2030   31.9010 C   0  0  0  0  0  0  0  0  0  0  0  0
   50.1920   30.9330   32.9240 C   0  0  0  0  0  0  0  0  0  0  0  0
   51.5530   30.8460   33.1520 C   0  0  0  0  0  0  0  0  0  0  0  0
   52.3780   30.0460   32.3870 C   0  0  0  0  0  0  0  0  0  0  0  0
   51.7670   29.3330   31.3760 C   0  0  0  0  0  0  0  0  0  0  0  0
   50.3950   29.3700   31.0870 C   0  0  0  0  0  0  0  0  0  0  0  0
   48.5700   33.4760   39.2590 N   0  0  0  0  0  0  0  0  0  0  0  0
   47.4740   34.5250   42.4790 N   0  0  0  0  0  0  0  0  0  0  0  0
   47.4570   34.7430   41.0320 C   0  0  0  0  0  0  0  0  0  0  0  0
   48.0840   33.4510   40.6040 C   0  0  2  0  0  0  0  0  0  0  0  0
   49.3080   33.4080   41.5130 C   0  0  0  0  0  0  0  0  0  0  0  0
   48.7770   34.0180   42.7870 C   0  0  0  0  0  0  0  0  0  0  0  0
   44.5640   35.8650   44.3920 C   0  0  0  0  0  0  0  0  0  0  0  0
   45.5090   35.7320   43.3820 C   0  0  0  0  0  0  0  0  0  0  0  0
   46.4870   34.7340   43.4480 C   0  0  0  0  0  0  0  0  0  0  0  0
   46.4490   33.9290   44.5380 N   0  0  0  0  0  0  0  0  0  0  0  0
   45.5400   34.0530   45.5180 C   0  0  0  0  0  0  0  0  0  0  0  0
   44.5980   35.0190   45.4460 N   0  0  0  0  0  0  0  0  0  0  0  0
   51.2140   31.7380   37.5860 N   0  0  0  0  0  0  0  0  0  0  0  0
   50.1060   31.9900   37.3590 C   0  0  0  0  0  0  0  0  0  0  0  0
   46.1011   33.8639   38.4094 H   0  0  0  0  0  0  0  0  0  0  0  0
   45.0440   33.1523   36.3479 H   0  0  0  0  0  0  0  0  0  0  0  0
   46.3622   31.8546   34.6668 H   0  0  0  0  0  0  0  0  0  0  0  0
   49.0098   30.1394   35.0437 H   0  0  0  0  0  0  0  0  0  0  0  0
   51.9933   31.4342   33.9707 H   0  0  0  0  0  0  0  0  0  0  0  0
   53.4602   29.9807   32.5728 H   0  0  0  0  0  0  0  0  0  0  0  0
   52.4024   28.6884   30.7509 H   0  0  0  0  0  0  0  0  0  0  0  0
   49.9559   28.7796   30.2693 H   0  0  0  0  0  0  0  0  0  0  0  0
   49.5043   33.8987   39.1628 H   0  0  0  0  0  0  0  0  0  0  0  0
   46.4347   34.8565   40.6422 H   0  0  0  0  0  0  0  0  0  0  0  0
   47.9594   35.6565   40.6811 H   0  0  0  0  0  0  0  0  0  0  0  0
   47.3725   32.6141   40.6617 H   0  0  0  0  0  0  0  0  0  0  0  0
   49.6479   32.3747   41.6765 H   0  0  0  0  0  0  0  0  0  0  0  0
   50.1831   33.9328   41.1022 H   0  0  0  0  0  0  0  0  0  0  0  0
   49.4341   34.8347   43.1206 H   0  0  0  0  0  0  0  0  0  0  0  0
   48.7351   33.2757   43.5977 H   0  0  0  0  0  0  0  0  0  0  0  0
   43.7961   36.6505   44.3346 H   0  0  0  0  0  0  0  0  0  0  0  0
   45.4878   36.4180   42.5224 H   0  0  0  0  0  0  0  0  0  0  0  0
   45.5620   33.3687   46.3790 H   0  0  0  0  0  0  0  0  0  0  0  0
  1 30  1  0
  1  2  2  0
  2 17  1  0
  3  2  1  0
  4  3  2  0
  5  6  2  0
  5  4  1  0
  6  1  1  0
  7  9  1  0
  8  7  2  0
  9  6  1  0
 10 11  1  0
 11 12  2  0
 12 13  1  0
 12  7  1  0
 14 13  2  0
 15 14  1  0
 16 15  2  0
 16 11  1  0
 17 20  1  0
 18 22  1  0
 18 25  1  0
 19 18  1  0
 20 19  1  0
 20 21  1  0
 21 22  1  0
 23 28  2  0
 24 25  2  0
 24 23  1  0
 25 26  1  0
 26 27  2  0
 28 27  1  0
 30 29  3  0
  3 31  1  0
  4 32  1  0
  5 33  1  0
  9 34  1  0
 13 35  1  0
 14 36  1  0
 15 37  1  0
 16 38  1  0
 17 39  1  0
 19 40  1  0
 19 41  1  0
 20 42  1  6
 21 43  1  0
 21 44  1  0
 22 45  1  0
 22 46  1  0
 23 47  1  0
 24 48  1  0
 27 49  1  0
M  ISO  8  31  14  32  14  33  14  35  14  36  14  37  14  38  14  40  13
M  ISO  8  41  13  42  13  43  13  44  13  45  13  46  13  47  14  48  14
M  ISO  1  49  14
M  END
>  <minimizedAffinity>  (1) 
-5.97322893

>  <minimizedRMSD>  (1) 
0.424191028

$$$$
