
     RDKit          3D

 25 26  0  0  0  0  0  0  0  0999 V2000
   44.6220   36.0800   44.2520 C   0  0  0  0  0  0  0  0  0  0  0  0
   45.4260   35.9490   43.1020 C   0  0  0  0  0  0  0  0  0  0  0  0
   46.3100   34.8540   43.0880 C   0  0  0  0  0  0  0  0  0  0  0  0
   46.3220   34.0280   44.1530 N   0  0  0  0  0  0  0  0  0  0  0  0
   45.5410   34.1820   45.2360 C   0  0  0  0  0  0  0  0  0  0  0  0
   44.6840   35.2170   45.2840 N   0  0  0  0  0  0  0  0  0  0  0  0
   47.1380   34.7350   41.8860 C   0  0  0  0  0  0  0  0  0  0  0  0
   47.9980   33.6440   42.0310 F   0  0  0  0  0  0  0  0  0  0  0  0
   47.9890   35.8500   41.8890 F   0  0  0  0  0  0  0  0  0  0  0  0
   46.4390   34.6140   40.7400 F   0  0  0  0  0  0  0  0  0  0  0  0
   45.5880   33.2630   46.3660 C   0  0  0  0  0  0  0  0  0  0  0  0
   44.8900   33.4570   47.3940 O   0  0  0  0  0  0  0  0  0  0  0  0
   46.0540   32.2670   49.0870 Cl  0  0  0  0  0  0  0  0  0  0  0  0
   46.7010   31.5890   47.5960 C   0  0  0  0  0  0  0  0  0  0  0  0
   46.4560   32.0930   46.3170 C   0  0  0  0  0  0  0  0  0  0  0  0
   47.0220   31.4710   45.2240 C   0  0  0  0  0  0  0  0  0  0  0  0
   47.8200   30.3620   45.4180 C   0  0  0  0  0  0  0  0  0  0  0  0
   48.0590   29.8670   46.6880 C   0  0  0  0  0  0  0  0  0  0  0  0
   47.5020   30.4750   47.7880 C   0  0  0  0  0  0  0  0  0  0  0  0
   43.9153   36.9210   44.3090 H   0  0  0  0  0  0  0  0  0  0  0  0
   45.3662   36.6603   42.2651 H   0  0  0  0  0  0  0  0  0  0  0  0
   46.8395   31.8544   44.2093 H   0  0  0  0  0  0  0  0  0  0  0  0
   48.2736   29.8632   44.5488 H   0  0  0  0  0  0  0  0  0  0  0  0
   48.6986   28.9816   46.8181 H   0  0  0  0  0  0  0  0  0  0  0  0
   47.6884   30.0851   48.7996 H   0  0  0  0  0  0  0  0  0  0  0  0
  1  6  2  0
  2  1  1  0
  3  2  2  0
  3  4  1  0
  4  5  2  0
  5  6  1  0
  5 11  1  0
  7  9  1  0
  7  8  1  0
  7  3  1  0
 10  7  1  0
 11 12  2  0
 14 19  2  0
 14 13  1  0
 15 11  1  0
 15 14  1  0
 16 17  1  0
 16 15  2  0
 17 18  2  0
 18 19  1  0
  1 20  1  0
  2 21  1  0
 16 22  1  0
 17 23  1  0
 18 24  1  0
 19 25  1  0
M  ISO  6  20  14  21  14  22  14  23  14  24  14  25  14
M  END
>  <minimizedAffinity>  (1) 
-5.64830494

>  <minimizedRMSD>  (1) 
0.412346393

$$$$
