
     RDKit          3D

 24 25  0  0  0  0  0  0  0  0999 V2000
   45.0270   36.2310   43.1170 C   0  0  0  0  0  0  0  0  0  0  0  0
   46.1540   35.9010   42.3330 C   0  0  0  0  0  0  0  0  0  0  0  0
   46.8800   34.7700   42.7030 C   0  0  0  0  0  0  0  0  0  0  0  0
   46.4810   34.0460   43.7800 N   0  0  0  0  0  0  0  0  0  0  0  0
   45.3930   34.3910   44.5100 C   0  0  0  0  0  0  0  0  0  0  0  0
   44.6670   35.4920   44.1680 N   0  0  0  0  0  0  0  0  0  0  0  0
   46.0170   32.6730   46.0920 C   0  0  0  0  0  0  0  0  0  0  0  0
   47.1600   32.5080   45.6060 O   0  0  0  0  0  0  0  0  0  0  0  0
   45.0120   33.5940   45.6390 N   0  0  0  0  0  0  0  0  0  0  0  0
   45.3790   29.8410   45.4850 Cl  0  0  0  0  0  0  0  0  0  0  0  0
   45.3900   30.4830   47.1300 C   0  0  0  0  0  0  0  0  0  0  0  0
   45.7080   31.8240   47.2400 C   0  0  0  0  0  0  0  0  0  0  0  0
   45.7160   32.3290   48.5450 C   0  0  0  0  0  0  0  0  0  0  0  0
   45.4260   31.5360   49.6330 C   0  0  0  0  0  0  0  0  0  0  0  0
   45.1120   30.1910   49.4680 C   0  0  0  0  0  0  0  0  0  0  0  0
   45.0980   29.6730   48.1920 C   0  0  0  0  0  0  0  0  0  0  0  0
   44.4318   37.1182   42.8552 H   0  0  0  0  0  0  0  0  0  0  0  0
   46.4470   36.5113   41.4660 H   0  0  0  0  0  0  0  0  0  0  0  0
   47.7675   34.4671   42.1280 H   0  0  0  0  0  0  0  0  0  0  0  0
   44.0896   33.6754   46.0902 H   0  0  0  0  0  0  0  0  0  0  0  0
   45.9608   33.3892   48.7064 H   0  0  0  0  0  0  0  0  0  0  0  0
   45.4429   31.9709   50.6432 H   0  0  0  0  0  0  0  0  0  0  0  0
   44.8804   29.5562   50.3360 H   0  0  0  0  0  0  0  0  0  0  0  0
   44.8532   28.6132   48.0282 H   0  0  0  0  0  0  0  0  0  0  0  0
  1  6  2  0
  2  3  2  0
  2  1  1  0
  3  4  1  0
  4  5  2  0
  5  9  1  0
  6  5  1  0
  7 12  1  0
  8  7  2  0
  9  7  1  0
 10 11  1  0
 11 12  2  0
 11 16  1  0
 12 13  1  0
 13 14  2  0
 15 14  1  0
 16 15  2  0
  1 17  1  0
  2 18  1  0
  3 19  1  0
  9 20  1  0
 13 21  1  0
 14 22  1  0
 15 23  1  0
 16 24  1  0
M  ISO  7  17  14  18  14  19  14  21  14  22  14  23  14  24  14
M  END
>  <minimizedAffinity>  (1) 
-4.86792278

>  <minimizedRMSD>  (1) 
1.27823961

$$$$
