
     RDKit          3D

 24 25  0  0  0  0  0  0  0  0999 V2000
   45.1080   33.8990   46.6850 C   0  0  0  0  0  0  0  0  0  0  0  0
   44.7030   36.2010   43.8130 C   0  0  0  0  0  0  0  0  0  0  0  0
   45.5570   35.6650   42.8750 C   0  0  0  0  0  0  0  0  0  0  0  0
   46.2530   34.5290   43.2420 C   0  0  0  0  0  0  0  0  0  0  0  0
   46.0890   33.9780   44.4720 N   0  0  0  0  0  0  0  0  0  0  0  0
   45.2220   34.5540   45.3700 C   0  0  0  0  0  0  0  0  0  0  0  0
   44.5540   35.6460   45.0230 N   0  0  0  0  0  0  0  0  0  0  0  0
   46.3560   32.6210   46.7670 S   0  0  0  0  0  0  0  0  0  0  0  0
   45.2810   31.3160   49.5870 Cl  0  0  0  0  0  0  0  0  0  0  0  0
   45.3270   30.3100   48.1720 C   0  0  0  0  0  0  0  0  0  0  0  0
   45.7990   30.9940   47.0780 C   0  0  0  0  0  0  0  0  0  0  0  0
   45.8880   30.2520   45.8860 C   0  0  0  0  0  0  0  0  0  0  0  0
   45.5110   28.9040   45.8430 C   0  0  0  0  0  0  0  0  0  0  0  0
   45.0430   28.2780   46.9810 C   0  0  0  0  0  0  0  0  0  0  0  0
   44.9500   28.9900   48.1590 C   0  0  0  0  0  0  0  0  0  0  0  0
   44.1083   33.4538   46.7962 H   0  0  0  0  0  0  0  0  0  0  0  0
   45.2528   34.6308   47.4934 H   0  0  0  0  0  0  0  0  0  0  0  0
   44.1299   37.1059   43.5628 H   0  0  0  0  0  0  0  0  0  0  0  0
   45.6793   36.1196   41.8808 H   0  0  0  0  0  0  0  0  0  0  0  0
   46.9493   34.0649   42.5280 H   0  0  0  0  0  0  0  0  0  0  0  0
   46.2600   30.7389   44.9724 H   0  0  0  0  0  0  0  0  0  0  0  0
   45.5879   28.3426   44.9002 H   0  0  0  0  0  0  0  0  0  0  0  0
   44.7464   27.2192   46.9487 H   0  0  0  0  0  0  0  0  0  0  0  0
   44.5790   28.5069   49.0749 H   0  0  0  0  0  0  0  0  0  0  0  0
  1  8  1  0
  2  7  2  0
  3  4  2  0
  3  2  1  0
  4  5  1  0
  5  6  2  0
  6  1  1  0
  7  6  1  0
  8 11  1  0
 10  9  1  0
 11 10  2  0
 12 11  1  0
 13 12  2  0
 13 14  1  0
 14 15  2  0
 15 10  1  0
  1 16  1  0
  1 17  1  0
  2 18  1  0
  3 19  1  0
  4 20  1  0
 12 21  1  0
 13 22  1  0
 14 23  1  0
 15 24  1  0
M  ISO  8  16   8  17   8  18  14  19  14  20  14  21  14  22  14  23  14
M  ISO  1  24  14
M  END
>  <minimizedAffinity>  (1) 
-4.29386663

>  <minimizedRMSD>  (1) 
2.68750787

$$$$
