
     RDKit          3D

 46 49  0  0  1  0  0  0  0  0999 V2000
   44.5770   35.5820   44.5940 C   0  0  0  0  0  0  0  0  0  0  0  0
   45.2410   35.5940   43.3480 C   0  0  0  0  0  0  0  0  0  0  0  0
   46.3230   34.7000   43.1660 C   0  0  0  0  0  0  0  0  0  0  0  0
   46.6650   33.8830   44.1960 N   0  0  0  0  0  0  0  0  0  0  0  0
   46.0110   33.9010   45.3640 C   0  0  0  0  0  0  0  0  0  0  0  0
   44.9620   34.7510   45.5730 N   0  0  0  0  0  0  0  0  0  0  0  0
   46.4330   32.9840   46.4640 C   0  0  2  0  0  0  0  0  0  0  0  0
   46.9490   31.7490   45.7550 C   0  0  0  0  0  0  0  0  0  0  0  0
   46.0830   30.5700   45.7870 C   0  0  0  0  0  0  0  0  0  0  0  0
   45.8040   30.3000   47.2610 C   0  0  0  0  0  0  0  0  0  0  0  0
   45.0060   31.3820   47.8650 C   0  0  0  0  0  0  0  0  0  0  0  0
   45.3810   32.7460   47.4100 C   0  0  0  0  0  0  0  0  0  0  0  0
   44.6830   33.8780   47.9180 N   0  0  0  0  0  0  0  0  0  0  0  0
   47.0240   34.6870   41.8920 C   0  0  0  0  0  0  0  0  0  0  0  0
   48.1700   35.4310   41.7930 C   0  0  0  0  0  0  0  0  0  0  0  0
   48.7990   35.3690   40.5250 C   0  0  0  0  0  0  0  0  0  0  0  0
   48.1960   34.5800   39.5530 C   0  0  0  0  0  0  0  0  0  0  0  0
   47.0570   33.8430   39.6590 C   0  0  0  0  0  0  0  0  0  0  0  0
   46.4790   33.9320   40.9030 N   0  0  0  0  0  0  0  0  0  0  0  0
   46.5430   33.1020   38.6670 O   0  0  0  0  0  0  0  0  0  0  0  0
   43.9800   32.5040   37.5910 Cl  0  0  0  0  0  0  0  0  0  0  0  0
   45.6090   32.5180   36.8800 C   0  0  0  0  0  0  0  0  0  0  0  0
   46.8770   32.8190   37.4370 C   0  0  0  0  0  0  0  0  0  0  0  0
   47.8910   32.7040   36.5260 C   0  0  0  0  0  0  0  0  0  0  0  0
   47.8180   32.3470   35.2060 C   0  0  0  0  0  0  0  0  0  0  0  0
   46.5730   32.0700   34.7310 C   0  0  0  0  0  0  0  0  0  0  0  0
   45.4320   32.1410   35.5340 C   0  0  0  0  0  0  0  0  0  0  0  0
   43.7313   36.2646   44.7639 H   0  0  0  0  0  0  0  0  0  0  0  0
   44.9273   36.2764   42.5443 H   0  0  0  0  0  0  0  0  0  0  0  0
   47.2211   33.4124   47.1007 H   0  0  0  0  0  0  0  0  0  0  0  0
   47.9074   31.4728   46.2190 H   0  0  0  0  0  0  0  0  0  0  0  0
   47.0203   32.0300   44.6939 H   0  0  0  0  0  0  0  0  0  0  0  0
   45.1441   30.7696   45.2497 H   0  0  0  0  0  0  0  0  0  0  0  0
   46.5576   29.7055   45.2997 H   0  0  0  0  0  0  0  0  0  0  0  0
   45.2510   29.3535   47.3529 H   0  0  0  0  0  0  0  0  0  0  0  0
   46.7665   30.2432   47.7905 H   0  0  0  0  0  0  0  0  0  0  0  0
   44.2010   31.1956   48.5911 H   0  0  0  0  0  0  0  0  0  0  0  0
   43.9210   33.7502   48.5991 H   0  0  0  0  0  0  0  0  0  0  0  0
   44.9400   34.8249   47.6044 H   0  0  0  0  0  0  0  0  0  0  0  0
   48.5683   36.0264   42.6277 H   0  0  0  0  0  0  0  0  0  0  0  0
   49.7267   35.9228   40.3184 H   0  0  0  0  0  0  0  0  0  0  0  0
   48.7021   34.5471   38.5769 H   0  0  0  0  0  0  0  0  0  0  0  0
   48.8993   32.9282   36.9042 H   0  0  0  0  0  0  0  0  0  0  0  0
   48.7120   32.2877   34.5678 H   0  0  0  0  0  0  0  0  0  0  0  0
   46.4610   31.7795   33.6760 H   0  0  0  0  0  0  0  0  0  0  0  0
   44.4345   31.9116   35.1312 H   0  0  0  0  0  0  0  0  0  0  0  0
  1  6  2  0
  2  1  1  0
  3  2  2  0
  3  4  1  0
  4  5  2  0
  5  6  1  0
  5  7  1  0
  7 12  1  0
  8  9  1  0
  8  7  1  0
  9 10  1  0
 10 11  1  0
 12 11  2  0
 12 13  1  0
 14  3  1  0
 15 14  2  0
 16 15  1  0
 17 18  1  0
 17 16  2  0
 18 19  2  0
 19 14  1  0
 20 18  1  0
 22 23  2  0
 22 21  1  0
 23 20  1  0
 24 23  1  0
 25 24  2  0
 26 25  1  0
 26 27  2  0
 27 22  1  0
  1 28  1  0
  2 29  1  0
  7 30  1  1
  8 31  1  0
  8 32  1  0
  9 33  1  0
  9 34  1  0
 10 35  1  0
 10 36  1  0
 11 37  1  0
 13 38  1  0
 13 39  1  0
 15 40  1  0
 16 41  1  0
 17 42  1  0
 24 43  1  0
 25 44  1  0
 26 45  1  0
 27 46  1  0
M  ISO  8  28  14  29  14  30  13  31  13  32  13  33  13  34  13  35  13
M  ISO  8  36  13  37  13  40  14  41  14  42  14  43  14  44  14  45  14
M  ISO  1  46  14
M  END
>  <minimizedAffinity>  (1) 
-7.45949411

>  <minimizedRMSD>  (1) 
0.152378917

$$$$
