
     RDKit          3D

 29 31  0  0  1  0  0  0  0  0999 V2000
   45.8860   32.6100   45.2400 C   0  0  1  0  0  0  0  0  0  0  0  0
   47.1380   31.8690   44.8870 C   0  0  0  0  0  0  0  0  0  0  0  0
   46.9200   32.4890   46.2730 C   0  0  2  0  0  0  0  0  0  0  0  0
   44.5870   36.0440   44.6820 C   0  0  0  0  0  0  0  0  0  0  0  0
   45.1290   36.3340   43.3810 C   0  0  0  0  0  0  0  0  0  0  0  0
   45.9330   35.3380   42.7440 C   0  0  0  0  0  0  0  0  0  0  0  0
   46.1510   34.1790   43.3710 N   0  0  0  0  0  0  0  0  0  0  0  0
   45.6190   33.9370   44.6090 C   0  0  0  0  0  0  0  0  0  0  0  0
   44.8490   34.8640   45.2480 N   0  0  0  0  0  0  0  0  0  0  0  0
   46.8340   31.5930   47.3720 N   0  0  0  0  0  0  0  0  0  0  0  0
   47.3640   28.7230   46.7960 Cl  0  0  0  0  0  0  0  0  0  0  0  0
   48.2780   29.6980   47.9350 C   0  0  0  0  0  0  0  0  0  0  0  0
   47.9190   31.0200   48.1010 C   0  0  0  0  0  0  0  0  0  0  0  0
   48.6280   31.7960   48.9910 C   0  0  0  0  0  0  0  0  0  0  0  0
   49.6760   31.2570   49.7010 C   0  0  0  0  0  0  0  0  0  0  0  0
   50.0470   29.9400   49.5480 C   0  0  0  0  0  0  0  0  0  0  0  0
   49.3340   29.1540   48.6500 C   0  0  0  0  0  0  0  0  0  0  0  0
   44.8142   32.3653   45.2038 H   0  0  0  0  0  0  0  0  0  0  0  0
   47.1197   30.7768   44.7575 H   0  0  0  0  0  0  0  0  0  0  0  0
   47.9038   31.9412   44.1007 H   0  0  0  0  0  0  0  0  0  0  0  0
   47.4059   33.2313   46.9233 H   0  0  0  0  0  0  0  0  0  0  0  0
   43.9644   36.7857   45.2037 H   0  0  0  0  0  0  0  0  0  0  0  0
   44.9298   37.2975   42.8890 H   0  0  0  0  0  0  0  0  0  0  0  0
   46.3665   35.5239   41.7502 H   0  0  0  0  0  0  0  0  0  0  0  0
   45.8860   31.3282   47.6756 H   0  0  0  0  0  0  0  0  0  0  0  0
   48.3550   32.8518   49.1349 H   0  0  0  0  0  0  0  0  0  0  0  0
   50.2302   31.8929   50.4071 H   0  0  0  0  0  0  0  0  0  0  0  0
   50.8864   29.5203   50.1218 H   0  0  0  0  0  0  0  0  0  0  0  0
   49.6082   28.0984   48.5064 H   0  0  0  0  0  0  0  0  0  0  0  0
  1  3  1  0
  2  1  1  0
  2  3  1  0
  3 10  1  0
  4  9  2  0
  5  4  1  0
  6  7  1  0
  6  5  2  0
  7  8  2  0
  8  1  1  0
  8  9  1  0
 10 13  1  0
 11 12  1  0
 12 13  2  0
 12 17  1  0
 13 14  1  0
 14 15  2  0
 16 15  1  0
 17 16  2  0
  1 18  1  1
  2 19  1  0
  2 20  1  0
  3 21  1  1
  4 22  1  0
  5 23  1  0
  6 24  1  0
 10 25  1  0
 14 26  1  0
 15 27  1  0
 16 28  1  0
 17 29  1  0
M  ISO  8  18  13  19  13  20  13  21  13  22  14  23  14  24  14  26  14
M  ISO  3  27  14  28  14  29  14
M  END
>  <minimizedAffinity>  (1) 
-4.54919147

>  <minimizedRMSD>  (1) 
3.77686501

$$$$
