
     RDKit          3D

 36 38  0  0  1  0  0  0  0  0999 V2000
   47.5750   35.2260   41.6810 C   0  0  1  0  0  0  0  0  0  0  0  0
   49.0790   35.4170   41.5490 C   0  0  0  0  0  0  0  0  0  0  0  0
   48.2600   34.9110   40.3830 C   0  0  1  0  0  0  0  0  0  0  0  0
   47.1390   34.0580   42.4670 C   0  0  0  0  0  0  0  0  0  0  0  0
   46.2760   34.3720   43.6180 C   0  0  0  0  0  0  0  0  0  0  0  0
   45.4810   35.4690   43.4220 C   0  0  0  0  0  0  0  0  0  0  0  0
   44.6100   35.9000   44.4390 C   0  0  0  0  0  0  0  0  0  0  0  0
   44.6310   35.1460   45.5950 N   0  0  0  0  0  0  0  0  0  0  0  0
   45.4240   34.0690   45.7590 C   0  0  0  0  0  0  0  0  0  0  0  0
   46.2310   33.6980   44.7750 N   0  0  0  0  0  0  0  0  0  0  0  0
   48.3830   33.5890   40.0460 O   0  0  0  0  0  0  0  0  0  0  0  0
   48.3580   34.6240   37.5870 O   0  0  0  0  0  0  0  0  0  0  0  0
   48.5470   33.3470   38.3890 P   0  0  1  0  0  0  0  0  0  0  0  0
   50.1310   32.7820   38.0900 O   0  0  0  0  0  0  0  0  0  0  0  0
   47.4470   32.1560   37.9030 O   0  0  0  0  0  0  0  0  0  0  0  0
   44.8230   33.2580   37.2530 Cl  0  0  0  0  0  0  0  0  0  0  0  0
   45.8830   32.3350   36.2110 C   0  0  0  0  0  0  0  0  0  0  0  0
   47.1160   31.8450   36.5920 C   0  0  0  0  0  0  0  0  0  0  0  0
   47.8940   31.1250   35.7090 C   0  0  0  0  0  0  0  0  0  0  0  0
   47.3930   30.9110   34.4260 C   0  0  0  0  0  0  0  0  0  0  0  0
   46.1550   31.4010   34.0370 C   0  0  0  0  0  0  0  0  0  0  0  0
   45.3710   32.1310   34.9370 C   0  0  0  0  0  0  0  0  0  0  0  0
   46.7351   35.8671   41.9867 H   0  0  0  0  0  0  0  0  0  0  0  0
   49.5066   36.4302   41.5247 H   0  0  0  0  0  0  0  0  0  0  0  0
   49.9636   35.0597   42.0966 H   0  0  0  0  0  0  0  0  0  0  0  0
   48.1283   35.2273   39.3377 H   0  0  0  0  0  0  0  0  0  0  0  0
   46.5842   33.3838   41.7979 H   0  0  0  0  0  0  0  0  0  0  0  0
   48.0527   33.6063   42.8808 H   0  0  0  0  0  0  0  0  0  0  0  0
   45.5233   36.0144   42.4677 H   0  0  0  0  0  0  0  0  0  0  0  0
   43.9571   36.7774   44.3212 H   0  0  0  0  0  0  0  0  0  0  0  0
   45.4019   33.5024   46.7016 H   0  0  0  0  0  0  0  0  0  0  0  0
   50.5909   32.6180   38.9512 H   0  0  0  0  0  0  0  0  0  0  0  0
   48.8773   30.7327   36.0076 H   0  0  0  0  0  0  0  0  0  0  0  0
   47.9944   30.3392   33.7039 H   0  0  0  0  0  0  0  0  0  0  0  0
   45.7881   31.2149   33.0168 H   0  0  0  0  0  0  0  0  0  0  0  0
   44.3871   32.5278   34.6463 H   0  0  0  0  0  0  0  0  0  0  0  0
  1  4  1  0
  2  1  1  0
  3  2  1  0
  3  1  1  0
  4  5  1  0
  5 10  1  0
  6  5  2  0
  6  7  1  0
  7  8  2  0
  8  9  1  0
 10  9  2  0
 11  3  1  0
 13 12  2  0
 13 11  1  0
 14 13  1  0
 15 13  1  0
 17 18  2  0
 17 16  1  0
 18 15  1  0
 19 18  1  0
 20 19  2  0
 21 20  1  0
 21 22  2  0
 22 17  1  0
  1 23  1  6
  2 24  1  0
  2 25  1  0
  3 26  1  6
  4 27  1  0
  4 28  1  0
  6 29  1  0
  7 30  1  0
  9 31  1  0
 14 32  1  0
 19 33  1  0
 20 34  1  0
 21 35  1  0
 22 36  1  0
M  ISO  8  23  13  24  13  25  13  26  13  27   8  28   8  29  14  30  14
M  ISO  6  31  14  32   3  33  14  34  14  35  14  36  14
M  END
>  <minimizedAffinity>  (1) 
-5.18007565

>  <minimizedRMSD>  (1) 
0.847075462

$$$$
