
     RDKit          3D

 49 52  0  0  0  0  0  0  0  0999 V2000
   46.7370   32.6900   44.3420 C   0  0  0  0  0  0  0  0  0  0  0  0
   46.2120   34.6510   42.9840 C   0  0  0  0  0  0  0  0  0  0  0  0
   46.0400   33.9610   44.1850 C   0  0  0  0  0  0  0  0  0  0  0  0
   45.2660   34.3820   45.2010 C   0  0  0  0  0  0  0  0  0  0  0  0
   44.5820   35.5750   45.0720 C   0  0  0  0  0  0  0  0  0  0  0  0
   44.6800   36.3210   43.9400 C   0  0  0  0  0  0  0  0  0  0  0  0
   45.4890   35.8480   42.9210 C   0  0  0  0  0  0  0  0  0  0  0  0
   47.1350   34.1330   41.6430 S   0  0  0  0  0  0  0  0  0  0  0  0
   47.9190   35.4020   41.0900 O   0  0  0  0  0  0  0  0  0  0  0  0
   46.2590   33.7820   40.4950 O   0  0  0  0  0  0  0  0  0  0  0  0
   47.1630   30.9480   41.3610 Cl  0  0  0  0  0  0  0  0  0  0  0  0
   48.6610   31.8050   41.7680 C   0  0  0  0  0  0  0  0  0  0  0  0
   48.5470   33.1790   41.8650 C   0  0  0  0  0  0  0  0  0  0  0  0
   49.7830   33.7670   42.2010 C   0  0  0  0  0  0  0  0  0  0  0  0
   50.9800   33.1470   42.4200 C   0  0  0  0  0  0  0  0  0  0  0  0
   50.9740   31.7760   42.2960 C   0  0  0  0  0  0  0  0  0  0  0  0
   49.8220   31.1010   41.9710 C   0  0  0  0  0  0  0  0  0  0  0  0
   46.0850   31.6910   45.2550 C   0  0  0  0  0  0  0  0  0  0  0  0
   47.0810   32.4780   47.3830 C   0  0  0  0  0  0  0  0  0  0  0  0
   46.9800   31.4770   46.3910 C   0  0  0  0  0  0  0  0  0  0  0  0
   47.7090   30.3160   46.5620 C   0  0  0  0  0  0  0  0  0  0  0  0
   48.4780   30.2000   47.6690 N   0  0  0  0  0  0  0  0  0  0  0  0
   48.5520   31.1570   48.5900 C   0  0  0  0  0  0  0  0  0  0  0  0
   47.8580   32.3130   48.4670 N   0  0  0  0  0  0  0  0  0  0  0  0
   49.4260   30.9310   49.7920 C   0  0  0  0  0  0  0  0  0  0  0  0
   50.7040   31.6170   49.7150 C   0  0  0  0  0  0  0  0  0  0  0  0
   51.8800   31.0960   49.2090 C   0  0  0  0  0  0  0  0  0  0  0  0
   52.8660   32.0400   49.3070 C   0  0  0  0  0  0  0  0  0  0  0  0
   52.2590   33.1180   49.8720 N   0  0  0  0  0  0  0  0  0  0  0  0
   50.9730   32.8750   50.1180 N   0  0  0  0  0  0  0  0  0  0  0  0
   47.7409   32.9031   44.7380 H   0  0  0  0  0  0  0  0  0  0  0  0
   46.7364   32.2257   43.3448 H   0  0  0  0  0  0  0  0  0  0  0  0
   45.1790   33.7852   46.1209 H   0  0  0  0  0  0  0  0  0  0  0  0
   43.9476   35.9271   45.8988 H   0  0  0  0  0  0  0  0  0  0  0  0
   44.1339   37.2703   43.8369 H   0  0  0  0  0  0  0  0  0  0  0  0
   45.5687   36.4507   42.0042 H   0  0  0  0  0  0  0  0  0  0  0  0
   49.7837   34.8626   42.2992 H   0  0  0  0  0  0  0  0  0  0  0  0
   51.8906   33.7072   42.6789 H   0  0  0  0  0  0  0  0  0  0  0  0
   51.9046   31.2128   42.4594 H   0  0  0  0  0  0  0  0  0  0  0  0
   49.8300   30.0053   41.8743 H   0  0  0  0  0  0  0  0  0  0  0  0
   45.1186   32.0805   45.6076 H   0  0  0  0  0  0  0  0  0  0  0  0
   45.9032   30.7449   44.7241 H   0  0  0  0  0  0  0  0  0  0  0  0
   46.5117   33.4119   47.2656 H   0  0  0  0  0  0  0  0  0  0  0  0
   47.6653   29.5072   45.8177 H   0  0  0  0  0  0  0  0  0  0  0  0
   48.8913   31.2896   50.6839 H   0  0  0  0  0  0  0  0  0  0  0  0
   49.6393   29.8529   49.8395 H   0  0  0  0  0  0  0  0  0  0  0  0
   52.0036   30.0848   48.7941 H   0  0  0  0  0  0  0  0  0  0  0  0
   53.9174   31.9473   48.9972 H   0  0  0  0  0  0  0  0  0  0  0  0
   52.7330   34.0079   50.0825 H   0  0  0  0  0  0  0  0  0  0  0  0
  1 18  1  0
  2  3  1  0
  3  1  1  0
  3  4  2  0
  5  4  1  0
  6  5  2  0
  7  2  2  0
  7  6  1  0
  8 13  1  0
  8  2  1  0
  9  8  2  0
 10  8  2  0
 11 12  1  0
 12 13  2  0
 12 17  1  0
 13 14  1  0
 14 15  2  0
 16 15  1  0
 17 16  2  0
 18 20  1  0
 19 24  2  0
 20 21  2  0
 20 19  1  0
 21 22  1  0
 22 23  2  0
 23 25  1  0
 24 23  1  0
 26 25  1  0
 26 30  2  0
 27 28  2  0
 27 26  1  0
 28 29  1  0
 29 30  1  0
  1 31  1  0
  1 32  1  0
  4 33  1  0
  5 34  1  0
  6 35  1  0
  7 36  1  0
 14 37  1  0
 15 38  1  0
 16 39  1  0
 17 40  1  0
 18 41  1  0
 18 42  1  0
 19 43  1  0
 21 44  1  0
 25 45  1  0
 25 46  1  0
 27 47  1  0
 28 48  1  0
 29 49  1  0
M  ISO  8  31   8  32   8  33  14  34  14  35  14  36  14  37  14  38  14
M  ISO  8  39  14  40  14  41   8  42   8  43  14  44  14  45   8  46   8
M  ISO  3  47  14  48  14  49   9
M  END
>  <minimizedAffinity>  (1) 
-6.59056902

>  <minimizedRMSD>  (1) 
0.375957161

$$$$
