
     RDKit          3D

 46 49  0  0  1  0  0  0  0  0999 V2000
   47.9920   32.9740   39.9550 O   0  0  0  0  0  0  0  0  0  0  0  0
   48.1970   34.0370   42.0600 C   0  0  2  0  0  0  0  0  0  0  0  0
   46.8020   33.4260   42.3580 C   0  0  1  0  0  0  0  0  0  0  0  0
   47.1930   32.2310   42.8820 O   0  0  0  0  0  0  0  0  0  0  0  0
   48.1050   31.7230   41.9340 C   0  0  0  0  0  0  0  0  0  0  0  0
   48.6580   32.9300   41.1430 C   0  0  1  0  0  0  0  0  0  0  0  0
   44.6860   36.1000   44.0410 C   0  0  0  0  0  0  0  0  0  0  0  0
   45.3950   35.4760   43.0160 C   0  0  0  0  0  0  0  0  0  0  0  0
   46.0320   34.2840   43.2640 C   0  0  0  0  0  0  0  0  0  0  0  0
   45.9290   33.7730   44.5310 N   0  0  0  0  0  0  0  0  0  0  0  0
   45.2390   34.3900   45.5090 C   0  0  0  0  0  0  0  0  0  0  0  0
   44.6210   35.5510   45.2630 N   0  0  0  0  0  0  0  0  0  0  0  0
   49.0000   33.9770   43.1720 O   0  0  0  0  0  0  0  0  0  0  0  0
   49.1400   32.7840   37.9050 C   0  0  1  0  0  0  0  0  0  0  0  0
   48.5350   33.8140   38.9860 C   0  0  1  0  0  0  0  0  0  0  0  0
   47.5570   34.3310   38.2300 O   0  0  0  0  0  0  0  0  0  0  0  0
   46.8230   33.1510   37.9400 C   0  0  0  0  0  0  0  0  0  0  0  0
   47.8800   32.3110   37.2360 C   0  0  1  0  0  0  0  0  0  0  0  0
   49.8160   33.5970   36.9870 O   0  0  0  0  0  0  0  0  0  0  0  0
   47.8540   32.5940   35.8970 O   0  0  0  0  0  0  0  0  0  0  0  0
   49.0590   33.2470   33.0430 Cl  0  0  0  0  0  0  0  0  0  0  0  0
   48.1120   31.8630   33.4730 C   0  0  0  0  0  0  0  0  0  0  0  0
   47.7210   31.8380   34.7890 C   0  0  0  0  0  0  0  0  0  0  0  0
   46.9530   30.7200   35.1470 C   0  0  0  0  0  0  0  0  0  0  0  0
   46.6160   29.7190   34.2440 C   0  0  0  0  0  0  0  0  0  0  0  0
   47.0540   29.8200   32.9220 C   0  0  0  0  0  0  0  0  0  0  0  0
   47.8060   30.9010   32.5410 C   0  0  0  0  0  0  0  0  0  0  0  0
   48.2047   35.0794   41.7087 H   0  0  0  0  0  0  0  0  0  0  0  0
   46.1102   33.3196   41.5094 H   0  0  0  0  0  0  0  0  0  0  0  0
   48.9261   31.1980   42.4440 H   0  0  0  0  0  0  0  0  0  0  0  0
   47.6114   31.0067   41.2607 H   0  0  0  0  0  0  0  0  0  0  0  0
   49.7334   32.9444   40.9120 H   0  0  0  0  0  0  0  0  0  0  0  0
   44.1739   37.0537   43.8455 H   0  0  0  0  0  0  0  0  0  0  0  0
   45.4442   35.9339   42.0170 H   0  0  0  0  0  0  0  0  0  0  0  0
   45.1834   33.9392   46.5109 H   0  0  0  0  0  0  0  0  0  0  0  0
   48.4391   34.0189   43.9867 H   0  0  0  0  0  0  0  0  0  0  0  0
   49.7883   31.9812   38.2861 H   0  0  0  0  0  0  0  0  0  0  0  0
   49.1866   34.5640   39.4582 H   0  0  0  0  0  0  0  0  0  0  0  0
   46.4658   32.6625   38.8585 H   0  0  0  0  0  0  0  0  0  0  0  0
   45.9120   33.3201   37.3471 H   0  0  0  0  0  0  0  0  0  0  0  0
   47.7528   31.2207   37.3079 H   0  0  0  0  0  0  0  0  0  0  0  0
   50.3665   34.2591   37.4755 H   0  0  0  0  0  0  0  0  0  0  0  0
   46.6029   30.6320   36.1861 H   0  0  0  0  0  0  0  0  0  0  0  0
   46.0119   28.8581   34.5665 H   0  0  0  0  0  0  0  0  0  0  0  0
   46.7976   29.0382   32.1919 H   0  0  0  0  0  0  0  0  0  0  0  0
   48.1594   30.9969   31.5037 H   0  0  0  0  0  0  0  0  0  0  0  0
  1  6  1  0
  2  3  1  0
  2 13  1  0
  3  4  1  0
  3  9  1  0
  5  4  1  0
  6  5  1  0
  6  2  1  0
  7 12  2  0
  8  9  2  0
  8  7  1  0
  9 10  1  0
 10 11  2  0
 12 11  1  0
 14 15  1  0
 15  1  1  0
 16 15  1  0
 17 16  1  0
 18 14  1  0
 18 17  1  0
 19 14  1  0
 20 18  1  0
 21 22  1  0
 22 23  2  0
 23 24  1  0
 23 20  1  0
 25 24  2  0
 26 25  1  0
 27 26  2  0
 27 22  1  0
  2 28  1  6
  3 29  1  6
  5 30  1  0
  5 31  1  0
  6 32  1  6
  7 33  1  0
  8 34  1  0
 11 35  1  0
 13 36  1  0
 14 37  1  1
 15 38  1  1
 17 39  1  0
 17 40  1  0
 18 41  1  6
 19 42  1  0
 24 43  1  0
 25 44  1  0
 26 45  1  0
 27 46  1  0
M  ISO  8  28  13  29  13  30  13  31  13  32  13  33  14  34  14  35  14
M  ISO  8  36   3  37  13  38  13  39  13  40  13  41  13  42   3  43  14
M  ISO  3  44  14  45  14  46  14
M  END
>  <minimizedAffinity>  (1) 
-5.68099546

>  <minimizedRMSD>  (1) 
1.16674566

$$$$
