
     RDKit          3D

 47 49  0  0  0  0  0  0  0  0999 V2000
   45.3830   30.1360   47.2460 C   0  0  0  0  0  0  0  0  0  0  0  0
   46.0090   31.1820   46.6530 C   0  0  0  0  0  0  0  0  0  0  0  0
   46.3030   32.2870   47.4270 C   0  0  0  0  0  0  0  0  0  0  0  0
   45.9910   32.3660   48.7660 C   0  0  0  0  0  0  0  0  0  0  0  0
   45.3560   31.2950   49.3560 C   0  0  0  0  0  0  0  0  0  0  0  0
   45.0560   30.1810   48.5840 C   0  0  0  0  0  0  0  0  0  0  0  0
   44.9340   28.8170   46.1920 S   0  0  0  0  0  0  0  0  0  0  0  0
   45.5660   28.8580   44.8610 O   0  0  0  0  0  0  0  0  0  0  0  0
   43.4230   29.0020   45.9280 O   0  0  0  0  0  0  0  0  0  0  0  0
   42.4760   26.9990   45.9120 Cl  0  0  0  0  0  0  0  0  0  0  0  0
   43.8660   26.4800   46.8430 C   0  0  0  0  0  0  0  0  0  0  0  0
   44.9950   27.2700   46.9930 C   0  0  0  0  0  0  0  0  0  0  0  0
   46.1090   26.8900   47.7210 C   0  0  0  0  0  0  0  0  0  0  0  0
   46.0830   25.6340   48.3360 C   0  0  0  0  0  0  0  0  0  0  0  0
   44.9600   24.8100   48.2050 C   0  0  0  0  0  0  0  0  0  0  0  0
   43.8570   25.2320   47.4610 C   0  0  0  0  0  0  0  0  0  0  0  0
   46.4100   31.2940   45.3280 O   0  0  0  0  0  0  0  0  0  0  0  0
   45.2910   34.2590   43.7770 C   0  0  0  0  0  0  0  0  0  0  0  0
   46.4640   34.7440   43.1650 C   0  0  0  0  0  0  0  0  0  0  0  0
   47.6310   34.0390   43.2960 C   0  0  0  0  0  0  0  0  0  0  0  0
   47.5640   32.9090   44.0190 N   0  0  0  0  0  0  0  0  0  0  0  0
   46.4670   32.4530   44.5910 C   0  0  0  0  0  0  0  0  0  0  0  0
   45.3240   33.1280   44.4730 N   0  0  0  0  0  0  0  0  0  0  0  0
   48.9020   34.4440   42.6830 C   0  0  0  0  0  0  0  0  0  0  0  0
   48.7540   35.6210   41.7630 C   0  0  0  0  0  0  0  0  0  0  0  0
   48.6130   35.2430   40.3550 C   0  0  0  0  0  0  0  0  0  0  0  0
   48.0340   34.3430   39.5720 C   0  0  0  0  0  0  0  0  0  0  0  0
   48.2230   34.1940   38.0750 C   0  0  0  0  0  0  0  0  0  0  0  0
   46.8085   33.1415   46.9534 H   0  0  0  0  0  0  0  0  0  0  0  0
   46.2428   33.2630   49.3507 H   0  0  0  0  0  0  0  0  0  0  0  0
   45.0906   31.3223   50.4232 H   0  0  0  0  0  0  0  0  0  0  0  0
   44.5497   29.3213   49.0472 H   0  0  0  0  0  0  0  0  0  0  0  0
   46.9830   27.5516   47.8126 H   0  0  0  0  0  0  0  0  0  0  0  0
   46.9478   25.2932   48.9242 H   0  0  0  0  0  0  0  0  0  0  0  0
   44.9462   23.8234   48.6913 H   0  0  0  0  0  0  0  0  0  0  0  0
   42.9786   24.5773   47.3626 H   0  0  0  0  0  0  0  0  0  0  0  0
   44.3481   34.8169   43.6784 H   0  0  0  0  0  0  0  0  0  0  0  0
   46.4426   35.6800   42.5875 H   0  0  0  0  0  0  0  0  0  0  0  0
   49.6092   34.7094   43.4826 H   0  0  0  0  0  0  0  0  0  0  0  0
   49.2652   33.5971   42.0823 H   0  0  0  0  0  0  0  0  0  0  0  0
   47.8606   36.1883   42.0631 H   0  0  0  0  0  0  0  0  0  0  0  0
   49.6735   36.2187   41.8489 H   0  0  0  0  0  0  0  0  0  0  0  0
   49.1838   35.9484   39.7332 H   0  0  0  0  0  0  0  0  0  0  0  0
   47.3477   33.6333   40.0572 H   0  0  0  0  0  0  0  0  0  0  0  0
   49.0728   33.5240   37.8776 H   0  0  0  0  0  0  0  0  0  0  0  0
   47.3106   33.7696   37.6307 H   0  0  0  0  0  0  0  0  0  0  0  0
   48.4227   35.1803   37.6307 H   0  0  0  0  0  0  0  0  0  0  0  0
  1  6  2  0
  2  1  1  0
  2  3  2  0
  3  4  1  0
  4  5  2  0
  6  5  1  0
  7 12  1  0
  7  1  1  0
  8  7  2  0
  9  7  2  0
 10 11  1  0
 11 12  2  0
 11 16  1  0
 12 13  1  0
 13 14  2  0
 15 14  1  0
 16 15  2  0
 17  2  1  0
 18 23  2  0
 19 20  2  0
 19 18  1  0
 20 21  1  0
 21 22  2  0
 22 17  1  0
 23 22  1  0
 24 20  1  0
 25 24  1  0
 26 25  1  0
 27 26  2  0
 28 27  1  0
  3 29  1  0
  4 30  1  0
  5 31  1  0
  6 32  1  0
 13 33  1  0
 14 34  1  0
 15 35  1  0
 16 36  1  0
 18 37  1  0
 19 38  1  0
 24 39  1  0
 24 40  1  0
 25 41  1  0
 25 42  1  0
 26 43  1  0
 27 44  1  0
 28 45  1  0
 28 46  1  0
 28 47  1  0
M  ISO  8  29  14  30  14  31  14  32  14  33  14  34  14  35  14  36  14
M  ISO  8  37  14  38  14  39   8  40   8  41   8  42   8  45   8  46   8
M  ISO  1  47   8
M  END
>  <minimizedAffinity>  (1) 
-6.27555656

>  <minimizedRMSD>  (1) 
2.93818641

$$$$
