
     RDKit          3D

 34 36  0  0  0  0  0  0  0  0999 V2000
   46.4150   34.2250   43.4100 C   0  0  0  0  0  0  0  0  0  0  0  0
   47.6030   33.7540   42.9510 C   0  0  0  0  0  0  0  0  0  0  0  0
   48.0550   32.5890   43.5310 C   0  0  0  0  0  0  0  0  0  0  0  0
   47.2720   32.0000   44.5230 N   0  0  0  0  0  0  0  0  0  0  0  0
   46.1090   32.5150   44.9320 C   0  0  0  0  0  0  0  0  0  0  0  0
   45.6350   33.6740   44.3720 N   0  0  0  0  0  0  0  0  0  0  0  0
   45.6730   35.3700   42.9170 C   0  0  0  0  0  0  0  0  0  0  0  0
   45.3060   36.5190   42.8920 O   0  0  0  0  0  0  0  0  0  0  0  0
   44.8310   35.0860   41.7570 N   0  0  0  0  0  0  0  0  0  0  0  0
   43.5920   35.7500   41.4220 C   0  0  0  0  0  0  0  0  0  0  0  0
   42.4080   34.8080   41.4680 C   0  0  0  0  0  0  0  0  0  0  0  0
   42.8800   33.3550   41.4930 C   0  0  0  0  0  0  0  0  0  0  0  0
   43.8830   33.2710   40.3620 C   0  0  0  0  0  0  0  0  0  0  0  0
   45.0670   34.0980   40.7360 C   0  0  0  0  0  0  0  0  0  0  0  0
   48.4340   34.3930   41.9940 C   0  0  0  0  0  0  0  0  0  0  0  0
   48.6660   35.7090   41.7630 C   0  0  0  0  0  0  0  0  0  0  0  0
   49.8230   35.0030   42.4640 C   0  0  0  0  0  0  0  0  0  0  0  0
   49.0078   32.1358   43.2199 H   0  0  0  0  0  0  0  0  0  0  0  0
   45.5307   32.0088   45.7190 H   0  0  0  0  0  0  0  0  0  0  0  0
   43.6756   36.1647   40.4066 H   0  0  0  0  0  0  0  0  0  0  0  0
   43.4219   36.5428   42.1654 H   0  0  0  0  0  0  0  0  0  0  0  0
   41.8179   35.0124   42.3735 H   0  0  0  0  0  0  0  0  0  0  0  0
   41.7926   34.9664   40.5701 H   0  0  0  0  0  0  0  0  0  0  0  0
   43.3562   33.1160   42.4553 H   0  0  0  0  0  0  0  0  0  0  0  0
   42.0517   32.6408   41.3756 H   0  0  0  0  0  0  0  0  0  0  0  0
   43.4344   33.6583   39.4353 H   0  0  0  0  0  0  0  0  0  0  0  0
   44.1834   32.2263   40.1934 H   0  0  0  0  0  0  0  0  0  0  0  0
   45.8551   33.4199   41.0952 H   0  0  0  0  0  0  0  0  0  0  0  0
   45.3451   34.6573   39.8306 H   0  0  0  0  0  0  0  0  0  0  0  0
   48.0422   33.6231   41.3130 H   0  0  0  0  0  0  0  0  0  0  0  0
   48.8022   36.0500   40.7261 H   0  0  0  0  0  0  0  0  0  0  0  0
   48.0933   36.6137   42.0151 H   0  0  0  0  0  0  0  0  0  0  0  0
   50.0396   35.1786   43.5281 H   0  0  0  0  0  0  0  0  0  0  0  0
   50.8968   34.8248   42.3055 H   0  0  0  0  0  0  0  0  0  0  0  0
  1  6  2  0
  2  1  1  0
  2  3  2  0
  3  4  1  0
  4  5  2  0
  6  5  1  0
  7  1  1  0
  8  7  2  0
  9  7  1  0
 10 11  1  0
 10  9  1  0
 11 12  1  0
 13 14  1  0
 13 12  1  0
 14  9  1  0
 15 17  1  0
 15  2  1  0
 16 15  1  0
 16 17  1  0
  3 18  1  0
  5 19  1  0
 10 20  1  0
 10 21  1  0
 11 22  1  0
 11 23  1  0
 12 24  1  0
 12 25  1  0
 13 26  1  0
 13 27  1  0
 14 28  1  0
 14 29  1  0
 15 30  1  0
 16 31  1  0
 16 32  1  0
 17 33  1  0
 17 34  1  0
M  ISO  8  18  14  19  14  20  13  21  13  22  13  23  13  24  13  25  13
M  ISO  8  26  13  27  13  28  13  29  13  30  13  31  13  32  13  33  13
M  ISO  1  34  13
M  END
>  <minimizedAffinity>  (1) 
-4.93165827

>  <minimizedRMSD>  (1) 
0.553975761

$$$$
