
     RDKit          3D

 29 30  0  0  0  0  0  0  0  0999 V2000
   44.9370   35.1180   44.2460 C   0  0  0  0  0  0  0  0  0  0  0  0
   45.6950   35.3500   43.0960 C   0  0  0  0  0  0  0  0  0  0  0  0
   46.8670   34.6160   42.8660 C   0  0  0  0  0  0  0  0  0  0  0  0
   47.2100   33.6920   43.8050 N   0  0  0  0  0  0  0  0  0  0  0  0
   46.4670   33.4830   44.9050 C   0  0  0  0  0  0  0  0  0  0  0  0
   45.3470   34.1920   45.1160 N   0  0  0  0  0  0  0  0  0  0  0  0
   43.7590   35.8630   44.4670 N   0  0  0  0  0  0  0  0  0  0  0  0
   47.5930   34.9080   41.6660 C   0  0  0  0  0  0  0  0  0  0  0  0
   48.5440   35.7530   41.6240 O   0  0  0  0  0  0  0  0  0  0  0  0
   47.4640   34.3910   40.3420 N   0  0  0  0  0  0  0  0  0  0  0  0
   46.1740   33.7270   40.3350 C   0  0  0  0  0  0  0  0  0  0  0  0
   45.9040   33.1280   38.9670 C   0  0  0  0  0  0  0  0  0  0  0  0
   47.0580   32.2110   38.6350 C   0  0  0  0  0  0  0  0  0  0  0  0
   48.3340   33.0150   38.4970 C   0  0  0  0  0  0  0  0  0  0  0  0
   48.2380   34.3700   39.1160 C   0  0  0  0  0  0  0  0  0  0  0  0
   45.3717   36.1100   42.3695 H   0  0  0  0  0  0  0  0  0  0  0  0
   46.7791   32.7249   45.6383 H   0  0  0  0  0  0  0  0  0  0  0  0
   43.4621   36.5724   43.7818 H   0  0  0  0  0  0  0  0  0  0  0  0
   43.1961   35.6973   45.3135 H   0  0  0  0  0  0  0  0  0  0  0  0
   46.1726   32.9266   41.0895 H   0  0  0  0  0  0  0  0  0  0  0  0
   45.3892   34.4618   40.5679 H   0  0  0  0  0  0  0  0  0  0  0  0
   44.9642   32.5566   38.9864 H   0  0  0  0  0  0  0  0  0  0  0  0
   45.8094   33.9203   38.2098 H   0  0  0  0  0  0  0  0  0  0  0  0
   47.1787   31.4710   39.4399 H   0  0  0  0  0  0  0  0  0  0  0  0
   46.8498   31.6973   37.6848 H   0  0  0  0  0  0  0  0  0  0  0  0
   49.1508   32.4633   38.9854 H   0  0  0  0  0  0  0  0  0  0  0  0
   48.5200   33.1561   37.4221 H   0  0  0  0  0  0  0  0  0  0  0  0
   49.2552   34.7235   39.3401 H   0  0  0  0  0  0  0  0  0  0  0  0
   47.7206   35.0198   38.3949 H   0  0  0  0  0  0  0  0  0  0  0  0
  1  7  1  0
  1  6  2  0
  2  1  1  0
  3  2  2  0
  3  4  1  0
  4  5  2  0
  5  6  1  0
  8  3  1  0
  9  8  2  0
 10  8  1  0
 11 10  1  0
 12 11  1  0
 13 12  1  0
 14 13  1  0
 14 15  1  0
 15 10  1  0
  2 16  1  0
  5 17  1  0
  7 18  1  0
  7 19  1  0
 11 20  1  0
 11 21  1  0
 12 22  1  0
 12 23  1  0
 13 24  1  0
 13 25  1  0
 14 26  1  0
 14 27  1  0
 15 28  1  0
 15 29  1  0
M  ISO  8  16  14  17  14  20  13  21  13  22  13  23  13  24  13  25  13
M  ISO  4  26  13  27  13  28  13  29  13
M  END
>  <minimizedAffinity>  (1) 
-4.97406721

>  <minimizedRMSD>  (1) 
0.239480287

$$$$
