
     RDKit          3D

 42 44  0  0  0  0  0  0  0  0999 V2000
   45.1070   34.4760   41.2890 C   0  0  0  0  0  0  0  0  0  0  0  0
   45.4230   35.1570   42.4690 C   0  0  0  0  0  0  0  0  0  0  0  0
   46.7610   35.4330   42.7330 C   0  0  0  0  0  0  0  0  0  0  0  0
   47.7220   35.0420   41.8480 C   0  0  0  0  0  0  0  0  0  0  0  0
   47.4330   34.3750   40.6880 C   0  0  0  0  0  0  0  0  0  0  0  0
   46.0850   34.1050   40.4390 C   0  0  0  0  0  0  0  0  0  0  0  0
   46.2650   32.7660   38.1950 C   0  0  0  0  0  0  0  0  0  0  0  0
   47.4700   32.6260   38.0430 O   0  0  0  0  0  0  0  0  0  0  0  0
   45.6400   33.4250   39.2750 N   0  0  0  0  0  0  0  0  0  0  0  0
   45.4350   32.2090   37.1810 N   0  0  0  0  0  0  0  0  0  0  0  0
   44.5260   31.2060   37.7080 C   0  0  0  0  0  0  0  0  0  0  0  0
   43.2900   31.2310   36.8180 C   0  0  0  0  0  0  0  0  0  0  0  0
   43.6810   30.7300   35.4470 C   0  0  0  0  0  0  0  0  0  0  0  0
   45.0840   31.1560   35.0810 C   0  0  0  0  0  0  0  0  0  0  0  0
   45.3780   32.4930   35.7690 C   0  0  0  0  0  0  0  0  0  0  0  0
   41.4290   34.7950   40.4980 C   0  0  0  0  0  0  0  0  0  0  0  0
   42.7740   35.1720   40.6710 C   0  0  0  0  0  0  0  0  0  0  0  0
   43.6870   34.2180   41.0730 C   0  0  0  0  0  0  0  0  0  0  0  0
   43.2260   32.9590   41.2790 N   0  0  0  0  0  0  0  0  0  0  0  0
   41.9290   32.6130   41.1070 C   0  0  0  0  0  0  0  0  0  0  0  0
   41.0300   33.5380   40.7150 N   0  0  0  0  0  0  0  0  0  0  0  0
   40.4360   35.8070   40.0670 C   0  0  0  0  0  0  0  0  0  0  0  0
   39.2380   35.1470   39.8190 F   0  0  0  0  0  0  0  0  0  0  0  0
   40.8660   36.2930   38.8270 F   0  0  0  0  0  0  0  0  0  0  0  0
   40.2380   36.8010   40.9890 F   0  0  0  0  0  0  0  0  0  0  0  0
   44.6341   35.4665   43.1703 H   0  0  0  0  0  0  0  0  0  0  0  0
   47.0429   35.9653   43.6534 H   0  0  0  0  0  0  0  0  0  0  0  0
   48.7733   35.2722   42.0757 H   0  0  0  0  0  0  0  0  0  0  0  0
   48.2227   34.0670   39.9869 H   0  0  0  0  0  0  0  0  0  0  0  0
   44.6128   33.4087   39.2009 H   0  0  0  0  0  0  0  0  0  0  0  0
   44.9969   30.2124   37.6763 H   0  0  0  0  0  0  0  0  0  0  0  0
   44.2657   31.4168   38.7557 H   0  0  0  0  0  0  0  0  0  0  0  0
   42.5121   30.5801   37.2437 H   0  0  0  0  0  0  0  0  0  0  0  0
   42.8944   32.2550   36.7482 H   0  0  0  0  0  0  0  0  0  0  0  0
   43.6276   29.6313   35.4393 H   0  0  0  0  0  0  0  0  0  0  0  0
   42.9864   31.1610   34.7110 H   0  0  0  0  0  0  0  0  0  0  0  0
   45.8036   30.3968   35.4214 H   0  0  0  0  0  0  0  0  0  0  0  0
   45.1738   31.2644   33.9900 H   0  0  0  0  0  0  0  0  0  0  0  0
   46.3397   32.8983   35.4215 H   0  0  0  0  0  0  0  0  0  0  0  0
   44.6063   33.2425   35.5396 H   0  0  0  0  0  0  0  0  0  0  0  0
   43.0921   36.2091   40.4890 H   0  0  0  0  0  0  0  0  0  0  0  0
   41.6081   31.5764   41.2872 H   0  0  0  0  0  0  0  0  0  0  0  0
  1  2  2  0
  2  3  1  0
  4  3  2  0
  5  4  1  0
  6  5  2  0
  6  1  1  0
  7  9  1  0
  8  7  2  0
  9  6  1  0
 10 11  1  0
 10  7  1  0
 12 11  1  0
 13 12  1  0
 14 13  1  0
 14 15  1  0
 15 10  1  0
 16 17  2  0
 16 21  1  0
 17 18  1  0
 18 19  2  0
 18  1  1  0
 20 19  1  0
 21 20  2  0
 22 16  1  0
 22 25  1  0
 23 22  1  0
 24 22  1  0
  2 26  1  0
  3 27  1  0
  4 28  1  0
  5 29  1  0
  9 30  1  0
 11 31  1  0
 11 32  1  0
 12 33  1  0
 12 34  1  0
 13 35  1  0
 13 36  1  0
 14 37  1  0
 14 38  1  0
 15 39  1  0
 15 40  1  0
 17 41  1  0
 20 42  1  0
M  ISO  8  26  14  27  14  28  14  29  14  31  13  32  13  33  13  34  13
M  ISO  8  35  13  36  13  37  13  38  13  39  13  40  13  41  14  42  14
M  END
>  <minimizedAffinity>  (1) 
-6.34068918

>  <minimizedRMSD>  (1) 
0.833620965

$$$$
