
     RDKit          3D

 34 36  0  0  0  0  0  0  0  0999 V2000
   44.7060   35.5620   44.6310 C   0  0  0  0  0  0  0  0  0  0  0  0
   45.4890   34.7000   43.8300 C   0  0  0  0  0  0  0  0  0  0  0  0
   45.9930   33.5920   44.4770 C   0  0  0  0  0  0  0  0  0  0  0  0
   45.7550   33.3530   45.7780 N   0  0  0  0  0  0  0  0  0  0  0  0
   44.9880   34.2230   46.5060 C   0  0  0  0  0  0  0  0  0  0  0  0
   44.4750   35.3110   45.9280 N   0  0  0  0  0  0  0  0  0  0  0  0
   45.6880   35.0370   42.4710 C   0  0  0  0  0  0  0  0  0  0  0  0
   46.8940   35.4820   42.2440 O   0  0  0  0  0  0  0  0  0  0  0  0
   44.5180   34.8360   41.6170 N   0  0  0  0  0  0  0  0  0  0  0  0
   43.4360   35.7560   41.3010 C   0  0  0  0  0  0  0  0  0  0  0  0
   42.0940   35.0130   41.3300 C   0  0  0  0  0  0  0  0  0  0  0  0
   42.0200   34.0700   40.1770 C   0  0  0  0  0  0  0  0  0  0  0  0
   43.4480   33.7610   39.7450 C   0  0  0  0  0  0  0  0  0  0  0  0
   44.3270   33.5580   40.9480 C   0  0  0  0  0  0  0  0  0  0  0  0
   46.7620   32.6840   43.7610 C   0  0  0  0  0  0  0  0  0  0  0  0
   48.0680   32.6130   43.3840 C   0  0  0  0  0  0  0  0  0  0  0  0
   48.6060   31.6440   42.6730 C   0  0  0  0  0  0  0  0  0  0  0  0
   47.7470   30.6380   42.2990 C   0  0  0  0  0  0  0  0  0  0  0  0
   46.1350   31.1840   43.0370 S   0  0  0  0  0  0  0  0  0  0  0  0
   44.2732   36.4657   44.1770 H   0  0  0  0  0  0  0  0  0  0  0  0
   44.7941   34.0245   47.5704 H   0  0  0  0  0  0  0  0  0  0  0  0
   43.5975   36.1784   40.2983 H   0  0  0  0  0  0  0  0  0  0  0  0
   43.4186   36.5646   42.0466 H   0  0  0  0  0  0  0  0  0  0  0  0
   42.0079   34.4490   42.2705 H   0  0  0  0  0  0  0  0  0  0  0  0
   41.2718   35.7404   41.2607 H   0  0  0  0  0  0  0  0  0  0  0  0
   41.5111   33.1436   40.4817 H   0  0  0  0  0  0  0  0  0  0  0  0
   41.4525   34.5167   39.3473 H   0  0  0  0  0  0  0  0  0  0  0  0
   43.4521   32.8460   39.1345 H   0  0  0  0  0  0  0  0  0  0  0  0
   43.8348   34.6078   39.1591 H   0  0  0  0  0  0  0  0  0  0  0  0
   43.8484   32.8482   41.6387 H   0  0  0  0  0  0  0  0  0  0  0  0
   45.3006   33.1547   40.6327 H   0  0  0  0  0  0  0  0  0  0  0  0
   48.7291   33.4335   43.6996 H   0  0  0  0  0  0  0  0  0  0  0  0
   49.6708   31.6398   42.3970 H   0  0  0  0  0  0  0  0  0  0  0  0
   47.9619   29.7347   41.7093 H   0  0  0  0  0  0  0  0  0  0  0  0
  1  6  2  0
  2  3  2  0
  2  1  1  0
  3  4  1  0
  4  5  2  0
  6  5  1  0
  7  2  1  0
  8  7  2  0
  9  7  1  0
 10 11  1  0
 10  9  1  0
 12 11  1  0
 13 12  1  0
 13 14  1  0
 14  9  1  0
 15  3  1  0
 16 15  2  0
 17 16  1  0
 18 17  2  0
 18 19  1  0
 19 15  1  0
  1 20  1  0
  5 21  1  0
 10 22  1  0
 10 23  1  0
 11 24  1  0
 11 25  1  0
 12 26  1  0
 12 27  1  0
 13 28  1  0
 13 29  1  0
 14 30  1  0
 14 31  1  0
 16 32  1  0
 17 33  1  0
 18 34  1  0
M  ISO  8  20  14  21  14  22  13  23  13  24  13  25  13  26  13  27  13
M  ISO  7  28  13  29  13  30  13  31  13  32  14  33  14  34  14
M  END
>  <minimizedAffinity>  (1) 
-4.6671524

>  <minimizedRMSD>  (1) 
2.14857292

$$$$
