
     RDKit          3D

 27 28  0  0  0  0  0  0  0  0999 V2000
   44.5900   35.7900   44.6490 C   0  0  0  0  0  0  0  0  0  0  0  0
   45.3240   35.5950   43.4750 C   0  0  0  0  0  0  0  0  0  0  0  0
   46.2000   34.5050   43.4680 C   0  0  0  0  0  0  0  0  0  0  0  0
   46.2750   33.7280   44.5760 N   0  0  0  0  0  0  0  0  0  0  0  0
   45.5560   33.9430   45.6840 C   0  0  0  0  0  0  0  0  0  0  0  0
   44.7070   34.9910   45.7100 N   0  0  0  0  0  0  0  0  0  0  0  0
   45.6360   33.1110   46.8700 C   0  0  0  0  0  0  0  0  0  0  0  0
   44.7730   33.1730   47.7960 O   0  0  0  0  0  0  0  0  0  0  0  0
   46.7120   32.1930   47.0150 N   0  0  0  0  0  0  0  0  0  0  0  0
   47.4270   32.0840   48.2850 C   0  0  0  0  0  0  0  0  0  0  0  0
   48.4680   30.9780   48.1540 C   0  0  0  0  0  0  0  0  0  0  0  0
   47.8600   29.6960   47.6850 C   0  0  0  0  0  0  0  0  0  0  0  0
   47.1680   29.8940   46.3580 C   0  0  0  0  0  0  0  0  0  0  0  0
   47.1330   31.3420   45.9160 C   0  0  0  0  0  0  0  0  0  0  0  0
   43.8885   36.6358   44.6993 H   0  0  0  0  0  0  0  0  0  0  0  0
   45.2184   36.2613   42.6061 H   0  0  0  0  0  0  0  0  0  0  0  0
   46.8145   34.2832   42.5830 H   0  0  0  0  0  0  0  0  0  0  0  0
   47.9244   33.0378   48.5150 H   0  0  0  0  0  0  0  0  0  0  0  0
   46.7236   31.8486   49.0973 H   0  0  0  0  0  0  0  0  0  0  0  0
   49.2342   31.2941   47.4309 H   0  0  0  0  0  0  0  0  0  0  0  0
   48.9088   30.8042   49.1467 H   0  0  0  0  0  0  0  0  0  0  0  0
   48.6511   28.9402   47.5716 H   0  0  0  0  0  0  0  0  0  0  0  0
   47.1194   29.3611   48.4262 H   0  0  0  0  0  0  0  0  0  0  0  0
   47.7006   29.3078   45.5946 H   0  0  0  0  0  0  0  0  0  0  0  0
   46.1260   29.5629   46.4791 H   0  0  0  0  0  0  0  0  0  0  0  0
   48.1375   31.6453   45.5860 H   0  0  0  0  0  0  0  0  0  0  0  0
   46.4173   31.4466   45.0872 H   0  0  0  0  0  0  0  0  0  0  0  0
  1  6  2  0
  2  1  1  0
  3  2  2  0
  3  4  1  0
  4  5  2  0
  5  6  1  0
  5  7  1  0
  7  9  1  0
  7  8  2  0
  9 10  1  0
 11 10  1  0
 12 11  1  0
 13 12  1  0
 14 13  1  0
 14  9  1  0
  1 15  1  0
  2 16  1  0
  3 17  1  0
 10 18  1  0
 10 19  1  0
 11 20  1  0
 11 21  1  0
 12 22  1  0
 12 23  1  0
 13 24  1  0
 13 25  1  0
 14 26  1  0
 14 27  1  0
M  ISO  8  15  14  16  14  17  14  18  13  19  13  20  13  21  13  22  13
M  ISO  5  23  13  24  13  25  13  26  13  27  13
M  END
>  <minimizedAffinity>  (1) 
-4.50936985

>  <minimizedRMSD>  (1) 
0.705080092

$$$$
