
     RDKit          3D

 37 38  0  0  0  0  0  0  0  0999 V2000
   46.8110   34.3220   42.0360 C   0  0  0  0  0  0  0  0  0  0  0  0
   45.4380   34.2930   41.9170 C   0  0  0  0  0  0  0  0  0  0  0  0
   44.6790   34.0340   43.0770 C   0  0  0  0  0  0  0  0  0  0  0  0
   45.3440   33.8290   44.2310 N   0  0  0  0  0  0  0  0  0  0  0  0
   46.6870   33.8620   44.3220 C   0  0  0  0  0  0  0  0  0  0  0  0
   47.4100   34.1080   43.2200 N   0  0  0  0  0  0  0  0  0  0  0  0
   47.6630   34.5830   40.8810 C   0  0  0  0  0  0  0  0  0  0  0  0
   48.7650   35.5350   41.2820 C   0  0  0  0  0  0  0  0  0  0  0  0
   44.9110   34.5260   40.6470 O   0  0  0  0  0  0  0  0  0  0  0  0
   44.0510   33.5850   38.3610 O   0  0  0  0  0  0  0  0  0  0  0  0
   43.7500   33.5990   39.8590 P   0  0  1  0  0  0  0  0  0  0  0  0
   43.8590   32.0140   40.4430 O   0  0  0  0  0  0  0  0  0  0  0  0
   42.1710   34.1530   40.1080 O   0  0  0  0  0  0  0  0  0  0  0  0
   39.2320   34.8970   39.6720 N   0  0  0  0  0  0  0  0  0  0  0  0
   38.9020   33.7320   40.4670 C   0  0  0  0  0  0  0  0  0  0  0  0
   40.1810   33.0940   40.9760 C   0  0  0  0  0  0  0  0  0  0  0  0
   41.2780   33.1250   39.9400 C   0  0  0  0  0  0  0  0  0  0  0  0
   40.5660   33.2010   38.5880 C   0  0  0  0  0  0  0  0  0  0  0  0
   39.9590   34.5780   38.4830 C   0  0  0  0  0  0  0  0  0  0  0  0
   43.5801   34.0004   43.0410 H   0  0  0  0  0  0  0  0  0  0  0  0
   47.1845   33.6894   45.2878 H   0  0  0  0  0  0  0  0  0  0  0  0
   47.0635   35.0324   40.0756 H   0  0  0  0  0  0  0  0  0  0  0  0
   48.1014   33.6393   40.5243 H   0  0  0  0  0  0  0  0  0  0  0  0
   48.8242   35.5861   42.3792 H   0  0  0  0  0  0  0  0  0  0  0  0
   49.7238   35.1764   40.8794 H   0  0  0  0  0  0  0  0  0  0  0  0
   48.5495   36.5357   40.8794 H   0  0  0  0  0  0  0  0  0  0  0  0
   43.8582   32.0263   41.4329 H   0  0  0  0  0  0  0  0  0  0  0  0
   38.3568   35.3695   39.4041 H   0  0  0  0  0  0  0  0  0  0  0  0
   38.2773   34.0344   41.3204 H   0  0  0  0  0  0  0  0  0  0  0  0
   38.3497   33.0086   39.8493 H   0  0  0  0  0  0  0  0  0  0  0  0
   40.5197   33.6402   41.8687 H   0  0  0  0  0  0  0  0  0  0  0  0
   39.9656   32.0415   41.2122 H   0  0  0  0  0  0  0  0  0  0  0  0
   41.9042   32.2248   40.0265 H   0  0  0  0  0  0  0  0  0  0  0  0
   41.2871   33.0434   37.7724 H   0  0  0  0  0  0  0  0  0  0  0  0
   39.7908   32.4245   38.5096 H   0  0  0  0  0  0  0  0  0  0  0  0
   40.7610   35.3171   38.3399 H   0  0  0  0  0  0  0  0  0  0  0  0
   39.2678   34.5977   37.6275 H   0  0  0  0  0  0  0  0  0  0  0  0
  1  6  2  0
  2  1  1  0
  2  3  2  0
  3  4  1  0
  4  5  2  0
  6  5  1  0
  7  8  1  0
  7  1  1  0
  9  2  1  0
 11 10  2  0
 11 13  1  0
 11 12  1  0
 11  9  1  0
 14 15  1  0
 15 16  1  0
 17 13  1  0
 17 16  1  0
 18 17  1  0
 19 18  1  0
 19 14  1  0
  3 20  1  0
  5 21  1  0
  7 22  1  0
  7 23  1  0
  8 24  1  0
  8 25  1  0
  8 26  1  0
 12 27  1  0
 14 28  1  0
 15 29  1  0
 15 30  1  0
 16 31  1  0
 16 32  1  0
 17 33  1  0
 18 34  1  0
 18 35  1  0
 19 36  1  0
 19 37  1  0
M  ISO  8  20  14  21  14  22   8  23   8  24   8  25   8  26   8  27   3
M  ISO  8  28   5  29  13  30  13  31  13  32  13  33  13  34  13  35  13
M  ISO  2  36  13  37  13
M  END
>  <minimizedAffinity>  (1) 
-4.46507311

>  <minimizedRMSD>  (1) 
2.1112895

$$$$
