
     RDKit          3D

 29 30  0  0  0  0  0  0  0  0999 V2000
   49.0670   34.1230   41.7840 C   0  0  0  0  0  0  0  0  0  0  0  0
   50.3770   33.8620   42.1920 C   0  0  0  0  0  0  0  0  0  0  0  0
   50.7080   32.5540   42.5370 C   0  0  0  0  0  0  0  0  0  0  0  0
   49.7300   31.5990   42.4560 N   0  0  0  0  0  0  0  0  0  0  0  0
   48.4760   31.8770   42.0610 C   0  0  0  0  0  0  0  0  0  0  0  0
   48.1440   33.1420   41.7230 N   0  0  0  0  0  0  0  0  0  0  0  0
   48.7290   35.5420   41.4150 C   0  0  0  0  0  0  0  0  0  0  0  0
   48.7150   35.7250   40.0600 F   0  0  0  0  0  0  0  0  0  0  0  0
   47.4880   35.8390   41.9780 F   0  0  0  0  0  0  0  0  0  0  0  0
   49.6550   36.3960   42.0350 F   0  0  0  0  0  0  0  0  0  0  0  0
   47.4770   30.9110   41.9760 O   0  0  0  0  0  0  0  0  0  0  0  0
   45.7140   33.4320   43.4370 N   0  0  0  0  0  0  0  0  0  0  0  0
   46.1840   32.7600   44.6540 C   0  0  0  0  0  0  0  0  0  0  0  0
   47.0310   31.6020   44.2060 C   0  0  0  0  0  0  0  0  0  0  0  0
   46.5100   30.8510   43.0330 C   0  0  0  0  0  0  0  0  0  0  0  0
   45.1540   31.2040   42.5500 C   0  0  0  0  0  0  0  0  0  0  0  0
   44.6510   32.5660   42.9430 C   0  0  0  0  0  0  0  0  0  0  0  0
   51.1258   34.6664   42.2395 H   0  0  0  0  0  0  0  0  0  0  0  0
   51.7256   32.2955   42.8651 H   0  0  0  0  0  0  0  0  0  0  0  0
   45.3499   34.3706   43.6546 H   0  0  0  0  0  0  0  0  0  0  0  0
   46.7815   33.4536   45.2638 H   0  0  0  0  0  0  0  0  0  0  0  0
   45.3389   32.4183   45.2697 H   0  0  0  0  0  0  0  0  0  0  0  0
   48.0271   31.9897   43.9464 H   0  0  0  0  0  0  0  0  0  0  0  0
   47.0406   30.8895   45.0440 H   0  0  0  0  0  0  0  0  0  0  0  0
   46.3659   29.8215   43.3927 H   0  0  0  0  0  0  0  0  0  0  0  0
   44.4500   30.4574   42.9462 H   0  0  0  0  0  0  0  0  0  0  0  0
   45.2229   31.2172   41.4522 H   0  0  0  0  0  0  0  0  0  0  0  0
   44.1904   33.0394   42.0634 H   0  0  0  0  0  0  0  0  0  0  0  0
   43.9236   32.4317   43.7571 H   0  0  0  0  0  0  0  0  0  0  0  0
  1  2  2  0
  2  3  1  0
  4  3  2  0
  5  4  1  0
  6  1  1  0
  6  5  2  0
  7  1  1  0
  7  9  1  0
  7 10  1  0
  8  7  1  0
 11  5  1  0
 11 15  1  0
 12 13  1  0
 14 13  1  0
 15 14  1  0
 16 17  1  0
 16 15  1  0
 17 12  1  0
  2 18  1  0
  3 19  1  0
 12 20  1  0
 13 21  1  0
 13 22  1  0
 14 23  1  0
 14 24  1  0
 15 25  1  0
 16 26  1  0
 16 27  1  0
 17 28  1  0
 17 29  1  0
M  ISO  8  18  14  19  14  20   5  21  13  22  13  23  13  24  13  25  13
M  ISO  4  26  13  27  13  28  13  29  13
M  END
>  <minimizedAffinity>  (1) 
-4.13423967

>  <minimizedRMSD>  (1) 
4.24425411

$$$$
