
     RDKit          3D

 50 53  0  0  1  0  0  0  0  0999 V2000
   42.8020   34.4870   38.7040 C   0  0  1  0  0  0  0  0  0  0  0  0
   42.9870   35.1790   40.0570 C   0  0  1  0  0  0  0  0  0  0  0  0
   41.7220   35.5010   40.5830 O   0  0  0  0  0  0  0  0  0  0  0  0
   40.7930   35.8470   39.5990 C   0  0  0  0  0  0  0  0  0  0  0  0
   40.4060   34.6530   38.7570 C   0  0  2  0  0  0  0  0  0  0  0  0
   41.5570   33.6270   38.8680 C   0  0  1  0  0  0  0  0  0  0  0  0
   42.6020   35.4310   37.6990 O   0  0  0  0  0  0  0  0  0  0  0  0
   40.4170   35.0250   37.4070 O   0  0  0  0  0  0  0  0  0  0  0  0
   43.4810   34.1980   40.9240 O   0  0  0  0  0  0  0  0  0  0  0  0
   44.5800   34.3030   41.6730 C   0  0  0  0  0  0  0  0  0  0  0  0
   45.8370   34.4300   41.0890 C   0  0  0  0  0  0  0  0  0  0  0  0
   46.9460   34.5360   41.9180 C   0  0  0  0  0  0  0  0  0  0  0  0
   46.7760   34.5150   43.2940 N   0  0  0  0  0  0  0  0  0  0  0  0
   45.5500   34.3910   43.8130 C   0  0  0  0  0  0  0  0  0  0  0  0
   44.4570   34.2860   43.0200 N   0  0  0  0  0  0  0  0  0  0  0  0
   48.3300   34.6680   41.3250 C   0  0  0  0  0  0  0  0  0  0  0  0
   49.0350   35.9910   41.5170 C   0  0  0  0  0  0  0  0  0  0  0  0
   49.4760   34.6840   42.1970 C   0  0  0  0  0  0  0  0  0  0  0  0
   41.4370   32.6500   37.9100 O   0  0  0  0  0  0  0  0  0  0  0  0
   38.7250   30.7280   40.1460 N   0  0  0  0  0  0  0  0  0  0  0  0
   40.1090   30.3290   40.3600 C   0  0  0  0  0  0  0  0  0  0  0  0
   40.9600   31.4310   39.8070 C   0  0  0  0  0  0  0  0  0  0  0  0
   40.7650   31.5250   38.2950 C   0  0  0  0  0  0  0  0  0  0  0  0
   39.3360   31.4670   37.8790 C   0  0  0  0  0  0  0  0  0  0  0  0
   38.4750   30.5960   38.7370 C   0  0  0  0  0  0  0  0  0  0  0  0
   43.6843   33.8945   38.4204 H   0  0  0  0  0  0  0  0  0  0  0  0
   43.6275   36.0670   39.9517 H   0  0  0  0  0  0  0  0  0  0  0  0
   39.8915   36.2492   40.0844 H   0  0  0  0  0  0  0  0  0  0  0  0
   41.2523   36.5989   38.9405 H   0  0  0  0  0  0  0  0  0  0  0  0
   39.4266   34.2724   39.0825 H   0  0  0  0  0  0  0  0  0  0  0  0
   41.5720   33.0681   39.8153 H   0  0  0  0  0  0  0  0  0  0  0  0
   42.4151   36.3132   38.1074 H   0  0  0  0  0  0  0  0  0  0  0  0
   40.4462   36.0121   37.3369 H   0  0  0  0  0  0  0  0  0  0  0  0
   45.9495   34.4461   39.9949 H   0  0  0  0  0  0  0  0  0  0  0  0
   45.4266   34.3739   44.9059 H   0  0  0  0  0  0  0  0  0  0  0  0
   48.0620   34.0501   40.4553 H   0  0  0  0  0  0  0  0  0  0  0  0
   49.6338   36.4293   40.7050 H   0  0  0  0  0  0  0  0  0  0  0  0
   48.7564   37.0048   41.8403 H   0  0  0  0  0  0  0  0  0  0  0  0
   49.3407   34.5583   43.2814 H   0  0  0  0  0  0  0  0  0  0  0  0
   50.4179   34.1180   42.2453 H   0  0  0  0  0  0  0  0  0  0  0  0
   38.0916   30.1149   40.6787 H   0  0  0  0  0  0  0  0  0  0  0  0
   40.3054   30.2000   41.4346 H   0  0  0  0  0  0  0  0  0  0  0  0
   40.3278   29.3712   39.8653 H   0  0  0  0  0  0  0  0  0  0  0  0
   40.6708   32.3847   40.2727 H   0  0  0  0  0  0  0  0  0  0  0  0
   42.0170   31.2182   40.0247 H   0  0  0  0  0  0  0  0  0  0  0  0
   41.1771   30.6477   37.7749 H   0  0  0  0  0  0  0  0  0  0  0  0
   38.9281   32.4882   37.9077 H   0  0  0  0  0  0  0  0  0  0  0  0
   39.3213   31.0259   36.8714 H   0  0  0  0  0  0  0  0  0  0  0  0
   37.4232   30.8560   38.5471 H   0  0  0  0  0  0  0  0  0  0  0  0
   38.7109   29.5554   38.4695 H   0  0  0  0  0  0  0  0  0  0  0  0
  1  6  1  0
  1  2  1  0
  2  3  1  0
  2  9  1  0
  4  3  1  0
  5  6  1  0
  5  4  1  0
  7  1  1  0
  8  5  1  0
  9 10  1  0
 10 15  1  0
 11 10  2  0
 11 12  1  0
 12 13  2  0
 13 14  1  0
 15 14  2  0
 16 17  1  0
 16 12  1  0
 16 18  1  0
 17 18  1  0
 19 23  1  0
 19  6  1  0
 20 21  1  0
 22 21  1  0
 23 22  1  0
 24 23  1  0
 24 25  1  0
 25 20  1  0
  1 26  1  6
  2 27  1  6
  4 28  1  0
  4 29  1  0
  5 30  1  1
  6 31  1  1
  7 32  1  0
  8 33  1  0
 11 34  1  0
 14 35  1  0
 16 36  1  0
 17 37  1  0
 17 38  1  0
 18 39  1  0
 18 40  1  0
 20 41  1  0
 21 42  1  0
 21 43  1  0
 22 44  1  0
 22 45  1  0
 23 46  1  0
 24 47  1  0
 24 48  1  0
 25 49  1  0
 25 50  1  0
M  ISO  8  26  13  27  13  28  13  29  13  30  13  31  13  32   3  33   3
M  ISO  8  34  14  35  14  36  13  37  13  38  13  39  13  40  13  41   5
M  ISO  8  42  13  43  13  44  13  45  13  46  13  47  13  48  13  49  13
M  ISO  1  50  13
M  END
>  <minimizedAffinity>  (1) 
-6.20469809

>  <minimizedRMSD>  (1) 
0.79027617

$$$$
