
     RDKit          3D

 26 27  0  0  0  0  0  0  0  0999 V2000
   44.5670   35.6170   45.1140 C   0  0  0  0  0  0  0  0  0  0  0  0
   44.8890   36.0730   43.8170 C   0  0  0  0  0  0  0  0  0  0  0  0
   45.7850   35.2950   43.0600 C   0  0  0  0  0  0  0  0  0  0  0  0
   46.2910   34.1600   43.6020 N   0  0  0  0  0  0  0  0  0  0  0  0
   45.9520   33.7610   44.8550 C   0  0  0  0  0  0  0  0  0  0  0  0
   45.1000   34.4700   45.6170 N   0  0  0  0  0  0  0  0  0  0  0  0
   46.7510   32.2450   45.3340 S   0  0  0  0  0  0  0  0  0  0  0  0
   46.5330   30.9720   49.6060 N   0  0  0  0  0  0  0  0  0  0  0  0
   47.8530   31.0940   49.0700 C   0  0  0  0  0  0  0  0  0  0  0  0
   47.7570   30.9320   47.5550 C   0  0  0  0  0  0  0  0  0  0  0  0
   46.7890   31.9650   47.0930 C   0  0  0  0  0  0  0  0  0  0  0  0
   45.4080   31.5160   47.5250 C   0  0  0  0  0  0  0  0  0  0  0  0
   45.5370   30.5390   48.6710 C   0  0  0  0  0  0  0  0  0  0  0  0
   43.8697   36.2019   45.7318 H   0  0  0  0  0  0  0  0  0  0  0  0
   44.4563   37.0005   43.4138 H   0  0  0  0  0  0  0  0  0  0  0  0
   46.0705   35.6034   42.0435 H   0  0  0  0  0  0  0  0  0  0  0  0
   46.5635   30.2913   50.3784 H   0  0  0  0  0  0  0  0  0  0  0  0
   48.2667   32.0833   49.3153 H   0  0  0  0  0  0  0  0  0  0  0  0
   48.5145   30.3263   49.4979 H   0  0  0  0  0  0  0  0  0  0  0  0
   48.7406   31.0945   47.0900 H   0  0  0  0  0  0  0  0  0  0  0  0
   47.4289   29.9193   47.2778 H   0  0  0  0  0  0  0  0  0  0  0  0
   47.1121   32.9164   47.5407 H   0  0  0  0  0  0  0  0  0  0  0  0
   44.8227   32.3887   47.8501 H   0  0  0  0  0  0  0  0  0  0  0  0
   44.8976   31.0291   46.6809 H   0  0  0  0  0  0  0  0  0  0  0  0
   44.5689   30.4605   49.1874 H   0  0  0  0  0  0  0  0  0  0  0  0
   45.8383   29.5617   48.2658 H   0  0  0  0  0  0  0  0  0  0  0  0
  1  6  2  0
  2  1  1  0
  3  4  1  0
  3  2  2  0
  4  5  2  0
  5  7  1  0
  5  6  1  0
  7 11  1  0
  9  8  1  0
 10  9  1  0
 11 12  1  0
 11 10  1  0
 12 13  1  0
 13  8  1  0
  1 14  1  0
  2 15  1  0
  3 16  1  0
  8 17  1  0
  9 18  1  0
  9 19  1  0
 10 20  1  0
 10 21  1  0
 11 22  1  0
 12 23  1  0
 12 24  1  0
 13 25  1  0
 13 26  1  0
M  ISO  8  14  14  15  14  16  14  17   5  18  13  19  13  20  13  21  13
M  ISO  5  22  13  23  13  24  13  25  13  26  13
M  END
>  <minimizedAffinity>  (1) 
-4.55134392

>  <minimizedRMSD>  (1) 
2.06729031

$$$$
