
     RDKit          3D

 31 32  0  0  0  0  0  0  0  0999 V2000
   47.2800   32.8380   47.5820 O   0  0  0  0  0  0  0  0  0  0  0  0
   45.8290   32.6180   47.1490 P   0  0  1  0  0  0  0  0  0  0  0  0
   44.8400   33.7850   47.8510 O   0  0  0  0  0  0  0  0  0  0  0  0
   45.7890   32.7170   45.4800 O   0  0  0  0  0  0  0  0  0  0  0  0
   44.6220   35.9590   44.6140 C   0  0  0  0  0  0  0  0  0  0  0  0
   45.1920   36.2230   43.3440 C   0  0  0  0  0  0  0  0  0  0  0  0
   46.0080   35.2000   42.8080 C   0  0  0  0  0  0  0  0  0  0  0  0
   46.1950   34.0640   43.5110 N   0  0  0  0  0  0  0  0  0  0  0  0
   45.6210   33.8730   44.7260 C   0  0  0  0  0  0  0  0  0  0  0  0
   44.8470   34.8120   45.2610 N   0  0  0  0  0  0  0  0  0  0  0  0
   45.3810   31.1130   47.7330 O   0  0  0  0  0  0  0  0  0  0  0  0
   46.1950   27.1970   47.7800 N   0  0  0  0  0  0  0  0  0  0  0  0
   44.9910   27.9790   47.9790 C   0  0  0  0  0  0  0  0  0  0  0  0
   44.8380   28.9580   46.8350 C   0  0  0  0  0  0  0  0  0  0  0  0
   45.8910   30.0380   47.0560 C   0  0  0  0  0  0  0  0  0  0  0  0
   47.1310   29.4560   47.6810 C   0  0  0  0  0  0  0  0  0  0  0  0
   47.2530   28.0160   47.2620 C   0  0  0  0  0  0  0  0  0  0  0  0
   44.8978   33.7168   48.8370 H   0  0  0  0  0  0  0  0  0  0  0  0
   43.9770   36.7187   45.0797 H   0  0  0  0  0  0  0  0  0  0  0  0
   45.0108   37.1662   42.8077 H   0  0  0  0  0  0  0  0  0  0  0  0
   46.4863   35.3295   41.8259 H   0  0  0  0  0  0  0  0  0  0  0  0
   46.4895   26.7947   48.6813 H   0  0  0  0  0  0  0  0  0  0  0  0
   44.1186   27.3097   48.0095 H   0  0  0  0  0  0  0  0  0  0  0  0
   45.0607   28.5291   48.9290 H   0  0  0  0  0  0  0  0  0  0  0  0
   43.8308   29.4000   46.8435 H   0  0  0  0  0  0  0  0  0  0  0  0
   44.9706   28.4618   45.8623 H   0  0  0  0  0  0  0  0  0  0  0  0
   46.1979   30.4345   46.0769 H   0  0  0  0  0  0  0  0  0  0  0  0
   48.0145   30.0163   47.3413 H   0  0  0  0  0  0  0  0  0  0  0  0
   47.0646   29.5228   48.7770 H   0  0  0  0  0  0  0  0  0  0  0  0
   47.2309   27.9661   46.1634 H   0  0  0  0  0  0  0  0  0  0  0  0
   48.2002   27.6310   47.6678 H   0  0  0  0  0  0  0  0  0  0  0  0
  2  1  2  0
  2 11  1  0
  2  3  1  0
  4  2  1  0
  5 10  2  0
  6  5  1  0
  7  6  2  0
  7  8  1  0
  8  9  2  0
  9 10  1  0
  9  4  1  0
 12 13  1  0
 14 15  1  0
 14 13  1  0
 15 16  1  0
 15 11  1  0
 17 16  1  0
 17 12  1  0
  3 18  1  0
  5 19  1  0
  6 20  1  0
  7 21  1  0
 12 22  1  0
 13 23  1  0
 13 24  1  0
 14 25  1  0
 14 26  1  0
 15 27  1  0
 16 28  1  0
 16 29  1  0
 17 30  1  0
 17 31  1  0
M  ISO  8  18   3  19  14  20  14  21  14  22   5  23  13  24  13  25  13
M  ISO  6  26  13  27  13  28  13  29  13  30  13  31  13
M  END
>  <minimizedAffinity>  (1) 
-4.90516376

>  <minimizedRMSD>  (1) 
2.32743454

$$$$
