
     RDKit          3D

 44 46  0  0  1  0  0  0  0  0999 V2000
   47.8740   34.0000   41.9360 N   0  0  0  0  0  0  0  0  0  0  0  0
   47.8490   35.1320   41.0890 C   0  0  0  0  0  0  0  0  0  0  0  0
   49.1010   35.8340   41.4530 C   0  0  0  0  0  0  0  0  0  0  0  0
   49.8320   35.0040   42.5010 C   0  0  0  0  0  0  0  0  0  0  0  0
   49.1750   33.6300   42.3120 C   0  0  2  0  0  0  0  0  0  0  0  0
   46.6950   33.4160   42.3240 C   0  0  0  0  0  0  0  0  0  0  0  0
   44.5800   35.7640   44.4100 C   0  0  0  0  0  0  0  0  0  0  0  0
   45.2390   35.2310   43.2670 C   0  0  0  0  0  0  0  0  0  0  0  0
   46.0010   34.0760   43.4100 C   0  0  0  0  0  0  0  0  0  0  0  0
   46.0650   33.5300   44.6430 N   0  0  0  0  0  0  0  0  0  0  0  0
   45.4240   34.0550   45.7460 C   0  0  0  0  0  0  0  0  0  0  0  0
   44.6900   35.1600   45.6250 N   0  0  0  0  0  0  0  0  0  0  0  0
   49.7740   33.0690   41.1730 O   0  0  0  0  0  0  0  0  0  0  0  0
   49.8120   30.4830   41.7880 O   0  0  0  0  0  0  0  0  0  0  0  0
   50.6530   31.6960   41.4730 P   0  0  2  0  0  0  0  0  0  0  0  0
   51.6340   31.9820   42.8330 O   0  0  0  0  0  0  0  0  0  0  0  0
   51.7340   31.3570   40.1990 O   0  0  0  0  0  0  0  0  0  0  0  0
   53.3070   30.1330   39.2350 N   0  0  0  0  0  0  0  0  0  0  0  0
   53.5220   31.3340   38.4590 C   0  0  0  0  0  0  0  0  0  0  0  0
   52.1590   31.8060   37.9420 C   0  0  0  0  0  0  0  0  0  0  0  0
   51.1340   31.3470   38.9620 C   0  0  0  0  0  0  0  0  0  0  0  0
   50.9290   29.8600   38.6370 C   0  0  0  0  0  0  0  0  0  0  0  0
   52.3220   29.2670   38.6000 C   0  0  0  0  0  0  0  0  0  0  0  0
   47.0901   35.4190   40.3462 H   0  0  0  0  0  0  0  0  0  0  0  0
   49.4451   36.7925   41.0372 H   0  0  0  0  0  0  0  0  0  0  0  0
   50.9128   34.9641   42.3004 H   0  0  0  0  0  0  0  0  0  0  0  0
   49.7551   35.4022   43.5235 H   0  0  0  0  0  0  0  0  0  0  0  0
   49.2397   32.9471   43.1719 H   0  0  0  0  0  0  0  0  0  0  0  0
   46.0229   33.3981   41.4534 H   0  0  0  0  0  0  0  0  0  0  0  0
   46.9615   32.4167   42.6986 H   0  0  0  0  0  0  0  0  0  0  0  0
   43.9736   36.6763   44.3105 H   0  0  0  0  0  0  0  0  0  0  0  0
   45.1475   35.7236   42.2877 H   0  0  0  0  0  0  0  0  0  0  0  0
   45.5189   33.5616   46.7245 H   0  0  0  0  0  0  0  0  0  0  0  0
   51.1079   31.8286   43.6575 H   0  0  0  0  0  0  0  0  0  0  0  0
   54.1980   29.6233   39.3197 H   0  0  0  0  0  0  0  0  0  0  0  0
   53.9728   32.1129   39.0916 H   0  0  0  0  0  0  0  0  0  0  0  0
   54.2035   31.1328   37.6193 H   0  0  0  0  0  0  0  0  0  0  0  0
   52.1440   32.9024   37.8539 H   0  0  0  0  0  0  0  0  0  0  0  0
   51.9444   31.3922   36.9457 H   0  0  0  0  0  0  0  0  0  0  0  0
   50.2214   31.9610   38.9473 H   0  0  0  0  0  0  0  0  0  0  0  0
   50.3235   29.3745   39.4165 H   0  0  0  0  0  0  0  0  0  0  0  0
   50.3952   29.7164   37.6860 H   0  0  0  0  0  0  0  0  0  0  0  0
   52.3094   28.3005   39.1251 H   0  0  0  0  0  0  0  0  0  0  0  0
   52.6093   29.1463   37.5450 H   0  0  0  0  0  0  0  0  0  0  0  0
  1  5  1  0
  1  6  1  0
  2  3  2  0
  2  1  1  0
  3  4  1  0
  5  4  1  0
  6  9  1  0
  7 12  2  0
  8  9  2  0
  8  7  1  0
  9 10  1  0
 10 11  2  0
 12 11  1  0
 13 15  1  0
 13  5  1  0
 15 14  2  0
 15 16  1  0
 17 15  1  0
 19 18  1  0
 20 19  1  0
 20 21  1  0
 21 17  1  0
 22 21  1  0
 23 22  1  0
 23 18  1  0
  2 24  1  0
  3 25  1  0
  4 26  1  0
  4 27  1  0
  5 28  1  1
  6 29  1  0
  6 30  1  0
  7 31  1  0
  8 32  1  0
 11 33  1  0
 16 34  1  0
 18 35  1  0
 19 36  1  0
 19 37  1  0
 20 38  1  0
 20 39  1  0
 21 40  1  0
 22 41  1  0
 22 42  1  0
 23 43  1  0
 23 44  1  0
M  ISO  8  24  13  25  13  26  13  27  13  28  13  29   8  30   8  31  14
M  ISO  8  32  14  33  14  34   3  35   5  36  13  37  13  38  13  39  13
M  ISO  5  40  13  41  13  42  13  43  13  44  13
M  END
>  <minimizedAffinity>  (1) 
-5.11236143

>  <minimizedRMSD>  (1) 
2.59399319

$$$$
