
     RDKit          3D

 39 42  0  0  0  0  0  0  0  0999 V2000
   45.9460   33.2210   38.7650 C   0  0  0  0  0  0  0  0  0  0  0  0
   47.3260   33.0360   38.7000 C   0  0  0  0  0  0  0  0  0  0  0  0
   48.1140   33.3590   39.8430 C   0  0  0  0  0  0  0  0  0  0  0  0
   47.4410   33.8340   40.9340 N   0  0  0  0  0  0  0  0  0  0  0  0
   46.0960   33.9980   40.9500 C   0  0  0  0  0  0  0  0  0  0  0  0
   45.3650   33.6900   39.8660 N   0  0  0  0  0  0  0  0  0  0  0  0
   45.4980   34.5010   42.1410 N   0  0  0  0  0  0  0  0  0  0  0  0
   44.5440   35.4610   42.1970 C   0  0  0  0  0  0  0  0  0  0  0  0
   44.2320   35.6670   43.5140 N   0  0  0  0  0  0  0  0  0  0  0  0
   45.0000   34.8310   44.2110 C   0  0  0  0  0  0  0  0  0  0  0  0
   45.1550   34.5610   45.5640 C   0  0  0  0  0  0  0  0  0  0  0  0
   46.0050   33.6620   46.0320 N   0  0  0  0  0  0  0  0  0  0  0  0
   46.7920   32.9360   45.2120 C   0  0  0  0  0  0  0  0  0  0  0  0
   46.6440   33.1950   43.9020 N   0  0  0  0  0  0  0  0  0  0  0  0
   45.8050   34.0870   43.3810 C   0  0  0  0  0  0  0  0  0  0  0  0
   44.3940   35.2500   46.5460 N   0  0  0  0  0  0  0  0  0  0  0  0
   45.0580   32.7880   37.2750 S   0  0  0  0  0  0  0  0  0  0  0  0
   43.7180   31.3100   34.5180 N   0  0  0  0  0  0  0  0  0  0  0  0
   45.0630   31.2990   33.9980 C   0  0  0  0  0  0  0  0  0  0  0  0
   46.0650   31.9630   34.9180 C   0  0  0  0  0  0  0  0  0  0  0  0
   45.8810   31.5030   36.3530 C   0  0  0  0  0  0  0  0  0  0  0  0
   44.9760   30.2910   36.3110 C   0  0  0  0  0  0  0  0  0  0  0  0
   43.6030   30.8060   35.8640 C   0  0  0  0  0  0  0  0  0  0  0  0
   47.7975   32.6485   37.7849 H   0  0  0  0  0  0  0  0  0  0  0  0
   49.2067   33.2326   39.8470 H   0  0  0  0  0  0  0  0  0  0  0  0
   44.0989   35.9826   41.3368 H   0  0  0  0  0  0  0  0  0  0  0  0
   47.5034   32.1862   45.5884 H   0  0  0  0  0  0  0  0  0  0  0  0
   44.5252   35.0337   47.5445 H   0  0  0  0  0  0  0  0  0  0  0  0
   43.7111   35.9658   46.2595 H   0  0  0  0  0  0  0  0  0  0  0  0
   43.1290   30.7296   33.9039 H   0  0  0  0  0  0  0  0  0  0  0  0
   45.3694   30.2538   33.8439 H   0  0  0  0  0  0  0  0  0  0  0  0
   45.0541   31.8707   33.0583 H   0  0  0  0  0  0  0  0  0  0  0  0
   47.0819   31.7061   34.5864 H   0  0  0  0  0  0  0  0  0  0  0  0
   45.9074   33.0509   34.8779 H   0  0  0  0  0  0  0  0  0  0  0  0
   46.8486   31.2733   36.8230 H   0  0  0  0  0  0  0  0  0  0  0  0
   45.3597   29.5519   35.5924 H   0  0  0  0  0  0  0  0  0  0  0  0
   44.9212   29.7942   37.2909 H   0  0  0  0  0  0  0  0  0  0  0  0
   43.2731   31.6127   36.5351 H   0  0  0  0  0  0  0  0  0  0  0  0
   42.8656   29.9905   35.8988 H   0  0  0  0  0  0  0  0  0  0  0  0
  1  6  1  0
  2  1  2  0
  2  3  1  0
  3  4  2  0
  4  5  1  0
  5  7  1  0
  6  5  2  0
  7  8  1  0
  7 15  1  0
  8  9  2  0
  9 10  1  0
 10 11  2  0
 11 12  1  0
 11 16  1  0
 13 12  2  0
 14 13  1  0
 15 14  2  0
 15 10  1  0
 17  1  1  0
 18 23  1  0
 19 18  1  0
 19 20  1  0
 20 21  1  0
 21 17  1  0
 22 21  1  0
 23 22  1  0
  2 24  1  0
  3 25  1  0
  8 26  1  0
 13 27  1  0
 16 28  1  0
 16 29  1  0
 18 30  1  0
 19 31  1  0
 19 32  1  0
 20 33  1  0
 20 34  1  0
 21 35  1  0
 22 36  1  0
 22 37  1  0
 23 38  1  0
 23 39  1  0
M  ISO  8  24  14  25  14  26  14  27  14  30   5  31  13  32  13  33  13
M  ISO  6  34  13  35  13  36  13  37  13  38  13  39  13
M  END
>  <minimizedAffinity>  (1) 
-6.16024399

>  <minimizedRMSD>  (1) 
3.68869019

$$$$
