
     RDKit          3D

 34 35  0  0  0  0  0  0  0  0999 V2000
   48.1910   32.8750   41.5290 O   0  0  0  0  0  0  0  0  0  0  0  0
   47.2100   34.0020   41.1850 P   0  0  2  0  0  0  0  0  0  0  0  0
   45.6830   33.6310   41.8930 O   0  0  0  0  0  0  0  0  0  0  0  0
   44.4080   35.8400   44.5260 C   0  0  0  0  0  0  0  0  0  0  0  0
   44.7060   35.3460   43.2290 C   0  0  0  0  0  0  0  0  0  0  0  0
   45.3850   34.1290   43.1620 C   0  0  0  0  0  0  0  0  0  0  0  0
   45.7180   33.4930   44.3090 N   0  0  0  0  0  0  0  0  0  0  0  0
   45.4150   34.0010   45.5270 C   0  0  0  0  0  0  0  0  0  0  0  0
   44.7610   35.1720   45.6340 N   0  0  0  0  0  0  0  0  0  0  0  0
   47.0360   34.1940   39.5470 O   0  0  0  0  0  0  0  0  0  0  0  0
   48.0720   31.4420   36.5770 N   0  0  0  0  0  0  0  0  0  0  0  0
   47.3310   31.0020   37.7170 C   0  0  0  0  0  0  0  0  0  0  0  0
   46.5830   32.1570   38.3490 C   0  0  0  0  0  0  0  0  0  0  0  0
   47.6170   33.1000   38.9030 C   0  0  0  0  0  0  0  0  0  0  0  0
   48.5440   33.5380   37.7970 C   0  0  0  0  0  0  0  0  0  0  0  0
   48.3390   32.8400   36.4980 C   0  0  0  0  0  0  0  0  0  0  0  0
   47.7890   35.4120   41.9180 O   0  0  0  0  0  0  0  0  0  0  0  0
   49.0300   35.7850   41.4500 C   0  0  0  0  0  0  0  0  0  0  0  0
   49.4300   37.0380   41.8930 F   0  0  0  0  0  0  0  0  0  0  0  0
   49.9550   34.7970   41.7380 F   0  0  0  0  0  0  0  0  0  0  0  0
   48.9270   35.8670   40.0650 F   0  0  0  0  0  0  0  0  0  0  0  0
   43.8733   36.7962   44.6249 H   0  0  0  0  0  0  0  0  0  0  0  0
   44.4159   35.8957   42.3214 H   0  0  0  0  0  0  0  0  0  0  0  0
   45.7055   33.4526   46.4352 H   0  0  0  0  0  0  0  0  0  0  0  0
   48.9767   30.9496   36.5817 H   0  0  0  0  0  0  0  0  0  0  0  0
   46.6095   30.2331   37.4036 H   0  0  0  0  0  0  0  0  0  0  0  0
   48.0328   30.5889   38.4565 H   0  0  0  0  0  0  0  0  0  0  0  0
   45.9707   32.6697   37.5925 H   0  0  0  0  0  0  0  0  0  0  0  0
   45.9101   31.8015   39.1432 H   0  0  0  0  0  0  0  0  0  0  0  0
   48.2003   32.5657   39.6674 H   0  0  0  0  0  0  0  0  0  0  0  0
   48.3965   34.6157   37.6335 H   0  0  0  0  0  0  0  0  0  0  0  0
   49.5621   33.2847   38.1275 H   0  0  0  0  0  0  0  0  0  0  0  0
   49.2492   32.9756   35.8954 H   0  0  0  0  0  0  0  0  0  0  0  0
   47.4374   33.2905   36.0574 H   0  0  0  0  0  0  0  0  0  0  0  0
  2  1  2  0
  2  3  1  0
  2 17  1  0
  3  6  1  0
  4  9  2  0
  5  4  1  0
  6  5  2  0
  6  7  1  0
  7  8  2  0
  8  9  1  0
 10  2  1  0
 11 12  1  0
 12 13  1  0
 13 14  1  0
 14 10  1  0
 15 14  1  0
 16 11  1  0
 16 15  1  0
 18 20  1  0
 18 19  1  0
 18 17  1  0
 21 18  1  0
  4 22  1  0
  5 23  1  0
  8 24  1  0
 11 25  1  0
 12 26  1  0
 12 27  1  0
 13 28  1  0
 13 29  1  0
 14 30  1  0
 15 31  1  0
 15 32  1  0
 16 33  1  0
 16 34  1  0
M  ISO  8  22  14  23  14  24  14  25   5  26  13  27  13  28  13  29  13
M  ISO  5  30  13  31  13  32  13  33  13  34  13
M  END
>  <minimizedAffinity>  (1) 
-5.09767008

>  <minimizedRMSD>  (1) 
1.29437423

$$$$
