
     RDKit          3D

 35 36  0  0  0  0  0  0  0  0999 V2000
   44.5890   33.8280   42.2010 C   0  0  0  0  0  0  0  0  0  0  0  0
   44.7120   33.0630   43.1830 O   0  0  0  0  0  0  0  0  0  0  0  0
   42.6160   34.6100   39.1740 C   0  0  0  0  0  0  0  0  0  0  0  0
   43.6840   34.5420   40.0880 C   0  0  0  0  0  0  0  0  0  0  0  0
   43.4610   33.8740   41.2920 C   0  0  0  0  0  0  0  0  0  0  0  0
   42.2540   33.3290   41.5350 N   0  0  0  0  0  0  0  0  0  0  0  0
   41.2570   33.4270   40.6150 C   0  0  0  0  0  0  0  0  0  0  0  0
   41.4500   34.0580   39.4620 N   0  0  0  0  0  0  0  0  0  0  0  0
   42.8190   35.2850   37.9380 N   0  0  0  0  0  0  0  0  0  0  0  0
   45.5660   34.7720   41.8480 O   0  0  0  0  0  0  0  0  0  0  0  0
   48.0320   35.8130   41.9250 O   0  0  0  0  0  0  0  0  0  0  0  0
   47.2360   34.5740   42.1440 P   0  0  1  0  0  0  0  0  0  0  0  0
   47.3680   34.1470   43.7850 O   0  0  0  0  0  0  0  0  0  0  0  0
   47.7990   33.2910   41.2010 O   0  0  0  0  0  0  0  0  0  0  0  0
   51.6610   31.8650   41.2490 N   0  0  0  0  0  0  0  0  0  0  0  0
   51.2010   32.5850   42.4140 C   0  0  0  0  0  0  0  0  0  0  0  0
   50.0750   33.4950   41.9550 C   0  0  0  0  0  0  0  0  0  0  0  0
   48.8530   32.6210   41.7900 C   0  0  0  0  0  0  0  0  0  0  0  0
   49.2460   31.4680   40.8900 C   0  0  0  0  0  0  0  0  0  0  0  0
   50.6210   31.6330   40.2830 C   0  0  0  0  0  0  0  0  0  0  0  0
   44.6586   34.9988   39.8613 H   0  0  0  0  0  0  0  0  0  0  0  0
   40.2763   32.9771   40.8289 H   0  0  0  0  0  0  0  0  0  0  0  0
   43.7332   35.7103   37.7275 H   0  0  0  0  0  0  0  0  0  0  0  0
   42.0518   35.3483   37.2537 H   0  0  0  0  0  0  0  0  0  0  0  0
   47.1276   34.9246   44.3487 H   0  0  0  0  0  0  0  0  0  0  0  0
   52.4096   32.4117   40.8000 H   0  0  0  0  0  0  0  0  0  0  0  0
   50.8316   31.8797   43.1730 H   0  0  0  0  0  0  0  0  0  0  0  0
   52.0183   33.1671   42.8649 H   0  0  0  0  0  0  0  0  0  0  0  0
   49.8856   34.2739   42.7083 H   0  0  0  0  0  0  0  0  0  0  0  0
   50.3321   33.9993   41.0118 H   0  0  0  0  0  0  0  0  0  0  0  0
   48.5204   32.2911   42.7852 H   0  0  0  0  0  0  0  0  0  0  0  0
   49.2335   30.5412   41.4823 H   0  0  0  0  0  0  0  0  0  0  0  0
   48.5228   31.4365   40.0617 H   0  0  0  0  0  0  0  0  0  0  0  0
   50.8651   30.7173   39.7246 H   0  0  0  0  0  0  0  0  0  0  0  0
   50.5803   32.5231   39.6380 H   0  0  0  0  0  0  0  0  0  0  0  0
  1  2  2  0
  3  8  2  0
  3  4  1  0
  4  5  2  0
  5  6  1  0
  5  1  1  0
  7  6  2  0
  8  7  1  0
  9  3  1  0
 10 12  1  0
 10  1  1  0
 12 11  2  0
 12 13  1  0
 14 18  1  0
 14 12  1  0
 15 16  1  0
 17 16  1  0
 18 17  1  0
 19 18  1  0
 20 19  1  0
 20 15  1  0
  4 21  1  0
  7 22  1  0
  9 23  1  0
  9 24  1  0
 13 25  1  0
 15 26  1  0
 16 27  1  0
 16 28  1  0
 17 29  1  0
 17 30  1  0
 18 31  1  0
 19 32  1  0
 19 33  1  0
 20 34  1  0
 20 35  1  0
M  ISO  8  21  14  22  14  25   3  26   5  27  13  28  13  29  13  30  13
M  ISO  5  31  13  32  13  33  13  34  13  35  13
M  END
>  <minimizedAffinity>  (1) 
-4.34328365

>  <minimizedRMSD>  (1) 
4.68479872

$$$$
