
     RDKit          3D

 41 43  0  0  1  0  0  0  0  0999 V2000
   46.8390   34.6070   42.2970 N   0  0  0  0  0  0  0  0  0  0  0  0
   48.3000   34.6690   42.3470 C   0  0  0  0  0  0  0  0  0  0  0  0
   48.6850   35.4540   41.0890 C   0  0  0  0  0  0  0  0  0  0  0  0
   48.3380   34.6350   39.8710 C   0  0  0  0  0  0  0  0  0  0  0  0
   47.0070   33.9800   39.9350 C   0  0  0  0  0  0  0  0  0  0  0  0
   46.1270   34.3810   41.0830 C   0  0  1  0  0  0  0  0  0  0  0  0
   44.4780   35.9360   44.8610 C   0  0  0  0  0  0  0  0  0  0  0  0
   45.1880   35.8460   43.6600 C   0  0  0  0  0  0  0  0  0  0  0  0
   46.0770   34.7750   43.4880 C   0  0  0  0  0  0  0  0  0  0  0  0
   46.1860   33.8910   44.5170 N   0  0  0  0  0  0  0  0  0  0  0  0
   45.4850   34.0060   45.6670 C   0  0  0  0  0  0  0  0  0  0  0  0
   44.6300   35.0420   45.8250 N   0  0  0  0  0  0  0  0  0  0  0  0
   45.2290   33.3220   41.2900 O   0  0  0  0  0  0  0  0  0  0  0  0
   41.2210   34.1500   40.8220 N   0  0  0  0  0  0  0  0  0  0  0  0
   41.6490   32.7760   40.9920 C   0  0  0  0  0  0  0  0  0  0  0  0
   43.0160   32.7950   41.6070 C   0  0  0  0  0  0  0  0  0  0  0  0
   44.0070   33.5130   40.6970 C   0  0  0  0  0  0  0  0  0  0  0  0
   43.5410   34.9270   40.6110 C   0  0  0  0  0  0  0  0  0  0  0  0
   42.1330   34.8850   40.0030 C   0  0  0  0  0  0  0  0  0  0  0  0
   48.6376   35.1936   43.2530 H   0  0  0  0  0  0  0  0  0  0  0  0
   48.7636   33.6720   42.3804 H   0  0  0  0  0  0  0  0  0  0  0  0
   48.1314   36.4042   41.0639 H   0  0  0  0  0  0  0  0  0  0  0  0
   49.7647   35.6641   41.0991 H   0  0  0  0  0  0  0  0  0  0  0  0
   49.1019   33.8524   39.7528 H   0  0  0  0  0  0  0  0  0  0  0  0
   48.3058   35.3323   39.0208 H   0  0  0  0  0  0  0  0  0  0  0  0
   46.4717   34.2154   39.0033 H   0  0  0  0  0  0  0  0  0  0  0  0
   47.2119   32.9091   40.0805 H   0  0  0  0  0  0  0  0  0  0  0  0
   45.6360   35.3309   40.8251 H   0  0  0  0  0  0  0  0  0  0  0  0
   43.7761   36.7700   45.0083 H   0  0  0  0  0  0  0  0  0  0  0  0
   45.0525   36.5977   42.8684 H   0  0  0  0  0  0  0  0  0  0  0  0
   45.6090   33.2626   46.4683 H   0  0  0  0  0  0  0  0  0  0  0  0
   40.2914   34.1586   40.3786 H   0  0  0  0  0  0  0  0  0  0  0  0
   40.9485   32.2449   41.6532 H   0  0  0  0  0  0  0  0  0  0  0  0
   41.6710   32.2575   40.0221 H   0  0  0  0  0  0  0  0  0  0  0  0
   42.9697   33.3176   42.5738 H   0  0  0  0  0  0  0  0  0  0  0  0
   43.3540   31.7579   41.7493 H   0  0  0  0  0  0  0  0  0  0  0  0
   44.0832   33.1523   39.6606 H   0  0  0  0  0  0  0  0  0  0  0  0
   43.5087   35.3782   41.6137 H   0  0  0  0  0  0  0  0  0  0  0  0
   44.2220   35.5338   39.9961 H   0  0  0  0  0  0  0  0  0  0  0  0
   41.7621   35.9147   39.8933 H   0  0  0  0  0  0  0  0  0  0  0  0
   42.1976   34.3810   39.0274 H   0  0  0  0  0  0  0  0  0  0  0  0
  1  2  1  0
  1  9  1  0
  3  2  1  0
  4  5  1  0
  4  3  1  0
  5  6  1  0
  6 13  1  0
  6  1  1  0
  7 12  2  0
  8  7  1  0
  9  8  2  0
  9 10  1  0
 10 11  2  0
 11 12  1  0
 14 15  1  0
 15 16  1  0
 17 13  1  0
 17 16  1  0
 18 17  1  0
 19 18  1  0
 19 14  1  0
  2 20  1  0
  2 21  1  0
  3 22  1  0
  3 23  1  0
  4 24  1  0
  4 25  1  0
  5 26  1  0
  5 27  1  0
  6 28  1  6
  7 29  1  0
  8 30  1  0
 11 31  1  0
 14 32  1  0
 15 33  1  0
 15 34  1  0
 16 35  1  0
 16 36  1  0
 17 37  1  0
 18 38  1  0
 18 39  1  0
 19 40  1  0
 19 41  1  0
M  ISO  8  20  13  21  13  22  13  23  13  24  13  25  13  26  13  27  13
M  ISO  8  28  13  29  14  30  14  31  14  32   5  33  13  34  13  35  13
M  ISO  6  36  13  37  13  38  13  39  13  40  13  41  13
M  END
>  <minimizedAffinity>  (1) 
-5.65355301

>  <minimizedRMSD>  (1) 
0.754730523

$$$$
