
     RDKit          3D

 34 36  0  0  1  0  0  0  0  0999 V2000
   45.3190   33.6400   45.0220 C   0  0  1  0  0  0  0  0  0  0  0  0
   44.8700   35.0630   45.1800 C   0  0  0  0  0  0  0  0  0  0  0  0
   46.1000   34.6740   44.3360 C   0  0  2  0  0  0  0  0  0  0  0  0
   47.5620   31.5740   47.1460 C   0  0  0  0  0  0  0  0  0  0  0  0
   46.8830   31.6550   48.4130 C   0  0  0  0  0  0  0  0  0  0  0  0
   45.6810   32.4220   48.4970 C   0  0  0  0  0  0  0  0  0  0  0  0
   45.2280   33.0360   47.4010 N   0  0  0  0  0  0  0  0  0  0  0  0
   45.9010   32.9380   46.2060 C   0  0  0  0  0  0  0  0  0  0  0  0
   47.0540   32.2120   46.0920 N   0  0  0  0  0  0  0  0  0  0  0  0
   46.0000   34.9350   42.9430 N   0  0  0  0  0  0  0  0  0  0  0  0
   48.8870   35.2670   40.2570 N   0  0  0  0  0  0  0  0  0  0  0  0
   48.7840   35.7330   41.6240 C   0  0  0  0  0  0  0  0  0  0  0  0
   48.3590   34.6350   42.5640 C   0  0  0  0  0  0  0  0  0  0  0  0
   46.9700   34.1540   42.1980 C   0  0  0  0  0  0  0  0  0  0  0  0
   46.7190   34.3040   40.7010 C   0  0  0  0  0  0  0  0  0  0  0  0
   48.0330   34.1560   39.9670 C   0  0  0  0  0  0  0  0  0  0  0  0
   44.8313   32.7132   44.6856 H   0  0  0  0  0  0  0  0  0  0  0  0
   43.9484   35.4132   44.6921 H   0  0  0  0  0  0  0  0  0  0  0  0
   44.6707   35.7412   46.0228 H   0  0  0  0  0  0  0  0  0  0  0  0
   47.1799   34.8815   44.3091 H   0  0  0  0  0  0  0  0  0  0  0  0
   48.4902   30.9917   47.0490 H   0  0  0  0  0  0  0  0  0  0  0  0
   47.2816   31.1370   49.2978 H   0  0  0  0  0  0  0  0  0  0  0  0
   45.1370   32.5056   49.4494 H   0  0  0  0  0  0  0  0  0  0  0  0
   45.0524   34.6910   42.6215 H   0  0  0  0  0  0  0  0  0  0  0  0
   48.6368   36.0434   39.6281 H   0  0  0  0  0  0  0  0  0  0  0  0
   49.7648   36.1146   41.9440 H   0  0  0  0  0  0  0  0  0  0  0  0
   48.0196   36.5233   41.6569 H   0  0  0  0  0  0  0  0  0  0  0  0
   49.0670   33.7965   42.4897 H   0  0  0  0  0  0  0  0  0  0  0  0
   48.3493   35.0223   43.5935 H   0  0  0  0  0  0  0  0  0  0  0  0
   46.8762   33.0876   42.4511 H   0  0  0  0  0  0  0  0  0  0  0  0
   46.0182   33.5259   40.3643 H   0  0  0  0  0  0  0  0  0  0  0  0
   46.2851   35.2932   40.4930 H   0  0  0  0  0  0  0  0  0  0  0  0
   47.8424   34.1167   38.8844 H   0  0  0  0  0  0  0  0  0  0  0  0
   48.5255   33.2286   40.2946 H   0  0  0  0  0  0  0  0  0  0  0  0
  1  2  1  0
  1  8  1  0
  3  1  1  0
  3  2  1  0
  4  5  2  0
  5  6  1  0
  7  6  2  0
  8  7  1  0
  9  8  2  0
  9  4  1  0
 10  3  1  0
 11 12  1  0
 12 13  1  0
 14 13  1  0
 14 10  1  0
 15 14  1  0
 16 11  1  0
 16 15  1  0
  1 17  1  6
  2 18  1  0
  2 19  1  0
  3 20  1  1
  4 21  1  0
  5 22  1  0
  6 23  1  0
 10 24  1  0
 11 25  1  0
 12 26  1  0
 12 27  1  0
 13 28  1  0
 13 29  1  0
 14 30  1  0
 15 31  1  0
 15 32  1  0
 16 33  1  0
 16 34  1  0
M  ISO  8  17  13  18  13  19  13  20  13  21  14  22  14  23  14  24   5
M  ISO  8  25   5  26  13  27  13  28  13  29  13  30  13  31  13  32  13
M  ISO  2  33  13  34  13
M  END
>  <minimizedAffinity>  (1) 
-4.71233416

>  <minimizedRMSD>  (1) 
7.32556581

$$$$
