
     RDKit          3D

 44 46  0  0  0  0  0  0  0  0999 V2000
   45.4200   34.9300   42.1190 C   0  0  0  0  0  0  0  0  0  0  0  0
   44.6860   34.5020   41.0090 C   0  0  0  0  0  0  0  0  0  0  0  0
   45.2710   33.5230   40.1810 C   0  0  0  0  0  0  0  0  0  0  0  0
   46.5020   33.0510   40.4980 N   0  0  0  0  0  0  0  0  0  0  0  0
   47.1760   33.5030   41.5920 C   0  0  0  0  0  0  0  0  0  0  0  0
   46.6290   34.4320   42.3860 N   0  0  0  0  0  0  0  0  0  0  0  0
   49.4070   35.5260   41.8780 Cl  0  0  0  0  0  0  0  0  0  0  0  0
   49.5720   33.8150   41.9930 C   0  0  0  0  0  0  0  0  0  0  0  0
   48.5150   32.9260   41.8540 C   0  0  0  0  0  0  0  0  0  0  0  0
   48.6260   31.5700   41.9410 C   0  0  0  0  0  0  0  0  0  0  0  0
   49.8670   31.0600   42.1830 C   0  0  0  0  0  0  0  0  0  0  0  0
   51.0010   31.8320   42.3420 C   0  0  0  0  0  0  0  0  0  0  0  0
   50.7960   33.2110   42.2370 C   0  0  0  0  0  0  0  0  0  0  0  0
   44.8160   35.9460   42.9800 C   0  0  0  0  0  0  0  0  0  0  0  0
   45.5410   36.9890   43.3440 C   0  0  0  0  0  0  0  0  0  0  0  0
   44.9070   38.0180   44.2250 C   0  0  0  0  0  0  0  0  0  0  0  0
   45.2360   39.3080   43.6520 N   0  0  0  0  0  0  0  0  0  0  0  0
   43.7120   41.6400   46.4870 N   0  0  0  0  0  0  0  0  0  0  0  0
   44.6790   40.7090   47.0030 C   0  0  0  0  0  0  0  0  0  0  0  0
   45.2630   39.7770   45.9990 C   0  0  0  0  0  0  0  0  0  0  0  0
   45.4600   40.3380   44.6270 C   0  0  0  0  0  0  0  0  0  0  0  0
   44.5710   41.5010   44.2890 C   0  0  0  0  0  0  0  0  0  0  0  0
   44.3730   42.4280   45.4650 C   0  0  0  0  0  0  0  0  0  0  0  0
   43.6897   34.9137   40.7901 H   0  0  0  0  0  0  0  0  0  0  0  0
   44.7388   33.1487   39.2940 H   0  0  0  0  0  0  0  0  0  0  0  0
   47.7507   30.9147   41.8209 H   0  0  0  0  0  0  0  0  0  0  0  0
   49.9714   29.9674   42.2560 H   0  0  0  0  0  0  0  0  0  0  0  0
   51.9914   31.3947   42.5367 H   0  0  0  0  0  0  0  0  0  0  0  0
   51.6715   33.8660   42.3570 H   0  0  0  0  0  0  0  0  0  0  0  0
   43.7746   35.8436   43.3193 H   0  0  0  0  0  0  0  0  0  0  0  0
   46.5828   37.0976   43.0081 H   0  0  0  0  0  0  0  0  0  0  0  0
   43.8160   37.8791   44.2476 H   0  0  0  0  0  0  0  0  0  0  0  0
   45.2728   37.9367   45.2592 H   0  0  0  0  0  0  0  0  0  0  0  0
   46.0916   39.2036   43.0882 H   0  0  0  0  0  0  0  0  0  0  0  0
   42.9154   41.1304   46.0787 H   0  0  0  0  0  0  0  0  0  0  0  0
   45.5018   41.2862   47.4500 H   0  0  0  0  0  0  0  0  0  0  0  0
   44.1396   40.0790   47.7256 H   0  0  0  0  0  0  0  0  0  0  0  0
   46.2439   39.4491   46.3735 H   0  0  0  0  0  0  0  0  0  0  0  0
   44.5318   38.9629   45.8865 H   0  0  0  0  0  0  0  0  0  0  0  0
   46.4942   40.7124   44.6111 H   0  0  0  0  0  0  0  0  0  0  0  0
   45.0273   42.0677   43.4640 H   0  0  0  0  0  0  0  0  0  0  0  0
   43.5864   41.1019   44.0038 H   0  0  0  0  0  0  0  0  0  0  0  0
   45.3437   42.7931   45.8318 H   0  0  0  0  0  0  0  0  0  0  0  0
   43.7771   43.3100   45.1874 H   0  0  0  0  0  0  0  0  0  0  0  0
  1  6  1  0
  1 14  1  0
  2  1  2  0
  3  4  2  0
  3  2  1  0
  4  5  1  0
  5  9  1  0
  5  6  2  0
  7  8  1  0
  8 13  2  0
  9 10  2  0
  9  8  1  0
 10 11  1  0
 11 12  2  0
 13 12  1  0
 14 15  2  0
 15 16  1  0
 17 16  1  0
 17 21  1  0
 18 19  1  0
 20 19  1  0
 21 20  1  0
 22 21  1  0
 22 23  1  0
 23 18  1  0
  2 24  1  0
  3 25  1  0
 10 26  1  0
 11 27  1  0
 12 28  1  0
 13 29  1  0
 14 30  1  0
 15 31  1  0
 16 32  1  0
 16 33  1  0
 17 34  1  0
 18 35  1  0
 19 36  1  0
 19 37  1  0
 20 38  1  0
 20 39  1  0
 21 40  1  0
 22 41  1  0
 22 42  1  0
 23 43  1  0
 23 44  1  0
M  ISO  8  24  14  25  14  26  14  27  14  28  14  29  14  32   8  33   8
M  ISO  8  34   5  35   5  36  13  37  13  38  13  39  13  40  13  41  13
M  ISO  3  42  13  43  13  44  13
M  END
>  <minimizedAffinity>  (1) 
-4.49465513

>  <minimizedRMSD>  (1) 
1.40700555

$$$$
