
     RDKit          3D

 52 56  0  0  1  0  0  0  0  0999 V2000
   48.8680   32.3750   39.8990 C   0  0  0  0  0  0  0  0  0  0  0  0
   47.9390   32.5590   38.8820 C   0  0  0  0  0  0  0  0  0  0  0  0
   46.6330   32.8710   39.2540 C   0  0  0  0  0  0  0  0  0  0  0  0
   46.3060   32.9850   40.5630 N   0  0  0  0  0  0  0  0  0  0  0  0
   47.2550   32.7960   41.5250 C   0  0  0  0  0  0  0  0  0  0  0  0
   48.5170   32.4940   41.1980 N   0  0  0  0  0  0  0  0  0  0  0  0
   48.4090   32.4100   37.5590 N   0  0  0  0  0  0  0  0  0  0  0  0
   49.3300   31.3510   37.2870 C   0  0  0  0  0  0  0  0  0  0  0  0
   49.8430   31.3300   35.8940 C   0  0  0  0  0  0  0  0  0  0  0  0
   48.8080   31.4620   34.9290 N   0  0  0  0  0  0  0  0  0  0  0  0
   47.7350   32.3280   35.2170 C   0  0  0  0  0  0  0  0  0  0  0  0
   48.0670   33.2170   36.4170 C   0  0  0  0  0  0  0  0  0  0  0  0
   45.7700   33.6890   43.2890 C   0  0  0  0  0  0  0  0  0  0  0  0
   46.8310   32.9350   42.9330 C   0  0  0  0  0  0  0  0  0  0  0  0
   47.5420   32.2730   43.9300 C   0  0  0  0  0  0  0  0  0  0  0  0
   47.1560   32.3960   45.2470 C   0  0  0  0  0  0  0  0  0  0  0  0
   46.0520   33.1830   45.5960 C   0  0  0  0  0  0  0  0  0  0  0  0
   45.3440   33.8440   44.5940 C   0  0  0  0  0  0  0  0  0  0  0  0
   45.9100   33.1110   46.9900 O   0  0  0  0  0  0  0  0  0  0  0  0
   47.1510   32.6270   47.5040 C   0  0  2  0  0  0  0  0  0  0  0  0
   47.6520   31.8700   46.4360 O   0  0  0  0  0  0  0  0  0  0  0  0
   46.9710   31.8530   48.7070 N   0  0  0  0  0  0  0  0  0  0  0  0
   47.3440   30.4830   48.5650 C   0  0  0  0  0  0  0  0  0  0  0  0
   46.5430   29.7680   47.4990 C   0  0  0  0  0  0  0  0  0  0  0  0
   45.0780   29.8870   47.8490 C   0  0  0  0  0  0  0  0  0  0  0  0
   44.8280   30.7030   49.0830 C   0  0  0  0  0  0  0  0  0  0  0  0
   45.5790   32.0140   49.0980 C   0  0  0  0  0  0  0  0  0  0  0  0
   49.9085   32.1279   39.6414 H   0  0  0  0  0  0  0  0  0  0  0  0
   45.8650   33.0252   38.4817 H   0  0  0  0  0  0  0  0  0  0  0  0
   50.1872   31.4565   37.9682 H   0  0  0  0  0  0  0  0  0  0  0  0
   48.7801   30.4098   37.4343 H   0  0  0  0  0  0  0  0  0  0  0  0
   50.5516   32.1617   35.7668 H   0  0  0  0  0  0  0  0  0  0  0  0
   50.3278   30.3560   35.7319 H   0  0  0  0  0  0  0  0  0  0  0  0
   48.4108   30.5239   34.7771 H   0  0  0  0  0  0  0  0  0  0  0  0
   47.5376   32.9628   34.3406 H   0  0  0  0  0  0  0  0  0  0  0  0
   46.8474   31.7246   35.4578 H   0  0  0  0  0  0  0  0  0  0  0  0
   48.9185   33.8656   36.1632 H   0  0  0  0  0  0  0  0  0  0  0  0
   47.1865   33.8288   36.6628 H   0  0  0  0  0  0  0  0  0  0  0  0
   45.2132   34.2093   42.4958 H   0  0  0  0  0  0  0  0  0  0  0  0
   48.4111   31.6523   43.6667 H   0  0  0  0  0  0  0  0  0  0  0  0
   44.4723   34.4702   44.8349 H   0  0  0  0  0  0  0  0  0  0  0  0
   47.8402   33.4258   47.8153 H   0  0  0  0  0  0  0  0  0  0  0  0
   48.4096   30.4343   48.2966 H   0  0  0  0  0  0  0  0  0  0  0  0
   47.1430   29.9825   49.5237 H   0  0  0  0  0  0  0  0  0  0  0  0
   46.8325   28.7073   47.4645 H   0  0  0  0  0  0  0  0  0  0  0  0
   46.7357   30.2176   46.5137 H   0  0  0  0  0  0  0  0  0  0  0  0
   44.5546   30.3604   47.0052 H   0  0  0  0  0  0  0  0  0  0  0  0
   44.7068   28.8710   48.0490 H   0  0  0  0  0  0  0  0  0  0  0  0
   43.7510   30.9174   49.1469 H   0  0  0  0  0  0  0  0  0  0  0  0
   45.1863   30.1138   49.9400 H   0  0  0  0  0  0  0  0  0  0  0  0
   45.5425   32.4318   50.1149 H   0  0  0  0  0  0  0  0  0  0  0  0
   45.0994   32.6869   48.3719 H   0  0  0  0  0  0  0  0  0  0  0  0
  1  6  2  0
  2  3  2  0
  2  1  1  0
  3  4  1  0
  4  5  2  0
  5 14  1  0
  6  5  1  0
  7  2  1  0
  8  7  1  0
  9  8  1  0
 10 11  1  0
 10  9  1  0
 11 12  1  0
 12  7  1  0
 13 18  2  0
 14 13  1  0
 14 15  2  0
 15 16  1  0
 16 17  2  0
 16 21  1  0
 17 19  1  0
 18 17  1  0
 19 20  1  0
 20 22  1  0
 21 20  1  0
 22 27  1  0
 23 22  1  0
 24 25  1  0
 24 23  1  0
 25 26  1  0
 26 27  1  0
  1 28  1  0
  3 29  1  0
  8 30  1  0
  8 31  1  0
  9 32  1  0
  9 33  1  0
 10 34  1  0
 11 35  1  0
 11 36  1  0
 12 37  1  0
 12 38  1  0
 13 39  1  0
 15 40  1  0
 18 41  1  0
 20 42  1  1
 23 43  1  0
 23 44  1  0
 24 45  1  0
 24 46  1  0
 25 47  1  0
 25 48  1  0
 26 49  1  0
 26 50  1  0
 27 51  1  0
 27 52  1  0
M  ISO  8  28  14  29  14  30  13  31  13  32  13  33  13  34   5  35  13
M  ISO  8  36  13  37  13  38  13  39  14  40  14  41  14  42  13  43  13
M  ISO  8  44  13  45  13  46  13  47  13  48  13  49  13  50  13  51  13
M  ISO  1  52  13
M  END
>  <minimizedAffinity>  (1) 
-5.50802994

>  <minimizedRMSD>  (1) 
5.18532276

$$$$
