
     RDKit          3D

 54 57  0  0  0  0  0  0  0  0999 V2000
   45.0320   35.4980   43.3940 C   0  0  0  0  0  0  0  0  0  0  0  0
   45.4780   34.1910   43.4290 C   0  0  0  0  0  0  0  0  0  0  0  0
   45.4830   33.4800   44.5940 C   0  0  0  0  0  0  0  0  0  0  0  0
   45.0140   34.1490   45.7190 N   0  0  0  0  0  0  0  0  0  0  0  0
   44.5860   35.3990   45.6890 C   0  0  0  0  0  0  0  0  0  0  0  0
   44.6000   36.0680   44.5140 N   0  0  0  0  0  0  0  0  0  0  0  0
   45.9040   32.1560   44.8120 C   0  0  0  0  0  0  0  0  0  0  0  0
   45.6220   31.1120   43.9090 C   0  0  0  0  0  0  0  0  0  0  0  0
   45.9690   29.8030   44.1150 C   0  0  0  0  0  0  0  0  0  0  0  0
   46.6390   29.4500   45.2720 C   0  0  0  0  0  0  0  0  0  0  0  0
   46.9380   30.4980   46.2040 C   0  0  0  0  0  0  0  0  0  0  0  0
   47.5940   30.1590   47.3480 C   0  0  0  0  0  0  0  0  0  0  0  0
   47.9090   31.1230   48.2780 C   0  0  0  0  0  0  0  0  0  0  0  0
   47.5460   32.4600   48.0370 C   0  0  0  0  0  0  0  0  0  0  0  0
   46.8660   32.7470   46.8330 C   0  0  0  0  0  0  0  0  0  0  0  0
   46.5670   31.7730   45.9360 C   0  0  0  0  0  0  0  0  0  0  0  0
   45.9070   33.6490   42.2520 O   0  0  0  0  0  0  0  0  0  0  0  0
   48.2280   32.5560   41.7070 O   0  0  0  0  0  0  0  0  0  0  0  0
   47.4360   33.8220   41.5950 P   0  0  1  0  0  0  0  0  0  0  0  0
   47.3890   34.2340   39.9610 O   0  0  0  0  0  0  0  0  0  0  0  0
   46.4820   33.3420   39.3710 C   0  0  0  0  0  0  0  0  0  0  0  0
   47.0160   32.6960   38.1840 N   0  0  0  0  0  0  0  0  0  0  0  0
   46.0460   33.0370   37.1290 C   0  0  0  0  0  0  0  0  0  0  0  0
   46.3960   32.3430   35.8350 C   0  0  0  0  0  0  0  0  0  0  0  0
   47.8950   32.2850   35.6870 C   0  0  0  0  0  0  0  0  0  0  0  0
   48.5530   33.4320   36.4200 C   0  0  0  0  0  0  0  0  0  0  0  0
   48.2520   33.4360   37.8820 C   0  0  0  0  0  0  0  0  0  0  0  0
   48.2360   35.0450   42.4420 O   0  0  0  0  0  0  0  0  0  0  0  0
   49.5130   35.5180   42.2340 C   0  0  0  0  0  0  0  0  0  0  0  0
   49.4010   36.5160   41.5340 O   0  0  0  0  0  0  0  0  0  0  0  0
   50.4840   34.7030   42.8900 N   0  0  0  0  0  0  0  0  0  0  0  0
   45.0344   36.0610   42.4490 H   0  0  0  0  0  0  0  0  0  0  0  0
   44.2240   35.8876   46.6056 H   0  0  0  0  0  0  0  0  0  0  0  0
   45.0896   31.3639   42.9800 H   0  0  0  0  0  0  0  0  0  0  0  0
   45.7166   29.0383   43.3656 H   0  0  0  0  0  0  0  0  0  0  0  0
   46.9307   28.4079   45.4694 H   0  0  0  0  0  0  0  0  0  0  0  0
   47.8732   29.1106   47.5294 H   0  0  0  0  0  0  0  0  0  0  0  0
   48.4401   30.8502   49.2018 H   0  0  0  0  0  0  0  0  0  0  0  0
   47.7832   33.2539   48.7604 H   0  0  0  0  0  0  0  0  0  0  0  0
   46.5716   33.7846   46.6169 H   0  0  0  0  0  0  0  0  0  0  0  0
   46.2236   32.5662   40.1068 H   0  0  0  0  0  0  0  0  0  0  0  0
   45.6004   33.9231   39.0625 H   0  0  0  0  0  0  0  0  0  0  0  0
   45.0413   32.7217   37.4471 H   0  0  0  0  0  0  0  0  0  0  0  0
   46.0716   34.1243   36.9643 H   0  0  0  0  0  0  0  0  0  0  0  0
   45.9885   31.3213   35.8447 H   0  0  0  0  0  0  0  0  0  0  0  0
   45.9649   32.9010   34.9907 H   0  0  0  0  0  0  0  0  0  0  0  0
   48.2616   31.3345   36.1019 H   0  0  0  0  0  0  0  0  0  0  0  0
   48.1464   32.3595   34.6187 H   0  0  0  0  0  0  0  0  0  0  0  0
   49.6421   33.3554   36.2861 H   0  0  0  0  0  0  0  0  0  0  0  0
   48.1534   34.3660   35.9981 H   0  0  0  0  0  0  0  0  0  0  0  0
   49.0891   32.9669   38.4198 H   0  0  0  0  0  0  0  0  0  0  0  0
   48.1144   34.4795   38.2015 H   0  0  0  0  0  0  0  0  0  0  0  0
   51.4845   34.9377   42.8212 H   0  0  0  0  0  0  0  0  0  0  0  0
   50.1841   33.8802   43.4322 H   0  0  0  0  0  0  0  0  0  0  0  0
  1  2  2  0
  1  6  1  0
  2  3  1  0
  3  7  1  0
  3  4  2  0
  5  4  1  0
  6  5  2  0
  7 16  2  0
  8  9  2  0
  8  7  1  0
  9 10  1  0
 10 11  2  0
 11 12  1  0
 12 13  2  0
 14 13  1  0
 15 14  2  0
 16 11  1  0
 16 15  1  0
 17  2  1  0
 19 18  2  0
 19 17  1  0
 19 28  1  0
 20 19  1  0
 21 20  1  0
 22 21  1  0
 23 22  1  0
 24 23  1  0
 25 24  1  0
 25 26  1  0
 26 27  1  0
 27 22  1  0
 29 28  1  0
 29 31  1  0
 30 29  2  0
  1 32  1  0
  5 33  1  0
  8 34  1  0
  9 35  1  0
 10 36  1  0
 12 37  1  0
 13 38  1  0
 14 39  1  0
 15 40  1  0
 21 41  1  0
 21 42  1  0
 23 43  1  0
 23 44  1  0
 24 45  1  0
 24 46  1  0
 25 47  1  0
 25 48  1  0
 26 49  1  0
 26 50  1  0
 27 51  1  0
 27 52  1  0
 31 53  1  0
 31 54  1  0
M  ISO  8  32  14  33  14  34  14  35  14  36  14  37  14  38  14  39  14
M  ISO  8  40  14  41   8  42   8  43  13  44  13  45  13  46  13  47  13
M  ISO  5  48  13  49  13  50  13  51  13  52  13
M  END
>  <minimizedAffinity>  (1) 
-6.27730227

>  <minimizedRMSD>  (1) 
1.28004336

$$$$
