
     RDKit          3D

 42 44  0  0  1  0  0  0  0  0999 V2000
   44.7840   34.4430   41.8850 N   0  0  0  0  0  0  0  0  0  0  0  0
   45.8240   33.8240   41.1110 C   0  0  1  0  0  0  0  0  0  0  0  0
   45.5960   33.8990   39.6360 C   0  0  0  0  0  0  0  0  0  0  0  0
   44.2790   33.6790   39.2100 N   0  0  0  0  0  0  0  0  0  0  0  0
   43.2290   34.0790   40.0530 C   0  0  0  0  0  0  0  0  0  0  0  0
   43.7350   35.0410   41.1290 C   0  0  0  0  0  0  0  0  0  0  0  0
   44.4920   35.5100   43.9930 C   0  0  0  0  0  0  0  0  0  0  0  0
   44.9030   34.3970   43.2860 C   0  0  0  0  0  0  0  0  0  0  0  0
   45.4090   33.3000   44.0230 C   0  0  0  0  0  0  0  0  0  0  0  0
   45.4790   33.3600   45.3750 N   0  0  0  0  0  0  0  0  0  0  0  0
   45.0640   34.4710   46.0290 C   0  0  0  0  0  0  0  0  0  0  0  0
   44.5770   35.5340   45.3580 N   0  0  0  0  0  0  0  0  0  0  0  0
   47.1230   34.5780   41.3810 C   0  0  0  0  0  0  0  0  0  0  0  0
   48.2480   33.7430   41.5050 N   0  0  0  0  0  0  0  0  0  0  0  0
   48.0750   32.3510   41.5650 C   0  0  0  0  0  0  0  0  0  0  0  0
   48.8690   31.8000   42.7460 C   0  0  0  0  0  0  0  0  0  0  0  0
   50.3330   32.0540   42.3630 C   0  0  0  0  0  0  0  0  0  0  0  0
   50.4900   33.5690   42.4500 C   0  0  0  0  0  0  0  0  0  0  0  0
   49.5280   34.3070   41.5890 C   0  0  0  0  0  0  0  0  0  0  0  0
   45.8515   32.7646   41.4058 H   0  0  0  0  0  0  0  0  0  0  0  0
   45.8967   34.9019   39.2987 H   0  0  0  0  0  0  0  0  0  0  0  0
   46.1910   33.0830   39.2001 H   0  0  0  0  0  0  0  0  0  0  0  0
   44.1601   34.1788   38.3173 H   0  0  0  0  0  0  0  0  0  0  0  0
   42.4564   34.5824   39.4533 H   0  0  0  0  0  0  0  0  0  0  0  0
   42.8111   33.1878   40.5441 H   0  0  0  0  0  0  0  0  0  0  0  0
   44.1125   35.9552   40.6476 H   0  0  0  0  0  0  0  0  0  0  0  0
   42.9033   35.2828   41.8071 H   0  0  0  0  0  0  0  0  0  0  0  0
   44.0937   36.3828   43.4549 H   0  0  0  0  0  0  0  0  0  0  0  0
   45.7468   32.3952   43.4965 H   0  0  0  0  0  0  0  0  0  0  0  0
   45.1254   34.5066   47.1267 H   0  0  0  0  0  0  0  0  0  0  0  0
   47.2987   35.2755   40.5488 H   0  0  0  0  0  0  0  0  0  0  0  0
   46.9995   35.0949   42.3441 H   0  0  0  0  0  0  0  0  0  0  0  0
   47.0082   32.1177   41.6973 H   0  0  0  0  0  0  0  0  0  0  0  0
   48.4328   31.8923   40.6314 H   0  0  0  0  0  0  0  0  0  0  0  0
   48.6099   32.3321   43.6732 H   0  0  0  0  0  0  0  0  0  0  0  0
   48.6604   30.7368   42.9360 H   0  0  0  0  0  0  0  0  0  0  0  0
   50.5353   31.6996   41.3415 H   0  0  0  0  0  0  0  0  0  0  0  0
   51.0368   31.5209   43.0191 H   0  0  0  0  0  0  0  0  0  0  0  0
   50.3330   33.8776   43.4941 H   0  0  0  0  0  0  0  0  0  0  0  0
   51.5019   33.8142   42.0950 H   0  0  0  0  0  0  0  0  0  0  0  0
   49.9468   34.3532   40.5729 H   0  0  0  0  0  0  0  0  0  0  0  0
   49.3964   35.2945   42.0554 H   0  0  0  0  0  0  0  0  0  0  0  0
  1  8  1  0
  2 13  1  0
  2  1  1  0
  3  2  1  0
  4  3  1  0
  4  5  1  0
  5  6  1  0
  6  1  1  0
  7 12  2  0
  8  7  1  0
  8  9  2  0
  9 10  1  0
 10 11  2  0
 12 11  1  0
 13 14  1  0
 14 15  1  0
 14 19  1  0
 15 16  1  0
 17 18  1  0
 17 16  1  0
 19 18  1  0
  2 20  1  1
  3 21  1  0
  3 22  1  0
  4 23  1  0
  5 24  1  0
  5 25  1  0
  6 26  1  0
  6 27  1  0
  7 28  1  0
  9 29  1  0
 11 30  1  0
 13 31  1  0
 13 32  1  0
 15 33  1  0
 15 34  1  0
 16 35  1  0
 16 36  1  0
 17 37  1  0
 17 38  1  0
 18 39  1  0
 18 40  1  0
 19 41  1  0
 19 42  1  0
M  ISO  8  20  13  21  13  22  13  23   5  24  13  25  13  26  13  27  13
M  ISO  8  28  14  29  14  30  14  31   8  32   8  33  13  34  13  35  13
M  ISO  7  36  13  37  13  38  13  39  13  40  13  41  13  42  13
M  END
>  <minimizedAffinity>  (1) 
-4.31718779

>  <minimizedRMSD>  (1) 
1.59042859

$$$$
