
     RDKit          3D

 48 52  0  0  1  0  0  0  0  0999 V2000
   46.6520   32.1380   46.0460 C   0  0  1  0  0  0  0  0  0  0  0  0
   46.8020   32.5040   47.4620 C   0  0  0  0  0  0  0  0  0  0  0  0
   45.5330   31.7590   46.8860 C   0  0  2  0  0  0  0  0  0  0  0  0
   45.2310   30.3950   47.3260 C   0  0  0  0  0  0  0  0  0  0  0  0
   45.1370   29.9420   48.6070 C   0  0  0  0  0  0  0  0  0  0  0  0
   44.9780   28.6180   48.9950 C   0  0  0  0  0  0  0  0  0  0  0  0
   44.9120   27.6720   47.9540 C   0  0  0  0  0  0  0  0  0  0  0  0
   45.0030   28.1050   46.6310 C   0  0  0  0  0  0  0  0  0  0  0  0
   44.8700   27.1490   45.6420 C   0  0  0  0  0  0  0  0  0  0  0  0
   44.8840   27.5470   44.3150 C   0  0  0  0  0  0  0  0  0  0  0  0
   45.0240   28.8780   43.9800 C   0  0  0  0  0  0  0  0  0  0  0  0
   45.1550   29.7900   45.0020 C   0  0  0  0  0  0  0  0  0  0  0  0
   45.1560   29.4420   46.3400 C   0  0  0  0  0  0  0  0  0  0  0  0
   45.3500   35.0840   44.2480 C   0  0  0  0  0  0  0  0  0  0  0  0
   46.0840   35.0470   43.0130 C   0  0  0  0  0  0  0  0  0  0  0  0
   47.0290   33.9810   42.8550 C   0  0  0  0  0  0  0  0  0  0  0  0
   47.1910   33.0890   43.8310 N   0  0  0  0  0  0  0  0  0  0  0  0
   46.4560   33.1780   44.9970 C   0  0  0  0  0  0  0  0  0  0  0  0
   45.5670   34.1460   45.1920 N   0  0  0  0  0  0  0  0  0  0  0  0
   47.7380   33.9690   41.6250 N   0  0  0  0  0  0  0  0  0  0  0  0
   47.0480   34.2670   40.3870 C   0  0  0  0  0  0  0  0  0  0  0  0
   48.0720   34.1430   39.2650 C   0  0  0  0  0  0  0  0  0  0  0  0
   48.8070   32.8430   39.2730 C   0  0  0  0  0  0  0  0  0  0  0  0
   49.2590   32.4400   40.6590 C   0  0  0  0  0  0  0  0  0  0  0  0
   49.1520   33.6670   41.5410 C   0  0  0  0  0  0  0  0  0  0  0  0
   47.3063   31.5784   45.3613 H   0  0  0  0  0  0  0  0  0  0  0  0
   47.5193   31.9718   48.1041 H   0  0  0  0  0  0  0  0  0  0  0  0
   46.9956   33.4252   48.0311 H   0  0  0  0  0  0  0  0  0  0  0  0
   44.4464   31.9165   46.8182 H   0  0  0  0  0  0  0  0  0  0  0  0
   45.1921   30.6940   49.4079 H   0  0  0  0  0  0  0  0  0  0  0  0
   44.9078   28.3256   50.0531 H   0  0  0  0  0  0  0  0  0  0  0  0
   44.7900   26.6028   48.1817 H   0  0  0  0  0  0  0  0  0  0  0  0
   44.7546   26.0871   45.9046 H   0  0  0  0  0  0  0  0  0  0  0  0
   44.7824   26.7936   43.5199 H   0  0  0  0  0  0  0  0  0  0  0  0
   45.0307   29.2002   42.9283 H   0  0  0  0  0  0  0  0  0  0  0  0
   45.2648   30.8528   44.7404 H   0  0  0  0  0  0  0  0  0  0  0  0
   44.6100   35.8788   44.4234 H   0  0  0  0  0  0  0  0  0  0  0  0
   45.9281   35.8005   42.2269 H   0  0  0  0  0  0  0  0  0  0  0  0
   46.2274   33.5515   40.2302 H   0  0  0  0  0  0  0  0  0  0  0  0
   46.6144   35.2776   40.4128 H   0  0  0  0  0  0  0  0  0  0  0  0
   48.8037   34.9577   39.3692 H   0  0  0  0  0  0  0  0  0  0  0  0
   47.5205   34.1981   38.3148 H   0  0  0  0  0  0  0  0  0  0  0  0
   48.1431   32.0603   38.8773 H   0  0  0  0  0  0  0  0  0  0  0  0
   49.7061   32.9643   38.6510 H   0  0  0  0  0  0  0  0  0  0  0  0
   48.6129   31.6391   41.0478 H   0  0  0  0  0  0  0  0  0  0  0  0
   50.2924   32.0638   40.6381 H   0  0  0  0  0  0  0  0  0  0  0  0
   49.5591   33.4568   42.5411 H   0  0  0  0  0  0  0  0  0  0  0  0
   49.7234   34.5125   41.1303 H   0  0  0  0  0  0  0  0  0  0  0  0
  1  3  1  0
  1  2  1  0
  3  4  1  0
  3  2  1  0
  4  5  2  0
  5  6  1  0
  7  6  2  0
  8  7  1  0
  9  8  2  0
 10  9  1  0
 11 10  2  0
 11 12  1  0
 12 13  2  0
 13  8  1  0
 13  4  1  0
 14 19  2  0
 15 14  1  0
 16 15  2  0
 16 17  1  0
 17 18  2  0
 18 19  1  0
 18  1  1  0
 20 16  1  0
 21 20  1  0
 22 23  1  0
 22 21  1  0
 23 24  1  0
 24 25  1  0
 25 20  1  0
  1 26  1  6
  2 27  1  0
  2 28  1  0
  3 29  1  6
  5 30  1  0
  6 31  1  0
  7 32  1  0
  9 33  1  0
 10 34  1  0
 11 35  1  0
 12 36  1  0
 14 37  1  0
 15 38  1  0
 21 39  1  0
 21 40  1  0
 22 41  1  0
 22 42  1  0
 23 43  1  0
 23 44  1  0
 24 45  1  0
 24 46  1  0
 25 47  1  0
 25 48  1  0
M  ISO  8  26  13  27  13  28  13  29  13  30  14  31  14  32  14  33  14
M  ISO  8  34  14  35  14  36  14  37  14  38  14  39  13  40  13  41  13
M  ISO  7  42  13  43  13  44  13  45  13  46  13  47  13  48  13
M  END
>  <minimizedAffinity>  (1) 
-5.10091305

>  <minimizedRMSD>  (1) 
1.56108701

$$$$
