
     RDKit          3D

 47 50  0  0  1  0  0  0  0  0999 V2000
   49.3790   33.3150   41.3990 N   0  0  0  0  0  0  0  0  0  0  0  0
   50.6780   33.0910   42.0340 C   0  0  0  0  0  0  0  0  0  0  0  0
   51.2830   31.7660   41.6710 C   0  0  0  0  0  0  0  0  0  0  0  0
   50.4380   30.7000   42.3510 C   0  0  0  0  0  0  0  0  0  0  0  0
   48.9860   31.0160   42.2210 C   0  0  0  0  0  0  0  0  0  0  0  0
   48.7450   32.0420   41.1450 C   0  0  2  0  0  0  0  0  0  0  0  0
   47.2500   34.6510   41.9590 C   0  0  1  0  0  0  0  0  0  0  0  0
   48.3920   35.5540   41.7520 C   0  0  0  0  0  0  0  0  0  0  0  0
   48.6390   34.1780   42.2540 C   0  0  2  0  0  0  0  0  0  0  0  0
   45.5280   36.0480   43.1470 C   0  0  0  0  0  0  0  0  0  0  0  0
   46.3260   34.8860   43.1100 C   0  0  0  0  0  0  0  0  0  0  0  0
   46.2230   33.9670   44.1670 C   0  0  0  0  0  0  0  0  0  0  0  0
   45.3520   34.2530   45.1710 N   0  0  0  0  0  0  0  0  0  0  0  0
   44.5930   35.3830   45.1820 C   0  0  0  0  0  0  0  0  0  0  0  0
   44.6780   36.2900   44.1640 N   0  0  0  0  0  0  0  0  0  0  0  0
   49.1120   31.6290   39.8330 N   0  0  0  0  0  0  0  0  0  0  0  0
   48.8730   32.6920   38.9140 C   0  0  0  0  0  0  0  0  0  0  0  0
   48.7850   32.2470   37.4770 C   0  0  0  0  0  0  0  0  0  0  0  0
   47.6110   31.3210   37.2450 C   0  0  0  0  0  0  0  0  0  0  0  0
   47.3700   30.5080   38.4890 C   0  0  0  0  0  0  0  0  0  0  0  0
   48.6160   30.3980   39.3540 C   0  0  0  0  0  0  0  0  0  0  0  0
   51.3657   33.8895   41.7184 H   0  0  0  0  0  0  0  0  0  0  0  0
   50.5193   33.0952   43.1225 H   0  0  0  0  0  0  0  0  0  0  0  0
   51.2638   31.6264   40.5801 H   0  0  0  0  0  0  0  0  0  0  0  0
   52.3321   31.7071   41.9965 H   0  0  0  0  0  0  0  0  0  0  0  0
   50.6390   29.7259   41.8813 H   0  0  0  0  0  0  0  0  0  0  0  0
   50.6991   30.6698   43.4191 H   0  0  0  0  0  0  0  0  0  0  0  0
   48.4399   30.0954   41.9674 H   0  0  0  0  0  0  0  0  0  0  0  0
   48.6322   31.4262   43.1784 H   0  0  0  0  0  0  0  0  0  0  0  0
   47.6518   32.1570   41.1851 H   0  0  0  0  0  0  0  0  0  0  0  0
   46.4195   34.3030   41.3272 H   0  0  0  0  0  0  0  0  0  0  0  0
   48.6961   35.8272   40.7308 H   0  0  0  0  0  0  0  0  0  0  0  0
   48.6528   36.5633   42.1032 H   0  0  0  0  0  0  0  0  0  0  0  0
   49.0828   33.6865   43.1323 H   0  0  0  0  0  0  0  0  0  0  0  0
   45.6013   36.7752   42.3249 H   0  0  0  0  0  0  0  0  0  0  0  0
   46.8263   33.0474   44.1821 H   0  0  0  0  0  0  0  0  0  0  0  0
   43.9040   35.5677   46.0194 H   0  0  0  0  0  0  0  0  0  0  0  0
   47.9240   33.1777   39.1851 H   0  0  0  0  0  0  0  0  0  0  0  0
   49.7320   33.3755   38.9851 H   0  0  0  0  0  0  0  0  0  0  0  0
   48.6707   33.1338   36.8363 H   0  0  0  0  0  0  0  0  0  0  0  0
   49.7063   31.6979   37.2327 H   0  0  0  0  0  0  0  0  0  0  0  0
   46.7142   31.9144   37.0136 H   0  0  0  0  0  0  0  0  0  0  0  0
   47.8299   30.6502   36.4011 H   0  0  0  0  0  0  0  0  0  0  0  0
   46.5724   30.9868   39.0760 H   0  0  0  0  0  0  0  0  0  0  0  0
   47.0839   29.4923   38.1783 H   0  0  0  0  0  0  0  0  0  0  0  0
   48.3765   29.7645   40.2208 H   0  0  0  0  0  0  0  0  0  0  0  0
   49.4029   29.9745   38.7126 H   0  0  0  0  0  0  0  0  0  0  0  0
  1  2  1  0
  1  9  1  0
  3  2  1  0
  3  4  1  0
  5  4  1  0
  6  1  1  0
  6  5  1  0
  7  9  1  0
  7 11  1  0
  8  7  1  0
  8  9  1  0
 10 15  2  0
 11 10  1  0
 11 12  2  0
 12 13  1  0
 13 14  2  0
 15 14  1  0
 16  6  1  0
 17 16  1  0
 18 17  1  0
 19 18  1  0
 19 20  1  0
 20 21  1  0
 21 16  1  0
  2 22  1  0
  2 23  1  0
  3 24  1  0
  3 25  1  0
  4 26  1  0
  4 27  1  0
  5 28  1  0
  5 29  1  0
  6 30  1  6
  7 31  1  6
  8 32  1  0
  8 33  1  0
  9 34  1  1
 10 35  1  0
 12 36  1  0
 14 37  1  0
 17 38  1  0
 17 39  1  0
 18 40  1  0
 18 41  1  0
 19 42  1  0
 19 43  1  0
 20 44  1  0
 20 45  1  0
 21 46  1  0
 21 47  1  0
M  ISO  8  22  13  23  13  24  13  25  13  26  13  27  13  28  13  29  13
M  ISO  8  30  13  31  13  32  13  33  13  34  13  35  14  36  14  37  14
M  ISO  8  38  13  39  13  40  13  41  13  42  13  43  13  44  13  45  13
M  ISO  2  46  13  47  13
M  END
>  <minimizedAffinity>  (1) 
-4.94291735

>  <minimizedRMSD>  (1) 
0.38228476

$$$$
