
     RDKit          3D

 53 55  0  0  1  0  0  0  0  0999 V2000
   46.7360   34.6070   43.4280 N   0  0  0  0  0  0  0  0  0  0  0  0
   46.2310   35.6820   42.6500 C   0  0  0  0  0  0  0  0  0  0  0  0
   44.7190   35.8130   42.6510 C   0  0  0  0  0  0  0  0  0  0  0  0
   44.0820   35.4300   43.9550 C   0  0  0  0  0  0  0  0  0  0  0  0
   45.1110   35.0750   45.0130 C   0  0  0  0  0  0  0  0  0  0  0  0
   45.9440   33.9240   44.3170 C   0  0  2  0  0  0  0  0  0  0  0  0
   47.8580   33.9280   42.8350 C   0  0  0  0  0  0  0  0  0  0  0  0
   47.3450   32.8170   41.9960 C   0  0  0  0  0  0  0  0  0  0  0  0
   49.1060   32.0480   38.7690 C   0  0  0  0  0  0  0  0  0  0  0  0
   48.6100   31.9330   40.0770 C   0  0  0  0  0  0  0  0  0  0  0  0
   47.8600   32.9580   40.6130 C   0  0  0  0  0  0  0  0  0  0  0  0
   47.6440   34.0240   39.8450 N   0  0  0  0  0  0  0  0  0  0  0  0
   48.1160   34.1390   38.5950 C   0  0  0  0  0  0  0  0  0  0  0  0
   48.8450   33.1700   38.0410 N   0  0  0  0  0  0  0  0  0  0  0  0
   46.6480   33.4250   45.3960 O   0  0  0  0  0  0  0  0  0  0  0  0
   45.4780   31.1620   44.6440 O   0  0  0  0  0  0  0  0  0  0  0  0
   46.1900   31.8500   45.8060 P   0  0  2  0  0  0  0  0  0  0  0  0
   45.0230   32.0120   47.0330 O   0  0  0  0  0  0  0  0  0  0  0  0
   47.4630   30.9360   46.3950 O   0  0  0  0  0  0  0  0  0  0  0  0
   47.5590   29.7770   45.6550 C   0  0  0  0  0  0  0  0  0  0  0  0
   47.2580   28.5680   46.3970 N   0  0  0  0  0  0  0  0  0  0  0  0
   46.6310   28.9030   47.6100 C   0  0  0  0  0  0  0  0  0  0  0  0
   45.2280   28.4420   47.8240 C   0  0  0  0  0  0  0  0  0  0  0  0
   44.4650   28.4920   46.5230 C   0  0  0  0  0  0  0  0  0  0  0  0
   45.1450   27.5150   45.6120 C   0  0  0  0  0  0  0  0  0  0  0  0
   46.6300   27.6540   45.5300 C   0  0  0  0  0  0  0  0  0  0  0  0
   46.5612   35.5370   41.6108 H   0  0  0  0  0  0  0  0  0  0  0  0
   46.6220   36.6040   43.1050 H   0  0  0  0  0  0  0  0  0  0  0  0
   44.4608   36.8597   42.4323 H   0  0  0  0  0  0  0  0  0  0  0  0
   44.3352   35.1186   41.8891 H   0  0  0  0  0  0  0  0  0  0  0  0
   43.4792   36.2760   44.3168 H   0  0  0  0  0  0  0  0  0  0  0  0
   43.4586   34.5411   43.7783 H   0  0  0  0  0  0  0  0  0  0  0  0
   45.7496   35.9386   45.2505 H   0  0  0  0  0  0  0  0  0  0  0  0
   44.6644   34.7717   45.9714 H   0  0  0  0  0  0  0  0  0  0  0  0
   45.4212   33.1175   43.7819 H   0  0  0  0  0  0  0  0  0  0  0  0
   48.4298   34.6308   42.2112 H   0  0  0  0  0  0  0  0  0  0  0  0
   48.5185   33.5332   43.6211 H   0  0  0  0  0  0  0  0  0  0  0  0
   47.6804   31.8569   42.4152 H   0  0  0  0  0  0  0  0  0  0  0  0
   46.2456   32.8488   41.9809 H   0  0  0  0  0  0  0  0  0  0  0  0
   49.7040   31.2344   38.3326 H   0  0  0  0  0  0  0  0  0  0  0  0
   48.8184   31.0307   40.6706 H   0  0  0  0  0  0  0  0  0  0  0  0
   47.8978   35.0489   38.0166 H   0  0  0  0  0  0  0  0  0  0  0  0
   45.4635   31.9509   47.9175 H   0  0  0  0  0  0  0  0  0  0  0  0
   46.8561   29.8476   44.8118 H   0  0  0  0  0  0  0  0  0  0  0  0
   48.6074   29.6955   45.3323 H   0  0  0  0  0  0  0  0  0  0  0  0
   47.2416   28.4803   48.4215 H   0  0  0  0  0  0  0  0  0  0  0  0
   46.5593   30.0004   47.5883 H   0  0  0  0  0  0  0  0  0  0  0  0
   45.2375   27.4088   48.2014 H   0  0  0  0  0  0  0  0  0  0  0  0
   44.7385   29.1016   48.5556 H   0  0  0  0  0  0  0  0  0  0  0  0
   43.4164   28.2007   46.6827 H   0  0  0  0  0  0  0  0  0  0  0  0
   44.4586   29.5059   46.0965 H   0  0  0  0  0  0  0  0  0  0  0  0
   44.5912   26.7518   45.0455 H   0  0  0  0  0  0  0  0  0  0  0  0
   47.2156   27.0596   44.8132 H   0  0  0  0  0  0  0  0  0  0  0  0
  1  6  1  0
  2  3  1  0
  2  1  1  0
  3  4  1  0
  4  5  1  0
  6  5  1  0
  6 15  1  0
  7  1  1  0
  8  7  1  0
  9 10  2  0
 10 11  1  0
 11  8  1  0
 12 11  2  0
 13 12  1  0
 14 13  2  0
 14  9  1  0
 15 17  1  0
 17 16  2  0
 17 19  1  0
 17 18  1  0
 20 19  1  0
 20 21  1  0
 21 22  1  0
 22 23  1  0
 24 23  1  0
 25 24  1  0
 26 25  2  0
 26 21  1  0
  2 27  1  0
  2 28  1  0
  3 29  1  0
  3 30  1  0
  4 31  1  0
  4 32  1  0
  5 33  1  0
  5 34  1  0
  6 35  1  6
  7 36  1  0
  7 37  1  0
  8 38  1  0
  8 39  1  0
  9 40  1  0
 10 41  1  0
 13 42  1  0
 18 43  1  0
 20 44  1  0
 20 45  1  0
 22 46  1  0
 22 47  1  0
 23 48  1  0
 23 49  1  0
 24 50  1  0
 24 51  1  0
 25 52  1  0
 26 53  1  0
M  ISO  8  27  13  28  13  29  13  30  13  31  13  32  13  33  13  34  13
M  ISO  8  35  13  36   8  37   8  38   8  39   8  40  14  41  14  42  14
M  ISO  8  43   3  44   8  45   8  46  13  47  13  48  13  49  13  50  13
M  ISO  3  51  13  52  13  53  13
M  END
>  <minimizedAffinity>  (1) 
-4.26244259

>  <minimizedRMSD>  (1) 
1.19118059

$$$$
