
     RDKit          3D

 53 57  0  0  0  0  0  0  0  0999 V2000
   47.4730   31.9030   47.7520 C   0  0  0  0  0  0  0  0  0  0  0  0
   46.9120   30.6340   47.8000 C   0  0  0  0  0  0  0  0  0  0  0  0
   45.8930   30.3870   46.9470 C   0  0  0  0  0  0  0  0  0  0  0  0
   45.4710   31.3380   46.1030 N   0  0  0  0  0  0  0  0  0  0  0  0
   45.9940   32.5540   46.0330 C   0  0  0  0  0  0  0  0  0  0  0  0
   47.0090   32.8010   46.8910 N   0  0  0  0  0  0  0  0  0  0  0  0
   45.2610   29.1530   46.9020 N   0  0  0  0  0  0  0  0  0  0  0  0
   44.0210   28.8340   46.1720 C   0  0  0  0  0  0  0  0  0  0  0  0
   43.9070   27.3290   46.2040 C   0  0  0  0  0  0  0  0  0  0  0  0
   44.6410   26.9530   47.4620 C   0  0  0  0  0  0  0  0  0  0  0  0
   45.7230   27.9620   47.5810 C   0  0  0  0  0  0  0  0  0  0  0  0
   45.6790   33.7110   45.1940 C   0  0  0  0  0  0  0  0  0  0  0  0
   44.9310   34.7580   45.6420 N   0  0  0  0  0  0  0  0  0  0  0  0
   44.6330   35.8430   44.9320 C   0  0  0  0  0  0  0  0  0  0  0  0
   45.0920   35.9520   43.6640 N   0  0  0  0  0  0  0  0  0  0  0  0
   45.8470   34.9710   43.1140 C   0  0  0  0  0  0  0  0  0  0  0  0
   46.3210   35.1180   41.8420 C   0  0  0  0  0  0  0  0  0  0  0  0
   47.1090   34.1440   41.2870 C   0  0  0  0  0  0  0  0  0  0  0  0
   47.3980   33.0230   42.0570 C   0  0  0  0  0  0  0  0  0  0  0  0
   46.8790   32.9400   43.3410 C   0  0  0  0  0  0  0  0  0  0  0  0
   46.1020   33.8920   43.9110 C   0  0  0  0  0  0  0  0  0  0  0  0
   47.3170   31.6500   43.7370 N   0  0  0  0  0  0  0  0  0  0  0  0
   46.4270   30.5240   43.3660 C   0  0  0  0  0  0  0  0  0  0  0  0
   47.1020   29.7730   42.2320 C   0  0  0  0  0  0  0  0  0  0  0  0
   48.5040   29.4050   42.4980 C   0  0  0  0  0  0  0  0  0  0  0  0
   49.3000   30.2350   43.4440 C   0  0  0  0  0  0  0  0  0  0  0  0
   48.4970   31.0920   44.3770 C   0  0  0  0  0  0  0  0  0  0  0  0
   47.4640   29.6840   48.6540 N   0  0  0  0  0  0  0  0  0  0  0  0
   48.3014   32.1644   48.4269 H   0  0  0  0  0  0  0  0  0  0  0  0
   44.0835   29.1924   45.1339 H   0  0  0  0  0  0  0  0  0  0  0  0
   43.1446   29.3184   46.6272 H   0  0  0  0  0  0  0  0  0  0  0  0
   42.8541   27.0145   46.2532 H   0  0  0  0  0  0  0  0  0  0  0  0
   44.3187   26.8469   45.3050 H   0  0  0  0  0  0  0  0  0  0  0  0
   43.9694   26.9996   48.3319 H   0  0  0  0  0  0  0  0  0  0  0  0
   45.0316   25.9253   47.4253 H   0  0  0  0  0  0  0  0  0  0  0  0
   46.6427   27.5886   47.1069 H   0  0  0  0  0  0  0  0  0  0  0  0
   45.9514   28.1729   48.6361 H   0  0  0  0  0  0  0  0  0  0  0  0
   44.0196   36.6434   45.3715 H   0  0  0  0  0  0  0  0  0  0  0  0
   46.0702   36.0187   41.2625 H   0  0  0  0  0  0  0  0  0  0  0  0
   47.5007   34.2458   40.2642 H   0  0  0  0  0  0  0  0  0  0  0  0
   48.0275   32.2155   41.6550 H   0  0  0  0  0  0  0  0  0  0  0  0
   46.2848   29.8561   44.2284 H   0  0  0  0  0  0  0  0  0  0  0  0
   45.4385   30.8935   43.0557 H   0  0  0  0  0  0  0  0  0  0  0  0
   47.0771   30.4089   41.3348 H   0  0  0  0  0  0  0  0  0  0  0  0
   46.5480   28.8313   42.1042 H   0  0  0  0  0  0  0  0  0  0  0  0
   48.4985   28.3791   42.8949 H   0  0  0  0  0  0  0  0  0  0  0  0
   49.0046   29.5540   41.5299 H   0  0  0  0  0  0  0  0  0  0  0  0
   49.9188   29.5585   44.0518 H   0  0  0  0  0  0  0  0  0  0  0  0
   49.8852   30.9283   42.8220 H   0  0  0  0  0  0  0  0  0  0  0  0
   49.1307   31.9181   44.7321 H   0  0  0  0  0  0  0  0  0  0  0  0
   48.1595   30.4575   45.2098 H   0  0  0  0  0  0  0  0  0  0  0  0
   47.0599   28.7378   48.7018 H   0  0  0  0  0  0  0  0  0  0  0  0
   48.2766   29.9271   49.2383 H   0  0  0  0  0  0  0  0  0  0  0  0
  1  2  2  0
  2 28  1  0
  3  2  1  0
  4  3  2  0
  5  4  1  0
  5  6  2  0
  6  1  1  0
  7  3  1  0
  7 11  1  0
  8  9  1  0
  8  7  1  0
  9 10  1  0
 10 11  1  0
 12 13  2  0
 12  5  1  0
 14 13  1  0
 15 14  2  0
 16 15  1  0
 16 21  2  0
 17 16  1  0
 18 17  2  0
 18 19  1  0
 19 20  2  0
 20 22  1  0
 20 21  1  0
 21 12  1  0
 22 27  1  0
 23 22  1  0
 24 25  1  0
 24 23  1  0
 25 26  1  0
 26 27  1  0
  1 29  1  0
  8 30  1  0
  8 31  1  0
  9 32  1  0
  9 33  1  0
 10 34  1  0
 10 35  1  0
 11 36  1  0
 11 37  1  0
 14 38  1  0
 17 39  1  0
 18 40  1  0
 19 41  1  0
 23 42  1  0
 23 43  1  0
 24 44  1  0
 24 45  1  0
 25 46  1  0
 25 47  1  0
 26 48  1  0
 26 49  1  0
 27 50  1  0
 27 51  1  0
 28 52  1  0
 28 53  1  0
M  ISO  8  29  14  30  13  31  13  32  13  33  13  34  13  35  13  36  13
M  ISO  8  37  13  38  14  39  14  40  14  41  14  42  13  43  13  44  13
M  ISO  7  45  13  46  13  47  13  48  13  49  13  50  13  51  13
M  END
>  <minimizedAffinity>  (1) 
-5.97148418

>  <minimizedRMSD>  (1) 
0.722426414

$$$$
