
     RDKit          3D

 51 53  0  0  0  0  0  0  0  0999 V2000
   45.8960   32.3330   44.5370 C   0  0  0  0  0  0  0  0  0  0  0  0
   44.6450   35.7660   44.8200 C   0  0  0  0  0  0  0  0  0  0  0  0
   44.1310   36.0070   43.5120 C   0  0  0  0  0  0  0  0  0  0  0  0
   44.2420   34.9790   42.6090 C   0  0  0  0  0  0  0  0  0  0  0  0
   44.8110   33.8230   42.9750 N   0  0  0  0  0  0  0  0  0  0  0  0
   45.2810   33.6450   44.2210 C   0  0  0  0  0  0  0  0  0  0  0  0
   45.2090   34.5790   45.1310 N   0  0  0  0  0  0  0  0  0  0  0  0
   43.7040   35.2410   41.2480 C   0  0  0  0  0  0  0  0  0  0  0  0
   42.2240   35.5160   41.2720 C   0  0  0  0  0  0  0  0  0  0  0  0
   41.5010   34.7910   40.2830 N   0  0  0  0  0  0  0  0  0  0  0  0
   42.1360   34.6910   38.9990 C   0  0  0  0  0  0  0  0  0  0  0  0
   41.3990   35.6210   38.0510 C   0  0  0  0  0  0  0  0  0  0  0  0
   40.0820   34.9170   37.7170 C   0  0  0  0  0  0  0  0  0  0  0  0
   39.4440   34.5130   39.0140 C   0  0  0  0  0  0  0  0  0  0  0  0
   40.1120   35.1160   40.2290 C   0  0  0  0  0  0  0  0  0  0  0  0
   46.7120   32.4780   45.7950 C   0  0  0  0  0  0  0  0  0  0  0  0
   46.1370   31.7700   46.9180 C   0  0  0  0  0  0  0  0  0  0  0  0
   45.3860   32.2640   47.9590 C   0  0  0  0  0  0  0  0  0  0  0  0
   44.8850   31.5060   48.9720 C   0  0  0  0  0  0  0  0  0  0  0  0
   45.1430   30.1610   48.9520 C   0  0  0  0  0  0  0  0  0  0  0  0
   45.8940   29.6460   47.9180 C   0  0  0  0  0  0  0  0  0  0  0  0
   46.3920   30.4350   46.9030 C   0  0  0  0  0  0  0  0  0  0  0  0
   48.4830   29.3340   46.3980 C   0  0  0  0  0  0  0  0  0  0  0  0
   49.3110   29.6790   47.3350 O   0  0  0  0  0  0  0  0  0  0  0  0
   47.1220   29.5770   46.0100 N   0  0  0  0  0  0  0  0  0  0  0  0
   46.5461   32.0185   43.7073 H   0  0  0  0  0  0  0  0  0  0  0  0
   45.1125   31.5745   44.6814 H   0  0  0  0  0  0  0  0  0  0  0  0
   44.5815   36.5551   45.5837 H   0  0  0  0  0  0  0  0  0  0  0  0
   43.6691   36.9677   43.2404 H   0  0  0  0  0  0  0  0  0  0  0  0
   43.8918   34.3605   40.6159 H   0  0  0  0  0  0  0  0  0  0  0  0
   44.2096   36.1321   40.8476 H   0  0  0  0  0  0  0  0  0  0  0  0
   41.8335   35.2399   42.2626 H   0  0  0  0  0  0  0  0  0  0  0  0
   42.0877   36.5860   41.0566 H   0  0  0  0  0  0  0  0  0  0  0  0
   43.1907   34.9933   39.0772 H   0  0  0  0  0  0  0  0  0  0  0  0
   42.1020   33.6554   38.6298 H   0  0  0  0  0  0  0  0  0  0  0  0
   41.2038   36.5880   38.5376 H   0  0  0  0  0  0  0  0  0  0  0  0
   41.9889   35.8272   37.1458 H   0  0  0  0  0  0  0  0  0  0  0  0
   39.4182   35.6024   37.1696 H   0  0  0  0  0  0  0  0  0  0  0  0
   40.2637   34.0359   37.0840 H   0  0  0  0  0  0  0  0  0  0  0  0
   38.3922   34.8346   38.9995 H   0  0  0  0  0  0  0  0  0  0  0  0
   39.5455   33.4209   39.0979 H   0  0  0  0  0  0  0  0  0  0  0  0
   40.0030   36.2099   40.1898 H   0  0  0  0  0  0  0  0  0  0  0  0
   39.6280   34.7038   41.1267 H   0  0  0  0  0  0  0  0  0  0  0  0
   47.7207   32.0811   45.6079 H   0  0  0  0  0  0  0  0  0  0  0  0
   46.7370   33.5469   46.0536 H   0  0  0  0  0  0  0  0  0  0  0  0
   45.1764   33.3437   47.9737 H   0  0  0  0  0  0  0  0  0  0  0  0
   44.2922   31.9587   49.7805 H   0  0  0  0  0  0  0  0  0  0  0  0
   44.7580   29.5045   49.7462 H   0  0  0  0  0  0  0  0  0  0  0  0
   46.1038   28.5663   47.9017 H   0  0  0  0  0  0  0  0  0  0  0  0
   48.9695   28.6499   45.6872 H   0  0  0  0  0  0  0  0  0  0  0  0
   46.7032   29.1700   45.1616 H   0  0  0  0  0  0  0  0  0  0  0  0
  1 16  1  0
  2  7  2  0
  3  2  1  0
  4  5  1  0
  4  3  2  0
  5  6  2  0
  6  1  1  0
  6  7  1  0
  8  9  1  0
  8  4  1  0
 10  9  1  0
 11 10  1  0
 12 11  1  0
 13 12  1  0
 13 14  1  0
 14 15  1  0
 15 10  1  0
 16 17  1  0
 17 18  2  0
 18 19  1  0
 20 19  2  0
 21 20  1  0
 22 17  1  0
 22 21  2  0
 23 24  2  0
 25 23  1  0
 25 22  1  0
  1 26  1  0
  1 27  1  0
  2 28  1  0
  3 29  1  0
  8 30  1  0
  8 31  1  0
  9 32  1  0
  9 33  1  0
 11 34  1  0
 11 35  1  0
 12 36  1  0
 12 37  1  0
 13 38  1  0
 13 39  1  0
 14 40  1  0
 14 41  1  0
 15 42  1  0
 15 43  1  0
 16 44  1  0
 16 45  1  0
 18 46  1  0
 19 47  1  0
 20 48  1  0
 21 49  1  0
 23 50  1  0
 25 51  1  0
M  ISO  8  26   8  27   8  28  14  29  14  30   8  31   8  32   8  33   8
M  ISO  8  34  13  35  13  36  13  37  13  38  13  39  13  40  13  41  13
M  ISO  8  42  13  43  13  44   8  45   8  46  14  47  14  48  14  49  14
M  ISO  1  50   6
M  END
>  <minimizedAffinity>  (1) 
-6.07323313

>  <minimizedRMSD>  (1) 
1.13144994

$$$$
