
     RDKit          3D

 38 40  0  0  0  0  0  0  0  0999 V2000
   47.0410   34.4670   41.8880 C   0  0  0  0  0  0  0  0  0  0  0  0
   47.3770   33.3140   42.5930 C   0  0  0  0  0  0  0  0  0  0  0  0
   48.6770   33.1210   42.9970 C   0  0  0  0  0  0  0  0  0  0  0  0
   49.6110   34.0690   42.6970 C   0  0  0  0  0  0  0  0  0  0  0  0
   49.3330   35.2130   42.0110 C   0  0  0  0  0  0  0  0  0  0  0  0
   48.0000   35.3670   41.6210 C   0  0  0  0  0  0  0  0  0  0  0  0
   43.4010   35.4720   41.7120 C   0  0  0  0  0  0  0  0  0  0  0  0
   44.7310   35.4120   42.1850 C   0  0  0  0  0  0  0  0  0  0  0  0
   45.6470   34.6070   41.4910 C   0  0  0  0  0  0  0  0  0  0  0  0
   45.2100   33.9340   40.4070 N   0  0  0  0  0  0  0  0  0  0  0  0
   43.9220   34.0110   39.9740 C   0  0  0  0  0  0  0  0  0  0  0  0
   43.0230   34.7810   40.6300 N   0  0  0  0  0  0  0  0  0  0  0  0
   46.3110   32.2960   42.8980 C   0  0  0  0  0  0  0  0  0  0  0  0
   46.0010   32.2800   44.3050 N   0  0  0  0  0  0  0  0  0  0  0  0
   46.4450   31.1320   45.0030 C   0  0  0  0  0  0  0  0  0  0  0  0
   47.2110   31.3900   46.2600 C   0  0  0  0  0  0  0  0  0  0  0  0
   46.7280   32.5530   47.0660 C   0  0  0  0  0  0  0  0  0  0  0  0
   45.7870   33.4620   46.3190 C   0  0  0  0  0  0  0  0  0  0  0  0
   46.3590   33.5390   44.8980 C   0  0  0  0  0  0  0  0  0  0  0  0
   48.9598   32.2155   43.5539 H   0  0  0  0  0  0  0  0  0  0  0  0
   50.6466   33.9004   43.0274 H   0  0  0  0  0  0  0  0  0  0  0  0
   50.1040   35.9629   41.7803 H   0  0  0  0  0  0  0  0  0  0  0  0
   47.7218   36.2747   41.0653 H   0  0  0  0  0  0  0  0  0  0  0  0
   42.6654   36.0958   42.2409 H   0  0  0  0  0  0  0  0  0  0  0  0
   45.0402   35.9814   43.0739 H   0  0  0  0  0  0  0  0  0  0  0  0
   43.6097   33.4436   39.0849 H   0  0  0  0  0  0  0  0  0  0  0  0
   45.4017   32.5465   42.3320 H   0  0  0  0  0  0  0  0  0  0  0  0
   46.6825   31.3017   42.6093 H   0  0  0  0  0  0  0  0  0  0  0  0
   45.5603   30.5327   45.2641 H   0  0  0  0  0  0  0  0  0  0  0  0
   47.1463   30.6233   44.3252 H   0  0  0  0  0  0  0  0  0  0  0  0
   47.1486   30.4895   46.8887 H   0  0  0  0  0  0  0  0  0  0  0  0
   48.2375   31.6355   45.9500 H   0  0  0  0  0  0  0  0  0  0  0  0
   46.2054   32.1667   47.9535 H   0  0  0  0  0  0  0  0  0  0  0  0
   47.6131   33.1521   47.3259 H   0  0  0  0  0  0  0  0  0  0  0  0
   44.7710   33.0405   46.3051 H   0  0  0  0  0  0  0  0  0  0  0  0
   45.7087   34.4537   46.7885 H   0  0  0  0  0  0  0  0  0  0  0  0
   47.4519   33.6615   44.9235 H   0  0  0  0  0  0  0  0  0  0  0  0
   45.9678   34.3975   44.3324 H   0  0  0  0  0  0  0  0  0  0  0  0
  1  2  1  0
  2 13  1  0
  2  3  2  0
  4  3  1  0
  5  4  2  0
  6  1  2  0
  6  5  1  0
  7  8  2  0
  9  1  1  0
  9  8  1  0
 10  9  2  0
 11 10  1  0
 11 12  2  0
 12  7  1  0
 13 14  1  0
 14 19  1  0
 14 15  1  0
 15 16  1  0
 16 17  1  0
 18 17  1  0
 19 18  1  0
  3 20  1  0
  4 21  1  0
  5 22  1  0
  6 23  1  0
  7 24  1  0
  8 25  1  0
 11 26  1  0
 13 27  1  0
 13 28  1  0
 15 29  1  0
 15 30  1  0
 16 31  1  0
 16 32  1  0
 17 33  1  0
 17 34  1  0
 18 35  1  0
 18 36  1  0
 19 37  1  0
 19 38  1  0
M  ISO  8  20  14  21  14  22  14  23  14  24  14  25  14  26  14  27   8
M  ISO  8  28   8  29  13  30  13  31  13  32  13  33  13  34  13  35  13
M  ISO  3  36  13  37  13  38  13
M  END
>  <minimizedAffinity>  (1) 
-5.13945961

>  <minimizedRMSD>  (1) 
3.51997089

$$$$
