
     RDKit          3D

 46 49  0  0  0  0  0  0  0  0999 V2000
   45.4420   34.9210   43.5970 C   0  0  0  0  0  0  0  0  0  0  0  0
   45.8640   33.6160   43.8120 C   0  0  0  0  0  0  0  0  0  0  0  0
   45.6910   33.0390   45.0460 C   0  0  0  0  0  0  0  0  0  0  0  0
   45.0890   33.8090   46.0240 N   0  0  0  0  0  0  0  0  0  0  0  0
   44.6880   35.0590   45.8060 C   0  0  0  0  0  0  0  0  0  0  0  0
   44.8710   35.6040   44.5840 N   0  0  0  0  0  0  0  0  0  0  0  0
   46.0650   31.7290   45.4260 C   0  0  0  0  0  0  0  0  0  0  0  0
   45.6920   30.5760   44.7280 C   0  0  0  0  0  0  0  0  0  0  0  0
   45.9980   29.3000   45.1320 C   0  0  0  0  0  0  0  0  0  0  0  0
   46.7190   29.1020   46.2980 C   0  0  0  0  0  0  0  0  0  0  0  0
   47.1030   30.2640   47.0120 C   0  0  0  0  0  0  0  0  0  0  0  0
   47.8170   30.0820   48.1710 C   0  0  0  0  0  0  0  0  0  0  0  0
   48.2280   31.1680   48.9220 C   0  0  0  0  0  0  0  0  0  0  0  0
   47.9110   32.4590   48.4870 C   0  0  0  0  0  0  0  0  0  0  0  0
   47.1770   32.6000   47.2930 C   0  0  0  0  0  0  0  0  0  0  0  0
   46.7800   31.5060   46.5740 C   0  0  0  0  0  0  0  0  0  0  0  0
   46.4380   32.9670   42.7620 O   0  0  0  0  0  0  0  0  0  0  0  0
   48.5860   32.6930   41.2740 O   0  0  0  0  0  0  0  0  0  0  0  0
   47.5210   33.6700   41.6670 P   0  0  1  0  0  0  0  0  0  0  0  0
   46.7480   34.1660   40.2540 O   0  0  0  0  0  0  0  0  0  0  0  0
   48.8350   35.3730   38.7500 F   0  0  0  0  0  0  0  0  0  0  0  0
   48.2320   34.2830   38.2250 C   0  0  0  0  0  0  0  0  0  0  0  0
   47.2380   33.7740   39.0260 C   0  0  0  0  0  0  0  0  0  0  0  0
   46.5520   32.6430   38.5680 C   0  0  0  0  0  0  0  0  0  0  0  0
   46.8560   32.0500   37.3510 C   0  0  0  0  0  0  0  0  0  0  0  0
   47.8560   32.5720   36.5580 C   0  0  0  0  0  0  0  0  0  0  0  0
   48.5270   33.6860   37.0180 C   0  0  0  0  0  0  0  0  0  0  0  0
   48.2000   35.0220   42.3990 O   0  0  0  0  0  0  0  0  0  0  0  0
   49.4910   35.4980   42.2220 C   0  0  0  0  0  0  0  0  0  0  0  0
   49.3550   36.5100   41.5060 O   0  0  0  0  0  0  0  0  0  0  0  0
   50.4460   34.6680   42.9080 N   0  0  0  0  0  0  0  0  0  0  0  0
   45.5800   35.3891   42.6112 H   0  0  0  0  0  0  0  0  0  0  0  0
   44.2138   35.6405   46.6103 H   0  0  0  0  0  0  0  0  0  0  0  0
   45.1179   30.6990   43.7978 H   0  0  0  0  0  0  0  0  0  0  0  0
   45.6717   28.4379   44.5318 H   0  0  0  0  0  0  0  0  0  0  0  0
   46.9802   28.0937   46.6517 H   0  0  0  0  0  0  0  0  0  0  0  0
   48.0641   29.0634   48.5048 H   0  0  0  0  0  0  0  0  0  0  0  0
   48.7978   31.0183   49.8509 H   0  0  0  0  0  0  0  0  0  0  0  0
   48.2268   33.3416   49.0626 H   0  0  0  0  0  0  0  0  0  0  0  0
   46.9187   33.6067   46.9327 H   0  0  0  0  0  0  0  0  0  0  0  0
   45.7517   32.2135   39.1886 H   0  0  0  0  0  0  0  0  0  0  0  0
   46.2984   31.1621   37.0183 H   0  0  0  0  0  0  0  0  0  0  0  0
   48.1103   32.1151   35.5903 H   0  0  0  0  0  0  0  0  0  0  0  0
   49.3282   34.1144   36.3979 H   0  0  0  0  0  0  0  0  0  0  0  0
   51.4495   34.8966   42.8681 H   0  0  0  0  0  0  0  0  0  0  0  0
   50.1259   33.8454   43.4388 H   0  0  0  0  0  0  0  0  0  0  0  0
  1  2  2  0
  1  6  1  0
  2  3  1  0
  3  7  1  0
  3  4  2  0
  5  4  1  0
  6  5  2  0
  7 16  2  0
  8  9  2  0
  8  7  1  0
  9 10  1  0
 10 11  2  0
 11 12  1  0
 12 13  2  0
 14 13  1  0
 15 14  2  0
 16 11  1  0
 16 15  1  0
 17  2  1  0
 19 18  2  0
 19 28  1  0
 19 17  1  0
 20 19  1  0
 22 21  1  0
 22 23  2  0
 23 20  1  0
 24 23  1  0
 25 24  2  0
 26 27  2  0
 26 25  1  0
 27 22  1  0
 29 28  1  0
 29 31  1  0
 30 29  2  0
  1 32  1  0
  5 33  1  0
  8 34  1  0
  9 35  1  0
 10 36  1  0
 12 37  1  0
 13 38  1  0
 14 39  1  0
 15 40  1  0
 24 41  1  0
 25 42  1  0
 26 43  1  0
 27 44  1  0
 31 45  1  0
 31 46  1  0
M  ISO  8  32  14  33  14  34  14  35  14  36  14  37  14  38  14  39  14
M  ISO  5  40  14  41  14  42  14  43  14  44  14
M  END
>  <minimizedAffinity>  (1) 
-6.4828949

>  <minimizedRMSD>  (1) 
1.51102436

$$$$
