
     RDKit          3D

 35 37  0  0  0  0  0  0  0  0999 V2000
   46.4040   34.5060   41.7510 C   0  0  0  0  0  0  0  0  0  0  0  0
   47.6400   34.9840   41.3530 C   0  0  0  0  0  0  0  0  0  0  0  0
   48.2570   34.6700   40.1450 C   0  0  0  0  0  0  0  0  0  0  0  0
   47.5980   33.8250   39.2770 C   0  0  0  0  0  0  0  0  0  0  0  0
   46.3910   33.3690   39.6810 C   0  0  0  0  0  0  0  0  0  0  0  0
   45.8230   33.6850   40.8440 N   0  0  0  0  0  0  0  0  0  0  0  0
   44.5530   36.1160   44.5960 C   0  0  0  0  0  0  0  0  0  0  0  0
   45.0710   35.9720   43.3030 C   0  0  0  0  0  0  0  0  0  0  0  0
   45.7890   34.8390   43.0230 C   0  0  0  0  0  0  0  0  0  0  0  0
   45.9620   33.9100   44.0240 N   0  0  0  0  0  0  0  0  0  0  0  0
   45.4520   34.0760   45.2610 C   0  0  0  0  0  0  0  0  0  0  0  0
   44.7480   35.1790   45.5440 N   0  0  0  0  0  0  0  0  0  0  0  0
   45.7130   32.5220   38.8240 O   0  0  0  0  0  0  0  0  0  0  0  0
   44.3700   34.2830   37.3930 O   0  0  0  0  0  0  0  0  0  0  0  0
   44.2300   32.9530   38.0740 P   0  0  1  0  0  0  0  0  0  0  0  0
   43.8780   31.7710   36.9050 O   0  0  0  0  0  0  0  0  0  0  0  0
   43.0430   32.9950   39.2610 O   0  0  0  0  0  0  0  0  0  0  0  0
   42.9470   33.5900   41.9420 F   0  0  0  0  0  0  0  0  0  0  0  0
   42.1970   34.2640   41.0080 C   0  0  0  0  0  0  0  0  0  0  0  0
   42.2130   33.9970   39.6370 C   0  0  0  0  0  0  0  0  0  0  0  0
   41.3880   34.7880   38.8620 C   0  0  0  0  0  0  0  0  0  0  0  0
   40.5900   35.7820   39.3900 C   0  0  0  0  0  0  0  0  0  0  0  0
   40.5840   36.0360   40.7500 C   0  0  0  0  0  0  0  0  0  0  0  0
   41.4060   35.2520   41.5330 C   0  0  0  0  0  0  0  0  0  0  0  0
   48.1724   35.6593   42.0390 H   0  0  0  0  0  0  0  0  0  0  0  0
   49.2434   35.0847   39.8899 H   0  0  0  0  0  0  0  0  0  0  0  0
   48.0312   33.5373   38.3077 H   0  0  0  0  0  0  0  0  0  0  0  0
   43.9723   37.0168   44.8438 H   0  0  0  0  0  0  0  0  0  0  0  0
   44.9068   36.7438   42.5366 H   0  0  0  0  0  0  0  0  0  0  0  0
   45.6134   33.3095   46.0333 H   0  0  0  0  0  0  0  0  0  0  0  0
   43.6264   30.9261   37.3554 H   0  0  0  0  0  0  0  0  0  0  0  0
   41.3661   34.6181   37.7754 H   0  0  0  0  0  0  0  0  0  0  0  0
   39.9515   36.3791   38.7223 H   0  0  0  0  0  0  0  0  0  0  0  0
   39.9540   36.8252   41.1861 H   0  0  0  0  0  0  0  0  0  0  0  0
   41.4271   35.4265   42.6189 H   0  0  0  0  0  0  0  0  0  0  0  0
  1  9  1  0
  2  1  2  0
  3  2  1  0
  4  5  1  0
  4  3  2  0
  5  6  2  0
  6  1  1  0
  7 12  2  0
  8  7  1  0
  9  8  2  0
  9 10  1  0
 10 11  2  0
 11 12  1  0
 13  5  1  0
 15 14  2  0
 15 13  1  0
 15 17  1  0
 16 15  1  0
 17 20  1  0
 19 24  2  0
 19 18  1  0
 20 19  1  0
 21 22  1  0
 21 20  2  0
 22 23  2  0
 23 24  1  0
  2 25  1  0
  3 26  1  0
  4 27  1  0
  7 28  1  0
  8 29  1  0
 11 30  1  0
 16 31  1  0
 21 32  1  0
 22 33  1  0
 23 34  1  0
 24 35  1  0
M  ISO  8  25  14  26  14  27  14  28  14  29  14  30  14  31   3  32  14
M  ISO  3  33  14  34  14  35  14
M  END
>  <minimizedAffinity>  (1) 
-5.8295536

>  <minimizedRMSD>  (1) 
3.20473003

$$$$
