
     RDKit          3D

 23 24  0  0  0  0  0  0  0  0999 V2000
   44.9490   36.0230   42.7490 C   0  0  0  0  0  0  0  0  0  0  0  0
   45.1480   35.2180   43.9890 C   0  0  0  0  0  0  0  0  0  0  0  0
   46.0410   34.1530   43.9480 C   0  0  0  0  0  0  0  0  0  0  0  0
   46.2240   33.3960   45.1090 C   0  0  0  0  0  0  0  0  0  0  0  0
   45.5160   33.7520   46.2110 N   0  0  0  0  0  0  0  0  0  0  0  0
   44.6570   34.7950   46.2140 C   0  0  0  0  0  0  0  0  0  0  0  0
   44.4700   35.5320   45.1040 N   0  0  0  0  0  0  0  0  0  0  0  0
   45.8380   34.3770   40.5520 F   0  0  0  0  0  0  0  0  0  0  0  0
   44.5170   34.5430   40.7240 C   0  0  0  0  0  0  0  0  0  0  0  0
   44.0990   35.3240   41.7630 C   0  0  0  0  0  0  0  0  0  0  0  0
   42.7030   35.4340   41.8510 C   0  0  0  0  0  0  0  0  0  0  0  0
   41.8070   34.8490   41.0160 C   0  0  0  0  0  0  0  0  0  0  0  0
   42.2840   34.0730   39.9850 C   0  0  0  0  0  0  0  0  0  0  0  0
   43.6450   33.9300   39.8520 C   0  0  0  0  0  0  0  0  0  0  0  0
   44.4700   36.9760   43.0179 H   0  0  0  0  0  0  0  0  0  0  0  0
   45.9350   36.1875   42.2900 H   0  0  0  0  0  0  0  0  0  0  0  0
   46.5896   33.9122   43.0255 H   0  0  0  0  0  0  0  0  0  0  0  0
   46.9172   32.5421   45.1287 H   0  0  0  0  0  0  0  0  0  0  0  0
   44.1054   35.0439   47.1326 H   0  0  0  0  0  0  0  0  0  0  0  0
   42.2990   36.0486   42.6689 H   0  0  0  0  0  0  0  0  0  0  0  0
   40.7259   34.9919   41.1601 H   0  0  0  0  0  0  0  0  0  0  0  0
   41.5940   33.5794   39.2848 H   0  0  0  0  0  0  0  0  0  0  0  0
   44.0451   33.3140   39.0332 H   0  0  0  0  0  0  0  0  0  0  0  0
  1  2  1  0
  2  7  1  0
  3  2  2  0
  3  4  1  0
  4  5  2  0
  5  6  1  0
  7  6  2  0
  8  9  1  0
  9 10  2  0
 10 11  1  0
 10  1  1  0
 12 11  2  0
 13 12  1  0
 14 13  2  0
 14  9  1  0
  1 15  1  0
  1 16  1  0
  3 17  1  0
  4 18  1  0
  6 19  1  0
 11 20  1  0
 12 21  1  0
 13 22  1  0
 14 23  1  0
M  ISO  8  15   8  16   8  17  14  18  14  19  14  20  14  21  14  22  14
M  ISO  1  23  14
M  END
>  <minimizedAffinity>  (1) 
-4.29701376

>  <minimizedRMSD>  (1) 
1.13132143

$$$$
