
     RDKit          3D

 41 44  0  0  0  0  0  0  0  0999 V2000
   44.7740   34.4230   41.8970 C   0  0  0  0  0  0  0  0  0  0  0  0
   43.6310   33.6680   41.8900 C   0  0  0  0  0  0  0  0  0  0  0  0
   43.4800   33.2220   40.6320 N   0  0  0  0  0  0  0  0  0  0  0  0
   44.5030   33.6910   39.8880 C   0  0  0  0  0  0  0  0  0  0  0  0
   45.3120   34.4390   40.6680 N   0  0  0  0  0  0  0  0  0  0  0  0
   44.8050   33.5110   38.5120 N   0  0  0  0  0  0  0  0  0  0  0  0
   42.4540   32.3870   40.0540 C   0  0  0  0  0  0  0  0  0  0  0  0
   40.2270   32.8020   41.8260 F   0  0  0  0  0  0  0  0  0  0  0  0
   40.2620   33.2850   40.5760 C   0  0  0  0  0  0  0  0  0  0  0  0
   41.2590   33.1570   39.6340 C   0  0  0  0  0  0  0  0  0  0  0  0
   41.0810   33.7460   38.3830 C   0  0  0  0  0  0  0  0  0  0  0  0
   39.9460   34.4540   38.0490 C   0  0  0  0  0  0  0  0  0  0  0  0
   38.9610   34.5700   39.0090 C   0  0  0  0  0  0  0  0  0  0  0  0
   39.0950   33.9950   40.2780 C   0  0  0  0  0  0  0  0  0  0  0  0
   45.3710   35.1440   43.0780 C   0  0  0  0  0  0  0  0  0  0  0  0
   45.6110   36.3790   43.1060 O   0  0  0  0  0  0  0  0  0  0  0  0
   44.8800   34.5560   45.4050 C   0  0  0  0  0  0  0  0  0  0  0  0
   45.6980   34.4220   44.2550 C   0  0  0  0  0  0  0  0  0  0  0  0
   46.7720   33.5660   44.4080 C   0  0  0  0  0  0  0  0  0  0  0  0
   47.0370   32.9120   45.5310 N   0  0  0  0  0  0  0  0  0  0  0  0
   46.2120   33.0770   46.6160 C   0  0  0  0  0  0  0  0  0  0  0  0
   45.1580   33.8880   46.5360 N   0  0  0  0  0  0  0  0  0  0  0  0
   47.6390   33.3860   43.2890 C   0  0  0  0  0  0  0  0  0  0  0  0
   48.6410   34.1030   42.7270 C   0  0  0  0  0  0  0  0  0  0  0  0
   49.3010   33.6940   41.6620 C   0  0  0  0  0  0  0  0  0  0  0  0
   48.9300   32.5120   41.1480 C   0  0  0  0  0  0  0  0  0  0  0  0
   47.5720   31.9490   42.2320 S   0  0  0  0  0  0  0  0  0  0  0  0
   42.9685   33.4669   42.7448 H   0  0  0  0  0  0  0  0  0  0  0  0
   45.6432   33.9516   38.1068 H   0  0  0  0  0  0  0  0  0  0  0  0
   44.1858   32.9399   37.9193 H   0  0  0  0  0  0  0  0  0  0  0  0
   42.8707   31.8760   39.1735 H   0  0  0  0  0  0  0  0  0  0  0  0
   42.1339   31.6716   40.8259 H   0  0  0  0  0  0  0  0  0  0  0  0
   41.8781   33.6417   37.6322 H   0  0  0  0  0  0  0  0  0  0  0  0
   39.8298   34.9095   37.0545 H   0  0  0  0  0  0  0  0  0  0  0  0
   38.0450   35.1301   38.7700 H   0  0  0  0  0  0  0  0  0  0  0  0
   38.2966   34.0998   41.0274 H   0  0  0  0  0  0  0  0  0  0  0  0
   44.0026   35.2185   45.3702 H   0  0  0  0  0  0  0  0  0  0  0  0
   46.4215   32.5390   47.5523 H   0  0  0  0  0  0  0  0  0  0  0  0
   48.9157   35.0677   43.1785 H   0  0  0  0  0  0  0  0  0  0  0  0
   50.1124   34.2899   41.2186 H   0  0  0  0  0  0  0  0  0  0  0  0
   49.3493   31.9974   40.2709 H   0  0  0  0  0  0  0  0  0  0  0  0
  1 15  1  0
  2  1  2  0
  3  2  1  0
  4  3  1  0
  4  5  2  0
  5  1  1  0
  6  4  1  0
  7  3  1  0
  9  8  1  0
 10  7  1  0
 10  9  2  0
 11 10  1  0
 12 11  2  0
 12 13  1  0
 13 14  2  0
 14  9  1  0
 15 16  2  0
 15 18  1  0
 17 22  2  0
 18 19  2  0
 18 17  1  0
 19 20  1  0
 20 21  2  0
 22 21  1  0
 23 19  1  0
 24 23  2  0
 25 24  1  0
 26 25  2  0
 26 27  1  0
 27 23  1  0
  2 28  1  0
  6 29  1  0
  6 30  1  0
  7 31  1  0
  7 32  1  0
 11 33  1  0
 12 34  1  0
 13 35  1  0
 14 36  1  0
 17 37  1  0
 21 38  1  0
 24 39  1  0
 25 40  1  0
 26 41  1  0
M  ISO  8  28  14  31   8  32   8  33  14  34  14  35  14  36  14  37  14
M  ISO  4  38  14  39  14  40  14  41  14
M  END
>  <minimizedAffinity>  (1) 
-6.12836599

>  <minimizedRMSD>  (1) 
2.87324476

$$$$
