
     RDKit          3D

 50 54  0  0  0  0  0  0  0  0999 V2000
   46.5270   32.0160   46.2570 C   0  0  0  0  0  0  0  0  0  0  0  0
   46.6480   32.6900   47.4720 C   0  0  0  0  0  0  0  0  0  0  0  0
   47.1110   32.0740   48.6410 C   0  0  0  0  0  0  0  0  0  0  0  0
   47.4720   30.7540   48.6380 C   0  0  0  0  0  0  0  0  0  0  0  0
   47.3530   30.0450   47.4230 C   0  0  0  0  0  0  0  0  0  0  0  0
   47.6690   28.7280   47.4730 C   0  0  0  0  0  0  0  0  0  0  0  0
   47.4900   27.9810   46.3090 C   0  0  0  0  0  0  0  0  0  0  0  0
   46.9790   28.6450   45.1350 C   0  0  0  0  0  0  0  0  0  0  0  0
   46.7070   29.9880   45.2510 C   0  0  0  0  0  0  0  0  0  0  0  0
   46.8730   30.7530   46.3180 C   0  0  0  0  0  0  0  0  0  0  0  0
   44.5560   29.6620   44.4060 C   0  0  0  0  0  0  0  0  0  0  0  0
   45.9180   29.9950   44.0350 C   0  0  0  0  0  0  0  0  0  0  0  0
   46.0380   30.0600   42.7110 C   0  0  0  0  0  0  0  0  0  0  0  0
   45.0320   29.8410   41.7950 C   0  0  0  0  0  0  0  0  0  0  0  0
   43.7570   29.5240   42.1650 C   0  0  0  0  0  0  0  0  0  0  0  0
   43.5240   29.4350   43.5170 C   0  0  0  0  0  0  0  0  0  0  0  0
   44.0530   29.5150   45.7280 O   0  0  0  0  0  0  0  0  0  0  0  0
   42.2210   29.1080   43.8300 O   0  0  0  0  0  0  0  0  0  0  0  0
   40.4280   28.8650   45.8370 F   0  0  0  0  0  0  0  0  0  0  0  0
   41.0760   27.7360   45.4480 C   0  0  0  0  0  0  0  0  0  0  0  0
   41.9900   27.8730   44.4210 C   0  0  0  0  0  0  0  0  0  0  0  0
   42.6640   26.7250   44.0070 C   0  0  0  0  0  0  0  0  0  0  0  0
   42.3510   25.5650   44.6660 C   0  0  0  0  0  0  0  0  0  0  0  0
   41.4440   25.4060   45.6920 C   0  0  0  0  0  0  0  0  0  0  0  0
   40.7710   26.5530   46.1020 C   0  0  0  0  0  0  0  0  0  0  0  0
   45.2450   33.8310   43.2590 C   0  0  0  0  0  0  0  0  0  0  0  0
   46.4650   34.3210   42.7330 C   0  0  0  0  0  0  0  0  0  0  0  0
   47.6080   33.9730   43.4210 C   0  0  0  0  0  0  0  0  0  0  0  0
   47.4130   33.2190   44.4990 N   0  0  0  0  0  0  0  0  0  0  0  0
   46.2900   32.7440   45.0210 C   0  0  0  0  0  0  0  0  0  0  0  0
   45.2190   33.0760   44.3620 N   0  0  0  0  0  0  0  0  0  0  0  0
   48.9020   34.3410   42.9740 N   0  0  0  0  0  0  0  0  0  0  0  0
   46.3672   33.7527   47.5137 H   0  0  0  0  0  0  0  0  0  0  0  0
   47.1853   32.6568   49.5710 H   0  0  0  0  0  0  0  0  0  0  0  0
   47.8418   30.2627   49.5501 H   0  0  0  0  0  0  0  0  0  0  0  0
   48.0516   28.2665   48.3953 H   0  0  0  0  0  0  0  0  0  0  0  0
   47.7333   26.9085   46.2867 H   0  0  0  0  0  0  0  0  0  0  0  0
   46.8147   28.1031   44.1920 H   0  0  0  0  0  0  0  0  0  0  0  0
   47.0314   30.3116   42.3113 H   0  0  0  0  0  0  0  0  0  0  0  0
   45.2657   29.9250   40.7234 H   0  0  0  0  0  0  0  0  0  0  0  0
   42.9623   29.3499   41.4247 H   0  0  0  0  0  0  0  0  0  0  0  0
   43.1011   29.2846   45.8727 H   0  0  0  0  0  0  0  0  0  0  0  0
   43.4065   26.7490   43.1957 H   0  0  0  0  0  0  0  0  0  0  0  0
   42.8831   24.6592   44.3398 H   0  0  0  0  0  0  0  0  0  0  0  0
   41.2625   24.4274   46.1603 H   0  0  0  0  0  0  0  0  0  0  0  0
   40.0274   26.5218   46.9120 H   0  0  0  0  0  0  0  0  0  0  0  0
   44.3009   34.0762   42.7505 H   0  0  0  0  0  0  0  0  0  0  0  0
   46.4989   34.9439   41.8270 H   0  0  0  0  0  0  0  0  0  0  0  0
   49.7326   34.0622   43.5156 H   0  0  0  0  0  0  0  0  0  0  0  0
   49.0116   34.8871   42.1076 H   0  0  0  0  0  0  0  0  0  0  0  0
  1 10  1  0
  1  2  2  0
  2  3  1  0
  4  3  2  0
  5  6  2  0
  5  4  1  0
  7  6  1  0
  8  9  1  0
  8  7  2  0
  9 10  2  0
 10  5  1  0
 11 17  1  0
 12 11  2  0
 12  9  1  0
 13 12  1  0
 14 15  1  0
 14 13  2  0
 15 16  2  0
 16 18  1  0
 16 11  1  0
 18 21  1  0
 20 19  1  0
 20 25  2  0
 21 20  1  0
 22 21  2  0
 22 23  1  0
 23 24  2  0
 24 25  1  0
 26 31  2  0
 27 26  1  0
 27 28  2  0
 28 29  1  0
 29 30  2  0
 30  1  1  0
 31 30  1  0
 32 28  1  0
  2 33  1  0
  3 34  1  0
  4 35  1  0
  6 36  1  0
  7 37  1  0
  8 38  1  0
 13 39  1  0
 14 40  1  0
 15 41  1  0
 17 42  1  0
 22 43  1  0
 23 44  1  0
 24 45  1  0
 25 46  1  0
 26 47  1  0
 27 48  1  0
 32 49  1  0
 32 50  1  0
M  ISO  8  33  14  34  14  35  14  36  14  37  14  38  14  39  14  40  14
M  ISO  8  41  14  42   3  43  14  44  14  45  14  46  14  47  14  48  14
M  END
>  <minimizedAffinity>  (1) 
-5.63692331

>  <minimizedRMSD>  (1) 
0.891764581

$$$$
