
     RDKit          3D

 36 38  0  0  1  0  0  0  0  0999 V2000
   45.2020   34.6700   44.6140 C   0  0  0  0  0  0  0  0  0  0  0  0
   46.1730   34.4040   43.6380 C   0  0  0  0  0  0  0  0  0  0  0  0
   47.0540   33.3520   43.8880 C   0  0  0  0  0  0  0  0  0  0  0  0
   46.9210   32.6640   45.0350 N   0  0  0  0  0  0  0  0  0  0  0  0
   45.9900   32.9370   45.9470 C   0  0  0  0  0  0  0  0  0  0  0  0
   45.0970   33.9570   45.7570 N   0  0  0  0  0  0  0  0  0  0  0  0
   47.3670   31.7680   47.6750 C   0  0  2  0  0  0  0  0  0  0  0  0
   45.9530   32.0870   47.1350 C   0  0  1  0  0  0  0  0  0  0  0  0
   45.3970   32.6530   48.2470 O   0  0  0  0  0  0  0  0  0  0  0  0
   45.7330   31.8850   49.3220 C   0  0  0  0  0  0  0  0  0  0  0  0
   46.9130   31.0120   48.9370 C   0  0  2  0  0  0  0  0  0  0  0  0
   47.9540   32.9190   48.0790 O   0  0  0  0  0  0  0  0  0  0  0  0
   47.9030   30.9600   49.8870 O   0  0  0  0  0  0  0  0  0  0  0  0
   46.1320   35.2810   42.4450 C   0  0  0  0  0  0  0  0  0  0  0  0
   43.3730   35.9110   41.9700 F   0  0  0  0  0  0  0  0  0  0  0  0
   44.0060   35.0500   41.1390 C   0  0  0  0  0  0  0  0  0  0  0  0
   45.3310   34.7380   41.3510 C   0  0  0  0  0  0  0  0  0  0  0  0
   45.9860   33.8600   40.5050 C   0  0  0  0  0  0  0  0  0  0  0  0
   45.3180   33.2880   39.4410 C   0  0  0  0  0  0  0  0  0  0  0  0
   43.9860   33.5750   39.1930 C   0  0  0  0  0  0  0  0  0  0  0  0
   43.3600   34.4660   40.0700 C   0  0  0  0  0  0  0  0  0  0  0  0
   44.4950   35.4949   44.4417 H   0  0  0  0  0  0  0  0  0  0  0  0
   47.8394   33.0914   43.1633 H   0  0  0  0  0  0  0  0  0  0  0  0
   48.0606   31.2622   46.9871 H   0  0  0  0  0  0  0  0  0  0  0  0
   45.3759   31.2309   46.7555 H   0  0  0  0  0  0  0  0  0  0  0  0
   46.0094   32.5311   50.1683 H   0  0  0  0  0  0  0  0  0  0  0  0
   44.8799   31.2576   49.6196 H   0  0  0  0  0  0  0  0  0  0  0  0
   46.6665   29.9479   48.8068 H   0  0  0  0  0  0  0  0  0  0  0  0
   47.9705   32.9514   49.0683 H   0  0  0  0  0  0  0  0  0  0  0  0
   47.4960   30.9814   50.7892 H   0  0  0  0  0  0  0  0  0  0  0  0
   45.7060   36.2512   42.7404 H   0  0  0  0  0  0  0  0  0  0  0  0
   47.1640   35.3740   42.0757 H   0  0  0  0  0  0  0  0  0  0  0  0
   47.0442   33.6168   40.6814 H   0  0  0  0  0  0  0  0  0  0  0  0
   45.8531   32.5919   38.7784 H   0  0  0  0  0  0  0  0  0  0  0  0
   43.4467   33.1238   38.3471 H   0  0  0  0  0  0  0  0  0  0  0  0
   42.3018   34.7128   39.8990 H   0  0  0  0  0  0  0  0  0  0  0  0
  1  6  2  0
  2  3  2  0
  2  1  1  0
  3  4  1  0
  4  5  2  0
  5  8  1  0
  6  5  1  0
  7 12  1  0
  7 11  1  0
  8  7  1  0
  8  9  1  0
  9 10  1  0
 11 10  1  0
 11 13  1  0
 14  2  1  0
 16 17  2  0
 16 15  1  0
 17 14  1  0
 18 17  1  0
 19 18  2  0
 20 19  1  0
 20 21  2  0
 21 16  1  0
  1 22  1  0
  3 23  1  0
  7 24  1  6
  8 25  1  6
 10 26  1  0
 10 27  1  0
 11 28  1  6
 12 29  1  0
 13 30  1  0
 14 31  1  0
 14 32  1  0
 18 33  1  0
 19 34  1  0
 20 35  1  0
 21 36  1  0
M  ISO  8  22  14  23  14  24  13  25  13  26  13  27  13  28  13  29   3
M  ISO  7  30   3  31   8  32   8  33  14  34  14  35  14  36  14
M  END
>  <minimizedAffinity>  (1) 
-6.22138882

>  <minimizedRMSD>  (1) 
3.56568956

$$$$
