
     RDKit          3D

 38 41  0  0  0  0  0  0  0  0999 V2000
   43.9310   34.7780   40.9920 C   0  0  0  0  0  0  0  0  0  0  0  0
   43.8800   33.9040   39.9360 C   0  0  0  0  0  0  0  0  0  0  0  0
   45.0680   33.3060   39.5310 C   0  0  0  0  0  0  0  0  0  0  0  0
   46.2010   33.6210   40.2020 N   0  0  0  0  0  0  0  0  0  0  0  0
   46.2180   34.4870   41.2390 C   0  0  0  0  0  0  0  0  0  0  0  0
   45.0790   35.0420   41.6050 N   0  0  0  0  0  0  0  0  0  0  0  0
   46.3350   33.7650   36.9630 F   0  0  0  0  0  0  0  0  0  0  0  0
   45.8090   32.5600   37.2280 C   0  0  0  0  0  0  0  0  0  0  0  0
   45.2160   32.3630   38.4450 C   0  0  0  0  0  0  0  0  0  0  0  0
   44.7180   31.0910   38.5980 C   0  0  0  0  0  0  0  0  0  0  0  0
   44.8060   30.1160   37.6260 C   0  0  0  0  0  0  0  0  0  0  0  0
   45.4120   30.3680   36.4240 C   0  0  0  0  0  0  0  0  0  0  0  0
   45.9270   31.6290   36.2250 C   0  0  0  0  0  0  0  0  0  0  0  0
   42.3520   35.5260   41.4710 S   0  0  0  0  0  0  0  0  0  0  0  0
   39.9980   34.9510   40.3020 C   0  0  0  0  0  0  0  0  0  0  0  0
   40.9990   34.4280   41.1250 C   0  0  0  0  0  0  0  0  0  0  0  0
   40.9120   33.1560   41.6110 C   0  0  0  0  0  0  0  0  0  0  0  0
   39.8410   32.3260   41.3200 C   0  0  0  0  0  0  0  0  0  0  0  0
   38.8310   32.8530   40.4900 C   0  0  0  0  0  0  0  0  0  0  0  0
   38.8970   34.1460   39.9820 C   0  0  0  0  0  0  0  0  0  0  0  0
   37.8620   31.8350   40.3400 O   0  0  0  0  0  0  0  0  0  0  0  0
   38.1290   30.8780   41.3230 C   0  0  0  0  0  0  0  0  0  0  0  0
   39.4950   31.0210   41.6660 O   0  0  0  0  0  0  0  0  0  0  0  0
   47.3440   34.8260   41.9370 O   0  0  0  0  0  0  0  0  0  0  0  0
   48.5400   35.0970   41.2510 C   0  0  0  0  0  0  0  0  0  0  0  0
   49.4930   34.1440   41.4820 F   0  0  0  0  0  0  0  0  0  0  0  0
   48.1790   35.2240   39.9160 F   0  0  0  0  0  0  0  0  0  0  0  0
   49.0250   36.3120   41.7430 F   0  0  0  0  0  0  0  0  0  0  0  0
   42.9304   33.6835   39.4264 H   0  0  0  0  0  0  0  0  0  0  0  0
   44.2226   30.8368   39.5466 H   0  0  0  0  0  0  0  0  0  0  0  0
   44.3823   29.1195   37.8197 H   0  0  0  0  0  0  0  0  0  0  0  0
   45.4844   29.5924   35.6473 H   0  0  0  0  0  0  0  0  0  0  0  0
   46.4247   31.8868   35.2785 H   0  0  0  0  0  0  0  0  0  0  0  0
   40.0732   35.9769   39.9122 H   0  0  0  0  0  0  0  0  0  0  0  0
   41.7189   32.7767   42.2553 H   0  0  0  0  0  0  0  0  0  0  0  0
   38.0942   34.5320   39.3366 H   0  0  0  0  0  0  0  0  0  0  0  0
   37.4958   31.0532   42.2052 H   0  0  0  0  0  0  0  0  0  0  0  0
   37.9161   29.8629   40.9567 H   0  0  0  0  0  0  0  0  0  0  0  0
  1 14  1  0
  1  6  1  0
  2  1  2  0
  3  2  1  0
  3  4  2  0
  4  5  1  0
  5  6  2  0
  5 24  1  0
  7  8  1  0
  8  9  2  0
  9 10  1  0
  9  3  1  0
 11 10  2  0
 12 11  1  0
 13 12  2  0
 13  8  1  0
 15 16  2  0
 16 14  1  0
 16 17  1  0
 18 17  2  0
 18 23  1  0
 19 18  1  0
 20 15  1  0
 20 19  2  0
 21 19  1  0
 21 22  1  0
 22 23  1  0
 25 26  1  0
 25 28  1  0
 25 24  1  0
 27 25  1  0
  2 29  1  0
 10 30  1  0
 11 31  1  0
 12 32  1  0
 13 33  1  0
 15 34  1  0
 17 35  1  0
 20 36  1  0
 22 37  1  0
 22 38  1  0
M  ISO  8  29  14  30  14  31  14  32  14  33  14  34  14  35  14  36  14
M  ISO  2  37  13  38  13
M  END
>  <minimizedAffinity>  (1) 
-6.15588903

>  <minimizedRMSD>  (1) 
0.200623751

$$$$
