
     RDKit          3D

 46 50  0  0  1  0  0  0  0  0999 V2000
   50.0550   32.4530   41.3690 C   0  0  1  0  0  0  0  0  0  0  0  0
   49.1730   32.2340   40.1710 C   0  0  0  0  0  0  0  0  0  0  0  0
   48.6540   32.1140   41.6320 C   0  0  2  0  0  0  0  0  0  0  0  0
   52.9070   30.1400   40.9170 C   0  0  0  0  0  0  0  0  0  0  0  0
   53.0530   29.6110   42.2450 C   0  0  0  0  0  0  0  0  0  0  0  0
   52.1790   30.0660   43.2450 C   0  0  0  0  0  0  0  0  0  0  0  0
   51.2660   30.9560   42.9130 N   0  0  0  0  0  0  0  0  0  0  0  0
   51.1330   31.4500   41.6620 C   0  0  0  0  0  0  0  0  0  0  0  0
   51.9520   31.0480   40.6490 N   0  0  0  0  0  0  0  0  0  0  0  0
   54.3410   30.3710   45.1650 F   0  0  0  0  0  0  0  0  0  0  0  0
   53.2020   29.7520   45.5380 C   0  0  0  0  0  0  0  0  0  0  0  0
   52.2090   29.6250   44.6140 C   0  0  0  0  0  0  0  0  0  0  0  0
   51.1000   28.9760   45.1190 C   0  0  0  0  0  0  0  0  0  0  0  0
   51.0090   28.5060   46.4140 C   0  0  0  0  0  0  0  0  0  0  0  0
   52.0540   28.6710   47.2910 C   0  0  0  0  0  0  0  0  0  0  0  0
   53.1860   29.3120   46.8420 C   0  0  0  0  0  0  0  0  0  0  0  0
   47.7710   33.1480   42.0820 N   0  0  0  0  0  0  0  0  0  0  0  0
   47.1460   33.0960   43.3360 C   0  0  0  0  0  0  0  0  0  0  0  0
   47.4680   32.0850   44.2080 C   0  0  0  0  0  0  0  0  0  0  0  0
   46.9480   32.0080   45.4950 C   0  0  0  0  0  0  0  0  0  0  0  0
   46.0730   32.9610   45.9560 C   0  0  0  0  0  0  0  0  0  0  0  0
   45.7350   33.9820   45.1000 C   0  0  0  0  0  0  0  0  0  0  0  0
   44.8560   34.9490   45.5430 C   0  0  0  0  0  0  0  0  0  0  0  0
   44.4640   35.9940   44.7560 C   0  0  0  0  0  0  0  0  0  0  0  0
   44.9970   36.0370   43.4740 C   0  0  0  0  0  0  0  0  0  0  0  0
   45.8700   35.0700   43.0460 C   0  0  0  0  0  0  0  0  0  0  0  0
   46.2640   34.0310   43.8310 C   0  0  0  0  0  0  0  0  0  0  0  0
   46.3630   35.1520   41.7650 O   0  0  0  0  0  0  0  0  0  0  0  0
   50.7046   33.2762   41.7014 H   0  0  0  0  0  0  0  0  0  0  0  0
   48.8697   33.0820   39.5394 H   0  0  0  0  0  0  0  0  0  0  0  0
   49.1906   31.5900   39.2794 H   0  0  0  0  0  0  0  0  0  0  0  0
   48.1503   31.3433   42.2339 H   0  0  0  0  0  0  0  0  0  0  0  0
   53.5798   29.8005   40.1156 H   0  0  0  0  0  0  0  0  0  0  0  0
   53.8309   28.8674   42.4726 H   0  0  0  0  0  0  0  0  0  0  0  0
   50.2392   28.8246   44.4510 H   0  0  0  0  0  0  0  0  0  0  0  0
   50.0930   27.9956   46.7463 H   0  0  0  0  0  0  0  0  0  0  0  0
   51.9874   28.3005   48.3246 H   0  0  0  0  0  0  0  0  0  0  0  0
   54.0504   29.4677   47.5042 H   0  0  0  0  0  0  0  0  0  0  0  0
   47.5898   33.9536   41.4662 H   0  0  0  0  0  0  0  0  0  0  0  0
   48.1665   31.3036   43.8742 H   0  0  0  0  0  0  0  0  0  0  0  0
   47.2405   31.1749   46.1511 H   0  0  0  0  0  0  0  0  0  0  0  0
   45.6578   32.9091   46.9733 H   0  0  0  0  0  0  0  0  0  0  0  0
   44.4572   34.8756   46.5655 H   0  0  0  0  0  0  0  0  0  0  0  0
   43.7634   36.7609   45.1181 H   0  0  0  0  0  0  0  0  0  0  0  0
   44.7158   36.8554   42.7949 H   0  0  0  0  0  0  0  0  0  0  0  0
   46.9947   34.4659   41.4328 H   0  0  0  0  0  0  0  0  0  0  0  0
  1  3  1  0
  1  8  1  0
  2  1  1  0
  2  3  1  0
  3 17  1  0
  4  5  2  0
  5  6  1  0
  6 12  1  0
  7  6  2  0
  8  7  1  0
  9  4  1  0
  9  8  2  0
 10 11  1  0
 11 16  2  0
 12 13  2  0
 12 11  1  0
 13 14  1  0
 14 15  2  0
 16 15  1  0
 17 18  1  0
 18 27  1  0
 18 19  2  0
 19 20  1  0
 20 21  2  0
 22 23  2  0
 22 21  1  0
 24 23  1  0
 25 24  2  0
 26 25  1  0
 26 27  2  0
 27 22  1  0
 28 26  1  0
  1 29  1  6
  2 30  1  0
  2 31  1  0
  3 32  1  1
  4 33  1  0
  5 34  1  0
 13 35  1  0
 14 36  1  0
 15 37  1  0
 16 38  1  0
 17 39  1  0
 19 40  1  0
 20 41  1  0
 21 42  1  0
 23 43  1  0
 24 44  1  0
 25 45  1  0
 28 46  1  0
M  ISO  8  29  13  30  13  31  13  32  13  33  14  34  14  35  14  36  14
M  ISO  8  37  14  38  14  40  14  41  14  42  14  43  14  44  14  45  14
M  ISO  1  46   3
M  END
>  <minimizedAffinity>  (1) 
-5.45345736

>  <minimizedRMSD>  (1) 
1.68835223

$$$$
