
     RDKit          3D

 45 49  0  0  0  0  0  0  0  0999 V2000
   44.7950   35.9840   43.3160 Cl  0  0  0  0  0  0  0  0  0  0  0  0
   45.5480   34.7370   44.2620 C   0  0  0  0  0  0  0  0  0  0  0  0
   46.6510   34.0590   43.7710 C   0  0  0  0  0  0  0  0  0  0  0  0
   47.1680   33.0870   44.6050 C   0  0  0  0  0  0  0  0  0  0  0  0
   46.6680   32.7650   45.8500 C   0  0  0  0  0  0  0  0  0  0  0  0
   45.5770   33.4590   46.2990 C   0  0  0  0  0  0  0  0  0  0  0  0
   44.9730   33.0210   47.8870 Cl  0  0  0  0  0  0  0  0  0  0  0  0
   45.0180   34.4360   45.5170 C   0  0  0  0  0  0  0  0  0  0  0  0
   47.3640   31.6980   46.5830 C   0  0  0  0  0  0  0  0  0  0  0  0
   47.4670   30.4110   46.0990 C   0  0  0  0  0  0  0  0  0  0  0  0
   48.1170   29.3920   46.7720 C   0  0  0  0  0  0  0  0  0  0  0  0
   48.6930   29.6610   47.9840 C   0  0  0  0  0  0  0  0  0  0  0  0
   49.3230   28.6660   48.6320 N   0  0  0  0  0  0  0  0  0  0  0  0
   49.9220   28.8280   49.8290 C   0  0  0  0  0  0  0  0  0  0  0  0
   49.8560   30.1110   50.3810 C   0  0  0  0  0  0  0  0  0  0  0  0
   49.2160   31.1230   49.7240 C   0  0  0  0  0  0  0  0  0  0  0  0
   48.6160   30.9350   48.5080 C   0  0  0  0  0  0  0  0  0  0  0  0
   47.9630   31.9300   47.8170 C   0  0  0  0  0  0  0  0  0  0  0  0
   48.7810   35.4890   41.1920 C   0  0  0  0  0  0  0  0  0  0  0  0
   48.3060   34.8910   40.0150 C   0  0  0  0  0  0  0  0  0  0  0  0
   47.2360   33.9800   40.1120 C   0  0  0  0  0  0  0  0  0  0  0  0
   46.7630   33.7690   41.3550 N   0  0  0  0  0  0  0  0  0  0  0  0
   47.2260   34.3480   42.4690 C   0  0  0  0  0  0  0  0  0  0  0  0
   48.2420   35.2160   42.4010 N   0  0  0  0  0  0  0  0  0  0  0  0
   48.2380   34.4970   37.6300 F   0  0  0  0  0  0  0  0  0  0  0  0
   47.2060   33.5930   37.7170 C   0  0  0  0  0  0  0  0  0  0  0  0
   46.6730   33.3060   38.9540 C   0  0  0  0  0  0  0  0  0  0  0  0
   45.6400   32.4000   39.0250 C   0  0  0  0  0  0  0  0  0  0  0  0
   45.1810   31.8200   37.8700 C   0  0  0  0  0  0  0  0  0  0  0  0
   45.7180   32.1120   36.6330 C   0  0  0  0  0  0  0  0  0  0  0  0
   46.7420   33.0080   36.5590 C   0  0  0  0  0  0  0  0  0  0  0  0
   48.0454   32.5268   44.2495 H   0  0  0  0  0  0  0  0  0  0  0  0
   44.1408   34.9895   45.8833 H   0  0  0  0  0  0  0  0  0  0  0  0
   47.0079   30.1823   45.1259 H   0  0  0  0  0  0  0  0  0  0  0  0
   48.1700   28.3818   46.3400 H   0  0  0  0  0  0  0  0  0  0  0  0
   50.4327   27.9993   50.3413 H   0  0  0  0  0  0  0  0  0  0  0  0
   50.3252   30.3077   51.3563 H   0  0  0  0  0  0  0  0  0  0  0  0
   49.1816   32.1205   50.1865 H   0  0  0  0  0  0  0  0  0  0  0  0
   47.9132   32.9385   48.2533 H   0  0  0  0  0  0  0  0  0  0  0  0
   49.6169   36.2012   41.1289 H   0  0  0  0  0  0  0  0  0  0  0  0
   48.7580   35.1277   39.0405 H   0  0  0  0  0  0  0  0  0  0  0  0
   45.1884   32.1443   39.9949 H   0  0  0  0  0  0  0  0  0  0  0  0
   44.3551   31.0961   37.9321 H   0  0  0  0  0  0  0  0  0  0  0  0
   45.3271   31.6309   35.7243 H   0  0  0  0  0  0  0  0  0  0  0  0
   47.1922   33.2609   35.5877 H   0  0  0  0  0  0  0  0  0  0  0  0
  1  2  1  0
  2  8  2  0
  3  2  1  0
  3  4  2  0
  4  5  1  0
  5  6  2  0
  5  9  1  0
  6  7  1  0
  8  6  1  0
  9 18  1  0
 10  9  2  0
 10 11  1  0
 11 12  2  0
 12 17  1  0
 12 13  1  0
 13 14  2  0
 14 15  1  0
 16 15  2  0
 17 16  1  0
 18 17  2  0
 19 24  2  0
 20 21  2  0
 20 19  1  0
 21 22  1  0
 22 23  2  0
 23  3  1  0
 24 23  1  0
 25 26  1  0
 26 27  2  0
 27 28  1  0
 27 21  1  0
 29 28  2  0
 30 29  1  0
 31 30  2  0
 31 26  1  0
  4 32  1  0
  8 33  1  0
 10 34  1  0
 11 35  1  0
 14 36  1  0
 15 37  1  0
 16 38  1  0
 18 39  1  0
 19 40  1  0
 20 41  1  0
 28 42  1  0
 29 43  1  0
 30 44  1  0
 31 45  1  0
M  END
>  <minimizedAffinity>  (1) 
-7.49088621

>  <minimizedRMSD>  (1) 
0.0560703687

$$$$
