
     RDKit          3D

 51 54  0  0  1  0  0  0  0  0999 V2000
   46.9410   32.8130   45.5120 C   0  0  0  0  0  0  0  0  0  0  0  0
   45.8450   33.4850   46.0280 C   0  0  0  0  0  0  0  0  0  0  0  0
   45.1620   34.4300   45.2260 C   0  0  0  0  0  0  0  0  0  0  0  0
   45.6550   34.6220   43.9390 N   0  0  0  0  0  0  0  0  0  0  0  0
   46.7220   33.9400   43.5020 C   0  0  0  0  0  0  0  0  0  0  0  0
   47.3510   33.0540   44.2710 N   0  0  0  0  0  0  0  0  0  0  0  0
   47.5910   31.8370   46.3640 C   0  0  2  0  0  0  0  0  0  0  0  0
   47.3590   30.3840   45.8480 C   0  0  0  0  0  0  0  0  0  0  0  0
   48.1760   29.4370   46.6610 C   0  0  0  0  0  0  0  0  0  0  0  0
   48.1520   29.6490   48.1360 C   0  0  0  0  0  0  0  0  0  0  0  0
   48.1350   31.0340   48.5370 C   0  0  0  0  0  0  0  0  0  0  0  0
   47.1390   31.9050   47.7400 C   0  0  2  0  0  0  0  0  0  0  0  0
   45.8050   31.3140   47.8610 N   0  0  0  0  0  0  0  0  0  0  0  0
   45.1410   30.7250   48.9500 C   0  0  0  0  0  0  0  0  0  0  0  0
   44.6110   31.4100   49.8980 O   0  0  0  0  0  0  0  0  0  0  0  0
   45.0910   29.2990   48.9210 N   0  0  0  0  0  0  0  0  0  0  0  0
   47.2070   34.2040   42.1430 C   0  0  0  0  0  0  0  0  0  0  0  0
   48.2080   35.1210   41.9130 C   0  0  0  0  0  0  0  0  0  0  0  0
   48.7100   35.4150   40.6630 C   0  0  0  0  0  0  0  0  0  0  0  0
   48.1320   34.7150   39.6200 C   0  0  0  0  0  0  0  0  0  0  0  0
   47.1330   33.7990   39.8380 C   0  0  0  0  0  0  0  0  0  0  0  0
   46.6740   33.5470   41.1000 N   0  0  0  0  0  0  0  0  0  0  0  0
   47.5770   34.4110   37.1350 F   0  0  0  0  0  0  0  0  0  0  0  0
   46.7520   33.3770   37.4260 C   0  0  0  0  0  0  0  0  0  0  0  0
   46.5170   33.0560   38.7460 C   0  0  0  0  0  0  0  0  0  0  0  0
   45.6640   31.9870   38.9190 C   0  0  0  0  0  0  0  0  0  0  0  0
   45.0880   31.2930   37.8750 C   0  0  0  0  0  0  0  0  0  0  0  0
   45.3630   31.6630   36.5750 C   0  0  0  0  0  0  0  0  0  0  0  0
   46.2130   32.7290   36.3350 C   0  0  0  0  0  0  0  0  0  0  0  0
   45.5074   33.2851   47.0557 H   0  0  0  0  0  0  0  0  0  0  0  0
   44.2880   34.9833   45.6001 H   0  0  0  0  0  0  0  0  0  0  0  0
   48.6618   32.0863   46.3283 H   0  0  0  0  0  0  0  0  0  0  0  0
   46.2940   30.1258   45.9429 H   0  0  0  0  0  0  0  0  0  0  0  0
   47.6574   30.3156   44.7915 H   0  0  0  0  0  0  0  0  0  0  0  0
   47.8084   28.4196   46.4618 H   0  0  0  0  0  0  0  0  0  0  0  0
   49.2185   29.6087   46.3550 H   0  0  0  0  0  0  0  0  0  0  0  0
   47.2515   29.1627   48.5392 H   0  0  0  0  0  0  0  0  0  0  0  0
   49.0840   29.2185   48.5310 H   0  0  0  0  0  0  0  0  0  0  0  0
   47.8627   31.0828   49.6016 H   0  0  0  0  0  0  0  0  0  0  0  0
   49.1396   31.4358   48.3387 H   0  0  0  0  0  0  0  0  0  0  0  0
   47.0925   32.9438   48.0988 H   0  0  0  0  0  0  0  0  0  0  0  0
   45.2540   31.3336   46.9910 H   0  0  0  0  0  0  0  0  0  0  0  0
   44.6229   28.7845   49.6807 H   0  0  0  0  0  0  0  0  0  0  0  0
   45.5230   28.7843   48.1404 H   0  0  0  0  0  0  0  0  0  0  0  0
   48.6327   35.6508   42.7784 H   0  0  0  0  0  0  0  0  0  0  0  0
   49.5114   36.1522   40.5069 H   0  0  0  0  0  0  0  0  0  0  0  0
   48.4805   34.8962   38.5925 H   0  0  0  0  0  0  0  0  0  0  0  0
   45.4297   31.6699   39.9459 H   0  0  0  0  0  0  0  0  0  0  0  0
   44.4128   30.4488   38.0783 H   0  0  0  0  0  0  0  0  0  0  0  0
   44.9103   31.1152   35.7353 H   0  0  0  0  0  0  0  0  0  0  0  0
   46.4501   33.0480   35.3093 H   0  0  0  0  0  0  0  0  0  0  0  0
  1  2  2  0
  1  7  1  0
  3  2  1  0
  4  3  2  0
  5  4  1  0
  5  6  2  0
  6  1  1  0
  7 12  1  0
  8  7  1  0
  8  9  1  0
  9 10  1  0
 10 11  1  0
 12 13  1  0
 12 11  1  0
 13 14  1  0
 14 15  2  0
 16 14  1  0
 17  5  1  0
 18 17  2  0
 19 18  1  0
 20 21  1  0
 20 19  2  0
 21 22  2  0
 22 17  1  0
 23 24  1  0
 24 25  2  0
 25 26  1  0
 25 21  1  0
 27 26  2  0
 28 27  1  0
 29 28  2  0
 29 24  1  0
  2 30  1  0
  3 31  1  0
  7 32  1  1
  8 33  1  0
  8 34  1  0
  9 35  1  0
  9 36  1  0
 10 37  1  0
 10 38  1  0
 11 39  1  0
 11 40  1  0
 12 41  1  1
 13 42  1  0
 16 43  1  0
 16 44  1  0
 18 45  1  0
 19 46  1  0
 20 47  1  0
 26 48  1  0
 27 49  1  0
 28 50  1  0
 29 51  1  0
M  ISO  8  30  14  31  14  32  13  33  13  34  13  35  13  36  13  37  13
M  ISO  8  38  13  39  13  40  13  41  13  45  14  46  14  47  14  48  14
M  ISO  3  49  14  50  14  51  14
M  END
>  <minimizedAffinity>  (1) 
-6.74760675

>  <minimizedRMSD>  (1) 
0.198150232

$$$$
