
     RDKit          3D

 39 41  0  0  0  0  0  0  0  0999 V2000
   45.4370   30.5700   47.2380 C   0  0  0  0  0  0  0  0  0  0  0  0
   45.2420   29.9690   46.0160 C   0  0  0  0  0  0  0  0  0  0  0  0
   44.9430   28.6470   46.2660 C   0  0  0  0  0  0  0  0  0  0  0  0
   44.9590   28.4690   47.5790 N   0  0  0  0  0  0  0  0  0  0  0  0
   45.2600   29.6370   48.1630 N   0  0  0  0  0  0  0  0  0  0  0  0
   42.3920   28.5040   45.3360 F   0  0  0  0  0  0  0  0  0  0  0  0
   43.3340   27.7340   44.6940 C   0  0  0  0  0  0  0  0  0  0  0  0
   44.6620   27.7720   45.1460 C   0  0  0  0  0  0  0  0  0  0  0  0
   45.4800   26.9530   44.4060 C   0  0  0  0  0  0  0  0  0  0  0  0
   45.0590   26.1840   43.3470 C   0  0  0  0  0  0  0  0  0  0  0  0
   43.7400   26.1980   42.9590 C   0  0  0  0  0  0  0  0  0  0  0  0
   42.8520   26.9860   43.6420 C   0  0  0  0  0  0  0  0  0  0  0  0
   44.6870   27.2170   48.3000 C   0  0  0  0  0  0  0  0  0  0  0  0
   44.3150   27.5230   49.6320 F   0  0  0  0  0  0  0  0  0  0  0  0
   45.7460   26.3870   48.2500 F   0  0  0  0  0  0  0  0  0  0  0  0
   43.5710   26.6240   47.7510 F   0  0  0  0  0  0  0  0  0  0  0  0
   45.7690   31.9730   47.5530 C   0  0  0  0  0  0  0  0  0  0  0  0
   46.6850   32.5700   46.5270 C   0  0  0  0  0  0  0  0  0  0  0  0
   44.5940   35.3390   45.1850 C   0  0  0  0  0  0  0  0  0  0  0  0
   45.0990   35.4270   43.8650 C   0  0  0  0  0  0  0  0  0  0  0  0
   46.1060   34.5510   43.5130 C   0  0  0  0  0  0  0  0  0  0  0  0
   46.5100   33.6970   44.4630 N   0  0  0  0  0  0  0  0  0  0  0  0
   46.0350   33.6150   45.7040 C   0  0  0  0  0  0  0  0  0  0  0  0
   45.0730   34.4450   46.0550 N   0  0  0  0  0  0  0  0  0  0  0  0
   46.6280   34.6470   42.1480 C   0  0  0  0  0  0  0  0  0  0  0  0
   47.4120   33.5360   41.8750 F   0  0  0  0  0  0  0  0  0  0  0  0
   47.5360   35.7080   42.1660 F   0  0  0  0  0  0  0  0  0  0  0  0
   45.6480   34.7910   41.2150 F   0  0  0  0  0  0  0  0  0  0  0  0
   45.3113   30.4507   45.0295 H   0  0  0  0  0  0  0  0  0  0  0  0
   46.5446   26.9096   44.6795 H   0  0  0  0  0  0  0  0  0  0  0  0
   45.7813   25.5541   42.8071 H   0  0  0  0  0  0  0  0  0  0  0  0
   43.4023   25.5842   42.1109 H   0  0  0  0  0  0  0  0  0  0  0  0
   41.7893   27.0206   43.3600 H   0  0  0  0  0  0  0  0  0  0  0  0
   44.8396   32.5605   47.5860 H   0  0  0  0  0  0  0  0  0  0  0  0
   46.2832   31.9937   48.5252 H   0  0  0  0  0  0  0  0  0  0  0  0
   47.5459   33.0178   47.0450 H   0  0  0  0  0  0  0  0  0  0  0  0
   46.9880   31.7597   45.8476 H   0  0  0  0  0  0  0  0  0  0  0  0
   43.7906   36.0208   45.5008 H   0  0  0  0  0  0  0  0  0  0  0  0
   44.7049   36.1635   43.1493 H   0  0  0  0  0  0  0  0  0  0  0  0
  1 17  1  0
  1  5  2  0
  2  3  2  0
  2  1  1  0
  3  4  1  0
  4  5  1  0
  4 13  1  0
  7  8  2  0
  7  6  1  0
  8  3  1  0
  9  8  1  0
 10  9  2  0
 11 10  1  0
 11 12  2  0
 12  7  1  0
 13 14  1  0
 15 13  1  0
 16 13  1  0
 18 17  1  0
 19 24  2  0
 20 19  1  0
 21 20  2  0
 21 22  1  0
 22 23  2  0
 23 24  1  0
 23 18  1  0
 25 27  1  0
 25 21  1  0
 26 25  1  0
 28 25  1  0
  2 29  1  0
  9 30  1  0
 10 31  1  0
 11 32  1  0
 12 33  1  0
 17 34  1  0
 17 35  1  0
 18 36  1  0
 18 37  1  0
 19 38  1  0
 20 39  1  0
M  ISO  8  29  14  30  14  31  14  32  14  33  14  34   8  35   8  36   8
M  ISO  3  37   8  38  14  39  14
M  END
>  <minimizedAffinity>  (1) 
-5.40429544

>  <minimizedRMSD>  (1) 
1.03221679

$$$$
