
     RDKit          3D

 33 35  0  0  0  0  0  0  0  0999 V2000
   45.4650   32.1400   40.6270 Cl  0  0  0  0  0  0  0  0  0  0  0  0
   46.7090   33.2700   40.1970 C   0  0  0  0  0  0  0  0  0  0  0  0
   47.3000   34.0760   41.1510 C   0  0  0  0  0  0  0  0  0  0  0  0
   48.2920   34.9830   40.8280 C   0  0  0  0  0  0  0  0  0  0  0  0
   48.6750   35.0540   39.5070 C   0  0  0  0  0  0  0  0  0  0  0  0
   48.0840   34.2460   38.5510 C   0  0  0  0  0  0  0  0  0  0  0  0
   47.1160   33.3660   38.8820 C   0  0  0  0  0  0  0  0  0  0  0  0
   44.5570   33.7050   37.6810 F   0  0  0  0  0  0  0  0  0  0  0  0
   45.2860   32.6760   37.2390 C   0  0  0  0  0  0  0  0  0  0  0  0
   46.5210   32.5350   37.8380 C   0  0  0  0  0  0  0  0  0  0  0  0
   47.3500   31.4840   37.4350 C   0  0  0  0  0  0  0  0  0  0  0  0
   46.9220   30.6000   36.4420 C   0  0  0  0  0  0  0  0  0  0  0  0
   45.6920   30.7250   35.8330 C   0  0  0  0  0  0  0  0  0  0  0  0
   44.9200   31.7700   36.2650 C   0  0  0  0  0  0  0  0  0  0  0  0
   46.9230   32.8870   44.6210 C   0  0  0  0  0  0  0  0  0  0  0  0
   45.9960   33.8060   45.1600 C   0  0  0  0  0  0  0  0  0  0  0  0
   45.5180   34.8150   44.3220 C   0  0  0  0  0  0  0  0  0  0  0  0
   45.9590   34.8730   43.0370 N   0  0  0  0  0  0  0  0  0  0  0  0
   46.8590   33.9660   42.5450 C   0  0  0  0  0  0  0  0  0  0  0  0
   47.3240   32.9950   43.3380 N   0  0  0  0  0  0  0  0  0  0  0  0
   44.5290   35.8530   44.7760 C   0  0  0  0  0  0  0  0  0  0  0  0
   44.9860   37.1110   44.5380 F   0  0  0  0  0  0  0  0  0  0  0  0
   43.3410   35.6680   44.0640 F   0  0  0  0  0  0  0  0  0  0  0  0
   44.3020   35.6170   46.1170 F   0  0  0  0  0  0  0  0  0  0  0  0
   48.7561   35.6214   41.5942 H   0  0  0  0  0  0  0  0  0  0  0  0
   49.4613   35.7625   39.2075 H   0  0  0  0  0  0  0  0  0  0  0  0
   48.4092   34.3226   37.5030 H   0  0  0  0  0  0  0  0  0  0  0  0
   48.3385   31.3533   37.8995 H   0  0  0  0  0  0  0  0  0  0  0  0
   47.5871   29.7788   36.1366 H   0  0  0  0  0  0  0  0  0  0  0  0
   45.3525   30.0303   35.0506 H   0  0  0  0  0  0  0  0  0  0  0  0
   43.9315   31.8970   35.7995 H   0  0  0  0  0  0  0  0  0  0  0  0
   47.3204   32.0781   45.2516 H   0  0  0  0  0  0  0  0  0  0  0  0
   45.6618   33.7293   46.2052 H   0  0  0  0  0  0  0  0  0  0  0  0
  2  1  1  0
  2  3  2  0
  3 19  1  0
  4  3  1  0
  5  4  2  0
  6  7  2  0
  6  5  1  0
  7  2  1  0
  9  8  1  0
  9 10  2  0
 10  7  1  0
 11 10  1  0
 12 11  2  0
 13 14  2  0
 13 12  1  0
 14  9  1  0
 15 16  2  0
 17 21  1  0
 17 16  1  0
 18 17  2  0
 19 18  1  0
 19 20  2  0
 20 15  1  0
 21 24  1  0
 22 21  1  0
 23 21  1  0
  4 25  1  0
  5 26  1  0
  6 27  1  0
 11 28  1  0
 12 29  1  0
 13 30  1  0
 14 31  1  0
 15 32  1  0
 16 33  1  0
M  ISO  8  25  14  26  14  27  14  28  14  29  14  30  14  31  14  32  14
M  ISO  1  33  14
M  END
>  <minimizedAffinity>  (1) 
-5.71033144

>  <minimizedRMSD>  (1) 
1.50446701

$$$$
