
     RDKit          3D

 42 45  0  0  1  0  0  0  0  0999 V2000
   49.3050   33.4370   41.0900 N   0  0  0  0  0  0  0  0  0  0  0  0
   50.3760   32.7070   41.7160 C   0  0  0  0  0  0  0  0  0  0  0  0
   50.7270   31.4140   41.0740 C   0  0  0  0  0  0  0  0  0  0  0  0
   49.5520   30.4680   41.1490 C   0  0  0  0  0  0  0  0  0  0  0  0
   48.2720   31.2030   41.1210 C   0  0  0  0  0  0  0  0  0  0  0  0
   48.4190   32.5110   40.4110 C   0  0  2  0  0  0  0  0  0  0  0  0
   47.9720   34.8180   39.0090 F   0  0  0  0  0  0  0  0  0  0  0  0
   48.3190   33.6860   38.3100 C   0  0  0  0  0  0  0  0  0  0  0  0
   48.5500   32.4690   38.9630 C   0  0  0  0  0  0  0  0  0  0  0  0
   48.8810   31.4790   38.0810 C   0  0  0  0  0  0  0  0  0  0  0  0
   48.9870   31.6070   36.7150 C   0  0  0  0  0  0  0  0  0  0  0  0
   48.7500   32.8180   36.1310 C   0  0  0  0  0  0  0  0  0  0  0  0
   48.4090   33.8760   36.9470 C   0  0  0  0  0  0  0  0  0  0  0  0
   47.3230   34.8610   41.9210 C   0  0  1  0  0  0  0  0  0  0  0  0
   48.5310   35.6530   41.8430 C   0  0  0  0  0  0  0  0  0  0  0  0
   48.6750   34.1940   42.1400 C   0  0  2  0  0  0  0  0  0  0  0  0
   45.5100   36.0500   43.2000 C   0  0  0  0  0  0  0  0  0  0  0  0
   46.4030   34.9480   43.0830 C   0  0  0  0  0  0  0  0  0  0  0  0
   46.3790   33.9870   44.0770 C   0  0  0  0  0  0  0  0  0  0  0  0
   45.5050   34.1530   45.1030 N   0  0  0  0  0  0  0  0  0  0  0  0
   44.6650   35.1990   45.2030 C   0  0  0  0  0  0  0  0  0  0  0  0
   44.6570   36.1690   44.2430 N   0  0  0  0  0  0  0  0  0  0  0  0
   51.2722   33.3448   41.7066 H   0  0  0  0  0  0  0  0  0  0  0  0
   50.0217   32.4569   42.7269 H   0  0  0  0  0  0  0  0  0  0  0  0
   51.5873   30.9693   41.5956 H   0  0  0  0  0  0  0  0  0  0  0  0
   50.9832   31.5909   40.0190 H   0  0  0  0  0  0  0  0  0  0  0  0
   49.5897   29.7804   40.2912 H   0  0  0  0  0  0  0  0  0  0  0  0
   49.6132   29.9111   42.0956 H   0  0  0  0  0  0  0  0  0  0  0  0
   47.5189   30.5937   40.5998 H   0  0  0  0  0  0  0  0  0  0  0  0
   47.9592   31.4004   42.1569 H   0  0  0  0  0  0  0  0  0  0  0  0
   47.4153   32.9524   40.4986 H   0  0  0  0  0  0  0  0  0  0  0  0
   49.0821   30.4836   38.5039 H   0  0  0  0  0  0  0  0  0  0  0  0
   49.2610   30.7389   36.0974 H   0  0  0  0  0  0  0  0  0  0  0  0
   48.8288   32.9460   35.0413 H   0  0  0  0  0  0  0  0  0  0  0  0
   48.2097   34.8668   36.5128 H   0  0  0  0  0  0  0  0  0  0  0  0
   46.4664   34.7303   41.2434 H   0  0  0  0  0  0  0  0  0  0  0  0
   48.8621   36.0447   40.8699 H   0  0  0  0  0  0  0  0  0  0  0  0
   48.8757   36.5715   42.3407 H   0  0  0  0  0  0  0  0  0  0  0  0
   49.0769   33.5410   42.9287 H   0  0  0  0  0  0  0  0  0  0  0  0
   45.5136   36.8264   42.4207 H   0  0  0  0  0  0  0  0  0  0  0  0
   47.0477   33.1144   44.0378 H   0  0  0  0  0  0  0  0  0  0  0  0
   43.9818   35.2728   46.0620 H   0  0  0  0  0  0  0  0  0  0  0  0
  1  2  1  0
  1 16  1  0
  3  4  1  0
  3  2  1  0
  5  4  1  0
  6  1  1  0
  6  5  1  0
  8  9  2  0
  8  7  1  0
  9  6  1  0
 10  9  1  0
 11 10  2  0
 12 11  1  0
 12 13  2  0
 13  8  1  0
 14 16  1  0
 14 18  1  0
 15 14  1  0
 15 16  1  0
 17 22  2  0
 18 17  1  0
 18 19  2  0
 19 20  1  0
 20 21  2  0
 22 21  1  0
  2 23  1  0
  2 24  1  0
  3 25  1  0
  3 26  1  0
  4 27  1  0
  4 28  1  0
  5 29  1  0
  5 30  1  0
  6 31  1  6
 10 32  1  0
 11 33  1  0
 12 34  1  0
 13 35  1  0
 14 36  1  6
 15 37  1  0
 15 38  1  0
 16 39  1  1
 17 40  1  0
 19 41  1  0
 21 42  1  0
M  ISO  8  23  13  24  13  25  13  26  13  27  13  28  13  29  13  30  13
M  ISO  8  31  13  32  14  33  14  34  14  35  14  36  13  37  13  38  13
M  ISO  4  39  13  40  14  41  14  42  14
M  END
>  <minimizedAffinity>  (1) 
-5.55034018

>  <minimizedRMSD>  (1) 
1.38539302

$$$$
