
     RDKit          3D

 33 35  0  0  0  0  0  0  0  0999 V2000
   45.1480   33.5640   47.0710 C   0  0  0  0  0  0  0  0  0  0  0  0
   45.3800   33.9860   45.7570 C   0  0  0  0  0  0  0  0  0  0  0  0
   46.3230   33.3470   44.9620 C   0  0  0  0  0  0  0  0  0  0  0  0
   47.0040   32.3010   45.5190 N   0  0  0  0  0  0  0  0  0  0  0  0
   46.7570   31.9180   46.7920 C   0  0  0  0  0  0  0  0  0  0  0  0
   45.8450   32.5350   47.5610 N   0  0  0  0  0  0  0  0  0  0  0  0
   44.3660   32.3340   42.9420 Cl  0  0  0  0  0  0  0  0  0  0  0  0
   45.7550   33.3250   42.5990 C   0  0  0  0  0  0  0  0  0  0  0  0
   46.6060   33.7500   43.5780 C   0  0  0  0  0  0  0  0  0  0  0  0
   47.6580   34.5220   43.1750 C   0  0  0  0  0  0  0  0  0  0  0  0
   47.8870   34.8730   41.8980 C   0  0  0  0  0  0  0  0  0  0  0  0
   47.0290   34.4460   40.9030 C   0  0  0  0  0  0  0  0  0  0  0  0
   45.9630   33.6690   41.2730 C   0  0  0  0  0  0  0  0  0  0  0  0
   49.0520   35.7230   41.4870 C   0  0  0  0  0  0  0  0  0  0  0  0
   50.1980   35.0790   41.8540 F   0  0  0  0  0  0  0  0  0  0  0  0
   48.9450   36.9920   42.0250 F   0  0  0  0  0  0  0  0  0  0  0  0
   49.0010   35.8520   40.0970 F   0  0  0  0  0  0  0  0  0  0  0  0
   48.6070   32.1990   48.8010 F   0  0  0  0  0  0  0  0  0  0  0  0
   48.4720   30.9410   48.3090 C   0  0  0  0  0  0  0  0  0  0  0  0
   47.5380   30.7900   47.2920 C   0  0  0  0  0  0  0  0  0  0  0  0
   47.3360   29.5430   46.7350 C   0  0  0  0  0  0  0  0  0  0  0  0
   48.0730   28.4550   47.2000 C   0  0  0  0  0  0  0  0  0  0  0  0
   49.0010   28.6100   48.2110 C   0  0  0  0  0  0  0  0  0  0  0  0
   49.2040   29.8630   48.7720 C   0  0  0  0  0  0  0  0  0  0  0  0
   44.3991   34.0746   47.6943 H   0  0  0  0  0  0  0  0  0  0  0  0
   44.8092   34.8332   45.3491 H   0  0  0  0  0  0  0  0  0  0  0  0
   48.3609   34.8783   43.9425 H   0  0  0  0  0  0  0  0  0  0  0  0
   47.1958   34.7202   39.8509 H   0  0  0  0  0  0  0  0  0  0  0  0
   45.2609   33.3125   40.5050 H   0  0  0  0  0  0  0  0  0  0  0  0
   46.5986   29.4089   45.9299 H   0  0  0  0  0  0  0  0  0  0  0  0
   47.9135   27.4611   46.7564 H   0  0  0  0  0  0  0  0  0  0  0  0
   49.5767   27.7441   48.5700 H   0  0  0  0  0  0  0  0  0  0  0  0
   49.9406   29.9975   49.5778 H   0  0  0  0  0  0  0  0  0  0  0  0
  1  6  2  0
  2  1  1  0
  3  4  1  0
  3  2  2  0
  4  5  2  0
  5 20  1  0
  5  6  1  0
  8  7  1  0
  8  9  2  0
  9  3  1  0
 10  9  1  0
 11 10  2  0
 12 13  2  0
 12 11  1  0
 13  8  1  0
 14 15  1  0
 14 11  1  0
 14 16  1  0
 17 14  1  0
 19 24  2  0
 19 18  1  0
 20 19  1  0
 21 22  1  0
 21 20  2  0
 22 23  2  0
 23 24  1  0
  1 25  1  0
  2 26  1  0
 10 27  1  0
 12 28  1  0
 13 29  1  0
 21 30  1  0
 22 31  1  0
 23 32  1  0
 24 33  1  0
M  ISO  8  25  14  26  14  27  14  28  14  29  14  30  14  31  14  32  14
M  ISO  1  33  14
M  END
>  <minimizedAffinity>  (1) 
-6.31308508

>  <minimizedRMSD>  (1) 
1.0255214

$$$$
