
     RDKit          3D

 27 29  0  0  1  0  0  0  0  0999 V2000
   45.0410   34.0140   40.8140 C   0  0  1  0  0  0  0  0  0  0  0  0
   44.3010   32.6750   40.5950 C   0  0  0  0  0  0  0  0  0  0  0  0
   43.9090   33.9380   39.9190 C   0  0  1  0  0  0  0  0  0  0  0  0
   44.9670   34.5010   42.2140 C   0  0  0  0  0  0  0  0  0  0  0  0
   45.2830   33.5770   43.2370 C   0  0  0  0  0  0  0  0  0  0  0  0
   45.2290   34.0260   44.5480 C   0  0  0  0  0  0  0  0  0  0  0  0
   44.8780   35.3210   44.7840 N   0  0  0  0  0  0  0  0  0  0  0  0
   44.5830   36.1750   43.7840 C   0  0  0  0  0  0  0  0  0  0  0  0
   44.6260   35.7710   42.4980 N   0  0  0  0  0  0  0  0  0  0  0  0
   42.5040   35.8470   38.3130 F   0  0  0  0  0  0  0  0  0  0  0  0
   41.8390   35.3270   39.3960 C   0  0  0  0  0  0  0  0  0  0  0  0
   42.5420   34.3960   40.1700 C   0  0  0  0  0  0  0  0  0  0  0  0
   41.7660   33.9480   41.2280 C   0  0  0  0  0  0  0  0  0  0  0  0
   40.4740   34.3500   41.5020 C   0  0  0  0  0  0  0  0  0  0  0  0
   39.8750   35.2740   40.6720 C   0  0  0  0  0  0  0  0  0  0  0  0
   40.5740   35.7740   39.5940 C   0  0  0  0  0  0  0  0  0  0  0  0
   46.0360   34.4621   40.6758 H   0  0  0  0  0  0  0  0  0  0  0  0
   44.7753   31.8614   40.0266 H   0  0  0  0  0  0  0  0  0  0  0  0
   43.8060   31.9264   41.2310 H   0  0  0  0  0  0  0  0  0  0  0  0
   43.8162   34.3355   38.8975 H   0  0  0  0  0  0  0  0  0  0  0  0
   45.5616   32.5393   43.0012 H   0  0  0  0  0  0  0  0  0  0  0  0
   45.4653   33.3489   45.3821 H   0  0  0  0  0  0  0  0  0  0  0  0
   44.3041   37.2127   44.0192 H   0  0  0  0  0  0  0  0  0  0  0  0
   42.2181   33.2097   41.9066 H   0  0  0  0  0  0  0  0  0  0  0  0
   39.9320   33.9405   42.3671 H   0  0  0  0  0  0  0  0  0  0  0  0
   38.8462   35.6099   40.8687 H   0  0  0  0  0  0  0  0  0  0  0  0
   40.1202   36.5119   38.9161 H   0  0  0  0  0  0  0  0  0  0  0  0
  1  4  1  0
  2  1  1  0
  3 12  1  0
  3  2  1  0
  3  1  1  0
  4  9  1  0
  4  5  2  0
  5  6  1  0
  6  7  2  0
  8  7  1  0
  9  8  2  0
 10 11  1  0
 11 16  2  0
 11 12  1  0
 12 13  2  0
 13 14  1  0
 15 14  2  0
 16 15  1  0
  1 17  1  6
  2 18  1  0
  2 19  1  0
  3 20  1  6
  5 21  1  0
  6 22  1  0
  8 23  1  0
 13 24  1  0
 14 25  1  0
 15 26  1  0
 16 27  1  0
M  ISO  8  17  13  18  13  19  13  20  13  21  14  22  14  23  14  24  14
M  ISO  3  25  14  26  14  27  14
M  END
>  <minimizedAffinity>  (1) 
-4.6748991

>  <minimizedRMSD>  (1) 
5.84362459

$$$$
