
     RDKit          3D

 42 45  0  0  1  0  0  0  0  0999 V2000
   48.8370   32.4650   38.4230 O   0  0  0  0  0  0  0  0  0  0  0  0
   48.0310   33.7500   38.6080 P   0  0  2  0  0  0  0  0  0  0  0  0
   48.8030   34.9300   37.6770 O   0  0  0  0  0  0  0  0  0  0  0  0
   47.8390   34.1340   40.1890 O   0  0  0  0  0  0  0  0  0  0  0  0
   48.2850   35.6220   42.0470 C   0  0  1  0  0  0  0  0  0  0  0  0
   49.5230   34.8610   41.8960 C   0  0  0  0  0  0  0  0  0  0  0  0
   48.5890   35.1310   40.7030 C   0  0  1  0  0  0  0  0  0  0  0  0
   46.4140   33.1310   44.1950 C   0  0  0  0  0  0  0  0  0  0  0  0
   47.4710   33.7620   43.5410 C   0  0  0  0  0  0  0  0  0  0  0  0
   47.1840   34.9090   42.7790 C   0  0  0  0  0  0  0  0  0  0  0  0
   45.8930   35.3580   42.7070 N   0  0  0  0  0  0  0  0  0  0  0  0
   44.9020   34.7080   43.3630 C   0  0  0  0  0  0  0  0  0  0  0  0
   45.1620   33.5990   44.1040 N   0  0  0  0  0  0  0  0  0  0  0  0
   46.5530   33.4320   37.8820 O   0  0  0  0  0  0  0  0  0  0  0  0
   45.4830   32.8050   38.5130 C   0  0  0  0  0  0  0  0  0  0  0  0
   45.3840   31.4720   38.8570 C   0  0  0  0  0  0  0  0  0  0  0  0
   44.2480   31.0110   39.4810 C   0  0  0  0  0  0  0  0  0  0  0  0
   43.2140   31.8620   39.7650 C   0  0  0  0  0  0  0  0  0  0  0  0
   43.3590   33.1930   39.4010 C   0  0  0  0  0  0  0  0  0  0  0  0
   44.4730   33.6450   38.7890 N   0  0  0  0  0  0  0  0  0  0  0  0
   40.9300   33.5360   37.8090 F   0  0  0  0  0  0  0  0  0  0  0  0
   41.1100   34.2410   38.9420 C   0  0  0  0  0  0  0  0  0  0  0  0
   42.2440   34.0770   39.6820 C   0  0  0  0  0  0  0  0  0  0  0  0
   42.2930   34.8420   40.8230 C   0  0  0  0  0  0  0  0  0  0  0  0
   41.2810   35.6960   41.1750 C   0  0  0  0  0  0  0  0  0  0  0  0
   40.1490   35.8360   40.3980 C   0  0  0  0  0  0  0  0  0  0  0  0
   40.0510   35.0750   39.2260 C   0  0  0  0  0  0  0  0  0  0  0  0
   49.2353   35.5908   38.2741 H   0  0  0  0  0  0  0  0  0  0  0  0
   48.0439   36.6179   42.4471 H   0  0  0  0  0  0  0  0  0  0  0  0
   50.4971   35.3675   41.9635 H   0  0  0  0  0  0  0  0  0  0  0  0
   49.9616   33.9688   42.3668 H   0  0  0  0  0  0  0  0  0  0  0  0
   48.7085   35.5720   39.7024 H   0  0  0  0  0  0  0  0  0  0  0  0
   46.6116   32.2319   44.7971 H   0  0  0  0  0  0  0  0  0  0  0  0
   48.4977   33.3750   43.6184 H   0  0  0  0  0  0  0  0  0  0  0  0
   43.8705   35.0838   43.2948 H   0  0  0  0  0  0  0  0  0  0  0  0
   46.2101   30.7811   38.6331 H   0  0  0  0  0  0  0  0  0  0  0  0
   44.1697   29.9484   39.7544 H   0  0  0  0  0  0  0  0  0  0  0  0
   42.3014   31.5036   40.2637 H   0  0  0  0  0  0  0  0  0  0  0  0
   43.1750   34.7660   41.4759 H   0  0  0  0  0  0  0  0  0  0  0  0
   41.3731   36.2846   42.0997 H   0  0  0  0  0  0  0  0  0  0  0  0
   39.3449   36.5270   40.6913 H   0  0  0  0  0  0  0  0  0  0  0  0
   39.1733   35.1401   38.5662 H   0  0  0  0  0  0  0  0  0  0  0  0
  2  1  2  0
  2  4  1  0
  3  2  1  0
  4  7  1  0
  5 10  1  0
  6  5  1  0
  7  6  1  0
  7  5  1  0
  9  8  2  0
 10  9  1  0
 11 10  2  0
 11 12  1  0
 12 13  2  0
 13  8  1  0
 14 15  1  0
 14  2  1  0
 15 20  1  0
 15 16  2  0
 16 17  1  0
 17 18  2  0
 19 23  1  0
 19 18  1  0
 20 19  2  0
 21 22  1  0
 22 27  2  0
 22 23  1  0
 23 24  2  0
 24 25  1  0
 26 25  2  0
 27 26  1  0
  3 28  1  0
  5 29  1  6
  6 30  1  0
  6 31  1  0
  7 32  1  6
  8 33  1  0
  9 34  1  0
 12 35  1  0
 16 36  1  0
 17 37  1  0
 18 38  1  0
 24 39  1  0
 25 40  1  0
 26 41  1  0
 27 42  1  0
M  ISO  8  28   3  29  13  30  13  31  13  32  13  33  14  34  14  35  14
M  ISO  7  36  14  37  14  38  14  39  14  40  14  41  14  42  14
M  END
>  <minimizedAffinity>  (1) 
-5.96336842

>  <minimizedRMSD>  (1) 
2.15879893

$$$$
