
     RDKit          3D

 27 29  0  0  0  0  0  0  0  0999 V2000
   46.0380   32.8940   45.9630 C   0  0  0  0  0  0  0  0  0  0  0  0
   45.6850   32.6590   47.3170 C   0  0  0  0  0  0  0  0  0  0  0  0
   46.1380   31.5400   47.9260 C   0  0  0  0  0  0  0  0  0  0  0  0
   46.9480   30.6480   47.1850 C   0  0  0  0  0  0  0  0  0  0  0  0
   47.0510   31.4560   45.5650 S   0  0  0  0  0  0  0  0  0  0  0  0
   44.4750   36.0390   44.7550 C   0  0  0  0  0  0  0  0  0  0  0  0
   45.0540   36.1090   43.4610 C   0  0  0  0  0  0  0  0  0  0  0  0
   45.9420   35.0850   43.0730 C   0  0  0  0  0  0  0  0  0  0  0  0
   46.1920   34.0800   43.9730 N   0  0  0  0  0  0  0  0  0  0  0  0
   45.6160   34.0590   45.1920 C   0  0  0  0  0  0  0  0  0  0  0  0
   44.7590   35.0340   45.5860 N   0  0  0  0  0  0  0  0  0  0  0  0
   49.5030   30.3870   48.3110 F   0  0  0  0  0  0  0  0  0  0  0  0
   48.8350   29.2440   48.0540 C   0  0  0  0  0  0  0  0  0  0  0  0
   47.5830   29.4030   47.5010 C   0  0  0  0  0  0  0  0  0  0  0  0
   46.8910   28.2400   47.2340 C   0  0  0  0  0  0  0  0  0  0  0  0
   47.4000   26.9880   47.4950 C   0  0  0  0  0  0  0  0  0  0  0  0
   48.6590   26.9080   48.0490 C   0  0  0  0  0  0  0  0  0  0  0  0
   49.4090   28.0270   48.3430 C   0  0  0  0  0  0  0  0  0  0  0  0
   45.0531   33.3754   47.8624 H   0  0  0  0  0  0  0  0  0  0  0  0
   45.8823   31.3280   48.9746 H   0  0  0  0  0  0  0  0  0  0  0  0
   43.7796   36.8274   45.0788 H   0  0  0  0  0  0  0  0  0  0  0  0
   44.8164   36.9393   42.7797 H   0  0  0  0  0  0  0  0  0  0  0  0
   46.4186   35.0916   42.0816 H   0  0  0  0  0  0  0  0  0  0  0  0
   45.8865   28.3166   46.7923 H   0  0  0  0  0  0  0  0  0  0  0  0
   46.8205   26.0809   47.2686 H   0  0  0  0  0  0  0  0  0  0  0  0
   49.0811   25.9154   48.2646 H   0  0  0  0  0  0  0  0  0  0  0  0
   50.4133   27.9510   48.7853 H   0  0  0  0  0  0  0  0  0  0  0  0
  1  2  2  0
  2  3  1  0
  4 14  1  0
  4  3  2  0
  5  1  1  0
  5  4  1  0
  6 11  2  0
  7  6  1  0
  8  7  2  0
  8  9  1  0
  9 10  2  0
 10 11  1  0
 10  1  1  0
 13 12  1  0
 13 18  2  0
 14 13  1  0
 15 16  1  0
 15 14  2  0
 16 17  2  0
 17 18  1  0
  2 19  1  0
  3 20  1  0
  6 21  1  0
  7 22  1  0
  8 23  1  0
 15 24  1  0
 16 25  1  0
 17 26  1  0
 18 27  1  0
M  ISO  8  19  14  20  14  21  14  22  14  23  14  24  14  25  14  26  14
M  ISO  1  27  14
M  END
>  <minimizedAffinity>  (1) 
-4.74846554

>  <minimizedRMSD>  (1) 
1.64430523

$$$$
