
     RDKit          3D

 36 38  0  0  0  0  0  0  0  0999 V2000
   46.2860   34.0350   41.0470 C   0  0  0  0  0  0  0  0  0  0  0  0
   47.0190   34.0460   39.8910 C   0  0  0  0  0  0  0  0  0  0  0  0
   48.2380   34.6720   39.7160 C   0  0  0  0  0  0  0  0  0  0  0  0
   48.7340   35.3440   40.8470 C   0  0  0  0  0  0  0  0  0  0  0  0
   48.0110   35.3520   42.0410 C   0  0  0  0  0  0  0  0  0  0  0  0
   46.8050   34.7150   42.1600 C   0  0  0  0  0  0  0  0  0  0  0  0
   45.0210   36.7600   42.6560 F   0  0  0  0  0  0  0  0  0  0  0  0
   45.2240   35.7980   43.6070 C   0  0  0  0  0  0  0  0  0  0  0  0
   46.0950   34.7550   43.4280 C   0  0  0  0  0  0  0  0  0  0  0  0
   46.2610   33.8050   44.4330 C   0  0  0  0  0  0  0  0  0  0  0  0
   45.5450   33.9210   45.6100 C   0  0  0  0  0  0  0  0  0  0  0  0
   44.6660   34.9870   45.7720 C   0  0  0  0  0  0  0  0  0  0  0  0
   44.5100   35.9170   44.7740 C   0  0  0  0  0  0  0  0  0  0  0  0
   44.9910   33.3670   41.2250 C   0  0  0  0  0  0  0  0  0  0  0  0
   44.0880   33.6010   40.0270 C   0  0  0  0  0  0  0  0  0  0  0  0
   41.2950   35.6370   41.5190 C   0  0  0  0  0  0  0  0  0  0  0  0
   42.5800   35.2950   41.0510 C   0  0  0  0  0  0  0  0  0  0  0  0
   42.7470   34.0070   40.5340 C   0  0  0  0  0  0  0  0  0  0  0  0
   41.6580   33.1570   40.5120 N   0  0  0  0  0  0  0  0  0  0  0  0
   40.4600   33.5370   40.9710 C   0  0  0  0  0  0  0  0  0  0  0  0
   40.2660   34.7680   41.4750 N   0  0  0  0  0  0  0  0  0  0  0  0
   46.6011   33.5098   39.0262 H   0  0  0  0  0  0  0  0  0  0  0  0
   48.7817   34.6465   38.7601 H   0  0  0  0  0  0  0  0  0  0  0  0
   49.6997   35.8677   40.7905 H   0  0  0  0  0  0  0  0  0  0  0  0
   48.4219   35.8852   42.9110 H   0  0  0  0  0  0  0  0  0  0  0  0
   46.9585   32.9664   44.2909 H   0  0  0  0  0  0  0  0  0  0  0  0
   45.6692   33.1773   46.4109 H   0  0  0  0  0  0  0  0  0  0  0  0
   44.0924   35.0855   46.7054 H   0  0  0  0  0  0  0  0  0  0  0  0
   43.8132   36.7573   44.9092 H   0  0  0  0  0  0  0  0  0  0  0  0
   45.1573   32.2862   41.3443 H   0  0  0  0  0  0  0  0  0  0  0  0
   44.5023   33.7830   42.1184 H   0  0  0  0  0  0  0  0  0  0  0  0
   44.0004   32.6754   39.4391 H   0  0  0  0  0  0  0  0  0  0  0  0
   44.5063   34.3867   39.3807 H   0  0  0  0  0  0  0  0  0  0  0  0
   41.1274   36.6426   41.9322 H   0  0  0  0  0  0  0  0  0  0  0  0
   43.4147   36.0103   41.0909 H   0  0  0  0  0  0  0  0  0  0  0  0
   39.6187   32.8293   40.9353 H   0  0  0  0  0  0  0  0  0  0  0  0
  1 14  1  0
  1  6  1  0
  2  1  2  0
  3  2  1  0
  3  4  2  0
  4  5  1  0
  5  6  2  0
  6  9  1  0
  7  8  1  0
  8 13  2  0
  9  8  1  0
  9 10  2  0
 10 11  1  0
 11 12  2  0
 13 12  1  0
 15 18  1  0
 15 14  1  0
 17 16  2  0
 18 17  1  0
 19 18  2  0
 19 20  1  0
 20 21  2  0
 21 16  1  0
  2 22  1  0
  3 23  1  0
  4 24  1  0
  5 25  1  0
 10 26  1  0
 11 27  1  0
 12 28  1  0
 13 29  1  0
 14 30  1  0
 14 31  1  0
 15 32  1  0
 15 33  1  0
 16 34  1  0
 17 35  1  0
 20 36  1  0
M  ISO  8  22  14  23  14  24  14  25  14  26  14  27  14  28  14  29  14
M  ISO  7  30   8  31   8  32   8  33   8  34  14  35  14  36  14
M  END
>  <minimizedAffinity>  (1) 
-6.49264383

>  <minimizedRMSD>  (1) 
1.01247191

$$$$
