
     RDKit          3D

 35 36  0  0  0  0  0  0  0  0999 V2000
   41.1310   32.5360   40.9020 C   0  0  0  0  0  0  0  0  0  0  0  0
   42.2840   33.2120   40.5110 C   0  0  0  0  0  0  0  0  0  0  0  0
   42.4890   33.5720   39.1820 C   0  0  0  0  0  0  0  0  0  0  0  0
   41.5180   33.2350   38.2940 N   0  0  0  0  0  0  0  0  0  0  0  0
   40.4180   32.5840   38.6970 C   0  0  0  0  0  0  0  0  0  0  0  0
   40.2070   32.2340   39.9560 N   0  0  0  0  0  0  0  0  0  0  0  0
   38.4700   34.4490   37.7920 F   0  0  0  0  0  0  0  0  0  0  0  0
   38.4620   33.1940   37.2820 C   0  0  0  0  0  0  0  0  0  0  0  0
   39.4000   32.2430   37.6980 C   0  0  0  0  0  0  0  0  0  0  0  0
   39.3310   30.9830   37.1360 C   0  0  0  0  0  0  0  0  0  0  0  0
   38.4000   30.5950   36.1910 C   0  0  0  0  0  0  0  0  0  0  0  0
   37.4690   31.5440   35.7820 C   0  0  0  0  0  0  0  0  0  0  0  0
   37.5160   32.8120   36.3280 C   0  0  0  0  0  0  0  0  0  0  0  0
   43.5300   33.6260   41.7530 S   0  0  0  0  0  0  0  0  0  0  0  0
   43.5390   35.4050   41.9980 C   0  0  0  0  0  0  0  0  0  0  0  0
   43.3010   35.6410   43.4240 N   0  0  0  0  0  0  0  0  0  0  0  0
   44.7470   35.8450   44.3160 S   0  0  0  0  0  0  0  0  0  0  0  0
   45.9470   35.3800   43.5520 O   0  0  0  0  0  0  0  0  0  0  0  0
   44.8680   37.3380   44.5910 O   0  0  0  0  0  0  0  0  0  0  0  0
   44.6340   35.0990   45.7900 O   0  0  0  0  0  0  0  0  0  0  0  0
   45.4160   33.9530   45.8740 C   0  0  0  0  0  0  0  0  0  0  0  0
   40.9733   32.2536   41.9534 H   0  0  0  0  0  0  0  0  0  0  0  0
   43.3971   34.1057   38.8650 H   0  0  0  0  0  0  0  0  0  0  0  0
   40.0689   30.2359   37.4636 H   0  0  0  0  0  0  0  0  0  0  0  0
   38.3955   29.5753   35.7784 H   0  0  0  0  0  0  0  0  0  0  0  0
   36.7049   31.2880   35.0332 H   0  0  0  0  0  0  0  0  0  0  0  0
   36.7750   33.5544   35.9965 H   0  0  0  0  0  0  0  0  0  0  0  0
   44.5132   35.8222   41.7033 H   0  0  0  0  0  0  0  0  0  0  0  0
   42.7652   35.8901   41.3848 H   0  0  0  0  0  0  0  0  0  0  0  0
   42.7296   36.4919   43.5253 H   0  0  0  0  0  0  0  0  0  0  0  0
   46.6559   35.1053   44.1862 H   0  0  0  0  0  0  0  0  0  0  0  0
   44.8806   37.4935   45.5686 H   0  0  0  0  0  0  0  0  0  0  0  0
   45.5870   33.7025   46.9314 H   0  0  0  0  0  0  0  0  0  0  0  0
   44.8981   33.1186   45.3786 H   0  0  0  0  0  0  0  0  0  0  0  0
   46.3818   34.1310   45.3786 H   0  0  0  0  0  0  0  0  0  0  0  0
  2  1  2  0
  2 14  1  0
  3  2  1  0
  4  5  1  0
  4  3  2  0
  5  6  2  0
  6  1  1  0
  8  9  2  0
  8  7  1  0
  9  5  1  0
 10  9  1  0
 11 10  2  0
 12 11  1  0
 12 13  2  0
 13  8  1  0
 14 15  1  0
 15 16  1  0
 16 17  1  0
 17 19  1  0
 17 20  1  0
 18 17  1  0
 20 21  1  0
  1 22  1  0
  3 23  1  0
 10 24  1  0
 11 25  1  0
 12 26  1  0
 13 27  1  0
 15 28  1  0
 15 29  1  0
 16 30  1  0
 18 31  1  0
 19 32  1  0
 21 33  1  0
 21 34  1  0
 21 35  1  0
M  ISO  8  22  14  23  14  24  14  25  14  26  14  27  14  28   8  29   8
M  ISO  6  30   5  31   3  32   3  33   8  34   8  35   8
M  END
>  <minimizedAffinity>  (1) 
-4.57036543

>  <minimizedRMSD>  (1) 
2.69579506

$$$$
