
     RDKit          3D

 49 54  0  0  1  0  0  0  0  0999 V2000
   45.6210   33.4890   45.2950 C   0  0  0  0  0  0  0  0  0  0  0  0
   46.6630   32.8970   44.5340 C   0  0  0  0  0  0  0  0  0  0  0  0
   47.5380   32.0590   45.1790 C   0  0  0  0  0  0  0  0  0  0  0  0
   47.3530   31.8450   46.5110 N   0  0  0  0  0  0  0  0  0  0  0  0
   46.3500   32.4200   47.2240 C   0  0  0  0  0  0  0  0  0  0  0  0
   45.4860   33.2430   46.6080 N   0  0  0  0  0  0  0  0  0  0  0  0
   46.7870   33.2060   43.0780 C   0  0  1  0  0  0  0  0  0  0  0  0
   46.8910   34.5900   42.6260 C   0  0  0  0  0  0  0  0  0  0  0  0
   48.1190   33.7520   42.5990 C   0  0  2  0  0  0  0  0  0  0  0  0
   48.5450   33.2310   41.2700 C   0  0  0  0  0  0  0  0  0  0  0  0
   49.4380   32.1950   41.0930 C   0  0  0  0  0  0  0  0  0  0  0  0
   49.7940   31.7680   39.8260 C   0  0  0  0  0  0  0  0  0  0  0  0
   49.2630   32.3710   38.7210 C   0  0  0  0  0  0  0  0  0  0  0  0
   49.5940   31.9690   37.4600 N   0  0  0  0  0  0  0  0  0  0  0  0
   49.0520   32.5840   36.3810 C   0  0  0  0  0  0  0  0  0  0  0  0
   48.1290   33.6550   36.4610 C   0  0  0  0  0  0  0  0  0  0  0  0
   47.7930   34.0620   37.7370 C   0  0  0  0  0  0  0  0  0  0  0  0
   48.3550   33.4250   38.8380 C   0  0  0  0  0  0  0  0  0  0  0  0
   48.0250   33.8200   40.1180 C   0  0  0  0  0  0  0  0  0  0  0  0
   46.2480   32.1040   48.6740 C   0  0  2  0  0  0  0  0  0  0  0  0
   47.2340   31.2680   49.3400 C   0  0  0  0  0  0  0  0  0  0  0  0
   45.9400   30.5980   48.9580 C   0  0  2  0  0  0  0  0  0  0  0  0
   47.9710   28.9090   47.8450 F   0  0  0  0  0  0  0  0  0  0  0  0
   46.7860   28.8800   47.2210 C   0  0  0  0  0  0  0  0  0  0  0  0
   45.8460   29.7090   47.7950 C   0  0  0  0  0  0  0  0  0  0  0  0
   44.5670   29.7620   47.2270 C   0  0  0  0  0  0  0  0  0  0  0  0
   44.2420   28.9950   46.1030 C   0  0  0  0  0  0  0  0  0  0  0  0
   45.2110   28.1740   45.5530 C   0  0  0  0  0  0  0  0  0  0  0  0
   46.4630   28.1250   46.1120 C   0  0  0  0  0  0  0  0  0  0  0  0
   44.9086   34.1640   44.7981 H   0  0  0  0  0  0  0  0  0  0  0  0
   48.3635   31.5750   44.6365 H   0  0  0  0  0  0  0  0  0  0  0  0
   46.1271   32.3671   42.8118 H   0  0  0  0  0  0  0  0  0  0  0  0
   46.4164   34.8911   41.6804 H   0  0  0  0  0  0  0  0  0  0  0  0
   46.6371   35.5628   43.0724 H   0  0  0  0  0  0  0  0  0  0  0  0
   49.1379   33.8569   43.0002 H   0  0  0  0  0  0  0  0  0  0  0  0
   49.8742   31.7002   41.9733 H   0  0  0  0  0  0  0  0  0  0  0  0
   50.5077   30.9394   39.7079 H   0  0  0  0  0  0  0  0  0  0  0  0
   49.3469   32.2298   35.3822 H   0  0  0  0  0  0  0  0  0  0  0  0
   47.7068   34.1321   35.5642 H   0  0  0  0  0  0  0  0  0  0  0  0
   47.0820   34.8887   37.8823 H   0  0  0  0  0  0  0  0  0  0  0  0
   47.3102   34.6476   40.2367 H   0  0  0  0  0  0  0  0  0  0  0  0
   45.8378   33.0936   48.9241 H   0  0  0  0  0  0  0  0  0  0  0  0
   48.1587   30.9975   48.8092 H   0  0  0  0  0  0  0  0  0  0  0  0
   47.7862   31.3598   50.2869 H   0  0  0  0  0  0  0  0  0  0  0  0
   45.1953   29.9958   49.4992 H   0  0  0  0  0  0  0  0  0  0  0  0
   43.8047   30.4181   47.6724 H   0  0  0  0  0  0  0  0  0  0  0  0
   43.2344   29.0436   45.6643 H   0  0  0  0  0  0  0  0  0  0  0  0
   44.9778   27.5619   44.6693 H   0  0  0  0  0  0  0  0  0  0  0  0
   47.2259   27.4696   45.6665 H   0  0  0  0  0  0  0  0  0  0  0  0
  1  6  2  0
  2  3  2  0
  2  1  1  0
  3  4  1  0
  4  5  2  0
  5 20  1  0
  6  5  1  0
  7  2  1  0
  8  7  1  0
  9  8  1  0
  9  7  1  0
 10  9  1  0
 11 10  2  0
 12 11  1  0
 13 18  1  0
 13 12  2  0
 14 13  1  0
 15 16  1  0
 15 14  2  0
 16 17  2  0
 17 18  1  0
 18 19  2  0
 19 10  1  0
 20 22  1  0
 20 21  1  0
 22 21  1  0
 24 25  2  0
 24 23  1  0
 25 22  1  0
 26 25  1  0
 27 26  2  0
 28 27  1  0
 28 29  2  0
 29 24  1  0
  1 30  1  0
  3 31  1  0
  7 32  1  6
  8 33  1  0
  8 34  1  0
  9 35  1  1
 11 36  1  0
 12 37  1  0
 15 38  1  0
 16 39  1  0
 17 40  1  0
 19 41  1  0
 20 42  1  1
 21 43  1  0
 21 44  1  0
 22 45  1  1
 26 46  1  0
 27 47  1  0
 28 48  1  0
 29 49  1  0
M  ISO  8  30  14  31  14  32  13  33  13  34  13  35  13  36  14  37  14
M  ISO  8  38  14  39  14  40  14  41  14  42  13  43  13  44  13  45  13
M  ISO  4  46  14  47  14  48  14  49  14
M  END
>  <minimizedAffinity>  (1) 
-5.78153229

>  <minimizedRMSD>  (1) 
1.32491291

$$$$
