
     RDKit          3D

 33 36  0  0  0  0  0  0  0  0999 V2000
   44.4780   35.9260   44.7810 C   0  0  0  0  0  0  0  0  0  0  0  0
   45.0690   35.8740   43.4900 C   0  0  0  0  0  0  0  0  0  0  0  0
   45.9630   34.8470   43.2260 C   0  0  0  0  0  0  0  0  0  0  0  0
   46.2380   33.9490   44.1870 N   0  0  0  0  0  0  0  0  0  0  0  0
   45.6530   34.0250   45.4190 C   0  0  0  0  0  0  0  0  0  0  0  0
   44.7920   35.0060   45.6870 N   0  0  0  0  0  0  0  0  0  0  0  0
   47.9100   35.2160   41.8280 C   0  0  0  0  0  0  0  0  0  0  0  0
   46.6330   34.6880   41.9440 C   0  0  0  0  0  0  0  0  0  0  0  0
   46.0930   34.0560   40.8490 C   0  0  0  0  0  0  0  0  0  0  0  0
   46.7690   33.9290   39.6480 C   0  0  0  0  0  0  0  0  0  0  0  0
   46.4260   33.3550   38.4670 N   0  0  0  0  0  0  0  0  0  0  0  0
   47.4780   33.5170   37.6100 C   0  0  0  0  0  0  0  0  0  0  0  0
   48.4540   34.1940   38.2870 N   0  0  0  0  0  0  0  0  0  0  0  0
   48.0340   34.4510   39.5340 C   0  0  0  0  0  0  0  0  0  0  0  0
   48.5980   35.0870   40.6100 C   0  0  0  0  0  0  0  0  0  0  0  0
   44.2600   33.8340   47.8660 F   0  0  0  0  0  0  0  0  0  0  0  0
   45.2740   32.9680   47.6110 C   0  0  0  0  0  0  0  0  0  0  0  0
   45.9860   33.0180   46.4350 C   0  0  0  0  0  0  0  0  0  0  0  0
   47.0210   32.1310   46.1800 C   0  0  0  0  0  0  0  0  0  0  0  0
   47.3120   31.1880   47.1630 C   0  0  0  0  0  0  0  0  0  0  0  0
   46.5820   31.1590   48.3370 C   0  0  0  0  0  0  0  0  0  0  0  0
   45.5590   32.0340   48.5890 C   0  0  0  0  0  0  0  0  0  0  0  0
   43.7635   36.7245   45.0295 H   0  0  0  0  0  0  0  0  0  0  0  0
   44.8252   36.6247   42.7239 H   0  0  0  0  0  0  0  0  0  0  0  0
   48.3789   35.7300   42.6800 H   0  0  0  0  0  0  0  0  0  0  0  0
   45.0807   33.6333   40.9309 H   0  0  0  0  0  0  0  0  0  0  0  0
   45.5352   32.8833   38.2553 H   0  0  0  0  0  0  0  0  0  0  0  0
   47.5299   33.1674   36.5683 H   0  0  0  0  0  0  0  0  0  0  0  0
   49.6112   35.5053   40.5174 H   0  0  0  0  0  0  0  0  0  0  0  0
   47.5894   32.1705   45.2391 H   0  0  0  0  0  0  0  0  0  0  0  0
   48.1250   30.4641   47.0049 H   0  0  0  0  0  0  0  0  0  0  0  0
   46.8324   30.4046   49.0973 H   0  0  0  0  0  0  0  0  0  0  0  0
   44.9890   31.9951   49.5290 H   0  0  0  0  0  0  0  0  0  0  0  0
  1  6  2  0
  2  1  1  0
  3  2  2  0
  3  4  1  0
  4  5  2  0
  5  6  1  0
  5 18  1  0
  7  8  2  0
  8  3  1  0
  9  8  1  0
 10  9  2  0
 11 10  1  0
 12 13  2  0
 12 11  1  0
 13 14  1  0
 14 10  1  0
 14 15  2  0
 15  7  1  0
 17 16  1  0
 17 22  2  0
 18 17  1  0
 19 18  2  0
 19 20  1  0
 20 21  2  0
 21 22  1  0
  1 23  1  0
  2 24  1  0
  7 25  1  0
  9 26  1  0
 11 27  1  0
 12 28  1  0
 15 29  1  0
 19 30  1  0
 20 31  1  0
 21 32  1  0
 22 33  1  0
M  ISO  8  23  14  24  14  25  14  26  14  27   9  28  14  29  14  30  14
M  ISO  3  31  14  32  14  33  14
M  END
>  <minimizedAffinity>  (1) 
-7.2977047

>  <minimizedRMSD>  (1) 
0.473700166

$$$$
