
     RDKit          3D

 34 36  0  0  0  0  0  0  0  0999 V2000
   45.4360   36.2510   43.2460 C   0  0  0  0  0  0  0  0  0  0  0  0
   46.0820   35.0060   43.0760 C   0  0  0  0  0  0  0  0  0  0  0  0
   45.9160   34.0620   44.0650 C   0  0  0  0  0  0  0  0  0  0  0  0
   45.1620   34.2940   45.1680 N   0  0  0  0  0  0  0  0  0  0  0  0
   44.5460   35.5220   45.2980 C   0  0  0  0  0  0  0  0  0  0  0  0
   44.6890   36.4790   44.3470 N   0  0  0  0  0  0  0  0  0  0  0  0
   46.7950   34.8250   41.8910 N   0  0  0  0  0  0  0  0  0  0  0  0
   48.1170   35.2970   41.7820 C   0  0  0  0  0  0  0  0  0  0  0  0
   48.6460   35.2260   40.3950 C   0  0  0  0  0  0  0  0  0  0  0  0
   48.3860   34.0400   39.6900 N   0  0  0  0  0  0  0  0  0  0  0  0
   47.2490   33.2940   40.0490 C   0  0  0  0  0  0  0  0  0  0  0  0
   46.2430   34.1750   40.7110 C   0  0  0  0  0  0  0  0  0  0  0  0
   44.2770   32.2210   43.0190 F   0  0  0  0  0  0  0  0  0  0  0  0
   45.4510   31.7910   43.6090 C   0  0  0  0  0  0  0  0  0  0  0  0
   46.3770   32.7170   44.1360 C   0  0  0  0  0  0  0  0  0  0  0  0
   47.4880   32.0400   44.6730 C   0  0  0  0  0  0  0  0  0  0  0  0
   47.6130   30.6680   44.6660 C   0  0  0  0  0  0  0  0  0  0  0  0
   46.6600   29.8450   44.1310 C   0  0  0  0  0  0  0  0  0  0  0  0
   45.5270   30.4150   43.5770 C   0  0  0  0  0  0  0  0  0  0  0  0
   45.5418   37.0345   42.4812 H   0  0  0  0  0  0  0  0  0  0  0  0
   43.9300   35.7280   46.1857 H   0  0  0  0  0  0  0  0  0  0  0  0
   48.1435   36.3453   42.1141 H   0  0  0  0  0  0  0  0  0  0  0  0
   48.7497   34.6517   42.4091 H   0  0  0  0  0  0  0  0  0  0  0  0
   48.2058   36.0578   39.8255 H   0  0  0  0  0  0  0  0  0  0  0  0
   49.7404   35.2734   40.4957 H   0  0  0  0  0  0  0  0  0  0  0  0
   49.2049   33.4268   39.8096 H   0  0  0  0  0  0  0  0  0  0  0  0
   46.8051   32.8506   39.1455 H   0  0  0  0  0  0  0  0  0  0  0  0
   47.5470   32.4999   40.7494 H   0  0  0  0  0  0  0  0  0  0  0  0
   45.9190   34.9465   39.9970 H   0  0  0  0  0  0  0  0  0  0  0  0
   45.3938   33.5513   41.0269 H   0  0  0  0  0  0  0  0  0  0  0  0
   48.2969   32.6361   45.1206 H   0  0  0  0  0  0  0  0  0  0  0  0
   48.5138   30.2168   45.1076 H   0  0  0  0  0  0  0  0  0  0  0  0
   46.7915   28.7529   44.1410 H   0  0  0  0  0  0  0  0  0  0  0  0
   44.7284   29.8017   43.1341 H   0  0  0  0  0  0  0  0  0  0  0  0
  1  6  2  0
  2  1  1  0
  2  3  2  0
  3 15  1  0
  3  4  1  0
  4  5  2  0
  6  5  1  0
  7  2  1  0
  8  7  1  0
  9  8  1  0
 10 11  1  0
 10  9  1  0
 11 12  1  0
 12  7  1  0
 13 14  1  0
 14 15  2  0
 15 16  1  0
 17 16  2  0
 18 17  1  0
 19 14  1  0
 19 18  2  0
  1 20  1  0
  5 21  1  0
  8 22  1  0
  8 23  1  0
  9 24  1  0
  9 25  1  0
 10 26  1  0
 11 27  1  0
 11 28  1  0
 12 29  1  0
 12 30  1  0
 16 31  1  0
 17 32  1  0
 18 33  1  0
 19 34  1  0
M  ISO  8  20  14  21  14  22  13  23  13  24  13  25  13  26   5  27  13
M  ISO  7  28  13  29  13  30  13  31  14  32  14  33  14  34  14
M  END
>  <minimizedAffinity>  (1) 
-4.76830673

>  <minimizedRMSD>  (1) 
3.16655755

$$$$
