
     RDKit          3D

 41 44  0  0  1  0  0  0  0  0999 V2000
   39.9340   33.1160   42.3990 N   0  0  0  0  0  0  0  0  0  0  0  0
   40.0230   34.2920   41.5300 C   0  0  2  0  0  0  0  0  0  0  0  0
   39.0440   34.2550   40.4160 C   0  0  0  0  0  0  0  0  0  0  0  0
   38.0730   33.1800   40.5380 N   0  0  0  0  0  0  0  0  0  0  0  0
   38.6020   31.9100   40.8560 C   0  0  0  0  0  0  0  0  0  0  0  0
   39.9830   31.9720   41.4580 C   0  0  2  0  0  0  0  0  0  0  0  0
   40.9350   29.8090   40.0540 F   0  0  0  0  0  0  0  0  0  0  0  0
   40.8640   29.6510   41.4090 C   0  0  0  0  0  0  0  0  0  0  0  0
   40.3840   30.7390   42.1340 C   0  0  0  0  0  0  0  0  0  0  0  0
   40.3340   30.5240   43.4950 C   0  0  0  0  0  0  0  0  0  0  0  0
   40.7180   29.3570   44.0940 C   0  0  0  0  0  0  0  0  0  0  0  0
   41.1880   28.3160   43.2890 C   0  0  0  0  0  0  0  0  0  0  0  0
   41.2700   28.4500   41.9030 C   0  0  0  0  0  0  0  0  0  0  0  0
   43.5470   34.3790   40.7720 C   0  0  0  0  0  0  0  0  0  0  0  0
   42.9250   34.4760   39.5190 C   0  0  0  0  0  0  0  0  0  0  0  0
   41.5510   34.4610   39.6750 C   0  0  0  0  0  0  0  0  0  0  0  0
   41.3680   34.3550   40.9890 N   0  0  0  0  0  0  0  0  0  0  0  0
   42.5290   34.3070   41.6290 N   0  0  0  0  0  0  0  0  0  0  0  0
   47.2630   33.8910   40.4620 C   0  0  0  0  0  0  0  0  0  0  0  0
   45.8780   33.7930   40.1190 C   0  0  0  0  0  0  0  0  0  0  0  0
   44.9940   34.3810   40.9890 C   0  0  0  0  0  0  0  0  0  0  0  0
   45.4490   35.0160   42.1100 N   0  0  0  0  0  0  0  0  0  0  0  0
   46.7720   35.0840   42.3950 C   0  0  0  0  0  0  0  0  0  0  0  0
   47.6440   34.5230   41.5690 N   0  0  0  0  0  0  0  0  0  0  0  0
   40.7271   33.0847   43.0554 H   0  0  0  0  0  0  0  0  0  0  0  0
   39.7889   35.1822   42.1322 H   0  0  0  0  0  0  0  0  0  0  0  0
   39.5939   34.1231   39.4725 H   0  0  0  0  0  0  0  0  0  0  0  0
   38.4856   35.2023   40.4420 H   0  0  0  0  0  0  0  0  0  0  0  0
   37.4054   33.4391   41.2783 H   0  0  0  0  0  0  0  0  0  0  0  0
   37.9289   31.4220   41.5763 H   0  0  0  0  0  0  0  0  0  0  0  0
   38.6822   31.3459   39.9150 H   0  0  0  0  0  0  0  0  0  0  0  0
   40.7425   32.0986   40.6724 H   0  0  0  0  0  0  0  0  0  0  0  0
   39.9639   31.3382   44.1354 H   0  0  0  0  0  0  0  0  0  0  0  0
   40.6584   29.2398   45.1861 H   0  0  0  0  0  0  0  0  0  0  0  0
   41.4998   27.3712   43.7581 H   0  0  0  0  0  0  0  0  0  0  0  0
   41.6373   27.6410   41.2545 H   0  0  0  0  0  0  0  0  0  0  0  0
   43.4512   34.5526   38.5561 H   0  0  0  0  0  0  0  0  0  0  0  0
   40.7827   34.5227   38.8902 H   0  0  0  0  0  0  0  0  0  0  0  0
   48.0204   33.4396   39.8043 H   0  0  0  0  0  0  0  0  0  0  0  0
   45.5401   33.2755   39.2091 H   0  0  0  0  0  0  0  0  0  0  0  0
   47.1189   35.5995   43.3027 H   0  0  0  0  0  0  0  0  0  0  0  0
  2  1  1  0
  3  4  1  0
  3  2  1  0
  4  5  1  0
  5  6  1  0
  6  9  1  0
  6  1  1  0
  7  8  1  0
  8 13  2  0
  8  9  1  0
  9 10  2  0
 10 11  1  0
 12 11  2  0
 13 12  1  0
 14 21  1  0
 14 18  2  0
 15 16  2  0
 15 14  1  0
 16 17  1  0
 17  2  1  0
 17 18  1  0
 19 24  2  0
 20 19  1  0
 20 21  2  0
 21 22  1  0
 22 23  2  0
 24 23  1  0
  1 25  1  0
  2 26  1  1
  3 27  1  0
  3 28  1  0
  4 29  1  0
  5 30  1  0
  5 31  1  0
  6 32  1  6
 10 33  1  0
 11 34  1  0
 12 35  1  0
 13 36  1  0
 15 37  1  0
 16 38  1  0
 19 39  1  0
 20 40  1  0
 23 41  1  0
M  ISO  8  25   5  26  13  27  13  28  13  29   5  30  13  31  13  32  13
M  ISO  8  33  14  34  14  35  14  36  14  37  14  38  14  39  14  40  14
M  ISO  1  41  14
M  END
>  <minimizedAffinity>  (1) 
-5.99899006

>  <minimizedRMSD>  (1) 
5.49214029

$$$$
