
     RDKit          3D

 34 36  0  0  1  0  0  0  0  0999 V2000
   45.1620   34.2320   41.9920 N   0  0  0  0  0  0  0  0  0  0  0  0
   46.1530   33.4150   41.3460 C   0  0  1  0  0  0  0  0  0  0  0  0
   46.0710   33.4290   39.8550 C   0  0  0  0  0  0  0  0  0  0  0  0
   44.7780   33.4440   39.2960 N   0  0  0  0  0  0  0  0  0  0  0  0
   43.7410   34.0620   40.0180 C   0  0  0  0  0  0  0  0  0  0  0  0
   44.3160   34.9650   41.0990 C   0  0  0  0  0  0  0  0  0  0  0  0
   44.6710   35.3950   44.0090 C   0  0  0  0  0  0  0  0  0  0  0  0
   45.1300   34.2270   43.4090 C   0  0  0  0  0  0  0  0  0  0  0  0
   45.5060   33.1850   44.2370 C   0  0  0  0  0  0  0  0  0  0  0  0
   45.4220   33.3180   45.5900 N   0  0  0  0  0  0  0  0  0  0  0  0
   44.9690   34.4750   46.1400 C   0  0  0  0  0  0  0  0  0  0  0  0
   44.5980   35.5020   45.3460 N   0  0  0  0  0  0  0  0  0  0  0  0
   48.2350   32.0260   42.7330 F   0  0  0  0  0  0  0  0  0  0  0  0
   48.4880   33.3160   42.3670 C   0  0  0  0  0  0  0  0  0  0  0  0
   47.4970   34.0020   41.6970 C   0  0  0  0  0  0  0  0  0  0  0  0
   47.8200   35.2900   41.3620 C   0  0  0  0  0  0  0  0  0  0  0  0
   49.0420   35.8790   41.6630 C   0  0  0  0  0  0  0  0  0  0  0  0
   49.9880   35.1300   42.3370 C   0  0  0  0  0  0  0  0  0  0  0  0
   49.6980   33.8450   42.6850 C   0  0  0  0  0  0  0  0  0  0  0  0
   45.9957   32.3803   41.6845 H   0  0  0  0  0  0  0  0  0  0  0  0
   46.5989   34.3263   39.4998 H   0  0  0  0  0  0  0  0  0  0  0  0
   46.5171   32.4774   39.5303 H   0  0  0  0  0  0  0  0  0  0  0  0
   44.8450   33.9256   38.3880 H   0  0  0  0  0  0  0  0  0  0  0  0
   43.1285   34.6637   39.3304 H   0  0  0  0  0  0  0  0  0  0  0  0
   43.1226   33.2854   40.4919 H   0  0  0  0  0  0  0  0  0  0  0  0
   44.9035   35.7642   40.6235 H   0  0  0  0  0  0  0  0  0  0  0  0
   43.4822   35.3879   41.6786 H   0  0  0  0  0  0  0  0  0  0  0  0
   44.3634   36.2431   43.3796 H   0  0  0  0  0  0  0  0  0  0  0  0
   45.8745   32.2447   43.8010 H   0  0  0  0  0  0  0  0  0  0  0  0
   44.9045   34.5750   47.2335 H   0  0  0  0  0  0  0  0  0  0  0  0
   47.0712   35.8911   40.8254 H   0  0  0  0  0  0  0  0  0  0  0  0
   49.2519   36.9186   41.3712 H   0  0  0  0  0  0  0  0  0  0  0  0
   50.9653   35.5669   42.5900 H   0  0  0  0  0  0  0  0  0  0  0  0
   50.4416   33.2377   43.2219 H   0  0  0  0  0  0  0  0  0  0  0  0
  1  8  1  0
  2 15  1  0
  2  1  1  0
  3  2  1  0
  4  3  1  0
  4  5  1  0
  5  6  1  0
  6  1  1  0
  7 12  2  0
  8  7  1  0
  8  9  2  0
  9 10  1  0
 10 11  2  0
 12 11  1  0
 14 19  2  0
 14 13  1  0
 15 14  1  0
 16 17  1  0
 16 15  2  0
 17 18  2  0
 18 19  1  0
  2 20  1  1
  3 21  1  0
  3 22  1  0
  4 23  1  0
  5 24  1  0
  5 25  1  0
  6 26  1  0
  6 27  1  0
  7 28  1  0
  9 29  1  0
 11 30  1  0
 16 31  1  0
 17 32  1  0
 18 33  1  0
 19 34  1  0
M  ISO  8  20  13  21  13  22  13  23   5  24  13  25  13  26  13  27  13
M  ISO  7  28  14  29  14  30  14  31  14  32  14  33  14  34  14
M  END
>  <minimizedAffinity>  (1) 
-5.5207262

>  <minimizedRMSD>  (1) 
2.05911589

$$$$
