
     RDKit          3D

 46 49  0  0  1  0  0  0  0  0999 V2000
   45.0300   34.8930   44.8770 C   0  0  0  0  0  0  0  0  0  0  0  0
   45.9600   34.7200   43.8510 C   0  0  0  0  0  0  0  0  0  0  0  0
   46.8490   33.6560   43.9980 C   0  0  0  0  0  0  0  0  0  0  0  0
   46.8090   32.8380   45.0700 N   0  0  0  0  0  0  0  0  0  0  0  0
   45.8850   33.0460   46.0430 C   0  0  0  0  0  0  0  0  0  0  0  0
   45.0030   34.0650   45.9490 N   0  0  0  0  0  0  0  0  0  0  0  0
   47.3120   31.8120   47.6640 C   0  0  2  0  0  0  0  0  0  0  0  0
   45.8670   32.1390   47.1860 C   0  0  1  0  0  0  0  0  0  0  0  0
   45.3780   32.6490   48.3400 O   0  0  0  0  0  0  0  0  0  0  0  0
   45.7420   31.8190   49.3590 C   0  0  0  0  0  0  0  0  0  0  0  0
   46.9180   31.0020   48.9070 C   0  0  2  0  0  0  0  0  0  0  0  0
   47.9230   32.9310   48.0950 O   0  0  0  0  0  0  0  0  0  0  0  0
   47.9220   30.9140   49.8330 O   0  0  0  0  0  0  0  0  0  0  0  0
   46.0020   35.5770   42.6870 C   0  0  0  0  0  0  0  0  0  0  0  0
   45.0040   35.1550   41.6950 C   0  0  0  0  0  0  0  0  0  0  0  0
   43.7210   35.6360   41.6100 C   0  0  0  0  0  0  0  0  0  0  0  0
   42.8300   35.1990   40.6480 C   0  0  0  0  0  0  0  0  0  0  0  0
   43.2650   34.2370   39.7440 C   0  0  0  0  0  0  0  0  0  0  0  0
   44.5720   33.7420   39.8270 C   0  0  0  0  0  0  0  0  0  0  0  0
   45.4500   34.2040   40.8090 C   0  0  0  0  0  0  0  0  0  0  0  0
   48.0590   35.1120   40.0710 F   0  0  0  0  0  0  0  0  0  0  0  0
   47.9470   33.7700   40.1690 C   0  0  0  0  0  0  0  0  0  0  0  0
   46.6510   33.4330   40.5310 C   0  0  0  0  0  0  0  0  0  0  0  0
   46.3370   32.0730   40.6840 C   0  0  0  0  0  0  0  0  0  0  0  0
   47.3030   31.0830   40.4790 C   0  0  0  0  0  0  0  0  0  0  0  0
   48.5810   31.4510   40.1200 C   0  0  0  0  0  0  0  0  0  0  0  0
   48.8860   32.7850   39.9720 C   0  0  0  0  0  0  0  0  0  0  0  0
   44.3048   35.7177   44.8141 H   0  0  0  0  0  0  0  0  0  0  0  0
   47.6041   33.4786   43.2180 H   0  0  0  0  0  0  0  0  0  0  0  0
   47.9739   31.3467   46.9188 H   0  0  0  0  0  0  0  0  0  0  0  0
   45.2592   31.3117   46.7908 H   0  0  0  0  0  0  0  0  0  0  0  0
   46.0200   32.4139   50.2415 H   0  0  0  0  0  0  0  0  0  0  0  0
   44.9037   31.1591   49.6271 H   0  0  0  0  0  0  0  0  0  0  0  0
   46.6994   29.9386   48.7298 H   0  0  0  0  0  0  0  0  0  0  0  0
   47.9296   32.9430   49.0849 H   0  0  0  0  0  0  0  0  0  0  0  0
   47.5350   30.9479   50.7436 H   0  0  0  0  0  0  0  0  0  0  0  0
   45.7914   36.6123   42.9931 H   0  0  0  0  0  0  0  0  0  0  0  0
   47.0019   35.5089   42.2336 H   0  0  0  0  0  0  0  0  0  0  0  0
   43.3904   36.3961   42.3331 H   0  0  0  0  0  0  0  0  0  0  0  0
   41.8071   35.6006   40.5993 H   0  0  0  0  0  0  0  0  0  0  0  0
   42.5835   33.8652   38.9647 H   0  0  0  0  0  0  0  0  0  0  0  0
   44.9111   32.9799   39.1098 H   0  0  0  0  0  0  0  0  0  0  0  0
   45.3154   31.7819   40.9695 H   0  0  0  0  0  0  0  0  0  0  0  0
   47.0450   30.0209   40.6032 H   0  0  0  0  0  0  0  0  0  0  0  0
   49.3520   30.6845   39.9529 H   0  0  0  0  0  0  0  0  0  0  0  0
   49.9095   33.0711   39.6882 H   0  0  0  0  0  0  0  0  0  0  0  0
  1  6  2  0
  2  3  2  0
  2  1  1  0
  3  4  1  0
  4  5  2  0
  5  8  1  0
  6  5  1  0
  7 12  1  0
  7 11  1  0
  8  7  1  0
  8  9  1  0
  9 10  1  0
 11 10  1  0
 11 13  1  0
 14  2  1  0
 15 14  1  0
 16 15  2  0
 17 16  1  0
 18 19  1  0
 18 17  2  0
 19 20  2  0
 20 15  1  0
 21 22  1  0
 22 23  2  0
 23 24  1  0
 23 20  1  0
 25 24  2  0
 26 25  1  0
 27 26  2  0
 27 22  1  0
  1 28  1  0
  3 29  1  0
  7 30  1  6
  8 31  1  6
 10 32  1  0
 10 33  1  0
 11 34  1  6
 12 35  1  0
 13 36  1  0
 14 37  1  0
 14 38  1  0
 16 39  1  0
 17 40  1  0
 18 41  1  0
 19 42  1  0
 24 43  1  0
 25 44  1  0
 26 45  1  0
 27 46  1  0
M  ISO  8  28  14  29  14  30  13  31  13  32  13  33  13  34  13  35   3
M  ISO  8  36   3  37   8  38   8  39  14  40  14  41  14  42  14  43  14
M  ISO  3  44  14  45  14  46  14
M  END
>  <minimizedAffinity>  (1) 
-7.28263569

>  <minimizedRMSD>  (1) 
0.576953471

$$$$
