
     RDKit          3D

 37 39  0  0  0  0  0  0  0  0999 V2000
   45.1960   34.3990   41.0830 C   0  0  0  0  0  0  0  0  0  0  0  0
   45.5200   35.0410   42.2720 C   0  0  0  0  0  0  0  0  0  0  0  0
   46.8520   35.3050   42.5440 C   0  0  0  0  0  0  0  0  0  0  0  0
   47.8240   34.9280   41.6320 C   0  0  0  0  0  0  0  0  0  0  0  0
   47.5230   34.2940   40.4540 C   0  0  0  0  0  0  0  0  0  0  0  0
   46.1670   34.0370   40.2000 C   0  0  0  0  0  0  0  0  0  0  0  0
   41.5180   34.7590   40.3410 C   0  0  0  0  0  0  0  0  0  0  0  0
   42.8610   35.1180   40.5320 C   0  0  0  0  0  0  0  0  0  0  0  0
   43.7880   34.1540   40.8580 C   0  0  0  0  0  0  0  0  0  0  0  0
   43.3190   32.8830   40.9750 N   0  0  0  0  0  0  0  0  0  0  0  0
   42.0270   32.5300   40.7920 C   0  0  0  0  0  0  0  0  0  0  0  0
   41.1210   33.4780   40.4730 N   0  0  0  0  0  0  0  0  0  0  0  0
   40.5100   35.7860   39.9920 C   0  0  0  0  0  0  0  0  0  0  0  0
   39.2990   35.1220   39.7600 F   0  0  0  0  0  0  0  0  0  0  0  0
   40.8870   36.3100   38.7710 F   0  0  0  0  0  0  0  0  0  0  0  0
   40.3470   36.7370   40.9600 F   0  0  0  0  0  0  0  0  0  0  0  0
   45.8890   32.1310   38.4330 C   0  0  0  0  0  0  0  0  0  0  0  0
   46.5610   31.2090   38.9370 O   0  0  0  0  0  0  0  0  0  0  0  0
   45.7360   33.4110   39.0180 N   0  0  0  0  0  0  0  0  0  0  0  0
   46.8450   32.6820   35.7200 F   0  0  0  0  0  0  0  0  0  0  0  0
   45.6830   32.0220   35.8820 C   0  0  0  0  0  0  0  0  0  0  0  0
   45.2600   31.7900   37.1680 C   0  0  0  0  0  0  0  0  0  0  0  0
   44.0410   31.1070   37.1650 C   0  0  0  0  0  0  0  0  0  0  0  0
   43.3490   30.7150   36.0410 C   0  0  0  0  0  0  0  0  0  0  0  0
   43.8510   30.9900   34.8100 C   0  0  0  0  0  0  0  0  0  0  0  0
   45.0400   31.6560   34.7320 C   0  0  0  0  0  0  0  0  0  0  0  0
   44.7338   35.3338   42.9834 H   0  0  0  0  0  0  0  0  0  0  0  0
   47.1363   35.8109   43.4785 H   0  0  0  0  0  0  0  0  0  0  0  0
   48.8776   35.1455   41.8615 H   0  0  0  0  0  0  0  0  0  0  0  0
   48.3078   34.0005   39.7413 H   0  0  0  0  0  0  0  0  0  0  0  0
   43.1723   36.1672   40.4215 H   0  0  0  0  0  0  0  0  0  0  0  0
   41.7171   31.4803   40.9020 H   0  0  0  0  0  0  0  0  0  0  0  0
   45.1679   34.0393   38.4320 H   0  0  0  0  0  0  0  0  0  0  0  0
   43.5975   30.8622   38.1414 H   0  0  0  0  0  0  0  0  0  0  0  0
   42.3926   30.1808   36.1402 H   0  0  0  0  0  0  0  0  0  0  0  0
   43.3141   30.6844   33.8999 H   0  0  0  0  0  0  0  0  0  0  0  0
   45.4775   31.8964   33.7518 H   0  0  0  0  0  0  0  0  0  0  0  0
  1  2  2  0
  2  3  1  0
  4  3  2  0
  5  4  1  0
  6  5  2  0
  6  1  1  0
  7 12  2  0
  7  8  1  0
  8  9  2  0
  9 10  1  0
  9  1  1  0
 11 10  2  0
 12 11  1  0
 13  7  1  0
 13 16  1  0
 14 13  1  0
 15 13  1  0
 17 18  2  0
 17 19  1  0
 19  6  1  0
 20 21  1  0
 21 22  2  0
 22 17  1  0
 23 22  1  0
 24 23  2  0
 25 24  1  0
 26 25  2  0
 26 21  1  0
  2 27  1  0
  3 28  1  0
  4 29  1  0
  5 30  1  0
  8 31  1  0
 11 32  1  0
 19 33  1  0
 23 34  1  0
 24 35  1  0
 25 36  1  0
 26 37  1  0
M  ISO  8  27  14  28  14  29  14  30  14  31  14  32  14  34  14  35  14
M  ISO  2  36  14  37  14
M  END
>  <minimizedAffinity>  (1) 
-6.22318554

>  <minimizedRMSD>  (1) 
0.821598768

$$$$
