
     RDKit          3D

 36 39  0  0  0  0  0  0  0  0999 V2000
   47.3700   34.7970   42.6740 C   0  0  0  0  0  0  0  0  0  0  0  0
   46.3210   35.5500   42.1910 C   0  0  0  0  0  0  0  0  0  0  0  0
   45.0920   35.3880   42.8140 C   0  0  0  0  0  0  0  0  0  0  0  0
   44.9810   34.5130   43.8510 N   0  0  0  0  0  0  0  0  0  0  0  0
   46.0610   33.7940   44.2840 C   0  0  0  0  0  0  0  0  0  0  0  0
   47.2550   33.9340   43.6980 N   0  0  0  0  0  0  0  0  0  0  0  0
   46.0840   31.5000   45.1010 C   0  0  0  0  0  0  0  0  0  0  0  0
   45.9270   32.8540   45.3970 C   0  0  0  0  0  0  0  0  0  0  0  0
   45.6520   33.2590   46.6920 C   0  0  0  0  0  0  0  0  0  0  0  0
   45.5400   32.2880   47.6760 C   0  0  0  0  0  0  0  0  0  0  0  0
   45.2900   32.3510   48.9820 N   0  0  0  0  0  0  0  0  0  0  0  0
   45.2750   31.1420   49.5470 C   0  0  0  0  0  0  0  0  0  0  0  0
   45.5280   30.2240   48.5660 C   0  0  0  0  0  0  0  0  0  0  0  0
   45.6940   30.9360   47.3920 C   0  0  0  0  0  0  0  0  0  0  0  0
   45.9690   30.5480   46.0910 C   0  0  0  0  0  0  0  0  0  0  0  0
   48.6390   35.0040   41.9840 C   0  0  0  0  0  0  0  0  0  0  0  0
   49.1220   36.1230   41.6430 O   0  0  0  0  0  0  0  0  0  0  0  0
   47.8330   33.5200   39.8290 F   0  0  0  0  0  0  0  0  0  0  0  0
   48.9360   33.1450   40.5560 C   0  0  0  0  0  0  0  0  0  0  0  0
   49.4290   33.8170   41.6560 C   0  0  0  0  0  0  0  0  0  0  0  0
   50.5480   33.3470   42.3120 C   0  0  0  0  0  0  0  0  0  0  0  0
   51.1720   32.2010   41.8590 C   0  0  0  0  0  0  0  0  0  0  0  0
   50.6610   31.5340   40.7450 C   0  0  0  0  0  0  0  0  0  0  0  0
   49.5310   31.9820   40.0610 C   0  0  0  0  0  0  0  0  0  0  0  0
   46.4524   36.2472   41.3504 H   0  0  0  0  0  0  0  0  0  0  0  0
   44.2165   35.9605   42.4737 H   0  0  0  0  0  0  0  0  0  0  0  0
   46.3015   31.1893   44.0685 H   0  0  0  0  0  0  0  0  0  0  0  0
   45.5255   34.3244   46.9345 H   0  0  0  0  0  0  0  0  0  0  0  0
   45.1274   33.2289   49.4956 H   0  0  0  0  0  0  0  0  0  0  0  0
   45.0922   30.9237   50.6095 H   0  0  0  0  0  0  0  0  0  0  0  0
   45.5878   29.1323   48.6868 H   0  0  0  0  0  0  0  0  0  0  0  0
   46.0953   29.4825   45.8485 H   0  0  0  0  0  0  0  0  0  0  0  0
   50.9406   33.8812   43.1898 H   0  0  0  0  0  0  0  0  0  0  0  0
   52.0655   31.8169   42.3729 H   0  0  0  0  0  0  0  0  0  0  0  0
   51.1672   30.6227   40.3938 H   0  0  0  0  0  0  0  0  0  0  0  0
   49.1321   31.4512   39.1840 H   0  0  0  0  0  0  0  0  0  0  0  0
  1  6  1  0
  2  1  2  0
  2  3  1  0
  3  4  2  0
  4  5  1  0
  5  8  1  0
  6  5  2  0
  7  8  2  0
  7 15  1  0
  8  9  1  0
  9 10  2  0
 10 11  1  0
 11 12  1  0
 13 12  2  0
 14 10  1  0
 14 13  1  0
 15 14  2  0
 16  1  1  0
 17 16  2  0
 18 19  1  0
 19 20  2  0
 20 16  1  0
 20 21  1  0
 22 21  2  0
 23 22  1  0
 24 19  1  0
 24 23  2  0
  2 25  1  0
  3 26  1  0
  7 27  1  0
  9 28  1  0
 11 29  1  0
 12 30  1  0
 13 31  1  0
 15 32  1  0
 21 33  1  0
 22 34  1  0
 23 35  1  0
 24 36  1  0
M  ISO  8  25  14  26  14  27  14  28  14  29   9  30  14  31  14  32  14
M  ISO  4  33  14  34  14  35  14  36  14
M  END
>  <minimizedAffinity>  (1) 
-6.59349442

>  <minimizedRMSD>  (1) 
1.66851115

$$$$
