
     RDKit          3D

 22 23  0  0  0  0  0  0  0  0999 V2000
   47.1950   34.9610   41.9660 C   0  0  0  0  0  0  0  0  0  0  0  0
   48.3010   35.5890   41.9240 O   0  0  0  0  0  0  0  0  0  0  0  0
   44.6050   35.9450   44.4250 C   0  0  0  0  0  0  0  0  0  0  0  0
   45.4130   35.9620   43.2860 C   0  0  0  0  0  0  0  0  0  0  0  0
   46.3620   34.9460   43.1390 C   0  0  0  0  0  0  0  0  0  0  0  0
   46.4420   33.9950   44.1240 N   0  0  0  0  0  0  0  0  0  0  0  0
   45.6400   34.0230   45.2010 C   0  0  0  0  0  0  0  0  0  0  0  0
   44.7160   35.0010   45.3570 N   0  0  0  0  0  0  0  0  0  0  0  0
   44.8600   33.5170   41.2100 F   0  0  0  0  0  0  0  0  0  0  0  0
   45.8690   33.6230   40.2960 C   0  0  0  0  0  0  0  0  0  0  0  0
   46.9940   34.3250   40.6750 C   0  0  0  0  0  0  0  0  0  0  0  0
   48.0630   34.4780   39.8030 C   0  0  0  0  0  0  0  0  0  0  0  0
   48.0000   33.9200   38.5380 C   0  0  0  0  0  0  0  0  0  0  0  0
   46.8480   33.2230   38.2040 C   0  0  0  0  0  0  0  0  0  0  0  0
   45.7860   33.0560   39.0330 C   0  0  0  0  0  0  0  0  0  0  0  0
   43.8529   36.7369   44.5562 H   0  0  0  0  0  0  0  0  0  0  0  0
   45.3059   36.7512   42.5273 H   0  0  0  0  0  0  0  0  0  0  0  0
   45.7350   33.2400   45.9678 H   0  0  0  0  0  0  0  0  0  0  0  0
   48.9555   35.0398   40.1157 H   0  0  0  0  0  0  0  0  0  0  0  0
   48.8311   34.0251   37.8251 H   0  0  0  0  0  0  0  0  0  0  0  0
   46.7913   32.7758   37.2006 H   0  0  0  0  0  0  0  0  0  0  0  0
   44.8955   32.4936   38.7158 H   0  0  0  0  0  0  0  0  0  0  0  0
  1  5  1  0
  2  1  2  0
  3  8  2  0
  4  3  1  0
  5  4  2  0
  5  6  1  0
  6  7  2  0
  7  8  1  0
 10 11  2  0
 10  9  1  0
 11  1  1  0
 12 11  1  0
 13 12  2  0
 14 13  1  0
 14 15  2  0
 15 10  1  0
  3 16  1  0
  4 17  1  0
  7 18  1  0
 12 19  1  0
 13 20  1  0
 14 21  1  0
 15 22  1  0
M  ISO  7  16  14  17  14  18  14  19  14  20  14  21  14  22  14
M  END
>  <minimizedAffinity>  (1) 
-4.77623749

>  <minimizedRMSD>  (1) 
0.565530837

$$$$
