
     RDKit          3D

 22 23  0  0  0  0  0  0  0  0999 V2000
   46.4720   32.6350   45.6570 C   0  0  0  0  0  0  0  0  0  0  0  0
   47.4720   32.0570   45.1430 O   0  0  0  0  0  0  0  0  0  0  0  0
   45.0040   34.5990   45.6160 C   0  0  0  0  0  0  0  0  0  0  0  0
   45.9660   33.7960   44.9740 C   0  0  0  0  0  0  0  0  0  0  0  0
   46.3940   34.1500   43.7040 C   0  0  0  0  0  0  0  0  0  0  0  0
   45.8530   35.2630   43.1500 N   0  0  0  0  0  0  0  0  0  0  0  0
   44.9310   36.0310   43.7680 C   0  0  0  0  0  0  0  0  0  0  0  0
   44.5120   35.6950   44.9950 N   0  0  0  0  0  0  0  0  0  0  0  0
   45.2210   30.0930   45.6880 F   0  0  0  0  0  0  0  0  0  0  0  0
   45.4370   30.7260   46.8780 C   0  0  0  0  0  0  0  0  0  0  0  0
   46.0440   31.9620   46.8790 C   0  0  0  0  0  0  0  0  0  0  0  0
   46.2250   32.5330   48.1220 C   0  0  0  0  0  0  0  0  0  0  0  0
   45.8110   31.8780   49.2660 C   0  0  0  0  0  0  0  0  0  0  0  0
   45.2030   30.6360   49.2290 C   0  0  0  0  0  0  0  0  0  0  0  0
   45.0130   30.0470   48.0010 C   0  0  0  0  0  0  0  0  0  0  0  0
   44.6521   34.3345   46.6241 H   0  0  0  0  0  0  0  0  0  0  0  0
   47.1437   33.5510   43.1663 H   0  0  0  0  0  0  0  0  0  0  0  0
   44.5276   36.9243   43.2687 H   0  0  0  0  0  0  0  0  0  0  0  0
   46.7039   33.5200   48.2030 H   0  0  0  0  0  0  0  0  0  0  0  0
   45.9706   32.3615   50.2411 H   0  0  0  0  0  0  0  0  0  0  0  0
   44.8813   30.1348   50.1538 H   0  0  0  0  0  0  0  0  0  0  0  0
   44.5352   29.0598   47.9166 H   0  0  0  0  0  0  0  0  0  0  0  0
  1 11  1  0
  2  1  2  0
  4  3  2  0
  4  1  1  0
  5  4  1  0
  6  5  2  0
  6  7  1  0
  7  8  2  0
  8  3  1  0
  9 10  1  0
 10 11  2  0
 10 15  1  0
 11 12  1  0
 12 13  2  0
 14 13  1  0
 15 14  2  0
  3 16  1  0
  5 17  1  0
  7 18  1  0
 12 19  1  0
 13 20  1  0
 14 21  1  0
 15 22  1  0
M  ISO  7  16  14  17  14  18  14  19  14  20  14  21  14  22  14
M  END
>  <minimizedAffinity>  (1) 
-4.85746622

>  <minimizedRMSD>  (1) 
6.6141901

$$$$
