
     RDKit          3D

 39 41  0  0  0  0  0  0  0  0999 V2000
   47.6220   34.8160   41.0860 C   0  0  0  0  0  0  0  0  0  0  0  0
   48.7990   33.9630   41.3540 C   0  0  0  0  0  0  0  0  0  0  0  0
   48.8290   32.7270   40.7230 C   0  0  0  0  0  0  0  0  0  0  0  0
   49.9140   31.8780   40.9360 C   0  0  0  0  0  0  0  0  0  0  0  0
   50.9060   32.3070   41.7640 N   0  0  0  0  0  0  0  0  0  0  0  0
   50.8390   33.5170   42.3580 C   0  0  0  0  0  0  0  0  0  0  0  0
   49.8050   34.3150   42.1490 N   0  0  0  0  0  0  0  0  0  0  0  0
   47.4830   32.2330   39.6470 S   0  0  0  0  0  0  0  0  0  0  0  0
   47.9450   34.4420   37.8060 F   0  0  0  0  0  0  0  0  0  0  0  0
   48.1640   33.2070   37.2800 C   0  0  0  0  0  0  0  0  0  0  0  0
   48.0080   32.0130   37.9690 C   0  0  0  0  0  0  0  0  0  0  0  0
   48.2690   30.8290   37.3040 C   0  0  0  0  0  0  0  0  0  0  0  0
   48.6700   30.8610   35.9940 C   0  0  0  0  0  0  0  0  0  0  0  0
   48.8250   32.0470   35.3070 C   0  0  0  0  0  0  0  0  0  0  0  0
   48.5700   33.2370   35.9570 C   0  0  0  0  0  0  0  0  0  0  0  0
   46.7650   35.0470   42.2860 C   0  0  0  0  0  0  0  0  0  0  0  0
   45.3000   34.9870   42.0000 C   0  0  0  0  0  0  0  0  0  0  0  0
   44.3840   35.6500   42.8720 C   0  0  0  0  0  0  0  0  0  0  0  0
   42.7510   35.2870   42.1090 S   0  0  0  0  0  0  0  0  0  0  0  0
   43.5970   34.2870   40.7250 C   0  0  0  0  0  0  0  0  0  0  0  0
   44.7010   34.3820   41.0140 N   0  0  0  0  0  0  0  0  0  0  0  0
   42.8910   33.6650   39.6980 O   0  0  0  0  0  0  0  0  0  0  0  0
   40.9690   33.8260   37.8770 O   0  0  0  0  0  0  0  0  0  0  0  0
   41.9670   34.6610   38.6710 P   0  0  0  0  0  0  0  0  0  0  0  0
   41.1160   35.7490   39.6480 O   0  0  0  0  0  0  0  0  0  0  0  0
   42.9780   35.5330   37.6380 O   0  0  0  0  0  0  0  0  0  0  0  0
   47.9755   35.7907   40.7184 H   0  0  0  0  0  0  0  0  0  0  0  0
   47.0035   34.2883   40.3450 H   0  0  0  0  0  0  0  0  0  0  0  0
   49.9670   30.8924   40.4504 H   0  0  0  0  0  0  0  0  0  0  0  0
   51.6526   33.8429   43.0227 H   0  0  0  0  0  0  0  0  0  0  0  0
   48.1553   29.8663   37.8239 H   0  0  0  0  0  0  0  0  0  0  0  0
   48.8743   29.9129   35.4750 H   0  0  0  0  0  0  0  0  0  0  0  0
   49.1475   32.0441   34.2553 H   0  0  0  0  0  0  0  0  0  0  0  0
   48.6877   34.1961   35.4313 H   0  0  0  0  0  0  0  0  0  0  0  0
   47.0039   34.2787   43.0361 H   0  0  0  0  0  0  0  0  0  0  0  0
   46.9807   36.0648   42.6432 H   0  0  0  0  0  0  0  0  0  0  0  0
   44.6019   36.2345   43.7780 H   0  0  0  0  0  0  0  0  0  0  0  0
   41.2821   35.5367   40.6006 H   0  0  0  0  0  0  0  0  0  0  0  0
   43.6082   36.0765   38.1743 H   0  0  0  0  0  0  0  0  0  0  0  0
  1  2  1  0
  1 16  1  0
  2  7  2  0
  3  4  2  0
  3  2  1  0
  4  5  1  0
  5  6  2  0
  7  6  1  0
  8  3  1  0
 10  9  1  0
 10 11  2  0
 11  8  1  0
 12 11  1  0
 13 12  2  0
 14 15  2  0
 14 13  1  0
 15 10  1  0
 17 16  1  0
 17 18  2  0
 19 18  1  0
 20 21  2  0
 20 19  1  0
 21 17  1  0
 22 20  1  0
 23 24  2  0
 24 25  1  0
 24 22  1  0
 26 24  1  0
  1 27  1  0
  1 28  1  0
  4 29  1  0
  6 30  1  0
 12 31  1  0
 13 32  1  0
 14 33  1  0
 15 34  1  0
 16 35  1  0
 16 36  1  0
 18 37  1  0
 25 38  1  0
 26 39  1  0
M  ISO  8  27   8  28   8  29  14  30  14  31  14  32  14  33  14  34  14
M  ISO  5  35   8  36   8  37  14  38   3  39   3
M  END
>  <minimizedAffinity>  (1) 
-5.07997704

>  <minimizedRMSD>  (1) 
0.713377297

$$$$
