
     RDKit          3D

 43 47  0  0  0  0  0  0  0  0999 V2000
   44.4730   35.5890   44.7510 C   0  0  0  0  0  0  0  0  0  0  0  0
   44.6080   35.1910   43.4350 C   0  0  0  0  0  0  0  0  0  0  0  0
   45.2730   33.9630   43.1830 C   0  0  0  0  0  0  0  0  0  0  0  0
   45.7380   33.2530   44.2310 N   0  0  0  0  0  0  0  0  0  0  0  0
   45.5870   33.6790   45.5070 C   0  0  0  0  0  0  0  0  0  0  0  0
   44.9480   34.8560   45.7480 N   0  0  0  0  0  0  0  0  0  0  0  0
   46.0710   32.9510   46.6790 C   0  0  0  0  0  0  0  0  0  0  0  0
   45.2600   32.7800   47.8110 C   0  0  0  0  0  0  0  0  0  0  0  0
   46.0100   32.0550   48.7280 C   0  0  0  0  0  0  0  0  0  0  0  0
   47.2060   31.8160   48.1560 N   0  0  0  0  0  0  0  0  0  0  0  0
   47.2200   32.3570   46.9400 N   0  0  0  0  0  0  0  0  0  0  0  0
   47.5630   29.1220   47.6150 F   0  0  0  0  0  0  0  0  0  0  0  0
   48.4920   29.7820   48.3470 C   0  0  0  0  0  0  0  0  0  0  0  0
   48.3540   31.1220   48.6390 C   0  0  0  0  0  0  0  0  0  0  0  0
   49.3370   31.7630   49.3980 C   0  0  0  0  0  0  0  0  0  0  0  0
   50.4430   31.0700   49.8580 C   0  0  0  0  0  0  0  0  0  0  0  0
   50.5750   29.7100   49.5560 C   0  0  0  0  0  0  0  0  0  0  0  0
   49.5990   29.0560   48.7970 C   0  0  0  0  0  0  0  0  0  0  0  0
   44.1480   35.8830   42.3300 O   0  0  0  0  0  0  0  0  0  0  0  0
   43.4180   35.3240   41.2950 C   0  0  0  0  0  0  0  0  0  0  0  0
   43.9080   34.6160   40.2310 C   0  0  0  0  0  0  0  0  0  0  0  0
   43.0530   34.1170   39.2720 C   0  0  0  0  0  0  0  0  0  0  0  0
   41.6760   34.3080   39.3450 C   0  0  0  0  0  0  0  0  0  0  0  0
   40.9060   33.7950   38.3780 N   0  0  0  0  0  0  0  0  0  0  0  0
   39.5620   33.9670   38.4240 C   0  0  0  0  0  0  0  0  0  0  0  0
   39.0260   34.6700   39.4720 C   0  0  0  0  0  0  0  0  0  0  0  0
   39.8470   35.2080   40.4880 C   0  0  0  0  0  0  0  0  0  0  0  0
   41.1990   35.0180   40.4140 C   0  0  0  0  0  0  0  0  0  0  0  0
   42.0430   35.5380   41.4050 C   0  0  0  0  0  0  0  0  0  0  0  0
   43.9598   36.5354   44.9765 H   0  0  0  0  0  0  0  0  0  0  0  0
   45.4064   33.5978   42.1540 H   0  0  0  0  0  0  0  0  0  0  0  0
   44.2321   33.1478   47.9458 H   0  0  0  0  0  0  0  0  0  0  0  0
   45.6885   31.7365   49.7306 H   0  0  0  0  0  0  0  0  0  0  0  0
   49.2302   32.8323   49.6328 H   0  0  0  0  0  0  0  0  0  0  0  0
   51.2110   31.5833   50.4553 H   0  0  0  0  0  0  0  0  0  0  0  0
   51.4513   29.1521   49.9176 H   0  0  0  0  0  0  0  0  0  0  0  0
   49.7007   27.9871   48.5578 H   0  0  0  0  0  0  0  0  0  0  0  0
   44.9907   34.4442   40.1407 H   0  0  0  0  0  0  0  0  0  0  0  0
   43.4703   33.5521   38.4254 H   0  0  0  0  0  0  0  0  0  0  0  0
   38.9153   33.5514   37.6372 H   0  0  0  0  0  0  0  0  0  0  0  0
   37.9371   34.8178   39.5226 H   0  0  0  0  0  0  0  0  0  0  0  0
   39.4061   35.7702   41.3244 H   0  0  0  0  0  0  0  0  0  0  0  0
   41.6298   36.1038   42.2530 H   0  0  0  0  0  0  0  0  0  0  0  0
  1  6  2  0
  2  1  1  0
  3  2  2  0
  3  4  1  0
  4  5  2  0
  5  6  1  0
  5  7  1  0
  7 11  2  0
  7  8  1  0
  8  9  2  0
 10 14  1  0
 10  9  1  0
 11 10  1  0
 12 13  1  0
 13 14  2  0
 13 18  1  0
 14 15  1  0
 15 16  2  0
 17 16  1  0
 18 17  2  0
 19  2  1  0
 20 29  1  0
 20 19  1  0
 21 20  2  0
 22 23  2  0
 22 21  1  0
 23 28  1  0
 24 25  2  0
 24 23  1  0
 25 26  1  0
 26 27  2  0
 28 27  1  0
 28 29  2  0
  1 30  1  0
  3 31  1  0
  8 32  1  0
  9 33  1  0
 15 34  1  0
 16 35  1  0
 17 36  1  0
 18 37  1  0
 21 38  1  0
 22 39  1  0
 25 40  1  0
 26 41  1  0
 27 42  1  0
 29 43  1  0
M  ISO  8  30  14  31  14  32  14  33  14  34  14  35  14  36  14  37  14
M  ISO  6  38  14  39  14  40  14  41  14  42  14  43  14
M  END
>  <minimizedAffinity>  (1) 
-7.70273829

>  <minimizedRMSD>  (1) 
1.67384756

$$$$
