
     RDKit          3D

 29 30  0  0  0  0  0  0  0  0999 V2000
   45.4250   30.8480   49.4640 O   0  0  0  0  0  0  0  0  0  0  0  0
   45.7500   30.9930   47.9760 P   0  0  1  0  0  0  0  0  0  0  0  0
   44.5120   30.1990   47.1470 O   0  0  0  0  0  0  0  0  0  0  0  0
   45.8210   32.6440   47.6550 O   0  0  0  0  0  0  0  0  0  0  0  0
   45.3000   34.6830   44.7260 C   0  0  0  0  0  0  0  0  0  0  0  0
   46.2470   34.1600   43.8460 C   0  0  0  0  0  0  0  0  0  0  0  0
   47.0410   33.1050   44.3120 C   0  0  0  0  0  0  0  0  0  0  0  0
   46.8470   32.6620   45.5640 N   0  0  0  0  0  0  0  0  0  0  0  0
   45.9040   33.2070   46.3890 C   0  0  0  0  0  0  0  0  0  0  0  0
   45.1260   34.2270   45.9620 N   0  0  0  0  0  0  0  0  0  0  0  0
   44.4600   35.8190   44.2060 C   0  0  0  0  0  0  0  0  0  0  0  0
   47.2020   30.2310   47.6030 O   0  0  0  0  0  0  0  0  0  0  0  0
   48.7440   28.0530   48.1900 F   0  0  0  0  0  0  0  0  0  0  0  0
   49.0240   29.2950   48.6460 C   0  0  0  0  0  0  0  0  0  0  0  0
   48.3080   30.4650   48.4080 C   0  0  0  0  0  0  0  0  0  0  0  0
   48.7480   31.6500   48.9620 C   0  0  0  0  0  0  0  0  0  0  0  0
   49.8880   31.6570   49.7400 C   0  0  0  0  0  0  0  0  0  0  0  0
   50.6200   30.4930   49.9910 C   0  0  0  0  0  0  0  0  0  0  0  0
   50.1640   29.3030   49.4250 C   0  0  0  0  0  0  0  0  0  0  0  0
   43.8842   29.7964   47.7981 H   0  0  0  0  0  0  0  0  0  0  0  0
   46.3653   34.5597   42.8280 H   0  0  0  0  0  0  0  0  0  0  0  0
   47.8065   32.6496   43.6665 H   0  0  0  0  0  0  0  0  0  0  0  0
   44.0424   36.3837   45.0526 H   0  0  0  0  0  0  0  0  0  0  0  0
   45.0841   36.4857   43.5927 H   0  0  0  0  0  0  0  0  0  0  0  0
   43.6397   35.4177   43.5927 H   0  0  0  0  0  0  0  0  0  0  0  0
   48.1935   32.5833   48.7846 H   0  0  0  0  0  0  0  0  0  0  0  0
   50.2308   32.6071   50.1756 H   0  0  0  0  0  0  0  0  0  0  0  0
   51.5260   30.5150   50.6145 H   0  0  0  0  0  0  0  0  0  0  0  0
   50.7146   28.3669   49.5998 H   0  0  0  0  0  0  0  0  0  0  0  0
  2  1  2  0
  3  2  1  0
  4  2  1  0
  5 10  2  0
  6  7  2  0
  6  5  1  0
  7  8  1  0
  8  9  2  0
  9  4  1  0
 10  9  1  0
 11  5  1  0
 12  2  1  0
 12 15  1  0
 13 14  1  0
 14 19  2  0
 15 14  1  0
 15 16  2  0
 16 17  1  0
 17 18  2  0
 19 18  1  0
  3 20  1  0
  6 21  1  0
  7 22  1  0
 11 23  1  0
 11 24  1  0
 11 25  1  0
 16 26  1  0
 17 27  1  0
 18 28  1  0
 19 29  1  0
M  ISO  8  20   3  21  14  22  14  23   8  24   8  25   8  26  14  27  14
M  ISO  2  28  14  29  14
M  END
>  <minimizedAffinity>  (1) 
-5.03473234

>  <minimizedRMSD>  (1) 
1.28531814

$$$$
