
 OpenBabel03242509593D

 38 42  0  0  0  0  0  0  0  0999 V2000
   45.1480   34.4370   45.6630 C   0  0  0  0  0  0  0  0  0  0  0  0
   44.5660   35.5410   45.1580 N   0  0  0  0  0  0  0  0  0  0  0  0
   44.9860   35.7420   43.9560 O   0  0  0  0  0  0  0  0  0  0  0  0
   45.8470   34.8070   43.6140 C   0  0  0  0  0  0  0  0  0  0  0  0
   45.9700   33.9640   44.6750 N   0  0  0  0  0  0  0  0  0  0  0  0
   46.5520   34.6770   42.3350 C   0  0  0  0  0  0  0  0  0  0  0  0
   47.7870   35.2020   42.0820 C   0  0  0  0  0  3  0  0  0  0  0  0
   48.3750   35.0180   40.8210 C   0  0  0  0  0  3  0  0  0  0  0  0
   47.7210   34.3080   39.8220 C   0  0  0  0  0  3  0  0  0  0  0  0
   46.4840   33.7850   40.0840 C   0  0  0  0  0  3  0  0  0  0  0  0
   45.9280   33.9770   41.3210 C   0  0  0  0  0  0  0  0  0  0  0  0
   44.5870   33.3740   41.5190 C   0  0  0  0  0  0  0  0  0  0  0  0
   44.2530   32.1760   42.1190 C   0  0  0  0  0  3  0  0  0  0  0  0
   42.9260   31.9990   42.0980 N   0  0  0  0  0  0  0  0  0  0  0  0
   42.3740   33.0690   41.4890 C   0  0  0  0  0  0  0  0  0  0  0  0
   41.0450   33.4050   41.2010 C   0  0  0  0  0  3  0  0  0  0  0  0
   40.7740   34.5950   40.5540 C   0  0  0  0  0  3  0  0  0  0  0  0
   41.7990   35.4370   40.2010 C   0  0  0  0  0  3  0  0  0  0  0  0
   43.1410   35.1490   40.4650 C   0  0  0  0  0  3  0  0  0  0  0  0
   43.3730   33.9420   41.1180 C   0  0  0  0  0  0  0  0  0  0  0  0
   42.4170   31.1890   42.4790 H   0  0  0  0  0  0  0  0  0  0  0  0
   45.1610   33.6840   46.8140 O   0  0  0  0  0  0  0  0  0  0  0  0
   47.8190   31.5190   48.0230 C   0  0  0  0  0  0  0  0  0  0  0  0
   47.5800   30.3610   47.2790 C   0  0  0  0  0  0  0  0  0  0  0  0
   46.5070   30.3490   46.3730 C   0  0  0  0  0  0  0  0  0  0  0  0
   45.7510   31.4940   46.2780 N   0  0  0  0  0  0  0  0  0  0  0  0
   46.0010   32.6010   47.0080 C   0  0  0  0  0  0  0  0  0  0  0  0
   47.0340   32.6210   47.8840 N   0  0  0  0  0  0  0  0  0  0  0  0
   46.2220   29.2290   45.6110 N   0  0  0  0  0  0  0  0  0  0  0  0
   45.4300   29.2420   44.9530 H   0  0  0  0  0  0  0  0  0  0  0  0
   46.8020   28.3830   45.7020 H   0  0  0  0  0  0  0  0  0  0  0  0
   48.4860   29.2510   47.5090 C   0  0  0  0  0  0  0  0  0  0  0  0
   47.7570   27.9020   47.5220 C   0  0  0  0  0  1  0  0  0  0  0  0
   49.3300   29.2950   48.7370 C   0  0  0  0  0  1  0  0  0  0  0  0
   49.4450   29.2240   46.3220 C   0  0  0  0  0  1  0  0  0  0  0  0
   48.8630   31.5820   48.9400 N   0  0  0  0  0  0  0  0  0  0  0  0
   49.0240   32.4450   49.4790 H   0  0  0  0  0  0  0  0  0  0  0  0
   49.4760   30.7660   49.0800 H   0  0  0  0  0  0  0  0  0  0  0  0
  1 22  1  0  0  0  0
  2  1  2  0  0  0  0
  3  2  1  0  0  0  0
  4  3  1  0  0  0  0
  4  5  2  0  0  0  0
  5  1  1  0  0  0  0
  6  4  1  0  0  0  0
  7  6  1  0  0  0  0
  8  7  2  0  0  0  0
  9 10  2  0  0  0  0
  9  8  1  0  0  0  0
 10 11  1  0  0  0  0
 11 12  1  0  0  0  0
 11  6  2  0  0  0  0
 12 13  2  0  0  0  0
 14 13  1  0  0  0  0
 14 21  1  0  0  0  0
 15 14  1  0  0  0  0
 16 15  1  0  0  0  0
 17 16  2  0  0  0  0
 18 19  2  0  0  0  0
 18 17  1  0  0  0  0
 19 20  1  0  0  0  0
 20 15  2  0  0  0  0
 20 12  1  0  0  0  0
 22 27  1  0  0  0  0
 23 36  1  0  0  0  0
 24 32  1  0  0  0  0
 24 23  2  0  0  0  0
 25 24  1  0  0  0  0
 26 25  2  0  0  0  0
 26 27  1  0  0  0  0
 27 28  2  0  0  0  0
 28 23  1  0  0  0  0
 29 31  1  0  0  0  0
 29 25  1  0  0  0  0
 30 29  1  0  0  0  0
 32 33  1  0  0  0  0
 32 34  1  0  0  0  0
 35 32  1  0  0  0  0
 36 38  1  0  0  0  0
 36 37  1  0  0  0  0
M  END
>  <minimizedAffinity>
-7.75123882

$$$$

 OpenBabel03242509593D

 38 42  0  0  0  0  0  0  0  0999 V2000
   46.2780   34.3630   42.5980 C   0  0  0  0  0  0  0  0  0  0  0  0
   45.3340   35.2310   42.1900 N   0  0  0  0  0  0  0  0  0  0  0  0
   44.8790   34.8690   41.0390 O   0  0  0  0  0  0  0  0  0  0  0  0
   45.4870   33.7730   40.6360 C   0  0  0  0  0  0  0  0  0  0  0  0
   46.3780   33.4260   41.6040 N   0  0  0  0  0  0  0  0  0  0  0  0
   45.2590   33.0420   39.3850 C   0  0  0  0  0  0  0  0  0  0  0  0
   46.2210   32.8160   38.4420 C   0  0  0  0  0  3  0  0  0  0  0  0
   45.8990   32.1030   37.2780 C   0  0  0  0  0  3  0  0  0  0  0  0
   44.6130   31.6210   37.0660 C   0  0  0  0  0  3  0  0  0  0  0  0
   43.6550   31.8520   38.0160 C   0  0  0  0  0  3  0  0  0  0  0  0
   43.9910   32.5500   39.1440 C   0  0  0  0  0  0  0  0  0  0  0  0
   42.8930   32.7520   40.1210 C   0  0  0  0  0  0  0  0  0  0  0  0
   42.5700   32.0000   41.2330 C   0  0  0  0  0  3  0  0  0  0  0  0
   41.5050   32.5210   41.8550 N   0  0  0  0  0  0  0  0  0  0  0  0
   41.1170   33.6160   41.1670 C   0  0  0  0  0  0  0  0  0  0  0  0
   40.0780   34.5320   41.3670 C   0  0  0  0  0  3  0  0  0  0  0  0
   39.9200   35.5790   40.4800 C   0  0  0  0  0  3  0  0  0  0  0  0
   40.7770   35.7170   39.4170 C   0  0  0  0  0  3  0  0  0  0  0  0
   41.8300   34.8310   39.1720 C   0  0  0  0  0  3  0  0  0  0  0  0
   41.9560   33.7890   40.0880 C   0  0  0  0  0  0  0  0  0  0  0  0
   41.0610   32.1530   42.7070 H   0  0  0  0  0  0  0  0  0  0  0  0
   47.1260   34.1490   43.6600 O   0  0  0  0  0  0  0  0  0  0  0  0
   47.0140   31.2730   45.8800 C   0  0  0  0  0  0  0  0  0  0  0  0
   46.1470   31.7350   46.8730 C   0  0  0  0  0  0  0  0  0  0  0  0
   45.6160   33.0300   46.7570 C   0  0  0  0  0  0  0  0  0  0  0  0
   45.9910   33.7680   45.6600 N   0  0  0  0  0  0  0  0  0  0  0  0
   46.8320   33.3000   44.7130 C   0  0  0  0  0  0  0  0  0  0  0  0
   47.3480   32.0520   44.8170 N   0  0  0  0  0  0  0  0  0  0  0  0
   44.7530   33.5410   47.7120 N   0  0  0  0  0  0  0  0  0  0  0  0
   44.3750   34.4940   47.6080 H   0  0  0  0  0  0  0  0  0  0  0  0
   44.4890   32.9690   48.5260 H   0  0  0  0  0  0  0  0  0  0  0  0
   45.8610   30.8120   47.9560 C   0  0  0  0  0  0  0  0  0  0  0  0
   45.2640   29.4930   47.4500 C   0  0  0  0  0  1  0  0  0  0  0  0
   44.9730   31.2930   49.0530 C   0  0  0  0  0  1  0  0  0  0  0  0
   47.2030   30.4730   48.5990 C   0  0  0  0  0  1  0  0  0  0  0  0
   47.5740   30.0010   45.9500 N   0  0  0  0  0  0  0  0  0  0  0  0
   48.2120   29.6780   45.2080 H   0  0  0  0  0  0  0  0  0  0  0  0
   47.3520   29.3830   46.7430 H   0  0  0  0  0  0  0  0  0  0  0  0
  1 22  1  0  0  0  0
  2  1  2  0  0  0  0
  3  2  1  0  0  0  0
  4  3  1  0  0  0  0
  4  5  2  0  0  0  0
  5  1  1  0  0  0  0
  6  4  1  0  0  0  0
  7  6  2  0  0  0  0
  8  7  1  0  0  0  0
  9  8  2  0  0  0  0
  9 10  1  0  0  0  0
 10 11  2  0  0  0  0
 11  6  1  0  0  0  0
 11 12  1  0  0  0  0
 12 13  2  0  0  0  0
 13 14  1  0  0  0  0
 14 21  1  0  0  0  0
 15 16  1  0  0  0  0
 15 14  1  0  0  0  0
 17 16  2  0  0  0  0
 18 17  1  0  0  0  0
 19 18  2  0  0  0  0
 19 20  1  0  0  0  0
 20 12  1  0  0  0  0
 20 15  2  0  0  0  0
 22 27  1  0  0  0  0
 23 36  1  0  0  0  0
 23 24  1  0  0  0  0
 24 32  1  0  0  0  0
 25 24  2  0  0  0  0
 25 29  1  0  0  0  0
 26 25  1  0  0  0  0
 27 28  1  0  0  0  0
 27 26  2  0  0  0  0
 28 23  2  0  0  0  0
 29 31  1  0  0  0  0
 30 29  1  0  0  0  0
 32 35  1  0  0  0  0
 32 34  1  0  0  0  0
 33 32  1  0  0  0  0
 36 38  1  0  0  0  0
 37 36  1  0  0  0  0
M  END
>  <minimizedAffinity>
-7.72757006

$$$$

 OpenBabel03242509593D

 38 42  0  0  0  0  0  0  0  0999 V2000
   46.2790   34.3620   42.5210 C   0  0  0  0  0  0  0  0  0  0  0  0
   45.3390   35.2410   42.1270 N   0  0  0  0  0  0  0  0  0  0  0  0
   44.8730   34.8930   40.9760 O   0  0  0  0  0  0  0  0  0  0  0  0
   45.4680   33.7950   40.5610 C   0  0  0  0  0  0  0  0  0  0  0  0
   46.3630   33.4320   41.5190 N   0  0  0  0  0  0  0  0  0  0  0  0
   45.2240   33.0770   39.3050 C   0  0  0  0  0  0  0  0  0  0  0  0
   46.1730   32.8650   38.3450 C   0  0  0  0  0  3  0  0  0  0  0  0
   45.8360   32.1630   37.1780 C   0  0  0  0  0  3  0  0  0  0  0  0
   44.5500   31.6770   36.9810 C   0  0  0  0  0  3  0  0  0  0  0  0
   43.6050   31.8920   37.9480 C   0  0  0  0  0  3  0  0  0  0  0  0
   43.9560   32.5810   39.0780 C   0  0  0  0  0  0  0  0  0  0  0  0
   42.8720   32.7670   40.0740 C   0  0  0  0  0  0  0  0  0  0  0  0
   42.5690   32.0010   41.1820 C   0  0  0  0  0  3  0  0  0  0  0  0
   41.5110   32.5100   41.8270 N   0  0  0  0  0  0  0  0  0  0  0  0
   41.1080   33.6100   41.1560 C   0  0  0  0  0  0  0  0  0  0  0  0
   40.0670   34.5190   41.3820 C   0  0  0  0  0  3  0  0  0  0  0  0
   39.8900   35.5740   40.5090 C   0  0  0  0  0  3  0  0  0  0  0  0
   40.7300   35.7280   39.4340 C   0  0  0  0  0  3  0  0  0  0  0  0
   41.7830   34.8500   39.1630 C   0  0  0  0  0  3  0  0  0  0  0  0
   41.9280   33.7990   40.0660 C   0  0  0  0  0  0  0  0  0  0  0  0
   41.0820   32.1310   42.6820 H   0  0  0  0  0  0  0  0  0  0  0  0
   47.1320   34.1320   43.5750 O   0  0  0  0  0  0  0  0  0  0  0  0
   45.6910   32.9500   46.6960 C   0  0  0  0  0  0  0  0  0  0  0  0
   46.2440   31.6700   46.7780 C   0  0  0  0  0  0  0  0  0  0  0  0
   47.1050   31.2390   45.7560 C   0  0  0  0  0  0  0  0  0  0  0  0
   47.3490   32.1170   44.7270 N   0  0  0  0  0  0  0  0  0  0  0  0
   46.8020   33.3500   44.6680 C   0  0  0  0  0  0  0  0  0  0  0  0
   45.9700   33.7730   45.6500 N   0  0  0  0  0  0  0  0  0  0  0  0
   47.6810   29.9800   45.7850 N   0  0  0  0  0  0  0  0  0  0  0  0
   48.3100   29.6840   45.0240 H   0  0  0  0  0  0  0  0  0  0  0  0
   47.4810   29.3400   46.5660 H   0  0  0  0  0  0  0  0  0  0  0  0
   45.8760   30.8850   47.9420 C   0  0  0  0  0  0  0  0  0  0  0  0
   45.3650   29.4900   47.5610 C   0  0  0  0  0  1  0  0  0  0  0  0
   44.8730   31.4690   48.8770 C   0  0  0  0  0  1  0  0  0  0  0  0
   47.1570   30.6820   48.7480 C   0  0  0  0  0  1  0  0  0  0  0  0
   44.8250   33.4240   47.6760 N   0  0  0  0  0  0  0  0  0  0  0  0
   44.4270   34.3710   47.5980 H   0  0  0  0  0  0  0  0  0  0  0  0
   44.5820   32.8290   48.4810 H   0  0  0  0  0  0  0  0  0  0  0  0
  1 22  1  0  0  0  0
  2  1  2  0  0  0  0
  3  2  1  0  0  0  0
  4  3  1  0  0  0  0
  4  5  2  0  0  0  0
  5  1  1  0  0  0  0
  6  4  1  0  0  0  0
  7  6  2  0  0  0  0
  8  7  1  0  0  0  0
  9  8  2  0  0  0  0
  9 10  1  0  0  0  0
 10 11  2  0  0  0  0
 11  6  1  0  0  0  0
 11 12  1  0  0  0  0
 12 13  2  0  0  0  0
 13 14  1  0  0  0  0
 14 21  1  0  0  0  0
 15 16  1  0  0  0  0
 15 14  1  0  0  0  0
 17 16  2  0  0  0  0
 18 17  1  0  0  0  0
 19 18  2  0  0  0  0
 19 20  1  0  0  0  0
 20 12  1  0  0  0  0
 20 15  2  0  0  0  0
 22 27  1  0  0  0  0
 23 24  1  0  0  0  0
 23 36  1  0  0  0  0
 24 32  1  0  0  0  0
 25 29  1  0  0  0  0
 25 24  2  0  0  0  0
 26 25  1  0  0  0  0
 27 26  2  0  0  0  0
 27 28  1  0  0  0  0
 28 23  2  0  0  0  0
 29 31  1  0  0  0  0
 30 29  1  0  0  0  0
 32 35  1  0  0  0  0
 32 34  1  0  0  0  0
 33 32  1  0  0  0  0
 36 38  1  0  0  0  0
 37 36  1  0  0  0  0
M  END
>  <minimizedAffinity>
-7.71001291

$$$$

 OpenBabel03242509593D

 38 42  0  0  0  0  0  0  0  0999 V2000
   44.7090   34.7350   41.7910 C   0  0  0  0  0  0  0  0  0  0  0  0
   45.1280   33.8210   40.8970 N   0  0  0  0  0  0  0  0  0  0  0  0
   44.3270   33.8020   39.8870 O   0  0  0  0  0  0  0  0  0  0  0  0
   43.3610   34.6790   40.0590 C   0  0  0  0  0  0  0  0  0  0  0  0
   43.5760   35.2880   41.2560 N   0  0  0  0  0  0  0  0  0  0  0  0
   42.2510   34.9650   39.1430 C   0  0  0  0  0  0  0  0  0  0  0  0
   42.3180   35.8580   38.1120 C   0  0  0  0  0  3  0  0  0  0  0  0
   41.1970   36.0570   37.2910 C   0  0  0  0  0  3  0  0  0  0  0  0
   40.0160   35.3600   37.5110 C   0  0  0  0  0  3  0  0  0  0  0  0
   39.9570   34.4670   38.5470 C   0  0  0  0  0  3  0  0  0  0  0  0
   41.0630   34.2890   39.3350 C   0  0  0  0  0  0  0  0  0  0  0  0
   40.9120   33.3000   40.4310 C   0  0  0  0  0  0  0  0  0  0  0  0
   40.3960   33.4800   41.6990 C   0  0  0  0  0  3  0  0  0  0  0  0
   40.4360   32.3320   42.3860 N   0  0  0  0  0  0  0  0  0  0  0  0
   40.9740   31.3880   41.5850 C   0  0  0  0  0  0  0  0  0  0  0  0
   41.2450   30.0290   41.7860 C   0  0  0  0  0  3  0  0  0  0  0  0
   41.8120   29.2950   40.7620 C   0  0  0  0  0  3  0  0  0  0  0  0
   42.1020   29.8950   39.5620 C   0  0  0  0  0  3  0  0  0  0  0  0
   41.8510   31.2470   39.3110 C   0  0  0  0  0  3  0  0  0  0  0  0
   41.2800   31.9530   40.3670 C   0  0  0  0  0  0  0  0  0  0  0  0
   40.1130   32.1930   43.3540 H   0  0  0  0  0  0  0  0  0  0  0  0
   45.0620   35.2520   43.0160 O   0  0  0  0  0  0  0  0  0  0  0  0
   45.1440   33.8980   46.3880 C   0  0  0  0  0  0  0  0  0  0  0  0
   46.0130   32.8170   46.2210 C   0  0  0  0  0  0  0  0  0  0  0  0
   46.5550   32.5760   44.9490 C   0  0  0  0  0  0  0  0  0  0  0  0
   46.1900   33.4320   43.9370 N   0  0  0  0  0  0  0  0  0  0  0  0
   45.3470   34.4700   44.1220 C   0  0  0  0  0  0  0  0  0  0  0  0
   44.8190   34.7090   45.3470 N   0  0  0  0  0  0  0  0  0  0  0  0
   47.4210   31.5190   44.7250 N   0  0  0  0  0  0  0  0  0  0  0  0
   47.8070   31.3600   43.7830 H   0  0  0  0  0  0  0  0  0  0  0  0
   47.6780   30.8910   45.4990 H   0  0  0  0  0  0  0  0  0  0  0  0
   46.2880   32.0250   47.4070 C   0  0  0  0  0  0  0  0  0  0  0  0
   46.5640   30.5550   47.0680 C   0  0  0  0  0  1  0  0  0  0  0  0
   45.2670   32.0320   48.4920 C   0  0  0  0  0  1  0  0  0  0  0  0
   47.5720   32.5890   48.0120 C   0  0  0  0  0  1  0  0  0  0  0  0
   44.5720   34.1760   47.6260 N   0  0  0  0  0  0  0  0  0  0  0  0
   43.9330   34.9780   47.7290 H   0  0  0  0  0  0  0  0  0  0  0  0
   44.7870   33.5810   48.4390 H   0  0  0  0  0  0  0  0  0  0  0  0
  1 22  1  0  0  0  0
  2  1  2  0  0  0  0
  3  4  1  0  0  0  0
  3  2  1  0  0  0  0
  4  5  2  0  0  0  0
  5  1  1  0  0  0  0
  6 11  1  0  0  0  0
  6  4  1  0  0  0  0
  7  6  2  0  0  0  0
  8  9  2  0  0  0  0
  8  7  1  0  0  0  0
  9 10  1  0  0  0  0
 10 11  2  0  0  0  0
 11 12  1  0  0  0  0
 12 13  2  0  0  0  0
 13 14  1  0  0  0  0
 14 21  1  0  0  0  0
 15 16  1  0  0  0  0
 15 14  1  0  0  0  0
 17 16  2  0  0  0  0
 18 17  1  0  0  0  0
 19 18  2  0  0  0  0
 19 20  1  0  0  0  0
 20 12  1  0  0  0  0
 20 15  2  0  0  0  0
 22 27  1  0  0  0  0
 23 36  1  0  0  0  0
 24 23  1  0  0  0  0
 24 32  1  0  0  0  0
 25 24  2  0  0  0  0
 26 27  2  0  0  0  0
 26 25  1  0  0  0  0
 27 28  1  0  0  0  0
 28 23  2  0  0  0  0
 29 25  1  0  0  0  0
 29 31  1  0  0  0  0
 30 29  1  0  0  0  0
 32 35  1  0  0  0  0
 32 34  1  0  0  0  0
 33 32  1  0  0  0  0
 36 37  1  0  0  0  0
 36 38  1  0  0  0  0
M  END
>  <minimizedAffinity>
-7.63349056

$$$$

 OpenBabel03242509593D

 38 42  0  0  0  0  0  0  0  0999 V2000
   44.4070   30.4640   41.9940 C   0  0  0  0  0  0  0  0  0  0  0  0
   45.7010   30.2350   41.7060 N   0  0  0  0  0  0  0  0  0  0  0  0
   46.4210   30.4320   42.7580 O   0  0  0  0  0  0  0  0  0  0  0  0
   45.6590   30.7940   43.7680 C   0  0  0  0  0  0  0  0  0  0  0  0
   44.3760   30.8230   43.3150 N   0  0  0  0  0  0  0  0  0  0  0  0
   46.0880   31.1100   45.1340 C   0  0  0  0  0  0  0  0  0  0  0  0
   46.1970   30.1900   46.1370 C   0  0  0  0  0  3  0  0  0  0  0  0
   46.6200   30.5970   47.4110 C   0  0  0  0  0  3  0  0  0  0  0  0
   46.9310   31.9260   47.6720 C   0  0  0  0  0  3  0  0  0  0  0  0
   46.8200   32.8420   46.6610 C   0  0  0  0  0  3  0  0  0  0  0  0
   46.4050   32.4230   45.4260 C   0  0  0  0  0  0  0  0  0  0  0  0
   46.3150   33.4810   44.3890 C   0  0  0  0  0  0  0  0  0  0  0  0
   45.2930   34.3770   44.1480 C   0  0  0  0  0  3  0  0  0  0  0  0
   45.6040   35.1730   43.1180 N   0  0  0  0  0  0  0  0  0  0  0  0
   46.8260   34.8140   42.6710 C   0  0  0  0  0  0  0  0  0  0  0  0
   47.6280   35.3040   41.6330 C   0  0  0  0  0  3  0  0  0  0  0  0
   48.8620   34.7270   41.4030 C   0  0  0  0  0  3  0  0  0  0  0  0
   49.2950   33.6880   42.1880 C   0  0  0  0  0  3  0  0  0  0  0  0
   48.5340   33.1620   43.2360 C   0  0  0  0  0  3  0  0  0  0  0  0
   47.2970   33.7690   43.4360 C   0  0  0  0  0  0  0  0  0  0  0  0
   45.0160   35.9260   42.7350 H   0  0  0  0  0  0  0  0  0  0  0  0
   43.1720   30.4460   41.3870 O   0  0  0  0  0  0  0  0  0  0  0  0
   42.2200   33.2810   39.3210 C   0  0  0  0  0  0  0  0  0  0  0  0
   41.1870   33.8310   40.0820 C   0  0  0  0  0  0  0  0  0  0  0  0
   40.8380   33.2150   41.2950 C   0  0  0  0  0  0  0  0  0  0  0  0
   41.5470   32.0940   41.6570 N   0  0  0  0  0  0  0  0  0  0  0  0
   42.5410   31.5790   40.9040 C   0  0  0  0  0  0  0  0  0  0  0  0
   42.8840   32.1680   39.7330 N   0  0  0  0  0  0  0  0  0  0  0  0
   39.8210   33.7160   42.0900 N   0  0  0  0  0  0  0  0  0  0  0  0
   39.5820   33.2480   42.9760 H   0  0  0  0  0  0  0  0  0  0  0  0
   39.3040   34.5560   41.7960 H   0  0  0  0  0  0  0  0  0  0  0  0
   40.5550   35.0220   39.5430 C   0  0  0  0  0  0  0  0  0  0  0  0
   41.4550   35.7460   38.5330 C   0  0  0  0  0  1  0  0  0  0  0  0
   40.0820   36.0500   40.5120 C   0  0  0  0  0  1  0  0  0  0  0  0
   39.3230   34.5460   38.7760 C   0  0  0  0  0  1  0  0  0  0  0  0
   42.6000   33.8460   38.1080 N   0  0  0  0  0  0  0  0  0  0  0  0
   43.3640   33.4260   37.5610 H   0  0  0  0  0  0  0  0  0  0  0  0
   42.1170   34.6860   37.7570 H   0  0  0  0  0  0  0  0  0  0  0  0
  1  5  1  0  0  0  0
  2  1  2  0  0  0  0
  2  3  1  0  0  0  0
  3  4  1  0  0  0  0
  4  6  1  0  0  0  0
  5  4  2  0  0  0  0
  6 11  2  0  0  0  0
  6  7  1  0  0  0  0
  7  8  2  0  0  0  0
  8  9  1  0  0  0  0
 10  9  2  0  0  0  0
 11 10  1  0  0  0  0
 12 11  1  0  0  0  0
 13 12  2  0  0  0  0
 14 13  1  0  0  0  0
 15 14  1  0  0  0  0
 15 20  1  0  0  0  0
 16 15  2  0  0  0  0
 17 16  1  0  0  0  0
 17 18  2  0  0  0  0
 18 19  1  0  0  0  0
 19 20  2  0  0  0  0
 20 12  1  0  0  0  0
 21 14  1  0  0  0  0
 22  1  1  0  0  0  0
 23 28  2  0  0  0  0
 23 24  1  0  0  0  0
 24 25  2  0  0  0  0
 25 26  1  0  0  0  0
 25 29  1  0  0  0  0
 27 22  1  0  0  0  0
 27 26  2  0  0  0  0
 28 27  1  0  0  0  0
 29 30  1  0  0  0  0
 31 29  1  0  0  0  0
 32 24  1  0  0  0  0
 32 34  1  0  0  0  0
 33 32  1  0  0  0  0
 35 32  1  0  0  0  0
 36 23  1  0  0  0  0
 37 36  1  0  0  0  0
 38 36  1  0  0  0  0
M  END
>  <minimizedAffinity>
-7.53127813

$$$$

 OpenBabel03242509593D

 38 42  0  0  0  0  0  0  0  0999 V2000
   44.8220   34.6040   41.7490 C   0  0  0  0  0  0  0  0  0  0  0  0
   45.2760   33.7710   40.7950 N   0  0  0  0  0  0  0  0  0  0  0  0
   44.4420   33.7420   39.8120 O   0  0  0  0  0  0  0  0  0  0  0  0
   43.4200   34.5330   40.0600 C   0  0  0  0  0  0  0  0  0  0  0  0
   43.6320   35.0950   41.2810 N   0  0  0  0  0  0  0  0  0  0  0  0
   42.2600   34.7800   39.1970 C   0  0  0  0  0  0  0  0  0  0  0  0
   42.2240   35.7230   38.2110 C   0  0  0  0  0  3  0  0  0  0  0  0
   41.0630   35.8780   37.4380 C   0  0  0  0  0  3  0  0  0  0  0  0
   39.9440   35.0850   37.6610 C   0  0  0  0  0  3  0  0  0  0  0  0
   39.9890   34.1410   38.6510 C   0  0  0  0  0  3  0  0  0  0  0  0
   41.1320   34.0080   39.3930 C   0  0  0  0  0  0  0  0  0  0  0  0
   41.0930   32.9600   40.4420 C   0  0  0  0  0  0  0  0  0  0  0  0
   40.5850   33.0310   41.7240 C   0  0  0  0  0  3  0  0  0  0  0  0
   40.7430   31.8600   42.3540 N   0  0  0  0  0  0  0  0  0  0  0  0
   41.3530   31.0100   41.5020 C   0  0  0  0  0  0  0  0  0  0  0  0
   41.7530   29.6740   41.6330 C   0  0  0  0  0  3  0  0  0  0  0  0
   42.3680   29.0460   40.5680 C   0  0  0  0  0  3  0  0  0  0  0  0
   42.5800   29.7260   39.3940 C   0  0  0  0  0  3  0  0  0  0  0  0
   42.2000   31.0590   39.2120 C   0  0  0  0  0  3  0  0  0  0  0  0
   41.5840   31.6570   40.3080 C   0  0  0  0  0  0  0  0  0  0  0  0
   40.4510   31.6460   43.3180 H   0  0  0  0  0  0  0  0  0  0  0  0
   45.1790   35.0840   42.9880 O   0  0  0  0  0  0  0  0  0  0  0  0
   46.6540   32.4690   45.0370 C   0  0  0  0  0  0  0  0  0  0  0  0
   46.0750   32.7430   46.2780 C   0  0  0  0  0  0  0  0  0  0  0  0
   45.1850   33.8240   46.3850 C   0  0  0  0  0  0  0  0  0  0  0  0
   44.9410   34.5520   45.2450 N   0  0  0  0  0  0  0  0  0  0  0  0
   45.5130   34.2690   44.0560 C   0  0  0  0  0  0  0  0  0  0  0  0
   46.3730   33.2280   43.9440 N   0  0  0  0  0  0  0  0  0  0  0  0
   44.5830   34.1430   47.5900 N   0  0  0  0  0  0  0  0  0  0  0  0
   43.9340   34.9410   47.6460 H   0  0  0  0  0  0  0  0  0  0  0  0
   44.7840   33.5830   48.4300 H   0  0  0  0  0  0  0  0  0  0  0  0
   46.4480   31.8610   47.3690 C   0  0  0  0  0  0  0  0  0  0  0  0
   47.6470   32.3990   48.1620 C   0  0  0  0  0  1  0  0  0  0  0  0
   46.7570   30.4420   47.0340 C   0  0  0  0  0  1  0  0  0  0  0  0
   45.2600   31.8350   48.3270 C   0  0  0  0  0  1  0  0  0  0  0  0
   47.5480   31.4150   44.8770 N   0  0  0  0  0  0  0  0  0  0  0  0
   47.9650   31.2290   43.9540 H   0  0  0  0  0  0  0  0  0  0  0  0
   47.7940   30.8210   45.6820 H   0  0  0  0  0  0  0  0  0  0  0  0
  1 22  1  0  0  0  0
  2  1  2  0  0  0  0
  3  4  1  0  0  0  0
  3  2  1  0  0  0  0
  4  5  2  0  0  0  0
  5  1  1  0  0  0  0
  6 11  1  0  0  0  0
  6  4  1  0  0  0  0
  7  6  2  0  0  0  0
  8  9  2  0  0  0  0
  8  7  1  0  0  0  0
  9 10  1  0  0  0  0
 10 11  2  0  0  0  0
 11 12  1  0  0  0  0
 12 13  2  0  0  0  0
 13 14  1  0  0  0  0
 14 21  1  0  0  0  0
 15 16  1  0  0  0  0
 15 14  1  0  0  0  0
 17 16  2  0  0  0  0
 18 17  1  0  0  0  0
 19 18  2  0  0  0  0
 19 20  1  0  0  0  0
 20 12  1  0  0  0  0
 20 15  2  0  0  0  0
 22 27  1  0  0  0  0
 23 24  1  0  0  0  0
 24 25  2  0  0  0  0
 24 32  1  0  0  0  0
 25 29  1  0  0  0  0
 26 25  1  0  0  0  0
 27 26  2  0  0  0  0
 28 27  1  0  0  0  0
 28 23  2  0  0  0  0
 29 30  1  0  0  0  0
 29 31  1  0  0  0  0
 32 33  1  0  0  0  0
 32 35  1  0  0  0  0
 34 32  1  0  0  0  0
 36 23  1  0  0  0  0
 36 38  1  0  0  0  0
 37 36  1  0  0  0  0
M  END
>  <minimizedAffinity>
-7.5136919

$$$$

 OpenBabel03242509593D

 38 42  0  0  0  0  0  0  0  0999 V2000
   45.1360   34.6610   41.7040 C   0  0  0  0  0  0  0  0  0  0  0  0
   45.6840   33.9770   40.6830 N   0  0  0  0  0  0  0  0  0  0  0  0
   44.8080   33.8100   39.7520 O   0  0  0  0  0  0  0  0  0  0  0  0
   43.6640   34.3580   40.1030 C   0  0  0  0  0  0  0  0  0  0  0  0
   43.8400   34.9070   41.3360 N   0  0  0  0  0  0  0  0  0  0  0  0
   42.4200   34.3870   39.3270 C   0  0  0  0  0  0  0  0  0  0  0  0
   41.9100   35.5070   38.7360 C   0  0  0  0  0  3  0  0  0  0  0  0
   40.7100   35.4260   38.0120 C   0  0  0  0  0  3  0  0  0  0  0  0
   40.0300   34.2220   37.8850 C   0  0  0  0  0  3  0  0  0  0  0  0
   40.5480   33.1040   38.4800 C   0  0  0  0  0  3  0  0  0  0  0  0
   41.7190   33.2050   39.1820 C   0  0  0  0  0  0  0  0  0  0  0  0
   42.2100   31.9450   39.7920 C   0  0  0  0  0  0  0  0  0  0  0  0
   43.2160   31.1040   39.3590 C   0  0  0  0  0  3  0  0  0  0  0  0
   43.3510   30.0680   40.1970 N   0  0  0  0  0  0  0  0  0  0  0  0
   42.4430   30.2140   41.1850 C   0  0  0  0  0  0  0  0  0  0  0  0
   42.1490   29.4360   42.3120 C   0  0  0  0  0  3  0  0  0  0  0  0
   41.1440   29.8410   43.1680 C   0  0  0  0  0  3  0  0  0  0  0  0
   40.4470   30.9970   42.9160 C   0  0  0  0  0  3  0  0  0  0  0  0
   40.7010   31.8080   41.8060 C   0  0  0  0  0  3  0  0  0  0  0  0
   41.7200   31.3660   40.9670 C   0  0  0  0  0  0  0  0  0  0  0  0
   44.0270   29.2980   40.1040 H   0  0  0  0  0  0  0  0  0  0  0  0
   45.4730   35.1590   42.9420 O   0  0  0  0  0  0  0  0  0  0  0  0
   45.2360   33.7970   46.3030 C   0  0  0  0  0  0  0  0  0  0  0  0
   46.0840   32.6910   46.2040 C   0  0  0  0  0  0  0  0  0  0  0  0
   46.7220   32.4370   44.9800 C   0  0  0  0  0  0  0  0  0  0  0  0
   46.4660   33.3050   43.9450 N   0  0  0  0  0  0  0  0  0  0  0  0
   45.6420   34.3660   44.0640 C   0  0  0  0  0  0  0  0  0  0  0  0
   45.0220   34.6190   45.2420 N   0  0  0  0  0  0  0  0  0  0  0  0
   47.5720   31.3550   44.8230 N   0  0  0  0  0  0  0  0  0  0  0  0
   48.0300   31.1860   43.9160 H   0  0  0  0  0  0  0  0  0  0  0  0
   47.7460   30.7180   45.6140 H   0  0  0  0  0  0  0  0  0  0  0  0
   46.2370   31.8900   47.4050 C   0  0  0  0  0  0  0  0  0  0  0  0
   46.3410   30.3920   47.0910 C   0  0  0  0  0  1  0  0  0  0  0  0
   45.2010   32.0350   48.4670 C   0  0  0  0  0  1  0  0  0  0  0  0
   47.5660   32.3030   48.0320 C   0  0  0  0  0  1  0  0  0  0  0  0
   44.5720   34.0900   47.4910 N   0  0  0  0  0  0  0  0  0  0  0  0
   43.9510   34.9090   47.5440 H   0  0  0  0  0  0  0  0  0  0  0  0
   44.7010   33.4870   48.3160 H   0  0  0  0  0  0  0  0  0  0  0  0
  1 22  1  0  0  0  0
  2  1  2  0  0  0  0
  3  4  1  0  0  0  0
  3  2  1  0  0  0  0
  4  5  2  0  0  0  0
  5  1  1  0  0  0  0
  6  4  1  0  0  0  0
  7  6  2  0  0  0  0
  8  7  1  0  0  0  0
  9  8  2  0  0  0  0
  9 10  1  0  0  0  0
 10 11  2  0  0  0  0
 11  6  1  0  0  0  0
 11 12  1  0  0  0  0
 12 20  1  0  0  0  0
 13 12  2  0  0  0  0
 13 14  1  0  0  0  0
 14 15  1  0  0  0  0
 15 16  1  0  0  0  0
 16 17  2  0  0  0  0
 18 17  1  0  0  0  0
 19 18  2  0  0  0  0
 20 15  2  0  0  0  0
 20 19  1  0  0  0  0
 21 14  1  0  0  0  0
 22 27  1  0  0  0  0
 23 36  1  0  0  0  0
 24 23  1  0  0  0  0
 24 32  1  0  0  0  0
 25 24  2  0  0  0  0
 26 27  2  0  0  0  0
 26 25  1  0  0  0  0
 27 28  1  0  0  0  0
 28 23  2  0  0  0  0
 29 25  1  0  0  0  0
 29 31  1  0  0  0  0
 30 29  1  0  0  0  0
 32 35  1  0  0  0  0
 32 34  1  0  0  0  0
 33 32  1  0  0  0  0
 36 37  1  0  0  0  0
 36 38  1  0  0  0  0
M  END
>  <minimizedAffinity>
-7.39519119

$$$$

 OpenBabel03242509593D

 38 42  0  0  0  0  0  0  0  0999 V2000
   44.1340   30.5350   42.3600 C   0  0  0  0  0  0  0  0  0  0  0  0
   44.7650   29.9470   43.3930 N   0  0  0  0  0  0  0  0  0  0  0  0
   45.9410   30.4570   43.5300 O   0  0  0  0  0  0  0  0  0  0  0  0
   46.1430   31.3830   42.6170 C   0  0  0  0  0  0  0  0  0  0  0  0
   45.0140   31.4580   41.8610 N   0  0  0  0  0  0  0  0  0  0  0  0
   47.3490   32.1980   42.4320 C   0  0  0  0  0  0  0  0  0  0  0  0
   48.3270   31.9260   41.5190 C   0  0  0  0  0  3  0  0  0  0  0  0
   49.4420   32.7720   41.4210 C   0  0  0  0  0  3  0  0  0  0  0  0
   49.5690   33.8860   42.2410 C   0  0  0  0  0  3  0  0  0  0  0  0
   48.5840   34.1520   43.1540 C   0  0  0  0  0  3  0  0  0  0  0  0
   47.5050   33.3130   43.2320 C   0  0  0  0  0  0  0  0  0  0  0  0
   46.4850   33.6770   44.2460 C   0  0  0  0  0  0  0  0  0  0  0  0
   45.4340   34.5660   44.1420 C   0  0  0  0  0  3  0  0  0  0  0  0
   44.7410   34.6060   45.2860 N   0  0  0  0  0  0  0  0  0  0  0  0
   45.3230   33.7500   46.1530 C   0  0  0  0  0  0  0  0  0  0  0  0
   45.0160   33.3970   47.4730 C   0  0  0  0  0  3  0  0  0  0  0  0
   45.8060   32.4700   48.1250 C   0  0  0  0  0  3  0  0  0  0  0  0
   46.8760   31.9010   47.4800 C   0  0  0  0  0  3  0  0  0  0  0  0
   47.2240   32.2180   46.1640 C   0  0  0  0  0  3  0  0  0  0  0  0
   46.4050   33.1560   45.5420 C   0  0  0  0  0  0  0  0  0  0  0  0
   43.9120   35.1870   45.4730 H   0  0  0  0  0  0  0  0  0  0  0  0
   42.9310   30.4890   41.6940 O   0  0  0  0  0  0  0  0  0  0  0  0
   42.0340   33.0140   39.2380 C   0  0  0  0  0  0  0  0  0  0  0  0
   41.1410   33.7970   39.9740 C   0  0  0  0  0  0  0  0  0  0  0  0
   40.8660   33.4400   41.3040 C   0  0  0  0  0  0  0  0  0  0  0  0
   41.5020   32.3270   41.8010 N   0  0  0  0  0  0  0  0  0  0  0  0
   42.3610   31.5850   41.0700 C   0  0  0  0  0  0  0  0  0  0  0  0
   42.6310   31.9220   39.7860 N   0  0  0  0  0  0  0  0  0  0  0  0
   39.9890   34.1780   42.0800 N   0  0  0  0  0  0  0  0  0  0  0  0
   39.8010   33.8980   43.0540 H   0  0  0  0  0  0  0  0  0  0  0  0
   39.5230   35.0070   41.6840 H   0  0  0  0  0  0  0  0  0  0  0  0
   40.5690   34.9390   39.2840 C   0  0  0  0  0  0  0  0  0  0  0  0
   39.3220   34.5610   38.4750 C   0  0  0  0  0  1  0  0  0  0  0  0
   41.4600   35.7060   38.3670 C   0  0  0  0  0  1  0  0  0  0  0  0
   40.1140   35.9140   40.3680 C   0  0  0  0  0  1  0  0  0  0  0  0
   42.3350   33.3180   37.9140 N   0  0  0  0  0  0  0  0  0  0  0  0
   42.9950   32.7290   37.3880 H   0  0  0  0  0  0  0  0  0  0  0  0
   41.8970   34.1330   37.4600 H   0  0  0  0  0  0  0  0  0  0  0  0
  1  2  2  0  0  0  0
  2  3  1  0  0  0  0
  4  3  1  0  0  0  0
  5  1  1  0  0  0  0
  5  4  2  0  0  0  0
  6  4  1  0  0  0  0
  6 11  1  0  0  0  0
  7  6  2  0  0  0  0
  8  7  1  0  0  0  0
  8  9  2  0  0  0  0
  9 10  1  0  0  0  0
 10 11  2  0  0  0  0
 11 12  1  0  0  0  0
 12 20  1  0  0  0  0
 13 12  2  0  0  0  0
 13 14  1  0  0  0  0
 14 21  1  0  0  0  0
 14 15  1  0  0  0  0
 15 16  1  0  0  0  0
 16 17  2  0  0  0  0
 18 17  1  0  0  0  0
 19 18  2  0  0  0  0
 20 15  2  0  0  0  0
 20 19  1  0  0  0  0
 22  1  1  0  0  0  0
 23 28  2  0  0  0  0
 23 24  1  0  0  0  0
 24 25  2  0  0  0  0
 25 26  1  0  0  0  0
 25 29  1  0  0  0  0
 27 22  1  0  0  0  0
 27 26  2  0  0  0  0
 28 27  1  0  0  0  0
 29 30  1  0  0  0  0
 31 29  1  0  0  0  0
 32 24  1  0  0  0  0
 32 35  1  0  0  0  0
 33 32  1  0  0  0  0
 34 32  1  0  0  0  0
 36 23  1  0  0  0  0
 37 36  1  0  0  0  0
 38 36  1  0  0  0  0
M  END
>  <minimizedAffinity>
-7.35218477

$$$$

 OpenBabel03242509593D

 38 42  0  0  0  0  0  0  0  0999 V2000
   45.2110   30.7980   40.7070 C   0  0  0  0  0  0  0  0  0  0  0  0
   45.2530   30.4050   41.9930 N   0  0  0  0  0  0  0  0  0  0  0  0
   46.3840   30.7400   42.5130 O   0  0  0  0  0  0  0  0  0  0  0  0
   47.1290   31.3540   41.6190 C   0  0  0  0  0  0  0  0  0  0  0  0
   46.4130   31.4080   40.4640 N   0  0  0  0  0  0  0  0  0  0  0  0
   48.4810   31.8910   41.8100 C   0  0  0  0  0  0  0  0  0  0  0  0
   49.6270   31.2050   41.5270 C   0  0  0  0  0  3  0  0  0  0  0  0
   50.8730   31.8120   41.7450 C   0  0  0  0  0  3  0  0  0  0  0  0
   50.9610   33.1040   42.2470 C   0  0  0  0  0  3  0  0  0  0  0  0
   49.8080   33.7860   42.5270 C   0  0  0  0  0  3  0  0  0  0  0  0
   48.6030   33.1730   42.3070 C   0  0  0  0  0  0  0  0  0  0  0  0
   47.4050   33.9850   42.6360 C   0  0  0  0  0  0  0  0  0  0  0  0
   46.7320   34.8980   41.8510 C   0  0  0  0  0  3  0  0  0  0  0  0
   45.6940   35.4150   42.5210 N   0  0  0  0  0  0  0  0  0  0  0  0
   45.6720   34.8520   43.7480 C   0  0  0  0  0  0  0  0  0  0  0  0
   44.8150   35.0200   44.8430 C   0  0  0  0  0  3  0  0  0  0  0  0
   45.0420   34.2920   45.9950 C   0  0  0  0  0  3  0  0  0  0  0  0
   46.0940   33.4130   46.0600 C   0  0  0  0  0  3  0  0  0  0  0  0
   46.9780   33.2090   44.9960 C   0  0  0  0  0  3  0  0  0  0  0  0
   46.7170   33.9610   43.8540 C   0  0  0  0  0  0  0  0  0  0  0  0
   45.0310   36.1170   42.1650 H   0  0  0  0  0  0  0  0  0  0  0  0
   44.3640   30.7720   39.6230 O   0  0  0  0  0  0  0  0  0  0  0  0
   41.3700   32.5210   38.5330 C   0  0  0  0  0  0  0  0  0  0  0  0
   41.6720   33.8310   38.9120 C   0  0  0  0  0  0  0  0  0  0  0  0
   42.9040   34.0870   39.5360 C   0  0  0  0  0  0  0  0  0  0  0  0
   43.7420   33.0160   39.7350 N   0  0  0  0  0  0  0  0  0  0  0  0
   43.4280   31.7580   39.3610 C   0  0  0  0  0  0  0  0  0  0  0  0
   42.2410   31.5030   38.7590 N   0  0  0  0  0  0  0  0  0  0  0  0
   43.2560   35.3650   39.9350 N   0  0  0  0  0  0  0  0  0  0  0  0
   44.1650   35.5310   40.3910 H   0  0  0  0  0  0  0  0  0  0  0  0
   42.6100   36.1510   39.7750 H   0  0  0  0  0  0  0  0  0  0  0  0
   40.6660   34.8340   38.6150 C   0  0  0  0  0  0  0  0  0  0  0  0
   40.1030   35.4820   39.8870 C   0  0  0  0  0  1  0  0  0  0  0  0
   39.4960   34.4140   37.7930 C   0  0  0  0  0  1  0  0  0  0  0  0
   41.3750   35.9370   37.8330 C   0  0  0  0  0  1  0  0  0  0  0  0
   40.1600   32.2110   37.9190 N   0  0  0  0  0  0  0  0  0  0  0  0
   39.9550   31.2390   37.6470 H   0  0  0  0  0  0  0  0  0  0  0  0
   39.4690   32.9540   37.7370 H   0  0  0  0  0  0  0  0  0  0  0  0
  1  2  2  0  0  0  0
  2  3  1  0  0  0  0
  4  6  1  0  0  0  0
  4  3  1  0  0  0  0
  5  1  1  0  0  0  0
  5  4  2  0  0  0  0
  6 11  1  0  0  0  0
  7  8  1  0  0  0  0
  7  6  2  0  0  0  0
  8  9  2  0  0  0  0
  9 10  1  0  0  0  0
 11 10  2  0  0  0  0
 11 12  1  0  0  0  0
 12 20  1  0  0  0  0
 13 14  1  0  0  0  0
 13 12  2  0  0  0  0
 14 15  1  0  0  0  0
 15 20  2  0  0  0  0
 15 16  1  0  0  0  0
 16 17  2  0  0  0  0
 17 18  1  0  0  0  0
 19 18  2  0  0  0  0
 20 19  1  0  0  0  0
 21 14  1  0  0  0  0
 22  1  1  0  0  0  0
 23 28  2  0  0  0  0
 23 24  1  0  0  0  0
 24 25  2  0  0  0  0
 25 26  1  0  0  0  0
 25 29  1  0  0  0  0
 27 22  1  0  0  0  0
 27 26  2  0  0  0  0
 28 27  1  0  0  0  0
 29 30  1  0  0  0  0
 31 29  1  0  0  0  0
 32 24  1  0  0  0  0
 32 33  1  0  0  0  0
 34 32  1  0  0  0  0
 35 32  1  0  0  0  0
 36 23  1  0  0  0  0
 37 36  1  0  0  0  0
 38 36  1  0  0  0  0
M  END
>  <minimizedAffinity>
-7.23008156

$$$$
