
 OpenBabel03242509563D

 39 44  0  0  0  0  0  0  0  0999 V2000
   47.3090   31.4530   35.1470 C   0  0  0  0  0  3  0  0  0  0  0  0
   48.7070   31.6220   35.1280 C   0  0  0  0  0  3  0  0  0  0  0  0
   49.2990   32.2310   36.2260 C   0  0  0  0  0  3  0  0  0  0  0  0
   48.4980   32.6320   37.2540 N   0  0  0  0  0  0  0  0  0  0  0  0
   47.1640   32.4570   37.2430 C   0  0  0  0  0  0  0  0  0  0  0  0
   46.5710   31.8720   36.1970 N   0  0  0  0  0  0  0  0  0  0  0  0
   46.4410   32.9200   38.3820 N   0  0  0  0  0  0  0  0  0  0  0  0
   47.0390   33.4810   39.4340 C   0  0  0  0  0  3  0  0  0  0  0  0
   46.1950   33.8700   40.4480 C   0  0  0  0  0  0  0  0  0  0  0  0
   44.8330   33.7130   40.4220 C   0  0  0  0  0  0  0  0  0  0  0  0
   44.0650   34.0710   41.3500 O   0  0  0  0  0  0  0  0  0  0  0  0
   44.2690   33.1410   39.3370 N   0  0  0  0  0  0  0  0  0  0  0  0
   45.0910   32.7420   38.3100 C   0  0  0  0  0  0  0  0  0  0  0  0
   44.5200   32.2080   37.3080 O   0  0  0  0  0  0  0  0  0  0  0  0
   42.8550   32.9290   39.2110 C   0  0  0  0  0  0  0  0  0  0  0  0
   41.9950   31.9030   39.5260 C   0  0  0  0  0  3  0  0  0  0  0  0
   40.7450   32.2760   39.1680 N   0  0  0  0  0  0  0  0  0  0  0  0
   40.7870   33.5300   38.6270 C   0  0  0  0  0  0  0  0  0  0  0  0
   39.7800   34.3080   38.1300 C   0  0  0  0  0  3  0  0  0  0  0  0
   40.0320   35.5680   37.6170 C   0  0  0  0  0  3  0  0  0  0  0  0
   41.3260   36.0040   37.6280 C   0  0  0  0  0  3  0  0  0  0  0  0
   42.3220   35.2070   38.1320 C   0  0  0  0  0  3  0  0  0  0  0  0
   42.0980   33.9510   38.6470 C   0  0  0  0  0  0  0  0  0  0  0  0
   39.8960   31.7060   39.2840 H   0  0  0  0  0  0  0  0  0  0  0  0
   46.7370   34.4970   41.6580 C   0  0  0  0  0  2  0  0  0  0  0  0
   47.0360   33.6010   42.7340 N   0  0  0  0  0  0  0  0  0  0  0  0
   47.8590   32.5450   42.8670 C   0  0  0  0  0  3  0  0  0  0  0  0
   47.7880   32.0190   44.1090 N   0  0  0  0  0  0  0  0  0  0  0  0
   46.8960   32.7480   44.8040 C   0  0  0  0  0  0  0  0  0  0  0  0
   46.5090   32.5680   46.1140 C   0  0  0  0  0  0  0  0  0  0  0  0
   46.9790   31.6500   46.8270 O   0  0  0  0  0  0  0  0  0  0  0  0
   45.5890   33.4270   46.6160 N   0  0  0  0  0  0  0  0  0  0  0  0
   45.1190   34.4000   45.7940 C   0  0  0  0  0  0  0  0  0  0  0  0
   44.1580   35.2660   46.3810 N   0  0  0  0  0  0  0  0  0  0  0  0
   45.5190   34.5430   44.5240 N   0  0  0  0  0  0  0  0  0  0  0  0
   46.4290   33.7310   43.9500 C   0  0  0  0  0  0  0  0  0  0  0  0
   45.2580   33.3440   47.5870 H   0  0  0  0  0  0  0  0  0  0  0  0
   43.7490   36.0330   45.8270 H   0  0  0  0  0  0  0  0  0  0  0  0
   43.8700   35.1280   47.3600 H   0  0  0  0  0  0  0  0  0  0  0  0
  1  6  1  0  0  0  0
  2  1  2  0  0  0  0
  2  3  1  0  0  0  0
  3  4  2  0  0  0  0
  5  4  1  0  0  0  0
  5  7  1  0  0  0  0
  6  5  2  0  0  0  0
  7  8  1  0  0  0  0
  8  9  2  0  0  0  0
  9 25  1  0  0  0  0
 10  9  1  0  0  0  0
 10 11  2  0  0  0  0
 12 10  1  0  0  0  0
 13  7  1  0  0  0  0
 13 12  1  0  0  0  0
 14 13  2  0  0  0  0
 15 12  1  0  0  0  0
 15 16  2  0  0  0  0
 17 24  1  0  0  0  0
 17 16  1  0  0  0  0
 18 23  1  0  0  0  0
 18 17  1  0  0  0  0
 19 18  2  0  0  0  0
 20 21  2  0  0  0  0
 20 19  1  0  0  0  0
 21 22  1  0  0  0  0
 22 23  2  0  0  0  0
 23 15  1  0  0  0  0
 25 26  1  0  0  0  0
 26 27  1  0  0  0  0
 26 36  1  0  0  0  0
 27 28  2  0  0  0  0
 28 29  1  0  0  0  0
 29 30  1  0  0  0  0
 30 32  1  0  0  0  0
 30 31  2  0  0  0  0
 32 37  1  0  0  0  0
 33 34  1  0  0  0  0
 33 32  1  0  0  0  0
 34 39  1  0  0  0  0
 35 33  2  0  0  0  0
 36 35  1  0  0  0  0
 36 29  2  0  0  0  0
 38 34  1  0  0  0  0
M  END
>  <minimizedAffinity>
-8.14631939

$$$$

 OpenBabel03242509563D

 39 44  0  0  0  0  0  0  0  0999 V2000
   45.9790   31.2600   35.6310 C   0  0  0  0  0  3  0  0  0  0  0  0
   47.3480   30.9420   35.5390 C   0  0  0  0  0  3  0  0  0  0  0  0
   48.1770   31.3550   36.5740 C   0  0  0  0  0  3  0  0  0  0  0  0
   47.6230   32.0410   37.6140 N   0  0  0  0  0  0  0  0  0  0  0  0
   46.3100   32.3290   37.6720 C   0  0  0  0  0  0  0  0  0  0  0  0
   45.4910   31.9430   36.6890 N   0  0  0  0  0  0  0  0  0  0  0  0
   45.8570   33.0510   38.8150 N   0  0  0  0  0  0  0  0  0  0  0  0
   46.6720   33.4140   39.8070 C   0  0  0  0  0  3  0  0  0  0  0  0
   46.0730   34.1040   40.8340 C   0  0  0  0  0  0  0  0  0  0  0  0
   44.7390   34.4180   40.8790 C   0  0  0  0  0  0  0  0  0  0  0  0
   44.1950   35.0490   41.8200 O   0  0  0  0  0  0  0  0  0  0  0  0
   43.9490   34.0330   39.8550 N   0  0  0  0  0  0  0  0  0  0  0  0
   44.5240   33.3410   38.8150 C   0  0  0  0  0  0  0  0  0  0  0  0
   43.7460   32.9960   37.8710 O   0  0  0  0  0  0  0  0  0  0  0  0
   42.5420   34.3090   39.8040 C   0  0  0  0  0  0  0  0  0  0  0  0
   41.7630   35.2790   39.2150 C   0  0  0  0  0  3  0  0  0  0  0  0
   40.4700   35.0230   39.5210 N   0  0  0  0  0  0  0  0  0  0  0  0
   40.4050   33.9020   40.2990 C   0  0  0  0  0  0  0  0  0  0  0  0
   39.3220   33.2700   40.8420 C   0  0  0  0  0  3  0  0  0  0  0  0
   39.4670   32.1310   41.6140 C   0  0  0  0  0  3  0  0  0  0  0  0
   40.7340   31.6620   41.8090 C   0  0  0  0  0  3  0  0  0  0  0  0
   41.8080   32.3110   41.2540 C   0  0  0  0  0  3  0  0  0  0  0  0
   41.6910   33.4450   40.4840 C   0  0  0  0  0  0  0  0  0  0  0  0
   39.6630   35.5850   39.2170 H   0  0  0  0  0  0  0  0  0  0  0  0
   46.8680   34.5530   41.9830 C   0  0  0  0  0  2  0  0  0  0  0  0
   47.0600   33.5820   43.0170 N   0  0  0  0  0  0  0  0  0  0  0  0
   47.8070   32.4680   43.1210 C   0  0  0  0  0  3  0  0  0  0  0  0
   47.6470   31.8800   44.3260 N   0  0  0  0  0  0  0  0  0  0  0  0
   46.7730   32.6260   45.0260 C   0  0  0  0  0  0  0  0  0  0  0  0
   46.3170   32.4010   46.3060 C   0  0  0  0  0  0  0  0  0  0  0  0
   46.6950   31.4160   46.9830 O   0  0  0  0  0  0  0  0  0  0  0  0
   45.4320   33.2890   46.8180 N   0  0  0  0  0  0  0  0  0  0  0  0
   45.0620   34.3360   46.0350 C   0  0  0  0  0  0  0  0  0  0  0  0
   44.1330   35.2300   46.6320 N   0  0  0  0  0  0  0  0  0  0  0  0
   45.5280   34.5220   44.7940 N   0  0  0  0  0  0  0  0  0  0  0  0
   46.4090   33.6850   44.2120 C   0  0  0  0  0  0  0  0  0  0  0  0
   45.0530   33.1750   47.7690 H   0  0  0  0  0  0  0  0  0  0  0  0
   43.8000   36.0510   46.1070 H   0  0  0  0  0  0  0  0  0  0  0  0
   43.7930   35.0580   47.5880 H   0  0  0  0  0  0  0  0  0  0  0  0
  1  6  1  0  0  0  0
  2  1  2  0  0  0  0
  2  3  1  0  0  0  0
  3  4  2  0  0  0  0
  4  5  1  0  0  0  0
  5  7  1  0  0  0  0
  6  5  2  0  0  0  0
  7 13  1  0  0  0  0
  7  8  1  0  0  0  0
  8  9  2  0  0  0  0
  9 10  1  0  0  0  0
  9 25  1  0  0  0  0
 10 11  2  0  0  0  0
 12 10  1  0  0  0  0
 13 12  1  0  0  0  0
 14 13  2  0  0  0  0
 15 12  1  0  0  0  0
 15 23  1  0  0  0  0
 16 17  1  0  0  0  0
 16 15  2  0  0  0  0
 17 18  1  0  0  0  0
 18 23  2  0  0  0  0
 18 19  1  0  0  0  0
 19 20  2  0  0  0  0
 20 21  1  0  0  0  0
 22 21  2  0  0  0  0
 23 22  1  0  0  0  0
 24 17  1  0  0  0  0
 25 26  1  0  0  0  0
 26 27  1  0  0  0  0
 26 36  1  0  0  0  0
 27 28  2  0  0  0  0
 28 29  1  0  0  0  0
 29 30  1  0  0  0  0
 30 32  1  0  0  0  0
 30 31  2  0  0  0  0
 32 37  1  0  0  0  0
 33 34  1  0  0  0  0
 33 32  1  0  0  0  0
 34 39  1  0  0  0  0
 35 33  2  0  0  0  0
 36 35  1  0  0  0  0
 36 29  2  0  0  0  0
 38 34  1  0  0  0  0
M  END
>  <minimizedAffinity>
-8.1414547

$$$$

 OpenBabel03242509563D

 39 44  0  0  0  0  0  0  0  0999 V2000
   40.2810   33.9940   38.5150 C   0  0  0  0  0  3  0  0  0  0  0  0
   39.5020   34.9320   39.2190 C   0  0  0  0  0  3  0  0  0  0  0  0
   40.1010   35.6080   40.2730 C   0  0  0  0  0  3  0  0  0  0  0  0
   41.4020   35.3270   40.5670 N   0  0  0  0  0  0  0  0  0  0  0  0
   42.1210   34.4240   39.8750 C   0  0  0  0  0  0  0  0  0  0  0  0
   41.5670   33.7600   38.8560 N   0  0  0  0  0  0  0  0  0  0  0  0
   43.4720   34.2240   40.2840 N   0  0  0  0  0  0  0  0  0  0  0  0
   44.0300   34.9050   41.2860 C   0  0  0  0  0  3  0  0  0  0  0  0
   45.3430   34.5900   41.5490 C   0  0  0  0  0  0  0  0  0  0  0  0
   46.0650   33.6520   40.8580 C   0  0  0  0  0  0  0  0  0  0  0  0
   47.2640   33.3670   41.1020 O   0  0  0  0  0  0  0  0  0  0  0  0
   45.4620   32.9850   39.8510 N   0  0  0  0  0  0  0  0  0  0  0  0
   44.1500   33.2820   39.5680 C   0  0  0  0  0  0  0  0  0  0  0  0
   43.6210   32.6320   38.6130 O   0  0  0  0  0  0  0  0  0  0  0  0
   46.1290   31.9860   39.0660 C   0  0  0  0  0  0  0  0  0  0  0  0
   46.1610   30.6100   39.0690 C   0  0  0  0  0  3  0  0  0  0  0  0
   46.9850   30.2070   38.0740 N   0  0  0  0  0  0  0  0  0  0  0  0
   47.4820   31.3030   37.4290 C   0  0  0  0  0  0  0  0  0  0  0  0
   48.3440   31.3860   36.3710 C   0  0  0  0  0  3  0  0  0  0  0  0
   48.7330   32.6100   35.8560 C   0  0  0  0  0  3  0  0  0  0  0  0
   48.2230   33.7300   36.4450 C   0  0  0  0  0  3  0  0  0  0  0  0
   47.3590   33.6250   37.5060 C   0  0  0  0  0  3  0  0  0  0  0  0
   46.9570   32.4210   38.0370 C   0  0  0  0  0  0  0  0  0  0  0  0
   47.2030   29.2280   37.8410 H   0  0  0  0  0  0  0  0  0  0  0  0
   46.0630   35.2770   42.6270 C   0  0  0  0  0  2  0  0  0  0  0  0
   45.6130   34.9830   43.9540 N   0  0  0  0  0  0  0  0  0  0  0  0
   44.7840   35.6020   44.8150 C   0  0  0  0  0  3  0  0  0  0  0  0
   44.6740   34.9140   45.9720 N   0  0  0  0  0  0  0  0  0  0  0  0
   45.4510   33.8210   45.8650 C   0  0  0  0  0  0  0  0  0  0  0  0
   45.6420   32.8360   46.8090 C   0  0  0  0  0  0  0  0  0  0  0  0
   45.0770   32.8670   47.9270 O   0  0  0  0  0  0  0  0  0  0  0  0
   46.4750   31.8170   46.4870 N   0  0  0  0  0  0  0  0  0  0  0  0
   47.0570   31.8410   45.2610 C   0  0  0  0  0  0  0  0  0  0  0  0
   47.9180   30.7440   44.9860 N   0  0  0  0  0  0  0  0  0  0  0  0
   46.8470   32.8170   44.3680 N   0  0  0  0  0  0  0  0  0  0  0  0
   46.0340   33.8640   44.6110 C   0  0  0  0  0  0  0  0  0  0  0  0
   46.6600   31.0520   47.1510 H   0  0  0  0  0  0  0  0  0  0  0  0
   48.4010   30.6840   44.0780 H   0  0  0  0  0  0  0  0  0  0  0  0
   48.0600   30.0100   45.6940 H   0  0  0  0  0  0  0  0  0  0  0  0
  1  6  2  0  0  0  0
  1  2  1  0  0  0  0
  2  3  2  0  0  0  0
  3  4  1  0  0  0  0
  5  7  1  0  0  0  0
  5  4  2  0  0  0  0
  6  5  1  0  0  0  0
  7  8  1  0  0  0  0
  8  9  2  0  0  0  0
  9 25  1  0  0  0  0
 10 11  2  0  0  0  0
 10  9  1  0  0  0  0
 12 10  1  0  0  0  0
 13 12  1  0  0  0  0
 13  7  1  0  0  0  0
 14 13  2  0  0  0  0
 15 16  2  0  0  0  0
 15 12  1  0  0  0  0
 17 16  1  0  0  0  0
 18 23  1  0  0  0  0
 18 17  1  0  0  0  0
 19 18  2  0  0  0  0
 20 19  1  0  0  0  0
 20 21  2  0  0  0  0
 21 22  1  0  0  0  0
 22 23  2  0  0  0  0
 23 15  1  0  0  0  0
 24 17  1  0  0  0  0
 25 26  1  0  0  0  0
 26 36  1  0  0  0  0
 26 27  1  0  0  0  0
 27 28  2  0  0  0  0
 29 28  1  0  0  0  0
 29 30  1  0  0  0  0
 30 31  2  0  0  0  0
 32 30  1  0  0  0  0
 32 37  1  0  0  0  0
 33 32  1  0  0  0  0
 34 33  1  0  0  0  0
 34 39  1  0  0  0  0
 35 36  1  0  0  0  0
 35 33  2  0  0  0  0
 36 29  2  0  0  0  0
 38 34  1  0  0  0  0
M  END
>  <minimizedAffinity>
-7.7569232

$$$$

 OpenBabel03242509563D

 39 44  0  0  0  0  0  0  0  0999 V2000
   47.6080   31.2920   36.7650 C   0  0  0  0  0  3  0  0  0  0  0  0
   48.9950   31.4950   36.9080 C   0  0  0  0  0  3  0  0  0  0  0  0
   49.4240   32.3130   37.9440 C   0  0  0  0  0  3  0  0  0  0  0  0
   48.4860   32.8730   38.7590 N   0  0  0  0  0  0  0  0  0  0  0  0
   47.1670   32.6600   38.5970 C   0  0  0  0  0  0  0  0  0  0  0  0
   46.7290   31.8760   37.6070 N   0  0  0  0  0  0  0  0  0  0  0  0
   46.2900   33.3040   39.5190 N   0  0  0  0  0  0  0  0  0  0  0  0
   46.7320   34.0670   40.5200 C   0  0  0  0  0  3  0  0  0  0  0  0
   45.7530   34.6120   41.3170 C   0  0  0  0  0  0  0  0  0  0  0  0
   44.4090   34.4140   41.1340 C   0  0  0  0  0  0  0  0  0  0  0  0
   43.5170   34.9140   41.8640 O   0  0  0  0  0  0  0  0  0  0  0  0
   44.0040   33.6350   40.1070 N   0  0  0  0  0  0  0  0  0  0  0  0
   44.9640   33.0780   39.2960 C   0  0  0  0  0  0  0  0  0  0  0  0
   44.5410   32.3520   38.3430 O   0  0  0  0  0  0  0  0  0  0  0  0
   42.6230   33.3630   39.8290 C   0  0  0  0  0  0  0  0  0  0  0  0
   41.7300   32.3870   40.2080 C   0  0  0  0  0  3  0  0  0  0  0  0
   40.5420   32.6530   39.6180 N   0  0  0  0  0  0  0  0  0  0  0  0
   40.6560   33.7870   38.8660 C   0  0  0  0  0  0  0  0  0  0  0  0
   39.7260   34.4320   38.1000 C   0  0  0  0  0  3  0  0  0  0  0  0
   40.0440   35.5850   37.4020 C   0  0  0  0  0  3  0  0  0  0  0  0
   41.3220   36.0520   37.5100 C   0  0  0  0  0  3  0  0  0  0  0  0
   42.2400   35.3890   38.2850 C   0  0  0  0  0  3  0  0  0  0  0  0
   41.9500   34.2430   38.9870 C   0  0  0  0  0  0  0  0  0  0  0  0
   39.6860   32.0880   39.7190 H   0  0  0  0  0  0  0  0  0  0  0  0
   46.1180   35.4660   42.4520 C   0  0  0  0  0  2  0  0  0  0  0  0
   45.7620   34.9610   43.7430 N   0  0  0  0  0  0  0  0  0  0  0  0
   44.9530   35.3990   44.7250 C   0  0  0  0  0  3  0  0  0  0  0  0
   44.9470   34.5490   45.7740 N   0  0  0  0  0  0  0  0  0  0  0  0
   45.7730   33.5310   45.4720 C   0  0  0  0  0  0  0  0  0  0  0  0
   46.0700   32.4360   46.2520 C   0  0  0  0  0  0  0  0  0  0  0  0
   45.5700   32.2730   47.3900 O   0  0  0  0  0  0  0  0  0  0  0  0
   46.9350   31.5250   45.7450 N   0  0  0  0  0  0  0  0  0  0  0  0
   47.4430   31.7570   44.5060 C   0  0  0  0  0  0  0  0  0  0  0  0
   48.3430   30.7650   44.0330 N   0  0  0  0  0  0  0  0  0  0  0  0
   47.1300   32.8360   43.7770 N   0  0  0  0  0  0  0  0  0  0  0  0
   46.2790   33.7870   44.2100 C   0  0  0  0  0  0  0  0  0  0  0  0
   47.1990   30.6850   46.2800 H   0  0  0  0  0  0  0  0  0  0  0  0
   48.7740   30.8630   43.1020 H   0  0  0  0  0  0  0  0  0  0  0  0
   48.5640   29.9480   44.6190 H   0  0  0  0  0  0  0  0  0  0  0  0
  1  2  2  0  0  0  0
  1  6  1  0  0  0  0
  2  3  1  0  0  0  0
  3  4  2  0  0  0  0
  5  4  1  0  0  0  0
  5  7  1  0  0  0  0
  6  5  2  0  0  0  0
  7  8  1  0  0  0  0
  8  9  2  0  0  0  0
  9 25  1  0  0  0  0
 10  9  1  0  0  0  0
 10 11  2  0  0  0  0
 12 10  1  0  0  0  0
 13  7  1  0  0  0  0
 13 12  1  0  0  0  0
 14 13  2  0  0  0  0
 15 12  1  0  0  0  0
 15 16  2  0  0  0  0
 17 24  1  0  0  0  0
 17 16  1  0  0  0  0
 18 23  1  0  0  0  0
 18 17  1  0  0  0  0
 19 18  2  0  0  0  0
 20 21  2  0  0  0  0
 20 19  1  0  0  0  0
 21 22  1  0  0  0  0
 22 23  2  0  0  0  0
 23 15  1  0  0  0  0
 25 26  1  0  0  0  0
 26 36  1  0  0  0  0
 26 27  1  0  0  0  0
 27 28  2  0  0  0  0
 29 28  1  0  0  0  0
 29 30  1  0  0  0  0
 30 31  2  0  0  0  0
 32 30  1  0  0  0  0
 32 37  1  0  0  0  0
 33 32  1  0  0  0  0
 34 33  1  0  0  0  0
 34 39  1  0  0  0  0
 35 36  1  0  0  0  0
 35 33  2  0  0  0  0
 36 29  2  0  0  0  0
 38 34  1  0  0  0  0
M  END
>  <minimizedAffinity>
-7.74052477

$$$$

 OpenBabel03242509563D

 39 44  0  0  0  0  0  0  0  0999 V2000
   40.5150   34.7480   39.1780 C   0  0  0  0  0  3  0  0  0  0  0  0
   40.0360   35.4760   40.2840 C   0  0  0  0  0  3  0  0  0  0  0  0
   40.9300   35.7620   41.3070 C   0  0  0  0  0  3  0  0  0  0  0  0
   42.2140   35.3230   41.1850 N   0  0  0  0  0  0  0  0  0  0  0  0
   42.6430   34.6280   40.1150 C   0  0  0  0  0  0  0  0  0  0  0  0
   41.8020   34.3410   39.1170 N   0  0  0  0  0  0  0  0  0  0  0  0
   44.0120   34.2280   40.1100 N   0  0  0  0  0  0  0  0  0  0  0  0
   44.8560   34.5370   41.0960 C   0  0  0  0  0  3  0  0  0  0  0  0
   46.1410   34.0740   40.9340 C   0  0  0  0  0  0  0  0  0  0  0  0
   46.5680   33.3450   39.8540 C   0  0  0  0  0  0  0  0  0  0  0  0
   47.7430   32.9240   39.7100 O   0  0  0  0  0  0  0  0  0  0  0  0
   45.6810   33.0540   38.8790 N   0  0  0  0  0  0  0  0  0  0  0  0
   44.3900   33.5050   39.0170 C   0  0  0  0  0  0  0  0  0  0  0  0
   43.5880   33.2100   38.0770 O   0  0  0  0  0  0  0  0  0  0  0  0
   46.0260   32.2990   37.7080 C   0  0  0  0  0  0  0  0  0  0  0  0
   46.4900   32.6140   36.4510 C   0  0  0  0  0  3  0  0  0  0  0  0
   46.6350   31.4630   35.7560 N   0  0  0  0  0  0  0  0  0  0  0  0
   46.2720   30.4100   36.5470 C   0  0  0  0  0  0  0  0  0  0  0  0
   46.2540   29.0700   36.2750 C   0  0  0  0  0  3  0  0  0  0  0  0
   45.8460   28.1510   37.2250 C   0  0  0  0  0  3  0  0  0  0  0  0
   45.4620   28.6330   38.4430 C   0  0  0  0  0  3  0  0  0  0  0  0
   45.4880   29.9820   38.6950 C   0  0  0  0  0  3  0  0  0  0  0  0
   45.8900   30.9160   37.7690 C   0  0  0  0  0  0  0  0  0  0  0  0
   46.9660   31.3910   34.7830 H   0  0  0  0  0  0  0  0  0  0  0  0
   47.1590   34.3540   41.9520 C   0  0  0  0  0  2  0  0  0  0  0  0
   47.2390   33.4050   43.0210 N   0  0  0  0  0  0  0  0  0  0  0  0
   47.9200   32.2590   43.2000 C   0  0  0  0  0  3  0  0  0  0  0  0
   47.6590   31.7150   44.4080 N   0  0  0  0  0  0  0  0  0  0  0  0
   46.7850   32.5250   45.0330 C   0  0  0  0  0  0  0  0  0  0  0  0
   46.2430   32.3600   46.2890 C   0  0  0  0  0  0  0  0  0  0  0  0
   46.5290   31.3780   47.0140 O   0  0  0  0  0  0  0  0  0  0  0  0
   45.3770   33.3070   46.7240 N   0  0  0  0  0  0  0  0  0  0  0  0
   45.1080   34.3470   45.8920 C   0  0  0  0  0  0  0  0  0  0  0  0
   44.1930   35.3040   46.4070 N   0  0  0  0  0  0  0  0  0  0  0  0
   45.6550   34.4730   44.6760 N   0  0  0  0  0  0  0  0  0  0  0  0
   46.5240   33.5760   44.1710 C   0  0  0  0  0  0  0  0  0  0  0  0
   44.9370   33.2400   47.6520 H   0  0  0  0  0  0  0  0  0  0  0  0
   43.9340   36.1250   45.8420 H   0  0  0  0  0  0  0  0  0  0  0  0
   43.7890   35.1770   47.3460 H   0  0  0  0  0  0  0  0  0  0  0  0
  1  2  1  0  0  0  0
  2  3  2  0  0  0  0
  4  3  1  0  0  0  0
  5  4  2  0  0  0  0
  6  1  2  0  0  0  0
  6  5  1  0  0  0  0
  7  5  1  0  0  0  0
  7  8  1  0  0  0  0
  9  8  2  0  0  0  0
  9 25  1  0  0  0  0
 10  9  1  0  0  0  0
 11 10  2  0  0  0  0
 12 13  1  0  0  0  0
 12 10  1  0  0  0  0
 13  7  1  0  0  0  0
 14 13  2  0  0  0  0
 15 23  1  0  0  0  0
 15 12  1  0  0  0  0
 16 15  2  0  0  0  0
 17 16  1  0  0  0  0
 17 18  1  0  0  0  0
 18 23  1  0  0  0  0
 19 18  2  0  0  0  0
 19 20  1  0  0  0  0
 20 21  2  0  0  0  0
 21 22  1  0  0  0  0
 23 22  2  0  0  0  0
 24 17  1  0  0  0  0
 25 26  1  0  0  0  0
 26 27  1  0  0  0  0
 26 36  1  0  0  0  0
 27 28  2  0  0  0  0
 28 29  1  0  0  0  0
 29 30  1  0  0  0  0
 30 32  1  0  0  0  0
 30 31  2  0  0  0  0
 32 37  1  0  0  0  0
 33 34  1  0  0  0  0
 33 32  1  0  0  0  0
 34 39  1  0  0  0  0
 35 33  2  0  0  0  0
 36 35  1  0  0  0  0
 36 29  2  0  0  0  0
 38 34  1  0  0  0  0
M  END
>  <minimizedAffinity>
-7.61044884

$$$$

 OpenBabel03242509563D

 39 44  0  0  0  0  0  0  0  0999 V2000
   48.6870   35.6140   41.0590 C   0  0  0  0  0  3  0  0  0  0  0  0
   49.7130   35.4620   42.0120 C   0  0  0  0  0  3  0  0  0  0  0  0
   49.5350   34.5100   43.0060 C   0  0  0  0  0  3  0  0  0  0  0  0
   48.3840   33.7800   43.0050 N   0  0  0  0  0  0  0  0  0  0  0  0
   47.4210   33.9490   42.0800 C   0  0  0  0  0  0  0  0  0  0  0  0
   47.5690   34.8590   41.1130 N   0  0  0  0  0  0  0  0  0  0  0  0
   46.2660   33.1210   42.1910 N   0  0  0  0  0  0  0  0  0  0  0  0
   46.1310   32.1960   43.1430 C   0  0  0  0  0  3  0  0  0  0  0  0
   44.9550   31.4840   43.1060 C   0  0  0  0  0  0  0  0  0  0  0  0
   43.9650   31.6750   42.1770 C   0  0  0  0  0  0  0  0  0  0  0  0
   42.8920   31.0220   42.1480 O   0  0  0  0  0  0  0  0  0  0  0  0
   44.1410   32.6220   41.2310 N   0  0  0  0  0  0  0  0  0  0  0  0
   45.3090   33.3480   41.2460 C   0  0  0  0  0  0  0  0  0  0  0  0
   45.4350   34.2280   40.3390 O   0  0  0  0  0  0  0  0  0  0  0  0
   43.1690   32.9010   40.2140 C   0  0  0  0  0  0  0  0  0  0  0  0
   42.9040   32.3990   38.9600 C   0  0  0  0  0  3  0  0  0  0  0  0
   41.8400   33.0670   38.4560 N   0  0  0  0  0  0  0  0  0  0  0  0
   41.4160   33.9910   39.3680 C   0  0  0  0  0  0  0  0  0  0  0  0
   40.3840   34.8860   39.2990 C   0  0  0  0  0  3  0  0  0  0  0  0
   40.1130   35.7510   40.3440 C   0  0  0  0  0  3  0  0  0  0  0  0
   40.9150   35.6760   41.4460 C   0  0  0  0  0  3  0  0  0  0  0  0
   41.9450   34.7700   41.4960 C   0  0  0  0  0  3  0  0  0  0  0  0
   42.2350   33.9000   40.4710 C   0  0  0  0  0  0  0  0  0  0  0  0
   41.4180   32.9040   37.5310 H   0  0  0  0  0  0  0  0  0  0  0  0
   44.6960   30.4380   44.1010 C   0  0  0  0  0  2  0  0  0  0  0  0
   45.8310   30.0210   44.8680 N   0  0  0  0  0  0  0  0  0  0  0  0
   46.7730   29.0760   44.7010 C   0  0  0  0  0  3  0  0  0  0  0  0
   47.6560   29.0740   45.7230 N   0  0  0  0  0  0  0  0  0  0  0  0
   47.2810   30.0410   46.5800 C   0  0  0  0  0  0  0  0  0  0  0  0
   47.8930   30.3940   47.7630 C   0  0  0  0  0  0  0  0  0  0  0  0
   48.9220   29.8120   48.1790 O   0  0  0  0  0  0  0  0  0  0  0  0
   47.3400   31.4060   48.4730 N   0  0  0  0  0  0  0  0  0  0  0  0
   46.2260   31.9980   47.9680 C   0  0  0  0  0  0  0  0  0  0  0  0
   45.6970   33.0520   48.7610 N   0  0  0  0  0  0  0  0  0  0  0  0
   45.6590   31.6260   46.8140 N   0  0  0  0  0  0  0  0  0  0  0  0
   46.1470   30.6300   46.0490 C   0  0  0  0  0  0  0  0  0  0  0  0
   47.7500   31.7160   49.3650 H   0  0  0  0  0  0  0  0  0  0  0  0
   44.8530   33.5540   48.4520 H   0  0  0  0  0  0  0  0  0  0  0  0
   46.1560   33.3120   49.6450 H   0  0  0  0  0  0  0  0  0  0  0  0
  1  6  2  0  0  0  0
  1  2  1  0  0  0  0
  2  3  2  0  0  0  0
  4  3  1  0  0  0  0
  5  7  1  0  0  0  0
  5  4  2  0  0  0  0
  6  5  1  0  0  0  0
  7  8  1  0  0  0  0
  9  8  2  0  0  0  0
  9 25  1  0  0  0  0
 10  9  1  0  0  0  0
 11 10  2  0  0  0  0
 12 13  1  0  0  0  0
 12 10  1  0  0  0  0
 13  7  1  0  0  0  0
 14 13  2  0  0  0  0
 15 23  1  0  0  0  0
 15 12  1  0  0  0  0
 16 15  2  0  0  0  0
 17 16  1  0  0  0  0
 17 18  1  0  0  0  0
 18 23  1  0  0  0  0
 19 18  2  0  0  0  0
 19 20  1  0  0  0  0
 20 21  2  0  0  0  0
 21 22  1  0  0  0  0
 23 22  2  0  0  0  0
 24 17  1  0  0  0  0
 25 26  1  0  0  0  0
 26 36  1  0  0  0  0
 27 26  1  0  0  0  0
 27 28  2  0  0  0  0
 28 29  1  0  0  0  0
 29 30  1  0  0  0  0
 30 31  2  0  0  0  0
 30 32  1  0  0  0  0
 32 37  1  0  0  0  0
 33 32  1  0  0  0  0
 33 34  1  0  0  0  0
 34 39  1  0  0  0  0
 35 33  2  0  0  0  0
 36 29  2  0  0  0  0
 36 35  1  0  0  0  0
 38 34  1  0  0  0  0
M  END
>  <minimizedAffinity>
-7.27978277

$$$$

 OpenBabel03242509563D

 39 44  0  0  0  0  0  0  0  0999 V2000
   41.3130   32.1160   39.7190 C   0  0  0  0  0  3  0  0  0  0  0  0
   41.4480   31.7900   38.3560 C   0  0  0  0  0  3  0  0  0  0  0  0
   42.6780   32.0220   37.7540 C   0  0  0  0  0  3  0  0  0  0  0  0
   43.6790   32.5510   38.5120 N   0  0  0  0  0  0  0  0  0  0  0  0
   43.5200   32.8530   39.8140 C   0  0  0  0  0  0  0  0  0  0  0  0
   42.3460   32.6380   40.4150 N   0  0  0  0  0  0  0  0  0  0  0  0
   44.6470   33.4000   40.4940 N   0  0  0  0  0  0  0  0  0  0  0  0
   45.8250   33.5900   39.8970 C   0  0  0  0  0  3  0  0  0  0  0  0
   46.8070   34.1260   40.6970 C   0  0  0  0  0  0  0  0  0  0  0  0
   46.6340   34.4560   42.0170 C   0  0  0  0  0  0  0  0  0  0  0  0
   47.5340   34.9450   42.7440 O   0  0  0  0  0  0  0  0  0  0  0  0
   45.4250   34.2480   42.5810 N   0  0  0  0  0  0  0  0  0  0  0  0
   44.4270   33.7120   41.8030 C   0  0  0  0  0  0  0  0  0  0  0  0
   43.3060   33.5320   42.3730 O   0  0  0  0  0  0  0  0  0  0  0  0
   45.1400   34.5560   43.9530 C   0  0  0  0  0  0  0  0  0  0  0  0
   44.5750   35.6250   44.6110 C   0  0  0  0  0  3  0  0  0  0  0  0
   44.5680   35.3480   45.9350 N   0  0  0  0  0  0  0  0  0  0  0  0
   45.1200   34.1150   46.1400 C   0  0  0  0  0  0  0  0  0  0  0  0
   45.3220   33.4240   47.3020 C   0  0  0  0  0  3  0  0  0  0  0  0
   45.9070   32.1700   47.2990 C   0  0  0  0  0  3  0  0  0  0  0  0
   46.2730   31.6500   46.0900 C   0  0  0  0  0  3  0  0  0  0  0  0
   46.0600   32.3610   44.9360 C   0  0  0  0  0  3  0  0  0  0  0  0
   45.4820   33.6080   44.9120 C   0  0  0  0  0  0  0  0  0  0  0  0
   44.2050   35.9690   46.6720 H   0  0  0  0  0  0  0  0  0  0  0  0
   48.1450   34.3770   40.1520 C   0  0  0  0  0  2  0  0  0  0  0  0
   48.8990   33.2110   39.8040 N   0  0  0  0  0  0  0  0  0  0  0  0
   49.5910   32.3020   40.5140 C   0  0  0  0  0  3  0  0  0  0  0  0
   50.1370   31.3630   39.7120 N   0  0  0  0  0  0  0  0  0  0  0  0
   49.7950   31.6660   38.4460 C   0  0  0  0  0  0  0  0  0  0  0  0
   50.1330   30.9790   37.3010 C   0  0  0  0  0  0  0  0  0  0  0  0
   50.8370   29.9420   37.3300 O   0  0  0  0  0  0  0  0  0  0  0  0
   49.6750   31.4670   36.1230 N   0  0  0  0  0  0  0  0  0  0  0  0
   48.9160   32.5930   36.1580 C   0  0  0  0  0  0  0  0  0  0  0  0
   48.4680   33.0520   34.8900 N   0  0  0  0  0  0  0  0  0  0  0  0
   48.6080   33.2340   37.2930 N   0  0  0  0  0  0  0  0  0  0  0  0
   49.0250   32.8140   38.5030 C   0  0  0  0  0  0  0  0  0  0  0  0
   49.8940   30.9990   35.2330 H   0  0  0  0  0  0  0  0  0  0  0  0
   47.8870   33.9000   34.8260 H   0  0  0  0  0  0  0  0  0  0  0  0
   48.7230   32.5360   34.0360 H   0  0  0  0  0  0  0  0  0  0  0  0
  1  6  1  0  0  0  0
  2  1  2  0  0  0  0
  3  2  1  0  0  0  0
  3  4  2  0  0  0  0
  4  5  1  0  0  0  0
  5  6  2  0  0  0  0
  5  7  1  0  0  0  0
  7 13  1  0  0  0  0
  8  7  1  0  0  0  0
  8  9  2  0  0  0  0
  9 10  1  0  0  0  0
 10 12  1  0  0  0  0
 10 11  2  0  0  0  0
 12 15  1  0  0  0  0
 13 14  2  0  0  0  0
 13 12  1  0  0  0  0
 15 16  2  0  0  0  0
 15 23  1  0  0  0  0
 16 17  1  0  0  0  0
 17 18  1  0  0  0  0
 17 24  1  0  0  0  0
 18 19  1  0  0  0  0
 20 19  2  0  0  0  0
 21 20  1  0  0  0  0
 22 21  2  0  0  0  0
 23 22  1  0  0  0  0
 23 18  2  0  0  0  0
 25  9  1  0  0  0  0
 26 25  1  0  0  0  0
 26 27  1  0  0  0  0
 28 27  2  0  0  0  0
 29 36  2  0  0  0  0
 29 28  1  0  0  0  0
 30 31  2  0  0  0  0
 30 29  1  0  0  0  0
 32 33  1  0  0  0  0
 32 30  1  0  0  0  0
 33 35  2  0  0  0  0
 34 33  1  0  0  0  0
 35 36  1  0  0  0  0
 36 26  1  0  0  0  0
 37 32  1  0  0  0  0
 38 34  1  0  0  0  0
 39 34  1  0  0  0  0
M  END
>  <minimizedAffinity>
-7.26865005

$$$$

 OpenBabel03242509563D

 39 44  0  0  0  0  0  0  0  0999 V2000
   41.0180   32.4290   39.7800 C   0  0  0  0  0  3  0  0  0  0  0  0
   41.0970   32.1220   38.4080 C   0  0  0  0  0  3  0  0  0  0  0  0
   42.3170   32.3100   37.7740 C   0  0  0  0  0  3  0  0  0  0  0  0
   43.3640   32.7810   38.5090 N   0  0  0  0  0  0  0  0  0  0  0  0
   43.2570   33.0650   39.8200 C   0  0  0  0  0  0  0  0  0  0  0  0
   42.0930   32.8920   40.4540 N   0  0  0  0  0  0  0  0  0  0  0  0
   44.4280   33.5500   40.4740 N   0  0  0  0  0  0  0  0  0  0  0  0
   45.5950   33.6990   39.8450 C   0  0  0  0  0  3  0  0  0  0  0  0
   46.6230   34.1770   40.6230 C   0  0  0  0  0  0  0  0  0  0  0  0
   46.5040   34.4890   41.9520 C   0  0  0  0  0  0  0  0  0  0  0  0
   47.4470   34.9260   42.6600 O   0  0  0  0  0  0  0  0  0  0  0  0
   45.3050   34.3250   42.5510 N   0  0  0  0  0  0  0  0  0  0  0  0
   44.2610   33.8480   41.7940 C   0  0  0  0  0  0  0  0  0  0  0  0
   43.1500   33.7070   42.3950 O   0  0  0  0  0  0  0  0  0  0  0  0
   45.0750   34.6210   43.9360 C   0  0  0  0  0  0  0  0  0  0  0  0
   44.5710   35.6980   44.6270 C   0  0  0  0  0  3  0  0  0  0  0  0
   44.5960   35.4000   45.9470 N   0  0  0  0  0  0  0  0  0  0  0  0
   45.1090   34.1440   46.1150 C   0  0  0  0  0  0  0  0  0  0  0  0
   45.3220   33.4270   47.2580 C   0  0  0  0  0  3  0  0  0  0  0  0
   45.8590   32.1520   47.2170 C   0  0  0  0  0  3  0  0  0  0  0  0
   46.1670   31.6400   45.9900 C   0  0  0  0  0  3  0  0  0  0  0  0
   45.9450   32.3770   44.8540 C   0  0  0  0  0  3  0  0  0  0  0  0
   45.4120   33.6450   44.8680 C   0  0  0  0  0  0  0  0  0  0  0  0
   44.2800   36.0210   46.7050 H   0  0  0  0  0  0  0  0  0  0  0  0
   47.9540   34.3790   40.0410 C   0  0  0  0  0  2  0  0  0  0  0  0
   48.5210   33.2380   39.3870 N   0  0  0  0  0  0  0  0  0  0  0  0
   48.3440   32.6740   38.1790 C   0  0  0  0  0  3  0  0  0  0  0  0
   49.1310   31.5870   38.0230 N   0  0  0  0  0  0  0  0  0  0  0  0
   49.8380   31.4370   39.1580 C   0  0  0  0  0  0  0  0  0  0  0  0
   50.7650   30.4580   39.4420 C   0  0  0  0  0  0  0  0  0  0  0  0
   51.0560   29.5580   38.6200 O   0  0  0  0  0  0  0  0  0  0  0  0
   51.3620   30.4990   40.6580 N   0  0  0  0  0  0  0  0  0  0  0  0
   51.0040   31.4990   41.5040 C   0  0  0  0  0  0  0  0  0  0  0  0
   51.6660   31.4850   42.7620 N   0  0  0  0  0  0  0  0  0  0  0  0
   50.0970   32.4330   41.1920 N   0  0  0  0  0  0  0  0  0  0  0  0
   49.4590   32.4630   40.0060 C   0  0  0  0  0  0  0  0  0  0  0  0
   52.0620   29.7950   40.9310 H   0  0  0  0  0  0  0  0  0  0  0  0
   51.4540   32.2080   43.4630 H   0  0  0  0  0  0  0  0  0  0  0  0
   52.3580   30.7510   42.9710 H   0  0  0  0  0  0  0  0  0  0  0  0
  1  6  1  0  0  0  0
  2  1  2  0  0  0  0
  3  2  1  0  0  0  0
  3  4  2  0  0  0  0
  4  5  1  0  0  0  0
  5  6  2  0  0  0  0
  5  7  1  0  0  0  0
  7 13  1  0  0  0  0
  8  7  1  0  0  0  0
  8  9  2  0  0  0  0
  9 10  1  0  0  0  0
 10 12  1  0  0  0  0
 10 11  2  0  0  0  0
 12 15  1  0  0  0  0
 13 14  2  0  0  0  0
 13 12  1  0  0  0  0
 15 16  2  0  0  0  0
 15 23  1  0  0  0  0
 16 17  1  0  0  0  0
 17 18  1  0  0  0  0
 17 24  1  0  0  0  0
 18 19  1  0  0  0  0
 20 19  2  0  0  0  0
 21 20  1  0  0  0  0
 22 23  1  0  0  0  0
 22 21  2  0  0  0  0
 23 18  2  0  0  0  0
 25  9  1  0  0  0  0
 26 36  1  0  0  0  0
 26 25  1  0  0  0  0
 27 26  1  0  0  0  0
 28 27  2  0  0  0  0
 28 29  1  0  0  0  0
 29 30  1  0  0  0  0
 29 36  2  0  0  0  0
 30 32  1  0  0  0  0
 31 30  2  0  0  0  0
 32 37  1  0  0  0  0
 32 33  1  0  0  0  0
 33 34  1  0  0  0  0
 34 39  1  0  0  0  0
 34 38  1  0  0  0  0
 35 33  2  0  0  0  0
 36 35  1  0  0  0  0
M  END
>  <minimizedAffinity>
-7.03326654

$$$$

 OpenBabel03242509563D

 39 44  0  0  0  0  0  0  0  0999 V2000
   49.4530   35.0270   42.6190 C   0  0  0  0  0  3  0  0  0  0  0  0
   49.3010   35.6960   41.3890 C   0  0  0  0  0  3  0  0  0  0  0  0
   48.2780   35.2780   40.5480 C   0  0  0  0  0  3  0  0  0  0  0  0
   47.4830   34.2500   40.9580 N   0  0  0  0  0  0  0  0  0  0  0  0
   47.6530   33.6300   42.1400 C   0  0  0  0  0  0  0  0  0  0  0  0
   48.6310   34.0140   42.9670 N   0  0  0  0  0  0  0  0  0  0  0  0
   46.7520   32.5690   42.4490 N   0  0  0  0  0  0  0  0  0  0  0  0
   45.7620   32.2040   41.6330 C   0  0  0  0  0  3  0  0  0  0  0  0
   44.9860   31.1620   42.0840 C   0  0  0  0  0  0  0  0  0  0  0  0
   45.1770   30.5170   43.2780 C   0  0  0  0  0  0  0  0  0  0  0  0
   44.4640   29.5650   43.6860 O   0  0  0  0  0  0  0  0  0  0  0  0
   46.1910   30.9170   44.0740 N   0  0  0  0  0  0  0  0  0  0  0  0
   46.9820   31.9570   43.6460 C   0  0  0  0  0  0  0  0  0  0  0  0
   47.9250   32.3030   44.4250 O   0  0  0  0  0  0  0  0  0  0  0  0
   46.4760   30.3100   45.3420 C   0  0  0  0  0  0  0  0  0  0  0  0
   47.0460   29.1240   45.7450 C   0  0  0  0  0  3  0  0  0  0  0  0
   47.0490   29.0970   47.0980 N   0  0  0  0  0  0  0  0  0  0  0  0
   46.4900   30.2500   47.5720 C   0  0  0  0  0  0  0  0  0  0  0  0
   46.2830   30.6620   48.8590 C   0  0  0  0  0  3  0  0  0  0  0  0
   45.6920   31.8830   49.1360 C   0  0  0  0  0  3  0  0  0  0  0  0
   45.3260   32.6580   48.0730 C   0  0  0  0  0  3  0  0  0  0  0  0
   45.5430   32.2250   46.7900 C   0  0  0  0  0  3  0  0  0  0  0  0
   46.1280   31.0170   46.4880 C   0  0  0  0  0  0  0  0  0  0  0  0
   47.4140   28.3280   47.6780 H   0  0  0  0  0  0  0  0  0  0  0  0
   43.8640   30.6750   41.2730 C   0  0  0  0  0  2  0  0  0  0  0  0
   42.6330   31.3890   41.4310 N   0  0  0  0  0  0  0  0  0  0  0  0
   41.5780   31.2560   42.2540 C   0  0  0  0  0  3  0  0  0  0  0  0
   40.6420   32.1980   42.0100 N   0  0  0  0  0  0  0  0  0  0  0  0
   41.0960   32.9650   41.0020 C   0  0  0  0  0  0  0  0  0  0  0  0
   40.4670   34.0470   40.4250 C   0  0  0  0  0  0  0  0  0  0  0  0
   39.3410   34.4440   40.8080 O   0  0  0  0  0  0  0  0  0  0  0  0
   41.1130   34.6780   39.4150 N   0  0  0  0  0  0  0  0  0  0  0  0
   42.3300   34.2000   39.0470 C   0  0  0  0  0  0  0  0  0  0  0  0
   42.9530   34.9060   37.9830 N   0  0  0  0  0  0  0  0  0  0  0  0
   42.9090   33.1440   39.6320 N   0  0  0  0  0  0  0  0  0  0  0  0
   42.3340   32.4620   40.6420 C   0  0  0  0  0  0  0  0  0  0  0  0
   40.6950   35.4910   38.9430 H   0  0  0  0  0  0  0  0  0  0  0  0
   43.8790   34.6100   37.6420 H   0  0  0  0  0  0  0  0  0  0  0  0
   42.4800   35.7130   37.5540 H   0  0  0  0  0  0  0  0  0  0  0  0
  1  6  1  0  0  0  0
  2  1  2  0  0  0  0
  3  4  2  0  0  0  0
  3  2  1  0  0  0  0
  4  5  1  0  0  0  0
  5  7  1  0  0  0  0
  5  6  2  0  0  0  0
  7 13  1  0  0  0  0
  8  9  2  0  0  0  0
  8  7  1  0  0  0  0
  9 10  1  0  0  0  0
 10 11  2  0  0  0  0
 10 12  1  0  0  0  0
 12 15  1  0  0  0  0
 13 12  1  0  0  0  0
 13 14  2  0  0  0  0
 15 16  2  0  0  0  0
 15 23  1  0  0  0  0
 16 17  1  0  0  0  0
 17 18  1  0  0  0  0
 17 24  1  0  0  0  0
 18 19  1  0  0  0  0
 19 20  2  0  0  0  0
 21 20  1  0  0  0  0
 22 21  2  0  0  0  0
 23 22  1  0  0  0  0
 23 18  2  0  0  0  0
 25 26  1  0  0  0  0
 25  9  1  0  0  0  0
 26 27  1  0  0  0  0
 28 27  2  0  0  0  0
 29 28  1  0  0  0  0
 30 31  2  0  0  0  0
 30 29  1  0  0  0  0
 32 30  1  0  0  0  0
 33 32  1  0  0  0  0
 33 35  2  0  0  0  0
 34 33  1  0  0  0  0
 35 36  1  0  0  0  0
 36 29  2  0  0  0  0
 36 26  1  0  0  0  0
 37 32  1  0  0  0  0
 38 34  1  0  0  0  0
 39 34  1  0  0  0  0
M  END
>  <minimizedAffinity>
-6.98801374

$$$$
