
 OpenBabel03242509583D

 36 38  0  0  0  0  0  0  0  0999 V2000
   45.1640   34.8250   41.9160 C   0  0  0  0  0  0  0  0  0  0  0  0
   45.6250   34.2440   40.8110 N   0  0  0  0  0  0  0  0  0  0  0  0
   44.6690   34.1120   39.9470 O   0  0  0  0  0  0  0  0  0  0  0  0
   43.5620   34.5900   40.4390 C   0  0  0  0  0  0  0  0  0  0  0  0
   43.8520   35.0400   41.6680 N   0  0  0  0  0  0  0  0  0  0  0  0
   42.2330   34.6350   39.7760 C   0  0  0  0  0  0  0  0  0  0  0  0
   41.9890   35.2990   38.6110 C   0  0  0  0  0  3  0  0  0  0  0  0
   40.7330   35.3110   38.0340 C   0  0  0  0  0  3  0  0  0  0  0  0
   39.6910   34.6330   38.6480 C   0  0  0  0  0  3  0  0  0  0  0  0
   39.9440   33.9700   39.8100 C   0  0  0  0  0  3  0  0  0  0  0  0
   41.1820   33.9470   40.4000 C   0  0  0  0  0  0  0  0  0  0  0  0
   41.4360   33.2510   41.6020 N   0  0  0  0  0  0  0  0  0  0  0  0
   42.1400   32.0030   41.6760 C   0  0  0  0  0  0  0  0  0  0  0  0
   41.7780   31.1270   40.7870 N   0  0  0  0  0  0  0  0  0  0  0  0
   43.1420   31.8320   42.6870 N   0  0  0  0  0  0  0  0  0  0  0  0
   42.2170   30.2040   40.7530 H   0  0  0  0  0  0  0  0  0  0  0  0
   41.0960   33.6660   42.4810 H   0  0  0  0  0  0  0  0  0  0  0  0
   43.6580   30.9430   42.7550 H   0  0  0  0  0  0  0  0  0  0  0  0
   43.3470   32.5980   43.3440 H   0  0  0  0  0  0  0  0  0  0  0  0
   45.6040   35.2390   43.1460 O   0  0  0  0  0  0  0  0  0  0  0  0
   45.2570   33.7430   46.4400 C   0  0  0  0  0  0  0  0  0  0  0  0
   46.0940   32.6180   46.3090 C   0  0  0  0  0  0  0  0  0  0  0  0
   46.7530   32.4080   45.0930 C   0  0  0  0  0  0  0  0  0  0  0  0
   46.5390   33.3230   44.0910 N   0  0  0  0  0  0  0  0  0  0  0  0
   45.7280   34.3990   44.2400 C   0  0  0  0  0  0  0  0  0  0  0  0
   45.0820   34.6130   45.4150 N   0  0  0  0  0  0  0  0  0  0  0  0
   47.5810   31.3160   44.9090 N   0  0  0  0  0  0  0  0  0  0  0  0
   48.0580   31.1780   44.0080 H   0  0  0  0  0  0  0  0  0  0  0  0
   47.7210   30.6420   45.6750 H   0  0  0  0  0  0  0  0  0  0  0  0
   46.2030   31.7660   47.4830 C   0  0  0  0  0  0  0  0  0  0  0  0
   46.3310   30.2810   47.1100 C   0  0  0  0  0  1  0  0  0  0  0  0
   45.1390   31.8690   48.5120 C   0  0  0  0  0  1  0  0  0  0  0  0
   47.5020   32.1630   48.1780 C   0  0  0  0  0  1  0  0  0  0  0  0
   44.5710   33.9910   47.6230 N   0  0  0  0  0  0  0  0  0  0  0  0
   43.9630   34.8180   47.7020 H   0  0  0  0  0  0  0  0  0  0  0  0
   44.6710   33.3470   48.4210 H   0  0  0  0  0  0  0  0  0  0  0  0
  1 20  1  0  0  0  0
  2  1  2  0  0  0  0
  3  4  1  0  0  0  0
  3  2  1  0  0  0  0
  4  5  2  0  0  0  0
  5  1  1  0  0  0  0
  6 11  1  0  0  0  0
  6  4  1  0  0  0  0
  7  6  2  0  0  0  0
  8  7  1  0  0  0  0
  8  9  2  0  0  0  0
  9 10  1  0  0  0  0
 10 11  2  0  0  0  0
 11 12  1  0  0  0  0
 12 13  1  0  0  0  0
 12 17  1  0  0  0  0
 13 15  1  0  0  0  0
 14 13  2  0  0  0  0
 15 18  1  0  0  0  0
 15 19  1  0  0  0  0
 16 14  1  0  0  0  0
 20 25  1  0  0  0  0
 21 34  1  0  0  0  0
 22 21  1  0  0  0  0
 22 30  1  0  0  0  0
 23 22  2  0  0  0  0
 24 25  2  0  0  0  0
 24 23  1  0  0  0  0
 25 26  1  0  0  0  0
 26 21  2  0  0  0  0
 27 23  1  0  0  0  0
 27 29  1  0  0  0  0
 28 27  1  0  0  0  0
 30 33  1  0  0  0  0
 30 32  1  0  0  0  0
 31 30  1  0  0  0  0
 34 35  1  0  0  0  0
 34 36  1  0  0  0  0
M  END
>  <minimizedAffinity>
-7.63248873

$$$$

 OpenBabel03242509583D

 36 38  0  0  0  0  0  0  0  0999 V2000
   45.2890   34.6870   41.8460 C   0  0  0  0  0  0  0  0  0  0  0  0
   45.7200   34.1080   40.7280 N   0  0  0  0  0  0  0  0  0  0  0  0
   44.7500   34.0090   39.8770 O   0  0  0  0  0  0  0  0  0  0  0  0
   43.6610   34.5070   40.3900 C   0  0  0  0  0  0  0  0  0  0  0  0
   43.9790   34.9350   41.6190 N   0  0  0  0  0  0  0  0  0  0  0  0
   42.3240   34.5890   39.7470 C   0  0  0  0  0  0  0  0  0  0  0  0
   42.0850   35.2480   38.5780 C   0  0  0  0  0  3  0  0  0  0  0  0
   40.8210   35.2970   38.0200 C   0  0  0  0  0  3  0  0  0  0  0  0
   39.7660   34.6630   38.6580 C   0  0  0  0  0  3  0  0  0  0  0  0
   40.0140   34.0050   39.8240 C   0  0  0  0  0  3  0  0  0  0  0  0
   41.2600   33.9460   40.3950 C   0  0  0  0  0  0  0  0  0  0  0  0
   41.5090   33.2560   41.6010 N   0  0  0  0  0  0  0  0  0  0  0  0
   42.1370   31.9670   41.6770 C   0  0  0  0  0  0  0  0  0  0  0  0
   41.6930   31.1010   40.8160 N   0  0  0  0  0  0  0  0  0  0  0  0
   43.1580   31.7510   42.6600 N   0  0  0  0  0  0  0  0  0  0  0  0
   42.0730   30.1520   40.7860 H   0  0  0  0  0  0  0  0  0  0  0  0
   41.2220   33.7050   42.4820 H   0  0  0  0  0  0  0  0  0  0  0  0
   43.6190   30.8330   42.7290 H   0  0  0  0  0  0  0  0  0  0  0  0
   43.4300   32.5140   43.2960 H   0  0  0  0  0  0  0  0  0  0  0  0
   45.7550   35.0770   43.0740 O   0  0  0  0  0  0  0  0  0  0  0  0
   46.7550   32.3140   45.2150 C   0  0  0  0  0  0  0  0  0  0  0  0
   46.0460   32.6230   46.3920 C   0  0  0  0  0  0  0  0  0  0  0  0
   45.2460   33.7700   46.4150 C   0  0  0  0  0  0  0  0  0  0  0  0
   45.2010   34.5320   45.2730 N   0  0  0  0  0  0  0  0  0  0  0  0
   45.8930   34.2170   44.1510 C   0  0  0  0  0  0  0  0  0  0  0  0
   46.6730   33.1070   44.1170 N   0  0  0  0  0  0  0  0  0  0  0  0
   44.5340   34.1210   47.5470 N   0  0  0  0  0  0  0  0  0  0  0  0
   43.9500   34.9690   47.5450 H   0  0  0  0  0  0  0  0  0  0  0  0
   44.5880   33.5340   48.3910 H   0  0  0  0  0  0  0  0  0  0  0  0
   46.2110   31.6900   47.4970 C   0  0  0  0  0  0  0  0  0  0  0  0
   46.3890   30.2440   47.0110 C   0  0  0  0  0  1  0  0  0  0  0  0
   45.1640   31.6730   48.5490 C   0  0  0  0  0  1  0  0  0  0  0  0
   47.5070   32.0860   48.1980 C   0  0  0  0  0  1  0  0  0  0  0  0
   47.5730   31.1930   45.1440 N   0  0  0  0  0  0  0  0  0  0  0  0
   48.0840   30.9830   44.2760 H   0  0  0  0  0  0  0  0  0  0  0  0
   47.6670   30.5720   45.9610 H   0  0  0  0  0  0  0  0  0  0  0  0
  1 20  1  0  0  0  0
  2  1  2  0  0  0  0
  3  4  1  0  0  0  0
  3  2  1  0  0  0  0
  4  5  2  0  0  0  0
  5  1  1  0  0  0  0
  6  4  1  0  0  0  0
  6 11  1  0  0  0  0
  7  6  2  0  0  0  0
  8  7  1  0  0  0  0
  8  9  2  0  0  0  0
  9 10  1  0  0  0  0
 10 11  2  0  0  0  0
 11 12  1  0  0  0  0
 12 13  1  0  0  0  0
 12 17  1  0  0  0  0
 13 15  1  0  0  0  0
 14 13  2  0  0  0  0
 15 18  1  0  0  0  0
 15 19  1  0  0  0  0
 16 14  1  0  0  0  0
 20 25  1  0  0  0  0
 21 22  1  0  0  0  0
 22 23  2  0  0  0  0
 22 30  1  0  0  0  0
 23 27  1  0  0  0  0
 24 23  1  0  0  0  0
 25 24  2  0  0  0  0
 26 25  1  0  0  0  0
 26 21  2  0  0  0  0
 27 29  1  0  0  0  0
 28 27  1  0  0  0  0
 30 33  1  0  0  0  0
 30 32  1  0  0  0  0
 31 30  1  0  0  0  0
 34 21  1  0  0  0  0
 34 36  1  0  0  0  0
 35 34  1  0  0  0  0
M  END
>  <minimizedAffinity>
-7.59137583

$$$$

 OpenBabel03242509583D

 36 38  0  0  0  0  0  0  0  0999 V2000
   46.1840   33.6200   43.1220 C   0  0  0  0  0  0  0  0  0  0  0  0
   46.2040   34.2900   44.2710 N   0  0  0  0  0  0  0  0  0  0  0  0
   46.4810   33.4870   45.2490 O   0  0  0  0  0  0  0  0  0  0  0  0
   46.6500   32.2800   44.7920 C   0  0  0  0  0  0  0  0  0  0  0  0
   46.4680   32.3430   43.4650 N   0  0  0  0  0  0  0  0  0  0  0  0
   46.9800   31.0630   45.5780 C   0  0  0  0  0  0  0  0  0  0  0  0
   48.0220   30.2330   45.2880 C   0  0  0  0  0  3  0  0  0  0  0  0
   48.2880   29.1110   46.0500 C   0  0  0  0  0  3  0  0  0  0  0  0
   47.4810   28.8160   47.1380 C   0  0  0  0  0  3  0  0  0  0  0  0
   46.4440   29.6510   47.4230 C   0  0  0  0  0  3  0  0  0  0  0  0
   46.1630   30.7680   46.6780 C   0  0  0  0  0  0  0  0  0  0  0  0
   45.0890   31.6330   46.9850 N   0  0  0  0  0  0  0  0  0  0  0  0
   45.1330   32.6410   48.0050 C   0  0  0  0  0  0  0  0  0  0  0  0
   45.6490   32.2460   49.1300 N   0  0  0  0  0  0  0  0  0  0  0  0
   44.6210   33.9470   47.7110 N   0  0  0  0  0  0  0  0  0  0  0  0
   45.7280   32.8860   49.9230 H   0  0  0  0  0  0  0  0  0  0  0  0
   44.2200   31.5340   46.4420 H   0  0  0  0  0  0  0  0  0  0  0  0
   44.6440   34.6830   48.4310 H   0  0  0  0  0  0  0  0  0  0  0  0
   44.2300   34.1490   46.7800 H   0  0  0  0  0  0  0  0  0  0  0  0
   45.9720   33.8350   41.7850 O   0  0  0  0  0  0  0  0  0  0  0  0
   43.1660   34.1200   39.4930 C   0  0  0  0  0  0  0  0  0  0  0  0
   42.2070   34.7320   40.3250 C   0  0  0  0  0  0  0  0  0  0  0  0
   42.5540   35.0280   41.6470 C   0  0  0  0  0  0  0  0  0  0  0  0
   43.8240   34.7000   42.0560 N   0  0  0  0  0  0  0  0  0  0  0  0
   44.7300   34.1110   41.2390 C   0  0  0  0  0  0  0  0  0  0  0  0
   44.4050   33.8170   39.9540 N   0  0  0  0  0  0  0  0  0  0  0  0
   41.6490   35.6230   42.5060 N   0  0  0  0  0  0  0  0  0  0  0  0
   41.9220   35.8340   43.4760 H   0  0  0  0  0  0  0  0  0  0  0  0
   40.7020   35.8550   42.1750 H   0  0  0  0  0  0  0  0  0  0  0  0
   40.9180   35.0120   39.7090 C   0  0  0  0  0  0  0  0  0  0  0  0
   39.9140   33.8700   39.9260 C   0  0  0  0  0  1  0  0  0  0  0  0
   40.9010   35.3410   38.2630 C   0  0  0  0  0  1  0  0  0  0  0  0
   40.3610   36.2370   40.4280 C   0  0  0  0  0  1  0  0  0  0  0  0
   42.8680   33.7940   38.1760 N   0  0  0  0  0  0  0  0  0  0  0  0
   43.5800   33.3470   37.5820 H   0  0  0  0  0  0  0  0  0  0  0  0
   41.9340   34.0000   37.7930 H   0  0  0  0  0  0  0  0  0  0  0  0
  1  5  1  0  0  0  0
  1  2  2  0  0  0  0
  2  3  1  0  0  0  0
  4  3  1  0  0  0  0
  4  6  1  0  0  0  0
  5  4  2  0  0  0  0
  6 11  1  0  0  0  0
  7  6  2  0  0  0  0
  7  8  1  0  0  0  0
  8  9  2  0  0  0  0
  9 10  1  0  0  0  0
 11 12  1  0  0  0  0
 11 10  2  0  0  0  0
 12 13  1  0  0  0  0
 13 14  2  0  0  0  0
 14 16  1  0  0  0  0
 15 13  1  0  0  0  0
 15 18  1  0  0  0  0
 17 12  1  0  0  0  0
 19 15  1  0  0  0  0
 20  1  1  0  0  0  0
 21 26  2  0  0  0  0
 21 22  1  0  0  0  0
 22 23  2  0  0  0  0
 23 24  1  0  0  0  0
 23 27  1  0  0  0  0
 25 20  1  0  0  0  0
 25 24  2  0  0  0  0
 26 25  1  0  0  0  0
 27 28  1  0  0  0  0
 29 27  1  0  0  0  0
 30 31  1  0  0  0  0
 30 22  1  0  0  0  0
 30 33  1  0  0  0  0
 32 30  1  0  0  0  0
 34 21  1  0  0  0  0
 35 34  1  0  0  0  0
 36 34  1  0  0  0  0
M  END
>  <minimizedAffinity>
-7.43773079

$$$$

 OpenBabel03242509583D

 36 38  0  0  0  0  0  0  0  0999 V2000
   47.0480   33.6790   41.4810 C   0  0  0  0  0  0  0  0  0  0  0  0
   48.1550   34.1960   42.0070 N   0  0  0  0  0  0  0  0  0  0  0  0
   48.3860   33.6650   43.1650 O   0  0  0  0  0  0  0  0  0  0  0  0
   47.4580   32.7950   43.4430 C   0  0  0  0  0  0  0  0  0  0  0  0
   46.6130   32.7900   42.4030 N   0  0  0  0  0  0  0  0  0  0  0  0
   47.3470   31.9640   44.6700 C   0  0  0  0  0  0  0  0  0  0  0  0
   47.7240   30.6560   44.7360 C   0  0  0  0  0  3  0  0  0  0  0  0
   47.6010   29.9250   45.9030 C   0  0  0  0  0  3  0  0  0  0  0  0
   47.0830   30.5290   47.0380 C   0  0  0  0  0  3  0  0  0  0  0  0
   46.7100   31.8360   46.9640 C   0  0  0  0  0  3  0  0  0  0  0  0
   46.8230   32.5790   45.8160 C   0  0  0  0  0  0  0  0  0  0  0  0
   46.4410   33.9370   45.7510 N   0  0  0  0  0  0  0  0  0  0  0  0
   45.1180   34.3870   45.4270 C   0  0  0  0  0  0  0  0  0  0  0  0
   44.5770   33.7810   44.4120 N   0  0  0  0  0  0  0  0  0  0  0  0
   44.5270   35.4280   46.2150 N   0  0  0  0  0  0  0  0  0  0  0  0
   43.6360   34.0250   44.0970 H   0  0  0  0  0  0  0  0  0  0  0  0
   47.1570   34.6500   45.9500 H   0  0  0  0  0  0  0  0  0  0  0  0
   43.5780   35.7630   45.9970 H   0  0  0  0  0  0  0  0  0  0  0  0
   45.0510   35.8400   47.0000 H   0  0  0  0  0  0  0  0  0  0  0  0
   46.2750   33.7800   40.3540 O   0  0  0  0  0  0  0  0  0  0  0  0
   42.9920   34.9810   41.3520 C   0  0  0  0  0  0  0  0  0  0  0  0
   42.2190   34.5880   40.2420 C   0  0  0  0  0  0  0  0  0  0  0  0
   42.8480   33.9230   39.1850 C   0  0  0  0  0  0  0  0  0  0  0  0
   44.1980   33.6910   39.2970 N   0  0  0  0  0  0  0  0  0  0  0  0
   44.9220   34.0780   40.3750 C   0  0  0  0  0  0  0  0  0  0  0  0
   44.3230   34.7260   41.4070 N   0  0  0  0  0  0  0  0  0  0  0  0
   42.1370   33.5210   38.0700 N   0  0  0  0  0  0  0  0  0  0  0  0
   42.6160   33.0330   37.3010 H   0  0  0  0  0  0  0  0  0  0  0  0
   41.1260   33.7110   38.0080 H   0  0  0  0  0  0  0  0  0  0  0  0
   40.8020   34.9130   40.3070 C   0  0  0  0  0  0  0  0  0  0  0  0
   40.1160   34.7860   38.9390 C   0  0  0  0  0  1  0  0  0  0  0  0
   40.4210   36.2330   40.8670 C   0  0  0  0  0  1  0  0  0  0  0  0
   40.1670   33.8680   41.2210 C   0  0  0  0  0  1  0  0  0  0  0  0
   42.4180   35.6540   42.4230 N   0  0  0  0  0  0  0  0  0  0  0  0
   42.9980   35.9340   43.2260 H   0  0  0  0  0  0  0  0  0  0  0  0
   41.4110   35.8740   42.4130 H   0  0  0  0  0  0  0  0  0  0  0  0
  1  2  2  0  0  0  0
  1  5  1  0  0  0  0
  2  3  1  0  0  0  0
  3  4  1  0  0  0  0
  4  6  1  0  0  0  0
  5  4  2  0  0  0  0
  6  7  2  0  0  0  0
  6 11  1  0  0  0  0
  7  8  1  0  0  0  0
  8  9  2  0  0  0  0
 10  9  1  0  0  0  0
 11 10  2  0  0  0  0
 12 11  1  0  0  0  0
 12 17  1  0  0  0  0
 13 12  1  0  0  0  0
 13 15  1  0  0  0  0
 14 13  2  0  0  0  0
 15 19  1  0  0  0  0
 16 14  1  0  0  0  0
 18 15  1  0  0  0  0
 20 25  1  0  0  0  0
 20  1  1  0  0  0  0
 21 26  1  0  0  0  0
 21 34  1  0  0  0  0
 22 30  1  0  0  0  0
 22 21  2  0  0  0  0
 23 24  2  0  0  0  0
 23 22  1  0  0  0  0
 24 25  1  0  0  0  0
 25 26  2  0  0  0  0
 27 23  1  0  0  0  0
 28 27  1  0  0  0  0
 29 27  1  0  0  0  0
 30 32  1  0  0  0  0
 30 33  1  0  0  0  0
 31 30  1  0  0  0  0
 34 35  1  0  0  0  0
 36 34  1  0  0  0  0
M  END
>  <minimizedAffinity>
-7.40313911

$$$$

 OpenBabel03242509583D

 36 38  0  0  0  0  0  0  0  0999 V2000
   45.4000   34.7110   42.7370 C   0  0  0  0  0  0  0  0  0  0  0  0
   45.1830   36.0230   42.7730 N   0  0  0  0  0  0  0  0  0  0  0  0
   44.0630   36.3040   42.1870 O   0  0  0  0  0  0  0  0  0  0  0  0
   43.5100   35.2110   41.7480 C   0  0  0  0  0  0  0  0  0  0  0  0
   44.3310   34.2050   42.0820 N   0  0  0  0  0  0  0  0  0  0  0  0
   42.2210   35.0890   41.0180 C   0  0  0  0  0  0  0  0  0  0  0  0
   41.0010   35.2400   41.6060 C   0  0  0  0  0  3  0  0  0  0  0  0
   39.8290   35.1170   40.8830 C   0  0  0  0  0  3  0  0  0  0  0  0
   39.8870   34.8340   39.5280 C   0  0  0  0  0  3  0  0  0  0  0  0
   41.1100   34.6870   38.9480 C   0  0  0  0  0  3  0  0  0  0  0  0
   42.2840   34.8040   39.6470 C   0  0  0  0  0  0  0  0  0  0  0  0
   43.5490   34.6560   39.0350 N   0  0  0  0  0  0  0  0  0  0  0  0
   44.0500   33.4190   38.5090 C   0  0  0  0  0  0  0  0  0  0  0  0
   43.8710   32.3920   39.2850 N   0  0  0  0  0  0  0  0  0  0  0  0
   44.6840   33.4190   37.2240 N   0  0  0  0  0  0  0  0  0  0  0  0
   44.1900   31.4620   39.0050 H   0  0  0  0  0  0  0  0  0  0  0  0
   44.1490   35.4900   38.9620 H   0  0  0  0  0  0  0  0  0  0  0  0
   45.0510   32.5400   36.8310 H   0  0  0  0  0  0  0  0  0  0  0  0
   44.7740   34.2970   36.6940 H   0  0  0  0  0  0  0  0  0  0  0  0
   46.3300   33.7890   43.1420 O   0  0  0  0  0  0  0  0  0  0  0  0
   45.6280   32.9890   46.6170 C   0  0  0  0  0  0  0  0  0  0  0  0
   46.3910   31.8160   46.7770 C   0  0  0  0  0  0  0  0  0  0  0  0
   47.1230   31.3360   45.6870 C   0  0  0  0  0  0  0  0  0  0  0  0
   47.0520   32.0480   44.5140 N   0  0  0  0  0  0  0  0  0  0  0  0
   46.3100   33.1740   44.3820 C   0  0  0  0  0  0  0  0  0  0  0  0
   45.5940   33.6490   45.4330 N   0  0  0  0  0  0  0  0  0  0  0  0
   47.8840   30.1860   45.7890 N   0  0  0  0  0  0  0  0  0  0  0  0
   48.4170   29.8470   44.9760 H   0  0  0  0  0  0  0  0  0  0  0  0
   47.9170   29.6680   46.6790 H   0  0  0  0  0  0  0  0  0  0  0  0
   46.3500   31.2060   48.0980 C   0  0  0  0  0  0  0  0  0  0  0  0
   46.0580   29.7000   48.0300 C   0  0  0  0  0  1  0  0  0  0  0  0
   45.4200   31.7870   49.0980 C   0  0  0  0  0  1  0  0  0  0  0  0
   47.7500   31.3620   48.6830 C   0  0  0  0  0  1  0  0  0  0  0  0
   44.8730   33.5010   47.6660 N   0  0  0  0  0  0  0  0  0  0  0  0
   44.3220   34.3600   47.5310 H   0  0  0  0  0  0  0  0  0  0  0  0
   44.8670   33.0220   48.5770 H   0  0  0  0  0  0  0  0  0  0  0  0
  1  2  2  0  0  0  0
  1 20  1  0  0  0  0
  3  2  1  0  0  0  0
  4  5  2  0  0  0  0
  4  3  1  0  0  0  0
  5  1  1  0  0  0  0
  6  7  1  0  0  0  0
  6  4  1  0  0  0  0
  8  7  2  0  0  0  0
  9  8  1  0  0  0  0
 10  9  2  0  0  0  0
 10 11  1  0  0  0  0
 11  6  2  0  0  0  0
 12 11  1  0  0  0  0
 13 12  1  0  0  0  0
 13 14  2  0  0  0  0
 15 13  1  0  0  0  0
 16 14  1  0  0  0  0
 17 12  1  0  0  0  0
 18 15  1  0  0  0  0
 19 15  1  0  0  0  0
 20 25  1  0  0  0  0
 21 22  1  0  0  0  0
 21 34  1  0  0  0  0
 22 30  1  0  0  0  0
 23 27  1  0  0  0  0
 23 22  2  0  0  0  0
 24 23  1  0  0  0  0
 25 24  2  0  0  0  0
 25 26  1  0  0  0  0
 26 21  2  0  0  0  0
 27 29  1  0  0  0  0
 28 27  1  0  0  0  0
 30 33  1  0  0  0  0
 30 32  1  0  0  0  0
 31 30  1  0  0  0  0
 34 36  1  0  0  0  0
 35 34  1  0  0  0  0
M  END
>  <minimizedAffinity>
-7.26644182

$$$$

 OpenBabel03242509583D

 36 38  0  0  0  0  0  0  0  0999 V2000
   45.4860   34.7490   42.7350 C   0  0  0  0  0  0  0  0  0  0  0  0
   45.2310   36.0500   42.8400 N   0  0  0  0  0  0  0  0  0  0  0  0
   44.0990   36.3280   42.2750 O   0  0  0  0  0  0  0  0  0  0  0  0
   43.5750   35.2410   41.7850 C   0  0  0  0  0  0  0  0  0  0  0  0
   44.4270   34.2450   42.0630 N   0  0  0  0  0  0  0  0  0  0  0  0
   42.2830   35.1190   41.0600 C   0  0  0  0  0  0  0  0  0  0  0  0
   41.0660   35.2960   41.6440 C   0  0  0  0  0  3  0  0  0  0  0  0
   39.8910   35.1700   40.9250 C   0  0  0  0  0  3  0  0  0  0  0  0
   39.9460   34.8570   39.5760 C   0  0  0  0  0  3  0  0  0  0  0  0
   41.1660   34.6830   38.9990 C   0  0  0  0  0  3  0  0  0  0  0  0
   42.3430   34.8020   39.6950 C   0  0  0  0  0  0  0  0  0  0  0  0
   43.6050   34.6280   39.0860 N   0  0  0  0  0  0  0  0  0  0  0  0
   44.0690   33.3860   38.5360 C   0  0  0  0  0  0  0  0  0  0  0  0
   43.8530   32.3500   39.2890 N   0  0  0  0  0  0  0  0  0  0  0  0
   44.7100   33.3930   37.2540 N   0  0  0  0  0  0  0  0  0  0  0  0
   44.1440   31.4160   38.9900 H   0  0  0  0  0  0  0  0  0  0  0  0
   44.2320   35.4430   39.0330 H   0  0  0  0  0  0  0  0  0  0  0  0
   45.0500   32.5120   36.8430 H   0  0  0  0  0  0  0  0  0  0  0  0
   44.8300   34.2790   36.7430 H   0  0  0  0  0  0  0  0  0  0  0  0
   46.4460   33.8360   43.0870 O   0  0  0  0  0  0  0  0  0  0  0  0
   47.0130   31.3000   45.6290 C   0  0  0  0  0  0  0  0  0  0  0  0
   46.2720   31.8320   46.7020 C   0  0  0  0  0  0  0  0  0  0  0  0
   45.6000   33.0440   46.5200 C   0  0  0  0  0  0  0  0  0  0  0  0
   45.7060   33.6480   45.2900 N   0  0  0  0  0  0  0  0  0  0  0  0
   46.4250   33.1190   44.2720 C   0  0  0  0  0  0  0  0  0  0  0  0
   47.0830   31.9420   44.4370 N   0  0  0  0  0  0  0  0  0  0  0  0
   44.8640   33.6130   47.5430 N   0  0  0  0  0  0  0  0  0  0  0  0
   44.3750   34.5060   47.3910 H   0  0  0  0  0  0  0  0  0  0  0  0
   44.8040   33.1420   48.4570 H   0  0  0  0  0  0  0  0  0  0  0  0
   46.2700   31.0430   47.9250 C   0  0  0  0  0  0  0  0  0  0  0  0
   47.4330   31.4170   48.8560 C   0  0  0  0  0  1  0  0  0  0  0  0
   46.2720   29.5650   47.7940 C   0  0  0  0  0  1  0  0  0  0  0  0
   44.9810   31.4000   48.6600 C   0  0  0  0  0  1  0  0  0  0  0  0
   47.7080   30.1040   45.7610 N   0  0  0  0  0  0  0  0  0  0  0  0
   48.2450   29.7300   44.9660 H   0  0  0  0  0  0  0  0  0  0  0  0
   47.6870   29.5920   46.6540 H   0  0  0  0  0  0  0  0  0  0  0  0
  1  2  2  0  0  0  0
  1 20  1  0  0  0  0
  3  2  1  0  0  0  0
  4  5  2  0  0  0  0
  4  3  1  0  0  0  0
  5  1  1  0  0  0  0
  6  7  1  0  0  0  0
  6  4  1  0  0  0  0
  8  7  2  0  0  0  0
  9  8  1  0  0  0  0
 10  9  2  0  0  0  0
 10 11  1  0  0  0  0
 11  6  2  0  0  0  0
 12 11  1  0  0  0  0
 13 12  1  0  0  0  0
 13 14  2  0  0  0  0
 15 13  1  0  0  0  0
 16 14  1  0  0  0  0
 17 12  1  0  0  0  0
 18 15  1  0  0  0  0
 19 15  1  0  0  0  0
 20 25  1  0  0  0  0
 21 34  1  0  0  0  0
 21 22  1  0  0  0  0
 22 30  1  0  0  0  0
 23 22  2  0  0  0  0
 23 27  1  0  0  0  0
 24 23  1  0  0  0  0
 25 26  1  0  0  0  0
 25 24  2  0  0  0  0
 26 21  2  0  0  0  0
 27 29  1  0  0  0  0
 28 27  1  0  0  0  0
 30 33  1  0  0  0  0
 30 31  1  0  0  0  0
 32 30  1  0  0  0  0
 34 36  1  0  0  0  0
 35 34  1  0  0  0  0
M  END
>  <minimizedAffinity>
-7.20193481

$$$$

 OpenBabel03242509583D

 36 38  0  0  0  0  0  0  0  0999 V2000
   45.3600   34.7040   42.4460 C   0  0  0  0  0  0  0  0  0  0  0  0
   45.6370   34.4310   41.1730 N   0  0  0  0  0  0  0  0  0  0  0  0
   44.5470   34.4240   40.4740 O   0  0  0  0  0  0  0  0  0  0  0  0
   43.5290   34.6850   41.2430 C   0  0  0  0  0  0  0  0  0  0  0  0
   44.0170   34.8630   42.4780 N   0  0  0  0  0  0  0  0  0  0  0  0
   42.1010   34.7720   40.8400 C   0  0  0  0  0  0  0  0  0  0  0  0
   41.3620   35.9140   40.9120 C   0  0  0  0  0  3  0  0  0  0  0  0
   40.0350   35.9440   40.5250 C   0  0  0  0  0  3  0  0  0  0  0  0
   39.4340   34.7880   40.0510 C   0  0  0  0  0  3  0  0  0  0  0  0
   40.1810   33.6510   39.9800 C   0  0  0  0  0  3  0  0  0  0  0  0
   41.4980   33.6010   40.3600 C   0  0  0  0  0  0  0  0  0  0  0  0
   42.2660   32.4180   40.2760 N   0  0  0  0  0  0  0  0  0  0  0  0
   42.2510   31.3760   41.2630 C   0  0  0  0  0  0  0  0  0  0  0  0
   42.3150   31.7960   42.4910 N   0  0  0  0  0  0  0  0  0  0  0  0
   42.1730   30.0130   40.8280 N   0  0  0  0  0  0  0  0  0  0  0  0
   42.3110   31.1360   43.2710 H   0  0  0  0  0  0  0  0  0  0  0  0
   42.8750   32.2960   39.4550 H   0  0  0  0  0  0  0  0  0  0  0  0
   42.1610   29.2510   41.5220 H   0  0  0  0  0  0  0  0  0  0  0  0
   42.1290   29.7940   39.8230 H   0  0  0  0  0  0  0  0  0  0  0  0
   45.9980   34.8600   43.6490 O   0  0  0  0  0  0  0  0  0  0  0  0
   47.0170   31.7670   45.2630 C   0  0  0  0  0  0  0  0  0  0  0  0
   46.3890   31.9040   46.5160 C   0  0  0  0  0  0  0  0  0  0  0  0
   45.6340   33.0540   46.7690 C   0  0  0  0  0  0  0  0  0  0  0  0
   45.5520   33.9890   45.7650 N   0  0  0  0  0  0  0  0  0  0  0  0
   46.1650   33.8370   44.5670 C   0  0  0  0  0  0  0  0  0  0  0  0
   46.9020   32.7250   44.3110 N   0  0  0  0  0  0  0  0  0  0  0  0
   45.0020   33.2400   47.9840 N   0  0  0  0  0  0  0  0  0  0  0  0
   44.4500   34.0930   48.1520 H   0  0  0  0  0  0  0  0  0  0  0  0
   45.0830   32.5260   48.7210 H   0  0  0  0  0  0  0  0  0  0  0  0
   46.5830   30.8030   47.4490 C   0  0  0  0  0  0  0  0  0  0  0  0
   46.8930   31.2980   48.8690 C   0  0  0  0  0  1  0  0  0  0  0  0
   47.6040   29.7820   47.1080 C   0  0  0  0  0  1  0  0  0  0  0  0
   45.2510   30.0620   47.5160 C   0  0  0  0  0  1  0  0  0  0  0  0
   47.7870   30.6490   44.9670 N   0  0  0  0  0  0  0  0  0  0  0  0
   48.2400   30.5660   44.0460 H   0  0  0  0  0  0  0  0  0  0  0  0
   47.9060   29.9040   45.6680 H   0  0  0  0  0  0  0  0  0  0  0  0
  1  5  1  0  0  0  0
  1 20  1  0  0  0  0
  2  1  2  0  0  0  0
  3  2  1  0  0  0  0
  3  4  1  0  0  0  0
  4  5  2  0  0  0  0
  6  7  1  0  0  0  0
  6  4  1  0  0  0  0
  8  7  2  0  0  0  0
  9  8  1  0  0  0  0
 10  9  2  0  0  0  0
 10 11  1  0  0  0  0
 11  6  2  0  0  0  0
 12 11  1  0  0  0  0
 12 13  1  0  0  0  0
 13 14  2  0  0  0  0
 14 16  1  0  0  0  0
 15 13  1  0  0  0  0
 15 18  1  0  0  0  0
 17 12  1  0  0  0  0
 19 15  1  0  0  0  0
 20 25  1  0  0  0  0
 21 22  1  0  0  0  0
 22 23  2  0  0  0  0
 22 30  1  0  0  0  0
 23 27  1  0  0  0  0
 24 23  1  0  0  0  0
 25 24  2  0  0  0  0
 26 25  1  0  0  0  0
 26 21  2  0  0  0  0
 27 28  1  0  0  0  0
 27 29  1  0  0  0  0
 30 33  1  0  0  0  0
 30 31  1  0  0  0  0
 32 30  1  0  0  0  0
 34 21  1  0  0  0  0
 34 36  1  0  0  0  0
 35 34  1  0  0  0  0
M  END
>  <minimizedAffinity>
-7.01549435

$$$$

 OpenBabel03242509583D

 36 38  0  0  0  0  0  0  0  0999 V2000
   46.6690   33.8700   43.7170 C   0  0  0  0  0  0  0  0  0  0  0  0
   47.6610   32.9830   43.7000 N   0  0  0  0  0  0  0  0  0  0  0  0
   47.5510   32.1760   44.7060 O   0  0  0  0  0  0  0  0  0  0  0  0
   46.5040   32.4930   45.4130 C   0  0  0  0  0  0  0  0  0  0  0  0
   45.9410   33.5490   44.8100 N   0  0  0  0  0  0  0  0  0  0  0  0
   46.0200   31.8220   46.6470 C   0  0  0  0  0  0  0  0  0  0  0  0
   45.7680   32.4750   47.8160 C   0  0  0  0  0  3  0  0  0  0  0  0
   45.3180   31.8050   48.9380 C   0  0  0  0  0  3  0  0  0  0  0  0
   45.1150   30.4340   48.8810 C   0  0  0  0  0  3  0  0  0  0  0  0
   45.3670   29.7900   47.7090 C   0  0  0  0  0  3  0  0  0  0  0  0
   45.8150   30.4360   46.5850 C   0  0  0  0  0  0  0  0  0  0  0  0
   46.0670   29.7600   45.3710 N   0  0  0  0  0  0  0  0  0  0  0  0
   45.1870   29.7850   44.2380 C   0  0  0  0  0  0  0  0  0  0  0  0
   43.9320   29.6130   44.5260 N   0  0  0  0  0  0  0  0  0  0  0  0
   45.7450   29.9860   42.9320 N   0  0  0  0  0  0  0  0  0  0  0  0
   43.2210   29.6140   43.7920 H   0  0  0  0  0  0  0  0  0  0  0  0
   46.9370   29.2150   45.2940 H   0  0  0  0  0  0  0  0  0  0  0  0
   45.1290   30.0070   42.1070 H   0  0  0  0  0  0  0  0  0  0  0  0
   46.7610   30.1100   42.8200 H   0  0  0  0  0  0  0  0  0  0  0  0
   46.2060   34.9400   42.9970 O   0  0  0  0  0  0  0  0  0  0  0  0
   42.7710   35.2690   41.8530 C   0  0  0  0  0  0  0  0  0  0  0  0
   42.8800   34.7630   40.5430 C   0  0  0  0  0  0  0  0  0  0  0  0
   44.1290   34.3240   40.0920 C   0  0  0  0  0  0  0  0  0  0  0  0
   45.1850   34.4150   40.9680 N   0  0  0  0  0  0  0  0  0  0  0  0
   45.0570   34.9060   42.2240 C   0  0  0  0  0  0  0  0  0  0  0  0
   43.8500   35.3360   42.6720 N   0  0  0  0  0  0  0  0  0  0  0  0
   44.2920   33.8250   38.8140 N   0  0  0  0  0  0  0  0  0  0  0  0
   45.2190   33.5060   38.4990 H   0  0  0  0  0  0  0  0  0  0  0  0
   43.4850   33.7710   38.1760 H   0  0  0  0  0  0  0  0  0  0  0  0
   41.6490   34.7370   39.7670 C   0  0  0  0  0  0  0  0  0  0  0  0
   40.5600   35.6280   40.3820 C   0  0  0  0  0  1  0  0  0  0  0  0
   41.0310   33.4150   39.4960 C   0  0  0  0  0  1  0  0  0  0  0  0
   41.9920   35.3300   38.4040 C   0  0  0  0  0  1  0  0  0  0  0  0
   41.5560   35.7280   42.3450 N   0  0  0  0  0  0  0  0  0  0  0  0
   41.4940   36.0940   43.3050 H   0  0  0  0  0  0  0  0  0  0  0  0
   40.7160   35.7010   41.7490 H   0  0  0  0  0  0  0  0  0  0  0  0
  1  5  1  0  0  0  0
  2  1  2  0  0  0  0
  2  3  1  0  0  0  0
  3  4  1  0  0  0  0
  4  6  1  0  0  0  0
  5  4  2  0  0  0  0
  6  7  1  0  0  0  0
  7  8  2  0  0  0  0
  9  8  1  0  0  0  0
 10  9  2  0  0  0  0
 11  6  2  0  0  0  0
 11 10  1  0  0  0  0
 12 11  1  0  0  0  0
 13 14  2  0  0  0  0
 13 12  1  0  0  0  0
 15 13  1  0  0  0  0
 16 14  1  0  0  0  0
 17 12  1  0  0  0  0
 18 15  1  0  0  0  0
 19 15  1  0  0  0  0
 20  1  1  0  0  0  0
 21 34  1  0  0  0  0
 21 26  1  0  0  0  0
 22 21  2  0  0  0  0
 23 22  1  0  0  0  0
 23 24  2  0  0  0  0
 24 25  1  0  0  0  0
 25 26  2  0  0  0  0
 25 20  1  0  0  0  0
 27 23  1  0  0  0  0
 28 27  1  0  0  0  0
 29 27  1  0  0  0  0
 30 31  1  0  0  0  0
 30 22  1  0  0  0  0
 32 30  1  0  0  0  0
 33 30  1  0  0  0  0
 34 35  1  0  0  0  0
 36 34  1  0  0  0  0
M  END
>  <minimizedAffinity>
-6.90426064

$$$$

 OpenBabel03242509583D

 36 38  0  0  0  0  0  0  0  0999 V2000
   45.3070   34.8830   44.0440 C   0  0  0  0  0  0  0  0  0  0  0  0
   44.6860   35.2730   45.1530 N   0  0  0  0  0  0  0  0  0  0  0  0
   44.9780   34.4750   46.1300 O   0  0  0  0  0  0  0  0  0  0  0  0
   45.7860   33.5440   45.7110 C   0  0  0  0  0  0  0  0  0  0  0  0
   46.0030   33.7820   44.4100 N   0  0  0  0  0  0  0  0  0  0  0  0
   46.3620   32.4310   46.5090 C   0  0  0  0  0  0  0  0  0  0  0  0
   47.1800   32.6130   47.5830 C   0  0  0  0  0  3  0  0  0  0  0  0
   47.6920   31.5440   48.2950 C   0  0  0  0  0  3  0  0  0  0  0  0
   47.3680   30.2510   47.9130 C   0  0  0  0  0  3  0  0  0  0  0  0
   46.5480   30.0770   46.8400 C   0  0  0  0  0  3  0  0  0  0  0  0
   46.0320   31.1250   46.1210 C   0  0  0  0  0  0  0  0  0  0  0  0
   45.1760   30.9350   45.0130 N   0  0  0  0  0  0  0  0  0  0  0  0
   45.5840   30.3420   43.7720 C   0  0  0  0  0  0  0  0  0  0  0  0
   46.7210   30.7770   43.3160 N   0  0  0  0  0  0  0  0  0  0  0  0
   44.7360   29.3610   43.1610 N   0  0  0  0  0  0  0  0  0  0  0  0
   47.1030   30.4200   42.4380 H   0  0  0  0  0  0  0  0  0  0  0  0
   44.1970   31.2410   45.1030 H   0  0  0  0  0  0  0  0  0  0  0  0
   45.0130   28.9260   42.2690 H   0  0  0  0  0  0  0  0  0  0  0  0
   43.8510   29.0920   43.6130 H   0  0  0  0  0  0  0  0  0  0  0  0
   45.4370   35.2480   42.7290 O   0  0  0  0  0  0  0  0  0  0  0  0
   43.5920   34.2930   39.7460 C   0  0  0  0  0  0  0  0  0  0  0  0
   42.3310   34.8550   40.0250 C   0  0  0  0  0  0  0  0  0  0  0  0
   42.1520   35.5440   41.2280 C   0  0  0  0  0  0  0  0  0  0  0  0
   43.2320   35.6320   42.0730 N   0  0  0  0  0  0  0  0  0  0  0  0
   44.4370   35.0830   41.7850 C   0  0  0  0  0  0  0  0  0  0  0  0
   44.6220   34.4110   40.6200 N   0  0  0  0  0  0  0  0  0  0  0  0
   40.9330   36.1090   41.5530 N   0  0  0  0  0  0  0  0  0  0  0  0
   40.8200   36.6130   42.4440 H   0  0  0  0  0  0  0  0  0  0  0  0
   40.1380   36.0260   40.9040 H   0  0  0  0  0  0  0  0  0  0  0  0
   41.3110   34.6660   39.0030 C   0  0  0  0  0  0  0  0  0  0  0  0
   39.8930   34.8610   39.5600 C   0  0  0  0  0  1  0  0  0  0  0  0
   41.3150   33.3870   38.2520 C   0  0  0  0  0  1  0  0  0  0  0  0
   41.5370   35.7640   37.9680 C   0  0  0  0  0  1  0  0  0  0  0  0
   43.8180   33.5890   38.5700 N   0  0  0  0  0  0  0  0  0  0  0  0
   44.7460   33.1850   38.3820 H   0  0  0  0  0  0  0  0  0  0  0  0
   43.0580   33.4710   37.8850 H   0  0  0  0  0  0  0  0  0  0  0  0
  1  5  1  0  0  0  0
  1  2  2  0  0  0  0
  2  3  1  0  0  0  0
  4  3  1  0  0  0  0
  4  6  1  0  0  0  0
  5  4  2  0  0  0  0
  6  7  1  0  0  0  0
  7  8  2  0  0  0  0
  9  8  1  0  0  0  0
 10  9  2  0  0  0  0
 11  6  2  0  0  0  0
 11 10  1  0  0  0  0
 12 17  1  0  0  0  0
 12 11  1  0  0  0  0
 13 12  1  0  0  0  0
 14 13  2  0  0  0  0
 15 19  1  0  0  0  0
 15 13  1  0  0  0  0
 16 14  1  0  0  0  0
 18 15  1  0  0  0  0
 20  1  1  0  0  0  0
 21 22  2  0  0  0  0
 21 26  1  0  0  0  0
 22 23  1  0  0  0  0
 23 27  1  0  0  0  0
 23 24  2  0  0  0  0
 25 24  1  0  0  0  0
 25 20  1  0  0  0  0
 26 25  2  0  0  0  0
 27 28  1  0  0  0  0
 29 27  1  0  0  0  0
 30 31  1  0  0  0  0
 30 22  1  0  0  0  0
 32 30  1  0  0  0  0
 33 30  1  0  0  0  0
 34 21  1  0  0  0  0
 35 34  1  0  0  0  0
 36 34  1  0  0  0  0
M  END
>  <minimizedAffinity>
-6.88886642

$$$$
