
 OpenBabel03242510093D

 30 35  0  0  0  0  0  0  0  0999 V2000
   41.1190   31.8010   40.5550 C   0  0  0  0  0  3  0  0  0  0  0  0
   39.8360   31.5090   40.0280 C   0  0  0  0  0  3  0  0  0  0  0  0
   39.7290   31.2430   38.6510 C   0  0  0  0  0  3  0  0  0  0  0  0
   40.8780   31.2850   37.9130 N   0  0  0  0  0  0  0  0  0  0  0  0
   42.0750   31.5650   38.4410 C   0  0  0  0  0  0  0  0  0  0  0  0
   42.2140   31.8250   39.7610 N   0  0  0  0  0  0  0  0  0  0  0  0
   43.1750   31.5680   37.5360 N   0  0  0  0  0  0  0  0  0  0  0  0
   43.0050   30.9870   36.3190 C   0  0  0  0  0  3  0  0  0  0  0  0
   44.1680   31.1140   35.6560 N   0  0  0  0  0  0  0  0  0  0  0  0
   45.0700   31.7510   36.4000 C   0  0  0  0  0  0  0  0  0  0  0  0
   46.3720   32.1740   36.3140 C   0  0  0  0  0  3  0  0  0  0  0  0
   46.9990   32.8280   37.3250 N   0  0  0  0  0  0  0  0  0  0  0  0
   46.3160   33.0710   38.4560 C   0  0  0  0  0  0  0  0  0  0  0  0
   45.0270   32.6730   38.5940 N   0  0  0  0  0  0  0  0  0  0  0  0
   44.4300   32.0330   37.5890 C   0  0  0  0  0  0  0  0  0  0  0  0
   46.8890   33.7520   39.5720 N   0  0  0  0  0  0  0  0  0  0  0  0
   48.0640   34.3100   39.8720 C   0  0  0  0  0  3  0  0  0  0  0  0
   48.0360   34.8200   41.0990 N   0  0  0  0  0  0  0  0  0  0  0  0
   46.8200   34.5890   41.6050 C   0  0  0  0  0  0  0  0  0  0  0  0
   46.1250   33.9270   40.6430 N   0  0  0  0  0  0  0  0  0  0  0  0
   46.0870   34.8550   42.8640 C   0  0  0  0  0  0  0  0  0  0  0  0
   45.2300   35.9440   43.0610 C   0  0  0  0  0  3  0  0  0  0  0  0
   44.5790   36.1470   44.2370 C   0  0  0  0  0  3  0  0  0  0  0  0
   44.7210   35.2960   45.3080 C   0  0  0  0  0  3  0  0  0  0  0  0
   45.5530   34.2150   45.1530 C   0  0  0  0  0  0  0  0  0  0  0  0
   45.6810   33.3770   46.2350 C   0  0  0  0  0  3  0  0  0  0  0  0
   46.4900   32.2770   46.1680 C   0  0  0  0  0  3  0  0  0  0  0  0
   47.1680   32.0420   44.9820 C   0  0  0  0  0  3  0  0  0  0  0  0
   47.0010   32.9150   43.9330 C   0  0  0  0  0  3  0  0  0  0  0  0
   46.2010   34.0310   43.9540 C   0  0  0  0  0  0  0  0  0  0  0  0
  2  1  1  0  0  0  0
  3  2  2  0  0  0  0
  4  5  2  0  0  0  0
  4  3  1  0  0  0  0
  5  6  1  0  0  0  0
  6  1  2  0  0  0  0
  7 15  1  0  0  0  0
  7  5  1  0  0  0  0
  8  7  1  0  0  0  0
  9  8  2  0  0  0  0
  9 10  1  0  0  0  0
 10 15  1  0  0  0  0
 11 10  2  0  0  0  0
 11 12  1  0  0  0  0
 12 13  2  0  0  0  0
 13 14  1  0  0  0  0
 13 16  1  0  0  0  0
 15 14  2  0  0  0  0
 16 17  1  0  0  0  0
 16 20  1  0  0  0  0
 17 18  2  0  0  0  0
 18 19  1  0  0  0  0
 19 21  1  0  0  0  0
 20 19  2  0  0  0  0
 21 22  2  0  0  0  0
 21 30  1  0  0  0  0
 22 23  1  0  0  0  0
 23 24  2  0  0  0  0
 25 24  1  0  0  0  0
 25 26  1  0  0  0  0
 27 26  2  0  0  0  0
 28 27  1  0  0  0  0
 29 30  1  0  0  0  0
 29 28  2  0  0  0  0
 30 25  2  0  0  0  0
M  END
>  <minimizedAffinity>
-7.58036995

$$$$

 OpenBabel03242510093D

 30 35  0  0  0  0  0  0  0  0999 V2000
   49.3500   29.4240   43.8920 C   0  0  0  0  0  3  0  0  0  0  0  0
   50.2810   28.4750   44.3850 C   0  0  0  0  0  3  0  0  0  0  0  0
   50.2620   28.1810   45.7610 C   0  0  0  0  0  3  0  0  0  0  0  0
   49.3410   28.8350   46.5300 N   0  0  0  0  0  0  0  0  0  0  0  0
   48.4750   29.7260   46.0330 C   0  0  0  0  0  0  0  0  0  0  0  0
   48.4660   30.0330   44.7150 N   0  0  0  0  0  0  0  0  0  0  0  0
   47.5790   30.3190   46.9680 N   0  0  0  0  0  0  0  0  0  0  0  0
   47.4370   29.7280   48.1830 C   0  0  0  0  0  3  0  0  0  0  0  0
   46.5490   30.4610   48.8770 N   0  0  0  0  0  0  0  0  0  0  0  0
   46.1200   31.4930   48.1540 C   0  0  0  0  0  0  0  0  0  0  0  0
   45.2610   32.5560   48.2730 C   0  0  0  0  0  3  0  0  0  0  0  0
   45.0650   33.4550   47.2750 N   0  0  0  0  0  0  0  0  0  0  0  0
   45.7390   33.2980   46.1240 C   0  0  0  0  0  0  0  0  0  0  0  0
   46.6000   32.2640   45.9540 N   0  0  0  0  0  0  0  0  0  0  0  0
   46.7790   31.3930   46.9470 C   0  0  0  0  0  0  0  0  0  0  0  0
   45.6010   34.1920   45.0200 N   0  0  0  0  0  0  0  0  0  0  0  0
   44.9110   35.3030   44.7490 C   0  0  0  0  0  3  0  0  0  0  0  0
   45.1800   35.7270   43.5180 N   0  0  0  0  0  0  0  0  0  0  0  0
   46.0600   34.8760   42.9810 C   0  0  0  0  0  0  0  0  0  0  0  0
   46.3080   33.9330   43.9270 N   0  0  0  0  0  0  0  0  0  0  0  0
   46.7860   34.7120   41.7000 C   0  0  0  0  0  0  0  0  0  0  0  0
   48.0390   35.2750   41.4280 C   0  0  0  0  0  3  0  0  0  0  0  0
   48.6670   35.0970   40.2350 C   0  0  0  0  0  3  0  0  0  0  0  0
   48.1100   34.3530   39.2200 C   0  0  0  0  0  3  0  0  0  0  0  0
   46.8830   33.7840   39.4500 C   0  0  0  0  0  0  0  0  0  0  0  0
   46.3450   33.0460   38.4230 C   0  0  0  0  0  3  0  0  0  0  0  0
   45.1260   32.4440   38.5660 C   0  0  0  0  0  3  0  0  0  0  0  0
   44.4600   32.6070   39.7710 C   0  0  0  0  0  3  0  0  0  0  0  0
   45.0470   33.3580   40.7630 C   0  0  0  0  0  3  0  0  0  0  0  0
   46.2670   33.9790   40.6650 C   0  0  0  0  0  0  0  0  0  0  0  0
  1  2  2  0  0  0  0
  1  6  1  0  0  0  0
  2  3  1  0  0  0  0
  3  4  2  0  0  0  0
  5  4  1  0  0  0  0
  5  7  1  0  0  0  0
  6  5  2  0  0  0  0
  7  8  1  0  0  0  0
  8  9  2  0  0  0  0
 10 11  1  0  0  0  0
 10  9  1  0  0  0  0
 12 11  2  0  0  0  0
 13 12  1  0  0  0  0
 14 13  2  0  0  0  0
 14 15  1  0  0  0  0
 15  7  1  0  0  0  0
 15 10  2  0  0  0  0
 16 13  1  0  0  0  0
 17 16  1  0  0  0  0
 18 17  2  0  0  0  0
 19 18  1  0  0  0  0
 19 20  2  0  0  0  0
 20 16  1  0  0  0  0
 21 19  1  0  0  0  0
 22 21  1  0  0  0  0
 23 22  2  0  0  0  0
 24 25  2  0  0  0  0
 24 23  1  0  0  0  0
 25 30  1  0  0  0  0
 26 27  2  0  0  0  0
 26 25  1  0  0  0  0
 27 28  1  0  0  0  0
 28 29  2  0  0  0  0
 30 29  1  0  0  0  0
 30 21  2  0  0  0  0
M  END
>  <minimizedAffinity>
-7.26191473

$$$$

 OpenBabel03242510093D

 30 35  0  0  0  0  0  0  0  0999 V2000
   41.6640   29.1160   43.2250 C   0  0  0  0  0  3  0  0  0  0  0  0
   40.3490   28.5880   43.2680 C   0  0  0  0  0  3  0  0  0  0  0  0
   39.3240   29.3110   42.6310 C   0  0  0  0  0  3  0  0  0  0  0  0
   39.6700   30.4780   42.0110 N   0  0  0  0  0  0  0  0  0  0  0  0
   40.9220   30.9490   41.9880 C   0  0  0  0  0  0  0  0  0  0  0  0
   41.9330   30.2800   42.5900 N   0  0  0  0  0  0  0  0  0  0  0  0
   41.1170   32.1800   41.2980 N   0  0  0  0  0  0  0  0  0  0  0  0
   40.1360   32.6070   40.4610 C   0  0  0  0  0  3  0  0  0  0  0  0
   40.5480   33.7740   39.9340 N   0  0  0  0  0  0  0  0  0  0  0  0
   41.7500   34.1060   40.4010 C   0  0  0  0  0  0  0  0  0  0  0  0
   42.6710   35.1130   40.2680 C   0  0  0  0  0  3  0  0  0  0  0  0
   43.8530   35.1190   40.9360 N   0  0  0  0  0  0  0  0  0  0  0  0
   44.1310   34.0960   41.7610 C   0  0  0  0  0  0  0  0  0  0  0  0
   43.2550   33.0740   41.9290 N   0  0  0  0  0  0  0  0  0  0  0  0
   42.1000   33.0880   41.2640 C   0  0  0  0  0  0  0  0  0  0  0  0
   45.3450   34.0140   42.5080 N   0  0  0  0  0  0  0  0  0  0  0  0
   46.4430   34.7590   42.6630 C   0  0  0  0  0  3  0  0  0  0  0  0
   47.2820   34.1770   43.5140 N   0  0  0  0  0  0  0  0  0  0  0  0
   46.7180   33.0330   43.9180 C   0  0  0  0  0  0  0  0  0  0  0  0
   45.5200   32.9520   43.2840 N   0  0  0  0  0  0  0  0  0  0  0  0
   47.0480   31.9090   44.8240 C   0  0  0  0  0  0  0  0  0  0  0  0
   47.8320   30.8080   44.4580 C   0  0  0  0  0  3  0  0  0  0  0  0
   48.1080   29.7980   45.3260 C   0  0  0  0  0  3  0  0  0  0  0  0
   47.6330   29.7940   46.6170 C   0  0  0  0  0  3  0  0  0  0  0  0
   46.8620   30.8580   47.0130 C   0  0  0  0  0  0  0  0  0  0  0  0
   46.3990   30.8340   48.3070 C   0  0  0  0  0  3  0  0  0  0  0  0
   45.6230   31.8530   48.7850 C   0  0  0  0  0  3  0  0  0  0  0  0
   45.3230   32.8980   47.9240 C   0  0  0  0  0  3  0  0  0  0  0  0
   45.8150   32.8680   46.6390 C   0  0  0  0  0  3  0  0  0  0  0  0
   46.5970   31.8670   46.1170 C   0  0  0  0  0  0  0  0  0  0  0  0
  1  2  1  0  0  0  0
  3  2  2  0  0  0  0
  4  3  1  0  0  0  0
  5  4  2  0  0  0  0
  5  6  1  0  0  0  0
  6  1  2  0  0  0  0
  7  5  1  0  0  0  0
  8  7  1  0  0  0  0
  9 10  1  0  0  0  0
  9  8  2  0  0  0  0
 10 15  1  0  0  0  0
 11 10  2  0  0  0  0
 11 12  1  0  0  0  0
 12 13  2  0  0  0  0
 13 14  1  0  0  0  0
 13 16  1  0  0  0  0
 15  7  1  0  0  0  0
 15 14  2  0  0  0  0
 16 17  1  0  0  0  0
 16 20  1  0  0  0  0
 17 18  2  0  0  0  0
 18 19  1  0  0  0  0
 19 21  1  0  0  0  0
 20 19  2  0  0  0  0
 21 30  1  0  0  0  0
 22 21  2  0  0  0  0
 22 23  1  0  0  0  0
 23 24  2  0  0  0  0
 24 25  1  0  0  0  0
 25 26  1  0  0  0  0
 26 27  2  0  0  0  0
 28 27  1  0  0  0  0
 29 28  2  0  0  0  0
 30 29  1  0  0  0  0
 30 25  2  0  0  0  0
M  END
>  <minimizedAffinity>
-7.24402905

$$$$

 OpenBabel03242510093D

 30 35  0  0  0  0  0  0  0  0999 V2000
   42.0440   35.3210   38.9560 C   0  0  0  0  0  3  0  0  0  0  0  0
   41.0800   35.6040   37.9570 C   0  0  0  0  0  3  0  0  0  0  0  0
   39.9590   34.7600   37.8580 C   0  0  0  0  0  3  0  0  0  0  0  0
   39.8780   33.7190   38.7390 N   0  0  0  0  0  0  0  0  0  0  0  0
   40.8060   33.4780   39.6720 C   0  0  0  0  0  0  0  0  0  0  0  0
   41.8970   34.2700   39.7950 N   0  0  0  0  0  0  0  0  0  0  0  0
   40.5730   32.3530   40.5150 N   0  0  0  0  0  0  0  0  0  0  0  0
   39.3230   31.8210   40.5400 C   0  0  0  0  0  3  0  0  0  0  0  0
   39.3530   30.7850   41.3970 N   0  0  0  0  0  0  0  0  0  0  0  0
   40.5700   30.6380   41.9180 C   0  0  0  0  0  0  0  0  0  0  0  0
   41.2260   29.8200   42.8020 C   0  0  0  0  0  3  0  0  0  0  0  0
   42.5410   29.9750   43.1080 N   0  0  0  0  0  0  0  0  0  0  0  0
   43.2250   30.9700   42.5200 C   0  0  0  0  0  0  0  0  0  0  0  0
   42.6240   31.8070   41.6380 N   0  0  0  0  0  0  0  0  0  0  0  0
   41.3340   31.6370   41.3510 C   0  0  0  0  0  0  0  0  0  0  0  0
   44.6090   31.2100   42.7750 N   0  0  0  0  0  0  0  0  0  0  0  0
   45.5700   30.6620   43.5230 C   0  0  0  0  0  3  0  0  0  0  0  0
   46.7130   31.3210   43.3660 N   0  0  0  0  0  0  0  0  0  0  0  0
   46.4910   32.3150   42.5000 C   0  0  0  0  0  0  0  0  0  0  0  0
   45.1820   32.2290   42.1460 N   0  0  0  0  0  0  0  0  0  0  0  0
   47.2600   33.4130   41.8710 C   0  0  0  0  0  0  0  0  0  0  0  0
   47.8550   34.4640   42.5790 C   0  0  0  0  0  3  0  0  0  0  0  0
   48.5530   35.4510   41.9550 C   0  0  0  0  0  3  0  0  0  0  0  0
   48.7170   35.4790   40.5900 C   0  0  0  0  0  3  0  0  0  0  0  0
   48.1480   34.4650   39.8620 C   0  0  0  0  0  0  0  0  0  0  0  0
   48.3240   34.5130   38.4990 C   0  0  0  0  0  3  0  0  0  0  0  0
   47.7910   33.5430   37.6970 C   0  0  0  0  0  3  0  0  0  0  0  0
   47.0740   32.5230   38.3020 C   0  0  0  0  0  3  0  0  0  0  0  0
   46.9300   32.5270   39.6700 C   0  0  0  0  0  3  0  0  0  0  0  0
   47.4470   33.4780   40.5150 C   0  0  0  0  0  0  0  0  0  0  0  0
  1  6  1  0  0  0  0
  2  1  2  0  0  0  0
  3  2  1  0  0  0  0
  3  4  2  0  0  0  0
  4  5  1  0  0  0  0
  5  6  2  0  0  0  0
  5  7  1  0  0  0  0
  7  8  1  0  0  0  0
  7 15  1  0  0  0  0
  8  9  2  0  0  0  0
  9 10  1  0  0  0  0
 10 11  1  0  0  0  0
 11 12  2  0  0  0  0
 13 16  1  0  0  0  0
 13 12  1  0  0  0  0
 14 13  2  0  0  0  0
 15 14  1  0  0  0  0
 15 10  2  0  0  0  0
 16 17  1  0  0  0  0
 18 17  2  0  0  0  0
 19 18  1  0  0  0  0
 20 19  2  0  0  0  0
 20 16  1  0  0  0  0
 21 19  1  0  0  0  0
 21 22  1  0  0  0  0
 23 22  2  0  0  0  0
 24 23  1  0  0  0  0
 25 30  1  0  0  0  0
 25 24  2  0  0  0  0
 26 25  1  0  0  0  0
 27 28  1  0  0  0  0
 27 26  2  0  0  0  0
 28 29  2  0  0  0  0
 29 30  1  0  0  0  0
 30 21  2  0  0  0  0
M  END
>  <minimizedAffinity>
-7.17049074

$$$$

 OpenBabel03242510093D

 30 35  0  0  0  0  0  0  0  0999 V2000
   41.5100   30.0070   42.8230 C   0  0  0  0  0  3  0  0  0  0  0  0
   40.7660   29.1680   41.9570 C   0  0  0  0  0  3  0  0  0  0  0  0
   40.7570   27.7850   42.2190 C   0  0  0  0  0  3  0  0  0  0  0  0
   41.4710   27.3470   43.2980 N   0  0  0  0  0  0  0  0  0  0  0  0
   42.1630   28.1660   44.0980 C   0  0  0  0  0  0  0  0  0  0  0  0
   42.1940   29.5000   43.8750 N   0  0  0  0  0  0  0  0  0  0  0  0
   42.8530   27.5510   45.1820 N   0  0  0  0  0  0  0  0  0  0  0  0
   42.5110   26.2800   45.5190 C   0  0  0  0  0  3  0  0  0  0  0  0
   43.2900   25.9240   46.5570 N   0  0  0  0  0  0  0  0  0  0  0  0
   44.1120   26.9170   46.8930 C   0  0  0  0  0  0  0  0  0  0  0  0
   45.0970   27.1800   47.8090 C   0  0  0  0  0  3  0  0  0  0  0  0
   45.7550   28.3670   47.8580 N   0  0  0  0  0  0  0  0  0  0  0  0
   45.4270   29.3220   46.9730 C   0  0  0  0  0  0  0  0  0  0  0  0
   44.4590   29.1140   46.0460 N   0  0  0  0  0  0  0  0  0  0  0  0
   43.8260   27.9410   46.0150 C   0  0  0  0  0  0  0  0  0  0  0  0
   46.0620   30.6000   46.9450 N   0  0  0  0  0  0  0  0  0  0  0  0
   47.0300   31.2200   47.6250 C   0  0  0  0  0  3  0  0  0  0  0  0
   47.2170   32.4480   47.1510 N   0  0  0  0  0  0  0  0  0  0  0  0
   46.3540   32.6280   46.1460 C   0  0  0  0  0  0  0  0  0  0  0  0
   45.6490   31.4730   46.0340 N   0  0  0  0  0  0  0  0  0  0  0  0
   45.9980   33.6980   45.1850 C   0  0  0  0  0  0  0  0  0  0  0  0
   44.9760   34.6320   45.3910 C   0  0  0  0  0  3  0  0  0  0  0  0
   44.6850   35.5980   44.4790 C   0  0  0  0  0  3  0  0  0  0  0  0
   45.3770   35.7170   43.2960 C   0  0  0  0  0  3  0  0  0  0  0  0
   46.3880   34.8200   43.0590 C   0  0  0  0  0  0  0  0  0  0  0  0
   47.0660   34.9570   41.8710 C   0  0  0  0  0  3  0  0  0  0  0  0
   48.0870   34.1050   41.5530 C   0  0  0  0  0  3  0  0  0  0  0  0
   48.4080   33.1100   42.4630 C   0  0  0  0  0  3  0  0  0  0  0  0
   47.6940   33.0200   43.6350 C   0  0  0  0  0  3  0  0  0  0  0  0
   46.6630   33.8520   43.9970 C   0  0  0  0  0  0  0  0  0  0  0  0
  1  6  1  0  0  0  0
  2  3  1  0  0  0  0
  2  1  2  0  0  0  0
  3  4  2  0  0  0  0
  4  5  1  0  0  0  0
  5  7  1  0  0  0  0
  6  5  2  0  0  0  0
  7  8  1  0  0  0  0
  7 15  1  0  0  0  0
  8  9  2  0  0  0  0
  9 10  1  0  0  0  0
 10 11  1  0  0  0  0
 11 12  2  0  0  0  0
 13 12  1  0  0  0  0
 14 13  2  0  0  0  0
 15 14  1  0  0  0  0
 15 10  2  0  0  0  0
 16 13  1  0  0  0  0
 16 17  1  0  0  0  0
 18 17  2  0  0  0  0
 19 18  1  0  0  0  0
 20 19  2  0  0  0  0
 20 16  1  0  0  0  0
 21 22  1  0  0  0  0
 21 19  1  0  0  0  0
 23 22  2  0  0  0  0
 24 23  1  0  0  0  0
 25 24  2  0  0  0  0
 25 30  1  0  0  0  0
 26 25  1  0  0  0  0
 27 26  2  0  0  0  0
 27 28  1  0  0  0  0
 28 29  2  0  0  0  0
 29 30  1  0  0  0  0
 30 21  2  0  0  0  0
M  END
>  <minimizedAffinity>
-7.15498924

$$$$

 OpenBabel03242510093D

 30 35  0  0  0  0  0  0  0  0999 V2000
   44.9560   31.6770   37.4410 C   0  0  0  0  0  3  0  0  0  0  0  0
   44.5260   30.6830   36.5270 C   0  0  0  0  0  3  0  0  0  0  0  0
   43.1420   30.4960   36.3540 C   0  0  0  0  0  3  0  0  0  0  0  0
   42.3050   31.2910   37.0840 N   0  0  0  0  0  0  0  0  0  0  0  0
   42.7430   32.2220   37.9390 C   0  0  0  0  0  0  0  0  0  0  0  0
   44.0660   32.4290   38.1310 N   0  0  0  0  0  0  0  0  0  0  0  0
   41.7410   32.9690   38.6220 N   0  0  0  0  0  0  0  0  0  0  0  0
   40.4710   32.9260   38.1400 C   0  0  0  0  0  3  0  0  0  0  0  0
   39.7190   33.7010   38.9420 N   0  0  0  0  0  0  0  0  0  0  0  0
   40.4580   34.2340   39.9140 C   0  0  0  0  0  0  0  0  0  0  0  0
   40.3050   35.0650   40.9930 C   0  0  0  0  0  3  0  0  0  0  0  0
   41.3380   35.4090   41.8060 N   0  0  0  0  0  0  0  0  0  0  0  0
   42.5580   34.9140   41.5400 C   0  0  0  0  0  0  0  0  0  0  0  0
   42.7630   34.0880   40.4850 N   0  0  0  0  0  0  0  0  0  0  0  0
   41.7360   33.7630   39.7000 C   0  0  0  0  0  0  0  0  0  0  0  0
   43.7030   35.2170   42.3370 N   0  0  0  0  0  0  0  0  0  0  0  0
   43.9650   35.9400   43.4290 C   0  0  0  0  0  3  0  0  0  0  0  0
   45.2550   35.8580   43.7420 N   0  0  0  0  0  0  0  0  0  0  0  0
   45.8400   35.0680   42.8350 C   0  0  0  0  0  0  0  0  0  0  0  0
   44.8630   34.6810   41.9760 N   0  0  0  0  0  0  0  0  0  0  0  0
   47.1960   34.5420   42.5520 C   0  0  0  0  0  0  0  0  0  0  0  0
   48.2120   35.2780   41.9320 C   0  0  0  0  0  3  0  0  0  0  0  0
   49.4430   34.7510   41.6930 C   0  0  0  0  0  3  0  0  0  0  0  0
   49.7660   33.4610   42.0450 C   0  0  0  0  0  3  0  0  0  0  0  0
   48.7950   32.7080   42.6570 C   0  0  0  0  0  0  0  0  0  0  0  0
   49.1390   31.4230   43.0000 C   0  0  0  0  0  3  0  0  0  0  0  0
   48.2330   30.6020   43.6120 C   0  0  0  0  0  3  0  0  0  0  0  0
   46.9700   31.1100   43.8700 C   0  0  0  0  0  3  0  0  0  0  0  0
   46.6820   32.4040   43.5030 C   0  0  0  0  0  3  0  0  0  0  0  0
   47.5580   33.2640   42.8870 C   0  0  0  0  0  0  0  0  0  0  0  0
  1  6  1  0  0  0  0
  2  1  2  0  0  0  0
  3  2  1  0  0  0  0
  3  4  2  0  0  0  0
  4  5  1  0  0  0  0
  5  6  2  0  0  0  0
  5  7  1  0  0  0  0
  7 15  1  0  0  0  0
  8  7  1  0  0  0  0
  8  9  2  0  0  0  0
  9 10  1  0  0  0  0
 10 11  1  0  0  0  0
 11 12  2  0  0  0  0
 13 12  1  0  0  0  0
 13 16  1  0  0  0  0
 14 13  2  0  0  0  0
 15 10  2  0  0  0  0
 15 14  1  0  0  0  0
 16 17  1  0  0  0  0
 17 18  2  0  0  0  0
 19 18  1  0  0  0  0
 20 16  1  0  0  0  0
 20 19  2  0  0  0  0
 21 19  1  0  0  0  0
 21 30  1  0  0  0  0
 22 21  2  0  0  0  0
 23 22  1  0  0  0  0
 23 24  2  0  0  0  0
 24 25  1  0  0  0  0
 25 30  2  0  0  0  0
 25 26  1  0  0  0  0
 26 27  2  0  0  0  0
 27 28  1  0  0  0  0
 29 28  2  0  0  0  0
 30 29  1  0  0  0  0
M  END
>  <minimizedAffinity>
-7.10608244

$$$$

 OpenBabel03242510093D

 30 35  0  0  0  0  0  0  0  0999 V2000
   43.5200   30.5260   37.7860 C   0  0  0  0  0  3  0  0  0  0  0  0
   42.7520   29.6730   36.9540 C   0  0  0  0  0  3  0  0  0  0  0  0
   41.4110   30.0190   36.7070 C   0  0  0  0  0  3  0  0  0  0  0  0
   40.9410   31.1620   37.2900 N   0  0  0  0  0  0  0  0  0  0  0  0
   41.6920   31.9470   38.0710 C   0  0  0  0  0  0  0  0  0  0  0  0
   42.9850   31.6440   38.3300 N   0  0  0  0  0  0  0  0  0  0  0  0
   41.0510   33.1040   38.6010 N   0  0  0  0  0  0  0  0  0  0  0  0
   39.8790   33.4990   38.0400 C   0  0  0  0  0  3  0  0  0  0  0  0
   39.4760   34.5990   38.7020 N   0  0  0  0  0  0  0  0  0  0  0  0
   40.3450   34.9180   39.6610 C   0  0  0  0  0  0  0  0  0  0  0  0
   40.5090   35.8700   40.6340 C   0  0  0  0  0  3  0  0  0  0  0  0
   41.5760   35.8820   41.4740 N   0  0  0  0  0  0  0  0  0  0  0  0
   42.5070   34.9220   41.3470 C   0  0  0  0  0  0  0  0  0  0  0  0
   42.3930   33.9580   40.4010 N   0  0  0  0  0  0  0  0  0  0  0  0
   41.3380   33.9630   39.5860 C   0  0  0  0  0  0  0  0  0  0  0  0
   43.6620   34.8510   42.1840 N   0  0  0  0  0  0  0  0  0  0  0  0
   44.1640   35.5440   43.2090 C   0  0  0  0  0  3  0  0  0  0  0  0
   45.3090   35.0060   43.6160 N   0  0  0  0  0  0  0  0  0  0  0  0
   45.5550   33.9450   42.8400 C   0  0  0  0  0  0  0  0  0  0  0  0
   44.5230   33.8660   41.9610 N   0  0  0  0  0  0  0  0  0  0  0  0
   46.5980   32.9020   42.7080 C   0  0  0  0  0  0  0  0  0  0  0  0
   46.3360   31.5270   42.6670 C   0  0  0  0  0  3  0  0  0  0  0  0
   47.3300   30.6070   42.5450 C   0  0  0  0  0  3  0  0  0  0  0  0
   48.6540   30.9670   42.4540 C   0  0  0  0  0  3  0  0  0  0  0  0
   48.9500   32.3070   42.4890 C   0  0  0  0  0  0  0  0  0  0  0  0
   50.2790   32.6460   42.3960 C   0  0  0  0  0  3  0  0  0  0  0  0
   50.6640   33.9570   42.4240 C   0  0  0  0  0  3  0  0  0  0  0  0
   49.6750   34.9200   42.5480 C   0  0  0  0  0  3  0  0  0  0  0  0
   48.3610   34.5220   42.6370 C   0  0  0  0  0  3  0  0  0  0  0  0
   47.9280   33.2200   42.6140 C   0  0  0  0  0  0  0  0  0  0  0  0
  1  6  1  0  0  0  0
  2  1  2  0  0  0  0
  3  2  1  0  0  0  0
  3  4  2  0  0  0  0
  4  5  1  0  0  0  0
  5  6  2  0  0  0  0
  5  7  1  0  0  0  0
  7 15  1  0  0  0  0
  8  7  1  0  0  0  0
  8  9  2  0  0  0  0
  9 10  1  0  0  0  0
 10 11  1  0  0  0  0
 11 12  2  0  0  0  0
 13 12  1  0  0  0  0
 13 16  1  0  0  0  0
 14 13  2  0  0  0  0
 15 10  2  0  0  0  0
 15 14  1  0  0  0  0
 16 17  1  0  0  0  0
 17 18  2  0  0  0  0
 19 18  1  0  0  0  0
 20 16  1  0  0  0  0
 20 19  2  0  0  0  0
 21 19  1  0  0  0  0
 22 21  1  0  0  0  0
 23 22  2  0  0  0  0
 24 25  2  0  0  0  0
 24 23  1  0  0  0  0
 25 30  1  0  0  0  0
 26 27  2  0  0  0  0
 26 25  1  0  0  0  0
 27 28  1  0  0  0  0
 28 29  2  0  0  0  0
 30 29  1  0  0  0  0
 30 21  2  0  0  0  0
M  END
>  <minimizedAffinity>
-7.09195328

$$$$

 OpenBabel03242510093D

 30 35  0  0  0  0  0  0  0  0999 V2000
   49.4590   31.5900   42.2030 C   0  0  0  0  0  3  0  0  0  0  0  0
   49.6270   31.6880   40.7990 C   0  0  0  0  0  3  0  0  0  0  0  0
   48.8340   32.6160   40.1000 C   0  0  0  0  0  3  0  0  0  0  0  0
   47.9520   33.3630   40.8290 N   0  0  0  0  0  0  0  0  0  0  0  0
   47.8170   33.2460   42.1550 C   0  0  0  0  0  0  0  0  0  0  0  0
   48.5640   32.3630   42.8590 N   0  0  0  0  0  0  0  0  0  0  0  0
   46.8540   34.0990   42.7670 N   0  0  0  0  0  0  0  0  0  0  0  0
   46.3940   35.1600   42.0530 C   0  0  0  0  0  3  0  0  0  0  0  0
   45.5080   35.8050   42.8330 N   0  0  0  0  0  0  0  0  0  0  0  0
   45.3860   35.1980   44.0120 C   0  0  0  0  0  0  0  0  0  0  0  0
   44.6890   35.3420   45.1840 C   0  0  0  0  0  3  0  0  0  0  0  0
   44.8260   34.4850   46.2290 N   0  0  0  0  0  0  0  0  0  0  0  0
   45.6790   33.4550   46.1090 C   0  0  0  0  0  0  0  0  0  0  0  0
   46.3930   33.2660   44.9720 N   0  0  0  0  0  0  0  0  0  0  0  0
   46.2430   34.1190   43.9580 C   0  0  0  0  0  0  0  0  0  0  0  0
   45.8880   32.5020   47.1510 N   0  0  0  0  0  0  0  0  0  0  0  0
   45.4200   32.2890   48.3830 C   0  0  0  0  0  3  0  0  0  0  0  0
   45.9880   31.2120   48.9160 N   0  0  0  0  0  0  0  0  0  0  0  0
   46.8410   30.7170   48.0130 C   0  0  0  0  0  0  0  0  0  0  0  0
   46.7640   31.5300   46.9280 N   0  0  0  0  0  0  0  0  0  0  0  0
   47.7860   29.5810   47.9050 C   0  0  0  0  0  0  0  0  0  0  0  0
   47.4370   28.3100   47.4340 C   0  0  0  0  0  3  0  0  0  0  0  0
   48.3400   27.2970   47.3520 C   0  0  0  0  0  3  0  0  0  0  0  0
   49.6540   27.4570   47.7280 C   0  0  0  0  0  3  0  0  0  0  0  0
   50.0340   28.6910   48.1940 C   0  0  0  0  0  0  0  0  0  0  0  0
   51.3500   28.8290   48.5650 C   0  0  0  0  0  3  0  0  0  0  0  0
   51.8150   30.0240   49.0410 C   0  0  0  0  0  3  0  0  0  0  0  0
   50.9190   31.0760   49.1360 C   0  0  0  0  0  3  0  0  0  0  0  0
   49.6120   30.8790   48.7510 C   0  0  0  0  0  3  0  0  0  0  0  0
   49.1020   29.6990   48.2680 C   0  0  0  0  0  0  0  0  0  0  0  0
  1  6  1  0  0  0  0
  2  1  2  0  0  0  0
  3  2  1  0  0  0  0
  3  4  2  0  0  0  0
  4  5  1  0  0  0  0
  5  7  1  0  0  0  0
  5  6  2  0  0  0  0
  7 15  1  0  0  0  0
  8  7  1  0  0  0  0
  8  9  2  0  0  0  0
  9 10  1  0  0  0  0
 10 11  1  0  0  0  0
 11 12  2  0  0  0  0
 13 12  1  0  0  0  0
 13 16  1  0  0  0  0
 14 13  2  0  0  0  0
 15 10  2  0  0  0  0
 15 14  1  0  0  0  0
 16 17  1  0  0  0  0
 17 18  2  0  0  0  0
 19 18  1  0  0  0  0
 20 16  1  0  0  0  0
 20 19  2  0  0  0  0
 21 19  1  0  0  0  0
 21 30  1  0  0  0  0
 22 21  2  0  0  0  0
 23 22  1  0  0  0  0
 23 24  2  0  0  0  0
 24 25  1  0  0  0  0
 25 30  2  0  0  0  0
 25 26  1  0  0  0  0
 26 27  2  0  0  0  0
 27 28  1  0  0  0  0
 29 28  2  0  0  0  0
 30 29  1  0  0  0  0
M  END
>  <minimizedAffinity>
-6.95703554

$$$$

 OpenBabel03242510093D

 30 35  0  0  0  0  0  0  0  0999 V2000
   46.4470   31.4500   36.8190 C   0  0  0  0  0  3  0  0  0  0  0  0
   47.3740   31.0080   35.8430 C   0  0  0  0  0  3  0  0  0  0  0  0
   48.7410   31.0110   36.1760 C   0  0  0  0  0  3  0  0  0  0  0  0
   49.0800   31.4420   37.4280 N   0  0  0  0  0  0  0  0  0  0  0  0
   48.1800   31.8530   38.3280 C   0  0  0  0  0  0  0  0  0  0  0  0
   46.8580   31.8640   38.0410 N   0  0  0  0  0  0  0  0  0  0  0  0
   48.6970   32.2700   39.5880 N   0  0  0  0  0  0  0  0  0  0  0  0
   49.9740   31.9270   39.9020 C   0  0  0  0  0  3  0  0  0  0  0  0
   50.2270   32.4260   41.1240 N   0  0  0  0  0  0  0  0  0  0  0  0
   49.1650   33.0740   41.6000 C   0  0  0  0  0  0  0  0  0  0  0  0
   48.7930   33.7690   42.7220 C   0  0  0  0  0  3  0  0  0  0  0  0
   47.5600   34.3210   42.8680 N   0  0  0  0  0  0  0  0  0  0  0  0
   46.6700   34.1800   41.8720 C   0  0  0  0  0  0  0  0  0  0  0  0
   46.9870   33.5010   40.7410 N   0  0  0  0  0  0  0  0  0  0  0  0
   48.2020   32.9680   40.6180 C   0  0  0  0  0  0  0  0  0  0  0  0
   45.3520   34.7250   41.9320 N   0  0  0  0  0  0  0  0  0  0  0  0
   44.6360   35.4440   42.8000 C   0  0  0  0  0  3  0  0  0  0  0  0
   43.4190   35.6770   42.3170 N   0  0  0  0  0  0  0  0  0  0  0  0
   43.3450   35.0980   41.1140 C   0  0  0  0  0  0  0  0  0  0  0  0
   44.5520   34.5140   40.8950 N   0  0  0  0  0  0  0  0  0  0  0  0
   42.3450   34.9430   40.0320 C   0  0  0  0  0  0  0  0  0  0  0  0
   42.3180   35.7220   38.8690 C   0  0  0  0  0  3  0  0  0  0  0  0
   41.3790   35.5420   37.9020 C   0  0  0  0  0  3  0  0  0  0  0  0
   40.3970   34.5850   38.0060 C   0  0  0  0  0  3  0  0  0  0  0  0
   40.3920   33.8010   39.1320 C   0  0  0  0  0  0  0  0  0  0  0  0
   39.4020   32.8510   39.2150 C   0  0  0  0  0  3  0  0  0  0  0  0
   39.3220   32.0270   40.3030 C   0  0  0  0  0  3  0  0  0  0  0  0
   40.2640   32.1840   41.3070 C   0  0  0  0  0  3  0  0  0  0  0  0
   41.2320   33.1530   41.1690 C   0  0  0  0  0  3  0  0  0  0  0  0
   41.3520   34.0020   40.0960 C   0  0  0  0  0  0  0  0  0  0  0  0
  1  6  1  0  0  0  0
  2  3  1  0  0  0  0
  2  1  2  0  0  0  0
  3  4  2  0  0  0  0
  4  5  1  0  0  0  0
  5  7  1  0  0  0  0
  6  5  2  0  0  0  0
  7  8  1  0  0  0  0
  7 15  1  0  0  0  0
  8  9  2  0  0  0  0
  9 10  1  0  0  0  0
 10 11  1  0  0  0  0
 11 12  2  0  0  0  0
 13 16  1  0  0  0  0
 13 12  1  0  0  0  0
 14 13  2  0  0  0  0
 15 14  1  0  0  0  0
 15 10  2  0  0  0  0
 16 17  1  0  0  0  0
 18 17  2  0  0  0  0
 19 18  1  0  0  0  0
 20 19  2  0  0  0  0
 20 16  1  0  0  0  0
 21 30  1  0  0  0  0
 21 19  1  0  0  0  0
 22 21  2  0  0  0  0
 23 24  2  0  0  0  0
 23 22  1  0  0  0  0
 24 25  1  0  0  0  0
 25 26  2  0  0  0  0
 25 30  1  0  0  0  0
 26 27  1  0  0  0  0
 27 28  2  0  0  0  0
 29 28  1  0  0  0  0
 30 29  2  0  0  0  0
M  END
>  <minimizedAffinity>
-6.92273331

$$$$
