
 OpenBabel03242509593D

 38 42  0  0  0  0  0  0  0  0999 V2000
   45.2650   34.3050   45.5950 C   0  0  0  0  0  0  0  0  0  0  0  0
   44.6020   35.3380   45.0740 N   0  0  0  0  0  0  0  0  0  0  0  0
   45.0290   35.5870   43.8720 O   0  0  0  0  0  0  0  0  0  0  0  0
   45.9690   34.7450   43.5630 C   0  0  0  0  0  0  0  0  0  0  0  0
   46.1370   33.9260   44.6330 N   0  0  0  0  0  0  0  0  0  0  0  0
   46.7260   34.6720   42.2990 C   0  0  0  0  0  0  0  0  0  0  0  0
   47.8960   35.3370   42.0620 C   0  0  0  0  0  3  0  0  0  0  0  0
   48.5540   35.2170   40.8390 C   0  0  0  0  0  3  0  0  0  0  0  0
   48.0200   34.4100   39.8400 C   0  0  0  0  0  3  0  0  0  0  0  0
   46.8520   33.7450   40.0750 C   0  0  0  0  0  3  0  0  0  0  0  0
   46.2190   33.8780   41.2890 C   0  0  0  0  0  0  0  0  0  0  0  0
   44.9660   33.1550   41.5150 C   0  0  0  0  0  0  0  0  0  0  0  0
   45.0060   31.9320   42.0860 N   0  0  0  0  0  0  0  0  0  0  0  0
   43.9240   31.1990   42.3320 C   0  0  0  0  0  3  0  0  0  0  0  0
   42.6980   31.6800   42.0040 N   0  0  0  0  0  0  0  0  0  0  0  0
   42.5650   32.9040   41.4260 C   0  0  0  0  0  0  0  0  0  0  0  0
   41.3200   33.3980   41.0910 C   0  0  0  0  0  3  0  0  0  0  0  0
   41.1850   34.6570   40.4950 C   0  0  0  0  0  3  0  0  0  0  0  0
   42.3580   35.3330   40.2830 C   0  0  0  0  0  3  0  0  0  0  0  0
   43.6270   34.8730   40.6040 C   0  0  0  0  0  3  0  0  0  0  0  0
   43.7130   33.6320   41.1870 C   0  0  0  0  0  0  0  0  0  0  0  0
   45.3200   33.5600   46.7460 O   0  0  0  0  0  0  0  0  0  0  0  0
   46.7810   30.2470   46.3690 C   0  0  0  0  0  0  0  0  0  0  0  0
   47.8090   30.3110   47.3420 C   0  0  0  0  0  0  0  0  0  0  0  0
   47.9580   31.4860   48.0860 C   0  0  0  0  0  0  0  0  0  0  0  0
   47.0950   32.5110   47.8280 N   0  0  0  0  0  0  0  0  0  0  0  0
   46.1180   32.4390   46.8960 C   0  0  0  0  0  0  0  0  0  0  0  0
   45.9550   31.3070   46.1610 N   0  0  0  0  0  0  0  0  0  0  0  0
   48.9530   31.5800   49.0380 N   0  0  0  0  0  0  0  0  0  0  0  0
   49.0620   32.4470   49.5860 H   0  0  0  0  0  0  0  0  0  0  0  0
   49.5860   30.7850   49.2020 H   0  0  0  0  0  0  0  0  0  0  0  0
   48.6170   29.1040   47.4640 C   0  0  0  0  0  0  0  0  0  0  0  0
   47.7770   27.8280   47.4190 C   0  0  0  0  0  1  0  0  0  0  0  0
   49.4920   29.0220   48.6680 C   0  0  0  0  0  1  0  0  0  0  0  0
   49.5410   29.0750   46.2480 C   0  0  0  0  0  1  0  0  0  0  0  0
   46.5860   29.1150   45.5950 N   0  0  0  0  0  0  0  0  0  0  0  0
   45.8320   29.0940   44.8940 H   0  0  0  0  0  0  0  0  0  0  0  0
   47.1950   28.2940   45.7210 H   0  0  0  0  0  0  0  0  0  0  0  0
  1 22  1  0  0  0  0
  2  1  2  0  0  0  0
  3  2  1  0  0  0  0
  4  3  1  0  0  0  0
  4  5  2  0  0  0  0
  5  1  1  0  0  0  0
  6  4  1  0  0  0  0
  7  6  1  0  0  0  0
  8  7  2  0  0  0  0
  9 10  2  0  0  0  0
  9  8  1  0  0  0  0
 10 11  1  0  0  0  0
 11 12  1  0  0  0  0
 11  6  2  0  0  0  0
 12 13  1  0  0  0  0
 13 14  2  0  0  0  0
 15 14  1  0  0  0  0
 16 15  2  0  0  0  0
 17 16  1  0  0  0  0
 18 17  2  0  0  0  0
 19 18  1  0  0  0  0
 19 20  2  0  0  0  0
 20 21  1  0  0  0  0
 21 16  1  0  0  0  0
 21 12  2  0  0  0  0
 22 27  1  0  0  0  0
 23 24  1  0  0  0  0
 24 32  1  0  0  0  0
 24 25  2  0  0  0  0
 25 29  1  0  0  0  0
 26 25  1  0  0  0  0
 27 26  2  0  0  0  0
 28 23  2  0  0  0  0
 28 27  1  0  0  0  0
 29 31  1  0  0  0  0
 29 30  1  0  0  0  0
 32 34  1  0  0  0  0
 33 32  1  0  0  0  0
 35 32  1  0  0  0  0
 36 38  1  0  0  0  0
 36 23  1  0  0  0  0
 37 36  1  0  0  0  0
M  END
>  <minimizedAffinity>
-7.72240734

$$$$

 OpenBabel03242509593D

 38 42  0  0  0  0  0  0  0  0999 V2000
   44.5040   30.5190   41.8750 C   0  0  0  0  0  0  0  0  0  0  0  0
   45.7910   30.3210   41.5900 N   0  0  0  0  0  0  0  0  0  0  0  0
   46.5220   30.5190   42.6460 O   0  0  0  0  0  0  0  0  0  0  0  0
   45.7590   30.8470   43.6450 C   0  0  0  0  0  0  0  0  0  0  0  0
   44.4810   30.8550   43.1850 N   0  0  0  0  0  0  0  0  0  0  0  0
   46.1740   31.1590   45.0260 C   0  0  0  0  0  0  0  0  0  0  0  0
   46.3720   30.2220   46.0010 C   0  0  0  0  0  3  0  0  0  0  0  0
   46.7640   30.5960   47.2850 C   0  0  0  0  0  3  0  0  0  0  0  0
   46.9620   31.9390   47.5880 C   0  0  0  0  0  3  0  0  0  0  0  0
   46.7660   32.8760   46.6140 C   0  0  0  0  0  3  0  0  0  0  0  0
   46.3780   32.4850   45.3550 C   0  0  0  0  0  0  0  0  0  0  0  0
   46.1720   33.5100   44.3290 C   0  0  0  0  0  0  0  0  0  0  0  0
   44.9650   34.1070   44.2280 N   0  0  0  0  0  0  0  0  0  0  0  0
   44.6830   35.0470   43.3300 C   0  0  0  0  0  3  0  0  0  0  0  0
   45.6390   35.4500   42.4550 N   0  0  0  0  0  0  0  0  0  0  0  0
   46.8840   34.9030   42.4880 C   0  0  0  0  0  0  0  0  0  0  0  0
   47.8610   35.3090   41.6010 C   0  0  0  0  0  3  0  0  0  0  0  0
   49.1400   34.7450   41.6350 C   0  0  0  0  0  3  0  0  0  0  0  0
   49.3310   33.7850   42.5950 C   0  0  0  0  0  3  0  0  0  0  0  0
   48.3790   33.3480   43.5030 C   0  0  0  0  0  3  0  0  0  0  0  0
   47.1350   33.9300   43.4340 C   0  0  0  0  0  0  0  0  0  0  0  0
   43.2720   30.4850   41.2700 O   0  0  0  0  0  0  0  0  0  0  0  0
   42.1890   33.2660   39.1870 C   0  0  0  0  0  0  0  0  0  0  0  0
   41.2130   33.8500   40.0320 C   0  0  0  0  0  0  0  0  0  0  0  0
   40.9670   33.2670   41.2790 C   0  0  0  0  0  0  0  0  0  0  0  0
   41.6900   32.1580   41.6110 N   0  0  0  0  0  0  0  0  0  0  0  0
   42.6190   31.6090   40.7960 C   0  0  0  0  0  0  0  0  0  0  0  0
   42.8750   32.1590   39.5800 N   0  0  0  0  0  0  0  0  0  0  0  0
   40.0190   33.8100   42.1220 N   0  0  0  0  0  0  0  0  0  0  0  0
   39.8380   33.3790   43.0400 H   0  0  0  0  0  0  0  0  0  0  0  0
   39.4920   34.6470   41.8330 H   0  0  0  0  0  0  0  0  0  0  0  0
   40.5580   35.0340   39.4880 C   0  0  0  0  0  0  0  0  0  0  0  0
   41.4300   35.7740   38.4750 C   0  0  0  0  0  1  0  0  0  0  0  0
   40.0840   36.0350   40.4860 C   0  0  0  0  0  1  0  0  0  0  0  0
   39.3220   34.5420   38.7400 C   0  0  0  0  0  1  0  0  0  0  0  0
   42.4750   33.7930   37.9380 N   0  0  0  0  0  0  0  0  0  0  0  0
   43.1890   33.3490   37.3430 H   0  0  0  0  0  0  0  0  0  0  0  0
   41.9730   34.6280   37.6040 H   0  0  0  0  0  0  0  0  0  0  0  0
  1  5  1  0  0  0  0
  2  1  2  0  0  0  0
  2  3  1  0  0  0  0
  3  4  1  0  0  0  0
  4  6  1  0  0  0  0
  5  4  2  0  0  0  0
  6 11  2  0  0  0  0
  6  7  1  0  0  0  0
  7  8  2  0  0  0  0
  8  9  1  0  0  0  0
 10  9  2  0  0  0  0
 11 10  1  0  0  0  0
 12 11  1  0  0  0  0
 13 12  1  0  0  0  0
 14 13  2  0  0  0  0
 15 16  2  0  0  0  0
 15 14  1  0  0  0  0
 16 21  1  0  0  0  0
 17 18  2  0  0  0  0
 17 16  1  0  0  0  0
 18 19  1  0  0  0  0
 19 20  2  0  0  0  0
 21 20  1  0  0  0  0
 21 12  2  0  0  0  0
 22  1  1  0  0  0  0
 23 28  2  0  0  0  0
 23 24  1  0  0  0  0
 24 25  2  0  0  0  0
 25 26  1  0  0  0  0
 25 29  1  0  0  0  0
 27 22  1  0  0  0  0
 27 26  2  0  0  0  0
 28 27  1  0  0  0  0
 29 30  1  0  0  0  0
 31 29  1  0  0  0  0
 32 24  1  0  0  0  0
 32 34  1  0  0  0  0
 33 32  1  0  0  0  0
 35 32  1  0  0  0  0
 36 23  1  0  0  0  0
 37 36  1  0  0  0  0
 38 36  1  0  0  0  0
M  END
>  <minimizedAffinity>
-7.64253283

$$$$

 OpenBabel03242509593D

 38 42  0  0  0  0  0  0  0  0999 V2000
   45.7680   34.5250   42.3890 C   0  0  0  0  0  0  0  0  0  0  0  0
   44.6750   35.1930   42.0180 N   0  0  0  0  0  0  0  0  0  0  0  0
   44.2740   34.7860   40.8500 O   0  0  0  0  0  0  0  0  0  0  0  0
   45.0720   33.8560   40.4180 C   0  0  0  0  0  0  0  0  0  0  0  0
   46.0230   33.6730   41.3700 N   0  0  0  0  0  0  0  0  0  0  0  0
   44.9840   33.1220   39.1420 C   0  0  0  0  0  0  0  0  0  0  0  0
   45.9620   33.1200   38.1860 C   0  0  0  0  0  3  0  0  0  0  0  0
   45.8050   32.4010   37.0020 C   0  0  0  0  0  3  0  0  0  0  0  0
   44.6410   31.6710   36.7820 C   0  0  0  0  0  3  0  0  0  0  0  0
   43.6650   31.6720   37.7360 C   0  0  0  0  0  3  0  0  0  0  0  0
   43.8400   32.3890   38.8950 C   0  0  0  0  0  0  0  0  0  0  0  0
   42.7770   32.3740   39.9020 C   0  0  0  0  0  0  0  0  0  0  0  0
   42.8950   31.5590   40.9720 N   0  0  0  0  0  0  0  0  0  0  0  0
   41.9840   31.4760   41.9380 C   0  0  0  0  0  3  0  0  0  0  0  0
   40.8640   32.2400   41.8730 N   0  0  0  0  0  0  0  0  0  0  0  0
   40.6640   33.0910   40.8300 C   0  0  0  0  0  0  0  0  0  0  0  0
   39.5270   33.8700   40.7590 C   0  0  0  0  0  3  0  0  0  0  0  0
   39.3220   34.7440   39.6850 C   0  0  0  0  0  3  0  0  0  0  0  0
   40.3180   34.7560   38.7430 C   0  0  0  0  0  3  0  0  0  0  0  0
   41.4730   33.9900   38.7770 C   0  0  0  0  0  3  0  0  0  0  0  0
   41.6340   33.1460   39.8490 C   0  0  0  0  0  0  0  0  0  0  0  0
   46.6550   34.4530   43.4330 O   0  0  0  0  0  0  0  0  0  0  0  0
   46.9390   31.5730   45.6410 C   0  0  0  0  0  0  0  0  0  0  0  0
   46.1080   31.9910   46.7100 C   0  0  0  0  0  0  0  0  0  0  0  0
   45.4870   33.2410   46.6300 C   0  0  0  0  0  0  0  0  0  0  0  0
   45.7190   33.9920   45.5150 N   0  0  0  0  0  0  0  0  0  0  0  0
   46.5140   33.5830   44.5000 C   0  0  0  0  0  0  0  0  0  0  0  0
   47.1290   32.3720   44.5570 N   0  0  0  0  0  0  0  0  0  0  0  0
   44.6750   33.6780   47.6580 N   0  0  0  0  0  0  0  0  0  0  0  0
   44.2180   34.5990   47.5980 H   0  0  0  0  0  0  0  0  0  0  0  0
   44.5270   33.0830   48.4860 H   0  0  0  0  0  0  0  0  0  0  0  0
   45.9900   31.0370   47.8070 C   0  0  0  0  0  0  0  0  0  0  0  0
   45.5890   29.6420   47.3290 C   0  0  0  0  0  1  0  0  0  0  0  0
   45.0590   31.4180   48.9070 C   0  0  0  0  0  1  0  0  0  0  0  0
   47.3790   30.9160   48.4300 C   0  0  0  0  0  1  0  0  0  0  0  0
   47.5880   30.3500   45.6630 N   0  0  0  0  0  0  0  0  0  0  0  0
   48.1860   30.0700   44.8730 H   0  0  0  0  0  0  0  0  0  0  0  0
   47.4720   29.7200   46.4700 H   0  0  0  0  0  0  0  0  0  0  0  0
  1 22  1  0  0  0  0
  2  1  2  0  0  0  0
  3  2  1  0  0  0  0
  4  3  1  0  0  0  0
  4  5  2  0  0  0  0
  5  1  1  0  0  0  0
  6  4  1  0  0  0  0
  7  6  2  0  0  0  0
  8  7  1  0  0  0  0
  9  8  2  0  0  0  0
  9 10  1  0  0  0  0
 10 11  2  0  0  0  0
 11  6  1  0  0  0  0
 11 12  1  0  0  0  0
 12 13  1  0  0  0  0
 13 14  2  0  0  0  0
 15 14  1  0  0  0  0
 16 15  2  0  0  0  0
 17 16  1  0  0  0  0
 18 17  2  0  0  0  0
 19 20  2  0  0  0  0
 19 18  1  0  0  0  0
 20 21  1  0  0  0  0
 21 12  2  0  0  0  0
 21 16  1  0  0  0  0
 22 27  1  0  0  0  0
 23 36  1  0  0  0  0
 23 24  1  0  0  0  0
 24 32  1  0  0  0  0
 25 24  2  0  0  0  0
 25 29  1  0  0  0  0
 26 25  1  0  0  0  0
 27 28  1  0  0  0  0
 27 26  2  0  0  0  0
 28 23  2  0  0  0  0
 29 31  1  0  0  0  0
 30 29  1  0  0  0  0
 32 35  1  0  0  0  0
 32 34  1  0  0  0  0
 33 32  1  0  0  0  0
 36 38  1  0  0  0  0
 37 36  1  0  0  0  0
M  END
>  <minimizedAffinity>
-7.63177538

$$$$

 OpenBabel03242509593D

 38 42  0  0  0  0  0  0  0  0999 V2000
   44.8320   35.2790   44.1680 C   0  0  0  0  0  0  0  0  0  0  0  0
   44.0670   35.9940   43.3420 N   0  0  0  0  0  0  0  0  0  0  0  0
   44.3540   35.7110   42.1060 O   0  0  0  0  0  0  0  0  0  0  0  0
   45.2990   34.8200   42.0740 C   0  0  0  0  0  0  0  0  0  0  0  0
   45.6180   34.5310   43.3620 N   0  0  0  0  0  0  0  0  0  0  0  0
   45.9240   34.2190   40.8800 C   0  0  0  0  0  0  0  0  0  0  0  0
   47.2110   34.4540   40.4840 C   0  0  0  0  0  3  0  0  0  0  0  0
   47.7310   33.8490   39.3410 C   0  0  0  0  0  3  0  0  0  0  0  0
   46.9370   32.9910   38.5870 C   0  0  0  0  0  3  0  0  0  0  0  0
   45.6520   32.7550   38.9820 C   0  0  0  0  0  3  0  0  0  0  0  0
   45.1590   33.3640   40.1120 C   0  0  0  0  0  0  0  0  0  0  0  0
   43.7760   33.0950   40.5130 C   0  0  0  0  0  0  0  0  0  0  0  0
   43.5330   32.1470   41.4420 N   0  0  0  0  0  0  0  0  0  0  0  0
   42.3140   31.8320   41.8700 C   0  0  0  0  0  3  0  0  0  0  0  0
   41.2350   32.4830   41.3650 N   0  0  0  0  0  0  0  0  0  0  0  0
   41.3890   33.4550   40.4260 C   0  0  0  0  0  0  0  0  0  0  0  0
   40.2960   34.1200   39.9090 C   0  0  0  0  0  3  0  0  0  0  0  0
   40.4550   35.1180   38.9420 C   0  0  0  0  0  3  0  0  0  0  0  0
   41.7490   35.3680   38.5670 C   0  0  0  0  0  3  0  0  0  0  0  0
   42.8730   34.7230   39.0600 C   0  0  0  0  0  3  0  0  0  0  0  0
   42.6710   33.7500   40.0080 C   0  0  0  0  0  0  0  0  0  0  0  0
   45.0430   35.0920   45.5110 O   0  0  0  0  0  0  0  0  0  0  0  0
   45.4040   32.2570   47.7660 C   0  0  0  0  0  0  0  0  0  0  0  0
   46.2680   31.4340   47.0010 C   0  0  0  0  0  0  0  0  0  0  0  0
   46.6890   31.8840   45.7460 C   0  0  0  0  0  0  0  0  0  0  0  0
   46.2400   33.1030   45.3280 N   0  0  0  0  0  0  0  0  0  0  0  0
   45.4160   33.8800   46.0670 C   0  0  0  0  0  0  0  0  0  0  0  0
   44.9930   33.4630   47.2890 N   0  0  0  0  0  0  0  0  0  0  0  0
   47.5270   31.1020   44.9760 N   0  0  0  0  0  0  0  0  0  0  0  0
   47.8370   31.4350   44.0520 H   0  0  0  0  0  0  0  0  0  0  0  0
   47.8420   30.1860   45.3260 H   0  0  0  0  0  0  0  0  0  0  0  0
   46.6330   30.1710   47.6330 C   0  0  0  0  0  0  0  0  0  0  0  0
   47.4730   29.2800   46.7190 C   0  0  0  0  0  1  0  0  0  0  0  0
   45.5020   29.3460   48.1460 C   0  0  0  0  0  1  0  0  0  0  0  0
   47.5010   30.5230   48.8380 C   0  0  0  0  0  1  0  0  0  0  0  0
   44.9460   31.8660   49.0130 N   0  0  0  0  0  0  0  0  0  0  0  0
   44.3190   32.4830   49.5480 H   0  0  0  0  0  0  0  0  0  0  0  0
   45.2330   30.9570   49.4050 H   0  0  0  0  0  0  0  0  0  0  0  0
  1 22  1  0  0  0  0
  2  1  2  0  0  0  0
  3  2  1  0  0  0  0
  4  3  1  0  0  0  0
  4  5  2  0  0  0  0
  5  1  1  0  0  0  0
  6  4  1  0  0  0  0
  7  6  1  0  0  0  0
  8  7  2  0  0  0  0
  9 10  2  0  0  0  0
  9  8  1  0  0  0  0
 10 11  1  0  0  0  0
 11 12  1  0  0  0  0
 11  6  2  0  0  0  0
 12 13  1  0  0  0  0
 13 14  2  0  0  0  0
 15 14  1  0  0  0  0
 16 15  2  0  0  0  0
 17 16  1  0  0  0  0
 18 17  2  0  0  0  0
 19 18  1  0  0  0  0
 19 20  2  0  0  0  0
 20 21  1  0  0  0  0
 21 16  1  0  0  0  0
 21 12  2  0  0  0  0
 22 27  1  0  0  0  0
 23 36  1  0  0  0  0
 24 32  1  0  0  0  0
 24 23  2  0  0  0  0
 25 24  1  0  0  0  0
 26 25  2  0  0  0  0
 26 27  1  0  0  0  0
 27 28  2  0  0  0  0
 28 23  1  0  0  0  0
 29 31  1  0  0  0  0
 29 25  1  0  0  0  0
 30 29  1  0  0  0  0
 32 34  1  0  0  0  0
 32 35  1  0  0  0  0
 33 32  1  0  0  0  0
 36 38  1  0  0  0  0
 36 37  1  0  0  0  0
M  END
>  <minimizedAffinity>
-7.56720304

$$$$

 OpenBabel03242509593D

 38 42  0  0  0  0  0  0  0  0999 V2000
   45.3650   34.6480   42.1300 C   0  0  0  0  0  0  0  0  0  0  0  0
   45.5600   34.2050   40.8870 N   0  0  0  0  0  0  0  0  0  0  0  0
   44.4410   34.2120   40.2260 O   0  0  0  0  0  0  0  0  0  0  0  0
   43.4880   34.6510   40.9920 C   0  0  0  0  0  0  0  0  0  0  0  0
   44.0450   34.9330   42.1980 N   0  0  0  0  0  0  0  0  0  0  0  0
   42.0650   34.8210   40.6440 C   0  0  0  0  0  0  0  0  0  0  0  0
   41.3480   35.9640   40.8650 C   0  0  0  0  0  3  0  0  0  0  0  0
   40.0030   36.0470   40.5080 C   0  0  0  0  0  3  0  0  0  0  0  0
   39.3730   34.9570   39.9170 C   0  0  0  0  0  3  0  0  0  0  0  0
   40.0880   33.8150   39.6950 C   0  0  0  0  0  3  0  0  0  0  0  0
   41.4130   33.7550   40.0560 C   0  0  0  0  0  0  0  0  0  0  0  0
   42.1560   32.5180   39.8090 C   0  0  0  0  0  0  0  0  0  0  0  0
   42.8260   32.3740   38.6450 N   0  0  0  0  0  0  0  0  0  0  0  0
   43.5290   31.2900   38.3300 C   0  0  0  0  0  3  0  0  0  0  0  0
   43.5970   30.2540   39.2050 N   0  0  0  0  0  0  0  0  0  0  0  0
   42.9530   30.3150   40.4020 C   0  0  0  0  0  0  0  0  0  0  0  0
   43.0180   29.2660   41.2960 C   0  0  0  0  0  3  0  0  0  0  0  0
   42.3550   29.3290   42.5260 C   0  0  0  0  0  3  0  0  0  0  0  0
   41.6590   30.4870   42.7570 C   0  0  0  0  0  3  0  0  0  0  0  0
   41.5670   31.5630   41.8860 C   0  0  0  0  0  3  0  0  0  0  0  0
   42.2340   31.4580   40.6890 C   0  0  0  0  0  0  0  0  0  0  0  0
   46.0640   34.8860   43.2860 O   0  0  0  0  0  0  0  0  0  0  0  0
   45.3570   33.4280   46.5460 C   0  0  0  0  0  0  0  0  0  0  0  0
   46.1230   32.2390   46.4620 C   0  0  0  0  0  0  0  0  0  0  0  0
   46.8480   31.9860   45.2940 C   0  0  0  0  0  0  0  0  0  0  0  0
   46.7760   32.9100   44.2930 N   0  0  0  0  0  0  0  0  0  0  0  0
   46.0410   34.0420   44.3830 C   0  0  0  0  0  0  0  0  0  0  0  0
   45.3280   34.3080   45.5090 N   0  0  0  0  0  0  0  0  0  0  0  0
   47.6000   30.8330   45.1810 N   0  0  0  0  0  0  0  0  0  0  0  0
   48.1330   30.6490   44.3190 H   0  0  0  0  0  0  0  0  0  0  0  0
   47.6260   30.1580   45.9590 H   0  0  0  0  0  0  0  0  0  0  0  0
   46.0680   31.3870   47.6450 C   0  0  0  0  0  0  0  0  0  0  0  0
   46.0300   29.9000   47.2960 C   0  0  0  0  0  1  0  0  0  0  0  0
   44.9460   31.6540   48.5900 C   0  0  0  0  0  1  0  0  0  0  0  0
   47.3600   31.6330   48.4190 C   0  0  0  0  0  1  0  0  0  0  0  0
   44.6130   33.7330   47.6730 N   0  0  0  0  0  0  0  0  0  0  0  0
   44.0640   34.6040   47.7080 H   0  0  0  0  0  0  0  0  0  0  0  0
   44.6060   33.0880   48.4760 H   0  0  0  0  0  0  0  0  0  0  0  0
  1  5  1  0  0  0  0
  1 22  1  0  0  0  0
  2  1  2  0  0  0  0
  3  2  1  0  0  0  0
  3  4  1  0  0  0  0
  4  5  2  0  0  0  0
  6  7  1  0  0  0  0
  6  4  1  0  0  0  0
  8  7  2  0  0  0  0
  9  8  1  0  0  0  0
 10  9  2  0  0  0  0
 10 11  1  0  0  0  0
 11  6  2  0  0  0  0
 12 11  1  0  0  0  0
 12 21  1  0  0  0  0
 13 12  2  0  0  0  0
 14 13  1  0  0  0  0
 14 15  2  0  0  0  0
 15 16  1  0  0  0  0
 16 21  2  0  0  0  0
 16 17  1  0  0  0  0
 17 18  2  0  0  0  0
 18 19  1  0  0  0  0
 20 19  2  0  0  0  0
 21 20  1  0  0  0  0
 22 27  1  0  0  0  0
 23 36  1  0  0  0  0
 24 23  1  0  0  0  0
 24 32  1  0  0  0  0
 25 24  2  0  0  0  0
 26 27  2  0  0  0  0
 26 25  1  0  0  0  0
 27 28  1  0  0  0  0
 28 23  2  0  0  0  0
 29 25  1  0  0  0  0
 29 31  1  0  0  0  0
 30 29  1  0  0  0  0
 32 35  1  0  0  0  0
 32 34  1  0  0  0  0
 33 32  1  0  0  0  0
 36 37  1  0  0  0  0
 36 38  1  0  0  0  0
M  END
>  <minimizedAffinity>
-7.45146036

$$$$

 OpenBabel03242509593D

 38 42  0  0  0  0  0  0  0  0999 V2000
   44.7950   31.5990   43.0880 C   0  0  0  0  0  0  0  0  0  0  0  0
   45.3430   32.5130   43.8900 N   0  0  0  0  0  0  0  0  0  0  0  0
   46.6000   32.2430   44.0850 O   0  0  0  0  0  0  0  0  0  0  0  0
   46.9180   31.1650   43.4340 C   0  0  0  0  0  0  0  0  0  0  0  0
   45.7960   30.7390   42.7970 N   0  0  0  0  0  0  0  0  0  0  0  0
   48.2370   30.5070   43.3800 C   0  0  0  0  0  0  0  0  0  0  0  0
   48.6800   29.5920   44.2940 C   0  0  0  0  0  3  0  0  0  0  0  0
   49.9420   29.0130   44.1750 C   0  0  0  0  0  3  0  0  0  0  0  0
   50.7700   29.3640   43.1130 C   0  0  0  0  0  3  0  0  0  0  0  0
   50.3290   30.2770   42.1990 C   0  0  0  0  0  3  0  0  0  0  0  0
   49.0800   30.8360   42.3370 C   0  0  0  0  0  0  0  0  0  0  0  0
   48.6310   31.8140   41.3430 C   0  0  0  0  0  0  0  0  0  0  0  0
   47.9620   31.3840   40.2520 N   0  0  0  0  0  0  0  0  0  0  0  0
   47.5150   32.1940   39.2970 C   0  0  0  0  0  3  0  0  0  0  0  0
   47.7260   33.5310   39.3960 N   0  0  0  0  0  0  0  0  0  0  0  0
   48.3900   34.0510   40.4630 C   0  0  0  0  0  0  0  0  0  0  0  0
   48.6070   35.4100   40.5700 C   0  0  0  0  0  3  0  0  0  0  0  0
   49.2910   35.9430   41.6670 C   0  0  0  0  0  3  0  0  0  0  0  0
   49.7120   35.0270   42.5960 C   0  0  0  0  0  3  0  0  0  0  0  0
   49.5150   33.6560   42.5270 C   0  0  0  0  0  3  0  0  0  0  0  0
   48.8380   33.1750   41.4320 C   0  0  0  0  0  0  0  0  0  0  0  0
   43.5890   31.2940   42.5080 O   0  0  0  0  0  0  0  0  0  0  0  0
   40.7640   33.2040   41.2360 C   0  0  0  0  0  0  0  0  0  0  0  0
   41.4370   34.1170   40.3870 C   0  0  0  0  0  0  0  0  0  0  0  0
   42.8300   34.0400   40.2870 C   0  0  0  0  0  0  0  0  0  0  0  0
   43.4640   33.0800   41.0190 N   0  0  0  0  0  0  0  0  0  0  0  0
   42.8110   32.2130   41.8270 C   0  0  0  0  0  0  0  0  0  0  0  0
   41.4580   32.2700   41.9400 N   0  0  0  0  0  0  0  0  0  0  0  0
   43.5140   34.9190   39.4710 N   0  0  0  0  0  0  0  0  0  0  0  0
   44.5410   34.8610   39.3990 H   0  0  0  0  0  0  0  0  0  0  0  0
   42.9990   35.6330   38.9360 H   0  0  0  0  0  0  0  0  0  0  0  0
   40.5720   35.0610   39.6900 C   0  0  0  0  0  0  0  0  0  0  0  0
   40.1650   36.2430   40.5690 C   0  0  0  0  0  1  0  0  0  0  0  0
   39.3270   34.4930   39.0980 C   0  0  0  0  0  1  0  0  0  0  0  0
   41.3900   35.6270   38.5310 C   0  0  0  0  0  1  0  0  0  0  0  0
   39.3870   33.2320   41.3830 N   0  0  0  0  0  0  0  0  0  0  0  0
   38.9210   32.5570   42.0070 H   0  0  0  0  0  0  0  0  0  0  0  0
   38.8280   33.9290   40.8700 H   0  0  0  0  0  0  0  0  0  0  0  0
  1  2  2  0  0  0  0
  2  3  1  0  0  0  0
  4  3  1  0  0  0  0
  5  1  1  0  0  0  0
  5  4  2  0  0  0  0
  6  4  1  0  0  0  0
  6  7  1  0  0  0  0
  8  7  2  0  0  0  0
  9  8  1  0  0  0  0
 10 11  1  0  0  0  0
 10  9  2  0  0  0  0
 11  6  2  0  0  0  0
 12 21  1  0  0  0  0
 12 11  1  0  0  0  0
 13 12  2  0  0  0  0
 14 15  2  0  0  0  0
 14 13  1  0  0  0  0
 15 16  1  0  0  0  0
 16 17  2  0  0  0  0
 16 21  1  0  0  0  0
 17 18  1  0  0  0  0
 18 19  2  0  0  0  0
 20 19  1  0  0  0  0
 21 20  2  0  0  0  0
 22  1  1  0  0  0  0
 23 36  1  0  0  0  0
 23 28  1  0  0  0  0
 24 23  2  0  0  0  0
 25 24  1  0  0  0  0
 25 26  2  0  0  0  0
 26 27  1  0  0  0  0
 27 28  2  0  0  0  0
 27 22  1  0  0  0  0
 29 25  1  0  0  0  0
 30 29  1  0  0  0  0
 31 29  1  0  0  0  0
 32 24  1  0  0  0  0
 32 33  1  0  0  0  0
 34 32  1  0  0  0  0
 35 32  1  0  0  0  0
 36 37  1  0  0  0  0
 38 36  1  0  0  0  0
M  END
>  <minimizedAffinity>
-7.41366196

$$$$

 OpenBabel03242509593D

 38 42  0  0  0  0  0  0  0  0999 V2000
   44.1130   30.2060   42.2030 C   0  0  0  0  0  0  0  0  0  0  0  0
   45.3840   29.9550   41.8840 N   0  0  0  0  0  0  0  0  0  0  0  0
   46.1430   30.0740   42.9320 O   0  0  0  0  0  0  0  0  0  0  0  0
   45.4160   30.4000   43.9580 C   0  0  0  0  0  0  0  0  0  0  0  0
   44.1320   30.4900   43.5250 N   0  0  0  0  0  0  0  0  0  0  0  0
   45.8730   30.6340   45.3410 C   0  0  0  0  0  0  0  0  0  0  0  0
   45.5790   29.8200   46.3990 C   0  0  0  0  0  3  0  0  0  0  0  0
   46.0470   30.1090   47.6790 C   0  0  0  0  0  3  0  0  0  0  0  0
   46.8280   31.2410   47.8930 C   0  0  0  0  0  3  0  0  0  0  0  0
   47.1230   32.0550   46.8380 C   0  0  0  0  0  3  0  0  0  0  0  0
   46.6490   31.7510   45.5840 C   0  0  0  0  0  0  0  0  0  0  0  0
   46.9790   32.6410   44.4690 C   0  0  0  0  0  0  0  0  0  0  0  0
   48.0150   32.3290   43.6610 N   0  0  0  0  0  0  0  0  0  0  0  0
   48.3900   33.0730   42.6250 C   0  0  0  0  0  3  0  0  0  0  0  0
   47.7150   34.2150   42.3380 N   0  0  0  0  0  0  0  0  0  0  0  0
   46.6570   34.6040   43.0990 C   0  0  0  0  0  0  0  0  0  0  0  0
   45.9660   35.7640   42.8110 C   0  0  0  0  0  3  0  0  0  0  0  0
   44.8790   36.1650   43.5950 C   0  0  0  0  0  3  0  0  0  0  0  0
   44.5710   35.3310   44.6380 C   0  0  0  0  0  3  0  0  0  0  0  0
   45.2390   34.1600   44.9620 C   0  0  0  0  0  3  0  0  0  0  0  0
   46.3010   33.8040   44.1650 C   0  0  0  0  0  0  0  0  0  0  0  0
   42.8710   30.2580   41.6220 O   0  0  0  0  0  0  0  0  0  0  0  0
   40.9200   33.3140   41.3060 C   0  0  0  0  0  0  0  0  0  0  0  0
   41.2700   33.7030   39.9890 C   0  0  0  0  0  0  0  0  0  0  0  0
   42.1600   32.9030   39.2660 C   0  0  0  0  0  0  0  0  0  0  0  0
   42.6420   31.7830   39.8770 N   0  0  0  0  0  0  0  0  0  0  0  0
   42.3010   31.4220   41.1350 C   0  0  0  0  0  0  0  0  0  0  0  0
   41.4380   32.1840   41.8570 N   0  0  0  0  0  0  0  0  0  0  0  0
   42.5240   33.2590   37.9820 N   0  0  0  0  0  0  0  0  0  0  0  0
   43.1800   32.6680   37.4510 H   0  0  0  0  0  0  0  0  0  0  0  0
   42.1400   34.1140   37.5560 H   0  0  0  0  0  0  0  0  0  0  0  0
   40.6400   34.9320   39.5220 C   0  0  0  0  0  0  0  0  0  0  0  0
   41.4670   35.6470   38.4540 C   0  0  0  0  0  1  0  0  0  0  0  0
   40.3040   35.9350   40.5730 C   0  0  0  0  0  1  0  0  0  0  0  0
   39.3220   34.5240   38.8690 C   0  0  0  0  0  1  0  0  0  0  0  0
   40.0490   34.0670   42.0760 N   0  0  0  0  0  0  0  0  0  0  0  0
   39.8100   33.7630   43.0300 H   0  0  0  0  0  0  0  0  0  0  0  0
   39.6390   34.9330   41.6940 H   0  0  0  0  0  0  0  0  0  0  0  0
  1  5  1  0  0  0  0
  2  1  2  0  0  0  0
  2  3  1  0  0  0  0
  3  4  1  0  0  0  0
  4  6  1  0  0  0  0
  5  4  2  0  0  0  0
  6 11  2  0  0  0  0
  6  7  1  0  0  0  0
  7  8  2  0  0  0  0
  8  9  1  0  0  0  0
 10  9  2  0  0  0  0
 11 10  1  0  0  0  0
 12 11  1  0  0  0  0
 13 12  2  0  0  0  0
 14 13  1  0  0  0  0
 15 14  2  0  0  0  0
 15 16  1  0  0  0  0
 16 21  1  0  0  0  0
 17 16  2  0  0  0  0
 17 18  1  0  0  0  0
 18 19  2  0  0  0  0
 19 20  1  0  0  0  0
 21 12  1  0  0  0  0
 21 20  2  0  0  0  0
 22  1  1  0  0  0  0
 23 28  1  0  0  0  0
 23 36  1  0  0  0  0
 24 23  2  0  0  0  0
 25 26  2  0  0  0  0
 25 24  1  0  0  0  0
 26 27  1  0  0  0  0
 27 22  1  0  0  0  0
 27 28  2  0  0  0  0
 29 25  1  0  0  0  0
 30 29  1  0  0  0  0
 31 29  1  0  0  0  0
 32 24  1  0  0  0  0
 32 34  1  0  0  0  0
 33 32  1  0  0  0  0
 35 32  1  0  0  0  0
 36 37  1  0  0  0  0
 38 36  1  0  0  0  0
M  END
>  <minimizedAffinity>
-7.39730549

$$$$

 OpenBabel03242509593D

 38 42  0  0  0  0  0  0  0  0999 V2000
   45.4520   34.5460   42.1630 C   0  0  0  0  0  0  0  0  0  0  0  0
   45.5940   34.1570   40.8960 N   0  0  0  0  0  0  0  0  0  0  0  0
   44.4440   34.1670   40.2900 O   0  0  0  0  0  0  0  0  0  0  0  0
   43.5220   34.5550   41.1190 C   0  0  0  0  0  0  0  0  0  0  0  0
   44.1320   34.8000   42.3070 N   0  0  0  0  0  0  0  0  0  0  0  0
   42.0800   34.7080   40.8480 C   0  0  0  0  0  0  0  0  0  0  0  0
   41.4410   35.9110   40.7360 C   0  0  0  0  0  3  0  0  0  0  0  0
   40.0720   35.9740   40.4780 C   0  0  0  0  0  3  0  0  0  0  0  0
   39.3390   34.8020   40.3300 C   0  0  0  0  0  3  0  0  0  0  0  0
   39.9760   33.6000   40.4410 C   0  0  0  0  0  3  0  0  0  0  0  0
   41.3260   33.5610   40.6960 C   0  0  0  0  0  0  0  0  0  0  0  0
   41.9860   32.2590   40.8120 C   0  0  0  0  0  0  0  0  0  0  0  0
   42.2060   31.7390   42.0380 N   0  0  0  0  0  0  0  0  0  0  0  0
   42.7960   30.5650   42.2450 C   0  0  0  0  0  3  0  0  0  0  0  0
   43.2120   29.8250   41.1850 N   0  0  0  0  0  0  0  0  0  0  0  0
   43.0290   30.2730   39.9140 C   0  0  0  0  0  0  0  0  0  0  0  0
   43.4490   29.5250   38.8320 C   0  0  0  0  0  3  0  0  0  0  0  0
   43.2620   29.9870   37.5250 C   0  0  0  0  0  3  0  0  0  0  0  0
   42.6450   31.2060   37.4180 C   0  0  0  0  0  3  0  0  0  0  0  0
   42.2090   31.9880   38.4760 C   0  0  0  0  0  3  0  0  0  0  0  0
   42.4130   31.4960   39.7430 C   0  0  0  0  0  0  0  0  0  0  0  0
   46.2030   34.7520   43.2930 O   0  0  0  0  0  0  0  0  0  0  0  0
   46.8640   31.9470   45.5170 C   0  0  0  0  0  0  0  0  0  0  0  0
   46.0780   32.3200   46.6350 C   0  0  0  0  0  0  0  0  0  0  0  0
   45.3550   33.5150   46.5800 C   0  0  0  0  0  0  0  0  0  0  0  0
   45.4500   34.2600   45.4410 N   0  0  0  0  0  0  0  0  0  0  0  0
   46.2050   33.8940   44.3790 C   0  0  0  0  0  0  0  0  0  0  0  0
   46.9160   32.7360   44.4100 N   0  0  0  0  0  0  0  0  0  0  0  0
   44.5830   33.9070   47.6560 N   0  0  0  0  0  0  0  0  0  0  0  0
   44.0510   34.7890   47.6140 H   0  0  0  0  0  0  0  0  0  0  0  0
   44.5390   33.3190   48.5000 H   0  0  0  0  0  0  0  0  0  0  0  0
   46.1110   31.3810   47.7500 C   0  0  0  0  0  0  0  0  0  0  0  0
   45.7010   32.0280   49.0730 C   0  0  0  0  0  1  0  0  0  0  0  0
   47.4070   30.6810   47.9770 C   0  0  0  0  0  1  0  0  0  0  0  0
   45.0770   30.3010   47.4410 C   0  0  0  0  0  1  0  0  0  0  0  0
   47.6080   30.7790   45.5110 N   0  0  0  0  0  0  0  0  0  0  0  0
   48.1720   30.5310   44.6860 H   0  0  0  0  0  0  0  0  0  0  0  0
   47.5980   30.1570   46.3330 H   0  0  0  0  0  0  0  0  0  0  0  0
  1  5  1  0  0  0  0
  1 22  1  0  0  0  0
  2  1  2  0  0  0  0
  3  2  1  0  0  0  0
  3  4  1  0  0  0  0
  4  5  2  0  0  0  0
  6  4  1  0  0  0  0
  7  6  1  0  0  0  0
  8  7  2  0  0  0  0
  9 10  2  0  0  0  0
  9  8  1  0  0  0  0
 10 11  1  0  0  0  0
 11 12  1  0  0  0  0
 11  6  2  0  0  0  0
 12 13  1  0  0  0  0
 13 14  2  0  0  0  0
 15 14  1  0  0  0  0
 16 15  2  0  0  0  0
 17 16  1  0  0  0  0
 18 17  2  0  0  0  0
 19 18  1  0  0  0  0
 19 20  2  0  0  0  0
 20 21  1  0  0  0  0
 21 16  1  0  0  0  0
 21 12  2  0  0  0  0
 22 27  1  0  0  0  0
 23 24  1  0  0  0  0
 24 32  1  0  0  0  0
 25 24  2  0  0  0  0
 25 29  1  0  0  0  0
 26 25  1  0  0  0  0
 27 28  1  0  0  0  0
 27 26  2  0  0  0  0
 28 23  2  0  0  0  0
 29 31  1  0  0  0  0
 30 29  1  0  0  0  0
 32 34  1  0  0  0  0
 32 33  1  0  0  0  0
 35 32  1  0  0  0  0
 36 23  1  0  0  0  0
 36 38  1  0  0  0  0
 37 36  1  0  0  0  0
M  END
>  <minimizedAffinity>
-7.39226961

$$$$

 OpenBabel03242509593D

 38 42  0  0  0  0  0  0  0  0999 V2000
   47.1290   34.9540   42.1360 C   0  0  0  0  0  0  0  0  0  0  0  0
   48.3270   35.5100   41.9550 N   0  0  0  0  0  0  0  0  0  0  0  0
   48.8200   35.1520   40.8070 O   0  0  0  0  0  0  0  0  0  0  0  0
   47.9830   34.3630   40.2030 C   0  0  0  0  0  0  0  0  0  0  0  0
   46.9080   34.2220   41.0210 N   0  0  0  0  0  0  0  0  0  0  0  0
   48.1450   33.7270   38.8820 C   0  0  0  0  0  0  0  0  0  0  0  0
   48.2210   34.4120   37.7010 C   0  0  0  0  0  3  0  0  0  0  0  0
   48.3730   33.7380   36.4910 C   0  0  0  0  0  3  0  0  0  0  0  0
   48.4530   32.3500   36.4740 C   0  0  0  0  0  3  0  0  0  0  0  0
   48.3780   31.6650   37.6520 C   0  0  0  0  0  3  0  0  0  0  0  0
   48.2270   32.3490   38.8340 C   0  0  0  0  0  0  0  0  0  0  0  0
   48.1480   31.5910   40.0850 C   0  0  0  0  0  0  0  0  0  0  0  0
   46.9530   31.1080   40.4880 N   0  0  0  0  0  0  0  0  0  0  0  0
   46.7810   30.4090   41.6060 C   0  0  0  0  0  3  0  0  0  0  0  0
   47.8460   30.1490   42.4060 N   0  0  0  0  0  0  0  0  0  0  0  0
   49.0870   30.5960   42.0760 C   0  0  0  0  0  0  0  0  0  0  0  0
   50.1740   30.3340   42.8860 C   0  0  0  0  0  3  0  0  0  0  0  0
   51.4500   30.7950   42.5450 C   0  0  0  0  0  3  0  0  0  0  0  0
   51.5230   31.5050   41.3750 C   0  0  0  0  0  3  0  0  0  0  0  0
   50.4570   31.7910   40.5350 C   0  0  0  0  0  3  0  0  0  0  0  0
   49.2220   31.3180   40.9070 C   0  0  0  0  0  0  0  0  0  0  0  0
   46.1170   34.9070   43.0620 O   0  0  0  0  0  0  0  0  0  0  0  0
   46.8010   32.1550   45.3440 C   0  0  0  0  0  0  0  0  0  0  0  0
   46.0150   32.5470   46.4560 C   0  0  0  0  0  0  0  0  0  0  0  0
   45.2840   33.7360   46.3770 C   0  0  0  0  0  0  0  0  0  0  0  0
   45.3720   34.4560   45.2220 N   0  0  0  0  0  0  0  0  0  0  0  0
   46.1260   34.0730   44.1670 C   0  0  0  0  0  0  0  0  0  0  0  0
   46.8450   32.9210   44.2210 N   0  0  0  0  0  0  0  0  0  0  0  0
   44.5120   34.1460   47.4460 N   0  0  0  0  0  0  0  0  0  0  0  0
   43.9740   35.0230   47.3860 H   0  0  0  0  0  0  0  0  0  0  0  0
   44.4740   33.5750   48.3020 H   0  0  0  0  0  0  0  0  0  0  0  0
   46.0560   31.6320   47.5910 C   0  0  0  0  0  0  0  0  0  0  0  0
   46.1880   30.1710   47.1620 C   0  0  0  0  0  1  0  0  0  0  0  0
   44.9100   31.7180   48.5410 C   0  0  0  0  0  1  0  0  0  0  0  0
   47.3120   31.9810   48.3850 C   0  0  0  0  0  1  0  0  0  0  0  0
   47.5530   30.9920   45.3620 N   0  0  0  0  0  0  0  0  0  0  0  0
   48.1170   30.7300   44.5410 H   0  0  0  0  0  0  0  0  0  0  0  0
   47.5480   30.3880   46.1970 H   0  0  0  0  0  0  0  0  0  0  0  0
  1 22  1  0  0  0  0
  2  1  2  0  0  0  0
  3  2  1  0  0  0  0
  4  3  1  0  0  0  0
  4  5  2  0  0  0  0
  5  1  1  0  0  0  0
  6  4  1  0  0  0  0
  7  6  2  0  0  0  0
  8  7  1  0  0  0  0
  9  8  2  0  0  0  0
  9 10  1  0  0  0  0
 10 11  2  0  0  0  0
 11  6  1  0  0  0  0
 11 12  1  0  0  0  0
 12 13  2  0  0  0  0
 12 21  1  0  0  0  0
 13 14  1  0  0  0  0
 14 15  2  0  0  0  0
 16 15  1  0  0  0  0
 16 17  1  0  0  0  0
 18 17  2  0  0  0  0
 19 18  1  0  0  0  0
 20 21  1  0  0  0  0
 20 19  2  0  0  0  0
 21 16  2  0  0  0  0
 22 27  1  0  0  0  0
 23 36  1  0  0  0  0
 23 24  1  0  0  0  0
 24 32  1  0  0  0  0
 25 24  2  0  0  0  0
 25 29  1  0  0  0  0
 26 25  1  0  0  0  0
 27 28  1  0  0  0  0
 27 26  2  0  0  0  0
 28 23  2  0  0  0  0
 29 31  1  0  0  0  0
 30 29  1  0  0  0  0
 32 35  1  0  0  0  0
 32 34  1  0  0  0  0
 33 32  1  0  0  0  0
 36 38  1  0  0  0  0
 37 36  1  0  0  0  0
M  END
>  <minimizedAffinity>
-7.23287916

$$$$
