
 OpenBabel03242510203D

 37 42  0  0  0  0  0  0  0  0999 V2000
   50.3440   32.4750   41.3870 C   0  0  0  0  0  3  0  0  0  0  0  0
   49.6390   33.5210   42.0240 C   0  0  0  0  0  3  0  0  0  0  0  0
   48.5030   33.9840   41.4760 C   0  0  0  0  0  0  0  0  0  0  0  0
   48.0880   33.4070   40.3190 N   0  0  0  0  0  0  0  0  0  0  0  0
   48.7510   32.4160   39.7090 C   0  0  0  0  0  0  0  0  0  0  0  0
   49.8590   31.9620   40.2420 N   0  0  0  0  0  0  0  0  0  0  0  0
   47.8020   35.0510   42.2130 C   0  0  0  0  0  2  0  0  0  0  0  0
   46.3580   35.0230   42.2330 C   0  0  0  0  0  2  0  0  0  0  0  0
   45.6890   35.0710   43.4930 N   0  0  0  0  0  0  0  0  0  0  0  0
   44.8860   35.7630   44.3600 C   0  0  0  0  0  3  0  0  0  0  0  0
   44.7070   35.2010   45.5550 N   0  0  0  0  0  0  0  0  0  0  0  0
   45.4070   34.0400   45.5820 C   0  0  0  0  0  0  0  0  0  0  0  0
   45.4920   33.1550   46.6220 C   0  0  0  0  0  0  0  0  0  0  0  0
   46.2690   32.0820   46.3450 N   0  0  0  0  0  0  0  0  0  0  0  0
   46.8650   31.9680   45.1460 C   0  0  0  0  0  3  0  0  0  0  0  0
   46.7480   32.8610   44.1620 N   0  0  0  0  0  0  0  0  0  0  0  0
   45.9990   33.9770   44.3140 C   0  0  0  0  0  0  0  0  0  0  0  0
   44.8070   33.4030   47.8410 N   0  0  0  0  0  0  0  0  0  0  0  0
   44.8790   32.7300   48.6180 H   0  0  0  0  0  0  0  0  0  0  0  0
   44.2390   34.2550   47.9490 H   0  0  0  0  0  0  0  0  0  0  0  0
   48.1500   31.7030   38.1740 S   0  0  0  0  0  0  0  0  0  0  0  0
   44.9650   33.6750   36.9290 N   0  0  0  0  0  0  0  0  0  0  0  0
   46.2410   33.4150   36.7960 N   0  0  0  0  0  0  0  0  0  0  0  0
   46.5930   32.4830   37.7220 C   0  0  0  0  0  0  0  0  0  0  0  0
   45.4120   32.2180   38.4040 C   0  0  0  0  0  3  0  0  0  0  0  0
   44.3730   33.0090   37.8680 C   0  0  0  0  0  0  0  0  0  0  0  0
   44.4710   34.3560   36.3350 H   0  0  0  0  0  0  0  0  0  0  0  0
   43.0860   32.9450   38.4480 C   0  0  0  0  0  0  0  0  0  0  0  0
   42.1970   32.0060   38.0100 N   0  0  0  0  0  0  0  0  0  0  0  0
   40.9850   31.8010   38.4880 C   0  0  0  0  0  3  0  0  0  0  0  0
   40.4830   32.5200   39.4970 N   0  0  0  0  0  0  0  0  0  0  0  0
   41.2650   33.4810   40.0180 C   0  0  0  0  0  0  0  0  0  0  0  0
   40.8140   34.2510   41.0470 C   0  0  0  0  0  3  0  0  0  0  0  0
   41.6000   35.2590   41.6070 C   0  0  0  0  0  3  0  0  0  0  0  0
   42.8710   35.4390   41.0570 C   0  0  0  0  0  3  0  0  0  0  0  0
   43.2400   34.6190   40.0260 C   0  0  0  0  0  3  0  0  0  0  0  0
   42.5150   33.6350   39.4600 C   0  0  0  0  0  0  0  0  0  0  0  0
  1  2  1  0  0  0  0
  3  2  2  0  0  0  0
  3  7  1  0  0  0  0
  4  3  1  0  0  0  0
  5  6  1  0  0  0  0
  5  4  2  0  0  0  0
  6  1  2  0  0  0  0
  7  8  1  0  0  0  0
  8  9  1  0  0  0  0
  9 17  1  0  0  0  0
  9 10  1  0  0  0  0
 10 11  2  0  0  0  0
 11 12  1  0  0  0  0
 12 13  1  0  0  0  0
 13 18  1  0  0  0  0
 14 13  2  0  0  0  0
 15 14  1  0  0  0  0
 16 17  1  0  0  0  0
 16 15  2  0  0  0  0
 17 12  2  0  0  0  0
 18 20  1  0  0  0  0
 18 19  1  0  0  0  0
 21  5  1  0  0  0  0
 22 26  1  0  0  0  0
 23 22  1  0  0  0  0
 23 24  2  0  0  0  0
 24 21  1  0  0  0  0
 24 25  1  0  0  0  0
 26 25  2  0  0  0  0
 26 28  1  0  0  0  0
 27 22  1  0  0  0  0
 28 37  1  0  0  0  0
 29 28  2  0  0  0  0
 29 30  1  0  0  0  0
 30 31  2  0  0  0  0
 31 32  1  0  0  0  0
 32 33  1  0  0  0  0
 33 34  2  0  0  0  0
 35 34  1  0  0  0  0
 36 35  2  0  0  0  0
 37 32  2  0  0  0  0
 37 36  1  0  0  0  0
M  END
>  <minimizedAffinity>
-7.74662638

$$$$

 OpenBabel03242510203D

 37 42  0  0  0  0  0  0  0  0999 V2000
   50.2670   31.1760   38.7970 C   0  0  0  0  0  3  0  0  0  0  0  0
   50.1300   31.4270   40.1810 C   0  0  0  0  0  3  0  0  0  0  0  0
   48.9070   31.4190   40.7380 C   0  0  0  0  0  0  0  0  0  0  0  0
   47.8520   31.1630   39.9220 N   0  0  0  0  0  0  0  0  0  0  0  0
   47.9740   30.9250   38.6090 C   0  0  0  0  0  0  0  0  0  0  0  0
   49.1670   30.9310   38.0650 N   0  0  0  0  0  0  0  0  0  0  0  0
   48.8410   31.6530   42.1910 C   0  0  0  0  0  2  0  0  0  0  0  0
   48.9600   33.0120   42.6650 C   0  0  0  0  0  2  0  0  0  0  0  0
   47.8160   33.8640   42.5980 N   0  0  0  0  0  0  0  0  0  0  0  0
   47.1100   34.8130   41.9110 C   0  0  0  0  0  3  0  0  0  0  0  0
   46.0450   35.3090   42.5410 N   0  0  0  0  0  0  0  0  0  0  0  0
   45.9540   34.7050   43.7510 C   0  0  0  0  0  0  0  0  0  0  0  0
   45.0030   34.9250   44.7100 C   0  0  0  0  0  0  0  0  0  0  0  0
   45.1780   34.1640   45.8160 N   0  0  0  0  0  0  0  0  0  0  0  0
   46.2070   33.3030   45.8910 C   0  0  0  0  0  3  0  0  0  0  0  0
   47.1080   33.1250   44.9240 N   0  0  0  0  0  0  0  0  0  0  0  0
   47.0440   33.8250   43.7680 C   0  0  0  0  0  0  0  0  0  0  0  0
   43.9660   35.8710   44.4980 N   0  0  0  0  0  0  0  0  0  0  0  0
   43.2560   36.0280   45.2270 H   0  0  0  0  0  0  0  0  0  0  0  0
   43.9240   36.4000   43.6150 H   0  0  0  0  0  0  0  0  0  0  0  0
   46.5350   30.6020   37.5850 S   0  0  0  0  0  0  0  0  0  0  0  0
   44.4760   33.9450   37.1780 N   0  0  0  0  0  0  0  0  0  0  0  0
   45.3690   33.1170   36.6980 N   0  0  0  0  0  0  0  0  0  0  0  0
   45.4860   32.0630   37.5500 C   0  0  0  0  0  0  0  0  0  0  0  0
   44.5830   32.3450   38.5660 C   0  0  0  0  0  3  0  0  0  0  0  0
   43.9440   33.5750   38.2990 C   0  0  0  0  0  0  0  0  0  0  0  0
   44.2180   34.8220   36.7040 H   0  0  0  0  0  0  0  0  0  0  0  0
   43.0180   34.0900   39.2330 C   0  0  0  0  0  0  0  0  0  0  0  0
   43.4740   34.6780   40.3780 N   0  0  0  0  0  0  0  0  0  0  0  0
   42.7320   35.2410   41.3110 C   0  0  0  0  0  3  0  0  0  0  0  0
   41.3980   35.2990   41.2270 N   0  0  0  0  0  0  0  0  0  0  0  0
   40.8260   34.7510   40.1420 C   0  0  0  0  0  0  0  0  0  0  0  0
   39.4710   34.7750   39.9940 C   0  0  0  0  0  3  0  0  0  0  0  0
   38.8460   34.2110   38.8810 C   0  0  0  0  0  3  0  0  0  0  0  0
   39.6790   33.6220   37.9280 C   0  0  0  0  0  3  0  0  0  0  0  0
   41.0270   33.6460   38.1580 C   0  0  0  0  0  3  0  0  0  0  0  0
   41.6690   34.1800   39.2150 C   0  0  0  0  0  0  0  0  0  0  0  0
  1  2  1  0  0  0  0
  2  3  2  0  0  0  0
  3  7  1  0  0  0  0
  4  3  1  0  0  0  0
  5  4  2  0  0  0  0
  6  5  1  0  0  0  0
  6  1  2  0  0  0  0
  7  8  1  0  0  0  0
  9  8  1  0  0  0  0
  9 17  1  0  0  0  0
 10 11  2  0  0  0  0
 10  9  1  0  0  0  0
 11 12  1  0  0  0  0
 12 17  2  0  0  0  0
 12 13  1  0  0  0  0
 13 14  2  0  0  0  0
 14 15  1  0  0  0  0
 16 15  2  0  0  0  0
 17 16  1  0  0  0  0
 18 13  1  0  0  0  0
 18 19  1  0  0  0  0
 20 18  1  0  0  0  0
 21  5  1  0  0  0  0
 22 26  1  0  0  0  0
 23 22  1  0  0  0  0
 23 24  2  0  0  0  0
 24 21  1  0  0  0  0
 24 25  1  0  0  0  0
 26 25  2  0  0  0  0
 26 28  1  0  0  0  0
 27 22  1  0  0  0  0
 28 29  1  0  0  0  0
 29 30  2  0  0  0  0
 31 30  1  0  0  0  0
 32 31  2  0  0  0  0
 33 32  1  0  0  0  0
 34 33  2  0  0  0  0
 35 36  2  0  0  0  0
 35 34  1  0  0  0  0
 36 37  1  0  0  0  0
 37 28  2  0  0  0  0
 37 32  1  0  0  0  0
M  END
>  <minimizedAffinity>
-7.43580389

$$$$

 OpenBabel03242510203D

 37 42  0  0  0  0  0  0  0  0999 V2000
   50.3770   31.4900   39.1490 C   0  0  0  0  0  3  0  0  0  0  0  0
   50.1380   31.7110   40.5240 C   0  0  0  0  0  3  0  0  0  0  0  0
   49.1580   32.5500   40.8980 C   0  0  0  0  0  0  0  0  0  0  0  0
   48.4390   33.1490   39.9140 N   0  0  0  0  0  0  0  0  0  0  0  0
   48.6600   32.9450   38.6090 C   0  0  0  0  0  0  0  0  0  0  0  0
   49.6150   32.1260   38.2420 N   0  0  0  0  0  0  0  0  0  0  0  0
   48.9390   32.7060   42.3480 C   0  0  0  0  0  2  0  0  0  0  0  0
   47.8870   31.9280   42.9610 C   0  0  0  0  0  2  0  0  0  0  0  0
   47.2720   32.4240   44.1490 N   0  0  0  0  0  0  0  0  0  0  0  0
   47.0310   32.2690   45.4880 C   0  0  0  0  0  3  0  0  0  0  0  0
   46.1960   33.1550   46.0300 N   0  0  0  0  0  0  0  0  0  0  0  0
   45.7960   34.0080   45.0550 C   0  0  0  0  0  0  0  0  0  0  0  0
   44.9390   35.0650   45.1890 C   0  0  0  0  0  0  0  0  0  0  0  0
   44.7330   35.7330   44.0290 N   0  0  0  0  0  0  0  0  0  0  0  0
   45.3450   35.3350   42.9000 C   0  0  0  0  0  3  0  0  0  0  0  0
   46.1760   34.2950   42.8240 N   0  0  0  0  0  0  0  0  0  0  0  0
   46.4640   33.5450   43.9140 C   0  0  0  0  0  0  0  0  0  0  0  0
   44.3590   35.3730   46.4470 N   0  0  0  0  0  0  0  0  0  0  0  0
   43.7150   36.1720   46.5360 H   0  0  0  0  0  0  0  0  0  0  0  0
   44.5830   34.7980   47.2720 H   0  0  0  0  0  0  0  0  0  0  0  0
   47.6770   33.7760   37.3580 S   0  0  0  0  0  0  0  0  0  0  0  0
   44.0140   32.3450   37.0070 N   0  0  0  0  0  0  0  0  0  0  0  0
   45.1710   32.6030   36.4510 N   0  0  0  0  0  0  0  0  0  0  0  0
   45.9960   33.1330   37.3940 C   0  0  0  0  0  0  0  0  0  0  0  0
   45.2240   33.1580   38.5480 C   0  0  0  0  0  3  0  0  0  0  0  0
   43.9410   32.6420   38.2650 C   0  0  0  0  0  0  0  0  0  0  0  0
   43.2250   31.9390   36.4850 H   0  0  0  0  0  0  0  0  0  0  0  0
   42.9630   32.6230   39.2850 C   0  0  0  0  0  0  0  0  0  0  0  0
   42.9190   31.5710   40.1550 N   0  0  0  0  0  0  0  0  0  0  0  0
   42.0970   31.4430   41.1780 C   0  0  0  0  0  3  0  0  0  0  0  0
   41.1840   32.3720   41.4830 N   0  0  0  0  0  0  0  0  0  0  0  0
   41.1270   33.4600   40.6960 C   0  0  0  0  0  0  0  0  0  0  0  0
   40.2190   34.4440   40.9510 C   0  0  0  0  0  3  0  0  0  0  0  0
   40.1310   35.5850   40.1510 C   0  0  0  0  0  3  0  0  0  0  0  0
   41.0200   35.6650   39.0780 C   0  0  0  0  0  3  0  0  0  0  0  0
   41.8980   34.6310   38.8990 C   0  0  0  0  0  3  0  0  0  0  0  0
   42.0170   33.5170   39.6470 C   0  0  0  0  0  0  0  0  0  0  0  0
  1  2  1  0  0  0  0
  2  3  2  0  0  0  0
  3  7  1  0  0  0  0
  4  3  1  0  0  0  0
  5  4  2  0  0  0  0
  6  5  1  0  0  0  0
  6  1  2  0  0  0  0
  7  8  1  0  0  0  0
  8  9  1  0  0  0  0
  9 10  1  0  0  0  0
 10 11  2  0  0  0  0
 12 13  1  0  0  0  0
 12 11  1  0  0  0  0
 13 18  1  0  0  0  0
 14 13  2  0  0  0  0
 15 14  1  0  0  0  0
 16 15  2  0  0  0  0
 16 17  1  0  0  0  0
 17  9  1  0  0  0  0
 17 12  2  0  0  0  0
 18 19  1  0  0  0  0
 18 20  1  0  0  0  0
 21 24  1  0  0  0  0
 21  5  1  0  0  0  0
 22 26  1  0  0  0  0
 23 22  1  0  0  0  0
 23 24  2  0  0  0  0
 24 25  1  0  0  0  0
 26 25  2  0  0  0  0
 26 28  1  0  0  0  0
 27 22  1  0  0  0  0
 28 37  2  0  0  0  0
 28 29  1  0  0  0  0
 29 30  2  0  0  0  0
 30 31  1  0  0  0  0
 32 33  1  0  0  0  0
 32 31  2  0  0  0  0
 34 33  2  0  0  0  0
 35 34  1  0  0  0  0
 36 35  2  0  0  0  0
 36 37  1  0  0  0  0
 37 32  1  0  0  0  0
M  END
>  <minimizedAffinity>
-7.37818623

$$$$

 OpenBabel03242510203D

 37 42  0  0  0  0  0  0  0  0999 V2000
   44.4360   35.8800   44.6970 C   0  0  0  0  0  3  0  0  0  0  0  0
   44.8030   35.6670   43.3490 C   0  0  0  0  0  3  0  0  0  0  0  0
   45.5400   34.5910   43.0250 C   0  0  0  0  0  0  0  0  0  0  0  0
   45.8960   33.7530   44.0330 N   0  0  0  0  0  0  0  0  0  0  0  0
   45.5540   33.9490   45.3120 C   0  0  0  0  0  0  0  0  0  0  0  0
   44.8340   34.9970   45.6300 N   0  0  0  0  0  0  0  0  0  0  0  0
   45.8540   34.4110   41.5970 C   0  0  0  0  0  2  0  0  0  0  0  0
   44.7520   34.2940   40.6700 C   0  0  0  0  0  2  0  0  0  0  0  0
   43.6350   33.4830   41.0330 N   0  0  0  0  0  0  0  0  0  0  0  0
   43.1570   32.2500   41.3850 C   0  0  0  0  0  3  0  0  0  0  0  0
   41.8330   32.1570   41.5060 N   0  0  0  0  0  0  0  0  0  0  0  0
   41.3000   33.3730   41.2310 C   0  0  0  0  0  0  0  0  0  0  0  0
   39.9740   33.7110   41.2420 C   0  0  0  0  0  0  0  0  0  0  0  0
   39.7540   35.0090   40.9240 N   0  0  0  0  0  0  0  0  0  0  0  0
   40.7850   35.8220   40.6390 C   0  0  0  0  0  3  0  0  0  0  0  0
   42.0640   35.4410   40.6440 N   0  0  0  0  0  0  0  0  0  0  0  0
   42.4160   34.1700   40.9450 C   0  0  0  0  0  0  0  0  0  0  0  0
   38.9830   32.7470   41.5620 N   0  0  0  0  0  0  0  0  0  0  0  0
   37.9880   33.0130   41.5670 H   0  0  0  0  0  0  0  0  0  0  0  0
   39.2590   31.7810   41.7900 H   0  0  0  0  0  0  0  0  0  0  0  0
   46.0670   32.8050   46.5980 S   0  0  0  0  0  0  0  0  0  0  0  0
   45.9160   29.2660   44.8540 N   0  0  0  0  0  0  0  0  0  0  0  0
   46.2600   30.5280   44.7940 N   0  0  0  0  0  0  0  0  0  0  0  0
   45.9490   31.1190   45.9790 C   0  0  0  0  0  0  0  0  0  0  0  0
   45.4000   30.0930   46.7370 C   0  0  0  0  0  3  0  0  0  0  0  0
   45.3890   28.9030   45.9800 C   0  0  0  0  0  0  0  0  0  0  0  0
   46.0540   28.6140   44.0690 H   0  0  0  0  0  0  0  0  0  0  0  0
   44.8200   27.7350   46.5350 C   0  0  0  0  0  0  0  0  0  0  0  0
   45.5590   26.9660   47.3880 N   0  0  0  0  0  0  0  0  0  0  0  0
   45.1440   25.8820   48.0140 C   0  0  0  0  0  3  0  0  0  0  0  0
   43.9020   25.4050   47.8730 N   0  0  0  0  0  0  0  0  0  0  0  0
   43.0740   26.0770   47.0550 C   0  0  0  0  0  0  0  0  0  0  0  0
   41.7960   25.6440   46.8660 C   0  0  0  0  0  3  0  0  0  0  0  0
   40.9130   26.3170   46.0190 C   0  0  0  0  0  3  0  0  0  0  0  0
   41.4070   27.4530   45.3760 C   0  0  0  0  0  3  0  0  0  0  0  0
   42.7020   27.8140   45.6260 C   0  0  0  0  0  3  0  0  0  0  0  0
   43.5840   27.1970   46.4360 C   0  0  0  0  0  0  0  0  0  0  0  0
  1  6  1  0  0  0  0
  2  1  2  0  0  0  0
  3  2  1  0  0  0  0
  3  4  2  0  0  0  0
  4  5  1  0  0  0  0
  5  6  2  0  0  0  0
  5 21  1  0  0  0  0
  7  3  1  0  0  0  0
  8  9  1  0  0  0  0
  8  7  1  0  0  0  0
  9 10  1  0  0  0  0
 10 11  2  0  0  0  0
 12 13  1  0  0  0  0
 12 11  1  0  0  0  0
 13 18  1  0  0  0  0
 14 13  2  0  0  0  0
 15 16  2  0  0  0  0
 15 14  1  0  0  0  0
 16 17  1  0  0  0  0
 17  9  1  0  0  0  0
 17 12  2  0  0  0  0
 18 19  1  0  0  0  0
 18 20  1  0  0  0  0
 22 26  1  0  0  0  0
 23 22  1  0  0  0  0
 23 24  2  0  0  0  0
 24 21  1  0  0  0  0
 24 25  1  0  0  0  0
 26 28  1  0  0  0  0
 26 25  2  0  0  0  0
 27 22  1  0  0  0  0
 28 29  1  0  0  0  0
 29 30  2  0  0  0  0
 31 30  1  0  0  0  0
 32 31  2  0  0  0  0
 33 32  1  0  0  0  0
 34 33  2  0  0  0  0
 35 36  2  0  0  0  0
 35 34  1  0  0  0  0
 36 37  1  0  0  0  0
 37 28  2  0  0  0  0
 37 32  1  0  0  0  0
M  END
>  <minimizedAffinity>
-7.30024576

$$$$

 OpenBabel03242510203D

 37 42  0  0  0  0  0  0  0  0999 V2000
   42.4910   34.7000   40.8130 C   0  0  0  0  0  3  0  0  0  0  0  0
   43.2760   33.8760   39.9760 C   0  0  0  0  0  3  0  0  0  0  0  0
   44.5930   33.7520   40.2160 C   0  0  0  0  0  0  0  0  0  0  0  0
   45.1020   34.4390   41.2710 N   0  0  0  0  0  0  0  0  0  0  0  0
   44.3640   35.2230   42.0680 C   0  0  0  0  0  0  0  0  0  0  0  0
   43.0800   35.3440   41.8360 N   0  0  0  0  0  0  0  0  0  0  0  0
   45.3440   32.8480   39.3270 C   0  0  0  0  0  2  0  0  0  0  0  0
   46.6820   33.2330   38.9450 C   0  0  0  0  0  2  0  0  0  0  0  0
   47.7850   32.6880   39.6690 N   0  0  0  0  0  0  0  0  0  0  0  0
   48.5310   31.5890   40.0020 C   0  0  0  0  0  3  0  0  0  0  0  0
   49.4820   31.7920   40.9140 N   0  0  0  0  0  0  0  0  0  0  0  0
   49.4440   33.0980   41.2770 C   0  0  0  0  0  0  0  0  0  0  0  0
   50.2520   33.7220   42.1870 C   0  0  0  0  0  0  0  0  0  0  0  0
   49.9710   35.0380   42.3340 N   0  0  0  0  0  0  0  0  0  0  0  0
   48.9810   35.6030   41.6220 C   0  0  0  0  0  3  0  0  0  0  0  0
   48.2210   34.9480   40.7430 N   0  0  0  0  0  0  0  0  0  0  0  0
   48.4020   33.6290   40.5050 C   0  0  0  0  0  0  0  0  0  0  0  0
   51.2640   32.9990   42.8730 N   0  0  0  0  0  0  0  0  0  0  0  0
   51.8670   33.4790   43.5560 H   0  0  0  0  0  0  0  0  0  0  0  0
   51.3950   31.9940   42.6860 H   0  0  0  0  0  0  0  0  0  0  0  0
   45.1030   36.1110   43.4420 S   0  0  0  0  0  0  0  0  0  0  0  0
   44.7600   34.1310   46.8400 N   0  0  0  0  0  0  0  0  0  0  0  0
   44.3410   35.0970   46.0630 N   0  0  0  0  0  0  0  0  0  0  0  0
   45.0670   35.0740   44.9120 C   0  0  0  0  0  0  0  0  0  0  0  0
   45.9420   34.0080   45.0830 C   0  0  0  0  0  3  0  0  0  0  0  0
   45.7200   33.4170   46.3450 C   0  0  0  0  0  0  0  0  0  0  0  0
   44.3580   33.9520   47.7710 H   0  0  0  0  0  0  0  0  0  0  0  0
   46.5390   32.3420   46.7580 C   0  0  0  0  0  0  0  0  0  0  0  0
   47.4210   32.5240   47.7840 N   0  0  0  0  0  0  0  0  0  0  0  0
   48.2100   31.6030   48.3030 C   0  0  0  0  0  3  0  0  0  0  0  0
   48.2250   30.3410   47.8590 N   0  0  0  0  0  0  0  0  0  0  0  0
   47.3970   30.0350   46.8460 C   0  0  0  0  0  0  0  0  0  0  0  0
   47.3640   28.7680   46.3460 C   0  0  0  0  0  3  0  0  0  0  0  0
   46.5180   28.4180   45.2920 C   0  0  0  0  0  3  0  0  0  0  0  0
   45.7110   29.4340   44.7750 C   0  0  0  0  0  3  0  0  0  0  0  0
   45.8110   30.6750   45.3400 C   0  0  0  0  0  3  0  0  0  0  0  0
   46.6090   31.0530   46.3580 C   0  0  0  0  0  0  0  0  0  0  0  0
  1  6  1  0  0  0  0
  2  3  1  0  0  0  0
  2  1  2  0  0  0  0
  3  4  2  0  0  0  0
  4  5  1  0  0  0  0
  5 21  1  0  0  0  0
  6  5  2  0  0  0  0
  7  3  1  0  0  0  0
  8  7  1  0  0  0  0
  8  9  1  0  0  0  0
  9 10  1  0  0  0  0
  9 17  1  0  0  0  0
 10 11  2  0  0  0  0
 11 12  1  0  0  0  0
 12 13  1  0  0  0  0
 13 14  2  0  0  0  0
 13 18  1  0  0  0  0
 15 14  1  0  0  0  0
 16 15  2  0  0  0  0
 17 16  1  0  0  0  0
 17 12  2  0  0  0  0
 18 19  1  0  0  0  0
 20 18  1  0  0  0  0
 21 24  1  0  0  0  0
 22 27  1  0  0  0  0
 23 22  1  0  0  0  0
 24 25  1  0  0  0  0
 24 23  2  0  0  0  0
 25 26  2  0  0  0  0
 26 28  1  0  0  0  0
 26 22  1  0  0  0  0
 28 29  1  0  0  0  0
 29 30  2  0  0  0  0
 31 30  1  0  0  0  0
 32 31  2  0  0  0  0
 33 32  1  0  0  0  0
 34 33  2  0  0  0  0
 35 34  1  0  0  0  0
 35 36  2  0  0  0  0
 36 37  1  0  0  0  0
 37 28  2  0  0  0  0
 37 32  1  0  0  0  0
M  END
>  <minimizedAffinity>
-7.27225161

$$$$

 OpenBabel03242510203D

 37 42  0  0  0  0  0  0  0  0999 V2000
   50.3390   34.5270   42.5730 C   0  0  0  0  0  3  0  0  0  0  0  0
   49.2130   34.8830   41.7970 C   0  0  0  0  0  3  0  0  0  0  0  0
   48.5360   33.9280   41.1360 C   0  0  0  0  0  0  0  0  0  0  0  0
   48.9820   32.6510   41.2560 N   0  0  0  0  0  0  0  0  0  0  0  0
   50.0490   32.3070   41.9890 C   0  0  0  0  0  0  0  0  0  0  0  0
   50.7100   33.2370   42.6350 N   0  0  0  0  0  0  0  0  0  0  0  0
   47.3510   34.3640   40.3770 C   0  0  0  0  0  2  0  0  0  0  0  0
   46.0570   33.8890   40.8080 C   0  0  0  0  0  2  0  0  0  0  0  0
   45.3720   34.6040   41.8360 N   0  0  0  0  0  0  0  0  0  0  0  0
   44.5750   35.6610   42.1870 C   0  0  0  0  0  3  0  0  0  0  0  0
   44.3650   35.8150   43.4940 N   0  0  0  0  0  0  0  0  0  0  0  0
   45.0330   34.8320   44.1470 C   0  0  0  0  0  0  0  0  0  0  0  0
   45.0800   34.6280   45.4980 C   0  0  0  0  0  0  0  0  0  0  0  0
   45.8320   33.5580   45.8480 N   0  0  0  0  0  0  0  0  0  0  0  0
   46.4420   32.8200   44.9050 C   0  0  0  0  0  3  0  0  0  0  0  0
   46.3630   33.0620   43.5960 N   0  0  0  0  0  0  0  0  0  0  0  0
   45.6410   34.1020   43.1170 C   0  0  0  0  0  0  0  0  0  0  0  0
   44.3850   35.4900   46.3860 N   0  0  0  0  0  0  0  0  0  0  0  0
   44.4270   35.3270   47.4020 H   0  0  0  0  0  0  0  0  0  0  0  0
   43.8380   36.2800   46.0140 H   0  0  0  0  0  0  0  0  0  0  0  0
   50.5900   30.5980   42.0980 S   0  0  0  0  0  0  0  0  0  0  0  0
   49.7110   28.8240   45.5130 N   0  0  0  0  0  0  0  0  0  0  0  0
   50.6040   29.1120   44.6020 N   0  0  0  0  0  0  0  0  0  0  0  0
   50.0190   29.8880   43.6490 C   0  0  0  0  0  0  0  0  0  0  0  0
   48.7080   30.0310   44.0860 C   0  0  0  0  0  3  0  0  0  0  0  0
   48.5370   29.3280   45.2970 C   0  0  0  0  0  0  0  0  0  0  0  0
   49.9230   28.2430   46.3360 H   0  0  0  0  0  0  0  0  0  0  0  0
   47.2600   29.2890   45.9000 C   0  0  0  0  0  0  0  0  0  0  0  0
   46.3000   28.4640   45.3880 N   0  0  0  0  0  0  0  0  0  0  0  0
   45.0860   28.2910   45.8730 C   0  0  0  0  0  3  0  0  0  0  0  0
   44.6530   28.9310   46.9640 N   0  0  0  0  0  0  0  0  0  0  0  0
   45.5090   29.7770   47.5620 C   0  0  0  0  0  0  0  0  0  0  0  0
   45.1310   30.4620   48.6770 C   0  0  0  0  0  3  0  0  0  0  0  0
   45.9950   31.3510   49.3190 C   0  0  0  0  0  3  0  0  0  0  0  0
   47.2650   31.5020   48.7590 C   0  0  0  0  0  3  0  0  0  0  0  0
   47.5580   30.7730   47.6400 C   0  0  0  0  0  3  0  0  0  0  0  0
   46.7560   29.9050   46.9930 C   0  0  0  0  0  0  0  0  0  0  0  0
  1  6  1  0  0  0  0
  2  1  2  0  0  0  0
  3  4  2  0  0  0  0
  3  2  1  0  0  0  0
  4  5  1  0  0  0  0
  5 21  1  0  0  0  0
  5  6  2  0  0  0  0
  7  8  1  0  0  0  0
  7  3  1  0  0  0  0
  8  9  1  0  0  0  0
  9 10  1  0  0  0  0
  9 17  1  0  0  0  0
 10 11  2  0  0  0  0
 11 12  1  0  0  0  0
 12 13  1  0  0  0  0
 13 14  2  0  0  0  0
 13 18  1  0  0  0  0
 15 14  1  0  0  0  0
 16 15  2  0  0  0  0
 17 16  1  0  0  0  0
 17 12  2  0  0  0  0
 18 19  1  0  0  0  0
 20 18  1  0  0  0  0
 21 24  1  0  0  0  0
 22 27  1  0  0  0  0
 23 22  1  0  0  0  0
 24 25  1  0  0  0  0
 24 23  2  0  0  0  0
 25 26  2  0  0  0  0
 26 22  1  0  0  0  0
 26 28  1  0  0  0  0
 28 37  1  0  0  0  0
 29 30  1  0  0  0  0
 29 28  2  0  0  0  0
 30 31  2  0  0  0  0
 31 32  1  0  0  0  0
 32 33  1  0  0  0  0
 33 34  2  0  0  0  0
 35 34  1  0  0  0  0
 36 35  2  0  0  0  0
 37 32  2  0  0  0  0
 37 36  1  0  0  0  0
M  END
>  <minimizedAffinity>
-7.25463486

$$$$

 OpenBabel03242510203D

 37 42  0  0  0  0  0  0  0  0999 V2000
   40.5900   32.1020   40.0080 C   0  0  0  0  0  3  0  0  0  0  0  0
   40.9460   33.2310   40.7800 C   0  0  0  0  0  3  0  0  0  0  0  0
   42.1050   33.8640   40.5320 C   0  0  0  0  0  0  0  0  0  0  0  0
   42.8820   33.3730   39.5330 N   0  0  0  0  0  0  0  0  0  0  0  0
   42.5520   32.3030   38.7980 C   0  0  0  0  0  0  0  0  0  0  0  0
   41.4220   31.6850   39.0370 N   0  0  0  0  0  0  0  0  0  0  0  0
   42.3950   35.0550   41.3500 C   0  0  0  0  0  2  0  0  0  0  0  0
   43.7780   35.3660   41.6260 C   0  0  0  0  0  2  0  0  0  0  0  0
   44.2430   35.2900   42.9730 N   0  0  0  0  0  0  0  0  0  0  0  0
   44.3360   35.8740   44.2080 C   0  0  0  0  0  3  0  0  0  0  0  0
   45.0810   35.2220   45.1000 N   0  0  0  0  0  0  0  0  0  0  0  0
   45.5660   34.1040   44.5060 C   0  0  0  0  0  0  0  0  0  0  0  0
   46.3750   33.1570   45.0720 C   0  0  0  0  0  0  0  0  0  0  0  0
   46.6910   32.1520   44.2220 N   0  0  0  0  0  0  0  0  0  0  0  0
   46.2210   32.1540   42.9640 C   0  0  0  0  0  3  0  0  0  0  0  0
   45.4310   33.1040   42.4600 N   0  0  0  0  0  0  0  0  0  0  0  0
   45.0430   34.1630   43.2070 C   0  0  0  0  0  0  0  0  0  0  0  0
   46.8010   33.2810   46.4210 N   0  0  0  0  0  0  0  0  0  0  0  0
   47.4100   32.5610   46.8360 H   0  0  0  0  0  0  0  0  0  0  0  0
   46.5010   34.0900   46.9830 H   0  0  0  0  0  0  0  0  0  0  0  0
   43.6320   31.7010   37.4950 S   0  0  0  0  0  0  0  0  0  0  0  0
   47.1910   33.4090   37.5410 N   0  0  0  0  0  0  0  0  0  0  0  0
   46.0350   33.2520   36.9480 N   0  0  0  0  0  0  0  0  0  0  0  0
   45.2710   32.4130   37.7010 C   0  0  0  0  0  0  0  0  0  0  0  0
   46.0800   32.0990   38.7850 C   0  0  0  0  0  3  0  0  0  0  0  0
   47.3210   32.7580   38.6530 C   0  0  0  0  0  0  0  0  0  0  0  0
   47.9380   34.0030   37.1550 H   0  0  0  0  0  0  0  0  0  0  0  0
   48.3270   32.5390   39.6210 C   0  0  0  0  0  0  0  0  0  0  0  0
   49.0170   31.3610   39.6190 N   0  0  0  0  0  0  0  0  0  0  0  0
   50.0080   31.0400   40.4270 C   0  0  0  0  0  3  0  0  0  0  0  0
   50.4590   31.8720   41.3720 N   0  0  0  0  0  0  0  0  0  0  0  0
   49.8580   33.0700   41.4760 C   0  0  0  0  0  0  0  0  0  0  0  0
   50.2680   33.9650   42.4180 C   0  0  0  0  0  3  0  0  0  0  0  0
   49.6620   35.2150   42.5540 C   0  0  0  0  0  3  0  0  0  0  0  0
   48.6130   35.4990   41.6770 C   0  0  0  0  0  3  0  0  0  0  0  0
   48.2700   34.5410   40.7630 C   0  0  0  0  0  3  0  0  0  0  0  0
   48.8290   33.3270   40.5970 C   0  0  0  0  0  0  0  0  0  0  0  0
  1  2  1  0  0  0  0
  3  2  2  0  0  0  0
  3  7  1  0  0  0  0
  4  3  1  0  0  0  0
  5  6  1  0  0  0  0
  5  4  2  0  0  0  0
  6  1  2  0  0  0  0
  7  8  1  0  0  0  0
  8  9  1  0  0  0  0
  9 17  1  0  0  0  0
  9 10  1  0  0  0  0
 10 11  2  0  0  0  0
 12 13  1  0  0  0  0
 12 11  1  0  0  0  0
 13 18  1  0  0  0  0
 14 13  2  0  0  0  0
 15 14  1  0  0  0  0
 16 15  2  0  0  0  0
 16 17  1  0  0  0  0
 17 12  2  0  0  0  0
 18 19  1  0  0  0  0
 18 20  1  0  0  0  0
 21 24  1  0  0  0  0
 21  5  1  0  0  0  0
 22 26  1  0  0  0  0
 23 22  1  0  0  0  0
 23 24  2  0  0  0  0
 24 25  1  0  0  0  0
 26 25  2  0  0  0  0
 26 28  1  0  0  0  0
 27 22  1  0  0  0  0
 28 37  1  0  0  0  0
 29 28  2  0  0  0  0
 29 30  1  0  0  0  0
 30 31  2  0  0  0  0
 31 32  1  0  0  0  0
 32 33  1  0  0  0  0
 33 34  2  0  0  0  0
 35 34  1  0  0  0  0
 36 35  2  0  0  0  0
 37 36  1  0  0  0  0
 37 32  2  0  0  0  0
M  END
>  <minimizedAffinity>
-7.12616682

$$$$

 OpenBabel03242510203D

 37 42  0  0  0  0  0  0  0  0999 V2000
   49.5220   30.4360   39.9620 C   0  0  0  0  0  3  0  0  0  0  0  0
   49.0570   30.4360   41.2960 C   0  0  0  0  0  3  0  0  0  0  0  0
   47.7360   30.3900   41.5360 C   0  0  0  0  0  0  0  0  0  0  0  0
   46.9080   30.3430   40.4610 N   0  0  0  0  0  0  0  0  0  0  0  0
   47.3410   30.3430   39.1940 C   0  0  0  0  0  0  0  0  0  0  0  0
   48.6300   30.3870   38.9580 N   0  0  0  0  0  0  0  0  0  0  0  0
   47.3220   30.3570   42.9500 C   0  0  0  0  0  2  0  0  0  0  0  0
   47.9790   31.2570   43.8690 C   0  0  0  0  0  2  0  0  0  0  0  0
   47.2010   31.8890   44.8850 N   0  0  0  0  0  0  0  0  0  0  0  0
   46.6850   31.8460   46.1520 C   0  0  0  0  0  3  0  0  0  0  0  0
   45.8630   32.8450   46.4740 N   0  0  0  0  0  0  0  0  0  0  0  0
   45.7600   33.6670   45.4020 C   0  0  0  0  0  0  0  0  0  0  0  0
   45.0160   34.8120   45.3120 C   0  0  0  0  0  0  0  0  0  0  0  0
   45.1190   35.4190   44.1060 N   0  0  0  0  0  0  0  0  0  0  0  0
   45.8940   34.8900   43.1440 C   0  0  0  0  0  3  0  0  0  0  0  0
   46.6020   33.7680   43.2840 N   0  0  0  0  0  0  0  0  0  0  0  0
   46.5840   33.0670   44.4410 C   0  0  0  0  0  0  0  0  0  0  0  0
   44.2380   35.2580   46.4120 N   0  0  0  0  0  0  0  0  0  0  0  0
   43.6810   36.1220   46.3320 H   0  0  0  0  0  0  0  0  0  0  0  0
   44.2290   34.7190   47.2890 H   0  0  0  0  0  0  0  0  0  0  0  0
   46.1910   30.2880   37.8160 S   0  0  0  0  0  0  0  0  0  0  0  0
   44.4890   33.8130   37.3010 N   0  0  0  0  0  0  0  0  0  0  0  0
   45.3190   32.8990   36.8670 N   0  0  0  0  0  0  0  0  0  0  0  0
   45.2920   31.8440   37.7260 C   0  0  0  0  0  0  0  0  0  0  0  0
   44.3710   32.2200   38.6960 C   0  0  0  0  0  3  0  0  0  0  0  0
   43.8690   33.5040   38.3950 C   0  0  0  0  0  0  0  0  0  0  0  0
   44.3410   34.7070   36.8120 H   0  0  0  0  0  0  0  0  0  0  0  0
   42.9530   34.1140   39.2810 C   0  0  0  0  0  0  0  0  0  0  0  0
   43.4200   34.7800   40.3780 N   0  0  0  0  0  0  0  0  0  0  0  0
   42.6890   35.4320   41.2600 C   0  0  0  0  0  3  0  0  0  0  0  0
   41.3580   35.5140   41.1660 N   0  0  0  0  0  0  0  0  0  0  0  0
   40.7750   34.8950   40.1250 C   0  0  0  0  0  0  0  0  0  0  0  0
   39.4220   34.9390   39.9710 C   0  0  0  0  0  3  0  0  0  0  0  0
   38.7860   34.3040   38.9020 C   0  0  0  0  0  3  0  0  0  0  0  0
   39.6070   33.6210   38.0030 C   0  0  0  0  0  3  0  0  0  0  0  0
   40.9550   33.6320   38.2360 C   0  0  0  0  0  3  0  0  0  0  0  0
   41.6070   34.2330   39.2500 C   0  0  0  0  0  0  0  0  0  0  0  0
  1  2  1  0  0  0  0
  2  3  2  0  0  0  0
  3  7  1  0  0  0  0
  4  3  1  0  0  0  0
  5  4  2  0  0  0  0
  6  5  1  0  0  0  0
  6  1  2  0  0  0  0
  7  8  1  0  0  0  0
  8  9  1  0  0  0  0
  9 10  1  0  0  0  0
 10 11  2  0  0  0  0
 12 11  1  0  0  0  0
 13 12  1  0  0  0  0
 13 18  1  0  0  0  0
 14 13  2  0  0  0  0
 15 16  2  0  0  0  0
 15 14  1  0  0  0  0
 16 17  1  0  0  0  0
 17  9  1  0  0  0  0
 17 12  2  0  0  0  0
 18 20  1  0  0  0  0
 19 18  1  0  0  0  0
 21  5  1  0  0  0  0
 22 26  1  0  0  0  0
 23 22  1  0  0  0  0
 23 24  2  0  0  0  0
 24 21  1  0  0  0  0
 24 25  1  0  0  0  0
 26 25  2  0  0  0  0
 26 28  1  0  0  0  0
 27 22  1  0  0  0  0
 28 29  1  0  0  0  0
 29 30  2  0  0  0  0
 31 30  1  0  0  0  0
 32 31  2  0  0  0  0
 33 32  1  0  0  0  0
 34 33  2  0  0  0  0
 35 36  2  0  0  0  0
 35 34  1  0  0  0  0
 36 37  1  0  0  0  0
 37 28  2  0  0  0  0
 37 32  1  0  0  0  0
M  END
>  <minimizedAffinity>
-7.05614567

$$$$

 OpenBabel03242510203D

 37 42  0  0  0  0  0  0  0  0999 V2000
   39.4640   33.7260   40.9080 C   0  0  0  0  0  3  0  0  0  0  0  0
   40.4460   34.7320   41.0450 C   0  0  0  0  0  3  0  0  0  0  0  0
   41.7290   34.3830   41.2380 C   0  0  0  0  0  0  0  0  0  0  0  0
   42.0130   33.0560   41.2900 N   0  0  0  0  0  0  0  0  0  0  0  0
   41.0880   32.0970   41.1620 C   0  0  0  0  0  0  0  0  0  0  0  0
   39.8350   32.4360   40.9730 N   0  0  0  0  0  0  0  0  0  0  0  0
   42.7050   35.4830   41.3360 C   0  0  0  0  0  2  0  0  0  0  0  0
   44.0610   35.1530   41.7080 C   0  0  0  0  0  2  0  0  0  0  0  0
   44.4010   35.1110   43.0930 N   0  0  0  0  0  0  0  0  0  0  0  0
   44.3450   35.7050   44.3250 C   0  0  0  0  0  3  0  0  0  0  0  0
   45.0390   35.1020   45.2900 N   0  0  0  0  0  0  0  0  0  0  0  0
   45.6400   34.0110   44.7550 C   0  0  0  0  0  0  0  0  0  0  0  0
   46.4450   33.1150   45.4040 C   0  0  0  0  0  0  0  0  0  0  0  0
   46.8970   32.1250   44.5980 N   0  0  0  0  0  0  0  0  0  0  0  0
   46.5470   32.0940   43.3010 C   0  0  0  0  0  3  0  0  0  0  0  0
   45.7550   32.9940   42.7160 N   0  0  0  0  0  0  0  0  0  0  0  0
   45.2390   34.0330   43.4130 C   0  0  0  0  0  0  0  0  0  0  0  0
   46.7350   33.2700   46.7850 N   0  0  0  0  0  0  0  0  0  0  0  0
   47.3430   32.5890   47.2630 H   0  0  0  0  0  0  0  0  0  0  0  0
   46.3380   34.0630   47.3090 H   0  0  0  0  0  0  0  0  0  0  0  0
   41.5310   30.3590   41.2490 S   0  0  0  0  0  0  0  0  0  0  0  0
   40.8150   29.4110   45.0140 N   0  0  0  0  0  0  0  0  0  0  0  0
   40.5080   30.1310   43.9650 N   0  0  0  0  0  0  0  0  0  0  0  0
   41.3250   29.7740   42.9380 C   0  0  0  0  0  0  0  0  0  0  0  0
   42.1330   28.7810   43.4770 C   0  0  0  0  0  3  0  0  0  0  0  0
   41.7800   28.5680   44.8260 C   0  0  0  0  0  0  0  0  0  0  0  0
   40.3290   29.5070   45.9170 H   0  0  0  0  0  0  0  0  0  0  0  0
   42.5120   27.6350   45.5940 C   0  0  0  0  0  0  0  0  0  0  0  0
   42.0420   26.3610   45.7320 N   0  0  0  0  0  0  0  0  0  0  0  0
   42.6390   25.3770   46.3750 C   0  0  0  0  0  3  0  0  0  0  0  0
   43.8210   25.5330   46.9830 N   0  0  0  0  0  0  0  0  0  0  0  0
   44.3900   26.7490   46.9190 C   0  0  0  0  0  0  0  0  0  0  0  0
   45.5920   26.9760   47.5180 C   0  0  0  0  0  3  0  0  0  0  0  0
   46.2080   28.2280   47.4740 C   0  0  0  0  0  3  0  0  0  0  0  0
   45.5280   29.2350   46.7860 C   0  0  0  0  0  3  0  0  0  0  0  0
   44.3270   28.9160   46.2150 C   0  0  0  0  0  3  0  0  0  0  0  0
   43.7010   27.7230   46.2320 C   0  0  0  0  0  0  0  0  0  0  0  0
  1  6  2  0  0  0  0
  1  2  1  0  0  0  0
  2  3  2  0  0  0  0
  3  4  1  0  0  0  0
  3  7  1  0  0  0  0
  5 21  1  0  0  0  0
  5  4  2  0  0  0  0
  6  5  1  0  0  0  0
  7  8  1  0  0  0  0
  8  9  1  0  0  0  0
  9 17  1  0  0  0  0
  9 10  1  0  0  0  0
 10 11  2  0  0  0  0
 12 11  1  0  0  0  0
 12 13  1  0  0  0  0
 13 18  1  0  0  0  0
 14 13  2  0  0  0  0
 15 14  1  0  0  0  0
 16 15  2  0  0  0  0
 16 17  1  0  0  0  0
 17 12  2  0  0  0  0
 18 19  1  0  0  0  0
 18 20  1  0  0  0  0
 21 24  1  0  0  0  0
 22 27  1  0  0  0  0
 23 22  1  0  0  0  0
 24 25  1  0  0  0  0
 24 23  2  0  0  0  0
 25 26  2  0  0  0  0
 26 22  1  0  0  0  0
 26 28  1  0  0  0  0
 28 29  2  0  0  0  0
 28 37  1  0  0  0  0
 29 30  1  0  0  0  0
 30 31  2  0  0  0  0
 32 31  1  0  0  0  0
 32 33  1  0  0  0  0
 34 33  2  0  0  0  0
 35 34  1  0  0  0  0
 36 37  1  0  0  0  0
 36 35  2  0  0  0  0
 37 32  2  0  0  0  0
M  END
>  <minimizedAffinity>
-6.92591763

$$$$
