
 OpenBabel03242509563D

 35 39  0  0  0  0  0  0  0  0999 V2000
   47.7160   31.6900   36.4700 C   0  0  0  0  0  3  0  0  0  0  0  0
   49.0890   31.9240   36.6360 C   0  0  0  0  0  3  0  0  0  0  0  0
   49.4740   32.6550   37.7610 C   0  0  0  0  0  3  0  0  0  0  0  0
   48.5150   33.0870   38.6130 N   0  0  0  0  0  0  0  0  0  0  0  0
   47.2070   32.8470   38.4300 C   0  0  0  0  0  0  0  0  0  0  0  0
   46.7960   32.1420   37.3480 N   0  0  0  0  0  0  0  0  0  0  0  0
   46.2940   33.3530   39.3940 N   0  0  0  0  0  0  0  0  0  0  0  0
   46.6960   34.0260   40.4660 C   0  0  0  0  0  3  0  0  0  0  0  0
   45.6840   34.4480   41.2910 C   0  0  0  0  0  0  0  0  0  0  0  0
   44.3470   34.2230   41.0810 C   0  0  0  0  0  0  0  0  0  0  0  0
   43.4270   34.6180   41.8500 O   0  0  0  0  0  0  0  0  0  0  0  0
   43.9910   33.5350   39.9810 N   0  0  0  0  0  0  0  0  0  0  0  0
   44.9760   33.0990   39.1340 C   0  0  0  0  0  0  0  0  0  0  0  0
   44.5900   32.4560   38.1090 O   0  0  0  0  0  0  0  0  0  0  0  0
   42.6190   33.2360   39.6610 C   0  0  0  0  0  0  0  0  0  0  0  0
   41.7630   32.2050   39.9530 C   0  0  0  0  0  3  0  0  0  0  0  0
   40.5730   32.4670   39.3700 N   0  0  0  0  0  0  0  0  0  0  0  0
   40.6570   33.6560   38.7070 C   0  0  0  0  0  0  0  0  0  0  0  0
   39.7060   34.3200   37.9740 C   0  0  0  0  0  3  0  0  0  0  0  0
   39.9930   35.5470   37.3610 C   0  0  0  0  0  3  0  0  0  0  0  0
   41.2570   36.0530   37.5240 C   0  0  0  0  0  3  0  0  0  0  0  0
   42.1880   35.3670   38.2610 C   0  0  0  0  0  3  0  0  0  0  0  0
   41.9240   34.1500   38.8760 C   0  0  0  0  0  0  0  0  0  0  0  0
   39.7380   31.8660   39.4190 H   0  0  0  0  0  0  0  0  0  0  0  0
   45.9900   35.2270   42.5140 C   0  0  0  0  0  2  0  0  0  0  0  0
   46.2330   32.9070   46.0460 C   0  0  0  0  0  0  0  0  0  0  0  0
   47.1530   32.5770   45.0410 C   0  0  0  0  0  3  0  0  0  0  0  0
   47.1370   33.2990   43.8670 C   0  0  0  0  0  3  0  0  0  0  0  0
   46.2380   34.3230   43.6800 C   0  0  0  0  0  0  0  0  0  0  0  0
   45.3310   34.6320   44.7040 C   0  0  0  0  0  3  0  0  0  0  0  0
   45.3220   33.9280   45.8910 C   0  0  0  0  0  3  0  0  0  0  0  0
   46.2640   31.9660   47.5070 S   0  0  0  0  0  0  0  0  0  0  0  0
   44.9710   32.0790   48.2740 O   0  0  0  0  0  0  0  0  0  0  0  0
   47.4400   32.3020   48.3640 O   0  0  0  0  0  0  0  0  0  0  0  0
   46.4010   30.6570   47.1310 H   0  0  0  0  0  0  0  0  0  0  0  0
  1  2  2  0  0  0  0
  1  6  1  0  0  0  0
  2  3  1  0  0  0  0
  3  4  2  0  0  0  0
  5  4  1  0  0  0  0
  5  7  1  0  0  0  0
  6  5  2  0  0  0  0
  7  8  1  0  0  0  0
  8  9  2  0  0  0  0
  9 25  1  0  0  0  0
 10  9  1  0  0  0  0
 10 11  2  0  0  0  0
 12 10  1  0  0  0  0
 13  7  1  0  0  0  0
 13 12  1  0  0  0  0
 14 13  2  0  0  0  0
 15 16  2  0  0  0  0
 15 12  1  0  0  0  0
 17 24  1  0  0  0  0
 17 16  1  0  0  0  0
 18 23  1  0  0  0  0
 18 17  1  0  0  0  0
 19 18  2  0  0  0  0
 20 21  2  0  0  0  0
 20 19  1  0  0  0  0
 21 22  1  0  0  0  0
 22 23  2  0  0  0  0
 23 15  1  0  0  0  0
 25 29  1  0  0  0  0
 26 32  1  0  0  0  0
 27 26  2  0  0  0  0
 28 27  1  0  0  0  0
 29 28  2  0  0  0  0
 29 30  1  0  0  0  0
 30 31  2  0  0  0  0
 31 26  1  0  0  0  0
 32 33  2  0  0  0  0
 32 34  2  0  0  0  0
 35 32  1  0  0  0  0
M  END
>  <minimizedAffinity>
-7.5137043

$$$$

 OpenBabel03242509563D

 35 39  0  0  0  0  0  0  0  0999 V2000
   40.3710   34.4630   38.9540 C   0  0  0  0  0  3  0  0  0  0  0  0
   39.7000   35.3930   39.7600 C   0  0  0  0  0  3  0  0  0  0  0  0
   40.4210   35.9510   40.8180 C   0  0  0  0  0  3  0  0  0  0  0  0
   41.7050   35.5680   40.9990 N   0  0  0  0  0  0  0  0  0  0  0  0
   42.3250   34.6750   40.2100 C   0  0  0  0  0  0  0  0  0  0  0  0
   41.6560   34.1130   39.1740 N   0  0  0  0  0  0  0  0  0  0  0  0
   43.6780   34.3530   40.5000 N   0  0  0  0  0  0  0  0  0  0  0  0
   44.3420   34.9190   41.5020 C   0  0  0  0  0  3  0  0  0  0  0  0
   45.6380   34.4890   41.6450 C   0  0  0  0  0  0  0  0  0  0  0  0
   46.2540   33.5550   40.8520 C   0  0  0  0  0  0  0  0  0  0  0  0
   47.4470   33.1690   40.9980 O   0  0  0  0  0  0  0  0  0  0  0  0
   45.5380   33.0110   39.8510 N   0  0  0  0  0  0  0  0  0  0  0  0
   44.2410   33.4170   39.6780 C   0  0  0  0  0  0  0  0  0  0  0  0
   43.6070   32.8750   38.7200 O   0  0  0  0  0  0  0  0  0  0  0  0
   46.0820   32.0270   38.9520 C   0  0  0  0  0  0  0  0  0  0  0  0
   45.9650   30.6660   38.8250 C   0  0  0  0  0  3  0  0  0  0  0  0
   46.7220   30.2730   37.7780 N   0  0  0  0  0  0  0  0  0  0  0  0
   47.3250   31.3680   37.2310 C   0  0  0  0  0  0  0  0  0  0  0  0
   48.1780   31.4560   36.1600 C   0  0  0  0  0  3  0  0  0  0  0  0
   48.6980   32.6910   35.7510 C   0  0  0  0  0  3  0  0  0  0  0  0
   48.3180   33.8020   36.4610 C   0  0  0  0  0  3  0  0  0  0  0  0
   47.4640   33.6840   37.5270 C   0  0  0  0  0  3  0  0  0  0  0  0
   46.9380   32.4690   37.9490 C   0  0  0  0  0  0  0  0  0  0  0  0
   46.8270   29.3040   37.4460 H   0  0  0  0  0  0  0  0  0  0  0  0
   46.4870   35.0250   42.7350 C   0  0  0  0  0  2  0  0  0  0  0  0
   45.7240   33.1050   46.4300 C   0  0  0  0  0  0  0  0  0  0  0  0
   44.9470   34.2430   46.1680 C   0  0  0  0  0  3  0  0  0  0  0  0
   45.1370   34.9120   44.9780 C   0  0  0  0  0  3  0  0  0  0  0  0
   46.0670   34.4770   44.0630 C   0  0  0  0  0  0  0  0  0  0  0  0
   46.8280   33.3350   44.3520 C   0  0  0  0  0  3  0  0  0  0  0  0
   46.6620   32.6430   45.5350 C   0  0  0  0  0  3  0  0  0  0  0  0
   45.4770   32.2940   47.9480 S   0  0  0  0  0  0  0  0  0  0  0  0
   46.7220   32.3030   48.7970 O   0  0  0  0  0  0  0  0  0  0  0  0
   44.9500   30.9100   47.7630 O   0  0  0  0  0  0  0  0  0  0  0  0
   44.5180   33.0020   48.6220 H   0  0  0  0  0  0  0  0  0  0  0  0
  1  6  2  0  0  0  0
  1  2  1  0  0  0  0
  2  3  2  0  0  0  0
  3  4  1  0  0  0  0
  5  7  1  0  0  0  0
  5  4  2  0  0  0  0
  6  5  1  0  0  0  0
  7  8  1  0  0  0  0
  8  9  2  0  0  0  0
  9 25  1  0  0  0  0
 10 11  2  0  0  0  0
 10  9  1  0  0  0  0
 12 10  1  0  0  0  0
 13 12  1  0  0  0  0
 13  7  1  0  0  0  0
 14 13  2  0  0  0  0
 15 12  1  0  0  0  0
 16 15  2  0  0  0  0
 17 16  1  0  0  0  0
 18 17  1  0  0  0  0
 18 23  1  0  0  0  0
 19 18  2  0  0  0  0
 20 19  1  0  0  0  0
 20 21  2  0  0  0  0
 21 22  1  0  0  0  0
 22 23  2  0  0  0  0
 23 15  1  0  0  0  0
 24 17  1  0  0  0  0
 25 29  1  0  0  0  0
 26 32  1  0  0  0  0
 27 26  1  0  0  0  0
 28 27  2  0  0  0  0
 29 30  2  0  0  0  0
 29 28  1  0  0  0  0
 30 31  1  0  0  0  0
 31 26  2  0  0  0  0
 32 35  1  0  0  0  0
 32 33  2  0  0  0  0
 34 32  2  0  0  0  0
M  END
>  <minimizedAffinity>
-7.12444353

$$$$

 OpenBabel03242509563D

 35 39  0  0  0  0  0  0  0  0999 V2000
   51.3170   29.9080   42.0360 C   0  0  0  0  0  3  0  0  0  0  0  0
   52.0640   30.6060   41.0770 C   0  0  0  0  0  3  0  0  0  0  0  0
   51.5510   31.8300   40.6420 C   0  0  0  0  0  3  0  0  0  0  0  0
   50.3810   32.2630   41.1640 N   0  0  0  0  0  0  0  0  0  0  0  0
   49.6850   31.5740   42.0830 C   0  0  0  0  0  0  0  0  0  0  0  0
   50.1520   30.3820   42.5280 N   0  0  0  0  0  0  0  0  0  0  0  0
   48.4680   32.1330   42.5570 N   0  0  0  0  0  0  0  0  0  0  0  0
   48.0180   33.3110   42.1380 C   0  0  0  0  0  3  0  0  0  0  0  0
   46.8240   33.6990   42.6930 C   0  0  0  0  0  0  0  0  0  0  0  0
   46.1050   32.9740   43.6100 C   0  0  0  0  0  0  0  0  0  0  0  0
   45.0070   33.3450   44.1110 O   0  0  0  0  0  0  0  0  0  0  0  0
   46.6040   31.7870   44.0020 N   0  0  0  0  0  0  0  0  0  0  0  0
   47.7940   31.3680   43.4680 C   0  0  0  0  0  0  0  0  0  0  0  0
   48.2220   30.2420   43.8700 O   0  0  0  0  0  0  0  0  0  0  0  0
   45.9390   30.9450   44.9620 C   0  0  0  0  0  0  0  0  0  0  0  0
   45.0930   29.8690   44.8810 C   0  0  0  0  0  3  0  0  0  0  0  0
   44.7820   29.4800   46.1360 N   0  0  0  0  0  0  0  0  0  0  0  0
   45.4200   30.2970   47.0240 C   0  0  0  0  0  0  0  0  0  0  0  0
   45.4020   30.2840   48.3950 C   0  0  0  0  0  3  0  0  0  0  0  0
   46.1340   31.2220   49.1360 C   0  0  0  0  0  3  0  0  0  0  0  0
   46.8650   32.1480   48.4340 C   0  0  0  0  0  3  0  0  0  0  0  0
   46.8640   32.1370   47.0630 C   0  0  0  0  0  3  0  0  0  0  0  0
   46.1450   31.2160   46.3110 C   0  0  0  0  0  0  0  0  0  0  0  0
   44.1640   28.6940   46.3830 H   0  0  0  0  0  0  0  0  0  0  0  0
   46.1990   34.9830   42.3000 C   0  0  0  0  0  2  0  0  0  0  0  0
   42.5510   34.7600   40.1630 C   0  0  0  0  0  0  0  0  0  0  0  0
   43.5770   33.9270   39.6970 C   0  0  0  0  0  3  0  0  0  0  0  0
   44.7900   33.9410   40.3520 C   0  0  0  0  0  3  0  0  0  0  0  0
   44.9940   34.7550   41.4420 C   0  0  0  0  0  0  0  0  0  0  0  0
   43.9490   35.5770   41.8880 C   0  0  0  0  0  3  0  0  0  0  0  0
   42.7230   35.5850   41.2530 C   0  0  0  0  0  3  0  0  0  0  0  0
   41.0400   34.7350   39.3050 S   0  0  0  0  0  0  0  0  0  0  0  0
   41.1840   35.2610   37.9000 O   0  0  0  0  0  0  0  0  0  0  0  0
   39.9620   35.4500   40.0500 O   0  0  0  0  0  0  0  0  0  0  0  0
   40.6610   33.4220   39.2120 H   0  0  0  0  0  0  0  0  0  0  0  0
  1  6  1  0  0  0  0
  2  1  2  0  0  0  0
  3  2  1  0  0  0  0
  3  4  2  0  0  0  0
  4  5  1  0  0  0  0
  5  6  2  0  0  0  0
  5  7  1  0  0  0  0
  7 13  1  0  0  0  0
  8  7  1  0  0  0  0
  8  9  2  0  0  0  0
  9 10  1  0  0  0  0
 10 12  1  0  0  0  0
 10 11  2  0  0  0  0
 12 15  1  0  0  0  0
 13 14  2  0  0  0  0
 13 12  1  0  0  0  0
 15 23  1  0  0  0  0
 16 15  2  0  0  0  0
 16 17  1  0  0  0  0
 17 24  1  0  0  0  0
 17 18  1  0  0  0  0
 18 19  1  0  0  0  0
 19 20  2  0  0  0  0
 21 20  1  0  0  0  0
 22 21  2  0  0  0  0
 23 18  2  0  0  0  0
 23 22  1  0  0  0  0
 25  9  1  0  0  0  0
 26 31  1  0  0  0  0
 27 26  2  0  0  0  0
 27 28  1  0  0  0  0
 28 29  2  0  0  0  0
 29 30  1  0  0  0  0
 29 25  1  0  0  0  0
 31 30  2  0  0  0  0
 32 34  2  0  0  0  0
 32 26  1  0  0  0  0
 33 32  2  0  0  0  0
 35 32  1  0  0  0  0
M  END
>  <minimizedAffinity>
-7.03892326

$$$$

 OpenBabel03242509563D

 35 39  0  0  0  0  0  0  0  0999 V2000
   47.1270   31.8050   36.6070 C   0  0  0  0  0  3  0  0  0  0  0  0
   48.5170   31.7280   36.7700 C   0  0  0  0  0  3  0  0  0  0  0  0
   49.0510   32.2920   37.9300 C   0  0  0  0  0  3  0  0  0  0  0  0
   48.2080   32.8700   38.8160 N   0  0  0  0  0  0  0  0  0  0  0  0
   46.8790   32.9300   38.6360 C   0  0  0  0  0  0  0  0  0  0  0  0
   46.3260   32.3940   37.5220 N   0  0  0  0  0  0  0  0  0  0  0  0
   46.0970   33.5640   39.6390 N   0  0  0  0  0  0  0  0  0  0  0  0
   46.6350   34.0710   40.7420 C   0  0  0  0  0  3  0  0  0  0  0  0
   45.7370   34.6520   41.6020 C   0  0  0  0  0  0  0  0  0  0  0  0
   44.3830   34.7340   41.3960 C   0  0  0  0  0  0  0  0  0  0  0  0
   43.5700   35.2730   42.1980 O   0  0  0  0  0  0  0  0  0  0  0  0
   43.8870   34.2050   40.2630 N   0  0  0  0  0  0  0  0  0  0  0  0
   44.7550   33.6160   39.3810 C   0  0  0  0  0  0  0  0  0  0  0  0
   44.2390   33.1320   38.3260 O   0  0  0  0  0  0  0  0  0  0  0  0
   42.4840   34.2270   39.9440 C   0  0  0  0  0  0  0  0  0  0  0  0
   41.6920   34.9900   39.1240 C   0  0  0  0  0  3  0  0  0  0  0  0
   40.4200   34.5470   39.2330 N   0  0  0  0  0  0  0  0  0  0  0  0
   40.3880   33.5070   40.1160 C   0  0  0  0  0  0  0  0  0  0  0  0
   39.3260   32.7500   40.5400 C   0  0  0  0  0  3  0  0  0  0  0  0
   39.5010   31.7130   41.4650 C   0  0  0  0  0  3  0  0  0  0  0  0
   40.7740   31.4880   41.9260 C   0  0  0  0  0  3  0  0  0  0  0  0
   41.8170   32.2610   41.4860 C   0  0  0  0  0  3  0  0  0  0  0  0
   41.6640   33.2940   40.5690 C   0  0  0  0  0  0  0  0  0  0  0  0
   39.6080   34.9320   38.7320 H   0  0  0  0  0  0  0  0  0  0  0  0
   46.2050   35.2750   42.8630 C   0  0  0  0  0  2  0  0  0  0  0  0
   46.0750   32.6880   46.2110 C   0  0  0  0  0  0  0  0  0  0  0  0
   46.9470   32.3040   45.1830 C   0  0  0  0  0  3  0  0  0  0  0  0
   47.0470   33.1060   44.0660 C   0  0  0  0  0  3  0  0  0  0  0  0
   46.3080   34.2600   43.9580 C   0  0  0  0  0  0  0  0  0  0  0  0
   45.4450   34.6210   45.0030 C   0  0  0  0  0  3  0  0  0  0  0  0
   45.3220   33.8390   46.1340 C   0  0  0  0  0  3  0  0  0  0  0  0
   45.9550   31.6470   47.5980 S   0  0  0  0  0  0  0  0  0  0  0  0
   46.1250   32.4080   48.8870 O   0  0  0  0  0  0  0  0  0  0  0  0
   46.8990   30.4930   47.5140 O   0  0  0  0  0  0  0  0  0  0  0  0
   44.6870   31.1300   47.5940 H   0  0  0  0  0  0  0  0  0  0  0  0
  1  2  2  0  0  0  0
  1  6  1  0  0  0  0
  2  3  1  0  0  0  0
  3  4  2  0  0  0  0
  5  4  1  0  0  0  0
  5  7  1  0  0  0  0
  6  5  2  0  0  0  0
  7  8  1  0  0  0  0
  8  9  2  0  0  0  0
  9 25  1  0  0  0  0
 10  9  1  0  0  0  0
 10 11  2  0  0  0  0
 12 10  1  0  0  0  0
 13  7  1  0  0  0  0
 13 12  1  0  0  0  0
 14 13  2  0  0  0  0
 15 12  1  0  0  0  0
 15 23  1  0  0  0  0
 16 17  1  0  0  0  0
 16 15  2  0  0  0  0
 17 18  1  0  0  0  0
 18 19  2  0  0  0  0
 18 23  1  0  0  0  0
 19 20  1  0  0  0  0
 20 21  2  0  0  0  0
 22 21  1  0  0  0  0
 23 22  2  0  0  0  0
 24 17  1  0  0  0  0
 25 29  1  0  0  0  0
 26 32  1  0  0  0  0
 27 26  2  0  0  0  0
 28 27  1  0  0  0  0
 29 28  2  0  0  0  0
 29 30  1  0  0  0  0
 30 31  2  0  0  0  0
 31 26  1  0  0  0  0
 32 33  2  0  0  0  0
 34 32  2  0  0  0  0
 35 32  1  0  0  0  0
M  END
>  <minimizedAffinity>
-7.0110445

$$$$

 OpenBabel03242509563D

 35 39  0  0  0  0  0  0  0  0999 V2000
   41.9780   31.9230   37.9430 C   0  0  0  0  0  3  0  0  0  0  0  0
   40.8460   32.0240   38.7650 C   0  0  0  0  0  3  0  0  0  0  0  0
   41.0200   32.6320   40.0100 C   0  0  0  0  0  3  0  0  0  0  0  0
   42.2510   33.0820   40.3440 N   0  0  0  0  0  0  0  0  0  0  0  0
   43.3190   32.9740   39.5370 C   0  0  0  0  0  0  0  0  0  0  0  0
   43.1870   32.3880   38.3220 N   0  0  0  0  0  0  0  0  0  0  0  0
   44.5610   33.4850   39.9990 N   0  0  0  0  0  0  0  0  0  0  0  0
   44.6870   34.0780   41.1810 C   0  0  0  0  0  3  0  0  0  0  0  0
   45.9580   34.5080   41.4730 C   0  0  0  0  0  0  0  0  0  0  0  0
   47.0490   34.3670   40.6540 C   0  0  0  0  0  0  0  0  0  0  0  0
   48.2120   34.7680   40.9370 O   0  0  0  0  0  0  0  0  0  0  0  0
   46.8680   33.7590   39.4670 N   0  0  0  0  0  0  0  0  0  0  0  0
   45.6130   33.3160   39.1420 C   0  0  0  0  0  0  0  0  0  0  0  0
   45.4930   32.7490   38.0120 O   0  0  0  0  0  0  0  0  0  0  0  0
   47.9390   33.5610   38.5250 C   0  0  0  0  0  0  0  0  0  0  0  0
   48.4460   34.2810   37.4730 C   0  0  0  0  0  3  0  0  0  0  0  0
   49.4740   33.5850   36.9410 N   0  0  0  0  0  0  0  0  0  0  0  0
   49.6310   32.4240   37.6400 C   0  0  0  0  0  0  0  0  0  0  0  0
   50.5390   31.4110   37.4630 C   0  0  0  0  0  3  0  0  0  0  0  0
   50.5370   30.2850   38.2980 C   0  0  0  0  0  3  0  0  0  0  0  0
   49.5940   30.2400   39.2930 C   0  0  0  0  0  3  0  0  0  0  0  0
   48.6990   31.2670   39.4470 C   0  0  0  0  0  3  0  0  0  0  0  0
   48.6840   32.3910   38.6300 C   0  0  0  0  0  0  0  0  0  0  0  0
   50.0460   33.8820   36.1380 H   0  0  0  0  0  0  0  0  0  0  0  0
   46.2440   35.1700   42.7670 C   0  0  0  0  0  2  0  0  0  0  0  0
   46.1520   32.6160   46.1420 C   0  0  0  0  0  0  0  0  0  0  0  0
   47.0100   32.2200   45.1070 C   0  0  0  0  0  3  0  0  0  0  0  0
   47.0970   33.0110   43.9820 C   0  0  0  0  0  3  0  0  0  0  0  0
   46.3590   34.1660   43.8710 C   0  0  0  0  0  0  0  0  0  0  0  0
   45.5100   34.5380   44.9230 C   0  0  0  0  0  3  0  0  0  0  0  0
   45.4000   33.7680   46.0630 C   0  0  0  0  0  3  0  0  0  0  0  0
   46.0480   31.5890   47.5400 S   0  0  0  0  0  0  0  0  0  0  0  0
   45.0710   30.4590   47.3340 O   0  0  0  0  0  0  0  0  0  0  0  0
   45.7390   32.3610   48.7800 O   0  0  0  0  0  0  0  0  0  0  0  0
   47.2860   31.0300   47.7120 H   0  0  0  0  0  0  0  0  0  0  0  0
  1  6  2  0  0  0  0
  1  2  1  0  0  0  0
  2  3  2  0  0  0  0
  3  4  1  0  0  0  0
  5  7  1  0  0  0  0
  5  4  2  0  0  0  0
  6  5  1  0  0  0  0
  7  8  1  0  0  0  0
  8  9  2  0  0  0  0
  9 25  1  0  0  0  0
 10 11  2  0  0  0  0
 10  9  1  0  0  0  0
 12 10  1  0  0  0  0
 13 12  1  0  0  0  0
 13  7  1  0  0  0  0
 14 13  2  0  0  0  0
 15 23  1  0  0  0  0
 15 12  1  0  0  0  0
 16 15  2  0  0  0  0
 17 16  1  0  0  0  0
 17 18  1  0  0  0  0
 18 23  1  0  0  0  0
 19 18  2  0  0  0  0
 19 20  1  0  0  0  0
 20 21  2  0  0  0  0
 21 22  1  0  0  0  0
 23 22  2  0  0  0  0
 24 17  1  0  0  0  0
 25 29  1  0  0  0  0
 26 32  1  0  0  0  0
 27 26  2  0  0  0  0
 28 27  1  0  0  0  0
 29 28  2  0  0  0  0
 29 30  1  0  0  0  0
 30 31  2  0  0  0  0
 31 26  1  0  0  0  0
 32 35  1  0  0  0  0
 32 34  2  0  0  0  0
 33 32  2  0  0  0  0
M  END
>  <minimizedAffinity>
-7.00286007

$$$$

 OpenBabel03242509563D

 35 39  0  0  0  0  0  0  0  0999 V2000
   41.4930   31.9280   39.6220 C   0  0  0  0  0  3  0  0  0  0  0  0
   41.6320   31.6120   38.2640 C   0  0  0  0  0  3  0  0  0  0  0  0
   42.8570   31.9150   37.6660 C   0  0  0  0  0  3  0  0  0  0  0  0
   43.8220   32.4880   38.4210 N   0  0  0  0  0  0  0  0  0  0  0  0
   43.6620   32.7800   39.7220 C   0  0  0  0  0  0  0  0  0  0  0  0
   42.4870   32.5000   40.3350 N   0  0  0  0  0  0  0  0  0  0  0  0
   44.7500   33.3810   40.4110 N   0  0  0  0  0  0  0  0  0  0  0  0
   45.9100   33.6370   39.8170 C   0  0  0  0  0  3  0  0  0  0  0  0
   46.8500   34.2250   40.6260 C   0  0  0  0  0  0  0  0  0  0  0  0
   46.6680   34.5460   41.9470 C   0  0  0  0  0  0  0  0  0  0  0  0
   47.5430   35.0880   42.6780 O   0  0  0  0  0  0  0  0  0  0  0  0
   45.4750   34.2660   42.5020 N   0  0  0  0  0  0  0  0  0  0  0  0
   44.5120   33.6790   41.7230 C   0  0  0  0  0  0  0  0  0  0  0  0
   43.4030   33.4350   42.2930 O   0  0  0  0  0  0  0  0  0  0  0  0
   45.1720   34.5530   43.8800 C   0  0  0  0  0  0  0  0  0  0  0  0
   44.5940   35.6060   44.5430 C   0  0  0  0  0  3  0  0  0  0  0  0
   44.5750   35.3150   45.8620 N   0  0  0  0  0  0  0  0  0  0  0  0
   45.1350   34.0860   46.0520 C   0  0  0  0  0  0  0  0  0  0  0  0
   45.3320   33.3830   47.2140 C   0  0  0  0  0  3  0  0  0  0  0  0
   45.9350   32.1180   47.2000 C   0  0  0  0  0  3  0  0  0  0  0  0
   46.3180   31.6160   45.9820 C   0  0  0  0  0  3  0  0  0  0  0  0
   46.1100   32.3410   44.8370 C   0  0  0  0  0  3  0  0  0  0  0  0
   45.5140   33.5960   44.8300 C   0  0  0  0  0  0  0  0  0  0  0  0
   44.1980   35.9220   46.6030 H   0  0  0  0  0  0  0  0  0  0  0  0
   48.1830   34.5820   40.0860 C   0  0  0  0  0  2  0  0  0  0  0  0
   49.0200   32.1860   36.6980 C   0  0  0  0  0  0  0  0  0  0  0  0
   48.5240   33.4680   36.4240 C   0  0  0  0  0  3  0  0  0  0  0  0
   48.2390   34.3060   37.4810 C   0  0  0  0  0  3  0  0  0  0  0  0
   48.4360   33.8980   38.7790 C   0  0  0  0  0  0  0  0  0  0  0  0
   48.9350   32.6100   39.0230 C   0  0  0  0  0  3  0  0  0  0  0  0
   49.2300   31.7470   37.9870 C   0  0  0  0  0  3  0  0  0  0  0  0
   49.3520   31.1440   35.3470 S   0  0  0  0  0  0  0  0  0  0  0  0
   48.5350   29.8780   35.4010 O   0  0  0  0  0  0  0  0  0  0  0  0
   50.8090   30.8500   35.2110 O   0  0  0  0  0  0  0  0  0  0  0  0
   48.9720   31.8260   34.2210 H   0  0  0  0  0  0  0  0  0  0  0  0
  1  6  1  0  0  0  0
  2  1  2  0  0  0  0
  3  2  1  0  0  0  0
  3  4  2  0  0  0  0
  4  5  1  0  0  0  0
  5  6  2  0  0  0  0
  5  7  1  0  0  0  0
  7 13  1  0  0  0  0
  8  7  1  0  0  0  0
  8  9  2  0  0  0  0
  9 10  1  0  0  0  0
 10 12  1  0  0  0  0
 10 11  2  0  0  0  0
 12 15  1  0  0  0  0
 13 14  2  0  0  0  0
 13 12  1  0  0  0  0
 15 16  2  0  0  0  0
 15 23  1  0  0  0  0
 16 17  1  0  0  0  0
 17 18  1  0  0  0  0
 17 24  1  0  0  0  0
 18 19  1  0  0  0  0
 20 19  2  0  0  0  0
 21 20  1  0  0  0  0
 22 21  2  0  0  0  0
 23 22  1  0  0  0  0
 23 18  2  0  0  0  0
 25  9  1  0  0  0  0
 26 31  1  0  0  0  0
 27 26  2  0  0  0  0
 27 28  1  0  0  0  0
 28 29  2  0  0  0  0
 29 30  1  0  0  0  0
 29 25  1  0  0  0  0
 31 30  2  0  0  0  0
 32 33  2  0  0  0  0
 32 26  1  0  0  0  0
 34 32  2  0  0  0  0
 35 32  1  0  0  0  0
M  END
>  <minimizedAffinity>
-6.98422289

$$$$

 OpenBabel03242509563D

 35 39  0  0  0  0  0  0  0  0999 V2000
   50.6550   30.0800   41.5010 C   0  0  0  0  0  3  0  0  0  0  0  0
   50.9390   30.5100   40.1970 C   0  0  0  0  0  3  0  0  0  0  0  0
   50.2400   31.6260   39.7330 C   0  0  0  0  0  3  0  0  0  0  0  0
   49.3420   32.2160   40.5550 N   0  0  0  0  0  0  0  0  0  0  0  0
   49.0900   31.7830   41.8010 C   0  0  0  0  0  0  0  0  0  0  0  0
   49.7500   30.7030   42.2850 N   0  0  0  0  0  0  0  0  0  0  0  0
   48.1250   32.4870   42.5700 N   0  0  0  0  0  0  0  0  0  0  0  0
   47.4920   33.5580   42.1050 C   0  0  0  0  0  3  0  0  0  0  0  0
   46.5880   34.1130   42.9770 C   0  0  0  0  0  0  0  0  0  0  0  0
   46.3160   33.6460   44.2380 C   0  0  0  0  0  0  0  0  0  0  0  0
   45.4800   34.1680   45.0270 O   0  0  0  0  0  0  0  0  0  0  0  0
   46.9840   32.5580   44.6620 N   0  0  0  0  0  0  0  0  0  0  0  0
   47.8940   31.9780   43.8180 C   0  0  0  0  0  0  0  0  0  0  0  0
   48.4990   30.9530   44.2640 O   0  0  0  0  0  0  0  0  0  0  0  0
   46.7840   31.9840   45.9670 C   0  0  0  0  0  0  0  0  0  0  0  0
   47.1970   32.3030   47.2360 C   0  0  0  0  0  3  0  0  0  0  0  0
   46.6920   31.3840   48.0870 N   0  0  0  0  0  0  0  0  0  0  0  0
   45.9600   30.4770   47.3780 C   0  0  0  0  0  0  0  0  0  0  0  0
   45.2690   29.3750   47.8130 C   0  0  0  0  0  3  0  0  0  0  0  0
   44.5720   28.5580   46.9140 C   0  0  0  0  0  3  0  0  0  0  0  0
   44.6090   28.9050   45.5870 C   0  0  0  0  0  3  0  0  0  0  0  0
   45.3080   30.0110   45.1800 C   0  0  0  0  0  3  0  0  0  0  0  0
   46.0060   30.8340   46.0560 C   0  0  0  0  0  0  0  0  0  0  0  0
   46.8360   31.3700   49.1070 H   0  0  0  0  0  0  0  0  0  0  0  0
   45.7980   35.3020   42.5780 C   0  0  0  0  0  2  0  0  0  0  0  0
   42.2710   34.5560   40.3600 C   0  0  0  0  0  0  0  0  0  0  0  0
   43.4420   33.9830   39.8440 C   0  0  0  0  0  3  0  0  0  0  0  0
   44.6260   34.1780   40.5220 C   0  0  0  0  0  3  0  0  0  0  0  0
   44.6640   34.9170   41.6810 C   0  0  0  0  0  0  0  0  0  0  0  0
   43.4760   35.4770   42.1740 C   0  0  0  0  0  3  0  0  0  0  0  0
   42.2740   35.3010   41.5190 C   0  0  0  0  0  3  0  0  0  0  0  0
   40.7960   34.3110   39.4740 S   0  0  0  0  0  0  0  0  0  0  0  0
   40.8870   34.8570   38.0720 O   0  0  0  0  0  0  0  0  0  0  0  0
   39.6100   34.8570   40.1980 O   0  0  0  0  0  0  0  0  0  0  0  0
   40.6170   32.9570   39.3720 H   0  0  0  0  0  0  0  0  0  0  0  0
  1  6  1  0  0  0  0
  2  1  2  0  0  0  0
  3  2  1  0  0  0  0
  3  4  2  0  0  0  0
  4  5  1  0  0  0  0
  5  6  2  0  0  0  0
  5  7  1  0  0  0  0
  7 13  1  0  0  0  0
  8  7  1  0  0  0  0
  8  9  2  0  0  0  0
  9 10  1  0  0  0  0
 10 12  1  0  0  0  0
 10 11  2  0  0  0  0
 12 15  1  0  0  0  0
 13 14  2  0  0  0  0
 13 12  1  0  0  0  0
 15 23  1  0  0  0  0
 15 16  2  0  0  0  0
 16 17  1  0  0  0  0
 17 24  1  0  0  0  0
 18 19  1  0  0  0  0
 18 17  1  0  0  0  0
 20 19  2  0  0  0  0
 21 20  1  0  0  0  0
 22 21  2  0  0  0  0
 22 23  1  0  0  0  0
 23 18  2  0  0  0  0
 25  9  1  0  0  0  0
 26 31  1  0  0  0  0
 27 26  2  0  0  0  0
 27 28  1  0  0  0  0
 28 29  2  0  0  0  0
 29 30  1  0  0  0  0
 29 25  1  0  0  0  0
 31 30  2  0  0  0  0
 32 34  2  0  0  0  0
 32 26  1  0  0  0  0
 33 32  2  0  0  0  0
 35 32  1  0  0  0  0
M  END
>  <minimizedAffinity>
-6.69993448

$$$$

 OpenBabel03242509563D

 35 39  0  0  0  0  0  0  0  0999 V2000
   41.4730   32.4110   39.6590 C   0  0  0  0  0  3  0  0  0  0  0  0
   41.6440   32.1210   38.2980 C   0  0  0  0  0  3  0  0  0  0  0  0
   42.9110   32.3430   37.7580 C   0  0  0  0  0  3  0  0  0  0  0  0
   43.8860   32.8190   38.5670 N   0  0  0  0  0  0  0  0  0  0  0  0
   43.6950   33.0890   39.8690 C   0  0  0  0  0  0  0  0  0  0  0  0
   42.4770   32.8850   40.4270 N   0  0  0  0  0  0  0  0  0  0  0  0
   44.7960   33.5850   40.6170 N   0  0  0  0  0  0  0  0  0  0  0  0
   45.9960   33.7650   40.0760 C   0  0  0  0  0  3  0  0  0  0  0  0
   46.9450   34.2570   40.9380 C   0  0  0  0  0  0  0  0  0  0  0  0
   46.7330   34.5570   42.2600 C   0  0  0  0  0  0  0  0  0  0  0  0
   47.6170   35.0090   43.0410 O   0  0  0  0  0  0  0  0  0  0  0  0
   45.5000   34.3560   42.7600 N   0  0  0  0  0  0  0  0  0  0  0  0
   44.5280   33.8660   41.9270 C   0  0  0  0  0  0  0  0  0  0  0  0
   43.3810   33.6940   42.4450 O   0  0  0  0  0  0  0  0  0  0  0  0
   45.1640   34.6300   44.1330 C   0  0  0  0  0  0  0  0  0  0  0  0
   44.5720   35.6770   44.7920 C   0  0  0  0  0  3  0  0  0  0  0  0
   44.5190   35.3720   46.1070 N   0  0  0  0  0  0  0  0  0  0  0  0
   45.0710   34.1400   46.2980 C   0  0  0  0  0  0  0  0  0  0  0  0
   45.2370   33.4240   47.4570 C   0  0  0  0  0  3  0  0  0  0  0  0
   45.8380   32.1590   47.4450 C   0  0  0  0  0  3  0  0  0  0  0  0
   46.2500   31.6680   46.2320 C   0  0  0  0  0  3  0  0  0  0  0  0
   46.0720   32.4050   45.0900 C   0  0  0  0  0  3  0  0  0  0  0  0
   45.4790   33.6620   45.0810 C   0  0  0  0  0  0  0  0  0  0  0  0
   44.1240   35.9730   46.8440 H   0  0  0  0  0  0  0  0  0  0  0  0
   48.3220   34.5230   40.4620 C   0  0  0  0  0  2  0  0  0  0  0  0
   50.9150   31.2640   41.2190 C   0  0  0  0  0  0  0  0  0  0  0  0
   50.0810   31.1260   40.1000 C   0  0  0  0  0  3  0  0  0  0  0  0
   49.2180   32.1550   39.7890 C   0  0  0  0  0  3  0  0  0  0  0  0
   49.1710   33.2950   40.5570 C   0  0  0  0  0  0  0  0  0  0  0  0
   50.0190   33.4050   41.6690 C   0  0  0  0  0  3  0  0  0  0  0  0
   50.8940   32.3930   42.0070 C   0  0  0  0  0  3  0  0  0  0  0  0
   51.9790   29.9420   41.5980 S   0  0  0  0  0  0  0  0  0  0  0  0
   51.3590   28.6100   41.2640 O   0  0  0  0  0  0  0  0  0  0  0  0
   52.4460   29.9890   43.0150 O   0  0  0  0  0  0  0  0  0  0  0  0
   53.0850   30.0870   40.8040 H   0  0  0  0  0  0  0  0  0  0  0  0
  1  6  1  0  0  0  0
  2  1  2  0  0  0  0
  3  2  1  0  0  0  0
  3  4  2  0  0  0  0
  4  5  1  0  0  0  0
  5  6  2  0  0  0  0
  5  7  1  0  0  0  0
  7 13  1  0  0  0  0
  8  7  1  0  0  0  0
  8  9  2  0  0  0  0
  9 10  1  0  0  0  0
 10 12  1  0  0  0  0
 10 11  2  0  0  0  0
 12 15  1  0  0  0  0
 13 14  2  0  0  0  0
 13 12  1  0  0  0  0
 15 16  2  0  0  0  0
 15 23  1  0  0  0  0
 16 17  1  0  0  0  0
 17 18  1  0  0  0  0
 17 24  1  0  0  0  0
 18 19  1  0  0  0  0
 20 19  2  0  0  0  0
 21 20  1  0  0  0  0
 22 21  2  0  0  0  0
 23 22  1  0  0  0  0
 23 18  2  0  0  0  0
 25 29  1  0  0  0  0
 25  9  1  0  0  0  0
 26 32  1  0  0  0  0
 26 31  1  0  0  0  0
 27 26  2  0  0  0  0
 28 27  1  0  0  0  0
 28 29  2  0  0  0  0
 29 30  1  0  0  0  0
 30 31  2  0  0  0  0
 32 34  2  0  0  0  0
 33 32  2  0  0  0  0
 35 32  1  0  0  0  0
M  END
>  <minimizedAffinity>
-6.60085154

$$$$

 OpenBabel03242509563D

 35 39  0  0  0  0  0  0  0  0999 V2000
   47.3140   29.4590   46.6670 C   0  0  0  0  0  3  0  0  0  0  0  0
   46.1900   29.6500   47.4830 C   0  0  0  0  0  3  0  0  0  0  0  0
   45.3860   30.7570   47.2040 C   0  0  0  0  0  3  0  0  0  0  0  0
   45.7340   31.5670   46.1780 N   0  0  0  0  0  0  0  0  0  0  0  0
   46.8170   31.3600   45.4110 C   0  0  0  0  0  0  0  0  0  0  0  0
   47.6200   30.2960   45.6530 N   0  0  0  0  0  0  0  0  0  0  0  0
   47.0780   32.2820   44.3620 N   0  0  0  0  0  0  0  0  0  0  0  0
   46.2810   33.3140   44.1100 C   0  0  0  0  0  3  0  0  0  0  0  0
   46.6840   34.1070   43.0650 C   0  0  0  0  0  0  0  0  0  0  0  0
   47.8080   33.9050   42.3050 C   0  0  0  0  0  0  0  0  0  0  0  0
   48.1660   34.6450   41.3470 O   0  0  0  0  0  0  0  0  0  0  0  0
   48.5830   32.8450   42.6010 N   0  0  0  0  0  0  0  0  0  0  0  0
   48.2110   32.0310   43.6380 C   0  0  0  0  0  0  0  0  0  0  0  0
   48.9750   31.0450   43.8790 O   0  0  0  0  0  0  0  0  0  0  0  0
   49.7820   32.5310   41.8680 C   0  0  0  0  0  0  0  0  0  0  0  0
   51.1150   32.8110   42.0320 C   0  0  0  0  0  3  0  0  0  0  0  0
   51.7930   32.2450   41.0100 N   0  0  0  0  0  0  0  0  0  0  0  0
   50.9090   31.6040   40.1920 C   0  0  0  0  0  0  0  0  0  0  0  0
   51.1360   30.8960   39.0390 C   0  0  0  0  0  3  0  0  0  0  0  0
   50.0800   30.3060   38.3340 C   0  0  0  0  0  3  0  0  0  0  0  0
   48.8150   30.4650   38.8420 C   0  0  0  0  0  3  0  0  0  0  0  0
   48.6170   31.1790   39.9960 C   0  0  0  0  0  3  0  0  0  0  0  0
   49.6520   31.7710   40.7100 C   0  0  0  0  0  0  0  0  0  0  0  0
   52.8130   32.2890   40.8720 H   0  0  0  0  0  0  0  0  0  0  0  0
   45.8960   35.3050   42.6880 C   0  0  0  0  0  2  0  0  0  0  0  0
   42.3700   34.6120   40.4500 C   0  0  0  0  0  0  0  0  0  0  0  0
   43.5360   34.0290   39.9370 C   0  0  0  0  0  3  0  0  0  0  0  0
   44.7200   34.2060   40.6210 C   0  0  0  0  0  3  0  0  0  0  0  0
   44.7620   34.9390   41.7830 C   0  0  0  0  0  0  0  0  0  0  0  0
   43.5780   35.5090   42.2740 C   0  0  0  0  0  3  0  0  0  0  0  0
   42.3770   35.3510   41.6130 C   0  0  0  0  0  3  0  0  0  0  0  0
   40.8960   34.3890   39.5560 S   0  0  0  0  0  0  0  0  0  0  0  0
   41.0760   34.7010   38.0920 O   0  0  0  0  0  0  0  0  0  0  0  0
   39.7620   35.1610   40.1450 O   0  0  0  0  0  0  0  0  0  0  0  0
   40.5730   33.0620   39.6520 H   0  0  0  0  0  0  0  0  0  0  0  0
  1  2  1  0  0  0  0
  3  2  2  0  0  0  0
  4  3  1  0  0  0  0
  5  6  1  0  0  0  0
  5  4  2  0  0  0  0
  6  1  2  0  0  0  0
  7  5  1  0  0  0  0
  8  7  1  0  0  0  0
  9  8  2  0  0  0  0
 10 12  1  0  0  0  0
 10  9  1  0  0  0  0
 11 10  2  0  0  0  0
 12 13  1  0  0  0  0
 13 14  2  0  0  0  0
 13  7  1  0  0  0  0
 15 16  2  0  0  0  0
 15 12  1  0  0  0  0
 17 16  1  0  0  0  0
 18 23  1  0  0  0  0
 18 17  1  0  0  0  0
 19 18  2  0  0  0  0
 20 21  2  0  0  0  0
 20 19  1  0  0  0  0
 21 22  1  0  0  0  0
 22 23  2  0  0  0  0
 23 15  1  0  0  0  0
 24 17  1  0  0  0  0
 25  9  1  0  0  0  0
 26 31  1  0  0  0  0
 27 26  2  0  0  0  0
 27 28  1  0  0  0  0
 28 29  2  0  0  0  0
 29 30  1  0  0  0  0
 29 25  1  0  0  0  0
 31 30  2  0  0  0  0
 32 35  1  0  0  0  0
 32 34  2  0  0  0  0
 32 26  1  0  0  0  0
 33 32  2  0  0  0  0
M  END
>  <minimizedAffinity>
-6.53296423

$$$$
