
 OpenBabel03242509573D

 35 39  0  0  0  0  0  0  0  0999 V2000
   47.6870   31.3960   36.9740 C   0  0  0  0  0  3  0  0  0  0  0  0
   49.0560   31.5680   37.2020 C   0  0  0  0  0  3  0  0  0  0  0  0
   49.4400   32.3190   38.3040 C   0  0  0  0  0  3  0  0  0  0  0  0
   48.4650   32.8440   39.1020 N   0  0  0  0  0  0  0  0  0  0  0  0
   47.1580   32.6620   38.8560 C   0  0  0  0  0  0  0  0  0  0  0  0
   46.7640   31.9400   37.7970 N   0  0  0  0  0  0  0  0  0  0  0  0
   46.2380   33.2570   39.7540 N   0  0  0  0  0  0  0  0  0  0  0  0
   46.6270   33.9730   40.8200 C   0  0  0  0  0  3  0  0  0  0  0  0
   45.6070   34.4850   41.5900 C   0  0  0  0  0  0  0  0  0  0  0  0
   44.2720   34.3030   41.3280 C   0  0  0  0  0  0  0  0  0  0  0  0
   43.3530   34.7710   42.0380 O   0  0  0  0  0  0  0  0  0  0  0  0
   43.9300   33.5770   40.2470 N   0  0  0  0  0  0  0  0  0  0  0  0
   44.9170   33.0520   39.4570 C   0  0  0  0  0  0  0  0  0  0  0  0
   44.5490   32.3770   38.4540 O   0  0  0  0  0  0  0  0  0  0  0  0
   42.5560   33.3310   39.8900 C   0  0  0  0  0  0  0  0  0  0  0  0
   41.6350   32.3610   40.2160 C   0  0  0  0  0  3  0  0  0  0  0  0
   40.4770   32.6480   39.5670 N   0  0  0  0  0  0  0  0  0  0  0  0
   40.6490   33.7800   38.8380 C   0  0  0  0  0  0  0  0  0  0  0  0
   39.7710   34.4560   38.0210 C   0  0  0  0  0  3  0  0  0  0  0  0
   40.1480   35.6130   37.3510 C   0  0  0  0  0  3  0  0  0  0  0  0
   41.4260   36.0540   37.5340 C   0  0  0  0  0  3  0  0  0  0  0  0
   42.2890   35.3690   38.3510 C   0  0  0  0  0  3  0  0  0  0  0  0
   41.9430   34.2170   39.0290 C   0  0  0  0  0  0  0  0  0  0  0  0
   39.6080   32.0960   39.6180 H   0  0  0  0  0  0  0  0  0  0  0  0
   45.9210   35.3030   42.7720 C   0  0  0  0  0  2  0  0  0  0  0  0
   45.9180   34.4650   43.9420 N   0  0  0  0  0  0  0  0  0  0  0  0
   46.5490   33.3250   44.1950 C   0  0  0  0  0  3  0  0  0  0  0  0
   46.4870   32.6160   45.3620 C   0  0  0  0  0  0  0  0  0  0  0  0
   47.2380   31.3490   45.5280 C   0  0  0  0  0  1  0  0  0  0  0  0
   45.7130   33.0900   46.3990 C   0  0  0  0  0  0  0  0  0  0  0  0
   45.6450   32.4510   47.4790 O   0  0  0  0  0  0  0  0  0  0  0  0
   45.0520   34.2540   46.1810 N   0  0  0  0  0  0  0  0  0  0  0  0
   45.1760   34.8770   44.9990 C   0  0  0  0  0  0  0  0  0  0  0  0
   44.4930   35.9370   44.9870 O   0  0  0  0  0  0  0  0  0  0  0  0
   44.4570   34.6580   46.9190 H   0  0  0  0  0  0  0  0  0  0  0  0
  1  2  2  0  0  0  0
  1  6  1  0  0  0  0
  2  3  1  0  0  0  0
  3  4  2  0  0  0  0
  5  4  1  0  0  0  0
  5  7  1  0  0  0  0
  6  5  2  0  0  0  0
  7  8  1  0  0  0  0
  8  9  2  0  0  0  0
  9 25  1  0  0  0  0
 10  9  1  0  0  0  0
 10 11  2  0  0  0  0
 12 10  1  0  0  0  0
 13  7  1  0  0  0  0
 13 12  1  0  0  0  0
 14 13  2  0  0  0  0
 15 16  2  0  0  0  0
 15 12  1  0  0  0  0
 17 24  1  0  0  0  0
 17 16  1  0  0  0  0
 18 23  1  0  0  0  0
 18 17  1  0  0  0  0
 19 18  2  0  0  0  0
 20 21  2  0  0  0  0
 20 19  1  0  0  0  0
 21 22  1  0  0  0  0
 22 23  2  0  0  0  0
 23 15  1  0  0  0  0
 25 26  1  0  0  0  0
 26 27  1  0  0  0  0
 26 33  1  0  0  0  0
 27 28  2  0  0  0  0
 28 29  1  0  0  0  0
 28 30  1  0  0  0  0
 30 31  2  0  0  0  0
 32 30  1  0  0  0  0
 32 35  1  0  0  0  0
 33 32  1  0  0  0  0
 34 33  2  0  0  0  0
M  END
>  <minimizedAffinity>
-7.90977669

$$$$

 OpenBabel03242509573D

 35 39  0  0  0  0  0  0  0  0999 V2000
   40.3410   33.9430   38.7620 C   0  0  0  0  0  3  0  0  0  0  0  0
   39.5890   34.8890   39.4660 C   0  0  0  0  0  3  0  0  0  0  0  0
   40.2190   35.5860   40.4870 C   0  0  0  0  0  3  0  0  0  0  0  0
   41.5300   35.3130   40.7470 N   0  0  0  0  0  0  0  0  0  0  0  0
   42.2240   34.3960   40.0540 C   0  0  0  0  0  0  0  0  0  0  0  0
   41.6370   33.7100   39.0630 N   0  0  0  0  0  0  0  0  0  0  0  0
   43.5800   34.1970   40.4150 N   0  0  0  0  0  0  0  0  0  0  0  0
   44.1750   34.8860   41.4010 C   0  0  0  0  0  3  0  0  0  0  0  0
   45.4960   34.5700   41.6270 C   0  0  0  0  0  0  0  0  0  0  0  0
   46.1980   33.6260   40.9210 C   0  0  0  0  0  0  0  0  0  0  0  0
   47.4000   33.3490   41.1340 O   0  0  0  0  0  0  0  0  0  0  0  0
   45.5580   32.9590   39.9410 N   0  0  0  0  0  0  0  0  0  0  0  0
   44.2450   33.2460   39.6880 C   0  0  0  0  0  0  0  0  0  0  0  0
   43.6850   32.5970   38.7590 O   0  0  0  0  0  0  0  0  0  0  0  0
   46.2110   31.9500   39.1460 C   0  0  0  0  0  0  0  0  0  0  0  0
   46.2440   30.5750   39.1730 C   0  0  0  0  0  3  0  0  0  0  0  0
   47.0440   30.1540   38.1590 N   0  0  0  0  0  0  0  0  0  0  0  0
   47.5170   31.2390   37.4930 C   0  0  0  0  0  0  0  0  0  0  0  0
   48.3570   31.3190   36.4060 C   0  0  0  0  0  3  0  0  0  0  0  0
   48.7290   32.5440   35.8660 C   0  0  0  0  0  3  0  0  0  0  0  0
   48.2280   33.6670   36.4580 C   0  0  0  0  0  3  0  0  0  0  0  0
   47.3920   33.5700   37.5420 C   0  0  0  0  0  3  0  0  0  0  0  0
   47.0060   32.3670   38.0990 C   0  0  0  0  0  0  0  0  0  0  0  0
   47.2580   29.1730   37.9320 H   0  0  0  0  0  0  0  0  0  0  0  0
   46.2390   35.2520   42.6980 C   0  0  0  0  0  2  0  0  0  0  0  0
   46.0210   34.5610   43.9410 N   0  0  0  0  0  0  0  0  0  0  0  0
   46.5140   33.4160   44.3960 C   0  0  0  0  0  3  0  0  0  0  0  0
   46.2490   32.8550   45.6140 C   0  0  0  0  0  0  0  0  0  0  0  0
   46.8610   31.5660   46.0120 C   0  0  0  0  0  1  0  0  0  0  0  0
   45.3990   33.5040   46.4840 C   0  0  0  0  0  0  0  0  0  0  0  0
   45.1440   33.0040   47.6080 O   0  0  0  0  0  0  0  0  0  0  0  0
   44.8730   34.6790   46.0570 N   0  0  0  0  0  0  0  0  0  0  0  0
   45.1940   35.1480   44.8410 C   0  0  0  0  0  0  0  0  0  0  0  0
   44.6120   36.2450   44.6250 O   0  0  0  0  0  0  0  0  0  0  0  0
   44.2310   35.2090   46.6630 H   0  0  0  0  0  0  0  0  0  0  0  0
  1  6  2  0  0  0  0
  1  2  1  0  0  0  0
  2  3  2  0  0  0  0
  3  4  1  0  0  0  0
  5  7  1  0  0  0  0
  5  4  2  0  0  0  0
  6  5  1  0  0  0  0
  7  8  1  0  0  0  0
  8  9  2  0  0  0  0
  9 25  1  0  0  0  0
 10 11  2  0  0  0  0
 10  9  1  0  0  0  0
 12 10  1  0  0  0  0
 13 12  1  0  0  0  0
 13  7  1  0  0  0  0
 14 13  2  0  0  0  0
 15 16  2  0  0  0  0
 15 12  1  0  0  0  0
 17 16  1  0  0  0  0
 18 23  1  0  0  0  0
 18 17  1  0  0  0  0
 19 18  2  0  0  0  0
 20 19  1  0  0  0  0
 20 21  2  0  0  0  0
 21 22  1  0  0  0  0
 22 23  2  0  0  0  0
 23 15  1  0  0  0  0
 24 17  1  0  0  0  0
 25 26  1  0  0  0  0
 26 27  1  0  0  0  0
 26 33  1  0  0  0  0
 27 28  2  0  0  0  0
 28 29  1  0  0  0  0
 28 30  1  0  0  0  0
 30 31  2  0  0  0  0
 32 30  1  0  0  0  0
 32 35  1  0  0  0  0
 33 32  1  0  0  0  0
 34 33  2  0  0  0  0
M  END
>  <minimizedAffinity>
-7.5351162

$$$$

 OpenBabel03242509573D

 35 39  0  0  0  0  0  0  0  0999 V2000
   47.2690   31.0710   37.2440 C   0  0  0  0  0  3  0  0  0  0  0  0
   48.6140   30.8750   37.5740 C   0  0  0  0  0  3  0  0  0  0  0  0
   49.1000   31.5020   38.7120 C   0  0  0  0  0  3  0  0  0  0  0  0
   48.2440   32.2710   39.4450 N   0  0  0  0  0  0  0  0  0  0  0  0
   46.9580   32.4420   39.1020 C   0  0  0  0  0  0  0  0  0  0  0  0
   46.4650   31.8460   38.0050 N   0  0  0  0  0  0  0  0  0  0  0  0
   46.1640   33.2650   39.9390 N   0  0  0  0  0  0  0  0  0  0  0  0
   46.6500   33.8570   41.0410 C   0  0  0  0  0  3  0  0  0  0  0  0
   45.7490   34.6260   41.7420 C   0  0  0  0  0  0  0  0  0  0  0  0
   44.4360   34.8040   41.3810 C   0  0  0  0  0  0  0  0  0  0  0  0
   43.6250   35.5040   42.0290 O   0  0  0  0  0  0  0  0  0  0  0  0
   43.9950   34.1900   40.2670 N   0  0  0  0  0  0  0  0  0  0  0  0
   44.8620   33.4180   39.5440 C   0  0  0  0  0  0  0  0  0  0  0  0
   44.4040   32.8600   38.5060 O   0  0  0  0  0  0  0  0  0  0  0  0
   42.6350   34.3170   39.8070 C   0  0  0  0  0  0  0  0  0  0  0  0
   41.9980   35.1270   38.8950 C   0  0  0  0  0  3  0  0  0  0  0  0
   40.6830   34.7900   38.8800 N   0  0  0  0  0  0  0  0  0  0  0  0
   40.4780   33.7810   39.7660 C   0  0  0  0  0  0  0  0  0  0  0  0
   39.3220   33.1120   40.1010 C   0  0  0  0  0  3  0  0  0  0  0  0
   39.3220   32.0950   41.0480 C   0  0  0  0  0  3  0  0  0  0  0  0
   40.5150   31.7860   41.6340 C   0  0  0  0  0  3  0  0  0  0  0  0
   41.6570   32.4630   41.2890 C   0  0  0  0  0  3  0  0  0  0  0  0
   41.6870   33.4760   40.3530 C   0  0  0  0  0  0  0  0  0  0  0  0
   39.9580   35.2270   38.2940 H   0  0  0  0  0  0  0  0  0  0  0  0
   46.1800   35.3360   42.9560 C   0  0  0  0  0  2  0  0  0  0  0  0
   46.0640   34.4550   44.0870 N   0  0  0  0  0  0  0  0  0  0  0  0
   46.6530   33.2950   44.3480 C   0  0  0  0  0  3  0  0  0  0  0  0
   46.4810   32.5420   45.4770 C   0  0  0  0  0  0  0  0  0  0  0  0
   47.1960   31.2570   45.6560 C   0  0  0  0  0  1  0  0  0  0  0  0
   45.6270   32.9910   46.4620 C   0  0  0  0  0  0  0  0  0  0  0  0
   45.4570   32.3130   47.5060 O   0  0  0  0  0  0  0  0  0  0  0  0
   45.0040   34.1750   46.2340 N   0  0  0  0  0  0  0  0  0  0  0  0
   45.2390   34.8400   45.0920 C   0  0  0  0  0  0  0  0  0  0  0  0
   44.5750   35.9110   45.0630 O   0  0  0  0  0  0  0  0  0  0  0  0
   44.3550   34.5610   46.9340 H   0  0  0  0  0  0  0  0  0  0  0  0
  1  2  2  0  0  0  0
  1  6  1  0  0  0  0
  2  3  1  0  0  0  0
  3  4  2  0  0  0  0
  5  4  1  0  0  0  0
  5  7  1  0  0  0  0
  6  5  2  0  0  0  0
  7  8  1  0  0  0  0
  8  9  2  0  0  0  0
  9 25  1  0  0  0  0
 10  9  1  0  0  0  0
 10 11  2  0  0  0  0
 12 10  1  0  0  0  0
 13  7  1  0  0  0  0
 13 12  1  0  0  0  0
 14 13  2  0  0  0  0
 15 12  1  0  0  0  0
 15 23  1  0  0  0  0
 16 15  2  0  0  0  0
 17 16  1  0  0  0  0
 17 18  1  0  0  0  0
 18 19  2  0  0  0  0
 18 23  1  0  0  0  0
 19 20  1  0  0  0  0
 20 21  2  0  0  0  0
 22 21  1  0  0  0  0
 23 22  2  0  0  0  0
 24 17  1  0  0  0  0
 25 26  1  0  0  0  0
 26 27  1  0  0  0  0
 26 33  1  0  0  0  0
 27 28  2  0  0  0  0
 28 29  1  0  0  0  0
 28 30  1  0  0  0  0
 30 31  2  0  0  0  0
 32 30  1  0  0  0  0
 32 35  1  0  0  0  0
 33 32  1  0  0  0  0
 34 33  2  0  0  0  0
M  END
>  <minimizedAffinity>
-7.52706051

$$$$

 OpenBabel03242509573D

 35 39  0  0  0  0  0  0  0  0999 V2000
   41.9100   31.9270   38.1290 C   0  0  0  0  0  3  0  0  0  0  0  0
   40.7760   32.0650   38.9360 C   0  0  0  0  0  3  0  0  0  0  0  0
   40.9250   32.7050   40.1580 C   0  0  0  0  0  3  0  0  0  0  0  0
   42.1620   33.1640   40.5030 N   0  0  0  0  0  0  0  0  0  0  0  0
   43.2330   33.0150   39.7070 C   0  0  0  0  0  0  0  0  0  0  0  0
   43.1130   32.3990   38.5210 N   0  0  0  0  0  0  0  0  0  0  0  0
   44.4680   33.5310   40.1720 N   0  0  0  0  0  0  0  0  0  0  0  0
   44.5910   34.1550   41.3540 C   0  0  0  0  0  3  0  0  0  0  0  0
   45.8600   34.5950   41.6580 C   0  0  0  0  0  0  0  0  0  0  0  0
   46.9530   34.4310   40.8430 C   0  0  0  0  0  0  0  0  0  0  0  0
   48.1020   34.8390   41.1290 O   0  0  0  0  0  0  0  0  0  0  0  0
   46.7790   33.7980   39.6680 N   0  0  0  0  0  0  0  0  0  0  0  0
   45.5320   33.3470   39.3310 C   0  0  0  0  0  0  0  0  0  0  0  0
   45.4160   32.7600   38.2180 O   0  0  0  0  0  0  0  0  0  0  0  0
   47.8650   33.5790   38.7460 C   0  0  0  0  0  0  0  0  0  0  0  0
   48.3750   34.2760   37.6740 C   0  0  0  0  0  3  0  0  0  0  0  0
   49.4230   33.5720   37.1750 N   0  0  0  0  0  0  0  0  0  0  0  0
   49.5850   32.4440   37.9120 C   0  0  0  0  0  0  0  0  0  0  0  0
   50.5050   31.4250   37.7920 C   0  0  0  0  0  3  0  0  0  0  0  0
   50.5020   30.3400   38.6590 C   0  0  0  0  0  3  0  0  0  0  0  0
   49.5490   30.3210   39.6360 C   0  0  0  0  0  3  0  0  0  0  0  0
   48.6400   31.3430   39.7420 C   0  0  0  0  0  3  0  0  0  0  0  0
   48.6190   32.4340   38.8960 C   0  0  0  0  0  0  0  0  0  0  0  0
   50.0020   33.8480   36.3690 H   0  0  0  0  0  0  0  0  0  0  0  0
   46.1130   35.2750   42.9370 C   0  0  0  0  0  2  0  0  0  0  0  0
   46.1090   34.3040   43.9990 N   0  0  0  0  0  0  0  0  0  0  0  0
   46.7620   33.1560   44.1280 C   0  0  0  0  0  3  0  0  0  0  0  0
   46.6970   32.3110   45.2010 C   0  0  0  0  0  0  0  0  0  0  0  0
   47.4740   31.0500   45.2300 C   0  0  0  0  0  1  0  0  0  0  0  0
   45.8940   32.6420   46.2710 C   0  0  0  0  0  0  0  0  0  0  0  0
   45.8220   31.8780   47.2660 O   0  0  0  0  0  0  0  0  0  0  0  0
   45.2090   33.8100   46.1800 N   0  0  0  0  0  0  0  0  0  0  0  0
   45.3390   34.5720   45.0820 C   0  0  0  0  0  0  0  0  0  0  0  0
   44.6310   35.6100   45.1830 O   0  0  0  0  0  0  0  0  0  0  0  0
   44.5930   34.1100   46.9490 H   0  0  0  0  0  0  0  0  0  0  0  0
  1  6  2  0  0  0  0
  1  2  1  0  0  0  0
  2  3  2  0  0  0  0
  3  4  1  0  0  0  0
  5  7  1  0  0  0  0
  5  4  2  0  0  0  0
  6  5  1  0  0  0  0
  7  8  1  0  0  0  0
  8  9  2  0  0  0  0
  9 25  1  0  0  0  0
 10 11  2  0  0  0  0
 10  9  1  0  0  0  0
 12 10  1  0  0  0  0
 13 12  1  0  0  0  0
 13  7  1  0  0  0  0
 14 13  2  0  0  0  0
 15 23  1  0  0  0  0
 15 12  1  0  0  0  0
 16 15  2  0  0  0  0
 17 16  1  0  0  0  0
 17 18  1  0  0  0  0
 18 23  1  0  0  0  0
 19 18  2  0  0  0  0
 19 20  1  0  0  0  0
 20 21  2  0  0  0  0
 21 22  1  0  0  0  0
 23 22  2  0  0  0  0
 24 17  1  0  0  0  0
 25 26  1  0  0  0  0
 26 27  1  0  0  0  0
 26 33  1  0  0  0  0
 27 28  2  0  0  0  0
 28 29  1  0  0  0  0
 28 30  1  0  0  0  0
 30 31  2  0  0  0  0
 32 30  1  0  0  0  0
 32 35  1  0  0  0  0
 33 34  2  0  0  0  0
 33 32  1  0  0  0  0
M  END
>  <minimizedAffinity>
-7.33845901

$$$$

 OpenBabel03242509573D

 35 39  0  0  0  0  0  0  0  0999 V2000
   40.8520   36.0470   40.8800 C   0  0  0  0  0  3  0  0  0  0  0  0
   39.6640   35.6320   40.2690 C   0  0  0  0  0  3  0  0  0  0  0  0
   39.4710   34.2690   40.0900 C   0  0  0  0  0  3  0  0  0  0  0  0
   40.4430   33.4140   40.5180 N   0  0  0  0  0  0  0  0  0  0  0  0
   41.5740   33.8440   41.1000 C   0  0  0  0  0  0  0  0  0  0  0  0
   41.7840   35.1560   41.2840 N   0  0  0  0  0  0  0  0  0  0  0  0
   42.5130   32.8620   41.5030 N   0  0  0  0  0  0  0  0  0  0  0  0
   42.3050   31.5480   41.3280 C   0  0  0  0  0  3  0  0  0  0  0  0
   43.3180   30.7270   41.7720 C   0  0  0  0  0  0  0  0  0  0  0  0
   44.4760   31.1730   42.3590 C   0  0  0  0  0  0  0  0  0  0  0  0
   45.3880   30.4170   42.7620 O   0  0  0  0  0  0  0  0  0  0  0  0
   44.6390   32.5010   42.5120 N   0  0  0  0  0  0  0  0  0  0  0  0
   43.6540   33.3480   42.0830 C   0  0  0  0  0  0  0  0  0  0  0  0
   43.8510   34.5860   42.2480 O   0  0  0  0  0  0  0  0  0  0  0  0
   45.8200   33.0650   43.1160 C   0  0  0  0  0  0  0  0  0  0  0  0
   46.2870   33.1670   44.4070 C   0  0  0  0  0  3  0  0  0  0  0  0
   47.4810   33.8130   44.3720 N   0  0  0  0  0  0  0  0  0  0  0  0
   47.7770   34.1200   43.0830 C   0  0  0  0  0  0  0  0  0  0  0  0
   48.8680   34.7690   42.5500 C   0  0  0  0  0  3  0  0  0  0  0  0
   48.9840   34.9900   41.1840 C   0  0  0  0  0  3  0  0  0  0  0  0
   47.9710   34.5380   40.3880 C   0  0  0  0  0  3  0  0  0  0  0  0
   46.8910   33.8940   40.9350 C   0  0  0  0  0  3  0  0  0  0  0  0
   46.7490   33.6600   42.2880 C   0  0  0  0  0  0  0  0  0  0  0  0
   48.0670   34.0340   45.1890 H   0  0  0  0  0  0  0  0  0  0  0  0
   43.2020   29.2690   41.6130 C   0  0  0  0  0  2  0  0  0  0  0  0
   42.6290   28.7060   42.8070 N   0  0  0  0  0  0  0  0  0  0  0  0
   41.6780   29.1620   43.6130 C   0  0  0  0  0  3  0  0  0  0  0  0
   41.1940   28.5270   44.7220 C   0  0  0  0  0  0  0  0  0  0  0  0
   40.1260   29.1380   45.5480 C   0  0  0  0  0  1  0  0  0  0  0  0
   41.7090   27.2980   45.0750 C   0  0  0  0  0  0  0  0  0  0  0  0
   41.2760   26.7000   46.0910 O   0  0  0  0  0  0  0  0  0  0  0  0
   42.6840   26.7960   44.2760 N   0  0  0  0  0  0  0  0  0  0  0  0
   43.0940   27.4970   43.2070 C   0  0  0  0  0  0  0  0  0  0  0  0
   43.9980   26.8710   42.5920 O   0  0  0  0  0  0  0  0  0  0  0  0
   43.1080   25.8810   44.4890 H   0  0  0  0  0  0  0  0  0  0  0  0
  1  6  1  0  0  0  0
  2  1  2  0  0  0  0
  3  2  1  0  0  0  0
  3  4  2  0  0  0  0
  4  5  1  0  0  0  0
  5  6  2  0  0  0  0
  5  7  1  0  0  0  0
  7 13  1  0  0  0  0
  8  7  1  0  0  0  0
  8  9  2  0  0  0  0
  9 10  1  0  0  0  0
 10 12  1  0  0  0  0
 10 11  2  0  0  0  0
 12 15  1  0  0  0  0
 13 14  2  0  0  0  0
 13 12  1  0  0  0  0
 15 16  2  0  0  0  0
 17 16  1  0  0  0  0
 17 24  1  0  0  0  0
 18 17  1  0  0  0  0
 19 18  1  0  0  0  0
 20 19  2  0  0  0  0
 21 22  2  0  0  0  0
 21 20  1  0  0  0  0
 22 23  1  0  0  0  0
 23 18  2  0  0  0  0
 23 15  1  0  0  0  0
 25  9  1  0  0  0  0
 25 26  1  0  0  0  0
 26 33  1  0  0  0  0
 26 27  1  0  0  0  0
 27 28  2  0  0  0  0
 28 30  1  0  0  0  0
 28 29  1  0  0  0  0
 30 31  2  0  0  0  0
 32 35  1  0  0  0  0
 32 30  1  0  0  0  0
 33 32  1  0  0  0  0
 34 33  2  0  0  0  0
M  END
>  <minimizedAffinity>
-7.06524467

$$$$

 OpenBabel03242509573D

 35 39  0  0  0  0  0  0  0  0999 V2000
   41.8100   32.2490   39.5090 C   0  0  0  0  0  3  0  0  0  0  0  0
   42.0860   31.8890   38.1860 C   0  0  0  0  0  3  0  0  0  0  0  0
   43.3930   32.0180   37.7390 C   0  0  0  0  0  3  0  0  0  0  0  0
   44.3330   32.4850   38.6100 N   0  0  0  0  0  0  0  0  0  0  0  0
   44.0370   32.8240   39.8750 C   0  0  0  0  0  0  0  0  0  0  0  0
   42.7800   32.7080   40.3300 N   0  0  0  0  0  0  0  0  0  0  0  0
   45.0960   33.2990   40.6870 N   0  0  0  0  0  0  0  0  0  0  0  0
   46.3570   33.4100   40.2400 C   0  0  0  0  0  3  0  0  0  0  0  0
   47.2660   33.8900   41.1550 C   0  0  0  0  0  0  0  0  0  0  0  0
   46.9550   34.2440   42.4440 C   0  0  0  0  0  0  0  0  0  0  0  0
   47.7920   34.6770   43.2690 O   0  0  0  0  0  0  0  0  0  0  0  0
   45.6760   34.1160   42.8470 N   0  0  0  0  0  0  0  0  0  0  0  0
   44.7440   33.6420   41.9650 C   0  0  0  0  0  0  0  0  0  0  0  0
   43.5570   33.5370   42.3870 O   0  0  0  0  0  0  0  0  0  0  0  0
   45.2530   34.4610   44.1810 C   0  0  0  0  0  0  0  0  0  0  0  0
   44.6270   35.5510   44.7410 C   0  0  0  0  0  3  0  0  0  0  0  0
   44.4820   35.3150   46.0700 N   0  0  0  0  0  0  0  0  0  0  0  0
   45.0050   34.0970   46.3600 C   0  0  0  0  0  0  0  0  0  0  0  0
   45.0930   33.4280   47.5610 C   0  0  0  0  0  3  0  0  0  0  0  0
   45.6760   32.1700   47.6480 C   0  0  0  0  0  3  0  0  0  0  0  0
   46.1600   31.6220   46.4960 C   0  0  0  0  0  3  0  0  0  0  0  0
   46.0650   32.3020   45.3080 C   0  0  0  0  0  3  0  0  0  0  0  0
   45.4910   33.5520   45.1900 C   0  0  0  0  0  0  0  0  0  0  0  0
   44.0470   35.9570   46.7490 H   0  0  0  0  0  0  0  0  0  0  0  0
   48.6730   34.0700   40.7650 C   0  0  0  0  0  2  0  0  0  0  0  0
   49.4170   32.8900   41.1190 N   0  0  0  0  0  0  0  0  0  0  0  0
   49.2520   31.6210   40.7700 C   0  0  0  0  0  3  0  0  0  0  0  0
   50.0390   30.5720   41.1560 C   0  0  0  0  0  0  0  0  0  0  0  0
   49.7530   29.1920   40.7000 C   0  0  0  0  0  1  0  0  0  0  0  0
   51.1160   30.8080   41.9840 C   0  0  0  0  0  0  0  0  0  0  0  0
   51.8510   29.8560   42.3490 O   0  0  0  0  0  0  0  0  0  0  0  0
   51.3210   32.0930   42.3650 N   0  0  0  0  0  0  0  0  0  0  0  0
   50.4900   33.0550   41.9320 C   0  0  0  0  0  0  0  0  0  0  0  0
   50.8410   34.1770   42.3880 O   0  0  0  0  0  0  0  0  0  0  0  0
   52.1100   32.3310   42.9840 H   0  0  0  0  0  0  0  0  0  0  0  0
  1  6  1  0  0  0  0
  2  1  2  0  0  0  0
  3  2  1  0  0  0  0
  3  4  2  0  0  0  0
  4  5  1  0  0  0  0
  5  6  2  0  0  0  0
  5  7  1  0  0  0  0
  7 13  1  0  0  0  0
  8  7  1  0  0  0  0
  8  9  2  0  0  0  0
  9 10  1  0  0  0  0
 10 12  1  0  0  0  0
 10 11  2  0  0  0  0
 12 15  1  0  0  0  0
 13 14  2  0  0  0  0
 13 12  1  0  0  0  0
 15 16  2  0  0  0  0
 15 23  1  0  0  0  0
 16 17  1  0  0  0  0
 17 18  1  0  0  0  0
 17 24  1  0  0  0  0
 18 19  1  0  0  0  0
 19 20  2  0  0  0  0
 21 20  1  0  0  0  0
 22 21  2  0  0  0  0
 23 22  1  0  0  0  0
 23 18  2  0  0  0  0
 25 26  1  0  0  0  0
 25  9  1  0  0  0  0
 26 33  1  0  0  0  0
 27 26  1  0  0  0  0
 27 28  2  0  0  0  0
 28 30  1  0  0  0  0
 29 28  1  0  0  0  0
 30 31  2  0  0  0  0
 30 32  1  0  0  0  0
 32 35  1  0  0  0  0
 33 32  1  0  0  0  0
 33 34  2  0  0  0  0
M  END
>  <minimizedAffinity>
-6.91737461

$$$$

 OpenBabel03242509573D

 35 39  0  0  0  0  0  0  0  0999 V2000
   47.3730   28.9740   45.8330 C   0  0  0  0  0  3  0  0  0  0  0  0
   46.3230   29.2090   46.7260 C   0  0  0  0  0  3  0  0  0  0  0  0
   45.6630   30.4270   46.6440 C   0  0  0  0  0  3  0  0  0  0  0  0
   46.0710   31.3230   45.7000 N   0  0  0  0  0  0  0  0  0  0  0  0
   47.0840   31.0700   44.8570 C   0  0  0  0  0  0  0  0  0  0  0  0
   47.7380   29.9000   44.9180 N   0  0  0  0  0  0  0  0  0  0  0  0
   47.4200   32.0780   43.9200 N   0  0  0  0  0  0  0  0  0  0  0  0
   46.7650   33.2470   43.8500 C   0  0  0  0  0  3  0  0  0  0  0  0
   47.2170   34.1190   42.8850 C   0  0  0  0  0  0  0  0  0  0  0  0
   48.2600   33.8570   42.0320 C   0  0  0  0  0  0  0  0  0  0  0  0
   48.6610   34.6570   41.1560 O   0  0  0  0  0  0  0  0  0  0  0  0
   48.8870   32.6700   42.1410 N   0  0  0  0  0  0  0  0  0  0  0  0
   48.4650   31.7780   43.0880 C   0  0  0  0  0  0  0  0  0  0  0  0
   49.0830   30.6770   43.1540 O   0  0  0  0  0  0  0  0  0  0  0  0
   49.9920   32.3040   41.2910 C   0  0  0  0  0  0  0  0  0  0  0  0
   51.3620   32.3350   41.4240 C   0  0  0  0  0  3  0  0  0  0  0  0
   51.9060   31.8590   40.2750 N   0  0  0  0  0  0  0  0  0  0  0  0
   50.9060   31.5290   39.4180 C   0  0  0  0  0  0  0  0  0  0  0  0
   50.9600   31.0120   38.1430 C   0  0  0  0  0  3  0  0  0  0  0  0
   49.8040   30.7410   37.4210 C   0  0  0  0  0  3  0  0  0  0  0  0
   48.6100   31.0080   38.0270 C   0  0  0  0  0  3  0  0  0  0  0  0
   48.5740   31.5240   39.2980 C   0  0  0  0  0  3  0  0  0  0  0  0
   49.7050   31.8020   40.0390 C   0  0  0  0  0  0  0  0  0  0  0  0
   52.9140   31.7640   40.0830 H   0  0  0  0  0  0  0  0  0  0  0  0
   46.5830   35.4370   42.7340 C   0  0  0  0  0  2  0  0  0  0  0  0
   45.2340   35.2630   42.2660 N   0  0  0  0  0  0  0  0  0  0  0  0
   44.7670   34.7860   41.1190 C   0  0  0  0  0  3  0  0  0  0  0  0
   43.4480   34.6480   40.7840 C   0  0  0  0  0  0  0  0  0  0  0  0
   43.0470   34.1010   39.4670 C   0  0  0  0  0  1  0  0  0  0  0  0
   42.4800   35.0230   41.6910 C   0  0  0  0  0  0  0  0  0  0  0  0
   41.2640   34.9030   41.4000 O   0  0  0  0  0  0  0  0  0  0  0  0
   42.9160   35.5160   42.8770 N   0  0  0  0  0  0  0  0  0  0  0  0
   44.2340   35.6140   43.1120 C   0  0  0  0  0  0  0  0  0  0  0  0
   44.4410   36.0900   44.2610 O   0  0  0  0  0  0  0  0  0  0  0  0
   42.2390   35.8140   43.5940 H   0  0  0  0  0  0  0  0  0  0  0  0
  1  2  1  0  0  0  0
  3  2  2  0  0  0  0
  4  3  1  0  0  0  0
  5  6  1  0  0  0  0
  5  4  2  0  0  0  0
  6  1  2  0  0  0  0
  7  5  1  0  0  0  0
  8  7  1  0  0  0  0
  9  8  2  0  0  0  0
 10 12  1  0  0  0  0
 10  9  1  0  0  0  0
 11 10  2  0  0  0  0
 12 13  1  0  0  0  0
 13 14  2  0  0  0  0
 13  7  1  0  0  0  0
 15 16  2  0  0  0  0
 15 12  1  0  0  0  0
 17 16  1  0  0  0  0
 18 23  1  0  0  0  0
 18 17  1  0  0  0  0
 19 18  2  0  0  0  0
 20 21  2  0  0  0  0
 20 19  1  0  0  0  0
 21 22  1  0  0  0  0
 22 23  2  0  0  0  0
 23 15  1  0  0  0  0
 24 17  1  0  0  0  0
 25  9  1  0  0  0  0
 26 25  1  0  0  0  0
 26 33  1  0  0  0  0
 27 26  1  0  0  0  0
 28 27  2  0  0  0  0
 28 30  1  0  0  0  0
 29 28  1  0  0  0  0
 30 32  1  0  0  0  0
 31 30  2  0  0  0  0
 32 33  1  0  0  0  0
 32 35  1  0  0  0  0
 33 34  2  0  0  0  0
M  END
>  <minimizedAffinity>
-6.91421032

$$$$

 OpenBabel03242509573D

 35 39  0  0  0  0  0  0  0  0999 V2000
   40.8940   34.7530   40.5780 C   0  0  0  0  0  3  0  0  0  0  0  0
   39.7970   34.0530   41.0910 C   0  0  0  0  0  3  0  0  0  0  0  0
   40.0480   32.8920   41.8080 C   0  0  0  0  0  3  0  0  0  0  0  0
   41.3430   32.5000   41.9750 N   0  0  0  0  0  0  0  0  0  0  0  0
   42.3760   33.1930   41.4690 C   0  0  0  0  0  0  0  0  0  0  0  0
   42.1590   34.3180   40.7720 N   0  0  0  0  0  0  0  0  0  0  0  0
   43.6780   32.6860   41.7060 N   0  0  0  0  0  0  0  0  0  0  0  0
   43.9010   31.5660   42.4090 C   0  0  0  0  0  3  0  0  0  0  0  0
   45.2250   31.2090   42.5450 C   0  0  0  0  0  0  0  0  0  0  0  0
   46.2750   31.9180   42.0180 C   0  0  0  0  0  0  0  0  0  0  0  0
   47.4750   31.5850   42.1510 O   0  0  0  0  0  0  0  0  0  0  0  0
   46.0010   33.0360   41.3190 N   0  0  0  0  0  0  0  0  0  0  0  0
   44.6980   33.4210   41.1630 C   0  0  0  0  0  0  0  0  0  0  0  0
   44.4880   34.4770   40.5010 O   0  0  0  0  0  0  0  0  0  0  0  0
   47.0370   33.8450   40.7280 C   0  0  0  0  0  0  0  0  0  0  0  0
   47.8830   34.8230   41.2000 C   0  0  0  0  0  3  0  0  0  0  0  0
   48.6610   35.2390   40.1680 N   0  0  0  0  0  0  0  0  0  0  0  0
   48.3220   34.5420   39.0530 C   0  0  0  0  0  0  0  0  0  0  0  0
   48.8250   34.6110   37.7730 C   0  0  0  0  0  3  0  0  0  0  0  0
   48.3330   33.8010   36.7570 C   0  0  0  0  0  3  0  0  0  0  0  0
   47.3300   32.9330   37.0780 C   0  0  0  0  0  3  0  0  0  0  0  0
   46.8400   32.8770   38.3580 C   0  0  0  0  0  3  0  0  0  0  0  0
   47.3090   33.6690   39.3870 C   0  0  0  0  0  0  0  0  0  0  0  0
   49.3900   35.9650   40.2210 H   0  0  0  0  0  0  0  0  0  0  0  0
   45.5820   29.9870   43.2810 C   0  0  0  0  0  2  0  0  0  0  0  0
   45.5560   30.2600   44.6940 N   0  0  0  0  0  0  0  0  0  0  0  0
   46.1880   31.1790   45.4130 C   0  0  0  0  0  3  0  0  0  0  0  0
   46.0740   31.3610   46.7630 C   0  0  0  0  0  0  0  0  0  0  0  0
   46.8340   32.4250   47.4590 C   0  0  0  0  0  1  0  0  0  0  0  0
   45.2350   30.5390   47.4850 C   0  0  0  0  0  0  0  0  0  0  0  0
   45.1180   30.6910   48.7270 O   0  0  0  0  0  0  0  0  0  0  0  0
   44.5690   29.5850   46.7870 N   0  0  0  0  0  0  0  0  0  0  0  0
   44.7490   29.4850   45.4600 C   0  0  0  0  0  0  0  0  0  0  0  0
   44.0490   28.5480   44.9910 O   0  0  0  0  0  0  0  0  0  0  0  0
   43.9290   28.9400   47.2720 H   0  0  0  0  0  0  0  0  0  0  0  0
  1  6  2  0  0  0  0
  1  2  1  0  0  0  0
  2  3  2  0  0  0  0
  3  4  1  0  0  0  0
  5  7  1  0  0  0  0
  5  4  2  0  0  0  0
  6  5  1  0  0  0  0
  7  8  1  0  0  0  0
  8  9  2  0  0  0  0
  9 25  1  0  0  0  0
 10 11  2  0  0  0  0
 10  9  1  0  0  0  0
 12 10  1  0  0  0  0
 13 12  1  0  0  0  0
 13  7  1  0  0  0  0
 14 13  2  0  0  0  0
 15 16  2  0  0  0  0
 15 12  1  0  0  0  0
 17 24  1  0  0  0  0
 17 16  1  0  0  0  0
 18 23  1  0  0  0  0
 18 17  1  0  0  0  0
 19 18  2  0  0  0  0
 20 21  2  0  0  0  0
 20 19  1  0  0  0  0
 21 22  1  0  0  0  0
 22 23  2  0  0  0  0
 23 15  1  0  0  0  0
 25 26  1  0  0  0  0
 26 27  1  0  0  0  0
 26 33  1  0  0  0  0
 27 28  2  0  0  0  0
 28 29  1  0  0  0  0
 28 30  1  0  0  0  0
 30 31  2  0  0  0  0
 32 35  1  0  0  0  0
 32 30  1  0  0  0  0
 33 32  1  0  0  0  0
 34 33  2  0  0  0  0
M  END
>  <minimizedAffinity>
-6.81035662

$$$$

 OpenBabel03242509573D

 35 39  0  0  0  0  0  0  0  0999 V2000
   47.5760   29.9690   47.1790 C   0  0  0  0  0  3  0  0  0  0  0  0
   47.0650   30.7390   48.2290 C   0  0  0  0  0  3  0  0  0  0  0  0
   46.6170   32.0190   47.9350 C   0  0  0  0  0  3  0  0  0  0  0  0
   46.6980   32.4540   46.6440 N   0  0  0  0  0  0  0  0  0  0  0  0
   47.1960   31.6920   45.6580 C   0  0  0  0  0  0  0  0  0  0  0  0
   47.6350   30.4520   45.9180 N   0  0  0  0  0  0  0  0  0  0  0  0
   47.2310   32.2520   44.3570 N   0  0  0  0  0  0  0  0  0  0  0  0
   46.7860   33.4890   44.0900 C   0  0  0  0  0  3  0  0  0  0  0  0
   46.8940   33.8830   42.7750 C   0  0  0  0  0  0  0  0  0  0  0  0
   47.4130   33.1020   41.7720 C   0  0  0  0  0  0  0  0  0  0  0  0
   47.5030   33.4700   40.5790 O   0  0  0  0  0  0  0  0  0  0  0  0
   47.8470   31.8680   42.0890 N   0  0  0  0  0  0  0  0  0  0  0  0
   47.7560   31.4410   43.3860 C   0  0  0  0  0  0  0  0  0  0  0  0
   48.1750   30.2760   43.6370 O   0  0  0  0  0  0  0  0  0  0  0  0
   48.4070   30.9750   41.1060 C   0  0  0  0  0  0  0  0  0  0  0  0
   47.8960   29.9720   40.3140 C   0  0  0  0  0  3  0  0  0  0  0  0
   48.9130   29.4670   39.5680 N   0  0  0  0  0  0  0  0  0  0  0  0
   50.0560   30.1320   39.8760 C   0  0  0  0  0  0  0  0  0  0  0  0
   51.3340   29.9780   39.3880 C   0  0  0  0  0  3  0  0  0  0  0  0
   52.3830   30.7690   39.8400 C   0  0  0  0  0  3  0  0  0  0  0  0
   52.0960   31.7060   40.7900 C   0  0  0  0  0  3  0  0  0  0  0  0
   50.8170   31.8460   41.2660 C   0  0  0  0  0  3  0  0  0  0  0  0
   49.7560   31.0760   40.8350 C   0  0  0  0  0  0  0  0  0  0  0  0
   48.8310   28.7030   38.8820 H   0  0  0  0  0  0  0  0  0  0  0  0
   46.4530   35.2280   42.3750 C   0  0  0  0  0  2  0  0  0  0  0  0
   45.0490   35.1940   42.0630 N   0  0  0  0  0  0  0  0  0  0  0  0
   44.4120   34.7930   40.9700 C   0  0  0  0  0  3  0  0  0  0  0  0
   43.0570   34.7880   40.7870 C   0  0  0  0  0  0  0  0  0  0  0  0
   42.4590   34.3160   39.5160 C   0  0  0  0  0  1  0  0  0  0  0  0
   42.2380   35.2280   41.8040 C   0  0  0  0  0  0  0  0  0  0  0  0
   40.9900   35.2300   41.6540 O   0  0  0  0  0  0  0  0  0  0  0  0
   42.8500   35.6460   42.9400 N   0  0  0  0  0  0  0  0  0  0  0  0
   44.1900   35.6140   43.0230 C   0  0  0  0  0  0  0  0  0  0  0  0
   44.5700   36.0380   44.1480 O   0  0  0  0  0  0  0  0  0  0  0  0
   42.2900   35.9870   43.7350 H   0  0  0  0  0  0  0  0  0  0  0  0
  1  2  1  0  0  0  0
  3  2  2  0  0  0  0
  4  3  1  0  0  0  0
  5  6  1  0  0  0  0
  5  4  2  0  0  0  0
  6  1  2  0  0  0  0
  7  5  1  0  0  0  0
  8  7  1  0  0  0  0
  9  8  2  0  0  0  0
 10 12  1  0  0  0  0
 10  9  1  0  0  0  0
 11 10  2  0  0  0  0
 12 13  1  0  0  0  0
 13 14  2  0  0  0  0
 13  7  1  0  0  0  0
 15 12  1  0  0  0  0
 16 15  2  0  0  0  0
 17 18  1  0  0  0  0
 17 16  1  0  0  0  0
 18 23  1  0  0  0  0
 19 20  1  0  0  0  0
 19 18  2  0  0  0  0
 20 21  2  0  0  0  0
 21 22  1  0  0  0  0
 23 15  1  0  0  0  0
 23 22  2  0  0  0  0
 24 17  1  0  0  0  0
 25  9  1  0  0  0  0
 26 25  1  0  0  0  0
 26 33  1  0  0  0  0
 27 26  1  0  0  0  0
 28 27  2  0  0  0  0
 28 30  1  0  0  0  0
 29 28  1  0  0  0  0
 30 32  1  0  0  0  0
 31 30  2  0  0  0  0
 32 33  1  0  0  0  0
 32 35  1  0  0  0  0
 33 34  2  0  0  0  0
M  END
>  <minimizedAffinity>
-6.75170135

$$$$
