
 OpenBabel03242509583D

 37 40  0  0  0  0  0  0  0  0999 V2000
   47.6180   30.6850   37.7100 C   0  0  0  0  0  3  0  0  0  0  0  0
   48.9920   30.8610   37.9210 C   0  0  0  0  0  3  0  0  0  0  0  0
   49.3870   31.8230   38.8490 C   0  0  0  0  0  3  0  0  0  0  0  0
   48.4210   32.5320   39.4960 N   0  0  0  0  0  0  0  0  0  0  0  0
   47.1100   32.3390   39.2710 C   0  0  0  0  0  0  0  0  0  0  0  0
   46.7010   31.4180   38.3810 N   0  0  0  0  0  0  0  0  0  0  0  0
   46.1950   33.1430   40.0090 N   0  0  0  0  0  0  0  0  0  0  0  0
   46.5940   34.0390   40.9200 C   0  0  0  0  0  3  0  0  0  0  0  0
   45.5940   34.7320   41.5430 C   0  0  0  0  0  0  0  0  0  0  0  0
   44.2450   34.5650   41.2930 C   0  0  0  0  0  0  0  0  0  0  0  0
   43.3280   35.2050   41.8700 O   0  0  0  0  0  0  0  0  0  0  0  0
   43.8970   33.6470   40.3640 N   0  0  0  0  0  0  0  0  0  0  0  0
   44.8770   32.9400   39.7270 C   0  0  0  0  0  0  0  0  0  0  0  0
   44.4910   32.0920   38.8640 O   0  0  0  0  0  0  0  0  0  0  0  0
   42.5250   33.3880   40.0230 C   0  0  0  0  0  0  0  0  0  0  0  0
   41.5900   32.4480   40.3880 C   0  0  0  0  0  3  0  0  0  0  0  0
   40.4370   32.7070   39.7270 N   0  0  0  0  0  0  0  0  0  0  0  0
   40.6190   33.8060   38.9380 C   0  0  0  0  0  0  0  0  0  0  0  0
   39.7420   34.4370   38.0960 C   0  0  0  0  0  3  0  0  0  0  0  0
   40.1150   35.5500   37.3700 C   0  0  0  0  0  3  0  0  0  0  0  0
   41.3980   36.0010   37.5260 C   0  0  0  0  0  3  0  0  0  0  0  0
   42.2640   35.3570   38.3750 C   0  0  0  0  0  3  0  0  0  0  0  0
   41.9130   34.2420   39.1090 C   0  0  0  0  0  0  0  0  0  0  0  0
   39.5760   32.1070   39.8570 H   0  0  0  0  0  0  0  0  0  0  0  0
   45.8920   35.7510   42.5690 C   0  0  0  0  0  2  0  0  0  0  0  0
   45.4780   35.3230   43.8990 N   0  0  0  0  0  0  0  0  0  0  0  0
   44.5850   35.9450   44.7250 C   0  0  0  0  0  3  0  0  0  0  0  0
   44.4700   35.2310   45.8830 N   0  0  0  0  0  0  0  0  0  0  0  0
   45.2860   34.1970   45.7470 C   0  0  0  0  0  0  0  0  0  0  0  0
   45.6310   33.1220   46.5340 C   0  0  0  0  0  3  0  0  0  0  0  0
   46.5140   32.1600   46.1800 N   0  0  0  0  0  0  0  0  0  0  0  0
   47.1270   32.2190   44.9700 C   0  0  0  0  0  3  0  0  0  0  0  0
   46.7970   33.2580   44.2010 N   0  0  0  0  0  0  0  0  0  0  0  0
   45.9250   34.2090   44.5500 C   0  0  0  0  0  0  0  0  0  0  0  0
   45.0730   32.9280   47.8200 N   0  0  0  0  0  1  0  0  0  0  0  0
   44.6380   32.7920   48.7470 H   0  0  0  0  0  0  0  0  0  0  0  0
   44.1520   32.9300   48.3110 H   0  0  0  0  0 15  0  0  0  0  0  0
  1  2  2  0  0  0  0
  1  6  1  0  0  0  0
  2  3  1  0  0  0  0
  3  4  2  0  0  0  0
  5  4  1  0  0  0  0
  5  7  1  0  0  0  0
  6  5  2  0  0  0  0
  7  8  1  0  0  0  0
  8  9  2  0  0  0  0
  9 25  1  0  0  0  0
 10  9  1  0  0  0  0
 10 11  2  0  0  0  0
 12 10  1  0  0  0  0
 13  7  1  0  0  0  0
 13 12  1  0  0  0  0
 14 13  2  0  0  0  0
 15 12  1  0  0  0  0
 15 16  2  0  0  0  0
 17 24  1  0  0  0  0
 17 16  1  0  0  0  0
 18 23  1  0  0  0  0
 18 17  1  0  0  0  0
 19 18  2  0  0  0  0
 20 21  2  0  0  0  0
 20 19  1  0  0  0  0
 21 22  1  0  0  0  0
 22 23  2  0  0  0  0
 23 15  1  0  0  0  0
 25 26  1  0  0  0  0
 26 34  1  0  0  0  0
 26 27  1  0  0  0  0
 27 28  2  0  0  0  0
 29 28  1  0  0  0  0
 29 30  1  0  0  0  0
 31 30  2  0  0  0  0
 32 31  1  0  0  0  0
 33 34  1  0  0  0  0
 33 32  2  0  0  0  0
 34 29  2  0  0  0  0
 35 36  1  0  0  0  0
M  END
>  <minimizedAffinity>
-8.13651752

$$$$

 OpenBabel03242509583D

 37 40  0  0  0  0  0  0  0  0999 V2000
   40.2400   33.7990   38.5950 C   0  0  0  0  0  3  0  0  0  0  0  0
   39.4630   34.7500   39.2700 C   0  0  0  0  0  3  0  0  0  0  0  0
   40.0740   35.4860   40.2830 C   0  0  0  0  0  3  0  0  0  0  0  0
   41.3860   35.2430   40.5580 N   0  0  0  0  0  0  0  0  0  0  0  0
   42.1050   34.3240   39.8910 C   0  0  0  0  0  0  0  0  0  0  0  0
   41.5400   33.5990   38.9090 N   0  0  0  0  0  0  0  0  0  0  0  0
   43.4680   34.1610   40.2690 N   0  0  0  0  0  0  0  0  0  0  0  0
   44.0460   34.9010   41.2240 C   0  0  0  0  0  3  0  0  0  0  0  0
   45.3610   34.6230   41.4710 C   0  0  0  0  0  0  0  0  0  0  0  0
   46.0990   33.6560   40.8150 C   0  0  0  0  0  0  0  0  0  0  0  0
   47.3100   33.4040   41.0450 O   0  0  0  0  0  0  0  0  0  0  0  0
   45.4680   32.9380   39.8600 N   0  0  0  0  0  0  0  0  0  0  0  0
   44.1520   33.1960   39.5930 C   0  0  0  0  0  0  0  0  0  0  0  0
   43.6120   32.4890   38.6870 O   0  0  0  0  0  0  0  0  0  0  0  0
   46.1350   31.9070   39.1120 C   0  0  0  0  0  0  0  0  0  0  0  0
   46.1740   30.5330   39.1670 C   0  0  0  0  0  3  0  0  0  0  0  0
   46.9960   30.0870   38.1870 N   0  0  0  0  0  0  0  0  0  0  0  0
   47.4880   31.1600   37.5020 C   0  0  0  0  0  0  0  0  0  0  0  0
   48.3490   31.2010   36.4370 C   0  0  0  0  0  3  0  0  0  0  0  0
   48.7380   32.3990   35.8710 C   0  0  0  0  0  3  0  0  0  0  0  0
   48.2260   33.5460   36.4160 C   0  0  0  0  0  3  0  0  0  0  0  0
   47.3640   33.4860   37.4830 C   0  0  0  0  0  3  0  0  0  0  0  0
   46.9630   32.3000   38.0650 C   0  0  0  0  0  0  0  0  0  0  0  0
   47.1760   29.0540   38.0420 H   0  0  0  0  0  0  0  0  0  0  0  0
   46.1210   35.3630   42.4970 C   0  0  0  0  0  2  0  0  0  0  0  0
   45.6250   35.0960   43.8410 N   0  0  0  0  0  0  0  0  0  0  0  0
   44.7420   35.8530   44.5600 C   0  0  0  0  0  3  0  0  0  0  0  0
   44.5320   35.2660   45.7750 N   0  0  0  0  0  0  0  0  0  0  0  0
   45.2800   34.1740   45.7770 C   0  0  0  0  0  0  0  0  0  0  0  0
   45.5180   33.1610   46.6790 C   0  0  0  0  0  3  0  0  0  0  0  0
   46.3470   32.1140   46.4610 N   0  0  0  0  0  0  0  0  0  0  0  0
   47.0120   32.0140   45.2820 C   0  0  0  0  0  3  0  0  0  0  0  0
   46.7860   32.9920   44.4020 N   0  0  0  0  0  0  0  0  0  0  0  0
   45.9670   34.0260   44.6160 C   0  0  0  0  0  0  0  0  0  0  0  0
   44.8960   33.1320   47.9500 N   0  0  0  0  0  1  0  0  0  0  0  0
   44.4160   33.1160   48.8640 H   0  0  0  0  0  0  0  0  0  0  0  0
   43.9580   33.2410   48.3950 H   0  0  0  0  0 15  0  0  0  0  0  0
  1  6  2  0  0  0  0
  1  2  1  0  0  0  0
  2  3  2  0  0  0  0
  3  4  1  0  0  0  0
  5  7  1  0  0  0  0
  5  4  2  0  0  0  0
  6  5  1  0  0  0  0
  7  8  1  0  0  0  0
  8  9  2  0  0  0  0
  9 25  1  0  0  0  0
 10 11  2  0  0  0  0
 10  9  1  0  0  0  0
 12 10  1  0  0  0  0
 13 12  1  0  0  0  0
 13  7  1  0  0  0  0
 14 13  2  0  0  0  0
 15 16  2  0  0  0  0
 15 12  1  0  0  0  0
 17 16  1  0  0  0  0
 18 23  1  0  0  0  0
 18 17  1  0  0  0  0
 19 18  2  0  0  0  0
 20 21  2  0  0  0  0
 20 19  1  0  0  0  0
 21 22  1  0  0  0  0
 22 23  2  0  0  0  0
 23 15  1  0  0  0  0
 24 17  1  0  0  0  0
 25 26  1  0  0  0  0
 26 27  1  0  0  0  0
 26 34  1  0  0  0  0
 27 28  2  0  0  0  0
 28 29  1  0  0  0  0
 29 30  1  0  0  0  0
 31 30  2  0  0  0  0
 32 31  1  0  0  0  0
 33 34  1  0  0  0  0
 33 32  2  0  0  0  0
 34 29  2  0  0  0  0
 35 36  1  0  0  0  0
M  END
>  <minimizedAffinity>
-8.07709217

$$$$

 OpenBabel03242509583D

 37 40  0  0  0  0  0  0  0  0999 V2000
   40.1940   33.9490   38.6580 C   0  0  0  0  0  3  0  0  0  0  0  0
   39.4200   34.8010   39.4590 C   0  0  0  0  0  3  0  0  0  0  0  0
   40.0600   35.4640   40.5050 C   0  0  0  0  0  3  0  0  0  0  0  0
   41.3930   35.2500   40.6880 N   0  0  0  0  0  0  0  0  0  0  0  0
   42.1070   34.4270   39.9020 C   0  0  0  0  0  0  0  0  0  0  0  0
   41.5150   33.7740   38.8860 N   0  0  0  0  0  0  0  0  0  0  0  0
   43.4930   34.2840   40.1930 N   0  0  0  0  0  0  0  0  0  0  0  0
   44.0950   34.9560   41.1830 C   0  0  0  0  0  3  0  0  0  0  0  0
   45.4310   34.7100   41.3340 C   0  0  0  0  0  0  0  0  0  0  0  0
   46.1660   33.8390   40.5530 C   0  0  0  0  0  0  0  0  0  0  0  0
   47.3960   33.6150   40.6970 O   0  0  0  0  0  0  0  0  0  0  0  0
   45.5090   33.1870   39.5680 N   0  0  0  0  0  0  0  0  0  0  0  0
   44.1730   33.4150   39.3940 C   0  0  0  0  0  0  0  0  0  0  0  0
   43.6100   32.7740   38.4540 O   0  0  0  0  0  0  0  0  0  0  0  0
   46.1720   32.2570   38.6930 C   0  0  0  0  0  0  0  0  0  0  0  0
   46.8080   32.3470   37.4780 C   0  0  0  0  0  3  0  0  0  0  0  0
   47.2480   31.1140   37.1300 N   0  0  0  0  0  0  0  0  0  0  0  0
   46.9000   30.2300   38.1100 C   0  0  0  0  0  0  0  0  0  0  0  0
   47.1290   28.8820   38.1970 C   0  0  0  0  0  3  0  0  0  0  0  0
   46.6950   28.1460   39.2810 C   0  0  0  0  0  3  0  0  0  0  0  0
   46.0260   28.8180   40.2680 C   0  0  0  0  0  3  0  0  0  0  0  0
   45.8050   30.1690   40.1650 C   0  0  0  0  0  3  0  0  0  0  0  0
   46.2290   30.9240   39.0900 C   0  0  0  0  0  0  0  0  0  0  0  0
   47.7700   30.9460   36.2250 H   0  0  0  0  0  0  0  0  0  0  0  0
   46.2190   35.3820   42.3860 C   0  0  0  0  0  2  0  0  0  0  0  0
   45.6920   35.1130   43.7180 N   0  0  0  0  0  0  0  0  0  0  0  0
   44.7820   35.8600   44.4110 C   0  0  0  0  0  3  0  0  0  0  0  0
   44.5480   35.2740   45.6230 N   0  0  0  0  0  0  0  0  0  0  0  0
   45.3100   34.1920   45.6480 C   0  0  0  0  0  0  0  0  0  0  0  0
   45.5380   33.1860   46.5600 C   0  0  0  0  0  3  0  0  0  0  0  0
   46.3870   32.1500   46.3670 N   0  0  0  0  0  0  0  0  0  0  0  0
   47.0830   32.0540   45.2050 C   0  0  0  0  0  3  0  0  0  0  0  0
   46.8660   33.0260   44.3160 N   0  0  0  0  0  0  0  0  0  0  0  0
   46.0290   34.0490   44.5060 C   0  0  0  0  0  0  0  0  0  0  0  0
   44.8850   33.1530   47.8150 N   0  0  0  0  0  1  0  0  0  0  0  0
   44.3810   33.1330   48.7160 H   0  0  0  0  0  0  0  0  0  0  0  0
   43.9340   33.2510   48.2340 H   0  0  0  0  0 15  0  0  0  0  0  0
  1  6  2  0  0  0  0
  1  2  1  0  0  0  0
  2  3  2  0  0  0  0
  3  4  1  0  0  0  0
  5  7  1  0  0  0  0
  5  4  2  0  0  0  0
  6  5  1  0  0  0  0
  7  8  1  0  0  0  0
  8  9  2  0  0  0  0
  9 25  1  0  0  0  0
 10 11  2  0  0  0  0
 10  9  1  0  0  0  0
 12 10  1  0  0  0  0
 13 12  1  0  0  0  0
 13  7  1  0  0  0  0
 14 13  2  0  0  0  0
 15 23  1  0  0  0  0
 15 12  1  0  0  0  0
 16 15  2  0  0  0  0
 17 16  1  0  0  0  0
 17 18  1  0  0  0  0
 18 19  2  0  0  0  0
 18 23  1  0  0  0  0
 19 20  1  0  0  0  0
 20 21  2  0  0  0  0
 22 21  1  0  0  0  0
 23 22  2  0  0  0  0
 24 17  1  0  0  0  0
 25 26  1  0  0  0  0
 26 27  1  0  0  0  0
 26 34  1  0  0  0  0
 27 28  2  0  0  0  0
 28 29  1  0  0  0  0
 29 30  1  0  0  0  0
 31 30  2  0  0  0  0
 32 31  1  0  0  0  0
 33 34  1  0  0  0  0
 33 32  2  0  0  0  0
 34 29  2  0  0  0  0
 35 36  1  0  0  0  0
M  END
>  <minimizedAffinity>
-7.52857065

$$$$

 OpenBabel03242509583D

 37 40  0  0  0  0  0  0  0  0999 V2000
   46.1880   32.1100   35.5620 C   0  0  0  0  0  3  0  0  0  0  0  0
   47.4950   32.4140   35.1590 C   0  0  0  0  0  3  0  0  0  0  0  0
   48.3370   33.0180   36.0910 C   0  0  0  0  0  3  0  0  0  0  0  0
   47.8450   33.2770   37.3350 N   0  0  0  0  0  0  0  0  0  0  0  0
   46.5850   32.9720   37.6910 C   0  0  0  0  0  0  0  0  0  0  0  0
   45.7510   32.3890   36.8110 N   0  0  0  0  0  0  0  0  0  0  0  0
   46.1860   33.2910   39.0200 N   0  0  0  0  0  0  0  0  0  0  0  0
   47.0200   33.8420   39.9100 C   0  0  0  0  0  3  0  0  0  0  0  0
   46.4850   34.0880   41.1440 C   0  0  0  0  0  0  0  0  0  0  0  0
   45.1820   33.8110   41.5080 C   0  0  0  0  0  0  0  0  0  0  0  0
   44.6940   34.0390   42.6460 O   0  0  0  0  0  0  0  0  0  0  0  0
   44.3820   33.2540   40.5710 N   0  0  0  0  0  0  0  0  0  0  0  0
   44.8920   32.9970   39.3290 C   0  0  0  0  0  0  0  0  0  0  0  0
   44.0950   32.4750   38.4900 O   0  0  0  0  0  0  0  0  0  0  0  0
   43.0090   32.9220   40.8370 C   0  0  0  0  0  0  0  0  0  0  0  0
   42.3530   31.8320   41.3580 C   0  0  0  0  0  3  0  0  0  0  0  0
   41.0240   32.0930   41.3690 N   0  0  0  0  0  0  0  0  0  0  0  0
   40.8170   33.3420   40.8590 C   0  0  0  0  0  0  0  0  0  0  0  0
   39.6480   34.0310   40.6750 C   0  0  0  0  0  3  0  0  0  0  0  0
   39.6380   35.3030   40.1370 C   0  0  0  0  0  3  0  0  0  0  0  0
   40.8450   35.8490   39.7960 C   0  0  0  0  0  3  0  0  0  0  0  0
   42.0080   35.1440   39.9880 C   0  0  0  0  0  3  0  0  0  0  0  0
   42.0410   33.8720   40.5230 C   0  0  0  0  0  0  0  0  0  0  0  0
   40.3230   31.3880   41.7310 H   0  0  0  0  0  0  0  0  0  0  0  0
   47.2930   34.6940   42.2220 C   0  0  0  0  0  2  0  0  0  0  0  0
   48.6110   34.0810   42.3250 N   0  0  0  0  0  0  0  0  0  0  0  0
   49.8210   34.7100   42.2380 C   0  0  0  0  0  3  0  0  0  0  0  0
   50.8190   33.7880   42.3860 N   0  0  0  0  0  0  0  0  0  0  0  0
   50.2070   32.6270   42.5590 C   0  0  0  0  0  0  0  0  0  0  0  0
   50.6240   31.3310   42.7600 C   0  0  0  0  0  3  0  0  0  0  0  0
   49.7980   30.2710   42.9160 N   0  0  0  0  0  0  0  0  0  0  0  0
   48.4530   30.4530   42.8780 C   0  0  0  0  0  3  0  0  0  0  0  0
   48.0400   31.7070   42.6830 N   0  0  0  0  0  0  0  0  0  0  0  0
   48.8570   32.7540   42.5300 C   0  0  0  0  0  0  0  0  0  0  0  0
   51.9960   30.9880   42.8230 N   0  0  0  0  0  1  0  0  0  0  0  0
   53.0020   30.7620   42.8880 H   0  0  0  0  0  0  0  0  0  0  0  0
   52.8860   31.2940   43.2750 H   0  0  0  0  0 15  0  0  0  0  0  0
  1  6  1  0  0  0  0
  2  1  2  0  0  0  0
  2  3  1  0  0  0  0
  3  4  2  0  0  0  0
  4  5  1  0  0  0  0
  5  7  1  0  0  0  0
  6  5  2  0  0  0  0
  7 13  1  0  0  0  0
  7  8  1  0  0  0  0
  8  9  2  0  0  0  0
  9 10  1  0  0  0  0
  9 25  1  0  0  0  0
 10 11  2  0  0  0  0
 12 15  1  0  0  0  0
 12 10  1  0  0  0  0
 13 12  1  0  0  0  0
 14 13  2  0  0  0  0
 15 16  2  0  0  0  0
 16 17  1  0  0  0  0
 17 24  1  0  0  0  0
 18 17  1  0  0  0  0
 19 18  1  0  0  0  0
 20 19  2  0  0  0  0
 21 22  2  0  0  0  0
 21 20  1  0  0  0  0
 22 23  1  0  0  0  0
 23 15  1  0  0  0  0
 23 18  2  0  0  0  0
 25 26  1  0  0  0  0
 26 34  1  0  0  0  0
 27 26  1  0  0  0  0
 27 28  2  0  0  0  0
 28 29  1  0  0  0  0
 29 30  1  0  0  0  0
 30 31  2  0  0  0  0
 32 31  1  0  0  0  0
 33 32  2  0  0  0  0
 34 29  2  0  0  0  0
 34 33  1  0  0  0  0
 35 36  1  0  0  0  0
M  END
>  <minimizedAffinity>
-7.0768466

$$$$

 OpenBabel03242509583D

 37 40  0  0  0  0  0  0  0  0999 V2000
   51.5590   29.8290   42.5210 C   0  0  0  0  0  3  0  0  0  0  0  0
   52.3020   30.4450   41.5040 C   0  0  0  0  0  3  0  0  0  0  0  0
   51.7430   31.5560   40.8750 C   0  0  0  0  0  3  0  0  0  0  0  0
   50.5130   31.9790   41.2810 N   0  0  0  0  0  0  0  0  0  0  0  0
   49.8260   31.3670   42.2590 C   0  0  0  0  0  0  0  0  0  0  0  0
   50.3420   30.2920   42.8840 N   0  0  0  0  0  0  0  0  0  0  0  0
   48.5500   31.9020   42.5960 N   0  0  0  0  0  0  0  0  0  0  0  0
   48.0450   32.9900   42.0000 C   0  0  0  0  0  3  0  0  0  0  0  0
   46.8080   33.3780   42.4340 C   0  0  0  0  0  0  0  0  0  0  0  0
   46.0790   32.7340   43.4160 C   0  0  0  0  0  0  0  0  0  0  0  0
   44.9410   33.0960   43.8120 O   0  0  0  0  0  0  0  0  0  0  0  0
   46.6360   31.6410   43.9840 N   0  0  0  0  0  0  0  0  0  0  0  0
   47.8710   31.2320   43.5690 C   0  0  0  0  0  0  0  0  0  0  0  0
   48.3430   30.1990   44.1380 O   0  0  0  0  0  0  0  0  0  0  0  0
   45.9690   30.8930   45.0150 C   0  0  0  0  0  0  0  0  0  0  0  0
   45.1520   29.7870   45.0430 C   0  0  0  0  0  3  0  0  0  0  0  0
   44.8180   29.5310   46.3300 N   0  0  0  0  0  0  0  0  0  0  0  0
   45.4110   30.4620   47.1320 C   0  0  0  0  0  0  0  0  0  0  0  0
   45.3630   30.6060   48.4940 C   0  0  0  0  0  3  0  0  0  0  0  0
   46.0390   31.6240   49.1350 C   0  0  0  0  0  3  0  0  0  0  0  0
   46.7610   32.4860   48.3560 C   0  0  0  0  0  3  0  0  0  0  0  0
   46.7990   32.3280   46.9920 C   0  0  0  0  0  3  0  0  0  0  0  0
   46.1310   31.3180   46.3300 C   0  0  0  0  0  0  0  0  0  0  0  0
   44.1920   28.7190   46.5900 H   0  0  0  0  0  0  0  0  0  0  0  0
   46.1330   34.5600   41.8640 C   0  0  0  0  0  2  0  0  0  0  0  0
   45.2360   34.2030   40.7720 N   0  0  0  0  0  0  0  0  0  0  0  0
   45.5440   33.4760   39.6570 C   0  0  0  0  0  3  0  0  0  0  0  0
   44.4310   33.3590   38.8740 N   0  0  0  0  0  0  0  0  0  0  0  0
   43.4740   34.0100   39.5180 C   0  0  0  0  0  0  0  0  0  0  0  0
   42.1430   34.2660   39.2770 C   0  0  0  0  0  3  0  0  0  0  0  0
   41.3340   34.9750   40.0990 N   0  0  0  0  0  0  0  0  0  0  0  0
   41.8290   35.4880   41.2550 C   0  0  0  0  0  3  0  0  0  0  0  0
   43.1180   35.2430   41.4950 N   0  0  0  0  0  0  0  0  0  0  0  0
   43.9170   34.5430   40.6840 C   0  0  0  0  0  0  0  0  0  0  0  0
   41.4900   33.7960   38.1130 N   0  0  0  0  0  1  0  0  0  0  0  0
   41.0260   33.4250   37.2690 H   0  0  0  0  0  0  0  0  0  0  0  0
   41.3750   32.9280   37.5450 H   0  0  0  0  0 15  0  0  0  0  0  0
  1  6  1  0  0  0  0
  2  1  2  0  0  0  0
  3  4  2  0  0  0  0
  3  2  1  0  0  0  0
  4  5  1  0  0  0  0
  5  7  1  0  0  0  0
  5  6  2  0  0  0  0
  7 13  1  0  0  0  0
  8  9  2  0  0  0  0
  8  7  1  0  0  0  0
  9 10  1  0  0  0  0
 10 11  2  0  0  0  0
 10 12  1  0  0  0  0
 12 15  1  0  0  0  0
 13 12  1  0  0  0  0
 13 14  2  0  0  0  0
 15 16  2  0  0  0  0
 15 23  1  0  0  0  0
 16 17  1  0  0  0  0
 17 24  1  0  0  0  0
 17 18  1  0  0  0  0
 18 19  1  0  0  0  0
 19 20  2  0  0  0  0
 21 20  1  0  0  0  0
 22 21  2  0  0  0  0
 23 22  1  0  0  0  0
 23 18  2  0  0  0  0
 25  9  1  0  0  0  0
 26 25  1  0  0  0  0
 27 26  1  0  0  0  0
 28 29  1  0  0  0  0
 28 27  2  0  0  0  0
 29 34  1  0  0  0  0
 30 29  2  0  0  0  0
 30 31  1  0  0  0  0
 31 32  2  0  0  0  0
 32 33  1  0  0  0  0
 34 26  1  0  0  0  0
 34 33  2  0  0  0  0
 36 35  1  0  0  0  0
M  END
>  <minimizedAffinity>
-6.97877645

$$$$

 OpenBabel03242509583D

 37 40  0  0  0  0  0  0  0  0999 V2000
   45.8960   31.6420   35.5380 C   0  0  0  0  0  3  0  0  0  0  0  0
   47.2700   31.4430   35.3490 C   0  0  0  0  0  3  0  0  0  0  0  0
   48.1320   31.8670   36.3590 C   0  0  0  0  0  3  0  0  0  0  0  0
   47.5930   32.4470   37.4680 N   0  0  0  0  0  0  0  0  0  0  0  0
   46.2690   32.6230   37.6200 C   0  0  0  0  0  0  0  0  0  0  0  0
   45.4150   32.2230   36.6610 N   0  0  0  0  0  0  0  0  0  0  0  0
   45.8260   33.2410   38.8230 N   0  0  0  0  0  0  0  0  0  0  0  0
   46.6680   33.6120   39.7960 C   0  0  0  0  0  3  0  0  0  0  0  0
   46.0860   34.1930   40.8890 C   0  0  0  0  0  0  0  0  0  0  0  0
   44.7300   34.4100   41.0380 C   0  0  0  0  0  0  0  0  0  0  0  0
   44.2000   34.9440   42.0460 O   0  0  0  0  0  0  0  0  0  0  0  0
   43.9250   34.0160   40.0270 N   0  0  0  0  0  0  0  0  0  0  0  0
   44.4800   33.4320   38.9230 C   0  0  0  0  0  0  0  0  0  0  0  0
   43.6750   33.0830   38.0040 O   0  0  0  0  0  0  0  0  0  0  0  0
   42.4990   34.1900   40.0730 C   0  0  0  0  0  0  0  0  0  0  0  0
   41.6160   35.1310   39.5960 C   0  0  0  0  0  3  0  0  0  0  0  0
   40.3620   34.7650   39.9530 N   0  0  0  0  0  0  0  0  0  0  0  0
   40.4280   33.5970   40.6560 C   0  0  0  0  0  0  0  0  0  0  0  0
   39.4240   32.8510   41.2170 C   0  0  0  0  0  3  0  0  0  0  0  0
   39.6900   31.6820   41.9000 C   0  0  0  0  0  3  0  0  0  0  0  0
   40.9990   31.2940   41.9940 C   0  0  0  0  0  3  0  0  0  0  0  0
   41.9930   32.0530   41.4270 C   0  0  0  0  0  3  0  0  0  0  0  0
   41.7500   33.2250   40.7410 C   0  0  0  0  0  0  0  0  0  0  0  0
   39.5180   35.3460   39.6910 H   0  0  0  0  0  0  0  0  0  0  0  0
   46.8970   34.6500   42.0350 C   0  0  0  0  0  2  0  0  0  0  0  0
   47.1560   33.5740   42.9830 N   0  0  0  0  0  0  0  0  0  0  0  0
   47.9740   32.4940   42.8010 C   0  0  0  0  0  3  0  0  0  0  0  0
   47.9470   31.7160   43.9230 N   0  0  0  0  0  0  0  0  0  0  0  0
   47.1230   32.3270   44.7600 C   0  0  0  0  0  0  0  0  0  0  0  0
   46.6690   32.0720   46.0350 C   0  0  0  0  0  3  0  0  0  0  0  0
   45.8040   32.8590   46.7160 N   0  0  0  0  0  0  0  0  0  0  0  0
   45.3230   33.9900   46.1400 C   0  0  0  0  0  3  0  0  0  0  0  0
   45.7600   34.2440   44.9040 N   0  0  0  0  0  0  0  0  0  0  0  0
   46.6140   33.4680   44.2320 C   0  0  0  0  0  0  0  0  0  0  0  0
   47.0830   30.9300   46.7610 N   0  0  0  0  0  1  0  0  0  0  0  0
   47.4130   30.1030   47.2830 H   0  0  0  0  0  0  0  0  0  0  0  0
   47.9470   30.4020   47.0160 H   0  0  0  0  0 15  0  0  0  0  0  0
  1  6  1  0  0  0  0
  2  1  2  0  0  0  0
  2  3  1  0  0  0  0
  3  4  2  0  0  0  0
  4  5  1  0  0  0  0
  5  7  1  0  0  0  0
  6  5  2  0  0  0  0
  7 13  1  0  0  0  0
  7  8  1  0  0  0  0
  8  9  2  0  0  0  0
  9 10  1  0  0  0  0
  9 25  1  0  0  0  0
 10 11  2  0  0  0  0
 12 15  1  0  0  0  0
 12 10  1  0  0  0  0
 13 12  1  0  0  0  0
 14 13  2  0  0  0  0
 15 23  1  0  0  0  0
 16 17  1  0  0  0  0
 16 15  2  0  0  0  0
 17 18  1  0  0  0  0
 18 23  2  0  0  0  0
 18 19  1  0  0  0  0
 19 20  2  0  0  0  0
 20 21  1  0  0  0  0
 22 21  2  0  0  0  0
 23 22  1  0  0  0  0
 24 17  1  0  0  0  0
 25 26  1  0  0  0  0
 26 34  1  0  0  0  0
 27 26  1  0  0  0  0
 27 28  2  0  0  0  0
 28 29  1  0  0  0  0
 29 30  1  0  0  0  0
 30 31  2  0  0  0  0
 32 31  1  0  0  0  0
 33 32  2  0  0  0  0
 34 29  2  0  0  0  0
 34 33  1  0  0  0  0
 35 36  1  0  0  0  0
M  END
>  <minimizedAffinity>
-6.90251684

$$$$

 OpenBabel03242509583D

 37 40  0  0  0  0  0  0  0  0999 V2000
   47.0830   32.5790   36.7380 C   0  0  0  0  0  3  0  0  0  0  0  0
   48.4550   32.2980   36.6840 C   0  0  0  0  0  3  0  0  0  0  0  0
   49.1760   32.3600   37.8750 C   0  0  0  0  0  3  0  0  0  0  0  0
   48.5110   32.6890   39.0180 N   0  0  0  0  0  0  0  0  0  0  0  0
   47.1940   32.9530   39.0360 C   0  0  0  0  0  0  0  0  0  0  0  0
   46.4730   32.9000   37.9010 N   0  0  0  0  0  0  0  0  0  0  0  0
   46.6110   33.2850   40.2920 N   0  0  0  0  0  0  0  0  0  0  0  0
   47.3150   33.3080   41.4300 C   0  0  0  0  0  3  0  0  0  0  0  0
   46.6110   33.6460   42.5520 C   0  0  0  0  0  0  0  0  0  0  0  0
   45.2640   33.9530   42.5750 C   0  0  0  0  0  0  0  0  0  0  0  0
   44.6200   34.2630   43.6110 O   0  0  0  0  0  0  0  0  0  0  0  0
   44.6010   33.9150   41.3980 N   0  0  0  0  0  0  0  0  0  0  0  0
   45.2810   33.5790   40.2610 C   0  0  0  0  0  0  0  0  0  0  0  0
   44.6060   33.5600   39.1860 O   0  0  0  0  0  0  0  0  0  0  0  0
   43.1980   34.2150   41.3020 C   0  0  0  0  0  0  0  0  0  0  0  0
   42.4580   35.3490   41.0600 C   0  0  0  0  0  3  0  0  0  0  0  0
   41.1450   35.0210   41.0890 N   0  0  0  0  0  0  0  0  0  0  0  0
   41.0300   33.6860   41.3490 C   0  0  0  0  0  0  0  0  0  0  0  0
   39.9090   32.9090   41.4720 C   0  0  0  0  0  3  0  0  0  0  0  0
   39.9940   31.5570   41.7410 C   0  0  0  0  0  3  0  0  0  0  0  0
   41.2460   31.0230   41.8780 C   0  0  0  0  0  3  0  0  0  0  0  0
   42.3600   31.8160   41.7520 C   0  0  0  0  0  3  0  0  0  0  0  0
   42.2980   33.1690   41.4850 C   0  0  0  0  0  0  0  0  0  0  0  0
   40.3890   35.7430   40.9280 H   0  0  0  0  0  0  0  0  0  0  0  0
   47.2630   33.7100   43.8750 C   0  0  0  0  0  2  0  0  0  0  0  0
   47.1850   32.4400   44.5840 N   0  0  0  0  0  0  0  0  0  0  0  0
   47.7120   31.2420   44.1900 C   0  0  0  0  0  3  0  0  0  0  0  0
   47.4220   30.2930   45.1290 N   0  0  0  0  0  0  0  0  0  0  0  0
   46.7320   30.9200   46.0680 C   0  0  0  0  0  0  0  0  0  0  0  0
   46.1540   30.5470   47.2610 C   0  0  0  0  0  3  0  0  0  0  0  0
   45.4780   31.3820   48.0830 N   0  0  0  0  0  0  0  0  0  0  0  0
   45.3350   32.6900   47.7480 C   0  0  0  0  0  3  0  0  0  0  0  0
   45.8930   33.0590   46.5940 N   0  0  0  0  0  0  0  0  0  0  0  0
   46.5610   32.2350   45.7820 C   0  0  0  0  0  0  0  0  0  0  0  0
   46.2210   29.2170   47.7400 N   0  0  0  0  0  1  0  0  0  0  0  0
   46.3000   28.2470   48.0840 H   0  0  0  0  0  0  0  0  0  0  0  0
   46.9070   28.4440   47.8870 H   0  0  0  0  0 15  0  0  0  0  0  0
  1  6  1  0  0  0  0
  2  1  2  0  0  0  0
  2  3  1  0  0  0  0
  3  4  2  0  0  0  0
  4  5  1  0  0  0  0
  5  7  1  0  0  0  0
  6  5  2  0  0  0  0
  7  8  1  0  0  0  0
  8  9  2  0  0  0  0
  9 10  1  0  0  0  0
  9 25  1  0  0  0  0
 10 11  2  0  0  0  0
 12 10  1  0  0  0  0
 13  7  1  0  0  0  0
 13 12  1  0  0  0  0
 14 13  2  0  0  0  0
 15 12  1  0  0  0  0
 15 23  1  0  0  0  0
 16 17  1  0  0  0  0
 16 15  2  0  0  0  0
 17 18  1  0  0  0  0
 18 19  2  0  0  0  0
 18 23  1  0  0  0  0
 19 20  1  0  0  0  0
 20 21  2  0  0  0  0
 22 21  1  0  0  0  0
 23 22  2  0  0  0  0
 24 17  1  0  0  0  0
 25 26  1  0  0  0  0
 26 34  1  0  0  0  0
 27 26  1  0  0  0  0
 27 28  2  0  0  0  0
 28 29  1  0  0  0  0
 29 30  1  0  0  0  0
 30 31  2  0  0  0  0
 32 31  1  0  0  0  0
 33 32  2  0  0  0  0
 34 29  2  0  0  0  0
 34 33  1  0  0  0  0
 35 36  1  0  0  0  0
M  END
>  <minimizedAffinity>
-6.76968718

$$$$

 OpenBabel03242509583D

 37 40  0  0  0  0  0  0  0  0999 V2000
   41.2730   31.6080   39.7490 C   0  0  0  0  0  3  0  0  0  0  0  0
   41.3340   31.2880   38.3860 C   0  0  0  0  0  3  0  0  0  0  0  0
   42.5020   31.6080   37.6970 C   0  0  0  0  0  3  0  0  0  0  0  0
   43.5140   32.2090   38.3820 N   0  0  0  0  0  0  0  0  0  0  0  0
   43.4250   32.5040   39.6900 C   0  0  0  0  0  0  0  0  0  0  0  0
   42.3090   32.2060   40.3800 N   0  0  0  0  0  0  0  0  0  0  0  0
   44.5490   33.1330   40.2960 N   0  0  0  0  0  0  0  0  0  0  0  0
   45.6740   33.4030   39.6230 C   0  0  0  0  0  3  0  0  0  0  0  0
   46.6620   34.0100   40.3460 C   0  0  0  0  0  0  0  0  0  0  0  0
   46.5670   34.3480   41.6830 C   0  0  0  0  0  0  0  0  0  0  0  0
   47.4800   34.9070   42.3450 O   0  0  0  0  0  0  0  0  0  0  0  0
   45.4090   34.0530   42.3150 N   0  0  0  0  0  0  0  0  0  0  0  0
   44.4050   33.4460   41.6150 C   0  0  0  0  0  0  0  0  0  0  0  0
   43.3400   33.1940   42.2600 O   0  0  0  0  0  0  0  0  0  0  0  0
   45.1970   34.3580   43.7040 C   0  0  0  0  0  0  0  0  0  0  0  0
   44.6440   35.4080   44.3980 C   0  0  0  0  0  3  0  0  0  0  0  0
   44.7230   35.1380   45.7230 N   0  0  0  0  0  0  0  0  0  0  0  0
   45.3220   33.9230   45.8890 C   0  0  0  0  0  0  0  0  0  0  0  0
   45.6140   33.2390   47.0400 C   0  0  0  0  0  3  0  0  0  0  0  0
   46.2310   32.0050   47.0070 C   0  0  0  0  0  3  0  0  0  0  0  0
   46.5400   31.4900   45.7780 C   0  0  0  0  0  3  0  0  0  0  0  0
   46.2400   32.1890   44.6340 C   0  0  0  0  0  3  0  0  0  0  0  0
   45.6240   33.4240   44.6430 C   0  0  0  0  0  0  0  0  0  0  0  0
   44.3550   35.8130   46.4490 H   0  0  0  0  0  0  0  0  0  0  0  0
   47.9560   34.3640   39.7290 C   0  0  0  0  0  2  0  0  0  0  0  0
   48.6820   33.1870   39.2710 N   0  0  0  0  0  0  0  0  0  0  0  0
   49.3160   32.2560   40.0440 C   0  0  0  0  0  3  0  0  0  0  0  0
   49.8780   31.3080   39.2370 N   0  0  0  0  0  0  0  0  0  0  0  0
   49.5810   31.6730   38.0000 C   0  0  0  0  0  0  0  0  0  0  0  0
   49.8400   31.1610   36.7480 C   0  0  0  0  0  3  0  0  0  0  0  0
   49.4250   31.7180   35.5870 N   0  0  0  0  0  0  0  0  0  0  0  0
   48.6960   32.8640   35.6110 C   0  0  0  0  0  3  0  0  0  0  0  0
   48.4400   33.3650   36.8210 N   0  0  0  0  0  0  0  0  0  0  0  0
   48.8500   32.8150   37.9670 C   0  0  0  0  0  0  0  0  0  0  0  0
   50.5880   29.9740   36.5660 N   0  0  0  0  0  1  0  0  0  0  0  0
   51.1170   29.0940   36.4550 H   0  0  0  0  0  0  0  0  0  0  0  0
   50.6530   28.9960   36.9260 H   0  0  0  0  0 15  0  0  0  0  0  0
  1  6  1  0  0  0  0
  2  1  2  0  0  0  0
  3  4  2  0  0  0  0
  3  2  1  0  0  0  0
  4  5  1  0  0  0  0
  5  7  1  0  0  0  0
  5  6  2  0  0  0  0
  7 13  1  0  0  0  0
  8  7  1  0  0  0  0
  8  9  2  0  0  0  0
  9 10  1  0  0  0  0
 10 12  1  0  0  0  0
 10 11  2  0  0  0  0
 12 15  1  0  0  0  0
 13 14  2  0  0  0  0
 13 12  1  0  0  0  0
 15 16  2  0  0  0  0
 15 23  1  0  0  0  0
 16 17  1  0  0  0  0
 17 18  1  0  0  0  0
 17 24  1  0  0  0  0
 18 19  1  0  0  0  0
 20 19  2  0  0  0  0
 21 20  1  0  0  0  0
 22 23  1  0  0  0  0
 22 21  2  0  0  0  0
 23 18  2  0  0  0  0
 25  9  1  0  0  0  0
 26 25  1  0  0  0  0
 26 27  1  0  0  0  0
 28 27  2  0  0  0  0
 29 28  1  0  0  0  0
 30 29  2  0  0  0  0
 31 32  2  0  0  0  0
 31 30  1  0  0  0  0
 32 33  1  0  0  0  0
 33 34  2  0  0  0  0
 34 29  1  0  0  0  0
 34 26  1  0  0  0  0
 36 35  1  0  0  0  0
M  END
>  <minimizedAffinity>
-6.76753473

$$$$

 OpenBabel03242509583D

 37 40  0  0  0  0  0  0  0  0999 V2000
   46.4330   32.0470   36.2720 C   0  0  0  0  0  3  0  0  0  0  0  0
   47.8240   31.8780   36.2400 C   0  0  0  0  0  3  0  0  0  0  0  0
   48.5520   32.2900   37.3550 C   0  0  0  0  0  3  0  0  0  0  0  0
   47.8750   32.8290   38.4070 N   0  0  0  0  0  0  0  0  0  0  0  0
   46.5400   32.9780   38.4070 C   0  0  0  0  0  0  0  0  0  0  0  0
   45.8120   32.5890   37.3440 N   0  0  0  0  0  0  0  0  0  0  0  0
   45.9450   33.5550   39.5650 N   0  0  0  0  0  0  0  0  0  0  0  0
   46.6600   33.9140   40.6390 C   0  0  0  0  0  3  0  0  0  0  0  0
   45.9430   34.4540   41.6700 C   0  0  0  0  0  0  0  0  0  0  0  0
   44.5740   34.6430   41.6650 C   0  0  0  0  0  0  0  0  0  0  0  0
   43.9180   35.1400   42.6170 O   0  0  0  0  0  0  0  0  0  0  0  0
   43.9010   34.2620   40.5560 N   0  0  0  0  0  0  0  0  0  0  0  0
   44.5940   33.7190   39.5100 C   0  0  0  0  0  0  0  0  0  0  0  0
   43.9090   33.3810   38.4960 O   0  0  0  0  0  0  0  0  0  0  0  0
   42.4760   34.4100   40.4390 C   0  0  0  0  0  0  0  0  0  0  0  0
   41.6330   35.3880   39.9650 C   0  0  0  0  0  3  0  0  0  0  0  0
   40.3550   34.9650   40.1130 N   0  0  0  0  0  0  0  0  0  0  0  0
   40.3660   33.7230   40.6790 C   0  0  0  0  0  0  0  0  0  0  0  0
   39.3220   32.9020   41.0160 C   0  0  0  0  0  3  0  0  0  0  0  0
   39.5340   31.6640   41.5880 C   0  0  0  0  0  3  0  0  0  0  0  0
   40.8310   31.2860   41.8040 C   0  0  0  0  0  3  0  0  0  0  0  0
   41.8660   32.1210   41.4600 C   0  0  0  0  0  3  0  0  0  0  0  0
   41.6780   33.3620   40.8890 C   0  0  0  0  0  0  0  0  0  0  0  0
   39.5350   35.5610   39.8140 H   0  0  0  0  0  0  0  0  0  0  0  0
   46.6040   34.8940   42.9140 C   0  0  0  0  0  2  0  0  0  0  0  0
   46.5560   33.8690   43.9490 N   0  0  0  0  0  0  0  0  0  0  0  0
   45.8170   33.8920   45.0990 C   0  0  0  0  0  3  0  0  0  0  0  0
   46.0490   32.7460   45.8050 N   0  0  0  0  0  0  0  0  0  0  0  0
   46.9150   32.0520   45.0830 C   0  0  0  0  0  0  0  0  0  0  0  0
   47.5430   30.8350   45.2260 C   0  0  0  0  0  3  0  0  0  0  0  0
   48.4160   30.3100   44.3350 N   0  0  0  0  0  0  0  0  0  0  0  0
   48.7230   30.9970   43.2050 C   0  0  0  0  0  3  0  0  0  0  0  0
   48.1180   32.1770   43.0590 N   0  0  0  0  0  0  0  0  0  0  0  0
   47.2550   32.6960   43.9390 C   0  0  0  0  0  0  0  0  0  0  0  0
   47.3210   30.0070   46.3520 N   0  0  0  0  0  1  0  0  0  0  0  0
   47.1290   29.4070   47.1700 H   0  0  0  0  0  0  0  0  0  0  0  0
   46.5430   29.6180   46.9290 H   0  0  0  0  0 15  0  0  0  0  0  0
  1  6  1  0  0  0  0
  2  1  2  0  0  0  0
  2  3  1  0  0  0  0
  3  4  2  0  0  0  0
  4  5  1  0  0  0  0
  5  7  1  0  0  0  0
  6  5  2  0  0  0  0
  7  8  1  0  0  0  0
  8  9  2  0  0  0  0
  9 25  1  0  0  0  0
 10  9  1  0  0  0  0
 10 11  2  0  0  0  0
 12 10  1  0  0  0  0
 13  7  1  0  0  0  0
 13 12  1  0  0  0  0
 14 13  2  0  0  0  0
 15 12  1  0  0  0  0
 15 23  1  0  0  0  0
 16 17  1  0  0  0  0
 16 15  2  0  0  0  0
 17 18  1  0  0  0  0
 18 23  2  0  0  0  0
 18 19  1  0  0  0  0
 19 20  2  0  0  0  0
 20 21  1  0  0  0  0
 22 21  2  0  0  0  0
 23 22  1  0  0  0  0
 24 17  1  0  0  0  0
 25 26  1  0  0  0  0
 26 27  1  0  0  0  0
 27 28  2  0  0  0  0
 29 30  1  0  0  0  0
 29 28  1  0  0  0  0
 31 30  2  0  0  0  0
 32 31  1  0  0  0  0
 33 32  2  0  0  0  0
 33 34  1  0  0  0  0
 34 26  1  0  0  0  0
 34 29  2  0  0  0  0
 35 36  1  0  0  0  0
M  END
>  <minimizedAffinity>
-6.72129631

$$$$
