
 OpenBabel03242510013D

 38 41  0  0  0  0  0  0  0  0999 V2000
   44.9130   34.6240   41.6420 C   0  0  0  0  0  0  0  0  0  0  0  0
   45.3440   33.7680   40.6990 N   0  0  0  0  0  0  0  0  0  0  0  0
   44.4750   33.6890   39.7440 O   0  0  0  0  0  0  0  0  0  0  0  0
   43.4620   34.4640   40.0050 C   0  0  0  0  0  0  0  0  0  0  0  0
   43.7060   35.0700   41.1980 N   0  0  0  0  0  0  0  0  0  0  0  0
   42.2580   34.6650   39.1770 C   0  0  0  0  0  0  0  0  0  0  0  0
   42.1340   35.6540   38.2290 C   0  0  0  0  0  3  0  0  0  0  0  0
   40.9560   35.7720   37.4860 C   0  0  0  0  0  3  0  0  0  0  0  0
   39.8980   34.8950   37.6960 C   0  0  0  0  0  3  0  0  0  0  0  0
   40.0270   33.9080   38.6460 C   0  0  0  0  0  3  0  0  0  0  0  0
   41.1930   33.8090   39.3640 C   0  0  0  0  0  0  0  0  0  0  0  0
   41.2000   32.7470   40.3160 N   0  0  0  0  0  0  0  0  0  0  0  0
   41.7370   31.5160   40.2220 C   0  0  0  0  0  3  0  0  0  0  0  0
   41.6080   30.6590   41.2910 C   0  0  0  0  0  3  0  0  0  0  0  0
   40.9570   30.9960   42.4600 C   0  0  0  0  0  0  0  0  0  0  0  0
   40.8460   30.0800   43.5430 N   0  0  0  0  0  0  0  0  0  0  0  0
   40.4290   32.2540   42.5090 N   0  0  0  0  0  0  0  0  0  0  0  0
   40.5520   33.0950   41.4680 C   0  0  0  0  0  0  0  0  0  0  0  0
   40.0050   34.2270   41.6750 O   0  0  0  0  0  0  0  0  0  0  0  0
   40.3550   30.3570   44.4050 H   0  0  0  0  0  0  0  0  0  0  0  0
   41.2570   29.1390   43.4650 H   0  0  0  0  0  0  0  0  0  0  0  0
   45.3090   35.1520   42.8540 O   0  0  0  0  0  0  0  0  0  0  0  0
   45.1960   33.8480   46.2480 C   0  0  0  0  0  0  0  0  0  0  0  0
   46.0560   32.7460   46.1290 C   0  0  0  0  0  0  0  0  0  0  0  0
   46.6480   32.4820   44.8900 C   0  0  0  0  0  0  0  0  0  0  0  0
   46.3490   33.3280   43.8530 N   0  0  0  0  0  0  0  0  0  0  0  0
   45.5210   34.3840   43.9850 C   0  0  0  0  0  0  0  0  0  0  0  0
   44.9370   34.6500   45.1870 N   0  0  0  0  0  0  0  0  0  0  0  0
   47.5040   31.4040   44.7240 N   0  0  0  0  0  0  0  0  0  0  0  0
   47.9310   31.2240   43.8050 H   0  0  0  0  0  0  0  0  0  0  0  0
   47.7110   30.7830   45.5190 H   0  0  0  0  0  0  0  0  0  0  0  0
   46.2550   31.9600   47.3440 C   0  0  0  0  0  0  0  0  0  0  0  0
   46.4750   30.4710   47.0320 C   0  0  0  0  0  1  0  0  0  0  0  0
   45.2080   32.0440   48.3920 C   0  0  0  0  0  1  0  0  0  0  0  0
   47.5430   32.4680   47.9830 C   0  0  0  0  0  1  0  0  0  0  0  0
   44.5740   34.1550   47.4500 N   0  0  0  0  0  0  0  0  0  0  0  0
   43.9460   34.9690   47.5110 H   0  0  0  0  0  0  0  0  0  0  0  0
   44.7390   33.5680   48.2800 H   0  0  0  0  0  0  0  0  0  0  0  0
  1 22  1  0  0  0  0
  2  1  2  0  0  0  0
  3  4  1  0  0  0  0
  3  2  1  0  0  0  0
  4  5  2  0  0  0  0
  5  1  1  0  0  0  0
  6 11  1  0  0  0  0
  6  4  1  0  0  0  0
  7  6  2  0  0  0  0
  8  9  2  0  0  0  0
  8  7  1  0  0  0  0
  9 10  1  0  0  0  0
 10 11  2  0  0  0  0
 11 12  1  0  0  0  0
 12 18  1  0  0  0  0
 13 12  1  0  0  0  0
 13 14  2  0  0  0  0
 14 15  1  0  0  0  0
 15 17  2  0  0  0  0
 15 16  1  0  0  0  0
 16 20  1  0  0  0  0
 18 19  2  0  0  0  0
 18 17  1  0  0  0  0
 21 16  1  0  0  0  0
 22 27  1  0  0  0  0
 23 36  1  0  0  0  0
 24 23  1  0  0  0  0
 24 32  1  0  0  0  0
 25 24  2  0  0  0  0
 26 27  2  0  0  0  0
 26 25  1  0  0  0  0
 27 28  1  0  0  0  0
 28 23  2  0  0  0  0
 29 25  1  0  0  0  0
 29 31  1  0  0  0  0
 30 29  1  0  0  0  0
 32 35  1  0  0  0  0
 32 34  1  0  0  0  0
 33 32  1  0  0  0  0
 36 37  1  0  0  0  0
 36 38  1  0  0  0  0
M  END
>  <minimizedAffinity>
-7.90374279

$$$$

 OpenBabel03242510013D

 38 41  0  0  0  0  0  0  0  0999 V2000
   44.8310   34.6220   41.6690 C   0  0  0  0  0  0  0  0  0  0  0  0
   45.3310   33.8730   40.6710 N   0  0  0  0  0  0  0  0  0  0  0  0
   44.4670   33.7850   39.7110 O   0  0  0  0  0  0  0  0  0  0  0  0
   43.3930   34.4500   40.0220 C   0  0  0  0  0  0  0  0  0  0  0  0
   43.5890   34.9930   41.2540 N   0  0  0  0  0  0  0  0  0  0  0  0
   42.1730   34.6040   39.2070 C   0  0  0  0  0  0  0  0  0  0  0  0
   42.0030   35.5820   38.2550 C   0  0  0  0  0  3  0  0  0  0  0  0
   40.8130   35.6540   37.5260 C   0  0  0  0  0  3  0  0  0  0  0  0
   39.7890   34.7410   37.7530 C   0  0  0  0  0  3  0  0  0  0  0  0
   39.9650   33.7650   38.7080 C   0  0  0  0  0  3  0  0  0  0  0  0
   41.1420   33.7120   39.4120 C   0  0  0  0  0  0  0  0  0  0  0  0
   41.1980   32.6560   40.3700 N   0  0  0  0  0  0  0  0  0  0  0  0
   41.8000   31.4560   40.2870 C   0  0  0  0  0  3  0  0  0  0  0  0
   41.7090   30.5980   41.3590 C   0  0  0  0  0  3  0  0  0  0  0  0
   41.0300   30.9060   42.5220 C   0  0  0  0  0  0  0  0  0  0  0  0
   40.9600   29.9900   43.6090 N   0  0  0  0  0  0  0  0  0  0  0  0
   40.4360   32.1340   42.5590 N   0  0  0  0  0  0  0  0  0  0  0  0
   40.5230   32.9750   41.5140 C   0  0  0  0  0  0  0  0  0  0  0  0
   39.9140   34.0770   41.7110 O   0  0  0  0  0  0  0  0  0  0  0  0
   40.4480   30.2460   44.4650 H   0  0  0  0  0  0  0  0  0  0  0  0
   41.4210   29.0720   43.5390 H   0  0  0  0  0  0  0  0  0  0  0  0
   45.1850   35.0990   42.9150 O   0  0  0  0  0  0  0  0  0  0  0  0
   46.6010   32.4520   44.9700 C   0  0  0  0  0  0  0  0  0  0  0  0
   46.0170   32.7490   46.2100 C   0  0  0  0  0  0  0  0  0  0  0  0
   45.1570   33.8480   46.3060 C   0  0  0  0  0  0  0  0  0  0  0  0
   44.9330   34.5770   45.1670 N   0  0  0  0  0  0  0  0  0  0  0  0
   45.5010   34.2760   43.9820 C   0  0  0  0  0  0  0  0  0  0  0  0
   46.3420   33.2080   43.8760 N   0  0  0  0  0  0  0  0  0  0  0  0
   44.5580   34.1820   47.5110 N   0  0  0  0  0  0  0  0  0  0  0  0
   43.9270   34.9940   47.5640 H   0  0  0  0  0  0  0  0  0  0  0  0
   44.7440   33.6180   48.3530 H   0  0  0  0  0  0  0  0  0  0  0  0
   46.3740   31.8580   47.3110 C   0  0  0  0  0  0  0  0  0  0  0  0
   47.5770   32.3890   48.1090 C   0  0  0  0  0  1  0  0  0  0  0  0
   46.6520   30.4390   46.9810 C   0  0  0  0  0  1  0  0  0  0  0  0
   45.1850   31.8510   48.2660 C   0  0  0  0  0  1  0  0  0  0  0  0
   47.4680   31.3790   44.8160 N   0  0  0  0  0  0  0  0  0  0  0  0
   47.8830   31.1820   43.8950 H   0  0  0  0  0  0  0  0  0  0  0  0
   47.6950   30.7810   45.6220 H   0  0  0  0  0  0  0  0  0  0  0  0
  1 22  1  0  0  0  0
  2  1  2  0  0  0  0
  3  4  1  0  0  0  0
  3  2  1  0  0  0  0
  4  5  2  0  0  0  0
  5  1  1  0  0  0  0
  6 11  1  0  0  0  0
  6  4  1  0  0  0  0
  7  6  2  0  0  0  0
  8  9  2  0  0  0  0
  8  7  1  0  0  0  0
  9 10  1  0  0  0  0
 10 11  2  0  0  0  0
 11 12  1  0  0  0  0
 12 18  1  0  0  0  0
 13 12  1  0  0  0  0
 13 14  2  0  0  0  0
 14 15  1  0  0  0  0
 15 17  2  0  0  0  0
 15 16  1  0  0  0  0
 16 20  1  0  0  0  0
 18 19  2  0  0  0  0
 18 17  1  0  0  0  0
 21 16  1  0  0  0  0
 22 27  1  0  0  0  0
 23 24  1  0  0  0  0
 24 25  2  0  0  0  0
 24 32  1  0  0  0  0
 25 29  1  0  0  0  0
 26 25  1  0  0  0  0
 27 26  2  0  0  0  0
 28 27  1  0  0  0  0
 28 23  2  0  0  0  0
 29 30  1  0  0  0  0
 29 31  1  0  0  0  0
 32 33  1  0  0  0  0
 32 35  1  0  0  0  0
 34 32  1  0  0  0  0
 36 23  1  0  0  0  0
 36 38  1  0  0  0  0
 37 36  1  0  0  0  0
M  END
>  <minimizedAffinity>
-7.88156462

$$$$

 OpenBabel03242510013D

 38 41  0  0  0  0  0  0  0  0999 V2000
   44.7720   35.5440   44.3980 C   0  0  0  0  0  0  0  0  0  0  0  0
   44.9800   36.6350   43.6410 N   0  0  0  0  0  0  0  0  0  0  0  0
   44.9360   36.3160   42.3880 O   0  0  0  0  0  0  0  0  0  0  0  0
   44.7040   35.0410   42.2650 C   0  0  0  0  0  0  0  0  0  0  0  0
   44.5950   34.5220   43.5180 N   0  0  0  0  0  0  0  0  0  0  0  0
   44.5780   34.2750   41.0110 C   0  0  0  0  0  0  0  0  0  0  0  0
   43.3790   33.9900   40.4010 C   0  0  0  0  0  3  0  0  0  0  0  0
   43.3510   33.2580   39.2110 C   0  0  0  0  0  3  0  0  0  0  0  0
   44.5320   32.8100   38.6300 C   0  0  0  0  0  3  0  0  0  0  0  0
   45.7290   33.0980   39.2450 C   0  0  0  0  0  3  0  0  0  0  0  0
   45.7340   33.8190   40.4130 C   0  0  0  0  0  0  0  0  0  0  0  0
   47.0360   34.0490   40.9480 N   0  0  0  0  0  0  0  0  0  0  0  0
   47.8760   35.0800   40.7430 C   0  0  0  0  0  3  0  0  0  0  0  0
   49.0950   35.0720   41.3820 C   0  0  0  0  0  3  0  0  0  0  0  0
   49.5040   34.0590   42.2250 C   0  0  0  0  0  0  0  0  0  0  0  0
   50.7740   34.0890   42.8660 N   0  0  0  0  0  0  0  0  0  0  0  0
   48.6190   33.0350   42.4010 N   0  0  0  0  0  0  0  0  0  0  0  0
   47.4270   33.0380   41.7810 C   0  0  0  0  0  0  0  0  0  0  0  0
   46.7220   32.0120   42.0520 O   0  0  0  0  0  0  0  0  0  0  0  0
   51.0530   33.3200   43.4920 H   0  0  0  0  0  0  0  0  0  0  0  0
   51.4130   34.8800   42.7050 H   0  0  0  0  0  0  0  0  0  0  0  0
   44.6890   35.1780   45.7270 O   0  0  0  0  0  0  0  0  0  0  0  0
   45.4930   32.3540   47.8750 C   0  0  0  0  0  0  0  0  0  0  0  0
   46.3910   31.6550   47.0560 C   0  0  0  0  0  0  0  0  0  0  0  0
   46.6950   32.1700   45.7920 C   0  0  0  0  0  0  0  0  0  0  0  0
   46.0880   33.3440   45.4250 N   0  0  0  0  0  0  0  0  0  0  0  0
   45.2270   34.0050   46.2260 C   0  0  0  0  0  0  0  0  0  0  0  0
   44.9230   33.5110   47.4600 N   0  0  0  0  0  0  0  0  0  0  0  0
   47.5750   31.5140   44.9460 N   0  0  0  0  0  0  0  0  0  0  0  0
   47.7870   31.9080   44.0190 H   0  0  0  0  0  0  0  0  0  0  0  0
   48.0170   30.6330   45.2450 H   0  0  0  0  0  0  0  0  0  0  0  0
   46.9380   30.4220   47.6180 C   0  0  0  0  0  0  0  0  0  0  0  0
   47.7800   30.6920   48.8760 C   0  0  0  0  0  1  0  0  0  0  0  0
   47.7460   29.5600   46.7200 C   0  0  0  0  0  1  0  0  0  0  0  0
   45.7450   29.5820   48.0620 C   0  0  0  0  0  1  0  0  0  0  0  0
   45.1480   31.8870   49.1360 N   0  0  0  0  0  0  0  0  0  0  0  0
   44.4860   32.4190   49.7180 H   0  0  0  0  0  0  0  0  0  0  0  0
   45.5550   31.0100   49.4890 H   0  0  0  0  0  0  0  0  0  0  0  0
  1 22  1  0  0  0  0
  2  1  2  0  0  0  0
  3  2  1  0  0  0  0
  4  3  1  0  0  0  0
  4  5  2  0  0  0  0
  5  1  1  0  0  0  0
  6  4  1  0  0  0  0
  7  6  2  0  0  0  0
  8  7  1  0  0  0  0
  9  8  2  0  0  0  0
  9 10  1  0  0  0  0
 10 11  2  0  0  0  0
 11 12  1  0  0  0  0
 11  6  1  0  0  0  0
 12 18  1  0  0  0  0
 13 12  1  0  0  0  0
 13 14  2  0  0  0  0
 14 15  1  0  0  0  0
 15 17  2  0  0  0  0
 15 16  1  0  0  0  0
 16 20  1  0  0  0  0
 18 19  2  0  0  0  0
 18 17  1  0  0  0  0
 21 16  1  0  0  0  0
 22 27  1  0  0  0  0
 23 36  1  0  0  0  0
 24 32  1  0  0  0  0
 24 23  2  0  0  0  0
 25 24  1  0  0  0  0
 26 25  2  0  0  0  0
 26 27  1  0  0  0  0
 27 28  2  0  0  0  0
 28 23  1  0  0  0  0
 29 31  1  0  0  0  0
 29 25  1  0  0  0  0
 30 29  1  0  0  0  0
 32 35  1  0  0  0  0
 32 33  1  0  0  0  0
 34 32  1  0  0  0  0
 36 38  1  0  0  0  0
 36 37  1  0  0  0  0
M  END
>  <minimizedAffinity>
-7.31418085

$$$$

 OpenBabel03242510013D

 38 41  0  0  0  0  0  0  0  0999 V2000
   45.4570   34.5640   42.1630 C   0  0  0  0  0  0  0  0  0  0  0  0
   45.5880   34.1820   40.8810 N   0  0  0  0  0  0  0  0  0  0  0  0
   44.4330   34.1920   40.2970 O   0  0  0  0  0  0  0  0  0  0  0  0
   43.5160   34.5690   41.1410 C   0  0  0  0  0  0  0  0  0  0  0  0
   44.1290   34.8130   42.3300 N   0  0  0  0  0  0  0  0  0  0  0  0
   42.0720   34.7140   40.8800 C   0  0  0  0  0  0  0  0  0  0  0  0
   41.4300   35.9240   40.7610 C   0  0  0  0  0  3  0  0  0  0  0  0
   40.0550   35.9700   40.5130 C   0  0  0  0  0  3  0  0  0  0  0  0
   39.3220   34.7960   40.3830 C   0  0  0  0  0  3  0  0  0  0  0  0
   39.9700   33.5870   40.5030 C   0  0  0  0  0  3  0  0  0  0  0  0
   41.3210   33.5650   40.7470 C   0  0  0  0  0  0  0  0  0  0  0  0
   41.8700   32.2530   40.8510 N   0  0  0  0  0  0  0  0  0  0  0  0
   42.1070   31.5090   41.9470 C   0  0  0  0  0  3  0  0  0  0  0  0
   42.6520   30.2550   41.7850 C   0  0  0  0  0  3  0  0  0  0  0  0
   42.9690   29.7190   40.5530 C   0  0  0  0  0  0  0  0  0  0  0  0
   43.5320   28.4170   40.4290 N   0  0  0  0  0  0  0  0  0  0  0  0
   42.7110   30.5110   39.4730 N   0  0  0  0  0  0  0  0  0  0  0  0
   42.1790   31.7350   39.6250 C   0  0  0  0  0  0  0  0  0  0  0  0
   42.0010   32.3420   38.5190 O   0  0  0  0  0  0  0  0  0  0  0  0
   43.7580   28.0410   39.4980 H   0  0  0  0  0  0  0  0  0  0  0  0
   43.7120   27.8520   41.2710 H   0  0  0  0  0  0  0  0  0  0  0  0
   46.2260   34.7680   43.2910 O   0  0  0  0  0  0  0  0  0  0  0  0
   45.4310   33.3760   46.5570 C   0  0  0  0  0  0  0  0  0  0  0  0
   46.1920   32.1980   46.5260 C   0  0  0  0  0  0  0  0  0  0  0  0
   46.9540   31.9150   45.3880 C   0  0  0  0  0  0  0  0  0  0  0  0
   46.9110   32.8190   44.3570 N   0  0  0  0  0  0  0  0  0  0  0  0
   46.1750   33.9470   44.4040 C   0  0  0  0  0  0  0  0  0  0  0  0
   45.4280   34.2330   45.5070 N   0  0  0  0  0  0  0  0  0  0  0  0
   47.7210   30.7630   45.3110 N   0  0  0  0  0  0  0  0  0  0  0  0
   48.2760   30.5700   44.4660 H   0  0  0  0  0  0  0  0  0  0  0  0
   47.7350   30.1000   46.0990 H   0  0  0  0  0  0  0  0  0  0  0  0
   46.1130   31.3590   47.7190 C   0  0  0  0  0  0  0  0  0  0  0  0
   45.1030   30.2120   47.5450 C   0  0  0  0  0  1  0  0  0  0  0  0
   45.8080   32.0280   49.0080 C   0  0  0  0  0  1  0  0  0  0  0  0
   47.4840   30.7120   47.8850 C   0  0  0  0  0  1  0  0  0  0  0  0
   44.6510   33.7060   47.6550 N   0  0  0  0  0  0  0  0  0  0  0  0
   44.1010   34.5760   47.6530 H   0  0  0  0  0  0  0  0  0  0  0  0
   44.6210   33.0800   48.4730 H   0  0  0  0  0  0  0  0  0  0  0  0
  1  5  1  0  0  0  0
  1 22  1  0  0  0  0
  2  1  2  0  0  0  0
  3  2  1  0  0  0  0
  3  4  1  0  0  0  0
  4  5  2  0  0  0  0
  6  4  1  0  0  0  0
  7  6  1  0  0  0  0
  8  7  2  0  0  0  0
  9 10  2  0  0  0  0
  9  8  1  0  0  0  0
 10 11  1  0  0  0  0
 11 12  1  0  0  0  0
 11  6  2  0  0  0  0
 12 13  1  0  0  0  0
 14 13  2  0  0  0  0
 15 14  1  0  0  0  0
 16 15  1  0  0  0  0
 16 21  1  0  0  0  0
 17 18  1  0  0  0  0
 17 15  2  0  0  0  0
 18 12  1  0  0  0  0
 19 18  2  0  0  0  0
 20 16  1  0  0  0  0
 22 27  1  0  0  0  0
 23 36  1  0  0  0  0
 24 23  1  0  0  0  0
 24 32  1  0  0  0  0
 25 24  2  0  0  0  0
 26 27  2  0  0  0  0
 26 25  1  0  0  0  0
 27 28  1  0  0  0  0
 28 23  2  0  0  0  0
 29 25  1  0  0  0  0
 29 31  1  0  0  0  0
 30 29  1  0  0  0  0
 32 35  1  0  0  0  0
 32 34  1  0  0  0  0
 33 32  1  0  0  0  0
 36 38  1  0  0  0  0
 37 36  1  0  0  0  0
M  END
>  <minimizedAffinity>
-7.12149477

$$$$

 OpenBabel03242510013D

 38 41  0  0  0  0  0  0  0  0999 V2000
   46.3580   34.2290   42.5180 C   0  0  0  0  0  0  0  0  0  0  0  0
   45.3770   35.0860   42.1830 N   0  0  0  0  0  0  0  0  0  0  0  0
   44.9240   34.7990   41.0060 O   0  0  0  0  0  0  0  0  0  0  0  0
   45.5650   33.7730   40.5250 C   0  0  0  0  0  0  0  0  0  0  0  0
   46.4790   33.3870   41.4560 N   0  0  0  0  0  0  0  0  0  0  0  0
   45.3580   33.1270   39.2150 C   0  0  0  0  0  0  0  0  0  0  0  0
   46.3230   33.0410   38.2390 C   0  0  0  0  0  3  0  0  0  0  0  0
   46.0410   32.4090   37.0250 C   0  0  0  0  0  3  0  0  0  0  0  0
   44.7850   31.8610   36.7890 C   0  0  0  0  0  3  0  0  0  0  0  0
   43.8230   31.9500   37.7690 C   0  0  0  0  0  3  0  0  0  0  0  0
   44.1210   32.5750   38.9550 C   0  0  0  0  0  0  0  0  0  0  0  0
   43.0400   32.6010   39.8850 N   0  0  0  0  0  0  0  0  0  0  0  0
   42.7700   31.7690   40.9070 C   0  0  0  0  0  3  0  0  0  0  0  0
   41.6500   32.0060   41.6700 C   0  0  0  0  0  3  0  0  0  0  0  0
   40.7850   33.0580   41.4430 C   0  0  0  0  0  0  0  0  0  0  0  0
   39.6360   33.2690   42.2560 N   0  0  0  0  0  0  0  0  0  0  0  0
   41.1000   33.8740   40.3950 N   0  0  0  0  0  0  0  0  0  0  0  0
   42.1930   33.6470   39.6470 C   0  0  0  0  0  0  0  0  0  0  0  0
   42.3420   34.4990   38.7120 O   0  0  0  0  0  0  0  0  0  0  0  0
   39.0080   34.0620   42.0650 H   0  0  0  0  0  0  0  0  0  0  0  0
   39.4340   32.6280   43.0360 H   0  0  0  0  0  0  0  0  0  0  0  0
   47.2250   33.9680   43.5600 O   0  0  0  0  0  0  0  0  0  0  0  0
   45.7300   32.9150   46.7050 C   0  0  0  0  0  0  0  0  0  0  0  0
   46.2760   31.6300   46.8320 C   0  0  0  0  0  0  0  0  0  0  0  0
   47.1400   31.1610   45.8360 C   0  0  0  0  0  0  0  0  0  0  0  0
   47.4040   31.9980   44.7820 N   0  0  0  0  0  0  0  0  0  0  0  0
   46.8710   33.2320   44.6770 C   0  0  0  0  0  0  0  0  0  0  0  0
   46.0270   33.6990   45.6400 N   0  0  0  0  0  0  0  0  0  0  0  0
   47.7030   29.8970   45.9170 N   0  0  0  0  0  0  0  0  0  0  0  0
   48.3360   29.5670   45.1760 H   0  0  0  0  0  0  0  0  0  0  0  0
   47.4870   29.2870   46.7190 H   0  0  0  0  0  0  0  0  0  0  0  0
   45.8790   30.8840   48.0240 C   0  0  0  0  0  0  0  0  0  0  0  0
   45.4270   29.4560   47.6810 C   0  0  0  0  0  1  0  0  0  0  0  0
   44.8350   31.4850   48.8900 C   0  0  0  0  0  1  0  0  0  0  0  0
   47.1300   30.7510   48.8870 C   0  0  0  0  0  1  0  0  0  0  0  0
   44.8620   33.4300   47.6560 N   0  0  0  0  0  0  0  0  0  0  0  0
   44.4740   34.3770   47.5400 H   0  0  0  0  0  0  0  0  0  0  0  0
   44.6050   32.8660   48.4790 H   0  0  0  0  0  0  0  0  0  0  0  0
  1 22  1  0  0  0  0
  2  1  2  0  0  0  0
  3  2  1  0  0  0  0
  4  3  1  0  0  0  0
  4  5  2  0  0  0  0
  5  1  1  0  0  0  0
  6  4  1  0  0  0  0
  7  6  2  0  0  0  0
  8  7  1  0  0  0  0
  9  8  2  0  0  0  0
  9 10  1  0  0  0  0
 10 11  2  0  0  0  0
 11  6  1  0  0  0  0
 11 12  1  0  0  0  0
 12 13  1  0  0  0  0
 13 14  2  0  0  0  0
 15 14  1  0  0  0  0
 15 16  1  0  0  0  0
 16 21  1  0  0  0  0
 17 15  2  0  0  0  0
 18 12  1  0  0  0  0
 18 17  1  0  0  0  0
 19 18  2  0  0  0  0
 20 16  1  0  0  0  0
 22 27  1  0  0  0  0
 23 24  1  0  0  0  0
 23 36  1  0  0  0  0
 24 32  1  0  0  0  0
 25 29  1  0  0  0  0
 25 24  2  0  0  0  0
 26 25  1  0  0  0  0
 27 26  2  0  0  0  0
 27 28  1  0  0  0  0
 28 23  2  0  0  0  0
 29 31  1  0  0  0  0
 30 29  1  0  0  0  0
 32 35  1  0  0  0  0
 32 34  1  0  0  0  0
 33 32  1  0  0  0  0
 36 38  1  0  0  0  0
 37 36  1  0  0  0  0
M  END
>  <minimizedAffinity>
-7.09308338

$$$$

 OpenBabel03242510013D

 38 41  0  0  0  0  0  0  0  0999 V2000
   47.0430   34.9410   42.1750 C   0  0  0  0  0  0  0  0  0  0  0  0
   48.2300   35.5510   42.0130 N   0  0  0  0  0  0  0  0  0  0  0  0
   48.7820   35.1540   40.9120 O   0  0  0  0  0  0  0  0  0  0  0  0
   48.0090   34.2930   40.3160 C   0  0  0  0  0  0  0  0  0  0  0  0
   46.9010   34.1340   41.0880 N   0  0  0  0  0  0  0  0  0  0  0  0
   48.2650   33.6000   39.0400 C   0  0  0  0  0  0  0  0  0  0  0  0
   47.8070   34.0410   37.8200 C   0  0  0  0  0  3  0  0  0  0  0  0
   48.0970   33.3220   36.6570 C   0  0  0  0  0  3  0  0  0  0  0  0
   48.8510   32.1550   36.7190 C   0  0  0  0  0  3  0  0  0  0  0  0
   49.3070   31.7180   37.9420 C   0  0  0  0  0  3  0  0  0  0  0  0
   49.0110   32.4400   39.0710 C   0  0  0  0  0  0  0  0  0  0  0  0
   49.5400   31.8810   40.2720 N   0  0  0  0  0  0  0  0  0  0  0  0
   50.7340   32.0860   40.8580 C   0  0  0  0  0  3  0  0  0  0  0  0
   51.0150   31.4200   42.0290 C   0  0  0  0  0  3  0  0  0  0  0  0
   50.1330   30.5500   42.6380 C   0  0  0  0  0  0  0  0  0  0  0  0
   50.4630   29.8810   43.8500 N   0  0  0  0  0  0  0  0  0  0  0  0
   48.9360   30.3740   42.0070 N   0  0  0  0  0  0  0  0  0  0  0  0
   48.6570   31.0230   40.8640 C   0  0  0  0  0  0  0  0  0  0  0  0
   47.5000   30.7480   40.4050 O   0  0  0  0  0  0  0  0  0  0  0  0
   49.7860   29.2370   44.2830 H   0  0  0  0  0  0  0  0  0  0  0  0
   51.3790   30.0400   44.2930 H   0  0  0  0  0  0  0  0  0  0  0  0
   45.9890   34.8960   43.0650 O   0  0  0  0  0  0  0  0  0  0  0  0
   45.3600   33.6120   46.4100 C   0  0  0  0  0  0  0  0  0  0  0  0
   46.0980   32.4200   46.3710 C   0  0  0  0  0  0  0  0  0  0  0  0
   46.7880   32.0910   45.2000 C   0  0  0  0  0  0  0  0  0  0  0  0
   46.7010   32.9660   44.1470 N   0  0  0  0  0  0  0  0  0  0  0  0
   45.9880   34.1080   44.2020 C   0  0  0  0  0  0  0  0  0  0  0  0
   45.3100   34.4390   45.3380 N   0  0  0  0  0  0  0  0  0  0  0  0
   47.5300   30.9230   45.1130 N   0  0  0  0  0  0  0  0  0  0  0  0
   48.0320   30.6960   44.2440 H   0  0  0  0  0  0  0  0  0  0  0  0
   47.5780   30.2820   45.9180 H   0  0  0  0  0  0  0  0  0  0  0  0
   46.0730   31.6160   47.5910 C   0  0  0  0  0  0  0  0  0  0  0  0
   45.1730   30.3790   47.4410 C   0  0  0  0  0  1  0  0  0  0  0  0
   45.6870   32.2970   48.8510 C   0  0  0  0  0  1  0  0  0  0  0  0
   47.4940   31.1010   47.7980 C   0  0  0  0  0  1  0  0  0  0  0  0
   44.6490   33.9870   47.5410 N   0  0  0  0  0  0  0  0  0  0  0  0
   44.1140   34.8670   47.5440 H   0  0  0  0  0  0  0  0  0  0  0  0
   44.6560   33.3850   48.3770 H   0  0  0  0  0  0  0  0  0  0  0  0
  1 22  1  0  0  0  0
  2  1  2  0  0  0  0
  3  2  1  0  0  0  0
  4  3  1  0  0  0  0
  4  5  2  0  0  0  0
  5  1  1  0  0  0  0
  6 11  1  0  0  0  0
  6  4  1  0  0  0  0
  7  6  2  0  0  0  0
  8  9  2  0  0  0  0
  8  7  1  0  0  0  0
  9 10  1  0  0  0  0
 10 11  2  0  0  0  0
 11 12  1  0  0  0  0
 12 13  1  0  0  0  0
 12 18  1  0  0  0  0
 13 14  2  0  0  0  0
 14 15  1  0  0  0  0
 15 16  1  0  0  0  0
 16 20  1  0  0  0  0
 16 21  1  0  0  0  0
 17 15  2  0  0  0  0
 18 17  1  0  0  0  0
 19 18  2  0  0  0  0
 22 27  1  0  0  0  0
 23 36  1  0  0  0  0
 24 23  1  0  0  0  0
 24 32  1  0  0  0  0
 25 24  2  0  0  0  0
 26 27  2  0  0  0  0
 26 25  1  0  0  0  0
 27 28  1  0  0  0  0
 28 23  2  0  0  0  0
 29 25  1  0  0  0  0
 29 31  1  0  0  0  0
 30 29  1  0  0  0  0
 32 35  1  0  0  0  0
 32 34  1  0  0  0  0
 33 32  1  0  0  0  0
 36 37  1  0  0  0  0
 36 38  1  0  0  0  0
M  END
>  <minimizedAffinity>
-6.91333532

$$$$

 OpenBabel03242510013D

 38 41  0  0  0  0  0  0  0  0999 V2000
   47.1280   34.9980   42.1570 C   0  0  0  0  0  0  0  0  0  0  0  0
   48.2890   35.6360   41.9310 N   0  0  0  0  0  0  0  0  0  0  0  0
   48.8080   35.2250   40.8190 O   0  0  0  0  0  0  0  0  0  0  0  0
   48.0380   34.3260   40.2780 C   0  0  0  0  0  0  0  0  0  0  0  0
   46.9660   34.1580   41.0980 N   0  0  0  0  0  0  0  0  0  0  0  0
   48.2620   33.6060   39.0110 C   0  0  0  0  0  0  0  0  0  0  0  0
   47.8170   34.0470   37.7870 C   0  0  0  0  0  3  0  0  0  0  0  0
   48.0750   33.3010   36.6340 C   0  0  0  0  0  3  0  0  0  0  0  0
   48.7850   32.1070   36.7090 C   0  0  0  0  0  3  0  0  0  0  0  0
   49.2290   31.6710   37.9370 C   0  0  0  0  0  3  0  0  0  0  0  0
   48.9640   32.4190   39.0570 C   0  0  0  0  0  0  0  0  0  0  0  0
   49.4760   31.8580   40.2640 N   0  0  0  0  0  0  0  0  0  0  0  0
   50.6740   32.0380   40.8510 C   0  0  0  0  0  3  0  0  0  0  0  0
   50.9360   31.3760   42.0290 C   0  0  0  0  0  3  0  0  0  0  0  0
   50.0300   30.5340   42.6430 C   0  0  0  0  0  0  0  0  0  0  0  0
   50.3410   29.8670   43.8620 N   0  0  0  0  0  0  0  0  0  0  0  0
   48.8310   30.3830   42.0110 N   0  0  0  0  0  0  0  0  0  0  0  0
   48.5700   31.0280   40.8610 C   0  0  0  0  0  0  0  0  0  0  0  0
   47.4080   30.7780   40.4020 O   0  0  0  0  0  0  0  0  0  0  0  0
   49.6460   29.2450   44.2990 H   0  0  0  0  0  0  0  0  0  0  0  0
   51.2590   30.0080   44.3060 H   0  0  0  0  0  0  0  0  0  0  0  0
   46.1110   34.9480   43.0900 O   0  0  0  0  0  0  0  0  0  0  0  0
   46.7450   32.1110   45.2770 C   0  0  0  0  0  0  0  0  0  0  0  0
   46.0030   32.4860   46.4060 C   0  0  0  0  0  0  0  0  0  0  0  0
   45.3090   33.7000   46.3860 C   0  0  0  0  0  0  0  0  0  0  0  0
   45.3960   34.4600   45.2480 N   0  0  0  0  0  0  0  0  0  0  0  0
   46.1130   34.0830   44.1690 C   0  0  0  0  0  0  0  0  0  0  0  0
   46.7940   32.9030   44.1780 N   0  0  0  0  0  0  0  0  0  0  0  0
   44.5640   34.1140   47.4790 N   0  0  0  0  0  0  0  0  0  0  0  0
   44.0590   35.0100   47.4480 H   0  0  0  0  0  0  0  0  0  0  0  0
   44.5160   33.5250   48.3230 H   0  0  0  0  0  0  0  0  0  0  0  0
   46.0290   31.5470   47.5250 C   0  0  0  0  0  0  0  0  0  0  0  0
   46.1380   30.0900   47.0450 C   0  0  0  0  0  1  0  0  0  0  0  0
   44.9100   31.6110   48.4970 C   0  0  0  0  0  1  0  0  0  0  0  0
   47.3000   31.8450   48.3120 C   0  0  0  0  0  1  0  0  0  0  0  0
   47.4600   30.9220   45.2410 N   0  0  0  0  0  0  0  0  0  0  0  0
   47.9970   30.6690   44.4000 H   0  0  0  0  0  0  0  0  0  0  0  0
   47.4530   30.2930   46.0560 H   0  0  0  0  0  0  0  0  0  0  0  0
  1 22  1  0  0  0  0
  2  1  2  0  0  0  0
  3  2  1  0  0  0  0
  4  3  1  0  0  0  0
  4  5  2  0  0  0  0
  5  1  1  0  0  0  0
  6 11  1  0  0  0  0
  6  4  1  0  0  0  0
  7  6  2  0  0  0  0
  8  9  2  0  0  0  0
  8  7  1  0  0  0  0
  9 10  1  0  0  0  0
 10 11  2  0  0  0  0
 11 12  1  0  0  0  0
 12 13  1  0  0  0  0
 12 18  1  0  0  0  0
 13 14  2  0  0  0  0
 14 15  1  0  0  0  0
 15 16  1  0  0  0  0
 16 20  1  0  0  0  0
 16 21  1  0  0  0  0
 17 15  2  0  0  0  0
 18 17  1  0  0  0  0
 19 18  2  0  0  0  0
 22 27  1  0  0  0  0
 23 24  1  0  0  0  0
 24 32  1  0  0  0  0
 25 24  2  0  0  0  0
 25 29  1  0  0  0  0
 26 25  1  0  0  0  0
 27 28  1  0  0  0  0
 27 26  2  0  0  0  0
 28 23  2  0  0  0  0
 29 31  1  0  0  0  0
 30 29  1  0  0  0  0
 32 35  1  0  0  0  0
 32 34  1  0  0  0  0
 33 32  1  0  0  0  0
 36 23  1  0  0  0  0
 36 38  1  0  0  0  0
 37 36  1  0  0  0  0
M  END
>  <minimizedAffinity>
-6.89781857

$$$$

 OpenBabel03242510013D

 38 41  0  0  0  0  0  0  0  0999 V2000
   45.1620   30.2940   41.8240 C   0  0  0  0  0  0  0  0  0  0  0  0
   45.6210   29.7480   42.9640 N   0  0  0  0  0  0  0  0  0  0  0  0
   46.7830   30.2390   43.2510 O   0  0  0  0  0  0  0  0  0  0  0  0
   47.1330   31.1030   42.3430 C   0  0  0  0  0  0  0  0  0  0  0  0
   46.1310   31.1630   41.4250 N   0  0  0  0  0  0  0  0  0  0  0  0
   48.3820   31.8870   42.2940 C   0  0  0  0  0  0  0  0  0  0  0  0
   49.5600   31.4250   41.7560 C   0  0  0  0  0  3  0  0  0  0  0  0
   50.6970   32.2370   41.7500 C   0  0  0  0  0  3  0  0  0  0  0  0
   50.6530   33.5180   42.2870 C   0  0  0  0  0  3  0  0  0  0  0  0
   49.4710   33.9760   42.8250 C   0  0  0  0  0  3  0  0  0  0  0  0
   48.3650   33.1620   42.8200 C   0  0  0  0  0  0  0  0  0  0  0  0
   47.2070   33.7530   43.4070 N   0  0  0  0  0  0  0  0  0  0  0  0
   46.7060   33.6060   44.6460 C   0  0  0  0  0  3  0  0  0  0  0  0
   45.5590   34.2910   44.9780 C   0  0  0  0  0  3  0  0  0  0  0  0
   44.8940   35.1260   44.1030 C   0  0  0  0  0  0  0  0  0  0  0  0
   43.7100   35.8170   44.4850 N   0  0  0  0  0  0  0  0  0  0  0  0
   45.4390   35.2420   42.8570 N   0  0  0  0  0  0  0  0  0  0  0  0
   46.5590   34.5760   42.5290 C   0  0  0  0  0  0  0  0  0  0  0  0
   46.9360   34.7940   41.3310 O   0  0  0  0  0  0  0  0  0  0  0  0
   43.2340   36.4340   43.8120 H   0  0  0  0  0  0  0  0  0  0  0  0
   43.3300   35.6990   45.4350 H   0  0  0  0  0  0  0  0  0  0  0  0
   44.0640   30.2380   40.9900 O   0  0  0  0  0  0  0  0  0  0  0  0
   42.4220   33.4850   40.9350 C   0  0  0  0  0  0  0  0  0  0  0  0
   41.9270   33.5000   39.6240 C   0  0  0  0  0  0  0  0  0  0  0  0
   42.1700   32.3990   38.7960 C   0  0  0  0  0  0  0  0  0  0  0  0
   42.8870   31.3560   39.3250 N   0  0  0  0  0  0  0  0  0  0  0  0
   43.3550   31.3580   40.5900 C   0  0  0  0  0  0  0  0  0  0  0  0
   43.1250   32.4250   41.4050 N   0  0  0  0  0  0  0  0  0  0  0  0
   41.7020   32.3690   37.4920 N   0  0  0  0  0  0  0  0  0  0  0  0
   41.8890   31.5510   36.8960 H   0  0  0  0  0  0  0  0  0  0  0  0
   41.1660   33.1660   37.1180 H   0  0  0  0  0  0  0  0  0  0  0  0
   41.1840   34.6970   39.2380 C   0  0  0  0  0  0  0  0  0  0  0  0
   41.9770   35.5680   38.2490 C   0  0  0  0  0  1  0  0  0  0  0  0
   40.7050   35.5850   40.3260 C   0  0  0  0  0  1  0  0  0  0  0  0
   39.9410   34.2160   38.4970 C   0  0  0  0  0  1  0  0  0  0  0  0
   42.2190   34.5510   41.7990 N   0  0  0  0  0  0  0  0  0  0  0  0
   42.5930   34.5160   42.7580 H   0  0  0  0  0  0  0  0  0  0  0  0
   41.6940   35.3780   41.4820 H   0  0  0  0  0  0  0  0  0  0  0  0
  1  2  2  0  0  0  0
  2  3  1  0  0  0  0
  4  3  1  0  0  0  0
  5  1  1  0  0  0  0
  5  4  2  0  0  0  0
  6  4  1  0  0  0  0
  6 11  1  0  0  0  0
  7  6  2  0  0  0  0
  8  7  1  0  0  0  0
  8  9  2  0  0  0  0
  9 10  1  0  0  0  0
 11 10  2  0  0  0  0
 11 12  1  0  0  0  0
 12 13  1  0  0  0  0
 13 14  2  0  0  0  0
 15 16  1  0  0  0  0
 15 14  1  0  0  0  0
 16 21  1  0  0  0  0
 17 15  2  0  0  0  0
 18 17  1  0  0  0  0
 18 12  1  0  0  0  0
 19 18  2  0  0  0  0
 20 16  1  0  0  0  0
 22  1  1  0  0  0  0
 23 28  1  0  0  0  0
 23 36  1  0  0  0  0
 24 23  2  0  0  0  0
 25 26  2  0  0  0  0
 25 24  1  0  0  0  0
 26 27  1  0  0  0  0
 27 22  1  0  0  0  0
 27 28  2  0  0  0  0
 29 25  1  0  0  0  0
 30 29  1  0  0  0  0
 31 29  1  0  0  0  0
 32 24  1  0  0  0  0
 32 34  1  0  0  0  0
 33 32  1  0  0  0  0
 35 32  1  0  0  0  0
 36 37  1  0  0  0  0
 38 36  1  0  0  0  0
M  END
>  <minimizedAffinity>
-6.85135555

$$$$

 OpenBabel03242510013D

 38 41  0  0  0  0  0  0  0  0999 V2000
   46.6010   34.5310   42.1810 C   0  0  0  0  0  0  0  0  0  0  0  0
   47.5490   35.4630   41.9830 N   0  0  0  0  0  0  0  0  0  0  0  0
   48.6450   34.8990   41.5890 O   0  0  0  0  0  0  0  0  0  0  0  0
   48.4760   33.6110   41.5130 C   0  0  0  0  0  0  0  0  0  0  0  0
   47.1940   33.3440   41.8800 N   0  0  0  0  0  0  0  0  0  0  0  0
   49.4730   32.6040   41.1050 C   0  0  0  0  0  0  0  0  0  0  0  0
   50.4280   32.0840   41.9470 C   0  0  0  0  0  3  0  0  0  0  0  0
   51.3360   31.1300   41.4770 C   0  0  0  0  0  3  0  0  0  0  0  0
   51.2850   30.6970   40.1560 C   0  0  0  0  0  3  0  0  0  0  0  0
   50.3270   31.2220   39.3180 C   0  0  0  0  0  3  0  0  0  0  0  0
   49.4450   32.1570   39.8000 C   0  0  0  0  0  0  0  0  0  0  0  0
   48.5060   32.6210   38.8330 N   0  0  0  0  0  0  0  0  0  0  0  0
   48.5910   33.6650   37.9880 C   0  0  0  0  0  3  0  0  0  0  0  0
   47.5370   33.9130   37.1390 C   0  0  0  0  0  3  0  0  0  0  0  0
   46.3910   33.1430   37.1080 C   0  0  0  0  0  0  0  0  0  0  0  0
   45.3220   33.4330   36.2140 N   0  0  0  0  0  0  0  0  0  0  0  0
   46.3500   32.0970   37.9830 N   0  0  0  0  0  0  0  0  0  0  0  0
   47.3770   31.8510   38.8140 C   0  0  0  0  0  0  0  0  0  0  0  0
   47.1800   30.8400   39.5640 O   0  0  0  0  0  0  0  0  0  0  0  0
   44.4790   32.8430   36.2110 H   0  0  0  0  0  0  0  0  0  0  0  0
   45.3930   34.2340   35.5710 H   0  0  0  0  0  0  0  0  0  0  0  0
   45.2820   34.4300   42.5760 O   0  0  0  0  0  0  0  0  0  0  0  0
   43.0840   33.7370   39.7600 C   0  0  0  0  0  0  0  0  0  0  0  0
   42.0280   34.6170   40.0360 C   0  0  0  0  0  0  0  0  0  0  0  0
   42.0980   35.4210   41.1780 C   0  0  0  0  0  0  0  0  0  0  0  0
   43.2120   35.2990   41.9700 N   0  0  0  0  0  0  0  0  0  0  0  0
   44.2200   34.4480   41.6890 C   0  0  0  0  0  0  0  0  0  0  0  0
   44.1610   33.6590   40.5790 N   0  0  0  0  0  0  0  0  0  0  0  0
   41.0780   36.3040   41.4940 N   0  0  0  0  0  0  0  0  0  0  0  0
   41.1460   36.8890   42.3380 H   0  0  0  0  0  0  0  0  0  0  0  0
   40.2510   36.3760   40.8830 H   0  0  0  0  0  0  0  0  0  0  0  0
   40.9260   34.6080   39.0770 C   0  0  0  0  0  0  0  0  0  0  0  0
   39.5800   34.9250   39.7510 C   0  0  0  0  0  1  0  0  0  0  0  0
   40.7360   33.3820   38.2630 C   0  0  0  0  0  1  0  0  0  0  0  0
   41.1990   35.7400   38.0920 C   0  0  0  0  0  1  0  0  0  0  0  0
   43.0660   32.9100   38.6470 N   0  0  0  0  0  0  0  0  0  0  0  0
   43.8540   32.2720   38.4660 H   0  0  0  0  0  0  0  0  0  0  0  0
   42.2650   32.9330   38.0000 H   0  0  0  0  0  0  0  0  0  0  0  0
  1 22  1  0  0  0  0
  2  1  2  0  0  0  0
  3  2  1  0  0  0  0
  4  3  1  0  0  0  0
  4  5  2  0  0  0  0
  5  1  1  0  0  0  0
  6  4  1  0  0  0  0
  6  7  1  0  0  0  0
  8  7  2  0  0  0  0
  9  8  1  0  0  0  0
 10 11  1  0  0  0  0
 10  9  2  0  0  0  0
 11  6  2  0  0  0  0
 12 11  1  0  0  0  0
 13 12  1  0  0  0  0
 14 13  2  0  0  0  0
 15 14  1  0  0  0  0
 15 17  2  0  0  0  0
 16 15  1  0  0  0  0
 17 18  1  0  0  0  0
 18 12  1  0  0  0  0
 18 19  2  0  0  0  0
 20 16  1  0  0  0  0
 21 16  1  0  0  0  0
 23 24  2  0  0  0  0
 23 28  1  0  0  0  0
 24 25  1  0  0  0  0
 25 29  1  0  0  0  0
 25 26  2  0  0  0  0
 27 26  1  0  0  0  0
 27 22  1  0  0  0  0
 28 27  2  0  0  0  0
 29 30  1  0  0  0  0
 31 29  1  0  0  0  0
 32 33  1  0  0  0  0
 32 24  1  0  0  0  0
 34 32  1  0  0  0  0
 35 32  1  0  0  0  0
 36 23  1  0  0  0  0
 37 36  1  0  0  0  0
 38 36  1  0  0  0  0
M  END
>  <minimizedAffinity>
-6.80698633

$$$$
