
 OpenBabel03242509573D

 35 40  0  0  0  0  0  0  0  0999 V2000
   47.6560   31.2000   37.4860 C   0  0  0  0  0  3  0  0  0  0  0  0
   49.0280   31.4140   37.7370 C   0  0  0  0  0  3  0  0  0  0  0  0
   49.3620   32.2900   38.7590 C   0  0  0  0  0  3  0  0  0  0  0  0
   48.3560   32.8880   39.4540 N   0  0  0  0  0  0  0  0  0  0  0  0
   47.0620   32.6650   39.1920 C   0  0  0  0  0  0  0  0  0  0  0  0
   46.7050   31.8280   38.2160 N   0  0  0  0  0  0  0  0  0  0  0  0
   46.1010   33.3570   39.9930 N   0  0  0  0  0  0  0  0  0  0  0  0
   46.4610   34.1770   40.9930 C   0  0  0  0  0  3  0  0  0  0  0  0
   45.4060   34.7540   41.6500 C   0  0  0  0  0  0  0  0  0  0  0  0
   44.0840   34.5570   41.3670 C   0  0  0  0  0  0  0  0  0  0  0  0
   43.1390   35.1010   41.9890 O   0  0  0  0  0  0  0  0  0  0  0  0
   43.7770   33.7210   40.3500 N   0  0  0  0  0  0  0  0  0  0  0  0
   44.7990   33.1190   39.6610 C   0  0  0  0  0  0  0  0  0  0  0  0
   44.4640   32.3460   38.7180 O   0  0  0  0  0  0  0  0  0  0  0  0
   42.4240   33.4400   39.9600 C   0  0  0  0  0  0  0  0  0  0  0  0
   41.5000   32.4750   40.2770 C   0  0  0  0  0  3  0  0  0  0  0  0
   40.3640   32.7260   39.5790 N   0  0  0  0  0  0  0  0  0  0  0  0
   40.5540   33.8290   38.8270 C   0  0  0  0  0  0  0  0  0  0  0  0
   39.6960   34.4650   37.9600 C   0  0  0  0  0  3  0  0  0  0  0  0
   40.0800   35.6160   37.2590 C   0  0  0  0  0  3  0  0  0  0  0  0
   41.3440   36.0770   37.4760 C   0  0  0  0  0  3  0  0  0  0  0  0
   42.1860   35.4300   38.3430 C   0  0  0  0  0  3  0  0  0  0  0  0
   41.8260   34.2930   39.0440 C   0  0  0  0  0  0  0  0  0  0  0  0
   39.4990   32.1670   39.6180 H   0  0  0  0  0  0  0  0  0  0  0  0
   45.6620   35.7040   42.7670 C   0  0  0  0  0  2  0  0  0  0  0  0
   45.4210   35.1210   44.0880 C   0  0  0  0  0  0  0  0  0  0  0  0
   44.5420   35.6400   45.0430 C   0  0  0  0  0  3  0  0  0  0  0  0
   44.5140   34.8910   46.1870 N   0  0  0  0  0  0  0  0  0  0  0  0
   45.3800   33.8820   45.9750 C   0  0  0  0  0  0  0  0  0  0  0  0
   45.6950   32.8610   46.8490 C   0  0  0  0  0  3  0  0  0  0  0  0
   46.6260   31.9380   46.3820 C   0  0  0  0  0  3  0  0  0  0  0  0
   47.1930   32.0360   45.1360 C   0  0  0  0  0  3  0  0  0  0  0  0
   46.8560   33.0790   44.2710 C   0  0  0  0  0  3  0  0  0  0  0  0
   45.9310   34.0080   44.7170 C   0  0  0  0  0  0  0  0  0  0  0  0
   43.9510   35.0620   47.0310 H   0  0  0  0  0  0  0  0  0  0  0  0
  1  2  2  0  0  0  0
  1  6  1  0  0  0  0
  2  3  1  0  0  0  0
  3  4  2  0  0  0  0
  5  4  1  0  0  0  0
  5  7  1  0  0  0  0
  6  5  2  0  0  0  0
  7  8  1  0  0  0  0
  8  9  2  0  0  0  0
  9 25  1  0  0  0  0
 10  9  1  0  0  0  0
 10 11  2  0  0  0  0
 12 10  1  0  0  0  0
 13  7  1  0  0  0  0
 13 12  1  0  0  0  0
 14 13  2  0  0  0  0
 15 16  2  0  0  0  0
 15 12  1  0  0  0  0
 17 24  1  0  0  0  0
 17 16  1  0  0  0  0
 18 23  1  0  0  0  0
 18 17  1  0  0  0  0
 19 18  2  0  0  0  0
 20 21  2  0  0  0  0
 20 19  1  0  0  0  0
 21 22  1  0  0  0  0
 22 23  2  0  0  0  0
 23 15  1  0  0  0  0
 25 26  1  0  0  0  0
 26 34  1  0  0  0  0
 26 27  2  0  0  0  0
 27 28  1  0  0  0  0
 28 35  1  0  0  0  0
 29 28  1  0  0  0  0
 29 30  1  0  0  0  0
 31 30  2  0  0  0  0
 32 31  1  0  0  0  0
 33 34  1  0  0  0  0
 33 32  2  0  0  0  0
 34 29  2  0  0  0  0
M  END
>  <minimizedAffinity>
-8.25370407

$$$$

 OpenBabel03242509573D

 35 40  0  0  0  0  0  0  0  0999 V2000
   40.1920   33.9630   38.6910 C   0  0  0  0  0  3  0  0  0  0  0  0
   39.3750   34.9020   39.3550 C   0  0  0  0  0  3  0  0  0  0  0  0
   39.9450   35.6240   40.3940 C   0  0  0  0  0  3  0  0  0  0  0  0
   41.2470   35.3880   40.7090 N   0  0  0  0  0  0  0  0  0  0  0  0
   41.9970   34.4880   40.0590 C   0  0  0  0  0  0  0  0  0  0  0  0
   41.4820   33.7760   39.0550 N   0  0  0  0  0  0  0  0  0  0  0  0
   43.3530   34.3310   40.4880 N   0  0  0  0  0  0  0  0  0  0  0  0
   43.8790   35.0690   41.4790 C   0  0  0  0  0  3  0  0  0  0  0  0
   45.1900   34.7810   41.7530 C   0  0  0  0  0  0  0  0  0  0  0  0
   45.9520   33.8420   41.1180 C   0  0  0  0  0  0  0  0  0  0  0  0
   47.1540   33.6010   41.3940 O   0  0  0  0  0  0  0  0  0  0  0  0
   45.3730   33.1280   40.1270 N   0  0  0  0  0  0  0  0  0  0  0  0
   44.0620   33.3800   39.8140 C   0  0  0  0  0  0  0  0  0  0  0  0
   43.5610   32.6880   38.8820 O   0  0  0  0  0  0  0  0  0  0  0  0
   46.0740   32.1140   39.3910 C   0  0  0  0  0  0  0  0  0  0  0  0
   46.1250   30.7420   39.4290 C   0  0  0  0  0  3  0  0  0  0  0  0
   46.9860   30.3200   38.4700 N   0  0  0  0  0  0  0  0  0  0  0  0
   47.4810   31.3980   37.8280 C   0  0  0  0  0  0  0  0  0  0  0  0
   48.3810   31.4720   36.7920 C   0  0  0  0  0  3  0  0  0  0  0  0
   48.7790   32.7010   36.2500 C   0  0  0  0  0  3  0  0  0  0  0  0
   48.2320   33.8220   36.7990 C   0  0  0  0  0  3  0  0  0  0  0  0
   47.3360   33.7310   37.8330 C   0  0  0  0  0  3  0  0  0  0  0  0
   46.9310   32.5260   38.3810 C   0  0  0  0  0  0  0  0  0  0  0  0
   47.2220   29.3380   38.2650 H   0  0  0  0  0  0  0  0  0  0  0  0
   45.8920   35.5080   42.8460 C   0  0  0  0  0  2  0  0  0  0  0  0
   45.4850   35.0750   44.1830 C   0  0  0  0  0  0  0  0  0  0  0  0
   44.5430   35.7280   44.9840 C   0  0  0  0  0  3  0  0  0  0  0  0
   44.3580   35.1020   46.1850 N   0  0  0  0  0  0  0  0  0  0  0  0
   45.1830   34.0390   46.1660 C   0  0  0  0  0  0  0  0  0  0  0  0
   45.3500   33.1000   47.1630 C   0  0  0  0  0  3  0  0  0  0  0  0
   46.2710   32.0930   46.8900 C   0  0  0  0  0  3  0  0  0  0  0  0
   46.9670   32.0370   45.7090 C   0  0  0  0  0  3  0  0  0  0  0  0
   46.7790   33.0010   44.7160 C   0  0  0  0  0  3  0  0  0  0  0  0
   45.8650   34.0110   44.9690 C   0  0  0  0  0  0  0  0  0  0  0  0
   43.7210   35.3830   46.9440 H   0  0  0  0  0  0  0  0  0  0  0  0
  1  6  2  0  0  0  0
  1  2  1  0  0  0  0
  2  3  2  0  0  0  0
  3  4  1  0  0  0  0
  5  7  1  0  0  0  0
  5  4  2  0  0  0  0
  6  5  1  0  0  0  0
  7  8  1  0  0  0  0
  8  9  2  0  0  0  0
  9 25  1  0  0  0  0
 10 11  2  0  0  0  0
 10  9  1  0  0  0  0
 12 10  1  0  0  0  0
 13 12  1  0  0  0  0
 13  7  1  0  0  0  0
 14 13  2  0  0  0  0
 15 16  2  0  0  0  0
 15 12  1  0  0  0  0
 17 16  1  0  0  0  0
 18 23  1  0  0  0  0
 18 17  1  0  0  0  0
 19 18  2  0  0  0  0
 20 19  1  0  0  0  0
 20 21  2  0  0  0  0
 21 22  1  0  0  0  0
 22 23  2  0  0  0  0
 23 15  1  0  0  0  0
 24 17  1  0  0  0  0
 25 26  1  0  0  0  0
 26 34  1  0  0  0  0
 26 27  2  0  0  0  0
 27 28  1  0  0  0  0
 28 35  1  0  0  0  0
 29 28  1  0  0  0  0
 29 30  1  0  0  0  0
 31 30  2  0  0  0  0
 32 31  1  0  0  0  0
 33 34  1  0  0  0  0
 33 32  2  0  0  0  0
 34 29  2  0  0  0  0
M  END
>  <minimizedAffinity>
-8.06947136

$$$$

 OpenBabel03242509573D

 35 40  0  0  0  0  0  0  0  0999 V2000
   47.2270   31.4290   37.1660 C   0  0  0  0  0  3  0  0  0  0  0  0
   48.6190   31.5590   37.3570 C   0  0  0  0  0  3  0  0  0  0  0  0
   49.0480   32.3650   38.4010 C   0  0  0  0  0  3  0  0  0  0  0  0
   48.1110   32.9770   39.1750 N   0  0  0  0  0  0  0  0  0  0  0  0
   46.7960   32.8340   38.9680 C   0  0  0  0  0  0  0  0  0  0  0  0
   46.3480   32.0670   37.9730 N   0  0  0  0  0  0  0  0  0  0  0  0
   45.9120   33.5330   39.8500 N   0  0  0  0  0  0  0  0  0  0  0  0
   46.3650   34.2820   40.8690 C   0  0  0  0  0  3  0  0  0  0  0  0
   45.3750   34.8770   41.6060 C   0  0  0  0  0  0  0  0  0  0  0  0
   44.0320   34.7630   41.3810 C   0  0  0  0  0  0  0  0  0  0  0  0
   43.1480   35.3220   42.0770 O   0  0  0  0  0  0  0  0  0  0  0  0
   43.6320   33.9960   40.3430 N   0  0  0  0  0  0  0  0  0  0  0  0
   44.5850   33.3780   39.5740 C   0  0  0  0  0  0  0  0  0  0  0  0
   44.1650   32.6720   38.6130 O   0  0  0  0  0  0  0  0  0  0  0  0
   42.2490   33.8040   40.0090 C   0  0  0  0  0  0  0  0  0  0  0  0
   41.3670   34.3900   39.1340 C   0  0  0  0  0  3  0  0  0  0  0  0
   40.1650   33.7770   39.2640 N   0  0  0  0  0  0  0  0  0  0  0  0
   40.2680   32.8170   40.2050 C   0  0  0  0  0  0  0  0  0  0  0  0
   39.3220   31.9390   40.6790 C   0  0  0  0  0  3  0  0  0  0  0  0
   39.6240   30.9990   41.6730 C   0  0  0  0  0  3  0  0  0  0  0  0
   40.9000   30.9940   42.1490 C   0  0  0  0  0  3  0  0  0  0  0  0
   41.8320   31.8760   41.6660 C   0  0  0  0  0  3  0  0  0  0  0  0
   41.5540   32.8120   40.6850 C   0  0  0  0  0  0  0  0  0  0  0  0
   39.3130   34.0070   38.7320 H   0  0  0  0  0  0  0  0  0  0  0  0
   45.7350   35.7550   42.7530 C   0  0  0  0  0  2  0  0  0  0  0  0
   45.4760   35.1390   44.0550 C   0  0  0  0  0  0  0  0  0  0  0  0
   44.5710   35.6250   45.0040 C   0  0  0  0  0  3  0  0  0  0  0  0
   44.5310   34.8490   46.1300 N   0  0  0  0  0  0  0  0  0  0  0  0
   45.4150   33.8580   45.9130 C   0  0  0  0  0  0  0  0  0  0  0  0
   45.7260   32.8220   46.7700 C   0  0  0  0  0  3  0  0  0  0  0  0
   46.6790   31.9230   46.3020 C   0  0  0  0  0  3  0  0  0  0  0  0
   47.2700   32.0560   45.0700 C   0  0  0  0  0  3  0  0  0  0  0  0
   46.9360   33.1140   44.2220 C   0  0  0  0  0  3  0  0  0  0  0  0
   45.9880   34.0190   44.6700 C   0  0  0  0  0  0  0  0  0  0  0  0
   43.9480   34.9940   46.9660 H   0  0  0  0  0  0  0  0  0  0  0  0
  1  2  2  0  0  0  0
  1  6  1  0  0  0  0
  2  3  1  0  0  0  0
  3  4  2  0  0  0  0
  5  4  1  0  0  0  0
  5  7  1  0  0  0  0
  6  5  2  0  0  0  0
  7  8  1  0  0  0  0
  8  9  2  0  0  0  0
  9 25  1  0  0  0  0
 10  9  1  0  0  0  0
 10 11  2  0  0  0  0
 12 10  1  0  0  0  0
 13  7  1  0  0  0  0
 13 12  1  0  0  0  0
 14 13  2  0  0  0  0
 15 12  1  0  0  0  0
 15 23  1  0  0  0  0
 16 17  1  0  0  0  0
 16 15  2  0  0  0  0
 17 18  1  0  0  0  0
 18 19  2  0  0  0  0
 18 23  1  0  0  0  0
 19 20  1  0  0  0  0
 20 21  2  0  0  0  0
 22 21  1  0  0  0  0
 23 22  2  0  0  0  0
 24 17  1  0  0  0  0
 25 26  1  0  0  0  0
 26 34  1  0  0  0  0
 26 27  2  0  0  0  0
 27 28  1  0  0  0  0
 28 35  1  0  0  0  0
 29 28  1  0  0  0  0
 29 30  1  0  0  0  0
 31 30  2  0  0  0  0
 32 31  1  0  0  0  0
 33 34  1  0  0  0  0
 33 32  2  0  0  0  0
 34 29  2  0  0  0  0
M  END
>  <minimizedAffinity>
-7.67729187

$$$$

 OpenBabel03242509573D

 35 40  0  0  0  0  0  0  0  0999 V2000
   46.0930   32.0910   35.7190 C   0  0  0  0  0  3  0  0  0  0  0  0
   47.4070   32.4000   35.3060 C   0  0  0  0  0  3  0  0  0  0  0  0
   48.2390   33.0160   36.2290 C   0  0  0  0  0  3  0  0  0  0  0  0
   47.7460   33.2840   37.4690 N   0  0  0  0  0  0  0  0  0  0  0  0
   46.4930   32.9780   37.8310 C   0  0  0  0  0  0  0  0  0  0  0  0
   45.6660   32.3850   36.9690 N   0  0  0  0  0  0  0  0  0  0  0  0
   46.0940   33.3150   39.1630 N   0  0  0  0  0  0  0  0  0  0  0  0
   46.9370   33.8850   40.0390 C   0  0  0  0  0  3  0  0  0  0  0  0
   46.3810   34.1360   41.2660 C   0  0  0  0  0  0  0  0  0  0  0  0
   45.0940   33.8580   41.6320 C   0  0  0  0  0  0  0  0  0  0  0  0
   44.6140   34.1010   42.7670 O   0  0  0  0  0  0  0  0  0  0  0  0
   44.2890   33.2830   40.7120 N   0  0  0  0  0  0  0  0  0  0  0  0
   44.7990   33.0120   39.4680 C   0  0  0  0  0  0  0  0  0  0  0  0
   44.0100   32.4740   38.6390 O   0  0  0  0  0  0  0  0  0  0  0  0
   42.9200   32.9470   40.9820 C   0  0  0  0  0  0  0  0  0  0  0  0
   42.2730   31.8820   41.5580 C   0  0  0  0  0  3  0  0  0  0  0  0
   40.9400   32.1280   41.5360 N   0  0  0  0  0  0  0  0  0  0  0  0
   40.7310   33.3280   40.9560 C   0  0  0  0  0  0  0  0  0  0  0  0
   39.5560   33.9980   40.7120 C   0  0  0  0  0  3  0  0  0  0  0  0
   39.5410   35.2530   40.0900 C   0  0  0  0  0  3  0  0  0  0  0  0
   40.7470   35.7810   39.7390 C   0  0  0  0  0  3  0  0  0  0  0  0
   41.9100   35.0990   39.9900 C   0  0  0  0  0  3  0  0  0  0  0  0
   41.9450   33.8590   40.6020 C   0  0  0  0  0  0  0  0  0  0  0  0
   40.2070   31.5020   41.9020 H   0  0  0  0  0  0  0  0  0  0  0  0
   47.1970   34.7880   42.3260 C   0  0  0  0  0  2  0  0  0  0  0  0
   48.5600   34.2620   42.4120 C   0  0  0  0  0  0  0  0  0  0  0  0
   49.7220   35.0370   42.3690 C   0  0  0  0  0  3  0  0  0  0  0  0
   50.8570   34.2810   42.4720 N   0  0  0  0  0  0  0  0  0  0  0  0
   50.4310   33.0090   42.5800 C   0  0  0  0  0  0  0  0  0  0  0  0
   51.2130   31.8800   42.7090 C   0  0  0  0  0  3  0  0  0  0  0  0
   50.5190   30.6770   42.8050 C   0  0  0  0  0  3  0  0  0  0  0  0
   49.1490   30.6170   42.7740 C   0  0  0  0  0  3  0  0  0  0  0  0
   48.3800   31.7760   42.6430 C   0  0  0  0  0  3  0  0  0  0  0  0
   49.0530   32.9830   42.5470 C   0  0  0  0  0  0  0  0  0  0  0  0
   51.8310   34.6140   42.4680 H   0  0  0  0  0  0  0  0  0  0  0  0
  1  6  1  0  0  0  0
  2  1  2  0  0  0  0
  2  3  1  0  0  0  0
  3  4  2  0  0  0  0
  4  5  1  0  0  0  0
  5  7  1  0  0  0  0
  6  5  2  0  0  0  0
  7 13  1  0  0  0  0
  7  8  1  0  0  0  0
  8  9  2  0  0  0  0
  9 10  1  0  0  0  0
  9 25  1  0  0  0  0
 10 11  2  0  0  0  0
 12 15  1  0  0  0  0
 12 10  1  0  0  0  0
 13 12  1  0  0  0  0
 14 13  2  0  0  0  0
 15 16  2  0  0  0  0
 17 16  1  0  0  0  0
 17 24  1  0  0  0  0
 18 17  1  0  0  0  0
 19 18  1  0  0  0  0
 20 19  2  0  0  0  0
 21 22  2  0  0  0  0
 21 20  1  0  0  0  0
 22 23  1  0  0  0  0
 23 18  2  0  0  0  0
 23 15  1  0  0  0  0
 25 26  1  0  0  0  0
 26 34  1  0  0  0  0
 27 26  2  0  0  0  0
 27 28  1  0  0  0  0
 28 29  1  0  0  0  0
 29 30  1  0  0  0  0
 30 31  2  0  0  0  0
 32 31  1  0  0  0  0
 33 32  2  0  0  0  0
 34 29  2  0  0  0  0
 34 33  1  0  0  0  0
 35 28  1  0  0  0  0
M  END
>  <minimizedAffinity>
-7.57201099

$$$$

 OpenBabel03242509573D

 35 40  0  0  0  0  0  0  0  0999 V2000
   41.9850   31.7470   38.0730 C   0  0  0  0  0  3  0  0  0  0  0  0
   40.7430   32.0950   38.6460 C   0  0  0  0  0  3  0  0  0  0  0  0
   40.7590   32.9630   39.7280 C   0  0  0  0  0  3  0  0  0  0  0  0
   41.9600   33.4260   40.1700 N   0  0  0  0  0  0  0  0  0  0  0  0
   43.1230   33.0760   39.6050 C   0  0  0  0  0  0  0  0  0  0  0  0
   43.1440   32.2440   38.5630 N   0  0  0  0  0  0  0  0  0  0  0  0
   44.3170   33.6290   40.1640 N   0  0  0  0  0  0  0  0  0  0  0  0
   44.2920   34.4900   41.1950 C   0  0  0  0  0  3  0  0  0  0  0  0
   45.5310   34.9140   41.5980 C   0  0  0  0  0  0  0  0  0  0  0  0
   46.7230   34.5360   41.0480 C   0  0  0  0  0  0  0  0  0  0  0  0
   47.8440   34.9450   41.4420 O   0  0  0  0  0  0  0  0  0  0  0  0
   46.6910   33.6690   40.0130 N   0  0  0  0  0  0  0  0  0  0  0  0
   45.4740   33.2150   39.5720 C   0  0  0  0  0  0  0  0  0  0  0  0
   45.4920   32.4040   38.6020 O   0  0  0  0  0  0  0  0  0  0  0  0
   47.8790   33.2000   39.3580 C   0  0  0  0  0  0  0  0  0  0  0  0
   48.5470   33.5230   38.2020 C   0  0  0  0  0  3  0  0  0  0  0  0
   49.6350   32.7210   38.0990 N   0  0  0  0  0  0  0  0  0  0  0  0
   49.6680   31.8960   39.1660 C   0  0  0  0  0  0  0  0  0  0  0  0
   50.5730   30.9160   39.4970 C   0  0  0  0  0  3  0  0  0  0  0  0
   50.4370   30.1530   40.6640 C   0  0  0  0  0  3  0  0  0  0  0  0
   49.3640   30.4280   41.4580 C   0  0  0  0  0  3  0  0  0  0  0  0
   48.4700   31.4090   41.1130 C   0  0  0  0  0  3  0  0  0  0  0  0
   48.5870   32.1720   39.9640 C   0  0  0  0  0  0  0  0  0  0  0  0
   50.3240   32.7390   37.3330 H   0  0  0  0  0  0  0  0  0  0  0  0
   45.6510   35.8530   42.7460 C   0  0  0  0  0  2  0  0  0  0  0  0
   45.4140   35.2150   44.0420 C   0  0  0  0  0  0  0  0  0  0  0  0
   44.5210   35.6800   45.0120 C   0  0  0  0  0  3  0  0  0  0  0  0
   44.5020   34.8860   46.1250 N   0  0  0  0  0  0  0  0  0  0  0  0
   45.3880   33.9030   45.8790 C   0  0  0  0  0  0  0  0  0  0  0  0
   45.7170   32.8550   46.7140 C   0  0  0  0  0  3  0  0  0  0  0  0
   46.6680   31.9690   46.2170 C   0  0  0  0  0  3  0  0  0  0  0  0
   47.2400   32.1250   44.9790 C   0  0  0  0  0  3  0  0  0  0  0  0
   46.8870   33.1950   44.1540 C   0  0  0  0  0  3  0  0  0  0  0  0
   45.9420   34.0880   44.6310 C   0  0  0  0  0  0  0  0  0  0  0  0
   43.9310   35.0140   46.9720 H   0  0  0  0  0  0  0  0  0  0  0  0
  1  6  2  0  0  0  0
  1  2  1  0  0  0  0
  2  3  2  0  0  0  0
  3  4  1  0  0  0  0
  5  7  1  0  0  0  0
  5  4  2  0  0  0  0
  6  5  1  0  0  0  0
  7  8  1  0  0  0  0
  8  9  2  0  0  0  0
  9 25  1  0  0  0  0
 10 11  2  0  0  0  0
 10  9  1  0  0  0  0
 12 10  1  0  0  0  0
 13 12  1  0  0  0  0
 13  7  1  0  0  0  0
 14 13  2  0  0  0  0
 15 23  1  0  0  0  0
 15 12  1  0  0  0  0
 16 15  2  0  0  0  0
 17 16  1  0  0  0  0
 17 18  1  0  0  0  0
 18 19  2  0  0  0  0
 18 23  1  0  0  0  0
 19 20  1  0  0  0  0
 20 21  2  0  0  0  0
 22 21  1  0  0  0  0
 23 22  2  0  0  0  0
 24 17  1  0  0  0  0
 25 26  1  0  0  0  0
 26 34  1  0  0  0  0
 26 27  2  0  0  0  0
 27 28  1  0  0  0  0
 28 35  1  0  0  0  0
 29 28  1  0  0  0  0
 29 30  1  0  0  0  0
 31 30  2  0  0  0  0
 32 31  1  0  0  0  0
 33 34  1  0  0  0  0
 33 32  2  0  0  0  0
 34 29  2  0  0  0  0
M  END
>  <minimizedAffinity>
-7.43926334

$$$$

 OpenBabel03242509573D

 35 40  0  0  0  0  0  0  0  0999 V2000
   41.8370   27.7690   42.0760 C   0  0  0  0  0  3  0  0  0  0  0  0
   42.2160   26.9420   43.1540 C   0  0  0  0  0  3  0  0  0  0  0  0
   43.1750   27.4310   44.0290 C   0  0  0  0  0  3  0  0  0  0  0  0
   43.6900   28.6700   43.7990 N   0  0  0  0  0  0  0  0  0  0  0  0
   43.3100   29.4310   42.7660 C   0  0  0  0  0  0  0  0  0  0  0  0
   42.3900   28.9920   41.9050 N   0  0  0  0  0  0  0  0  0  0  0  0
   43.9280   30.7140   42.6320 N   0  0  0  0  0  0  0  0  0  0  0  0
   44.8330   31.1660   43.5160 C   0  0  0  0  0  3  0  0  0  0  0  0
   45.3190   32.4150   43.2270 C   0  0  0  0  0  0  0  0  0  0  0  0
   44.9610   33.1840   42.1560 C   0  0  0  0  0  0  0  0  0  0  0  0
   45.4250   34.3270   41.9190 O   0  0  0  0  0  0  0  0  0  0  0  0
   44.0450   32.6800   41.2980 N   0  0  0  0  0  0  0  0  0  0  0  0
   43.5290   31.4340   41.5440 C   0  0  0  0  0  0  0  0  0  0  0  0
   42.6770   31.0030   40.7150 O   0  0  0  0  0  0  0  0  0  0  0  0
   43.5950   33.3960   40.1390 C   0  0  0  0  0  0  0  0  0  0  0  0
   43.9960   33.4790   38.8280 C   0  0  0  0  0  3  0  0  0  0  0  0
   43.1700   34.3380   38.1810 N   0  0  0  0  0  0  0  0  0  0  0  0
   42.2560   34.8010   39.0580 C   0  0  0  0  0  0  0  0  0  0  0  0
   41.2220   35.6870   38.8690 C   0  0  0  0  0  3  0  0  0  0  0  0
   40.3650   36.0510   39.9160 C   0  0  0  0  0  3  0  0  0  0  0  0
   40.6040   35.4850   41.1320 C   0  0  0  0  0  3  0  0  0  0  0  0
   41.6400   34.6030   41.3040 C   0  0  0  0  0  3  0  0  0  0  0  0
   42.4970   34.2320   40.2820 C   0  0  0  0  0  0  0  0  0  0  0  0
   43.2310   34.5940   37.1850 H   0  0  0  0  0  0  0  0  0  0  0  0
   46.3460   33.0290   44.1120 C   0  0  0  0  0  2  0  0  0  0  0  0
   45.9440   33.0760   45.5180 C   0  0  0  0  0  0  0  0  0  0  0  0
   45.0970   34.0370   46.0770 C   0  0  0  0  0  3  0  0  0  0  0  0
   44.8920   33.8360   47.4140 N   0  0  0  0  0  0  0  0  0  0  0  0
   45.6100   32.7420   47.7260 C   0  0  0  0  0  0  0  0  0  0  0  0
   45.7190   32.1460   48.9660 C   0  0  0  0  0  3  0  0  0  0  0  0
   46.5290   31.0160   49.0190 C   0  0  0  0  0  3  0  0  0  0  0  0
   47.1770   30.5260   47.9130 C   0  0  0  0  0  3  0  0  0  0  0  0
   47.0490   31.1480   46.6690 C   0  0  0  0  0  3  0  0  0  0  0  0
   46.2460   32.2740   46.5960 C   0  0  0  0  0  0  0  0  0  0  0  0
   44.3110   34.4030   48.0480 H   0  0  0  0  0  0  0  0  0  0  0  0
  1  2  1  0  0  0  0
  2  3  2  0  0  0  0
  4  3  1  0  0  0  0
  5  4  2  0  0  0  0
  6  1  2  0  0  0  0
  6  5  1  0  0  0  0
  7  5  1  0  0  0  0
  7  8  1  0  0  0  0
  9  8  2  0  0  0  0
  9 25  1  0  0  0  0
 10  9  1  0  0  0  0
 11 10  2  0  0  0  0
 12 13  1  0  0  0  0
 12 10  1  0  0  0  0
 13  7  1  0  0  0  0
 14 13  2  0  0  0  0
 15 23  1  0  0  0  0
 15 12  1  0  0  0  0
 16 15  2  0  0  0  0
 17 16  1  0  0  0  0
 17 18  1  0  0  0  0
 18 23  1  0  0  0  0
 19 18  2  0  0  0  0
 19 20  1  0  0  0  0
 20 21  2  0  0  0  0
 21 22  1  0  0  0  0
 23 22  2  0  0  0  0
 24 17  1  0  0  0  0
 25 26  1  0  0  0  0
 26 27  2  0  0  0  0
 26 34  1  0  0  0  0
 27 28  1  0  0  0  0
 28 29  1  0  0  0  0
 28 35  1  0  0  0  0
 29 30  1  0  0  0  0
 30 31  2  0  0  0  0
 32 31  1  0  0  0  0
 33 32  2  0  0  0  0
 34 33  1  0  0  0  0
 34 29  2  0  0  0  0
M  END
>  <minimizedAffinity>
-7.42294168

$$$$

 OpenBabel03242509573D

 35 40  0  0  0  0  0  0  0  0999 V2000
   51.4590   29.8580   42.3740 C   0  0  0  0  0  3  0  0  0  0  0  0
   52.2130   30.5300   41.3890 C   0  0  0  0  0  3  0  0  0  0  0  0
   51.6700   31.6850   40.8450 C   0  0  0  0  0  3  0  0  0  0  0  0
   50.4530   32.1000   41.2890 N   0  0  0  0  0  0  0  0  0  0  0  0
   49.7610   31.4390   42.2270 C   0  0  0  0  0  0  0  0  0  0  0  0
   50.2530   30.3250   42.7710 N   0  0  0  0  0  0  0  0  0  0  0  0
   48.4910   31.9770   42.6060 N   0  0  0  0  0  0  0  0  0  0  0  0
   48.0100   33.1140   42.0780 C   0  0  0  0  0  3  0  0  0  0  0  0
   46.7790   33.4760   42.5600 C   0  0  0  0  0  0  0  0  0  0  0  0
   46.0520   32.7900   43.4910 C   0  0  0  0  0  0  0  0  0  0  0  0
   44.9240   33.1490   43.9130 O   0  0  0  0  0  0  0  0  0  0  0  0
   46.5840   31.6520   43.9900 N   0  0  0  0  0  0  0  0  0  0  0  0
   47.8140   31.2480   43.5400 C   0  0  0  0  0  0  0  0  0  0  0  0
   48.2720   30.1770   44.0330 O   0  0  0  0  0  0  0  0  0  0  0  0
   45.9110   30.8480   44.9710 C   0  0  0  0  0  0  0  0  0  0  0  0
   45.0740   29.7600   44.9300 C   0  0  0  0  0  3  0  0  0  0  0  0
   44.7460   29.4250   46.2030 N   0  0  0  0  0  0  0  0  0  0  0  0
   45.3580   30.2810   47.0460 C   0  0  0  0  0  0  0  0  0  0  0  0
   45.3280   30.3400   48.4200 C   0  0  0  0  0  3  0  0  0  0  0  0
   46.0410   31.3160   49.1290 C   0  0  0  0  0  3  0  0  0  0  0  0
   46.7670   32.2040   48.3940 C   0  0  0  0  0  3  0  0  0  0  0  0
   46.7860   32.1310   47.0250 C   0  0  0  0  0  3  0  0  0  0  0  0
   46.0890   31.1760   46.3070 C   0  0  0  0  0  0  0  0  0  0  0  0
   44.1310   28.6460   46.4790 H   0  0  0  0  0  0  0  0  0  0  0  0
   46.1170   34.7050   42.0440 C   0  0  0  0  0  2  0  0  0  0  0  0
   45.1450   34.4350   40.9840 C   0  0  0  0  0  0  0  0  0  0  0  0
   45.4250   33.7580   39.7930 C   0  0  0  0  0  3  0  0  0  0  0  0
   44.3270   33.6490   38.9850 N   0  0  0  0  0  0  0  0  0  0  0  0
   43.3300   34.2590   39.6520 C   0  0  0  0  0  0  0  0  0  0  0  0
   42.0220   34.4050   39.2370 C   0  0  0  0  0  3  0  0  0  0  0  0
   41.1840   35.0780   40.1210 C   0  0  0  0  0  3  0  0  0  0  0  0
   41.6280   35.5650   41.3240 C   0  0  0  0  0  3  0  0  0  0  0  0
   42.9580   35.4030   41.7200 C   0  0  0  0  0  3  0  0  0  0  0  0
   43.8070   34.7340   40.8550 C   0  0  0  0  0  0  0  0  0  0  0  0
   44.2750   33.1960   38.0620 H   0  0  0  0  0  0  0  0  0  0  0  0
  1  6  1  0  0  0  0
  2  1  2  0  0  0  0
  3  4  2  0  0  0  0
  3  2  1  0  0  0  0
  4  5  1  0  0  0  0
  5  7  1  0  0  0  0
  5  6  2  0  0  0  0
  7 13  1  0  0  0  0
  8  9  2  0  0  0  0
  8  7  1  0  0  0  0
  9 10  1  0  0  0  0
 10 11  2  0  0  0  0
 10 12  1  0  0  0  0
 12 15  1  0  0  0  0
 13 12  1  0  0  0  0
 13 14  2  0  0  0  0
 15 23  1  0  0  0  0
 16 15  2  0  0  0  0
 16 17  1  0  0  0  0
 17 24  1  0  0  0  0
 17 18  1  0  0  0  0
 18 19  1  0  0  0  0
 19 20  2  0  0  0  0
 21 20  1  0  0  0  0
 22 21  2  0  0  0  0
 23 22  1  0  0  0  0
 23 18  2  0  0  0  0
 25  9  1  0  0  0  0
 26 25  1  0  0  0  0
 27 26  2  0  0  0  0
 28 29  1  0  0  0  0
 28 27  1  0  0  0  0
 29 34  1  0  0  0  0
 30 29  2  0  0  0  0
 30 31  1  0  0  0  0
 31 32  2  0  0  0  0
 32 33  1  0  0  0  0
 34 26  1  0  0  0  0
 34 33  2  0  0  0  0
 35 28  1  0  0  0  0
M  END
>  <minimizedAffinity>
-7.19536877

$$$$

 OpenBabel03242509573D

 35 40  0  0  0  0  0  0  0  0999 V2000
   41.1400   32.4180   39.7080 C   0  0  0  0  0  3  0  0  0  0  0  0
   41.2380   32.1100   38.3350 C   0  0  0  0  0  3  0  0  0  0  0  0
   42.4680   32.3030   37.7220 C   0  0  0  0  0  3  0  0  0  0  0  0
   43.4990   32.7740   38.4740 N   0  0  0  0  0  0  0  0  0  0  0  0
   43.3740   33.0590   39.7770 C   0  0  0  0  0  0  0  0  0  0  0  0
   42.2070   32.8840   40.3980 N   0  0  0  0  0  0  0  0  0  0  0  0
   44.5330   33.5510   40.4550 N   0  0  0  0  0  0  0  0  0  0  0  0
   45.7150   33.6980   39.8360 C   0  0  0  0  0  3  0  0  0  0  0  0
   46.7120   34.1820   40.6420 C   0  0  0  0  0  0  0  0  0  0  0  0
   46.5840   34.5060   41.9640 C   0  0  0  0  0  0  0  0  0  0  0  0
   47.5190   34.9480   42.6770 O   0  0  0  0  0  0  0  0  0  0  0  0
   45.3720   34.3370   42.5380 N   0  0  0  0  0  0  0  0  0  0  0  0
   44.3420   33.8550   41.7710 C   0  0  0  0  0  0  0  0  0  0  0  0
   43.2260   33.7150   42.3500 O   0  0  0  0  0  0  0  0  0  0  0  0
   45.1190   34.6460   43.9160 C   0  0  0  0  0  0  0  0  0  0  0  0
   44.6140   35.7280   44.5960 C   0  0  0  0  0  3  0  0  0  0  0  0
   44.6120   35.4380   45.9200 N   0  0  0  0  0  0  0  0  0  0  0  0
   45.1080   34.1950   46.0920 C   0  0  0  0  0  0  0  0  0  0  0  0
   45.3000   33.4730   47.2450 C   0  0  0  0  0  3  0  0  0  0  0  0
   45.8340   32.1780   47.2210 C   0  0  0  0  0  3  0  0  0  0  0  0
   46.1550   31.6660   46.0000 C   0  0  0  0  0  3  0  0  0  0  0  0
   45.9570   32.4000   44.8590 C   0  0  0  0  0  3  0  0  0  0  0  0
   45.4310   33.6800   44.8620 C   0  0  0  0  0  0  0  0  0  0  0  0
   44.2860   36.0630   46.6710 H   0  0  0  0  0  0  0  0  0  0  0  0
   48.0690   34.4160   40.0790 C   0  0  0  0  0  2  0  0  0  0  0  0
   48.6350   33.2340   39.4250 C   0  0  0  0  0  0  0  0  0  0  0  0
   49.2290   32.1580   40.0920 C   0  0  0  0  0  3  0  0  0  0  0  0
   49.6700   31.1920   39.2300 N   0  0  0  0  0  0  0  0  0  0  0  0
   49.3630   31.6420   38.0000 C   0  0  0  0  0  0  0  0  0  0  0  0
   49.6120   31.0090   36.7990 C   0  0  0  0  0  3  0  0  0  0  0  0
   49.1900   31.6930   35.6630 C   0  0  0  0  0  3  0  0  0  0  0  0
   48.5680   32.9140   35.7300 C   0  0  0  0  0  3  0  0  0  0  0  0
   48.3280   33.5320   36.9600 C   0  0  0  0  0  3  0  0  0  0  0  0
   48.7400   32.8670   38.1030 C   0  0  0  0  0  0  0  0  0  0  0  0
   50.1370   30.3070   39.4720 H   0  0  0  0  0  0  0  0  0  0  0  0
  1  6  1  0  0  0  0
  2  1  2  0  0  0  0
  3  2  1  0  0  0  0
  3  4  2  0  0  0  0
  4  5  1  0  0  0  0
  5  6  2  0  0  0  0
  5  7  1  0  0  0  0
  7 13  1  0  0  0  0
  8  7  1  0  0  0  0
  8  9  2  0  0  0  0
  9 10  1  0  0  0  0
 10 12  1  0  0  0  0
 10 11  2  0  0  0  0
 12 15  1  0  0  0  0
 13 14  2  0  0  0  0
 13 12  1  0  0  0  0
 15 16  2  0  0  0  0
 15 23  1  0  0  0  0
 16 17  1  0  0  0  0
 17 18  1  0  0  0  0
 17 24  1  0  0  0  0
 18 19  1  0  0  0  0
 20 19  2  0  0  0  0
 21 20  1  0  0  0  0
 22 23  1  0  0  0  0
 22 21  2  0  0  0  0
 23 18  2  0  0  0  0
 25  9  1  0  0  0  0
 26 25  1  0  0  0  0
 26 27  2  0  0  0  0
 28 35  1  0  0  0  0
 28 27  1  0  0  0  0
 29 34  1  0  0  0  0
 29 28  1  0  0  0  0
 30 29  2  0  0  0  0
 31 32  2  0  0  0  0
 31 30  1  0  0  0  0
 32 33  1  0  0  0  0
 33 34  2  0  0  0  0
 34 26  1  0  0  0  0
M  END
>  <minimizedAffinity>
-7.09572077

$$$$

 OpenBabel03242509573D

 35 40  0  0  0  0  0  0  0  0999 V2000
   47.3370   31.5140   47.7200 C   0  0  0  0  0  3  0  0  0  0  0  0
   46.2960   31.8290   48.6190 C   0  0  0  0  0  3  0  0  0  0  0  0
   45.2570   32.6140   48.1430 C   0  0  0  0  0  3  0  0  0  0  0  0
   45.3000   33.0320   46.8490 N   0  0  0  0  0  0  0  0  0  0  0  0
   46.3030   32.7160   46.0190 C   0  0  0  0  0  0  0  0  0  0  0  0
   47.3190   31.9620   46.4430 N   0  0  0  0  0  0  0  0  0  0  0  0
   46.2320   33.2200   44.6820 N   0  0  0  0  0  0  0  0  0  0  0  0
   45.1950   33.9540   44.2490 C   0  0  0  0  0  3  0  0  0  0  0  0
   45.2990   34.3500   42.9410 C   0  0  0  0  0  0  0  0  0  0  0  0
   46.3350   34.0600   42.0980 C   0  0  0  0  0  0  0  0  0  0  0  0
   46.4010   34.4380   40.9030 O   0  0  0  0  0  0  0  0  0  0  0  0
   47.3530   33.3170   42.5860 N   0  0  0  0  0  0  0  0  0  0  0  0
   47.2950   32.8960   43.8900 C   0  0  0  0  0  0  0  0  0  0  0  0
   48.2700   32.2040   44.3040 O   0  0  0  0  0  0  0  0  0  0  0  0
   48.4940   32.9530   41.7950 C   0  0  0  0  0  0  0  0  0  0  0  0
   49.7590   33.4580   41.6190 C   0  0  0  0  0  3  0  0  0  0  0  0
   50.4110   32.6760   40.7230 N   0  0  0  0  0  0  0  0  0  0  0  0
   49.5820   31.6880   40.3280 C   0  0  0  0  0  0  0  0  0  0  0  0
   49.7940   30.6610   39.4390 C   0  0  0  0  0  3  0  0  0  0  0  0
   48.7980   29.7180   39.1550 C   0  0  0  0  0  3  0  0  0  0  0  0
   47.6080   29.8650   39.8020 C   0  0  0  0  0  3  0  0  0  0  0  0
   47.4130   30.8950   40.6860 C   0  0  0  0  0  3  0  0  0  0  0  0
   48.3840   31.8360   40.9800 C   0  0  0  0  0  0  0  0  0  0  0  0
   51.3790   32.8140   40.3980 H   0  0  0  0  0  0  0  0  0  0  0  0
   44.2290   35.1890   42.3370 C   0  0  0  0  0  2  0  0  0  0  0  0
   43.1410   34.4050   41.7510 C   0  0  0  0  0  0  0  0  0  0  0  0
   43.1460   33.0150   41.6020 C   0  0  0  0  0  3  0  0  0  0  0  0
   41.9970   32.5500   41.0240 N   0  0  0  0  0  0  0  0  0  0  0  0
   41.2440   33.6410   40.7950 C   0  0  0  0  0  0  0  0  0  0  0  0
   39.9880   33.6780   40.2230 C   0  0  0  0  0  3  0  0  0  0  0  0
   39.4220   34.9430   40.1010 C   0  0  0  0  0  3  0  0  0  0  0  0
   40.0680   36.0790   40.5200 C   0  0  0  0  0  3  0  0  0  0  0  0
   41.3380   36.0130   41.0970 C   0  0  0  0  0  3  0  0  0  0  0  0
   41.9180   34.7620   41.2280 C   0  0  0  0  0  0  0  0  0  0  0  0
   41.7590   31.5710   40.8100 H   0  0  0  0  0  0  0  0  0  0  0  0
  1  2  1  0  0  0  0
  3  2  2  0  0  0  0
  4  3  1  0  0  0  0
  5  6  1  0  0  0  0
  5  4  2  0  0  0  0
  6  1  2  0  0  0  0
  7  5  1  0  0  0  0
  8  7  1  0  0  0  0
  9  8  2  0  0  0  0
 10 12  1  0  0  0  0
 10  9  1  0  0  0  0
 11 10  2  0  0  0  0
 12 13  1  0  0  0  0
 13 14  2  0  0  0  0
 13  7  1  0  0  0  0
 15 12  1  0  0  0  0
 16 15  2  0  0  0  0
 17 16  1  0  0  0  0
 18 17  1  0  0  0  0
 18 23  1  0  0  0  0
 19 18  2  0  0  0  0
 20 19  1  0  0  0  0
 20 21  2  0  0  0  0
 21 22  1  0  0  0  0
 22 23  2  0  0  0  0
 23 15  1  0  0  0  0
 24 17  1  0  0  0  0
 25  9  1  0  0  0  0
 26 25  1  0  0  0  0
 27 26  2  0  0  0  0
 28 27  1  0  0  0  0
 29 28  1  0  0  0  0
 29 34  1  0  0  0  0
 30 29  2  0  0  0  0
 31 30  1  0  0  0  0
 31 32  2  0  0  0  0
 32 33  1  0  0  0  0
 33 34  2  0  0  0  0
 34 26  1  0  0  0  0
 35 28  1  0  0  0  0
M  END
>  <minimizedAffinity>
-7.09115982

$$$$
