
 OpenBabel03242510133D

 36 40  0  0  1  0  0  0  0  0999 V2000
   35.2990   29.1920   40.5550 C   0  0  0  0  0  3  0  0  0  0  0  0
   35.7930   30.3980   40.0420 C   0  0  0  0  0  3  0  0  0  0  0  0
   37.0890   30.8200   40.4160 C   0  0  0  0  0  0  0  0  0  0  0  0
   37.7940   30.0520   41.2440 N   0  0  0  0  0  0  0  0  0  0  0  0
   37.2860   28.8910   41.7220 C   0  0  0  0  0  0  0  0  0  0  0  0
   36.0490   28.4590   41.3830 N   0  0  0  0  0  0  0  0  0  0  0  0
   37.6270   32.0690   39.8820 C   0  0  2  0  0  3  0  0  0  0  0  0
   37.2430   32.4160   38.5080 C   0  0  0  0  0  2  0  0  0  0  0  0
   38.3240   31.8320   37.6100 C   0  0  0  0  0  2  0  0  0  0  0  0
   39.5690   31.8610   38.4450 C   0  0  0  0  0  2  0  0  0  0  0  0
   39.1230   32.1620   39.8450 C   0  0  1  0  0  3  0  0  0  0  0  0
   39.6000   33.5550   40.1290 C   0  0  0  0  0  0  0  0  0  0  0  0
   38.7910   34.6250   39.8760 N   0  0  0  0  0  0  0  0  0  0  0  0
   39.1620   35.8980   40.1080 C   0  0  0  0  0  3  0  0  0  0  0  0
   40.3710   36.2030   40.6140 N   0  0  0  0  0  0  0  0  0  0  0  0
   41.1920   35.1930   40.8750 C   0  0  0  0  0  0  0  0  0  0  0  0
   42.4670   35.4130   41.4030 C   0  0  0  0  0  3  0  0  0  0  0  0
   43.3560   34.4020   41.6920 C   0  0  0  0  0  3  0  0  0  0  0  0
   42.9570   33.1060   41.4470 C   0  0  0  0  0  3  0  0  0  0  0  0
   41.6970   32.8710   40.9250 C   0  0  0  0  0  3  0  0  0  0  0  0
   40.8340   33.8850   40.6460 C   0  0  0  0  0  0  0  0  0  0  0  0
   38.0510   28.0210   42.6390 C   0  0  0  0  0  0  0  0  0  0  0  0
   37.8320   27.6420   43.9120 N   0  0  0  0  0  0  0  0  0  0  0  0
   38.7920   26.8550   44.3160 O   0  0  0  0  0  0  0  0  0  0  0  0
   39.6620   26.6880   43.3390 C   0  0  0  0  0  0  0  0  0  0  0  0
   39.2030   27.4200   42.2770 N   0  0  0  0  0  0  0  0  0  0  0  0
   40.8480   25.8810   43.4350 C   0  0  0  0  0  0  0  0  0  0  0  0
   40.9560   24.7760   42.9650 O   0  0  0  0  0  0  0  0  0  0  0  0
   41.8570   26.5330   44.1410 N   0  0  0  0  0  0  0  0  0  0  0  0
   43.1060   25.8390   44.1070 C   0  0  0  0  0  0  0  0  0  0  0  0
   43.5550   24.7860   43.5810 N   0  0  0  0  0  0  0  0  0  0  0  0
   44.2890   26.2770   44.7710 N   0  0  0  0  0  0  0  0  0  0  0  0
   43.1640   24.3990   42.7160 H   0  0  0  0  0  0  0  0  0  0  0  0
   41.7170   27.4240   44.6360 H   0  0  0  0  0  0  0  0  0  0  0  0
   45.1540   25.7230   44.7010 H   0  0  0  0  0  0  0  0  0  0  0  0
   44.2780   27.1490   45.3200 H   0  0  0  0  0  0  0  0  0  0  0  0
  1  6  1  0  0  0  0
  2  3  1  0  0  0  0
  2  1  2  0  0  0  0
  3  4  2  0  0  0  0
  4  5  1  0  0  0  0
  5 22  1  0  0  0  0
  6  5  2  0  0  0  0
  7  3  1  6  0  0  0
  8  7  1  0  0  0  0
  9 10  1  0  0  0  0
  9  8  1  0  0  0  0
 10 11  1  0  0  0  0
 11  7  1  0  0  0  0
 11 12  1  6  0  0  0
 12 21  1  0  0  0  0
 13 14  1  0  0  0  0
 13 12  2  0  0  0  0
 14 15  2  0  0  0  0
 15 16  1  0  0  0  0
 16 17  1  0  0  0  0
 17 18  2  0  0  0  0
 19 18  1  0  0  0  0
 20 19  2  0  0  0  0
 21 16  2  0  0  0  0
 21 20  1  0  0  0  0
 22 23  2  0  0  0  0
 23 24  1  0  0  0  0
 25 27  1  0  0  0  0
 25 24  1  0  0  0  0
 26 22  1  0  0  0  0
 26 25  2  0  0  0  0
 27 29  1  0  0  0  0
 28 27  2  0  0  0  0
 29 34  1  0  0  0  0
 30 29  1  0  0  0  0
 30 32  1  0  0  0  0
 31 30  2  0  0  0  0
 32 36  1  0  0  0  0
 33 31  1  0  0  0  0
 35 32  1  0  0  0  0
M  END
>  <minimizedAffinity>
-8.06939888

$$$$

 OpenBabel03242510133D

 36 40  0  0  1  0  0  0  0  0999 V2000
   37.0060   31.8100   39.1070 C   0  0  0  0  0  3  0  0  0  0  0  0
   37.1430   30.5320   39.6640 C   0  0  0  0  0  3  0  0  0  0  0  0
   38.2970   30.2390   40.4250 C   0  0  0  0  0  0  0  0  0  0  0  0
   39.2140   31.1910   40.5840 N   0  0  0  0  0  0  0  0  0  0  0  0
   39.0510   32.4170   40.0310 C   0  0  0  0  0  0  0  0  0  0  0  0
   37.9570   32.7300   39.2980 N   0  0  0  0  0  0  0  0  0  0  0  0
   38.4520   28.9150   41.0250 C   0  0  2  0  0  3  0  0  0  0  0  0
   37.3530   27.9650   40.8140 C   0  0  0  0  0  2  0  0  0  0  0  0
   36.4130   28.1410   41.9970 C   0  0  0  0  0  2  0  0  0  0  0  0
   37.3020   28.5620   43.1300 C   0  0  0  0  0  2  0  0  0  0  0  0
   38.6260   28.9000   42.5140 C   0  0  1  0  0  3  0  0  0  0  0  0
   39.5640   27.8140   42.9520 C   0  0  0  0  0  0  0  0  0  0  0  0
   39.0870   26.5680   43.2410 N   0  0  0  0  0  0  0  0  0  0  0  0
   39.8770   25.5540   43.6400 C   0  0  0  0  0  3  0  0  0  0  0  0
   41.2070   25.7040   43.7790 N   0  0  0  0  0  0  0  0  0  0  0  0
   41.7140   26.9000   43.5090 C   0  0  0  0  0  0  0  0  0  0  0  0
   43.0850   27.1480   43.6250 C   0  0  0  0  0  3  0  0  0  0  0  0
   43.6620   28.3690   43.3560 C   0  0  0  0  0  3  0  0  0  0  0  0
   42.8350   29.3950   42.9500 C   0  0  0  0  0  3  0  0  0  0  0  0
   41.4770   29.1650   42.8300 C   0  0  0  0  0  3  0  0  0  0  0  0
   40.9270   27.9510   43.1010 C   0  0  0  0  0  0  0  0  0  0  0  0
   40.0520   33.4900   40.1970 C   0  0  0  0  0  0  0  0  0  0  0  0
   40.0780   34.7690   39.7780 N   0  0  0  0  0  0  0  0  0  0  0  0
   41.1830   35.3450   40.1670 O   0  0  0  0  0  0  0  0  0  0  0  0
   41.9110   34.4810   40.8470 C   0  0  0  0  0  0  0  0  0  0  0  0
   41.2060   33.3080   40.8710 N   0  0  0  0  0  0  0  0  0  0  0  0
   43.1940   34.7770   41.4250 C   0  0  0  0  0  0  0  0  0  0  0  0
   44.2420   34.6780   40.8370 O   0  0  0  0  0  0  0  0  0  0  0  0
   43.0760   35.1890   42.7500 N   0  0  0  0  0  0  0  0  0  0  0  0
   44.3070   35.6590   43.3050 C   0  0  0  0  0  0  0  0  0  0  0  0
   45.4890   35.8260   42.9020 N   0  0  0  0  0  0  0  0  0  0  0  0
   44.4650   36.1120   44.6480 N   0  0  0  0  0  0  0  0  0  0  0  0
   45.7090   36.0050   41.9170 H   0  0  0  0  0  0  0  0  0  0  0  0
   42.1920   35.1590   43.2770 H   0  0  0  0  0  0  0  0  0  0  0  0
   45.3850   36.4370   44.9770 H   0  0  0  0  0  0  0  0  0  0  0  0
   43.6580   36.1140   45.2890 H   0  0  0  0  0  0  0  0  0  0  0  0
  1  6  2  0  0  0  0
  1  2  1  0  0  0  0
  2  3  2  0  0  0  0
  3  4  1  0  0  0  0
  5 22  1  0  0  0  0
  5  4  2  0  0  0  0
  6  5  1  0  0  0  0
  7  3  1  1  0  0  0
  7 11  1  0  0  0  0
  8  7  1  0  0  0  0
  8  9  1  0  0  0  0
  9 10  1  0  0  0  0
 11 12  1  6  0  0  0
 11 10  1  0  0  0  0
 12 21  2  0  0  0  0
 12 13  1  0  0  0  0
 13 14  2  0  0  0  0
 14 15  1  0  0  0  0
 16 17  1  0  0  0  0
 16 15  2  0  0  0  0
 18 17  2  0  0  0  0
 19 18  1  0  0  0  0
 20 19  2  0  0  0  0
 20 21  1  0  0  0  0
 21 16  1  0  0  0  0
 22 26  1  0  0  0  0
 23 24  1  0  0  0  0
 23 22  2  0  0  0  0
 24 25  1  0  0  0  0
 25 26  2  0  0  0  0
 25 27  1  0  0  0  0
 27 29  1  0  0  0  0
 28 27  2  0  0  0  0
 29 34  1  0  0  0  0
 29 30  1  0  0  0  0
 30 32  1  0  0  0  0
 31 30  2  0  0  0  0
 32 35  1  0  0  0  0
 32 36  1  0  0  0  0
 33 31  1  0  0  0  0
M  END
>  <minimizedAffinity>
-7.6147275

$$$$

 OpenBabel03242510133D

 36 40  0  0  1  0  0  0  0  0999 V2000
   37.8360   28.7170   43.5070 C   0  0  0  0  0  3  0  0  0  0  0  0
   37.4320   27.4570   43.0510 C   0  0  0  0  0  3  0  0  0  0  0  0
   37.3090   27.2400   41.6600 C   0  0  0  0  0  0  0  0  0  0  0  0
   37.5830   28.2460   40.8320 N   0  0  0  0  0  0  0  0  0  0  0  0
   37.9710   29.4540   41.3060 C   0  0  0  0  0  0  0  0  0  0  0  0
   38.1000   29.6940   42.6330 N   0  0  0  0  0  0  0  0  0  0  0  0
   36.9000   25.9270   41.1640 C   0  0  2  0  0  3  0  0  0  0  0  0
   37.1360   24.7850   42.0570 C   0  0  0  0  0  2  0  0  0  0  0  0
   38.5100   24.2440   41.6910 C   0  0  0  0  0  2  0  0  0  0  0  0
   38.6640   24.5490   40.2310 C   0  0  0  0  0  2  0  0  0  0  0  0
   37.5510   25.4920   39.8850 C   0  0  1  0  0  3  0  0  0  0  0  0
   36.6080   24.7040   39.0240 C   0  0  0  0  0  0  0  0  0  0  0  0
   36.6650   23.3410   39.0080 N   0  0  0  0  0  0  0  0  0  0  0  0
   35.8480   22.5800   38.2570 C   0  0  0  0  0  3  0  0  0  0  0  0
   34.9070   23.1210   37.4620 N   0  0  0  0  0  0  0  0  0  0  0  0
   34.8160   24.4450   37.4450 C   0  0  0  0  0  0  0  0  0  0  0  0
   33.8680   25.0960   36.6500 C   0  0  0  0  0  3  0  0  0  0  0  0
   33.7310   26.4650   36.5970 C   0  0  0  0  0  3  0  0  0  0  0  0
   34.5770   27.2260   37.3740 C   0  0  0  0  0  3  0  0  0  0  0  0
   35.5210   26.5970   38.1660 C   0  0  0  0  0  3  0  0  0  0  0  0
   35.6400   25.2430   38.2040 C   0  0  0  0  0  0  0  0  0  0  0  0
   38.2840   30.5840   40.4070 C   0  0  0  0  0  0  0  0  0  0  0  0
   37.6520   31.0740   39.3240 N   0  0  0  0  0  0  0  0  0  0  0  0
   38.3090   32.0960   38.8470 O   0  0  0  0  0  0  0  0  0  0  0  0
   39.3780   32.3150   39.5880 C   0  0  0  0  0  0  0  0  0  0  0  0
   39.3700   31.3650   40.5750 N   0  0  0  0  0  0  0  0  0  0  0  0
   40.3310   33.3650   39.3510 C   0  0  0  0  0  0  0  0  0  0  0  0
   40.6020   34.2280   40.1490 O   0  0  0  0  0  0  0  0  0  0  0  0
   40.9020   33.2630   38.0850 N   0  0  0  0  0  0  0  0  0  0  0  0
   41.9780   34.1800   37.8780 C   0  0  0  0  0  0  0  0  0  0  0  0
   42.5770   35.0580   38.5540 N   0  0  0  0  0  0  0  0  0  0  0  0
   42.7120   34.2990   36.6620 N   0  0  0  0  0  0  0  0  0  0  0  0
   42.6350   35.0130   39.5770 H   0  0  0  0  0  0  0  0  0  0  0  0
   40.5820   32.5940   37.3710 H   0  0  0  0  0  0  0  0  0  0  0  0
   43.4770   34.9850   36.5860 H   0  0  0  0  0  0  0  0  0  0  0  0
   42.4780   33.6990   35.8580 H   0  0  0  0  0  0  0  0  0  0  0  0
  2  1  1  0  0  0  0
  3  2  2  0  0  0  0
  4  5  2  0  0  0  0
  4  3  1  0  0  0  0
  5  6  1  0  0  0  0
  6  1  2  0  0  0  0
  7  3  1  1  0  0  0
  7  8  1  0  0  0  0
  9  8  1  0  0  0  0
 10  9  1  0  0  0  0
 11 12  1  6  0  0  0
 11 10  1  0  0  0  0
 11  7  1  0  0  0  0
 13 12  1  0  0  0  0
 14 13  2  0  0  0  0
 15 14  1  0  0  0  0
 16 15  2  0  0  0  0
 16 21  1  0  0  0  0
 17 16  1  0  0  0  0
 18 17  2  0  0  0  0
 18 19  1  0  0  0  0
 19 20  2  0  0  0  0
 20 21  1  0  0  0  0
 21 12  2  0  0  0  0
 22 26  1  0  0  0  0
 22  5  1  0  0  0  0
 23 22  2  0  0  0  0
 24 23  1  0  0  0  0
 24 25  1  0  0  0  0
 25 26  2  0  0  0  0
 27 25  1  0  0  0  0
 27 28  2  0  0  0  0
 29 27  1  0  0  0  0
 30 29  1  0  0  0  0
 30 31  2  0  0  0  0
 31 33  1  0  0  0  0
 32 30  1  0  0  0  0
 34 29  1  0  0  0  0
 35 32  1  0  0  0  0
 36 32  1  0  0  0  0
M  END
>  <minimizedAffinity>
-7.5755868

$$$$

 OpenBabel03242510133D

 36 40  0  0  1  0  0  0  0  0999 V2000
   37.3430   33.2220   39.6740 C   0  0  0  0  0  3  0  0  0  0  0  0
   38.5780   33.8700   39.7940 C   0  0  0  0  0  3  0  0  0  0  0  0
   39.6170   33.2340   40.5100 C   0  0  0  0  0  0  0  0  0  0  0  0
   39.3810   32.0380   41.0470 N   0  0  0  0  0  0  0  0  0  0  0  0
   38.1740   31.4390   40.9130 C   0  0  0  0  0  0  0  0  0  0  0  0
   37.1580   32.0220   40.2330 N   0  0  0  0  0  0  0  0  0  0  0  0
   40.9180   33.8880   40.6350 C   0  0  2  0  0  3  0  0  0  0  0  0
   41.1860   34.9990   39.7140 C   0  0  0  0  0  2  0  0  0  0  0  0
   41.8660   34.3840   38.5000 C   0  0  0  0  0  2  0  0  0  0  0  0
   42.6110   33.2000   39.0400 C   0  0  0  0  0  2  0  0  0  0  0  0
   42.1080   32.9970   40.4390 C   0  0  1  0  0  3  0  0  0  0  0  0
   43.2460   33.3850   41.3360 C   0  0  0  0  0  0  0  0  0  0  0  0
   44.0320   34.4560   41.0260 N   0  0  0  0  0  0  0  0  0  0  0  0
   45.0680   34.8530   41.7900 C   0  0  0  0  0  3  0  0  0  0  0  0
   45.3980   34.2100   42.9260 N   0  0  0  0  0  0  0  0  0  0  0  0
   44.6600   33.1610   43.2650 C   0  0  0  0  0  0  0  0  0  0  0  0
   44.9280   32.4330   44.4280 C   0  0  0  0  0  3  0  0  0  0  0  0
   44.1930   31.3380   44.8250 C   0  0  0  0  0  3  0  0  0  0  0  0
   43.1380   30.9490   44.0300 C   0  0  0  0  0  3  0  0  0  0  0  0
   42.8590   31.6590   42.8760 C   0  0  0  0  0  3  0  0  0  0  0  0
   43.5980   32.7380   42.5000 C   0  0  0  0  0  0  0  0  0  0  0  0
   37.8900   30.1120   41.4960 C   0  0  0  0  0  0  0  0  0  0  0  0
   36.7570   29.5630   41.9740 N   0  0  0  0  0  0  0  0  0  0  0  0
   36.9900   28.3490   42.3920 O   0  0  0  0  0  0  0  0  0  0  0  0
   38.2630   28.0580   42.2060 C   0  0  0  0  0  0  0  0  0  0  0  0
   38.8380   29.1650   41.6410 N   0  0  0  0  0  0  0  0  0  0  0  0
   38.8700   26.8020   42.5530 C   0  0  0  0  0  0  0  0  0  0  0  0
   39.7280   26.6710   43.3900 O   0  0  0  0  0  0  0  0  0  0  0  0
   38.3440   25.7530   41.8020 N   0  0  0  0  0  0  0  0  0  0  0  0
   38.7930   24.4680   42.2380 C   0  0  0  0  0  0  0  0  0  0  0  0
   39.5320   24.0180   43.1520 N   0  0  0  0  0  0  0  0  0  0  0  0
   38.4260   23.2360   41.6220 N   0  0  0  0  0  0  0  0  0  0  0  0
   39.6660   24.5140   44.0400 H   0  0  0  0  0  0  0  0  0  0  0  0
   37.6980   25.8910   41.0120 H   0  0  0  0  0  0  0  0  0  0  0  0
   38.7900   22.3460   41.9920 H   0  0  0  0  0  0  0  0  0  0  0  0
   37.7980   23.2340   40.8060 H   0  0  0  0  0  0  0  0  0  0  0  0
  1  2  2  0  0  0  0
  1  6  1  0  0  0  0
  2  3  1  0  0  0  0
  3  4  2  0  0  0  0
  5  4  1  0  0  0  0
  5 22  1  0  0  0  0
  6  5  2  0  0  0  0
  7  3  1  6  0  0  0
  8  7  1  0  0  0  0
  9 10  1  0  0  0  0
  9  8  1  0  0  0  0
 10 11  1  0  0  0  0
 11  7  1  0  0  0  0
 11 12  1  1  0  0  0
 12 21  1  0  0  0  0
 13 12  2  0  0  0  0
 13 14  1  0  0  0  0
 14 15  2  0  0  0  0
 15 16  1  0  0  0  0
 16 17  1  0  0  0  0
 17 18  2  0  0  0  0
 19 18  1  0  0  0  0
 20 19  2  0  0  0  0
 21 20  1  0  0  0  0
 21 16  2  0  0  0  0
 22 26  1  0  0  0  0
 22 23  2  0  0  0  0
 23 24  1  0  0  0  0
 25 24  1  0  0  0  0
 25 27  1  0  0  0  0
 26 25  2  0  0  0  0
 27 28  2  0  0  0  0
 29 30  1  0  0  0  0
 29 27  1  0  0  0  0
 30 31  2  0  0  0  0
 31 33  1  0  0  0  0
 32 35  1  0  0  0  0
 32 30  1  0  0  0  0
 34 29  1  0  0  0  0
 36 32  1  0  0  0  0
M  END
>  <minimizedAffinity>
-7.37761354

$$$$

 OpenBabel03242510133D

 36 40  0  0  1  0  0  0  0  0999 V2000
   37.4740   28.3140   43.8520 C   0  0  0  0  0  3  0  0  0  0  0  0
   36.9540   27.3220   43.0120 C   0  0  0  0  0  3  0  0  0  0  0  0
   37.2700   27.3570   41.6350 C   0  0  0  0  0  0  0  0  0  0  0  0
   38.0530   28.3370   41.1860 N   0  0  0  0  0  0  0  0  0  0  0  0
   38.5390   29.2820   42.0260 C   0  0  0  0  0  0  0  0  0  0  0  0
   38.2560   29.2750   43.3500 N   0  0  0  0  0  0  0  0  0  0  0  0
   36.7470   26.3230   40.7440 C   0  0  2  0  0  3  0  0  0  0  0  0
   36.9260   24.9320   41.1760 C   0  0  0  0  0  2  0  0  0  0  0  0
   38.2420   24.4690   40.5690 C   0  0  0  0  0  2  0  0  0  0  0  0
   38.3690   25.2500   39.2950 C   0  0  0  0  0  2  0  0  0  0  0  0
   37.3190   26.3190   39.3570 C   0  0  1  0  0  3  0  0  0  0  0  0
   36.2910   25.9350   38.3350 C   0  0  0  0  0  0  0  0  0  0  0  0
   36.3000   24.6850   37.7860 N   0  0  0  0  0  0  0  0  0  0  0  0
   35.4060   24.2820   36.8640 C   0  0  0  0  0  3  0  0  0  0  0  0
   34.4310   25.0960   36.4190 N   0  0  0  0  0  0  0  0  0  0  0  0
   34.3850   26.3210   36.9250 C   0  0  0  0  0  0  0  0  0  0  0  0
   33.4070   27.2350   36.5230 C   0  0  0  0  0  3  0  0  0  0  0  0
   33.3150   28.5170   37.0170 C   0  0  0  0  0  3  0  0  0  0  0  0
   34.2400   28.9100   37.9600 C   0  0  0  0  0  3  0  0  0  0  0  0
   35.2140   28.0180   38.3690 C   0  0  0  0  0  3  0  0  0  0  0  0
   35.2880   26.7550   37.8680 C   0  0  0  0  0  0  0  0  0  0  0  0
   39.4120   30.3750   41.5530 C   0  0  0  0  0  0  0  0  0  0  0  0
   40.0100   31.3930   42.2000 N   0  0  0  0  0  0  0  0  0  0  0  0
   40.6940   32.1190   41.3570 O   0  0  0  0  0  0  0  0  0  0  0  0
   40.5750   31.6110   40.1450 C   0  0  0  0  0  0  0  0  0  0  0  0
   39.7690   30.5110   40.2590 N   0  0  0  0  0  0  0  0  0  0  0  0
   41.1980   32.1580   38.9700 C   0  0  0  0  0  0  0  0  0  0  0  0
   41.3270   31.5600   37.9300 O   0  0  0  0  0  0  0  0  0  0  0  0
   41.6360   33.4630   39.1810 N   0  0  0  0  0  0  0  0  0  0  0  0
   42.1010   34.1000   37.9900 C   0  0  0  0  0  0  0  0  0  0  0  0
   42.2010   33.8020   36.7700 N   0  0  0  0  0  0  0  0  0  0  0  0
   42.6270   35.4240   37.9370 N   0  0  0  0  0  0  0  0  0  0  0  0
   41.5790   33.1190   36.3230 H   0  0  0  0  0  0  0  0  0  0  0  0
   41.6260   33.9220   40.1030 H   0  0  0  0  0  0  0  0  0  0  0  0
   42.9430   35.8180   37.0400 H   0  0  0  0  0  0  0  0  0  0  0  0
   42.6910   35.9880   38.7980 H   0  0  0  0  0  0  0  0  0  0  0  0
  2  1  2  0  0  0  0
  3  2  1  0  0  0  0
  4  3  2  0  0  0  0
  4  5  1  0  0  0  0
  5  6  2  0  0  0  0
  6  1  1  0  0  0  0
  7  8  1  0  0  0  0
  7  3  1  1  0  0  0
  9  8  1  0  0  0  0
 10 11  1  0  0  0  0
 10  9  1  0  0  0  0
 11 12  1  6  0  0  0
 11  7  1  0  0  0  0
 13 12  2  0  0  0  0
 14 13  1  0  0  0  0
 15 14  2  0  0  0  0
 15 16  1  0  0  0  0
 16 21  1  0  0  0  0
 17 16  2  0  0  0  0
 17 18  1  0  0  0  0
 18 19  2  0  0  0  0
 19 20  1  0  0  0  0
 21 12  1  0  0  0  0
 21 20  2  0  0  0  0
 22  5  1  0  0  0  0
 22 23  2  0  0  0  0
 24 23  1  0  0  0  0
 25 26  2  0  0  0  0
 25 24  1  0  0  0  0
 26 22  1  0  0  0  0
 27 29  1  0  0  0  0
 27 25  1  0  0  0  0
 28 27  2  0  0  0  0
 29 34  1  0  0  0  0
 30 29  1  0  0  0  0
 31 30  2  0  0  0  0
 32 30  1  0  0  0  0
 32 36  1  0  0  0  0
 33 31  1  0  0  0  0
 35 32  1  0  0  0  0
M  END
>  <minimizedAffinity>
-7.34841204

$$$$

 OpenBabel03242510133D

 36 40  0  0  1  0  0  0  0  0999 V2000
   37.6250   31.2330   36.6690 C   0  0  0  0  0  3  0  0  0  0  0  0
   37.1150   30.0580   37.2360 C   0  0  0  0  0  3  0  0  0  0  0  0
   37.5050   29.7080   38.5490 C   0  0  0  0  0  0  0  0  0  0  0  0
   38.3450   30.5110   39.1990 N   0  0  0  0  0  0  0  0  0  0  0  0
   38.8210   31.6390   38.6210 C   0  0  0  0  0  0  0  0  0  0  0  0
   38.4660   32.0030   37.3660 N   0  0  0  0  0  0  0  0  0  0  0  0
   36.9740   28.4930   39.1630 C   0  0  2  0  0  3  0  0  0  0  0  0
   35.5200   28.3020   39.0910 C   0  0  0  0  0  2  0  0  0  0  0  0
   34.9530   28.9190   40.3610 C   0  0  0  0  0  2  0  0  0  0  0  0
   36.0360   28.7480   41.3840 C   0  0  0  0  0  2  0  0  0  0  0  0
   37.2610   28.3320   40.6260 C   0  0  1  0  0  3  0  0  0  0  0  0
   37.4940   26.8960   40.9910 C   0  0  0  0  0  0  0  0  0  0  0  0
   36.7800   25.9060   40.3810 N   0  0  0  0  0  0  0  0  0  0  0  0
   36.9420   24.6010   40.6670 C   0  0  0  0  0  3  0  0  0  0  0  0
   37.8330   24.1810   41.5840 N   0  0  0  0  0  0  0  0  0  0  0  0
   38.5490   25.1110   42.2030 C   0  0  0  0  0  0  0  0  0  0  0  0
   39.4990   24.7690   43.1710 C   0  0  0  0  0  3  0  0  0  0  0  0
   40.2670   25.6940   43.8410 C   0  0  0  0  0  3  0  0  0  0  0  0
   40.0860   27.0250   43.5340 C   0  0  0  0  0  3  0  0  0  0  0  0
   39.1500   27.3800   42.5790 C   0  0  0  0  0  3  0  0  0  0  0  0
   38.4000   26.4500   41.9280 C   0  0  0  0  0  0  0  0  0  0  0  0
   39.7500   32.5470   39.3240 C   0  0  0  0  0  0  0  0  0  0  0  0
   39.5410   33.6490   40.0690 N   0  0  0  0  0  0  0  0  0  0  0  0
   40.6810   34.1260   40.4910 O   0  0  0  0  0  0  0  0  0  0  0  0
   41.6640   33.3670   40.0500 C   0  0  0  0  0  0  0  0  0  0  0  0
   41.0870   32.3680   39.3120 N   0  0  0  0  0  0  0  0  0  0  0  0
   43.0570   33.5980   40.3240 C   0  0  0  0  0  0  0  0  0  0  0  0
   43.6370   33.1760   41.2930 O   0  0  0  0  0  0  0  0  0  0  0  0
   43.6530   34.3730   39.3320 N   0  0  0  0  0  0  0  0  0  0  0  0
   45.0710   34.4780   39.4760 C   0  0  0  0  0  0  0  0  0  0  0  0
   45.9480   34.0300   40.2610 N   0  0  0  0  0  0  0  0  0  0  0  0
   45.9140   35.2340   38.6100 N   0  0  0  0  0  0  0  0  0  0  0  0
   45.8270   33.1450   40.7650 H   0  0  0  0  0  0  0  0  0  0  0  0
   43.1250   34.8240   38.5710 H   0  0  0  0  0  0  0  0  0  0  0  0
   46.9310   35.2630   38.7770 H   0  0  0  0  0  0  0  0  0  0  0  0
   45.5080   35.7520   37.8180 H   0  0  0  0  0  0  0  0  0  0  0  0
  1  2  2  0  0  0  0
  1  6  1  0  0  0  0
  2  3  1  0  0  0  0
  3  4  2  0  0  0  0
  5  4  1  0  0  0  0
  5 22  1  0  0  0  0
  6  5  2  0  0  0  0
  7  3  1  1  0  0  0
  7 11  1  0  0  0  0
  8  7  1  0  0  0  0
  8  9  1  0  0  0  0
  9 10  1  0  0  0  0
 11 12  1  6  0  0  0
 11 10  1  0  0  0  0
 12 21  1  0  0  0  0
 13 14  1  0  0  0  0
 13 12  2  0  0  0  0
 14 15  2  0  0  0  0
 15 16  1  0  0  0  0
 16 17  1  0  0  0  0
 17 18  2  0  0  0  0
 19 18  1  0  0  0  0
 20 19  2  0  0  0  0
 21 16  2  0  0  0  0
 21 20  1  0  0  0  0
 22 23  2  0  0  0  0
 23 24  1  0  0  0  0
 25 27  1  0  0  0  0
 25 24  1  0  0  0  0
 26 22  1  0  0  0  0
 26 25  2  0  0  0  0
 27 28  2  0  0  0  0
 29 30  1  0  0  0  0
 29 27  1  0  0  0  0
 30 31  2  0  0  0  0
 31 33  1  0  0  0  0
 32 35  1  0  0  0  0
 32 30  1  0  0  0  0
 34 29  1  0  0  0  0
 36 32  1  0  0  0  0
M  END
>  <minimizedAffinity>
-7.30492687

$$$$

 OpenBabel03242510133D

 36 40  0  0  1  0  0  0  0  0999 V2000
   37.7000   28.4490   43.5380 C   0  0  0  0  0  3  0  0  0  0  0  0
   37.7580   27.2570   42.8050 C   0  0  0  0  0  3  0  0  0  0  0  0
   37.8240   27.3250   41.3940 C   0  0  0  0  0  0  0  0  0  0  0  0
   37.8280   28.5240   40.8140 N   0  0  0  0  0  0  0  0  0  0  0  0
   37.7700   29.6570   41.5530 C   0  0  0  0  0  0  0  0  0  0  0  0
   37.7070   29.6260   42.9050 N   0  0  0  0  0  0  0  0  0  0  0  0
   37.8980   26.0930   40.6120 C   0  0  2  0  0  3  0  0  0  0  0  0
   36.8420   25.1010   40.8470 C   0  0  0  0  0  2  0  0  0  0  0  0
   37.3700   24.1750   41.9330 C   0  0  0  0  0  2  0  0  0  0  0  0
   38.8570   24.1740   41.7420 C   0  0  0  0  0  2  0  0  0  0  0  0
   39.1540   25.2930   40.7890 C   0  0  1  0  0  3  0  0  0  0  0  0
   39.5760   24.6320   39.5110 C   0  0  0  0  0  0  0  0  0  0  0  0
   39.2680   23.3230   39.2770 N   0  0  0  0  0  0  0  0  0  0  0  0
   39.6200   22.6750   38.1510 C   0  0  0  0  0  3  0  0  0  0  0  0
   40.3060   23.2850   37.1670 N   0  0  0  0  0  0  0  0  0  0  0  0
   40.6270   24.5590   37.3520 C   0  0  0  0  0  0  0  0  0  0  0  0
   41.3380   25.2740   36.3840 C   0  0  0  0  0  3  0  0  0  0  0  0
   41.6960   26.5960   36.5250 C   0  0  0  0  0  3  0  0  0  0  0  0
   41.3260   27.2420   37.6860 C   0  0  0  0  0  3  0  0  0  0  0  0
   40.6220   26.5480   38.6540 C   0  0  0  0  0  3  0  0  0  0  0  0
   40.2790   25.2410   38.4940 C   0  0  0  0  0  0  0  0  0  0  0  0
   37.7770   30.9970   40.9320 C   0  0  0  0  0  0  0  0  0  0  0  0
   36.8860   31.6280   40.1430 N   0  0  0  0  0  0  0  0  0  0  0  0
   37.3270   32.8170   39.8340 O   0  0  0  0  0  0  0  0  0  0  0  0
   38.5020   33.0110   40.4000 C   0  0  0  0  0  0  0  0  0  0  0  0
   38.7940   31.8680   41.0950 N   0  0  0  0  0  0  0  0  0  0  0  0
   39.2790   34.2140   40.2730 C   0  0  0  0  0  0  0  0  0  0  0  0
   39.1420   35.1870   40.9710 O   0  0  0  0  0  0  0  0  0  0  0  0
   40.2090   34.1160   39.2400 N   0  0  0  0  0  0  0  0  0  0  0  0
   41.1160   35.2200   39.1950 C   0  0  0  0  0  0  0  0  0  0  0  0
   41.3200   36.2670   39.8640 N   0  0  0  0  0  0  0  0  0  0  0  0
   42.1450   35.3770   38.2200 N   0  0  0  0  0  0  0  0  0  0  0  0
   41.0790   36.3330   40.8590 H   0  0  0  0  0  0  0  0  0  0  0  0
   40.2400   33.3290   38.5780 H   0  0  0  0  0  0  0  0  0  0  0  0
   42.7620   36.2010   38.2500 H   0  0  0  0  0  0  0  0  0  0  0  0
   42.2710   34.6660   37.4850 H   0  0  0  0  0  0  0  0  0  0  0  0
  2  1  2  0  0  0  0
  3  2  1  0  0  0  0
  4  3  2  0  0  0  0
  4  5  1  0  0  0  0
  5  6  2  0  0  0  0
  6  1  1  0  0  0  0
  7 11  1  0  0  0  0
  7  8  1  0  0  0  0
  7  3  1  1  0  0  0
  8  9  1  0  0  0  0
 10  9  1  0  0  0  0
 11 12  1  6  0  0  0
 11 10  1  0  0  0  0
 13 12  1  0  0  0  0
 14 13  2  0  0  0  0
 15 16  2  0  0  0  0
 15 14  1  0  0  0  0
 16 21  1  0  0  0  0
 17 18  2  0  0  0  0
 17 16  1  0  0  0  0
 18 19  1  0  0  0  0
 19 20  2  0  0  0  0
 21 20  1  0  0  0  0
 21 12  2  0  0  0  0
 22 26  1  0  0  0  0
 22  5  1  0  0  0  0
 23 22  2  0  0  0  0
 24 23  1  0  0  0  0
 24 25  1  0  0  0  0
 25 26  2  0  0  0  0
 27 25  1  0  0  0  0
 27 28  2  0  0  0  0
 29 27  1  0  0  0  0
 30 29  1  0  0  0  0
 30 31  2  0  0  0  0
 31 33  1  0  0  0  0
 32 35  1  0  0  0  0
 32 30  1  0  0  0  0
 34 29  1  0  0  0  0
 36 32  1  0  0  0  0
M  END
>  <minimizedAffinity>
-7.21134043

$$$$

 OpenBabel03242510133D

 36 40  0  0  1  0  0  0  0  0999 V2000
   37.7290   28.8190   43.4900 C   0  0  0  0  0  3  0  0  0  0  0  0
   37.8180   27.4940   43.0440 C   0  0  0  0  0  3  0  0  0  0  0  0
   38.8570   27.1410   42.1530 C   0  0  0  0  0  0  0  0  0  0  0  0
   39.7150   28.0840   41.7700 N   0  0  0  0  0  0  0  0  0  0  0  0
   39.6000   29.3570   42.2190 C   0  0  0  0  0  0  0  0  0  0  0  0
   38.6170   29.7270   43.0730 N   0  0  0  0  0  0  0  0  0  0  0  0
   38.9740   25.7610   41.6870 C   0  0  2  0  0  3  0  0  0  0  0  0
   40.2580   25.0920   41.9310 C   0  0  0  0  0  2  0  0  0  0  0  0
   41.1040   25.3420   40.6920 C   0  0  0  0  0  2  0  0  0  0  0  0
   40.1140   25.4480   39.5700 C   0  0  0  0  0  2  0  0  0  0  0  0
   38.7660   25.5590   40.2160 C   0  0  1  0  0  3  0  0  0  0  0  0
   38.0730   24.2600   39.9270 C   0  0  0  0  0  0  0  0  0  0  0  0
   38.5630   23.0910   40.4310 N   0  0  0  0  0  0  0  0  0  0  0  0
   37.9880   21.8950   40.2060 C   0  0  0  0  0  3  0  0  0  0  0  0
   36.8740   21.7740   39.4610 N   0  0  0  0  0  0  0  0  0  0  0  0
   36.3620   22.8860   38.9490 C   0  0  0  0  0  0  0  0  0  0  0  0
   35.2070   22.8570   38.1630 C   0  0  0  0  0  3  0  0  0  0  0  0
   34.6350   23.9800   37.6100 C   0  0  0  0  0  3  0  0  0  0  0  0
   35.2400   25.1950   37.8520 C   0  0  0  0  0  3  0  0  0  0  0  0
   36.3840   25.2410   38.6290 C   0  0  0  0  0  3  0  0  0  0  0  0
   36.9330   24.1180   39.1650 C   0  0  0  0  0  0  0  0  0  0  0  0
   40.5420   30.4190   41.8100 C   0  0  0  0  0  0  0  0  0  0  0  0
   41.8350   30.6400   42.1140 N   0  0  0  0  0  0  0  0  0  0  0  0
   42.2580   31.7180   41.5100 O   0  0  0  0  0  0  0  0  0  0  0  0
   41.2760   32.2350   40.7980 C   0  0  0  0  0  0  0  0  0  0  0  0
   40.1890   31.4220   40.9820 N   0  0  0  0  0  0  0  0  0  0  0  0
   41.3880   33.4290   40.0040 C   0  0  0  0  0  0  0  0  0  0  0  0
   41.0500   34.5250   40.3750 O   0  0  0  0  0  0  0  0  0  0  0  0
   41.9350   33.1610   38.7520 N   0  0  0  0  0  0  0  0  0  0  0  0
   42.2250   34.3420   38.0010 C   0  0  0  0  0  0  0  0  0  0  0  0
   42.1390   35.5860   38.1800 N   0  0  0  0  0  0  0  0  0  0  0  0
   42.7640   34.3450   36.6800 N   0  0  0  0  0  0  0  0  0  0  0  0
   42.1860   36.0070   39.1140 H   0  0  0  0  0  0  0  0  0  0  0  0
   42.1120   32.2090   38.4020 H   0  0  0  0  0  0  0  0  0  0  0  0
   42.9470   35.2380   36.2000 H   0  0  0  0  0  0  0  0  0  0  0  0
   42.9690   33.4540   36.2060 H   0  0  0  0  0  0  0  0  0  0  0  0
  2  1  2  0  0  0  0
  3  2  1  0  0  0  0
  4  3  2  0  0  0  0
  4  5  1  0  0  0  0
  5  6  2  0  0  0  0
  6  1  1  0  0  0  0
  7  8  1  0  0  0  0
  7  3  1  6  0  0  0
  9  8  1  0  0  0  0
 10 11  1  0  0  0  0
 10  9  1  0  0  0  0
 11 12  1  1  0  0  0
 11  7  1  0  0  0  0
 12 13  1  0  0  0  0
 14 13  2  0  0  0  0
 15 14  1  0  0  0  0
 16 21  1  0  0  0  0
 16 15  2  0  0  0  0
 17 16  1  0  0  0  0
 18 19  1  0  0  0  0
 18 17  2  0  0  0  0
 19 20  2  0  0  0  0
 20 21  1  0  0  0  0
 21 12  2  0  0  0  0
 22 23  2  0  0  0  0
 22  5  1  0  0  0  0
 24 23  1  0  0  0  0
 25 26  2  0  0  0  0
 25 24  1  0  0  0  0
 26 22  1  0  0  0  0
 27 28  2  0  0  0  0
 27 25  1  0  0  0  0
 29 27  1  0  0  0  0
 30 31  2  0  0  0  0
 30 29  1  0  0  0  0
 31 33  1  0  0  0  0
 32 30  1  0  0  0  0
 34 29  1  0  0  0  0
 35 32  1  0  0  0  0
 36 32  1  0  0  0  0
M  END
>  <minimizedAffinity>
-6.90316105

$$$$

 OpenBabel03242510133D

 36 40  0  0  1  0  0  0  0  0999 V2000
   36.9280   28.3100   43.0230 C   0  0  0  0  0  3  0  0  0  0  0  0
   37.5510   27.1660   42.5110 C   0  0  0  0  0  3  0  0  0  0  0  0
   38.4470   27.3030   41.4260 C   0  0  0  0  0  0  0  0  0  0  0  0
   38.6650   28.5190   40.9300 N   0  0  0  0  0  0  0  0  0  0  0  0
   38.0450   29.6060   41.4480 C   0  0  0  0  0  0  0  0  0  0  0  0
   37.1820   29.5080   42.4870 N   0  0  0  0  0  0  0  0  0  0  0  0
   39.1170   26.1210   40.8860 C   0  0  2  0  0  3  0  0  0  0  0  0
   38.4010   24.8450   41.0110 C   0  0  0  0  0  2  0  0  0  0  0  0
   38.8660   24.2300   42.3220 C   0  0  0  0  0  2  0  0  0  0  0  0
   40.2700   24.7250   42.4990 C   0  0  0  0  0  2  0  0  0  0  0  0
   40.4580   25.8130   41.4840 C   0  0  1  0  0  3  0  0  0  0  0  0
   41.4040   25.2530   40.4640 C   0  0  0  0  0  0  0  0  0  0  0  0
   40.9260   24.6880   39.3180 N   0  0  0  0  0  0  0  0  0  0  0  0
   41.7240   24.1680   38.3670 C   0  0  0  0  0  3  0  0  0  0  0  0
   43.0650   24.1740   38.4850 N   0  0  0  0  0  0  0  0  0  0  0  0
   43.5740   24.7140   39.5850 C   0  0  0  0  0  0  0  0  0  0  0  0
   44.9550   24.7660   39.7940 C   0  0  0  0  0  3  0  0  0  0  0  0
   45.5340   25.3150   40.9150 C   0  0  0  0  0  3  0  0  0  0  0  0
   44.7000   25.8420   41.8770 C   0  0  0  0  0  3  0  0  0  0  0  0
   43.3300   25.7990   41.6860 C   0  0  0  0  0  3  0  0  0  0  0  0
   42.7780   25.2510   40.5700 C   0  0  0  0  0  0  0  0  0  0  0  0
   38.2730   30.9650   40.9160 C   0  0  0  0  0  0  0  0  0  0  0  0
   37.4250   31.9650   40.6080 N   0  0  0  0  0  0  0  0  0  0  0  0
   38.0920   32.9960   40.1650 O   0  0  0  0  0  0  0  0  0  0  0  0
   39.3820   32.7170   40.1670 C   0  0  0  0  0  0  0  0  0  0  0  0
   39.5050   31.4380   40.6400 N   0  0  0  0  0  0  0  0  0  0  0  0
   40.4110   33.6270   39.7410 C   0  0  0  0  0  0  0  0  0  0  0  0
   40.8890   34.4850   40.4390 O   0  0  0  0  0  0  0  0  0  0  0  0
   40.7860   33.3930   38.4200 N   0  0  0  0  0  0  0  0  0  0  0  0
   41.9240   34.1570   38.0150 C   0  0  0  0  0  0  0  0  0  0  0  0
   42.7100   34.9830   38.5500 N   0  0  0  0  0  0  0  0  0  0  0  0
   42.4930   34.1240   36.7080 N   0  0  0  0  0  0  0  0  0  0  0  0
   42.9030   34.9800   39.5570 H   0  0  0  0  0  0  0  0  0  0  0  0
   40.2930   32.7370   37.7980 H   0  0  0  0  0  0  0  0  0  0  0  0
   43.3160   34.7040   36.4890 H   0  0  0  0  0  0  0  0  0  0  0  0
   42.0800   33.5210   35.9820 H   0  0  0  0  0  0  0  0  0  0  0  0
  2  1  1  0  0  0  0
  3  2  2  0  0  0  0
  4  3  1  0  0  0  0
  4  5  2  0  0  0  0
  5  6  1  0  0  0  0
  6  1  2  0  0  0  0
  7  8  1  0  0  0  0
  7  3  1  1  0  0  0
  7 11  1  0  0  0  0
  8  9  1  0  0  0  0
  9 10  1  0  0  0  0
 11 12  1  6  0  0  0
 11 10  1  0  0  0  0
 12 21  1  0  0  0  0
 13 12  2  0  0  0  0
 14 15  2  0  0  0  0
 14 13  1  0  0  0  0
 15 16  1  0  0  0  0
 16 17  2  0  0  0  0
 16 21  1  0  0  0  0
 17 18  1  0  0  0  0
 18 19  2  0  0  0  0
 20 19  1  0  0  0  0
 21 20  2  0  0  0  0
 22  5  1  0  0  0  0
 23 22  2  0  0  0  0
 24 25  1  0  0  0  0
 24 23  1  0  0  0  0
 25 26  2  0  0  0  0
 26 22  1  0  0  0  0
 27 25  1  0  0  0  0
 27 28  2  0  0  0  0
 29 27  1  0  0  0  0
 30 29  1  0  0  0  0
 30 31  2  0  0  0  0
 31 33  1  0  0  0  0
 32 30  1  0  0  0  0
 34 29  1  0  0  0  0
 35 32  1  0  0  0  0
 36 32  1  0  0  0  0
M  END
>  <minimizedAffinity>
-6.90307379

$$$$
