
 OpenBabel03242510013D

 33 37  0  0  0  0  0  0  0  0999 V2000
   37.7410   29.3170   41.7910 C   0  0  0  0  0  0  0  0  0  0  0  0
   38.6820   30.2340   41.3170 C   0  0  0  0  0  3  0  0  0  0  0  0
   38.4600   30.7330   40.0310 C   0  0  0  0  0  0  0  0  0  0  0  0
   37.3670   30.3000   39.3450 N   0  0  0  0  0  0  0  0  0  0  0  0
   36.4810   29.4110   39.8400 C   0  0  0  0  0  0  0  0  0  0  0  0
   36.6760   28.9200   41.0740 N   0  0  0  0  0  0  0  0  0  0  0  0
   39.3380   31.6740   39.4220 N   0  0  0  0  0  0  0  0  0  0  0  0
   39.3270   32.9890   39.7190 C   0  0  0  0  0  3  0  0  0  0  0  0
   40.2490   33.6560   39.0060 N   0  0  0  0  0  0  0  0  0  0  0  0
   40.8750   32.7390   38.2230 C   0  0  0  0  0  0  0  0  0  0  0  0
   41.8910   32.8130   37.2940 C   0  0  0  0  0  0  0  0  0  0  0  0
   42.3180   31.7080   36.6520 N   0  0  0  0  0  0  0  0  0  0  0  0
   41.7150   30.5240   36.9550 C   0  0  0  0  0  3  0  0  0  0  0  0
   40.7090   30.3820   37.8610 N   0  0  0  0  0  0  0  0  0  0  0  0
   40.2940   31.5150   38.4950 C   0  0  0  0  0  0  0  0  0  0  0  0
   35.3080   28.9720   39.0580 C   0  0  0  0  0  0  0  0  0  0  0  0
   35.2170   29.7260   37.9030 F   0  0  0  0  0  0  0  0  0  0  0  0
   34.1460   29.2580   39.7850 F   0  0  0  0  0  0  0  0  0  0  0  0
   35.2820   27.6140   38.8190 F   0  0  0  0  0  0  0  0  0  0  0  0
   42.5090   34.0790   36.9950 N   0  0  0  0  0  0  0  0  0  0  0  0
   43.2670   34.1310   36.3000 H   0  0  0  0  0  0  0  0  0  0  0  0
   42.1930   34.9330   37.4770 H   0  0  0  0  0  0  0  0  0  0  0  0
   37.9720   28.6290   43.4600 S   0  0  0  0  0  0  0  0  0  0  0  0
   38.3300   23.8940   42.1490 N   0  0  0  0  0  0  0  0  0  0  0  0
   37.1010   24.3840   41.9260 C   0  0  0  0  0  3  0  0  0  0  0  0
   37.1290   25.6870   42.3250 N   0  0  0  0  0  0  0  0  0  0  0  0
   38.3590   25.9380   42.7710 C   0  0  0  0  0  0  0  0  0  0  0  0
   38.8700   27.1060   43.2750 C   0  0  0  0  0  0  0  0  0  0  0  0
   40.1560   27.1660   43.6790 N   0  0  0  0  0  0  0  0  0  0  0  0
   40.8980   26.0440   43.5650 C   0  0  0  0  0  3  0  0  0  0  0  0
   40.4100   24.9000   43.0760 N   0  0  0  0  0  0  0  0  0  0  0  0
   39.1330   24.8300   42.6700 C   0  0  0  0  0  0  0  0  0  0  0  0
   38.6180   22.9260   41.9450 H   0  0  0  0  0  0  0  0  0  0  0  0
  1 23  1  0  0  0  0
  2  1  1  0  0  0  0
  3  2  2  0  0  0  0
  4  5  2  0  0  0  0
  4  3  1  0  0  0  0
  5  6  1  0  0  0  0
  6  1  2  0  0  0  0
  7  8  1  0  0  0  0
  7  3  1  0  0  0  0
  9  8  2  0  0  0  0
 10 15  1  0  0  0  0
 10  9  1  0  0  0  0
 11 10  2  0  0  0  0
 12 13  2  0  0  0  0
 12 11  1  0  0  0  0
 13 14  1  0  0  0  0
 14 15  2  0  0  0  0
 15  7  1  0  0  0  0
 16 18  1  0  0  0  0
 16  5  1  0  0  0  0
 17 16  1  0  0  0  0
 19 16  1  0  0  0  0
 20 11  1  0  0  0  0
 20 22  1  0  0  0  0
 21 20  1  0  0  0  0
 24 32  1  0  0  0  0
 25 24  1  0  0  0  0
 25 26  2  0  0  0  0
 26 27  1  0  0  0  0
 27 28  1  0  0  0  0
 28 23  1  0  0  0  0
 28 29  2  0  0  0  0
 30 29  1  0  0  0  0
 31 30  2  0  0  0  0
 32 27  2  0  0  0  0
 32 31  1  0  0  0  0
 33 24  1  0  0  0  0
M  END
>  <minimizedAffinity>
-7.57054234

$$$$

 OpenBabel03242510013D

 33 37  0  0  0  0  0  0  0  0999 V2000
   37.8140   29.5970   41.0470 C   0  0  0  0  0  0  0  0  0  0  0  0
   38.8410   30.4840   40.7120 C   0  0  0  0  0  3  0  0  0  0  0  0
   38.8350   30.9640   39.4000 C   0  0  0  0  0  0  0  0  0  0  0  0
   37.8520   30.5420   38.5570 N   0  0  0  0  0  0  0  0  0  0  0  0
   36.8780   29.6830   38.9210 C   0  0  0  0  0  0  0  0  0  0  0  0
   36.8650   29.2100   40.1770 N   0  0  0  0  0  0  0  0  0  0  0  0
   39.8200   31.8730   38.9220 N   0  0  0  0  0  0  0  0  0  0  0  0
   39.7960   33.1930   39.1940 C   0  0  0  0  0  3  0  0  0  0  0  0
   40.8350   33.8260   38.6240 N   0  0  0  0  0  0  0  0  0  0  0  0
   41.5530   32.8810   37.9640 C   0  0  0  0  0  0  0  0  0  0  0  0
   42.7030   32.9150   37.2040 C   0  0  0  0  0  0  0  0  0  0  0  0
   43.1970   31.7880   36.6540 N   0  0  0  0  0  0  0  0  0  0  0  0
   42.5250   30.6240   36.8760 C   0  0  0  0  0  3  0  0  0  0  0  0
   41.3860   30.5220   37.6150 N   0  0  0  0  0  0  0  0  0  0  0  0
   40.9060   31.6750   38.1590 C   0  0  0  0  0  0  0  0  0  0  0  0
   35.8310   29.2560   37.9710 C   0  0  0  0  0  0  0  0  0  0  0  0
   34.5870   29.4340   38.5470 F   0  0  0  0  0  0  0  0  0  0  0  0
   35.9510   27.8770   37.7550 F   0  0  0  0  0  0  0  0  0  0  0  0
   35.9410   29.8460   36.7300 F   0  0  0  0  0  0  0  0  0  0  0  0
   43.3920   34.1610   36.9870 N   0  0  0  0  0  0  0  0  0  0  0  0
   44.2500   34.1830   36.4180 H   0  0  0  0  0  0  0  0  0  0  0  0
   43.0250   35.0300   37.4000 H   0  0  0  0  0  0  0  0  0  0  0  0
   37.7640   28.9360   42.7420 S   0  0  0  0  0  0  0  0  0  0  0  0
   40.7030   25.0100   43.2140 N   0  0  0  0  0  0  0  0  0  0  0  0
   41.3230   26.1460   43.5660 C   0  0  0  0  0  3  0  0  0  0  0  0
   40.4160   27.1490   43.3930 N   0  0  0  0  0  0  0  0  0  0  0  0
   39.2910   26.5930   42.9480 C   0  0  0  0  0  0  0  0  0  0  0  0
   38.1010   27.1930   42.6290 C   0  0  0  0  0  0  0  0  0  0  0  0
   37.0620   26.4540   42.1890 N   0  0  0  0  0  0  0  0  0  0  0  0
   37.2490   25.1210   42.0800 C   0  0  0  0  0  3  0  0  0  0  0  0
   38.4050   24.5240   42.3880 N   0  0  0  0  0  0  0  0  0  0  0  0
   39.4440   25.2510   42.8260 C   0  0  0  0  0  0  0  0  0  0  0  0
   41.1370   24.0760   43.2380 H   0  0  0  0  0  0  0  0  0  0  0  0
  1 23  1  0  0  0  0
  2  1  1  0  0  0  0
  3  2  2  0  0  0  0
  4  5  2  0  0  0  0
  4  3  1  0  0  0  0
  5  6  1  0  0  0  0
  6  1  2  0  0  0  0
  7  8  1  0  0  0  0
  7  3  1  0  0  0  0
  9  8  2  0  0  0  0
 10 15  1  0  0  0  0
 10  9  1  0  0  0  0
 11 10  2  0  0  0  0
 12 13  2  0  0  0  0
 12 11  1  0  0  0  0
 13 14  1  0  0  0  0
 14 15  2  0  0  0  0
 15  7  1  0  0  0  0
 16 17  1  0  0  0  0
 16  5  1  0  0  0  0
 18 16  1  0  0  0  0
 19 16  1  0  0  0  0
 20 11  1  0  0  0  0
 20 22  1  0  0  0  0
 21 20  1  0  0  0  0
 24 33  1  0  0  0  0
 24 25  1  0  0  0  0
 26 25  2  0  0  0  0
 27 26  1  0  0  0  0
 28 23  1  0  0  0  0
 28 27  2  0  0  0  0
 29 28  1  0  0  0  0
 30 29  2  0  0  0  0
 30 31  1  0  0  0  0
 31 32  2  0  0  0  0
 32 27  1  0  0  0  0
 32 24  1  0  0  0  0
M  END
>  <minimizedAffinity>
-6.59768963

$$$$

 OpenBabel03242510013D

 33 37  0  0  0  0  0  0  0  0999 V2000
   37.5860   29.2940   41.5200 C   0  0  0  0  0  0  0  0  0  0  0  0
   37.3920   28.5240   40.3710 C   0  0  0  0  0  3  0  0  0  0  0  0
   37.4980   29.2000   39.1530 C   0  0  0  0  0  0  0  0  0  0  0  0
   37.7740   30.5330   39.1700 N   0  0  0  0  0  0  0  0  0  0  0  0
   37.9530   31.2410   40.3050 C   0  0  0  0  0  0  0  0  0  0  0  0
   37.8570   30.6110   41.4850 N   0  0  0  0  0  0  0  0  0  0  0  0
   37.3240   28.5410   37.9030 N   0  0  0  0  0  0  0  0  0  0  0  0
   38.2800   27.7790   37.3350 C   0  0  0  0  0  3  0  0  0  0  0  0
   37.8660   27.2740   36.1610 N   0  0  0  0  0  0  0  0  0  0  0  0
   36.6000   27.7260   35.9670 C   0  0  0  0  0  0  0  0  0  0  0  0
   35.6690   27.5540   34.9650 C   0  0  0  0  0  0  0  0  0  0  0  0
   34.4600   28.1430   35.0410 N   0  0  0  0  0  0  0  0  0  0  0  0
   34.1930   28.9070   36.1370 C   0  0  0  0  0  3  0  0  0  0  0  0
   35.0660   29.1170   37.1610 N   0  0  0  0  0  0  0  0  0  0  0  0
   36.2820   28.5120   37.0590 C   0  0  0  0  0  0  0  0  0  0  0  0
   38.2530   32.6870   40.2730 C   0  0  0  0  0  0  0  0  0  0  0  0
   37.1170   33.3850   39.9080 F   0  0  0  0  0  0  0  0  0  0  0  0
   39.1870   32.9330   39.2580 F   0  0  0  0  0  0  0  0  0  0  0  0
   38.8240   33.1560   41.4370 F   0  0  0  0  0  0  0  0  0  0  0  0
   35.9810   26.7400   33.8190 N   0  0  0  0  0  0  0  0  0  0  0  0
   35.2830   26.6140   33.0710 H   0  0  0  0  0  0  0  0  0  0  0  0
   36.9010   26.2840   33.7460 H   0  0  0  0  0  0  0  0  0  0  0  0
   37.4640   28.4730   43.1400 S   0  0  0  0  0  0  0  0  0  0  0  0
   38.5300   23.7770   42.1020 N   0  0  0  0  0  0  0  0  0  0  0  0
   37.2700   24.0920   41.7650 C   0  0  0  0  0  3  0  0  0  0  0  0
   37.0990   25.4020   42.0990 N   0  0  0  0  0  0  0  0  0  0  0  0
   38.2470   25.8320   42.6190 C   0  0  0  0  0  0  0  0  0  0  0  0
   38.5620   27.0760   43.0990 C   0  0  0  0  0  0  0  0  0  0  0  0
   39.7940   27.3230   43.5920 N   0  0  0  0  0  0  0  0  0  0  0  0
   40.6800   26.3050   43.5910 C   0  0  0  0  0  3  0  0  0  0  0  0
   40.3840   25.0860   43.1260 N   0  0  0  0  0  0  0  0  0  0  0  0
   39.1620   24.8320   42.6330 C   0  0  0  0  0  0  0  0  0  0  0  0
   38.9550   22.8480   41.9700 H   0  0  0  0  0  0  0  0  0  0  0  0
  1 23  1  0  0  0  0
  2  1  2  0  0  0  0
  3  4  2  0  0  0  0
  3  2  1  0  0  0  0
  4  5  1  0  0  0  0
  5  6  2  0  0  0  0
  6  1  1  0  0  0  0
  7  3  1  0  0  0  0
  8  7  1  0  0  0  0
  9  8  2  0  0  0  0
 10  9  1  0  0  0  0
 10 15  1  0  0  0  0
 11 12  1  0  0  0  0
 11 10  2  0  0  0  0
 12 13  2  0  0  0  0
 13 14  1  0  0  0  0
 15 14  2  0  0  0  0
 15  7  1  0  0  0  0
 16  5  1  0  0  0  0
 16 19  1  0  0  0  0
 17 16  1  0  0  0  0
 18 16  1  0  0  0  0
 20 11  1  0  0  0  0
 21 20  1  0  0  0  0
 22 20  1  0  0  0  0
 24 32  1  0  0  0  0
 25 26  2  0  0  0  0
 25 24  1  0  0  0  0
 26 27  1  0  0  0  0
 27 32  2  0  0  0  0
 27 28  1  0  0  0  0
 28 23  1  0  0  0  0
 28 29  2  0  0  0  0
 30 29  1  0  0  0  0
 31 30  2  0  0  0  0
 32 31  1  0  0  0  0
 33 24  1  0  0  0  0
M  END
>  <minimizedAffinity>
-6.52349663

$$$$

 OpenBabel03242510013D

 33 37  0  0  0  0  0  0  0  0999 V2000
   37.9290   29.5200   41.4620 C   0  0  0  0  0  0  0  0  0  0  0  0
   37.7120   28.7240   40.3340 C   0  0  0  0  0  3  0  0  0  0  0  0
   37.7090   29.3880   39.1050 C   0  0  0  0  0  0  0  0  0  0  0  0
   37.9110   30.7350   39.0920 N   0  0  0  0  0  0  0  0  0  0  0  0
   38.1160   31.4670   40.2060 C   0  0  0  0  0  0  0  0  0  0  0  0
   38.1240   30.8490   41.3970 N   0  0  0  0  0  0  0  0  0  0  0  0
   37.5010   28.7040   37.8740 N   0  0  0  0  0  0  0  0  0  0  0  0
   38.4630   27.9870   37.2590 C   0  0  0  0  0  3  0  0  0  0  0  0
   38.0100   27.4450   36.1170 N   0  0  0  0  0  0  0  0  0  0  0  0
   36.7120   27.8240   35.9930 C   0  0  0  0  0  0  0  0  0  0  0  0
   35.7360   27.5870   35.0490 C   0  0  0  0  0  0  0  0  0  0  0  0
   34.5020   28.1090   35.1890 N   0  0  0  0  0  0  0  0  0  0  0  0
   34.2570   28.8730   36.2910 C   0  0  0  0  0  3  0  0  0  0  0  0
   35.1740   29.1440   37.2590 N   0  0  0  0  0  0  0  0  0  0  0  0
   36.4150   28.6060   37.0930 C   0  0  0  0  0  0  0  0  0  0  0  0
   38.3330   32.9270   40.1420 C   0  0  0  0  0  0  0  0  0  0  0  0
   39.3910   33.1980   39.2950 F   0  0  0  0  0  0  0  0  0  0  0  0
   38.7370   33.3810   41.4040 F   0  0  0  0  0  0  0  0  0  0  0  0
   37.1950   33.6390   39.8280 F   0  0  0  0  0  0  0  0  0  0  0  0
   36.0250   26.7750   33.8940 N   0  0  0  0  0  0  0  0  0  0  0  0
   35.2940   26.6010   33.1910 H   0  0  0  0  0  0  0  0  0  0  0  0
   36.9640   26.3700   33.7730 H   0  0  0  0  0  0  0  0  0  0  0  0
   37.9470   28.7160   43.0940 S   0  0  0  0  0  0  0  0  0  0  0  0
   40.6470   24.5980   42.9820 N   0  0  0  0  0  0  0  0  0  0  0  0
   41.3700   25.6600   43.3660 C   0  0  0  0  0  3  0  0  0  0  0  0
   40.5200   26.7260   43.3570 N   0  0  0  0  0  0  0  0  0  0  0  0
   39.3260   26.2780   42.9730 C   0  0  0  0  0  0  0  0  0  0  0  0
   38.1560   26.9730   42.8130 C   0  0  0  0  0  0  0  0  0  0  0  0
   37.0360   26.3370   42.4120 N   0  0  0  0  0  0  0  0  0  0  0  0
   37.1240   25.0100   42.1800 C   0  0  0  0  0  3  0  0  0  0  0  0
   38.2590   24.3210   42.3320 N   0  0  0  0  0  0  0  0  0  0  0  0
   39.3780   24.9450   42.7310 C   0  0  0  0  0  0  0  0  0  0  0  0
   41.0190   23.6410   42.8920 H   0  0  0  0  0  0  0  0  0  0  0  0
  1 23  1  0  0  0  0
  2  1  2  0  0  0  0
  3  2  1  0  0  0  0
  4  3  2  0  0  0  0
  4  5  1  0  0  0  0
  5  6  2  0  0  0  0
  6  1  1  0  0  0  0
  7  3  1  0  0  0  0
  8  7  1  0  0  0  0
  9  8  2  0  0  0  0
 10  9  1  0  0  0  0
 10 15  1  0  0  0  0
 11 12  1  0  0  0  0
 11 10  2  0  0  0  0
 12 13  2  0  0  0  0
 13 14  1  0  0  0  0
 15 14  2  0  0  0  0
 15  7  1  0  0  0  0
 16  5  1  0  0  0  0
 16 18  1  0  0  0  0
 17 16  1  0  0  0  0
 19 16  1  0  0  0  0
 20 11  1  0  0  0  0
 21 20  1  0  0  0  0
 22 20  1  0  0  0  0
 24 25  1  0  0  0  0
 26 25  2  0  0  0  0
 27 26  1  0  0  0  0
 28 27  1  0  0  0  0
 28 23  1  0  0  0  0
 29 28  2  0  0  0  0
 30 31  2  0  0  0  0
 30 29  1  0  0  0  0
 31 32  1  0  0  0  0
 32 27  2  0  0  0  0
 32 24  1  0  0  0  0
 33 24  1  0  0  0  0
M  END
>  <minimizedAffinity>
-6.40710211

$$$$

 OpenBabel03242510013D

 33 37  0  0  0  0  0  0  0  0999 V2000
   33.3950   28.5880   36.6430 C   0  0  0  0  0  0  0  0  0  0  0  0
   33.7880   28.7780   37.9700 C   0  0  0  0  0  3  0  0  0  0  0  0
   35.1520   28.9950   38.1810 C   0  0  0  0  0  0  0  0  0  0  0  0
   35.9850   29.0040   37.1040 N   0  0  0  0  0  0  0  0  0  0  0  0
   35.5630   28.8150   35.8360 C   0  0  0  0  0  0  0  0  0  0  0  0
   34.2560   28.6060   35.6110 N   0  0  0  0  0  0  0  0  0  0  0  0
   35.6940   29.2040   39.4810 N   0  0  0  0  0  0  0  0  0  0  0  0
   35.6090   30.3820   40.1320 C   0  0  0  0  0  3  0  0  0  0  0  0
   36.1990   30.3150   41.3370 N   0  0  0  0  0  0  0  0  0  0  0  0
   36.6800   29.0510   41.4660 C   0  0  0  0  0  0  0  0  0  0  0  0
   37.3690   28.3900   42.4600 C   0  0  0  0  0  0  0  0  0  0  0  0
   37.7280   27.1010   42.3080 N   0  0  0  0  0  0  0  0  0  0  0  0
   37.3870   26.4790   41.1440 C   0  0  0  0  0  3  0  0  0  0  0  0
   36.7080   27.0730   40.1250 N   0  0  0  0  0  0  0  0  0  0  0  0
   36.3570   28.3780   40.3030 C   0  0  0  0  0  0  0  0  0  0  0  0
   36.5040   28.8350   34.6980 C   0  0  0  0  0  0  0  0  0  0  0  0
   37.7550   28.4360   35.1290 F   0  0  0  0  0  0  0  0  0  0  0  0
   36.6600   30.1580   34.2640 F   0  0  0  0  0  0  0  0  0  0  0  0
   36.0580   28.1250   33.6030 F   0  0  0  0  0  0  0  0  0  0  0  0
   37.7150   29.0740   43.6800 N   0  0  0  0  0  0  0  0  0  0  0  0
   38.2310   28.5780   44.4200 H   0  0  0  0  0  0  0  0  0  0  0  0
   37.4480   30.0600   43.8110 H   0  0  0  0  0  0  0  0  0  0  0  0
   31.6310   28.3010   36.2990 S   0  0  0  0  0  0  0  0  0  0  0  0
   30.0950   32.9410   35.6790 N   0  0  0  0  0  0  0  0  0  0  0  0
   30.8330   32.5140   34.6430 C   0  0  0  0  0  3  0  0  0  0  0  0
   31.1940   31.2320   34.9310 N   0  0  0  0  0  0  0  0  0  0  0  0
   30.6680   30.9290   36.1170 C   0  0  0  0  0  0  0  0  0  0  0  0
   30.7560   29.7580   36.8230 C   0  0  0  0  0  0  0  0  0  0  0  0
   30.1470   29.6390   38.0220 N   0  0  0  0  0  0  0  0  0  0  0  0
   29.4640   30.7090   38.4810 C   0  0  0  0  0  3  0  0  0  0  0  0
   29.3720   31.8570   37.8010 N   0  0  0  0  0  0  0  0  0  0  0  0
   29.9730   31.9840   36.6080 C   0  0  0  0  0  0  0  0  0  0  0  0
   29.6760   33.8800   35.7510 H   0  0  0  0  0  0  0  0  0  0  0  0
  1  2  1  0  0  0  0
  2  3  2  0  0  0  0
  3  7  1  0  0  0  0
  4  3  1  0  0  0  0
  5  4  2  0  0  0  0
  6  5  1  0  0  0  0
  6  1  2  0  0  0  0
  7  8  1  0  0  0  0
  7 15  1  0  0  0  0
  8  9  2  0  0  0  0
  9 10  1  0  0  0  0
 10 11  1  0  0  0  0
 11 20  1  0  0  0  0
 12 11  2  0  0  0  0
 13 12  1  0  0  0  0
 14 15  1  0  0  0  0
 14 13  2  0  0  0  0
 15 10  2  0  0  0  0
 16 17  1  0  0  0  0
 16  5  1  0  0  0  0
 18 16  1  0  0  0  0
 19 16  1  0  0  0  0
 20 22  1  0  0  0  0
 20 21  1  0  0  0  0
 23  1  1  0  0  0  0
 23 28  1  0  0  0  0
 24 33  1  0  0  0  0
 24 32  1  0  0  0  0
 25 26  2  0  0  0  0
 25 24  1  0  0  0  0
 26 27  1  0  0  0  0
 27 32  2  0  0  0  0
 27 28  1  0  0  0  0
 28 29  2  0  0  0  0
 29 30  1  0  0  0  0
 31 30  2  0  0  0  0
 32 31  1  0  0  0  0
M  END
>  <minimizedAffinity>
-6.34204149

$$$$

 OpenBabel03242510013D

 33 37  0  0  0  0  0  0  0  0999 V2000
   39.5460   28.4640   41.1050 C   0  0  0  0  0  0  0  0  0  0  0  0
   38.3870   28.8940   40.4530 C   0  0  0  0  0  3  0  0  0  0  0  0
   37.3250   27.9880   40.4250 C   0  0  0  0  0  0  0  0  0  0  0  0
   37.4900   26.7740   41.0210 N   0  0  0  0  0  0  0  0  0  0  0  0
   38.6270   26.3970   41.6400 C   0  0  0  0  0  0  0  0  0  0  0  0
   39.6600   27.2540   41.6790 N   0  0  0  0  0  0  0  0  0  0  0  0
   36.0850   28.2920   39.7960 N   0  0  0  0  0  0  0  0  0  0  0  0
   35.1440   29.0710   40.3640 C   0  0  0  0  0  3  0  0  0  0  0  0
   34.0710   29.2000   39.5660 N   0  0  0  0  0  0  0  0  0  0  0  0
   34.3310   28.4790   38.4450 C   0  0  0  0  0  0  0  0  0  0  0  0
   33.6260   28.2290   37.2870 C   0  0  0  0  0  0  0  0  0  0  0  0
   34.1480   27.4520   36.3180 N   0  0  0  0  0  0  0  0  0  0  0  0
   35.3880   26.9260   36.5230 C   0  0  0  0  0  3  0  0  0  0  0  0
   36.1360   27.1330   37.6420 N   0  0  0  0  0  0  0  0  0  0  0  0
   35.5860   27.9210   38.6070 C   0  0  0  0  0  0  0  0  0  0  0  0
   38.7580   25.0700   42.2750 C   0  0  0  0  0  0  0  0  0  0  0  0
   39.4240   25.2000   43.4790 F   0  0  0  0  0  0  0  0  0  0  0  0
   39.5810   24.2650   41.4760 F   0  0  0  0  0  0  0  0  0  0  0  0
   37.5610   24.3950   42.3890 F   0  0  0  0  0  0  0  0  0  0  0  0
   32.3170   28.8000   37.0980 N   0  0  0  0  0  0  0  0  0  0  0  0
   31.7930   28.6110   36.2320 H   0  0  0  0  0  0  0  0  0  0  0  0
   31.9050   29.3960   37.8300 H   0  0  0  0  0  0  0  0  0  0  0  0
   40.9670   29.5990   41.1770 S   0  0  0  0  0  0  0  0  0  0  0  0
   40.6270   32.8780   37.5160 N   0  0  0  0  0  0  0  0  0  0  0  0
   41.3130   31.7860   37.1490 C   0  0  0  0  0  3  0  0  0  0  0  0
   41.3380   30.9640   38.2360 N   0  0  0  0  0  0  0  0  0  0  0  0
   40.6730   31.5790   39.2130 C   0  0  0  0  0  0  0  0  0  0  0  0
   40.4290   31.1490   40.4910 C   0  0  0  0  0  0  0  0  0  0  0  0
   39.7280   31.9220   41.3460 N   0  0  0  0  0  0  0  0  0  0  0  0
   39.2870   33.1140   40.8900 C   0  0  0  0  0  3  0  0  0  0  0  0
   39.5190   33.5440   39.6450 N   0  0  0  0  0  0  0  0  0  0  0  0
   40.2160   32.7820   38.7870 C   0  0  0  0  0  0  0  0  0  0  0  0
   40.4400   33.6840   36.9020 H   0  0  0  0  0  0  0  0  0  0  0  0
  1 23  1  0  0  0  0
  1  6  1  0  0  0  0
  2  1  2  0  0  0  0
  3  2  1  0  0  0  0
  3  4  2  0  0  0  0
  4  5  1  0  0  0  0
  5  6  2  0  0  0  0
  5 16  1  0  0  0  0
  7  8  1  0  0  0  0
  7  3  1  0  0  0  0
  9  8  2  0  0  0  0
 10 15  1  0  0  0  0
 10  9  1  0  0  0  0
 11 10  2  0  0  0  0
 12 13  2  0  0  0  0
 12 11  1  0  0  0  0
 13 14  1  0  0  0  0
 14 15  2  0  0  0  0
 15  7  1  0  0  0  0
 16 19  1  0  0  0  0
 16 17  1  0  0  0  0
 18 16  1  0  0  0  0
 20 11  1  0  0  0  0
 20 22  1  0  0  0  0
 21 20  1  0  0  0  0
 24 32  1  0  0  0  0
 25 24  1  0  0  0  0
 25 26  2  0  0  0  0
 26 27  1  0  0  0  0
 27 28  1  0  0  0  0
 28 23  1  0  0  0  0
 28 29  2  0  0  0  0
 30 29  1  0  0  0  0
 31 30  2  0  0  0  0
 32 27  2  0  0  0  0
 32 31  1  0  0  0  0
 33 24  1  0  0  0  0
M  END
>  <minimizedAffinity>
-6.20775461

$$$$

 OpenBabel03242510013D

 33 37  0  0  0  0  0  0  0  0999 V2000
   38.0920   28.7500   41.7050 C   0  0  0  0  0  0  0  0  0  0  0  0
   37.2620   29.1480   40.6540 C   0  0  0  0  0  3  0  0  0  0  0  0
   36.5360   28.1320   40.0260 C   0  0  0  0  0  0  0  0  0  0  0  0
   36.6880   26.8540   40.4710 N   0  0  0  0  0  0  0  0  0  0  0  0
   37.5020   26.5120   41.4910 C   0  0  0  0  0  0  0  0  0  0  0  0
   38.2070   27.4730   42.1080 N   0  0  0  0  0  0  0  0  0  0  0  0
   35.6520   28.3920   38.9410 N   0  0  0  0  0  0  0  0  0  0  0  0
   34.4150   28.9000   39.1070 C   0  0  0  0  0  3  0  0  0  0  0  0
   33.7880   29.0470   37.9280 N   0  0  0  0  0  0  0  0  0  0  0  0
   34.6510   28.6200   36.9710 C   0  0  0  0  0  0  0  0  0  0  0  0
   34.5820   28.5280   35.5970 C   0  0  0  0  0  0  0  0  0  0  0  0
   35.6220   28.0490   34.8870 N   0  0  0  0  0  0  0  0  0  0  0  0
   36.7360   27.6640   35.5710 C   0  0  0  0  0  3  0  0  0  0  0  0
   36.8690   27.7300   36.9250 N   0  0  0  0  0  0  0  0  0  0  0  0
   35.8030   28.2160   37.6200 C   0  0  0  0  0  0  0  0  0  0  0  0
   37.6310   25.1110   41.9400 C   0  0  0  0  0  0  0  0  0  0  0  0
   36.4620   24.7190   42.5640 F   0  0  0  0  0  0  0  0  0  0  0  0
   38.6240   25.0410   42.9250 F   0  0  0  0  0  0  0  0  0  0  0  0
   38.0250   24.2470   40.9400 F   0  0  0  0  0  0  0  0  0  0  0  0
   33.3910   28.9430   34.9020 N   0  0  0  0  0  0  0  0  0  0  0  0
   33.3430   28.8720   33.8750 H   0  0  0  0  0  0  0  0  0  0  0  0
   32.5880   29.3100   35.4310 H   0  0  0  0  0  0  0  0  0  0  0  0
   39.0630   30.0260   42.5660 S   0  0  0  0  0  0  0  0  0  0  0  0
   39.4680   33.7470   39.3650 N   0  0  0  0  0  0  0  0  0  0  0  0
   38.3020   33.7810   40.0270 C   0  0  0  0  0  3  0  0  0  0  0  0
   38.3100   32.7120   40.8730 N   0  0  0  0  0  0  0  0  0  0  0  0
   39.4670   32.0760   40.6960 C   0  0  0  0  0  0  0  0  0  0  0  0
   39.9330   30.9470   41.3190 C   0  0  0  0  0  0  0  0  0  0  0  0
   41.1450   30.4470   41.0020 N   0  0  0  0  0  0  0  0  0  0  0  0
   41.8610   31.0980   40.0610 C   0  0  0  0  0  3  0  0  0  0  0  0
   41.4170   32.2000   39.4460 N   0  0  0  0  0  0  0  0  0  0  0  0
   40.2130   32.7050   39.7550 C   0  0  0  0  0  0  0  0  0  0  0  0
   39.7530   34.4330   38.6500 H   0  0  0  0  0  0  0  0  0  0  0  0
  1  6  1  0  0  0  0
  1 23  1  0  0  0  0
  2  1  2  0  0  0  0
  3  4  2  0  0  0  0
  3  2  1  0  0  0  0
  4  5  1  0  0  0  0
  5 16  1  0  0  0  0
  5  6  2  0  0  0  0
  7  8  1  0  0  0  0
  7  3  1  0  0  0  0
  9  8  2  0  0  0  0
 10 15  1  0  0  0  0
 10  9  1  0  0  0  0
 11 10  2  0  0  0  0
 12 13  2  0  0  0  0
 12 11  1  0  0  0  0
 13 14  1  0  0  0  0
 14 15  2  0  0  0  0
 15  7  1  0  0  0  0
 16 17  1  0  0  0  0
 16 18  1  0  0  0  0
 19 16  1  0  0  0  0
 20 22  1  0  0  0  0
 20 11  1  0  0  0  0
 21 20  1  0  0  0  0
 24 32  1  0  0  0  0
 24 25  1  0  0  0  0
 25 26  2  0  0  0  0
 27 26  1  0  0  0  0
 27 28  1  0  0  0  0
 28 23  1  0  0  0  0
 29 28  2  0  0  0  0
 30 29  1  0  0  0  0
 31 32  1  0  0  0  0
 31 30  2  0  0  0  0
 32 27  2  0  0  0  0
 33 24  1  0  0  0  0
M  END
>  <minimizedAffinity>
-6.04921913

$$$$

 OpenBabel03242510013D

 33 37  0  0  0  0  0  0  0  0999 V2000
   37.1840   27.1550   39.1380 C   0  0  0  0  0  0  0  0  0  0  0  0
   38.0630   28.2130   38.8940 C   0  0  0  0  0  3  0  0  0  0  0  0
   38.6130   28.8280   40.0210 C   0  0  0  0  0  0  0  0  0  0  0  0
   38.2600   28.3650   41.2530 N   0  0  0  0  0  0  0  0  0  0  0  0
   37.4060   27.3390   41.4450 C   0  0  0  0  0  0  0  0  0  0  0  0
   36.8670   26.7340   40.3750 N   0  0  0  0  0  0  0  0  0  0  0  0
   39.5230   29.9180   39.9220 N   0  0  0  0  0  0  0  0  0  0  0  0
   40.8270   29.7610   39.6170 C   0  0  0  0  0  3  0  0  0  0  0  0
   41.4650   30.9420   39.5880 N   0  0  0  0  0  0  0  0  0  0  0  0
   40.5410   31.8920   39.8850 C   0  0  0  0  0  0  0  0  0  0  0  0
   40.5890   33.2650   40.0060 C   0  0  0  0  0  0  0  0  0  0  0  0
   39.4820   33.9670   40.3210 N   0  0  0  0  0  0  0  0  0  0  0  0
   38.3240   33.2750   40.5120 C   0  0  0  0  0  3  0  0  0  0  0  0
   38.2090   31.9230   40.4080 N   0  0  0  0  0  0  0  0  0  0  0  0
   39.3410   31.2360   40.0900 C   0  0  0  0  0  0  0  0  0  0  0  0
   37.0550   26.8690   42.8010 C   0  0  0  0  0  0  0  0  0  0  0  0
   38.1830   26.8880   43.6000 F   0  0  0  0  0  0  0  0  0  0  0  0
   36.6690   25.5250   42.7290 F   0  0  0  0  0  0  0  0  0  0  0  0
   35.9880   27.5420   43.3570 F   0  0  0  0  0  0  0  0  0  0  0  0
   41.8280   33.9680   39.7970 N   0  0  0  0  0  0  0  0  0  0  0  0
   41.8610   34.9930   39.8890 H   0  0  0  0  0  0  0  0  0  0  0  0
   42.6820   33.4450   39.5560 H   0  0  0  0  0  0  0  0  0  0  0  0
   36.4330   26.3100   37.7120 S   0  0  0  0  0  0  0  0  0  0  0  0
   35.3420   29.7380   34.3460 N   0  0  0  0  0  0  0  0  0  0  0  0
   36.6010   29.2930   34.2180 C   0  0  0  0  0  3  0  0  0  0  0  0
   36.7790   28.3590   35.1950 N   0  0  0  0  0  0  0  0  0  0  0  0
   35.6360   28.2720   35.8730 C   0  0  0  0  0  0  0  0  0  0  0  0
   35.3290   27.4720   36.9420 C   0  0  0  0  0  0  0  0  0  0  0  0
   34.1010   27.5260   37.5010 N   0  0  0  0  0  0  0  0  0  0  0  0
   33.2110   28.3870   36.9650 C   0  0  0  0  0  3  0  0  0  0  0  0
   33.5000   29.1730   35.9220 N   0  0  0  0  0  0  0  0  0  0  0  0
   34.7170   29.1260   35.3600 C   0  0  0  0  0  0  0  0  0  0  0  0
   34.9130   30.4550   33.7430 H   0  0  0  0  0  0  0  0  0  0  0  0
  1  6  1  0  0  0  0
  2  1  2  0  0  0  0
  2  3  1  0  0  0  0
  3  4  2  0  0  0  0
  4  5  1  0  0  0  0
  5 16  1  0  0  0  0
  6  5  2  0  0  0  0
  7  3  1  0  0  0  0
  7 15  1  0  0  0  0
  8  7  1  0  0  0  0
  9  8  2  0  0  0  0
  9 10  1  0  0  0  0
 10 11  2  0  0  0  0
 10 15  1  0  0  0  0
 11 12  1  0  0  0  0
 12 13  2  0  0  0  0
 14 13  1  0  0  0  0
 15 14  2  0  0  0  0
 16 19  1  0  0  0  0
 16 17  1  0  0  0  0
 18 16  1  0  0  0  0
 20 21  1  0  0  0  0
 20 11  1  0  0  0  0
 22 20  1  0  0  0  0
 23  1  1  0  0  0  0
 24 32  1  0  0  0  0
 25 24  1  0  0  0  0
 25 26  2  0  0  0  0
 26 27  1  0  0  0  0
 27 28  1  0  0  0  0
 28 29  2  0  0  0  0
 28 23  1  0  0  0  0
 30 29  1  0  0  0  0
 31 30  2  0  0  0  0
 32 27  2  0  0  0  0
 32 31  1  0  0  0  0
 33 24  1  0  0  0  0
M  END
>  <minimizedAffinity>
-6.03373623

$$$$

 OpenBabel03242510013D

 33 37  0  0  0  0  0  0  0  0999 V2000
   36.2620   29.4370   39.0360 C   0  0  0  0  0  0  0  0  0  0  0  0
   37.5380   30.0060   39.0280 C   0  0  0  0  0  3  0  0  0  0  0  0
   38.0730   30.2960   37.7700 C   0  0  0  0  0  0  0  0  0  0  0  0
   37.3310   30.0090   36.6650 N   0  0  0  0  0  0  0  0  0  0  0  0
   36.1010   29.4570   36.7170 C   0  0  0  0  0  0  0  0  0  0  0  0
   35.5680   29.1710   37.9150 N   0  0  0  0  0  0  0  0  0  0  0  0
   39.3620   30.8780   37.6110 N   0  0  0  0  0  0  0  0  0  0  0  0
   39.6040   32.1910   37.7970 C   0  0  0  0  0  3  0  0  0  0  0  0
   40.8980   32.4820   37.5840 N   0  0  0  0  0  0  0  0  0  0  0  0
   41.5100   31.3160   37.2500 C   0  0  0  0  0  0  0  0  0  0  0  0
   42.8060   30.9790   36.9230 C   0  0  0  0  0  0  0  0  0  0  0  0
   43.1320   29.7060   36.6260 N   0  0  0  0  0  0  0  0  0  0  0  0
   42.1410   28.7720   36.6620 C   0  0  0  0  0  3  0  0  0  0  0  0
   40.8430   29.0380   36.9760 N   0  0  0  0  0  0  0  0  0  0  0  0
   40.5400   30.3320   37.2710 C   0  0  0  0  0  0  0  0  0  0  0  0
   35.3330   29.1650   35.4900 C   0  0  0  0  0  0  0  0  0  0  0  0
   35.7750   27.9750   34.9430 F   0  0  0  0  0  0  0  0  0  0  0  0
   35.6190   30.1480   34.5330 F   0  0  0  0  0  0  0  0  0  0  0  0
   33.9670   29.2010   35.6750 F   0  0  0  0  0  0  0  0  0  0  0  0
   43.8320   31.9900   36.8940 N   0  0  0  0  0  0  0  0  0  0  0  0
   44.8000   31.7350   36.6490 H   0  0  0  0  0  0  0  0  0  0  0  0
   43.5990   32.9670   37.1180 H   0  0  0  0  0  0  0  0  0  0  0  0
   35.5070   29.0350   40.6430 S   0  0  0  0  0  0  0  0  0  0  0  0
   38.5210   25.5130   42.3110 N   0  0  0  0  0  0  0  0  0  0  0  0
   37.6990   25.0580   41.3540 C   0  0  0  0  0  3  0  0  0  0  0  0
   36.9240   26.1140   40.9780 N   0  0  0  0  0  0  0  0  0  0  0  0
   37.2980   27.1610   41.7120 C   0  0  0  0  0  0  0  0  0  0  0  0
   36.8110   28.4410   41.6960 C   0  0  0  0  0  0  0  0  0  0  0  0
   37.3250   29.3750   42.5240 N   0  0  0  0  0  0  0  0  0  0  0  0
   38.3200   28.9930   43.3510 C   0  0  0  0  0  3  0  0  0  0  0  0
   38.8030   27.7460   43.3770 N   0  0  0  0  0  0  0  0  0  0  0  0
   38.2990   26.8110   42.5570 C   0  0  0  0  0  0  0  0  0  0  0  0
   39.2290   24.9410   42.7940 H   0  0  0  0  0  0  0  0  0  0  0  0
  1 23  1  0  0  0  0
  2  1  1  0  0  0  0
  3  2  2  0  0  0  0
  4  5  2  0  0  0  0
  4  3  1  0  0  0  0
  5  6  1  0  0  0  0
  6  1  2  0  0  0  0
  7  3  1  0  0  0  0
  7  8  1  0  0  0  0
  9  8  2  0  0  0  0
 10 15  1  0  0  0  0
 10  9  1  0  0  0  0
 11 10  2  0  0  0  0
 12 13  2  0  0  0  0
 12 11  1  0  0  0  0
 13 14  1  0  0  0  0
 14 15  2  0  0  0  0
 15  7  1  0  0  0  0
 16 19  1  0  0  0  0
 16  5  1  0  0  0  0
 17 16  1  0  0  0  0
 18 16  1  0  0  0  0
 20 11  1  0  0  0  0
 20 22  1  0  0  0  0
 21 20  1  0  0  0  0
 23 28  1  0  0  0  0
 24 32  1  0  0  0  0
 24 33  1  0  0  0  0
 25 24  1  0  0  0  0
 26 25  2  0  0  0  0
 26 27  1  0  0  0  0
 27 32  1  0  0  0  0
 28 27  2  0  0  0  0
 28 29  1  0  0  0  0
 29 30  2  0  0  0  0
 30 31  1  0  0  0  0
 32 31  2  0  0  0  0
M  END
>  <minimizedAffinity>
-6.0038805

$$$$
