
 OpenBabel03242510123D

 36 40  0  0  1  0  0  0  0  0999 V2000
   36.5540   28.0290   38.6450 C   0  0  0  0  0  3  0  0  0  0  0  0
   36.4900   27.1900   39.7680 C   0  0  0  0  0  3  0  0  0  0  0  0
   36.9380   27.6810   41.0080 C   0  0  0  0  0  0  0  0  0  0  0  0
   37.4160   28.9350   41.0910 N   0  0  0  0  0  0  0  0  0  0  0  0
   37.4580   29.7130   39.9700 C   0  0  0  0  0  0  0  0  0  0  0  0
   37.0320   29.2670   38.7600 N   0  0  0  0  0  0  0  0  0  0  0  0
   36.8750   26.8320   42.1950 C   0  0  2  0  0  3  0  0  0  0  0  0
   36.5720   27.5140   43.4650 C   0  0  0  0  0  2  0  0  0  0  0  0
   37.9140   27.8900   44.0760 C   0  0  0  0  0  2  0  0  0  0  0  0
   38.8540   26.8130   43.6040 C   0  0  0  0  0  2  0  0  0  0  0  0
   38.1160   26.0690   42.5270 C   0  0  2  0  0  3  0  0  0  0  0  0
   39.0190   25.7810   41.4210 C   0  0  0  0  0  0  0  0  0  0  0  0
   40.0580   26.5780   41.0000 C   0  0  0  0  0  3  0  0  0  0  0  0
   40.9180   26.3020   39.9600 C   0  0  0  0  0  3  0  0  0  0  0  0
   40.7590   25.1260   39.2450 C   0  0  0  0  0  3  0  0  0  0  0  0
   39.7330   24.2850   39.6190 C   0  0  0  0  0  0  0  0  0  0  0  0
   39.6120   23.1310   38.8740 C   0  0  0  0  0  3  0  0  0  0  0  0
   38.6120   22.2300   39.1710 C   0  0  0  0  0  3  0  0  0  0  0  0
   37.7510   22.5100   40.2140 C   0  0  0  0  0  3  0  0  0  0  0  0
   37.9220   23.6820   40.9200 C   0  0  0  0  0  3  0  0  0  0  0  0
   38.9050   24.6160   40.6680 C   0  0  0  0  0  0  0  0  0  0  0  0
   37.9660   31.0960   40.0060 C   0  0  0  0  0  0  0  0  0  0  0  0
   37.3760   32.2620   40.3210 N   0  0  0  0  0  0  0  0  0  0  0  0
   38.2240   33.2470   40.2090 O   0  0  0  0  0  0  0  0  0  0  0  0
   39.3910   32.7690   39.8200 C   0  0  0  0  0  0  0  0  0  0  0  0
   39.2300   31.4220   39.6930 N   0  0  0  0  0  0  0  0  0  0  0  0
   40.5630   33.5750   39.5940 C   0  0  0  0  0  0  0  0  0  0  0  0
   41.1860   34.1260   40.4680 O   0  0  0  0  0  0  0  0  0  0  0  0
   40.8880   33.6390   38.2410 N   0  0  0  0  0  0  0  0  0  0  0  0
   42.1520   34.2560   37.9930 C   0  0  0  0  0  0  0  0  0  0  0  0
   43.0650   34.7810   38.6870 N   0  0  0  0  0  0  0  0  0  0  0  0
   42.7280   34.4250   36.6980 N   0  0  0  0  0  0  0  0  0  0  0  0
   43.2580   34.4760   39.6480 H   0  0  0  0  0  0  0  0  0  0  0  0
   40.2780   33.2780   37.4950 H   0  0  0  0  0  0  0  0  0  0  0  0
   43.6460   34.8810   36.5990 H   0  0  0  0  0  0  0  0  0  0  0  0
   42.2260   34.0910   35.8640 H   0  0  0  0  0  0  0  0  0  0  0  0
  1  6  2  0  0  0  0
  1  2  1  0  0  0  0
  2  3  2  0  0  0  0
  3  4  1  0  0  0  0
  5 22  1  0  0  0  0
  5  4  2  0  0  0  0
  6  5  1  0  0  0  0
  7  3  1  6  0  0  0
  7 11  1  0  0  0  0
  7  8  1  0  0  0  0
  8  9  1  0  0  0  0
 10  9  1  0  0  0  0
 11 12  1  6  0  0  0
 11 10  1  0  0  0  0
 13 12  1  0  0  0  0
 14 13  2  0  0  0  0
 15 16  2  0  0  0  0
 15 14  1  0  0  0  0
 16 21  1  0  0  0  0
 17 18  2  0  0  0  0
 17 16  1  0  0  0  0
 18 19  1  0  0  0  0
 19 20  2  0  0  0  0
 21 20  1  0  0  0  0
 21 12  2  0  0  0  0
 22 23  2  0  0  0  0
 24 23  1  0  0  0  0
 25 24  1  0  0  0  0
 26 25  2  0  0  0  0
 26 22  1  0  0  0  0
 27 25  1  0  0  0  0
 27 28  2  0  0  0  0
 29 27  1  0  0  0  0
 30 29  1  0  0  0  0
 30 31  2  0  0  0  0
 31 33  1  0  0  0  0
 32 30  1  0  0  0  0
 34 29  1  0  0  0  0
 35 32  1  0  0  0  0
 36 32  1  0  0  0  0
M  END
>  <minimizedAffinity>
-8.20065308

$$$$

 OpenBabel03242510123D

 36 40  0  0  1  0  0  0  0  0999 V2000
   41.4450   25.4150   38.8070 C   0  0  0  0  0  3  0  0  0  0  0  0
   40.7000   24.4040   39.4310 C   0  0  0  0  0  3  0  0  0  0  0  0
   39.3190   24.5960   39.6190 C   0  0  0  0  0  0  0  0  0  0  0  0
   38.7450   25.7380   39.2000 N   0  0  0  0  0  0  0  0  0  0  0  0
   39.5130   26.6930   38.5970 C   0  0  0  0  0  0  0  0  0  0  0  0
   40.8490   26.5350   38.4020 N   0  0  0  0  0  0  0  0  0  0  0  0
   38.5180   23.5560   40.2570 C   0  0  2  0  0  3  0  0  0  0  0  0
   37.2990   23.1420   39.5400 C   0  0  0  0  0  2  0  0  0  0  0  0
   36.1760   24.0230   40.0670 C   0  0  0  0  0  2  0  0  0  0  0  0
   36.5670   24.3140   41.4910 C   0  0  0  0  0  2  0  0  0  0  0  0
   37.9960   23.8700   41.6220 C   0  0  2  0  0  3  0  0  0  0  0  0
   38.7460   24.8490   42.3960 C   0  0  0  0  0  0  0  0  0  0  0  0
   39.9380   24.6220   43.0460 C   0  0  0  0  0  3  0  0  0  0  0  0
   40.6530   25.5490   43.7710 C   0  0  0  0  0  3  0  0  0  0  0  0
   40.1660   26.8400   43.8830 C   0  0  0  0  0  3  0  0  0  0  0  0
   38.9740   27.1310   43.2550 C   0  0  0  0  0  0  0  0  0  0  0  0
   38.5290   28.4270   43.4000 C   0  0  0  0  0  3  0  0  0  0  0  0
   37.3430   28.8100   42.8100 C   0  0  0  0  0  3  0  0  0  0  0  0
   36.6270   27.8780   42.0850 C   0  0  0  0  0  3  0  0  0  0  0  0
   37.1250   26.5970   41.9770 C   0  0  0  0  0  3  0  0  0  0  0  0
   38.3040   26.1600   42.5430 C   0  0  0  0  0  0  0  0  0  0  0  0
   38.9350   27.9600   38.1140 C   0  0  0  0  0  0  0  0  0  0  0  0
   38.4500   28.3250   36.9150 N   0  0  0  0  0  0  0  0  0  0  0  0
   38.0390   29.5630   36.9480 O   0  0  0  0  0  0  0  0  0  0  0  0
   38.2390   30.0510   38.1580 C   0  0  0  0  0  0  0  0  0  0  0  0
   38.8000   29.0480   38.8880 N   0  0  0  0  0  0  0  0  0  0  0  0
   37.9030   31.3950   38.5570 C   0  0  0  0  0  0  0  0  0  0  0  0
   37.0750   32.0780   38.0060 O   0  0  0  0  0  0  0  0  0  0  0  0
   38.6530   31.8050   39.6550 N   0  0  0  0  0  0  0  0  0  0  0  0
   38.2130   33.0470   40.2070 C   0  0  0  0  0  0  0  0  0  0  0  0
   37.3150   33.8940   39.9490 N   0  0  0  0  0  0  0  0  0  0  0  0
   38.7950   33.6760   41.3470 N   0  0  0  0  0  0  0  0  0  0  0  0
   36.4260   33.6260   39.5130 H   0  0  0  0  0  0  0  0  0  0  0  0
   39.4460   31.2670   40.0330 H   0  0  0  0  0  0  0  0  0  0  0  0
   38.4210   34.5740   41.6870 H   0  0  0  0  0  0  0  0  0  0  0  0
   39.5880   33.2330   41.8320 H   0  0  0  0  0  0  0  0  0  0  0  0
  1  2  1  0  0  0  0
  2  3  2  0  0  0  0
  4  3  1  0  0  0  0
  5  4  2  0  0  0  0
  6  5  1  0  0  0  0
  6  1  2  0  0  0  0
  7  3  1  6  0  0  0
  7 11  1  0  0  0  0
  8  9  1  0  0  0  0
  8  7  1  0  0  0  0
  9 10  1  0  0  0  0
 10 11  1  0  0  0  0
 11 12  1  6  0  0  0
 12 21  2  0  0  0  0
 12 13  1  0  0  0  0
 13 14  2  0  0  0  0
 14 15  1  0  0  0  0
 16 17  1  0  0  0  0
 16 15  2  0  0  0  0
 18 17  2  0  0  0  0
 19 18  1  0  0  0  0
 20 19  2  0  0  0  0
 20 21  1  0  0  0  0
 21 16  1  0  0  0  0
 22  5  1  0  0  0  0
 22 26  1  0  0  0  0
 23 24  1  0  0  0  0
 23 22  2  0  0  0  0
 24 25  1  0  0  0  0
 25 27  1  0  0  0  0
 25 26  2  0  0  0  0
 27 29  1  0  0  0  0
 28 27  2  0  0  0  0
 29 34  1  0  0  0  0
 29 30  1  0  0  0  0
 30 32  1  0  0  0  0
 31 30  2  0  0  0  0
 32 35  1  0  0  0  0
 32 36  1  0  0  0  0
 33 31  1  0  0  0  0
M  END
>  <minimizedAffinity>
-7.90793276

$$$$

 OpenBabel03242510123D

 36 40  0  0  1  0  0  0  0  0999 V2000
   36.7220   28.1160   38.6160 C   0  0  0  0  0  3  0  0  0  0  0  0
   36.6060   27.2640   39.7240 C   0  0  0  0  0  3  0  0  0  0  0  0
   36.9760   27.7470   40.9920 C   0  0  0  0  0  0  0  0  0  0  0  0
   37.4330   29.0060   41.1160 N   0  0  0  0  0  0  0  0  0  0  0  0
   37.5270   29.7970   40.0070 C   0  0  0  0  0  0  0  0  0  0  0  0
   37.1760   29.3590   38.7700 N   0  0  0  0  0  0  0  0  0  0  0  0
   36.8570   26.8850   42.1650 C   0  0  2  0  0  3  0  0  0  0  0  0
   36.4670   27.5480   43.4210 C   0  0  0  0  0  2  0  0  0  0  0  0
   37.7630   27.9390   44.1160 C   0  0  0  0  0  2  0  0  0  0  0  0
   38.7480   26.8840   43.6900 C   0  0  0  0  0  2  0  0  0  0  0  0
   38.0890   26.1400   42.5640 C   0  0  2  0  0  3  0  0  0  0  0  0
   39.0620   25.8790   41.5110 C   0  0  0  0  0  0  0  0  0  0  0  0
   39.0250   24.8300   40.6220 C   0  0  0  0  0  3  0  0  0  0  0  0
   39.9390   24.5870   39.6200 C   0  0  0  0  0  3  0  0  0  0  0  0
   41.0080   25.4520   39.4570 C   0  0  0  0  0  3  0  0  0  0  0  0
   41.1010   26.5230   40.3200 C   0  0  0  0  0  0  0  0  0  0  0  0
   42.1850   27.3510   40.1200 C   0  0  0  0  0  3  0  0  0  0  0  0
   42.3640   28.4480   40.9370 C   0  0  0  0  0  3  0  0  0  0  0  0
   41.4470   28.6870   41.9410 C   0  0  0  0  0  3  0  0  0  0  0  0
   40.3840   27.8210   42.0900 C   0  0  0  0  0  3  0  0  0  0  0  0
   40.1550   26.7130   41.3020 C   0  0  0  0  0  0  0  0  0  0  0  0
   38.0150   31.1860   40.0860 C   0  0  0  0  0  0  0  0  0  0  0  0
   37.4480   32.3110   40.5560 N   0  0  0  0  0  0  0  0  0  0  0  0
   38.2610   33.3220   40.4180 O   0  0  0  0  0  0  0  0  0  0  0  0
   39.3790   32.9030   39.8570 C   0  0  0  0  0  0  0  0  0  0  0  0
   39.2250   31.5650   39.6480 N   0  0  0  0  0  0  0  0  0  0  0  0
   40.5030   33.7520   39.5530 C   0  0  0  0  0  0  0  0  0  0  0  0
   41.0370   34.4810   40.3520 O   0  0  0  0  0  0  0  0  0  0  0  0
   40.8950   33.6260   38.2230 N   0  0  0  0  0  0  0  0  0  0  0  0
   42.1240   34.2930   37.9310 C   0  0  0  0  0  0  0  0  0  0  0  0
   42.9590   34.9910   38.5690 N   0  0  0  0  0  0  0  0  0  0  0  0
   42.7560   34.3000   36.6520 N   0  0  0  0  0  0  0  0  0  0  0  0
   43.1210   34.8580   39.5740 H   0  0  0  0  0  0  0  0  0  0  0  0
   40.3530   33.1050   37.5200 H   0  0  0  0  0  0  0  0  0  0  0  0
   43.6440   34.8050   36.5200 H   0  0  0  0  0  0  0  0  0  0  0  0
   42.3250   33.7990   35.8620 H   0  0  0  0  0  0  0  0  0  0  0  0
  1  6  2  0  0  0  0
  1  2  1  0  0  0  0
  2  3  2  0  0  0  0
  3  4  1  0  0  0  0
  5 22  1  0  0  0  0
  5  4  2  0  0  0  0
  6  5  1  0  0  0  0
  7  3  1  6  0  0  0
  7 11  1  0  0  0  0
  7  8  1  0  0  0  0
  8  9  1  0  0  0  0
 10  9  1  0  0  0  0
 11 12  1  6  0  0  0
 11 10  1  0  0  0  0
 13 12  2  0  0  0  0
 14 13  1  0  0  0  0
 15 14  2  0  0  0  0
 15 16  1  0  0  0  0
 16 21  1  0  0  0  0
 17 16  2  0  0  0  0
 17 18  1  0  0  0  0
 18 19  2  0  0  0  0
 19 20  1  0  0  0  0
 21 12  1  0  0  0  0
 21 20  2  0  0  0  0
 22 23  2  0  0  0  0
 24 23  1  0  0  0  0
 25 24  1  0  0  0  0
 26 25  2  0  0  0  0
 26 22  1  0  0  0  0
 27 25  1  0  0  0  0
 27 28  2  0  0  0  0
 29 27  1  0  0  0  0
 30 29  1  0  0  0  0
 30 31  2  0  0  0  0
 31 33  1  0  0  0  0
 32 30  1  0  0  0  0
 34 29  1  0  0  0  0
 35 32  1  0  0  0  0
 36 32  1  0  0  0  0
M  END
>  <minimizedAffinity>
-7.78114986

$$$$

 OpenBabel03242510123D

 36 40  0  0  1  0  0  0  0  0999 V2000
   34.9220   29.0230   38.9810 C   0  0  0  0  0  3  0  0  0  0  0  0
   35.5520   27.7850   38.7910 C   0  0  0  0  0  3  0  0  0  0  0  0
   36.9530   27.7120   38.9020 C   0  0  0  0  0  0  0  0  0  0  0  0
   37.6540   28.8250   39.1850 N   0  0  0  0  0  0  0  0  0  0  0  0
   36.9950   30.0070   39.3620 C   0  0  0  0  0  0  0  0  0  0  0  0
   35.6430   30.1070   39.2620 N   0  0  0  0  0  0  0  0  0  0  0  0
   37.6350   26.4340   38.7180 C   0  0  2  0  0  3  0  0  0  0  0  0
   36.9620   25.4590   37.8420 C   0  0  0  0  0  2  0  0  0  0  0  0
   36.0840   24.6090   38.7480 C   0  0  0  0  0  2  0  0  0  0  0  0
   36.8190   24.5820   40.0610 C   0  0  0  0  0  2  0  0  0  0  0  0
   37.8840   25.6350   39.9560 C   0  0  2  0  0  3  0  0  0  0  0  0
   37.9660   26.3790   41.2050 C   0  0  0  0  0  0  0  0  0  0  0  0
   36.9150   26.6600   42.0470 C   0  0  0  0  0  3  0  0  0  0  0  0
   36.9920   27.3560   43.2330 C   0  0  0  0  0  3  0  0  0  0  0  0
   38.2210   27.8340   43.6560 C   0  0  0  0  0  3  0  0  0  0  0  0
   39.3140   27.5860   42.8550 C   0  0  0  0  0  0  0  0  0  0  0  0
   40.5130   28.0860   43.3170 C   0  0  0  0  0  3  0  0  0  0  0  0
   41.6620   27.8900   42.5810 C   0  0  0  0  0  3  0  0  0  0  0  0
   41.5800   27.1940   41.3910 C   0  0  0  0  0  3  0  0  0  0  0  0
   40.3520   26.7190   40.9830 C   0  0  0  0  0  3  0  0  0  0  0  0
   39.1730   26.8840   41.6790 C   0  0  0  0  0  0  0  0  0  0  0  0
   37.7130   31.2540   39.6790 C   0  0  0  0  0  0  0  0  0  0  0  0
   37.3450   32.3550   40.3580 N   0  0  0  0  0  0  0  0  0  0  0  0
   38.3210   33.2200   40.3860 O   0  0  0  0  0  0  0  0  0  0  0  0
   39.3550   32.7250   39.7330 C   0  0  0  0  0  0  0  0  0  0  0  0
   38.9750   31.4940   39.2900 N   0  0  0  0  0  0  0  0  0  0  0  0
   40.6110   33.4110   39.5620 C   0  0  0  0  0  0  0  0  0  0  0  0
   41.3320   33.7400   40.4710 O   0  0  0  0  0  0  0  0  0  0  0  0
   40.8870   33.6450   38.2180 N   0  0  0  0  0  0  0  0  0  0  0  0
   42.2090   34.1380   37.9920 C   0  0  0  0  0  0  0  0  0  0  0  0
   43.2070   34.4360   38.7020 N   0  0  0  0  0  0  0  0  0  0  0  0
   42.7510   34.4360   36.7060 N   0  0  0  0  0  0  0  0  0  0  0  0
   43.3980   33.9650   39.5940 H   0  0  0  0  0  0  0  0  0  0  0  0
   40.2080   33.4800   37.4620 H   0  0  0  0  0  0  0  0  0  0  0  0
   43.7150   34.7890   36.6230 H   0  0  0  0  0  0  0  0  0  0  0  0
   42.1780   34.2980   35.8610 H   0  0  0  0  0  0  0  0  0  0  0  0
  1  6  1  0  0  0  0
  2  3  1  0  0  0  0
  2  1  2  0  0  0  0
  3  4  2  0  0  0  0
  4  5  1  0  0  0  0
  5 22  1  0  0  0  0
  6  5  2  0  0  0  0
  7  3  1  1  0  0  0
  7 11  1  0  0  0  0
  8  7  1  0  0  0  0
  8  9  1  0  0  0  0
  9 10  1  0  0  0  0
 11 10  1  0  0  0  0
 11 12  1  1  0  0  0
 12 21  2  0  0  0  0
 12 13  1  0  0  0  0
 13 14  2  0  0  0  0
 14 15  1  0  0  0  0
 16 17  1  0  0  0  0
 16 15  2  0  0  0  0
 18 17  2  0  0  0  0
 19 18  1  0  0  0  0
 20 19  2  0  0  0  0
 20 21  1  0  0  0  0
 21 16  1  0  0  0  0
 22 23  2  0  0  0  0
 23 24  1  0  0  0  0
 25 24  1  0  0  0  0
 26 22  1  0  0  0  0
 26 25  2  0  0  0  0
 27 25  1  0  0  0  0
 27 28  2  0  0  0  0
 29 27  1  0  0  0  0
 30 29  1  0  0  0  0
 30 31  2  0  0  0  0
 31 33  1  0  0  0  0
 32 30  1  0  0  0  0
 34 29  1  0  0  0  0
 35 32  1  0  0  0  0
 36 32  1  0  0  0  0
M  END
>  <minimizedAffinity>
-7.67500782

$$$$

 OpenBabel03242510123D

 36 40  0  0  1  0  0  0  0  0999 V2000
   35.6420   26.0740   38.2280 C   0  0  0  0  0  3  0  0  0  0  0  0
   36.6270   25.2670   38.8170 C   0  0  0  0  0  3  0  0  0  0  0  0
   37.8340   25.8620   39.2300 C   0  0  0  0  0  0  0  0  0  0  0  0
   38.0180   27.1820   39.0510 N   0  0  0  0  0  0  0  0  0  0  0  0
   37.0290   27.9250   38.4720 C   0  0  0  0  0  0  0  0  0  0  0  0
   35.8540   27.3790   38.0650 N   0  0  0  0  0  0  0  0  0  0  0  0
   38.8720   25.0480   39.8550 C   0  0  2  0  0  3  0  0  0  0  0  0
   38.8370   23.6060   39.5540 C   0  0  0  0  0  2  0  0  0  0  0  0
   37.9890   22.9650   40.6430 C   0  0  0  0  0  2  0  0  0  0  0  0
   38.2210   23.8300   41.8530 C   0  0  0  0  0  2  0  0  0  0  0  0
   38.9140   25.0630   41.3480 C   0  0  2  0  0  3  0  0  0  0  0  0
   38.3600   26.2410   42.0030 C   0  0  0  0  0  0  0  0  0  0  0  0
   37.0900   26.3550   42.5170 C   0  0  0  0  0  3  0  0  0  0  0  0
   36.5680   27.4650   43.1440 C   0  0  0  0  0  3  0  0  0  0  0  0
   37.3590   28.5920   43.2920 C   0  0  0  0  0  3  0  0  0  0  0  0
   38.6440   28.5400   42.7950 C   0  0  0  0  0  0  0  0  0  0  0  0
   39.3900   29.6880   42.9620 C   0  0  0  0  0  3  0  0  0  0  0  0
   40.6860   29.7320   42.4940 C   0  0  0  0  0  3  0  0  0  0  0  0
   41.2050   28.6180   41.8650 C   0  0  0  0  0  3  0  0  0  0  0  0
   40.4090   27.5010   41.7280 C   0  0  0  0  0  3  0  0  0  0  0  0
   39.1090   27.4010   42.1780 C   0  0  0  0  0  0  0  0  0  0  0  0
   37.1760   29.3760   38.2580 C   0  0  0  0  0  0  0  0  0  0  0  0
   37.0430   30.1390   37.1590 N   0  0  0  0  0  0  0  0  0  0  0  0
   37.2710   31.3920   37.4440 O   0  0  0  0  0  0  0  0  0  0  0  0
   37.5610   31.4960   38.7270 C   0  0  0  0  0  0  0  0  0  0  0  0
   37.5020   30.2340   39.2370 N   0  0  0  0  0  0  0  0  0  0  0  0
   37.8710   32.7370   39.3920 C   0  0  0  0  0  0  0  0  0  0  0  0
   37.0640   33.6060   39.6130 O   0  0  0  0  0  0  0  0  0  0  0  0
   39.2150   32.8060   39.7470 N   0  0  0  0  0  0  0  0  0  0  0  0
   39.5210   33.9240   40.5820 C   0  0  0  0  0  0  0  0  0  0  0  0
   38.8850   34.8910   41.0830 N   0  0  0  0  0  0  0  0  0  0  0  0
   40.8170   34.2110   41.1040 N   0  0  0  0  0  0  0  0  0  0  0  0
   37.8900   34.8190   41.3260 H   0  0  0  0  0  0  0  0  0  0  0  0
   39.9190   32.1210   39.4380 H   0  0  0  0  0  0  0  0  0  0  0  0
   40.9590   35.0380   41.7020 H   0  0  0  0  0  0  0  0  0  0  0  0
   41.6100   33.5920   40.8840 H   0  0  0  0  0  0  0  0  0  0  0  0
  1  2  1  0  0  0  0
  2  3  2  0  0  0  0
  4  3  1  0  0  0  0
  5  4  2  0  0  0  0
  6  1  2  0  0  0  0
  6  5  1  0  0  0  0
  7  3  1  1  0  0  0
  7 11  1  0  0  0  0
  8  7  1  0  0  0  0
  8  9  1  0  0  0  0
  9 10  1  0  0  0  0
 11 10  1  0  0  0  0
 11 12  1  1  0  0  0
 12 21  2  0  0  0  0
 12 13  1  0  0  0  0
 13 14  2  0  0  0  0
 14 15  1  0  0  0  0
 16 17  1  0  0  0  0
 16 15  2  0  0  0  0
 18 17  2  0  0  0  0
 19 18  1  0  0  0  0
 20 19  2  0  0  0  0
 20 21  1  0  0  0  0
 21 16  1  0  0  0  0
 22  5  1  0  0  0  0
 22 26  1  0  0  0  0
 23 24  1  0  0  0  0
 23 22  2  0  0  0  0
 24 25  1  0  0  0  0
 25 26  2  0  0  0  0
 25 27  1  0  0  0  0
 27 28  2  0  0  0  0
 27 29  1  0  0  0  0
 29 30  1  0  0  0  0
 30 31  2  0  0  0  0
 30 32  1  0  0  0  0
 31 33  1  0  0  0  0
 32 35  1  0  0  0  0
 34 29  1  0  0  0  0
 36 32  1  0  0  0  0
M  END
>  <minimizedAffinity>
-7.55751133

$$$$

 OpenBabel03242510123D

 36 40  0  0  1  0  0  0  0  0999 V2000
   41.1300   27.5040   43.2110 C   0  0  0  0  0  3  0  0  0  0  0  0
   39.7290   27.5660   43.2470 C   0  0  0  0  0  3  0  0  0  0  0  0
   39.1000   28.8070   43.0390 C   0  0  0  0  0  0  0  0  0  0  0  0
   39.8480   29.9020   42.8130 N   0  0  0  0  0  0  0  0  0  0  0  0
   41.2090   29.7900   42.7870 C   0  0  0  0  0  0  0  0  0  0  0  0
   41.8440   28.6050   42.9840 N   0  0  0  0  0  0  0  0  0  0  0  0
   37.6420   28.8990   43.0620 C   0  0  2  0  0  3  0  0  0  0  0  0
   36.9470   27.9650   43.9640 C   0  0  0  0  0  2  0  0  0  0  0  0
   36.6350   26.7280   43.1350 C   0  0  0  0  0  2  0  0  0  0  0  0
   36.4440   27.2520   41.7370 C   0  0  0  0  0  2  0  0  0  0  0  0
   36.9460   28.6680   41.7600 C   0  0  2  0  0  3  0  0  0  0  0  0
   37.7160   28.9370   40.5530 C   0  0  0  0  0  0  0  0  0  0  0  0
   38.4950   28.0280   39.8750 C   0  0  0  0  0  3  0  0  0  0  0  0
   39.2170   28.2780   38.7290 C   0  0  0  0  0  3  0  0  0  0  0  0
   39.1840   29.5460   38.1740 C   0  0  0  0  0  3  0  0  0  0  0  0
   38.4210   30.5030   38.8080 C   0  0  0  0  0  0  0  0  0  0  0  0
   38.4250   31.7500   38.2200 C   0  0  0  0  0  3  0  0  0  0  0  0
   37.6940   32.7720   38.7860 C   0  0  0  0  0  3  0  0  0  0  0  0
   36.9730   32.5180   39.9360 C   0  0  0  0  0  3  0  0  0  0  0  0
   37.0100   31.2510   40.4770 C   0  0  0  0  0  3  0  0  0  0  0  0
   37.7210   30.1920   39.9530 C   0  0  0  0  0  0  0  0  0  0  0  0
   42.0760   30.9550   42.5380 C   0  0  0  0  0  0  0  0  0  0  0  0
   42.8440   31.6940   43.3580 N   0  0  0  0  0  0  0  0  0  0  0  0
   43.4440   32.6410   42.6890 O   0  0  0  0  0  0  0  0  0  0  0  0
   43.0940   32.5600   41.4200 C   0  0  0  0  0  0  0  0  0  0  0  0
   42.2370   31.5050   41.3250 N   0  0  0  0  0  0  0  0  0  0  0  0
   43.5660   33.4500   40.3890 C   0  0  0  0  0  0  0  0  0  0  0  0
   44.5670   34.1170   40.4770 O   0  0  0  0  0  0  0  0  0  0  0  0
   42.7230   33.4440   39.2810 N   0  0  0  0  0  0  0  0  0  0  0  0
   43.2570   34.1530   38.1620 C   0  0  0  0  0  0  0  0  0  0  0  0
   44.3050   34.8070   37.9100 N   0  0  0  0  0  0  0  0  0  0  0  0
   42.6050   34.2780   36.8990 N   0  0  0  0  0  0  0  0  0  0  0  0
   45.2000   34.5930   38.3640 H   0  0  0  0  0  0  0  0  0  0  0  0
   41.8060   32.9750   39.2700 H   0  0  0  0  0  0  0  0  0  0  0  0
   43.0540   34.8060   36.1380 H   0  0  0  0  0  0  0  0  0  0  0  0
   41.6850   33.8390   36.7490 H   0  0  0  0  0  0  0  0  0  0  0  0
  1  2  1  0  0  0  0
  3  2  2  0  0  0  0
  4  3  1  0  0  0  0
  5  4  2  0  0  0  0
  5  6  1  0  0  0  0
  6  1  2  0  0  0  0
  7  3  1  6  0  0  0
  7  8  1  0  0  0  0
  9  8  1  0  0  0  0
 10 11  1  0  0  0  0
 10  9  1  0  0  0  0
 11 12  1  6  0  0  0
 11  7  1  0  0  0  0
 13 12  2  0  0  0  0
 14 13  1  0  0  0  0
 15 14  2  0  0  0  0
 15 16  1  0  0  0  0
 16 21  1  0  0  0  0
 17 18  1  0  0  0  0
 17 16  2  0  0  0  0
 18 19  2  0  0  0  0
 19 20  1  0  0  0  0
 21 20  2  0  0  0  0
 21 12  1  0  0  0  0
 22  5  1  0  0  0  0
 22 23  2  0  0  0  0
 24 23  1  0  0  0  0
 25 24  1  0  0  0  0
 26 25  2  0  0  0  0
 26 22  1  0  0  0  0
 27 28  2  0  0  0  0
 27 25  1  0  0  0  0
 29 27  1  0  0  0  0
 30 29  1  0  0  0  0
 31 30  2  0  0  0  0
 31 33  1  0  0  0  0
 32 30  1  0  0  0  0
 34 29  1  0  0  0  0
 35 32  1  0  0  0  0
 36 32  1  0  0  0  0
M  END
>  <minimizedAffinity>
-7.53148413

$$$$

 OpenBabel03242510123D

 36 40  0  0  1  0  0  0  0  0999 V2000
   40.4660   26.8280   39.1870 C   0  0  0  0  0  3  0  0  0  0  0  0
   40.1290   26.4530   40.4960 C   0  0  0  0  0  3  0  0  0  0  0  0
   38.8390   26.7430   40.9740 C   0  0  0  0  0  0  0  0  0  0  0  0
   37.9600   27.3730   40.1730 N   0  0  0  0  0  0  0  0  0  0  0  0
   38.3360   27.7180   38.9060 C   0  0  0  0  0  0  0  0  0  0  0  0
   39.5740   27.4490   38.4170 N   0  0  0  0  0  0  0  0  0  0  0  0
   38.4580   26.3560   42.3290 C   0  0  2  0  0  3  0  0  0  0  0  0
   37.0290   26.0710   42.5460 C   0  0  0  0  0  2  0  0  0  0  0  0
   36.3950   27.3840   42.9810 C   0  0  0  0  0  2  0  0  0  0  0  0
   37.4950   28.1060   43.7130 C   0  0  0  0  0  2  0  0  0  0  0  0
   38.7550   27.3470   43.4070 C   0  0  2  0  0  3  0  0  0  0  0  0
   39.8420   28.2830   43.1500 C   0  0  0  0  0  0  0  0  0  0  0  0
   39.7160   29.5260   42.5740 C   0  0  0  0  0  3  0  0  0  0  0  0
   40.7410   30.4150   42.3380 C   0  0  0  0  0  3  0  0  0  0  0  0
   42.0330   30.0670   42.6970 C   0  0  0  0  0  3  0  0  0  0  0  0
   42.2240   28.8320   43.2780 C   0  0  0  0  0  0  0  0  0  0  0  0
   43.5270   28.5310   43.6130 C   0  0  0  0  0  3  0  0  0  0  0  0
   43.8170   27.3150   44.1960 C   0  0  0  0  0  3  0  0  0  0  0  0
   42.7870   26.4260   44.4300 C   0  0  0  0  0  3  0  0  0  0  0  0
   41.5050   26.7850   44.0720 C   0  0  0  0  0  3  0  0  0  0  0  0
   41.1580   27.9860   43.4880 C   0  0  0  0  0  0  0  0  0  0  0  0
   37.4120   28.4030   37.9850 C   0  0  0  0  0  0  0  0  0  0  0  0
   36.1040   28.7010   38.0810 N   0  0  0  0  0  0  0  0  0  0  0  0
   35.6980   29.3210   37.0070 O   0  0  0  0  0  0  0  0  0  0  0  0
   36.7130   29.4510   36.1750 C   0  0  0  0  0  0  0  0  0  0  0  0
   37.7860   28.8760   36.7860 N   0  0  0  0  0  0  0  0  0  0  0  0
   36.6290   30.0890   34.8850 C   0  0  0  0  0  0  0  0  0  0  0  0
   36.5470   31.2810   34.7230 O   0  0  0  0  0  0  0  0  0  0  0  0
   36.6540   29.1570   33.8510 N   0  0  0  0  0  0  0  0  0  0  0  0
   36.7770   29.7530   32.5580 C   0  0  0  0  0  0  0  0  0  0  0  0
   36.8570   30.9230   32.0950 N   0  0  0  0  0  0  0  0  0  0  0  0
   36.8490   29.0220   31.3350 N   0  0  0  0  0  0  0  0  0  0  0  0
   37.2810   31.6900   32.6300 H   0  0  0  0  0  0  0  0  0  0  0  0
   36.5910   28.1410   34.0020 H   0  0  0  0  0  0  0  0  0  0  0  0
   36.9370   29.5230   30.4400 H   0  0  0  0  0  0  0  0  0  0  0  0
   36.8140   27.9930   31.3470 H   0  0  0  0  0  0  0  0  0  0  0  0
  1  2  1  0  0  0  0
  2  3  2  0  0  0  0
  4  3  1  0  0  0  0
  5  4  2  0  0  0  0
  6  5  1  0  0  0  0
  6  1  2  0  0  0  0
  7  3  1  6  0  0  0
  7  8  1  0  0  0  0
  7 11  1  0  0  0  0
  8  9  1  0  0  0  0
  9 10  1  0  0  0  0
 11 12  1  6  0  0  0
 11 10  1  0  0  0  0
 12 21  1  0  0  0  0
 13 12  2  0  0  0  0
 14 13  1  0  0  0  0
 14 15  2  0  0  0  0
 15 16  1  0  0  0  0
 16 21  2  0  0  0  0
 16 17  1  0  0  0  0
 17 18  2  0  0  0  0
 18 19  1  0  0  0  0
 20 19  2  0  0  0  0
 21 20  1  0  0  0  0
 22 23  2  0  0  0  0
 22  5  1  0  0  0  0
 24 23  1  0  0  0  0
 25 26  2  0  0  0  0
 25 24  1  0  0  0  0
 26 22  1  0  0  0  0
 27 25  1  0  0  0  0
 28 27  2  0  0  0  0
 29 34  1  0  0  0  0
 29 27  1  0  0  0  0
 30 29  1  0  0  0  0
 31 30  2  0  0  0  0
 31 33  1  0  0  0  0
 32 36  1  0  0  0  0
 32 30  1  0  0  0  0
 35 32  1  0  0  0  0
M  END
>  <minimizedAffinity>
-7.21975613

$$$$

 OpenBabel03242510123D

 36 40  0  0  1  0  0  0  0  0999 V2000
   37.5930   32.1390   40.3360 C   0  0  0  0  0  3  0  0  0  0  0  0
   37.1420   31.2120   39.3850 C   0  0  0  0  0  3  0  0  0  0  0  0
   37.8400   29.9990   39.2370 C   0  0  0  0  0  0  0  0  0  0  0  0
   38.9190   29.7560   40.0030 N   0  0  0  0  0  0  0  0  0  0  0  0
   39.3180   30.6910   40.9140 C   0  0  0  0  0  0  0  0  0  0  0  0
   38.6640   31.8700   41.0810 N   0  0  0  0  0  0  0  0  0  0  0  0
   37.3880   29.0120   38.2610 C   0  0  2  0  0  3  0  0  0  0  0  0
   36.5830   29.5270   37.1400 C   0  0  0  0  0  2  0  0  0  0  0  0
   35.1300   29.4310   37.5800 C   0  0  0  0  0  2  0  0  0  0  0  0
   35.0970   28.2400   38.5000 C   0  0  0  0  0  2  0  0  0  0  0  0
   36.5330   27.9060   38.7880 C   0  0  2  0  0  3  0  0  0  0  0  0
   36.6890   27.5800   40.2000 C   0  0  0  0  0  0  0  0  0  0  0  0
   36.1500   28.2810   41.2540 C   0  0  0  0  0  3  0  0  0  0  0  0
   36.2880   27.9690   42.5880 C   0  0  0  0  0  3  0  0  0  0  0  0
   37.0300   26.8550   42.9470 C   0  0  0  0  0  3  0  0  0  0  0  0
   37.5970   26.1110   41.9350 C   0  0  0  0  0  0  0  0  0  0  0  0
   38.3280   25.0160   42.3440 C   0  0  0  0  0  3  0  0  0  0  0  0
   38.9370   24.2130   41.4030 C   0  0  0  0  0  3  0  0  0  0  0  0
   38.7970   24.5300   40.0660 C   0  0  0  0  0  3  0  0  0  0  0  0
   38.0530   25.6390   39.7210 C   0  0  0  0  0  3  0  0  0  0  0  0
   37.4220   26.4740   40.6190 C   0  0  0  0  0  0  0  0  0  0  0  0
   40.4890   30.4740   41.7830 C   0  0  0  0  0  0  0  0  0  0  0  0
   41.2380   31.3220   42.5090 N   0  0  0  0  0  0  0  0  0  0  0  0
   42.1860   30.6750   43.1300 O   0  0  0  0  0  0  0  0  0  0  0  0
   42.0960   29.3920   42.8370 C   0  0  0  0  0  0  0  0  0  0  0  0
   41.0330   29.2650   41.9940 N   0  0  0  0  0  0  0  0  0  0  0  0
   42.9840   28.3780   43.3470 C   0  0  0  0  0  0  0  0  0  0  0  0
   43.9410   28.6050   44.0460 O   0  0  0  0  0  0  0  0  0  0  0  0
   42.6010   27.1060   42.9330 N   0  0  0  0  0  0  0  0  0  0  0  0
   43.3290   26.0600   43.5780 C   0  0  0  0  0  0  0  0  0  0  0  0
   44.2560   25.9820   44.4300 N   0  0  0  0  0  0  0  0  0  0  0  0
   43.1150   24.6670   43.3500 N   0  0  0  0  0  0  0  0  0  0  0  0
   44.3830   26.6940   45.1580 H   0  0  0  0  0  0  0  0  0  0  0  0
   41.8650   26.9350   42.2330 H   0  0  0  0  0  0  0  0  0  0  0  0
   43.6820   23.9700   43.8540 H   0  0  0  0  0  0  0  0  0  0  0  0
   42.3940   24.3590   42.6830 H   0  0  0  0  0  0  0  0  0  0  0  0
  1  6  1  0  0  0  0
  2  1  2  0  0  0  0
  3  2  1  0  0  0  0
  3  4  2  0  0  0  0
  4  5  1  0  0  0  0
  5  6  2  0  0  0  0
  5 22  1  0  0  0  0
  7 11  1  0  0  0  0
  7  3  1  1  0  0  0
  8  9  1  0  0  0  0
  8  7  1  0  0  0  0
  9 10  1  0  0  0  0
 10 11  1  0  0  0  0
 11 12  1  1  0  0  0
 12 21  2  0  0  0  0
 12 13  1  0  0  0  0
 13 14  2  0  0  0  0
 14 15  1  0  0  0  0
 16 17  1  0  0  0  0
 16 15  2  0  0  0  0
 18 17  2  0  0  0  0
 19 18  1  0  0  0  0
 20 19  2  0  0  0  0
 20 21  1  0  0  0  0
 21 16  1  0  0  0  0
 22 26  1  0  0  0  0
 22 23  2  0  0  0  0
 23 24  1  0  0  0  0
 25 24  1  0  0  0  0
 25 27  1  0  0  0  0
 26 25  2  0  0  0  0
 27 28  2  0  0  0  0
 29 27  1  0  0  0  0
 29 30  1  0  0  0  0
 30 31  2  0  0  0  0
 31 33  1  0  0  0  0
 32 30  1  0  0  0  0
 32 35  1  0  0  0  0
 34 29  1  0  0  0  0
 36 32  1  0  0  0  0
M  END
>  <minimizedAffinity>
-7.10439825

$$$$

 OpenBabel03242510123D

 36 40  0  0  1  0  0  0  0  0999 V2000
   37.0810   30.7640   41.0130 C   0  0  0  0  0  3  0  0  0  0  0  0
   37.0560   29.7270   41.9580 C   0  0  0  0  0  3  0  0  0  0  0  0
   36.5050   28.4870   41.5880 C   0  0  0  0  0  0  0  0  0  0  0  0
   36.0160   28.3210   40.3460 N   0  0  0  0  0  0  0  0  0  0  0  0
   36.0630   29.3610   39.4630 C   0  0  0  0  0  0  0  0  0  0  0  0
   36.5900   30.5700   39.7910 N   0  0  0  0  0  0  0  0  0  0  0  0
   36.4750   27.3870   42.5480 C   0  0  2  0  0  3  0  0  0  0  0  0
   36.5690   27.7620   43.9690 C   0  0  0  0  0  2  0  0  0  0  0  0
   38.0500   27.7330   44.3190 C   0  0  0  0  0  2  0  0  0  0  0  0
   38.6240   26.6680   43.4230 C   0  0  0  0  0  2  0  0  0  0  0  0
   37.5540   26.3630   42.4140 C   0  0  2  0  0  3  0  0  0  0  0  0
   38.1520   26.2170   41.0930 C   0  0  0  0  0  0  0  0  0  0  0  0
   39.2360   26.9170   40.6160 C   0  0  0  0  0  3  0  0  0  0  0  0
   39.8070   26.7740   39.3710 C   0  0  0  0  0  3  0  0  0  0  0  0
   39.2740   25.8510   38.4860 C   0  0  0  0  0  3  0  0  0  0  0  0
   38.1850   25.1180   38.9050 C   0  0  0  0  0  0  0  0  0  0  0  0
   37.6890   24.2170   37.9870 C   0  0  0  0  0  3  0  0  0  0  0  0
   36.5980   23.4410   38.3150 C   0  0  0  0  0  3  0  0  0  0  0  0
   36.0270   23.5890   39.5640 C   0  0  0  0  0  3  0  0  0  0  0  0
   36.5690   24.5070   40.4380 C   0  0  0  0  0  3  0  0  0  0  0  0
   37.6580   25.3070   40.1630 C   0  0  0  0  0  0  0  0  0  0  0  0
   35.5470   29.2330   38.0880 C   0  0  0  0  0  0  0  0  0  0  0  0
   34.3120   29.0000   37.6110 N   0  0  0  0  0  0  0  0  0  0  0  0
   34.3260   28.9660   36.3060 O   0  0  0  0  0  0  0  0  0  0  0  0
   35.5590   29.1730   35.8840 C   0  0  0  0  0  0  0  0  0  0  0  0
   36.3240   29.3390   36.9990 N   0  0  0  0  0  0  0  0  0  0  0  0
   35.9470   29.2030   34.4960 C   0  0  0  0  0  0  0  0  0  0  0  0
   35.7410   28.3060   33.7160 O   0  0  0  0  0  0  0  0  0  0  0  0
   36.5900   30.3940   34.1690 N   0  0  0  0  0  0  0  0  0  0  0  0
   36.8090   30.5500   32.7660 C   0  0  0  0  0  0  0  0  0  0  0  0
   36.5820   29.8750   31.7260 N   0  0  0  0  0  0  0  0  0  0  0  0
   37.4260   31.6880   32.1670 N   0  0  0  0  0  0  0  0  0  0  0  0
   35.7850   29.2320   31.6590 H   0  0  0  0  0  0  0  0  0  0  0  0
   36.8770   31.0930   34.8690 H   0  0  0  0  0  0  0  0  0  0  0  0
   37.5500   31.7280   31.1450 H   0  0  0  0  0  0  0  0  0  0  0  0
   37.7460   32.4700   32.7550 H   0  0  0  0  0  0  0  0  0  0  0  0
  1  2  1  0  0  0  0
  3  2  2  0  0  0  0
  4  3  1  0  0  0  0
  5  6  1  0  0  0  0
  5  4  2  0  0  0  0
  6  1  2  0  0  0  0
  7  3  1  6  0  0  0
  7  8  1  0  0  0  0
  8  9  1  0  0  0  0
 10  9  1  0  0  0  0
 11 12  1  6  0  0  0
 11  7  1  0  0  0  0
 11 10  1  0  0  0  0
 13 12  1  0  0  0  0
 14 13  2  0  0  0  0
 15 16  2  0  0  0  0
 15 14  1  0  0  0  0
 16 21  1  0  0  0  0
 17 18  2  0  0  0  0
 17 16  1  0  0  0  0
 18 19  1  0  0  0  0
 19 20  2  0  0  0  0
 21 20  1  0  0  0  0
 21 12  2  0  0  0  0
 22  5  1  0  0  0  0
 23 22  2  0  0  0  0
 24 23  1  0  0  0  0
 25 24  1  0  0  0  0
 25 26  2  0  0  0  0
 26 22  1  0  0  0  0
 27 25  1  0  0  0  0
 28 27  2  0  0  0  0
 29 27  1  0  0  0  0
 29 34  1  0  0  0  0
 30 29  1  0  0  0  0
 31 30  2  0  0  0  0
 32 36  1  0  0  0  0
 32 30  1  0  0  0  0
 33 31  1  0  0  0  0
 35 32  1  0  0  0  0
M  END
>  <minimizedAffinity>
-7.09149504

$$$$
