
 OpenBabel03242510103D

 32 35  0  0  0  0  0  0  0  0999 V2000
   38.2960   31.4790   40.2130 N   0  0  0  0  0  0  0  0  0  0  0  0
   38.2490   30.7670   41.3410 C   0  0  0  0  0  3  0  0  0  0  0  0
   37.2600   29.8850   41.6560 C   0  0  0  0  0  0  0  0  0  0  0  0
   36.2780   29.7860   40.6780 C   0  0  0  0  0  0  0  0  0  0  0  0
   35.2930   28.9850   40.8600 O   0  0  0  0  0  0  0  0  0  0  0  0
   36.2820   30.4840   39.5240 N   0  0  0  0  0  0  0  0  0  0  0  0
   37.3110   31.3410   39.2980 C   0  0  0  0  0  0  0  0  0  0  0  0
   37.2630   31.9630   38.2100 O   0  0  0  0  0  0  0  0  0  0  0  0
   35.5260   30.3700   38.8330 H   0  0  0  0  0  0  0  0  0  0  0  0
   40.3650   34.5340   40.2810 C   0  0  0  0  0  3  0  0  0  0  0  0
   39.3780   33.5700   40.6390 C   0  0  0  0  0  3  0  0  0  0  0  0
   39.2810   32.4050   39.8310 C   0  0  0  0  0  0  0  0  0  0  0  0
   40.1280   32.2960   38.7920 N   0  0  0  0  0  0  0  0  0  0  0  0
   41.0400   33.2160   38.4870 C   0  0  0  0  0  0  0  0  0  0  0  0
   41.1690   34.3340   39.2190 N   0  0  0  0  0  0  0  0  0  0  0  0
   41.9180   33.0220   37.3460 C   0  0  0  0  0  0  0  0  0  0  0  0
   42.2660   31.8580   36.9850 O   0  0  0  0  0  0  0  0  0  0  0  0
   42.4260   34.0530   36.5900 O   0  0  0  0  0  0  0  0  0  0  0  0
   43.0210   33.8580   35.8220 H   0  0  0  0  0  0  0  0  0  0  0  0
   37.2150   29.1090   42.8970 C   0  0  0  0  0  2  0  0  0  0  0  0
   37.0650   27.7210   42.6180 N   0  0  0  0  0  0  0  0  0  0  0  0
   36.1300   27.4470   42.2850 H   0  0  0  0  0  0  0  0  0  0  0  0
   37.9890   26.6590   42.7230 C   0  0  0  0  0  0  0  0  0  0  0  0
   39.1100   26.6740   43.5190 C   0  0  0  0  0  3  0  0  0  0  0  0
   40.0350   25.6620   43.6300 C   0  0  0  0  0  3  0  0  0  0  0  0
   39.8330   24.5390   42.8900 C   0  0  0  0  0  3  0  0  0  0  0  0
   38.7270   24.4590   42.0700 C   0  0  0  0  0  0  0  0  0  0  0  0
   38.5740   23.2970   41.3440 C   0  0  0  0  0  3  0  0  0  0  0  0
   37.5040   23.1160   40.4980 C   0  0  0  0  0  3  0  0  0  0  0  0
   36.5860   24.1400   40.4000 C   0  0  0  0  0  3  0  0  0  0  0  0
   36.7840   25.2800   41.1440 C   0  0  0  0  0  3  0  0  0  0  0  0
   37.8370   25.4990   41.9990 C   0  0  0  0  0  0  0  0  0  0  0  0
  1  2  1  0  0  0  0
  2  3  2  0  0  0  0
  3 20  1  0  0  0  0
  4  5  2  0  0  0  0
  4  3  1  0  0  0  0
  6  4  1  0  0  0  0
  7  6  1  0  0  0  0
  7  1  1  0  0  0  0
  8  7  2  0  0  0  0
  9  6  1  0  0  0  0
 10 11  1  0  0  0  0
 12  1  1  0  0  0  0
 12 11  2  0  0  0  0
 13 12  1  0  0  0  0
 14 13  2  0  0  0  0
 14 15  1  0  0  0  0
 15 10  2  0  0  0  0
 16 14  1  0  0  0  0
 17 16  2  0  0  0  0
 18 16  1  0  0  0  0
 19 18  1  0  0  0  0
 21 23  1  0  0  0  0
 21 20  1  0  0  0  0
 22 21  1  0  0  0  0
 23 24  1  0  0  0  0
 24 25  2  0  0  0  0
 26 25  1  0  0  0  0
 27 26  2  0  0  0  0
 28 27  1  0  0  0  0
 29 28  2  0  0  0  0
 30 29  1  0  0  0  0
 30 31  2  0  0  0  0
 31 32  1  0  0  0  0
 32 27  1  0  0  0  0
 32 23  2  0  0  0  0
M  END
>  <minimizedAffinity>
-7.50001955

$$$$

 OpenBabel03242510103D

 32 35  0  0  0  0  0  0  0  0999 V2000
   38.1980   31.4590   40.0960 N   0  0  0  0  0  0  0  0  0  0  0  0
   38.1040   30.7520   41.2250 C   0  0  0  0  0  3  0  0  0  0  0  0
   37.1160   29.8550   41.4940 C   0  0  0  0  0  0  0  0  0  0  0  0
   36.1880   29.7340   40.4670 C   0  0  0  0  0  0  0  0  0  0  0  0
   35.2080   28.9170   40.6030 O   0  0  0  0  0  0  0  0  0  0  0  0
   36.2400   30.4250   39.3100 N   0  0  0  0  0  0  0  0  0  0  0  0
   37.2650   31.2980   39.1320 C   0  0  0  0  0  0  0  0  0  0  0  0
   37.2630   31.9130   38.0390 O   0  0  0  0  0  0  0  0  0  0  0  0
   35.5230   30.2940   38.5820 H   0  0  0  0  0  0  0  0  0  0  0  0
   40.2270   34.5360   40.2690 C   0  0  0  0  0  3  0  0  0  0  0  0
   39.2390   33.5580   40.5810 C   0  0  0  0  0  3  0  0  0  0  0  0
   39.1860   32.3990   39.7590 C   0  0  0  0  0  0  0  0  0  0  0  0
   40.0720   32.3100   38.7510 N   0  0  0  0  0  0  0  0  0  0  0  0
   40.9830   33.2440   38.4890 C   0  0  0  0  0  0  0  0  0  0  0  0
   41.0730   34.3550   39.2360 N   0  0  0  0  0  0  0  0  0  0  0  0
   41.9050   33.0710   37.3800 C   0  0  0  0  0  0  0  0  0  0  0  0
   42.3070   31.9170   37.0430 O   0  0  0  0  0  0  0  0  0  0  0  0
   42.4000   34.1120   36.6290 O   0  0  0  0  0  0  0  0  0  0  0  0
   43.0260   33.9310   35.8840 H   0  0  0  0  0  0  0  0  0  0  0  0
   37.0190   29.0860   42.7360 C   0  0  0  0  0  2  0  0  0  0  0  0
   38.2600   28.4550   43.0360 N   0  0  0  0  0  0  0  0  0  0  0  0
   38.9630   29.0720   43.4680 H   0  0  0  0  0  0  0  0  0  0  0  0
   38.6840   27.1240   42.8380 C   0  0  0  0  0  0  0  0  0  0  0  0
   37.8600   26.0890   42.4640 C   0  0  0  0  0  3  0  0  0  0  0  0
   38.2430   24.7800   42.2790 C   0  0  0  0  0  3  0  0  0  0  0  0
   39.5500   24.4700   42.4830 C   0  0  0  0  0  3  0  0  0  0  0  0
   40.4310   25.4620   42.8610 C   0  0  0  0  0  0  0  0  0  0  0  0
   41.7430   25.0890   43.0530 C   0  0  0  0  0  3  0  0  0  0  0  0
   42.7010   26.0030   43.4280 C   0  0  0  0  0  3  0  0  0  0  0  0
   42.3010   27.3100   43.6080 C   0  0  0  0  0  3  0  0  0  0  0  0
   40.9800   27.6320   43.4060 C   0  0  0  0  0  3  0  0  0  0  0  0
   39.9950   26.7500   43.0290 C   0  0  0  0  0  0  0  0  0  0  0  0
  1  2  1  0  0  0  0
  2  3  2  0  0  0  0
  3 20  1  0  0  0  0
  4  5  2  0  0  0  0
  4  3  1  0  0  0  0
  6  4  1  0  0  0  0
  7  6  1  0  0  0  0
  7  1  1  0  0  0  0
  8  7  2  0  0  0  0
  9  6  1  0  0  0  0
 10 11  1  0  0  0  0
 12  1  1  0  0  0  0
 12 11  2  0  0  0  0
 13 12  1  0  0  0  0
 14 13  2  0  0  0  0
 14 15  1  0  0  0  0
 15 10  2  0  0  0  0
 16 14  1  0  0  0  0
 17 16  2  0  0  0  0
 18 16  1  0  0  0  0
 19 18  1  0  0  0  0
 20 21  1  0  0  0  0
 21 22  1  0  0  0  0
 23 32  1  0  0  0  0
 23 21  1  0  0  0  0
 24 23  2  0  0  0  0
 25 24  1  0  0  0  0
 25 26  2  0  0  0  0
 26 27  1  0  0  0  0
 27 32  2  0  0  0  0
 27 28  1  0  0  0  0
 28 29  2  0  0  0  0
 29 30  1  0  0  0  0
 31 30  2  0  0  0  0
 32 31  1  0  0  0  0
M  END
>  <minimizedAffinity>
-7.06724691

$$$$

 OpenBabel03242510103D

 32 35  0  0  0  0  0  0  0  0999 V2000
   39.1590   32.0090   39.7310 N   0  0  0  0  0  0  0  0  0  0  0  0
   38.8920   30.7120   39.5610 C   0  0  0  0  0  3  0  0  0  0  0  0
   37.6890   30.1300   39.8250 C   0  0  0  0  0  0  0  0  0  0  0  0
   36.7370   31.0240   40.2990 C   0  0  0  0  0  0  0  0  0  0  0  0
   35.5620   30.5940   40.5820 O   0  0  0  0  0  0  0  0  0  0  0  0
   36.9590   32.3420   40.4870 N   0  0  0  0  0  0  0  0  0  0  0  0
   38.1920   32.8310   40.1960 C   0  0  0  0  0  0  0  0  0  0  0  0
   38.3410   34.0610   40.3900 O   0  0  0  0  0  0  0  0  0  0  0  0
   36.2140   32.9590   40.8420 H   0  0  0  0  0  0  0  0  0  0  0  0
   41.9100   33.5590   37.8220 C   0  0  0  0  0  3  0  0  0  0  0  0
   40.6840   32.8940   38.1140 C   0  0  0  0  0  3  0  0  0  0  0  0
   40.3740   32.6680   39.4820 C   0  0  0  0  0  0  0  0  0  0  0  0
   41.2580   33.0990   40.4000 N   0  0  0  0  0  0  0  0  0  0  0  0
   42.3950   33.7190   40.0910 C   0  0  0  0  0  0  0  0  0  0  0  0
   42.7320   33.9540   38.8140 N   0  0  0  0  0  0  0  0  0  0  0  0
   43.2960   34.1530   41.1440 C   0  0  0  0  0  0  0  0  0  0  0  0
   44.4950   34.4710   40.8830 O   0  0  0  0  0  0  0  0  0  0  0  0
   42.9330   34.2510   42.4670 O   0  0  0  0  0  0  0  0  0  0  0  0
   43.5930   34.5540   43.1410 H   0  0  0  0  0  0  0  0  0  0  0  0
   37.4060   28.7060   39.6370 C   0  0  0  0  0  2  0  0  0  0  0  0
   37.1760   28.0690   40.8900 N   0  0  0  0  0  0  0  0  0  0  0  0
   36.6310   28.6260   41.5630 H   0  0  0  0  0  0  0  0  0  0  0  0
   37.5740   26.7990   41.3590 C   0  0  0  0  0  0  0  0  0  0  0  0
   36.9220   25.6210   41.0760 C   0  0  0  0  0  3  0  0  0  0  0  0
   37.2770   24.3730   41.5320 C   0  0  0  0  0  3  0  0  0  0  0  0
   38.3690   24.2820   42.3370 C   0  0  0  0  0  3  0  0  0  0  0  0
   39.0690   25.4260   42.6610 C   0  0  0  0  0  0  0  0  0  0  0  0
   40.1660   25.2720   43.4790 C   0  0  0  0  0  3  0  0  0  0  0  0
   40.9330   26.3500   43.8600 C   0  0  0  0  0  3  0  0  0  0  0  0
   40.5640   27.5930   43.3930 C   0  0  0  0  0  3  0  0  0  0  0  0
   39.4600   27.6940   42.5800 C   0  0  0  0  0  3  0  0  0  0  0  0
   38.6700   26.6440   42.1770 C   0  0  0  0  0  0  0  0  0  0  0  0
  1  7  1  0  0  0  0
  2  1  1  0  0  0  0
  2  3  2  0  0  0  0
  3  4  1  0  0  0  0
  4  6  1  0  0  0  0
  4  5  2  0  0  0  0
  6  9  1  0  0  0  0
  7  8  2  0  0  0  0
  7  6  1  0  0  0  0
 10 11  2  0  0  0  0
 10 15  1  0  0  0  0
 11 12  1  0  0  0  0
 12  1  1  0  0  0  0
 12 13  2  0  0  0  0
 14 13  1  0  0  0  0
 14 16  1  0  0  0  0
 15 14  2  0  0  0  0
 16 18  1  0  0  0  0
 17 16  2  0  0  0  0
 18 19  1  0  0  0  0
 20  3  1  0  0  0  0
 20 21  1  0  0  0  0
 21 23  1  0  0  0  0
 21 22  1  0  0  0  0
 23 32  1  0  0  0  0
 24 23  2  0  0  0  0
 24 25  1  0  0  0  0
 25 26  2  0  0  0  0
 26 27  1  0  0  0  0
 27 28  1  0  0  0  0
 28 29  2  0  0  0  0
 30 29  1  0  0  0  0
 31 30  2  0  0  0  0
 32 31  1  0  0  0  0
 32 27  2  0  0  0  0
M  END
>  <minimizedAffinity>
-7.04257441

$$$$

 OpenBabel03242510103D

 32 35  0  0  0  0  0  0  0  0999 V2000
   39.5070   32.4570   39.7180 N   0  0  0  0  0  0  0  0  0  0  0  0
   39.1710   31.2090   39.3860 C   0  0  0  0  0  3  0  0  0  0  0  0
   37.9340   30.6690   39.5680 C   0  0  0  0  0  0  0  0  0  0  0  0
   37.0270   31.5510   40.1430 C   0  0  0  0  0  0  0  0  0  0  0  0
   35.8260   31.1580   40.3640 O   0  0  0  0  0  0  0  0  0  0  0  0
   37.3200   32.8200   40.4950 N   0  0  0  0  0  0  0  0  0  0  0  0
   38.5830   33.2700   40.2750 C   0  0  0  0  0  0  0  0  0  0  0  0
   38.7980   34.4560   40.6220 O   0  0  0  0  0  0  0  0  0  0  0  0
   36.6060   33.4300   40.9190 H   0  0  0  0  0  0  0  0  0  0  0  0
   42.3890   34.0250   38.0280 C   0  0  0  0  0  3  0  0  0  0  0  0
   41.1220   33.4020   38.2270 C   0  0  0  0  0  3  0  0  0  0  0  0
   40.7610   33.0710   39.5610 C   0  0  0  0  0  0  0  0  0  0  0  0
   41.6380   33.3710   40.5360 N   0  0  0  0  0  0  0  0  0  0  0  0
   42.8130   33.9550   40.3140 C   0  0  0  0  0  0  0  0  0  0  0  0
   43.2000   34.2860   39.0720 N   0  0  0  0  0  0  0  0  0  0  0  0
   43.7040   34.2460   41.4240 C   0  0  0  0  0  0  0  0  0  0  0  0
   44.9220   34.5320   41.2220 O   0  0  0  0  0  0  0  0  0  0  0  0
   43.3090   34.2330   42.7420 O   0  0  0  0  0  0  0  0  0  0  0  0
   43.9630   34.4400   43.4570 H   0  0  0  0  0  0  0  0  0  0  0  0
   37.5730   29.2980   39.2030 C   0  0  0  0  0  2  0  0  0  0  0  0
   37.0150   28.6100   40.3180 N   0  0  0  0  0  0  0  0  0  0  0  0
   35.9870   28.6450   40.3750 H   0  0  0  0  0  0  0  0  0  0  0  0
   37.6390   27.8880   41.3570 C   0  0  0  0  0  0  0  0  0  0  0  0
   38.2870   28.4600   42.4270 C   0  0  0  0  0  3  0  0  0  0  0  0
   38.9170   27.7810   43.4440 C   0  0  0  0  0  3  0  0  0  0  0  0
   38.9060   26.4230   43.3990 C   0  0  0  0  0  3  0  0  0  0  0  0
   38.2730   25.7850   42.3530 C   0  0  0  0  0  0  0  0  0  0  0  0
   38.2940   24.4080   42.3600 C   0  0  0  0  0  3  0  0  0  0  0  0
   37.6900   23.6760   41.3630 C   0  0  0  0  0  3  0  0  0  0  0  0
   37.0620   24.3710   40.3510 C   0  0  0  0  0  3  0  0  0  0  0  0
   37.0710   25.7460   40.3880 C   0  0  0  0  0  3  0  0  0  0  0  0
   37.6600   26.5120   41.3650 C   0  0  0  0  0  0  0  0  0  0  0  0
  1  7  1  0  0  0  0
  2  3  2  0  0  0  0
  2  1  1  0  0  0  0
  3  4  1  0  0  0  0
  4  5  2  0  0  0  0
  4  6  1  0  0  0  0
  6  9  1  0  0  0  0
  7  6  1  0  0  0  0
  7  8  2  0  0  0  0
 10 11  2  0  0  0  0
 10 15  1  0  0  0  0
 11 12  1  0  0  0  0
 12  1  1  0  0  0  0
 12 13  2  0  0  0  0
 14 13  1  0  0  0  0
 14 16  1  0  0  0  0
 15 14  2  0  0  0  0
 16 18  1  0  0  0  0
 17 16  2  0  0  0  0
 18 19  1  0  0  0  0
 20  3  1  0  0  0  0
 20 21  1  0  0  0  0
 21 22  1  0  0  0  0
 21 23  1  0  0  0  0
 23 32  2  0  0  0  0
 23 24  1  0  0  0  0
 24 25  2  0  0  0  0
 26 25  1  0  0  0  0
 27 28  1  0  0  0  0
 27 26  2  0  0  0  0
 29 28  2  0  0  0  0
 30 31  2  0  0  0  0
 30 29  1  0  0  0  0
 31 32  1  0  0  0  0
 32 27  1  0  0  0  0
M  END
>  <minimizedAffinity>
-6.87694263

$$$$

 OpenBabel03242510103D

 32 35  0  0  0  0  0  0  0  0999 V2000
   36.3470   29.4260   37.7580 N   0  0  0  0  0  0  0  0  0  0  0  0
   35.2860   28.9490   37.1050 C   0  0  0  0  0  3  0  0  0  0  0  0
   35.1540   28.9390   35.7490 C   0  0  0  0  0  0  0  0  0  0  0  0
   36.2480   29.4810   35.0860 C   0  0  0  0  0  0  0  0  0  0  0  0
   36.2420   29.5250   33.8030 O   0  0  0  0  0  0  0  0  0  0  0  0
   37.3420   29.9750   35.7010 N   0  0  0  0  0  0  0  0  0  0  0  0
   37.3820   29.9420   37.0580 C   0  0  0  0  0  0  0  0  0  0  0  0
   38.4220   30.4150   37.5760 O   0  0  0  0  0  0  0  0  0  0  0  0
   38.1250   30.3650   35.1570 H   0  0  0  0  0  0  0  0  0  0  0  0
   36.3820   30.7780   41.1910 C   0  0  0  0  0  3  0  0  0  0  0  0
   36.1960   30.6950   39.7800 C   0  0  0  0  0  3  0  0  0  0  0  0
   36.5430   29.4700   39.1480 C   0  0  0  0  0  0  0  0  0  0  0  0
   37.0190   28.4810   39.9260 N   0  0  0  0  0  0  0  0  0  0  0  0
   37.1790   28.5940   41.2430 C   0  0  0  0  0  0  0  0  0  0  0  0
   36.8660   29.7300   41.8850 N   0  0  0  0  0  0  0  0  0  0  0  0
   37.7000   27.4770   42.0110 C   0  0  0  0  0  0  0  0  0  0  0  0
   38.5250   27.6650   42.9540 O   0  0  0  0  0  0  0  0  0  0  0  0
   37.3510   26.1650   41.7840 O   0  0  0  0  0  0  0  0  0  0  0  0
   37.7400   25.4450   42.3420 H   0  0  0  0  0  0  0  0  0  0  0  0
   33.9850   28.4150   35.0410 C   0  0  0  0  0  2  0  0  0  0  0  0
   32.7810   28.8370   35.6740 N   0  0  0  0  0  0  0  0  0  0  0  0
   32.4050   28.1750   36.3680 H   0  0  0  0  0  0  0  0  0  0  0  0
   32.0190   30.0120   35.5050 C   0  0  0  0  0  0  0  0  0  0  0  0
   32.0720   30.8270   34.3980 C   0  0  0  0  0  3  0  0  0  0  0  0
   31.3540   31.9850   34.2130 C   0  0  0  0  0  3  0  0  0  0  0  0
   30.5120   32.3710   35.2090 C   0  0  0  0  0  3  0  0  0  0  0  0
   30.4110   31.6000   36.3470 C   0  0  0  0  0  0  0  0  0  0  0  0
   29.5420   32.0400   37.3220 C   0  0  0  0  0  3  0  0  0  0  0  0
   29.3670   31.3420   38.4950 C   0  0  0  0  0  3  0  0  0  0  0  0
   30.0940   30.1830   38.6630 C   0  0  0  0  0  3  0  0  0  0  0  0
   30.9490   29.7860   37.6620 C   0  0  0  0  0  3  0  0  0  0  0  0
   31.1510   30.4530   36.4770 C   0  0  0  0  0  0  0  0  0  0  0  0
  1 12  1  0  0  0  0
  2  1  1  0  0  0  0
  3  2  2  0  0  0  0
  4  6  1  0  0  0  0
  4  3  1  0  0  0  0
  5  4  2  0  0  0  0
  6  7  1  0  0  0  0
  7  8  2  0  0  0  0
  7  1  1  0  0  0  0
  9  6  1  0  0  0  0
 10 15  1  0  0  0  0
 11 10  2  0  0  0  0
 12 11  1  0  0  0  0
 12 13  2  0  0  0  0
 13 14  1  0  0  0  0
 14 15  2  0  0  0  0
 14 16  1  0  0  0  0
 16 17  2  0  0  0  0
 18 16  1  0  0  0  0
 18 19  1  0  0  0  0
 20 21  1  0  0  0  0
 20  3  1  0  0  0  0
 21 22  1  0  0  0  0
 23 21  1  0  0  0  0
 23 32  1  0  0  0  0
 24 23  2  0  0  0  0
 25 24  1  0  0  0  0
 25 26  2  0  0  0  0
 26 27  1  0  0  0  0
 27 32  2  0  0  0  0
 27 28  1  0  0  0  0
 28 29  2  0  0  0  0
 29 30  1  0  0  0  0
 31 30  2  0  0  0  0
 32 31  1  0  0  0  0
M  END
>  <minimizedAffinity>
-6.69800997

$$$$

 OpenBabel03242510103D

 32 35  0  0  0  0  0  0  0  0999 V2000
   38.3350   29.8450   41.6570 N   0  0  0  0  0  0  0  0  0  0  0  0
   39.0080   28.9360   42.3650 C   0  0  0  0  0  3  0  0  0  0  0  0
   38.4300   27.9400   43.0910 C   0  0  0  0  0  0  0  0  0  0  0  0
   37.0420   27.9500   43.0320 C   0  0  0  0  0  0  0  0  0  0  0  0
   36.3820   27.0580   43.6750 O   0  0  0  0  0  0  0  0  0  0  0  0
   36.3180   28.8470   42.3310 N   0  0  0  0  0  0  0  0  0  0  0  0
   36.9840   29.8050   41.6360 C   0  0  0  0  0  0  0  0  0  0  0  0
   36.2610   30.6120   41.0050 O   0  0  0  0  0  0  0  0  0  0  0  0
   35.2880   28.8060   42.3230 H   0  0  0  0  0  0  0  0  0  0  0  0
   39.3770   33.2700   40.7610 C   0  0  0  0  0  3  0  0  0  0  0  0
   38.8450   32.1780   41.5070 C   0  0  0  0  0  3  0  0  0  0  0  0
   38.8690   30.8960   40.8930 C   0  0  0  0  0  0  0  0  0  0  0  0
   39.3920   30.8080   39.6570 N   0  0  0  0  0  0  0  0  0  0  0  0
   39.8810   31.8500   38.9890 C   0  0  0  0  0  0  0  0  0  0  0  0
   39.8810   33.0800   39.5260 N   0  0  0  0  0  0  0  0  0  0  0  0
   40.4290   31.6690   37.6560 C   0  0  0  0  0  0  0  0  0  0  0  0
   41.0270   30.5970   37.3390 O   0  0  0  0  0  0  0  0  0  0  0  0
   40.3470   32.6170   36.6620 O   0  0  0  0  0  0  0  0  0  0  0  0
   40.7410   32.4360   35.7720 H   0  0  0  0  0  0  0  0  0  0  0  0
   39.1760   26.9480   43.8670 C   0  0  0  0  0  2  0  0  0  0  0  0
   39.1380   25.6760   43.2280 N   0  0  0  0  0  0  0  0  0  0  0  0
   38.8520   24.8970   43.8380 H   0  0  0  0  0  0  0  0  0  0  0  0
   39.4290   25.3090   41.8970 C   0  0  0  0  0  0  0  0  0  0  0  0
   40.6480   25.4870   41.2850 C   0  0  0  0  0  3  0  0  0  0  0  0
   40.9550   25.1540   39.9870 C   0  0  0  0  0  3  0  0  0  0  0  0
   39.9730   24.5970   39.2290 C   0  0  0  0  0  3  0  0  0  0  0  0
   38.7270   24.3900   39.7820 C   0  0  0  0  0  0  0  0  0  0  0  0
   37.7720   23.8220   38.9670 C   0  0  0  0  0  3  0  0  0  0  0  0
   36.4970   23.5720   39.4220 C   0  0  0  0  0  3  0  0  0  0  0  0
   36.2060   23.9120   40.7260 C   0  0  0  0  0  3  0  0  0  0  0  0
   37.1930   24.4770   41.4990 C   0  0  0  0  0  3  0  0  0  0  0  0
   38.4770   24.7410   41.0820 C   0  0  0  0  0  0  0  0  0  0  0  0
  1  2  1  0  0  0  0
  2  3  2  0  0  0  0
  3 20  1  0  0  0  0
  4  3  1  0  0  0  0
  4  5  2  0  0  0  0
  6  4  1  0  0  0  0
  7  1  1  0  0  0  0
  7  6  1  0  0  0  0
  8  7  2  0  0  0  0
  9  6  1  0  0  0  0
 10 11  1  0  0  0  0
 12 11  2  0  0  0  0
 12  1  1  0  0  0  0
 13 12  1  0  0  0  0
 14 15  1  0  0  0  0
 14 13  2  0  0  0  0
 15 10  2  0  0  0  0
 16 14  1  0  0  0  0
 17 16  2  0  0  0  0
 18 16  1  0  0  0  0
 19 18  1  0  0  0  0
 21 22  1  0  0  0  0
 21 20  1  0  0  0  0
 23 21  1  0  0  0  0
 24 23  1  0  0  0  0
 25 24  2  0  0  0  0
 26 27  2  0  0  0  0
 26 25  1  0  0  0  0
 27 32  1  0  0  0  0
 28 29  2  0  0  0  0
 28 27  1  0  0  0  0
 29 30  1  0  0  0  0
 30 31  2  0  0  0  0
 32 31  1  0  0  0  0
 32 23  2  0  0  0  0
M  END
>  <minimizedAffinity>
-6.59441996

$$$$

 OpenBabel03242510103D

 32 35  0  0  0  0  0  0  0  0999 V2000
   36.9610   30.0560   39.3050 N   0  0  0  0  0  0  0  0  0  0  0  0
   37.2180   29.5400   40.5080 C   0  0  0  0  0  3  0  0  0  0  0  0
   38.0320   30.1150   41.4370 C   0  0  0  0  0  0  0  0  0  0  0  0
   38.5870   31.3170   41.0140 C   0  0  0  0  0  0  0  0  0  0  0  0
   39.3720   31.9550   41.8030 O   0  0  0  0  0  0  0  0  0  0  0  0
   38.3570   31.8780   39.8090 N   0  0  0  0  0  0  0  0  0  0  0  0
   37.5300   31.2290   38.9480 C   0  0  0  0  0  0  0  0  0  0  0  0
   37.3530   31.7960   37.8440 O   0  0  0  0  0  0  0  0  0  0  0  0
   38.7960   32.7730   39.5490 H   0  0  0  0  0  0  0  0  0  0  0  0
   33.9200   28.7330   37.6870 C   0  0  0  0  0  3  0  0  0  0  0  0
   34.7850   29.2850   38.6760 C   0  0  0  0  0  3  0  0  0  0  0  0
   36.1380   29.5140   38.3040 C   0  0  0  0  0  0  0  0  0  0  0  0
   36.5010   29.1960   37.0490 N   0  0  0  0  0  0  0  0  0  0  0  0
   35.6640   28.6820   36.1490 C   0  0  0  0  0  0  0  0  0  0  0  0
   34.3780   28.4470   36.4520 N   0  0  0  0  0  0  0  0  0  0  0  0
   36.1370   28.3660   34.8120 C   0  0  0  0  0  0  0  0  0  0  0  0
   35.5930   27.4450   34.1320 O   0  0  0  0  0  0  0  0  0  0  0  0
   37.1790   29.0200   34.1970 O   0  0  0  0  0  0  0  0  0  0  0  0
   37.4570   28.7590   33.2830 H   0  0  0  0  0  0  0  0  0  0  0  0
   38.3110   29.5410   42.7540 C   0  0  0  0  0  2  0  0  0  0  0  0
   37.8190   28.2070   42.8370 N   0  0  0  0  0  0  0  0  0  0  0  0
   36.7920   28.1270   42.8390 H   0  0  0  0  0  0  0  0  0  0  0  0
   38.5080   26.9790   42.9180 C   0  0  0  0  0  0  0  0  0  0  0  0
   39.5960   26.7440   43.7270 C   0  0  0  0  0  3  0  0  0  0  0  0
   40.2960   25.5630   43.8150 C   0  0  0  0  0  3  0  0  0  0  0  0
   39.8860   24.5270   43.0360 C   0  0  0  0  0  3  0  0  0  0  0  0
   38.8010   24.6950   42.2020 C   0  0  0  0  0  0  0  0  0  0  0  0
   38.4300   23.6110   41.4370 C   0  0  0  0  0  3  0  0  0  0  0  0
   37.3600   23.6730   40.5740 C   0  0  0  0  0  3  0  0  0  0  0  0
   36.6690   24.8640   40.4990 C   0  0  0  0  0  3  0  0  0  0  0  0
   37.0790   25.9180   41.2810 C   0  0  0  0  0  3  0  0  0  0  0  0
   38.1400   25.8950   42.1550 C   0  0  0  0  0  0  0  0  0  0  0  0
  1  2  1  0  0  0  0
  2  3  2  0  0  0  0
  3 20  1  0  0  0  0
  4  3  1  0  0  0  0
  4  5  2  0  0  0  0
  6  4  1  0  0  0  0
  7  1  1  0  0  0  0
  7  6  1  0  0  0  0
  8  7  2  0  0  0  0
  9  6  1  0  0  0  0
 10 11  1  0  0  0  0
 12 11  2  0  0  0  0
 12  1  1  0  0  0  0
 13 12  1  0  0  0  0
 14 15  1  0  0  0  0
 14 13  2  0  0  0  0
 15 10  2  0  0  0  0
 16 14  1  0  0  0  0
 17 16  2  0  0  0  0
 18 16  1  0  0  0  0
 19 18  1  0  0  0  0
 20 21  1  0  0  0  0
 21 22  1  0  0  0  0
 21 23  1  0  0  0  0
 23 24  1  0  0  0  0
 24 25  2  0  0  0  0
 26 25  1  0  0  0  0
 27 26  2  0  0  0  0
 28 27  1  0  0  0  0
 29 28  2  0  0  0  0
 30 29  1  0  0  0  0
 30 31  2  0  0  0  0
 31 32  1  0  0  0  0
 32 27  1  0  0  0  0
 32 23  2  0  0  0  0
M  END
>  <minimizedAffinity>
-6.58499527

$$$$

 OpenBabel03242510103D

 32 35  0  0  0  0  0  0  0  0999 V2000
   38.7280   30.8910   39.9270 N   0  0  0  0  0  0  0  0  0  0  0  0
   37.8050   30.3390   40.7170 C   0  0  0  0  0  3  0  0  0  0  0  0
   37.1530   29.1750   40.4460 C   0  0  0  0  0  0  0  0  0  0  0  0
   37.5410   28.5940   39.2450 C   0  0  0  0  0  0  0  0  0  0  0  0
   36.9970   27.4900   38.8800 O   0  0  0  0  0  0  0  0  0  0  0  0
   38.4680   29.1130   38.4140 N   0  0  0  0  0  0  0  0  0  0  0  0
   39.0640   30.2800   38.7690 C   0  0  0  0  0  0  0  0  0  0  0  0
   39.9170   30.7160   37.9590 O   0  0  0  0  0  0  0  0  0  0  0  0
   38.7160   28.6370   37.5340 H   0  0  0  0  0  0  0  0  0  0  0  0
   39.4030   34.5170   40.0570 C   0  0  0  0  0  3  0  0  0  0  0  0
   38.7210   33.2820   39.8500 C   0  0  0  0  0  3  0  0  0  0  0  0
   39.4320   32.0880   40.1460 C   0  0  0  0  0  0  0  0  0  0  0  0
   40.6910   32.2090   40.6000 N   0  0  0  0  0  0  0  0  0  0  0  0
   41.2970   33.3800   40.7840 C   0  0  0  0  0  0  0  0  0  0  0  0
   40.6690   34.5350   40.5180 N   0  0  0  0  0  0  0  0  0  0  0  0
   42.6620   33.4240   41.2790 C   0  0  0  0  0  0  0  0  0  0  0  0
   43.6440   33.4420   40.4780 O   0  0  0  0  0  0  0  0  0  0  0  0
   42.9880   33.4480   42.6160 O   0  0  0  0  0  0  0  0  0  0  0  0
   43.9380   33.4780   42.8930 H   0  0  0  0  0  0  0  0  0  0  0  0
   36.1410   28.5770   41.3180 C   0  0  0  0  0  2  0  0  0  0  0  0
   36.7530   27.8570   42.3830 N   0  0  0  0  0  0  0  0  0  0  0  0
   36.6690   28.3020   43.3080 H   0  0  0  0  0  0  0  0  0  0  0  0
   37.4560   26.6330   42.3780 C   0  0  0  0  0  0  0  0  0  0  0  0
   36.9140   25.4220   42.0180 C   0  0  0  0  0  3  0  0  0  0  0  0
   37.5710   24.2130   42.0190 C   0  0  0  0  0  3  0  0  0  0  0  0
   38.8730   24.2010   42.4090 C   0  0  0  0  0  3  0  0  0  0  0  0
   39.4770   25.3830   42.7840 C   0  0  0  0  0  0  0  0  0  0  0  0
   40.7980   25.3110   43.1700 C   0  0  0  0  0  3  0  0  0  0  0  0
   41.4940   26.4320   43.5590 C   0  0  0  0  0  3  0  0  0  0  0  0
   40.8220   27.6360   43.5520 C   0  0  0  0  0  3  0  0  0  0  0  0
   39.5040   27.6550   43.1600 C   0  0  0  0  0  3  0  0  0  0  0  0
   38.7750   26.5600   42.7630 C   0  0  0  0  0  0  0  0  0  0  0  0
  1 12  1  0  0  0  0
  1  2  1  0  0  0  0
  3  2  2  0  0  0  0
  3 20  1  0  0  0  0
  4  3  1  0  0  0  0
  5  4  2  0  0  0  0
  6  7  1  0  0  0  0
  6  4  1  0  0  0  0
  7  1  1  0  0  0  0
  8  7  2  0  0  0  0
  9  6  1  0  0  0  0
 10 15  1  0  0  0  0
 11 10  2  0  0  0  0
 11 12  1  0  0  0  0
 12 13  2  0  0  0  0
 13 14  1  0  0  0  0
 14 16  1  0  0  0  0
 15 14  2  0  0  0  0
 16 18  1  0  0  0  0
 17 16  2  0  0  0  0
 18 19  1  0  0  0  0
 20 21  1  0  0  0  0
 21 22  1  0  0  0  0
 23 21  1  0  0  0  0
 23 32  1  0  0  0  0
 24 25  1  0  0  0  0
 24 23  2  0  0  0  0
 25 26  2  0  0  0  0
 26 27  1  0  0  0  0
 27 28  1  0  0  0  0
 28 29  2  0  0  0  0
 30 29  1  0  0  0  0
 31 30  2  0  0  0  0
 32 27  2  0  0  0  0
 32 31  1  0  0  0  0
M  END
>  <minimizedAffinity>
-6.51633739

$$$$

 OpenBabel03242510103D

 32 35  0  0  0  0  0  0  0  0999 V2000
   37.9200   30.1530   38.7350 N   0  0  0  0  0  0  0  0  0  0  0  0
   38.8680   29.3470   39.2190 C   0  0  0  0  0  3  0  0  0  0  0  0
   39.7720   29.7040   40.1720 C   0  0  0  0  0  0  0  0  0  0  0  0
   39.6210   31.0130   40.6110 C   0  0  0  0  0  0  0  0  0  0  0  0
   40.4150   31.4660   41.5120 O   0  0  0  0  0  0  0  0  0  0  0  0
   38.6810   31.8650   40.1530 N   0  0  0  0  0  0  0  0  0  0  0  0
   37.8220   31.4180   39.2000 C   0  0  0  0  0  0  0  0  0  0  0  0
   36.9700   32.2520   38.8120 O   0  0  0  0  0  0  0  0  0  0  0  0
   38.6150   32.8270   40.5160 H   0  0  0  0  0  0  0  0  0  0  0  0
   34.7800   28.9050   37.2530 C   0  0  0  0  0  3  0  0  0  0  0  0
   35.7740   29.2300   38.2210 C   0  0  0  0  0  3  0  0  0  0  0  0
   36.9640   29.8490   37.7520 C   0  0  0  0  0  0  0  0  0  0  0  0
   37.0640   30.0840   36.4320 N   0  0  0  0  0  0  0  0  0  0  0  0
   36.1140   29.7680   35.5540 C   0  0  0  0  0  0  0  0  0  0  0  0
   34.9730   29.1810   35.9480 N   0  0  0  0  0  0  0  0  0  0  0  0
   36.3010   30.0560   34.1430 C   0  0  0  0  0  0  0  0  0  0  0  0
   35.7990   31.0960   33.6200 O   0  0  0  0  0  0  0  0  0  0  0  0
   37.0140   29.2490   33.2870 O   0  0  0  0  0  0  0  0  0  0  0  0
   37.1070   29.4980   32.3330 H   0  0  0  0  0  0  0  0  0  0  0  0
   40.8090   28.8140   40.6960 C   0  0  0  0  0  2  0  0  0  0  0  0
   40.4260   28.2800   41.9590 N   0  0  0  0  0  0  0  0  0  0  0  0
   41.2010   28.1490   42.6240 H   0  0  0  0  0  0  0  0  0  0  0  0
   39.1570   27.9030   42.4490 C   0  0  0  0  0  0  0  0  0  0  0  0
   38.3810   28.6730   43.2840 C   0  0  0  0  0  3  0  0  0  0  0  0
   37.1490   28.3240   43.7890 C   0  0  0  0  0  3  0  0  0  0  0  0
   36.6440   27.1110   43.4390 C   0  0  0  0  0  3  0  0  0  0  0  0
   37.3720   26.2900   42.6050 C   0  0  0  0  0  0  0  0  0  0  0  0
   36.8100   25.0730   42.2840 C   0  0  0  0  0  3  0  0  0  0  0  0
   37.4540   24.1810   41.4570 C   0  0  0  0  0  3  0  0  0  0  0  0
   38.6860   24.5460   40.9600 C   0  0  0  0  0  3  0  0  0  0  0  0
   39.2060   25.7700   41.3100 C   0  0  0  0  0  3  0  0  0  0  0  0
   38.5950   26.6890   42.1300 C   0  0  0  0  0  0  0  0  0  0  0  0
  1  7  1  0  0  0  0
  1  2  1  0  0  0  0
  2  3  2  0  0  0  0
  3  4  1  0  0  0  0
  3 20  1  0  0  0  0
  4  5  2  0  0  0  0
  6  9  1  0  0  0  0
  6  4  1  0  0  0  0
  7  6  1  0  0  0  0
  8  7  2  0  0  0  0
 10 11  1  0  0  0  0
 12 11  2  0  0  0  0
 12  1  1  0  0  0  0
 13 12  1  0  0  0  0
 14 15  1  0  0  0  0
 14 13  2  0  0  0  0
 15 10  2  0  0  0  0
 16 14  1  0  0  0  0
 17 16  2  0  0  0  0
 18 16  1  0  0  0  0
 19 18  1  0  0  0  0
 20 21  1  0  0  0  0
 21 23  1  0  0  0  0
 21 22  1  0  0  0  0
 23 24  1  0  0  0  0
 24 25  2  0  0  0  0
 26 25  1  0  0  0  0
 27 26  2  0  0  0  0
 28 27  1  0  0  0  0
 29 28  2  0  0  0  0
 30 31  2  0  0  0  0
 30 29  1  0  0  0  0
 31 32  1  0  0  0  0
 32 23  2  0  0  0  0
 32 27  1  0  0  0  0
M  END
>  <minimizedAffinity>
-6.48919535

$$$$
