
 OpenBabel03242509573D

 37 42  0  0  0  0  0  0  0  0999 V2000
   37.0270   32.3960   38.9630 C   0  0  0  0  0  3  0  0  0  0  0  0
   37.5390   33.6340   39.3960 C   0  0  0  0  0  3  0  0  0  0  0  0
   38.4480   33.7340   40.3990 C   0  0  0  0  0  0  0  0  0  0  0  0
   38.8630   32.5990   40.9880 N   0  0  0  0  0  0  0  0  0  0  0  0
   38.3590   31.3890   40.5590 C   0  0  0  0  0  0  0  0  0  0  0  0
   37.4830   31.2900   39.5940 N   0  0  0  0  0  0  0  0  0  0  0  0
   38.9510   30.2620   41.3400 C   0  0  0  0  0  0  0  0  0  0  0  0
   40.0800   30.2980   42.2770 C   0  0  0  0  0  3  0  0  0  0  0  0
   40.1120   28.5500   42.7430 S   0  0  0  0  0  0  0  0  0  0  0  0
   38.6490   28.0810   41.6370 C   0  0  0  0  0  0  0  0  0  0  0  0
   38.2590   29.2000   41.0280 N   0  0  0  0  0  0  0  0  0  0  0  0
   38.2620   26.6930   41.6610 N   0  0  0  0  0  0  0  0  0  0  0  0
   37.3370   26.1470   42.4670 C   0  0  0  0  0  3  0  0  0  0  0  0
   37.2970   24.8320   42.1510 N   0  0  0  0  0  0  0  0  0  0  0  0
   38.1780   24.5840   41.1760 C   0  0  0  0  0  0  0  0  0  0  0  0
   38.5940   23.4830   40.4480 C   0  0  0  0  0  0  0  0  0  0  0  0
   39.5470   23.5490   39.4830 N   0  0  0  0  0  0  0  0  0  0  0  0
   40.1350   24.7350   39.1990 C   0  0  0  0  0  3  0  0  0  0  0  0
   39.7490   25.8260   39.8920 N   0  0  0  0  0  0  0  0  0  0  0  0
   38.8010   25.7700   40.8550 C   0  0  0  0  0  0  0  0  0  0  0  0
   37.9900   22.2210   40.7280 N   0  0  0  0  0  0  0  0  0  0  0  0
   38.2790   21.3830   40.2030 H   0  0  0  0  0  0  0  0  0  0  0  0
   37.2650   22.1480   41.4560 H   0  0  0  0  0  0  0  0  0  0  0  0
   38.9480   35.0340   40.8200 C   0  0  0  0  0  2  0  0  0  0  0  0
   39.8770   35.7280   39.8980 C   0  0  0  0  0  2  0  0  0  0  0  0
   41.2580   35.2120   40.1470 C   0  0  0  0  0  0  0  0  0  0  0  0
   41.9650   34.4870   39.2080 C   0  0  0  0  0  3  0  0  0  0  0  0
   43.2170   33.9770   39.3390 C   0  0  0  0  0  3  0  0  0  0  0  0
   43.8020   34.2340   40.5440 N   0  0  0  0  0  0  0  0  0  0  0  0
   43.1460   34.9380   41.4890 C   0  0  0  0  0  0  0  0  0  0  0  0
   41.8960   35.4370   41.3350 N   0  0  0  0  0  0  0  0  0  0  0  0
   43.8410   35.1680   42.7470 C   0  0  0  0  0  0  0  0  0  0  0  0
   43.6690   36.3700   43.4330 C   0  0  0  0  0  3  0  0  0  0  0  0
   44.3280   36.5810   44.6180 C   0  0  0  0  0  3  0  0  0  0  0  0
   45.1340   35.6520   45.1310 N   0  0  0  0  0  0  0  0  0  0  0  0
   45.2850   34.4960   44.4510 C   0  0  0  0  0  3  0  0  0  0  0  0
   44.6550   34.2320   43.2690 N   0  0  0  0  0  0  0  0  0  0  0  0
  1  2  2  0  0  0  0
  1  6  1  0  0  0  0
  2  3  1  0  0  0  0
  3 24  1  0  0  0  0
  3  4  2  0  0  0  0
  5  4  1  0  0  0  0
  5  7  1  0  0  0  0
  6  5  2  0  0  0  0
  7  8  2  0  0  0  0
  8  9  1  0  0  0  0
 10 12  1  0  0  0  0
 10  9  1  0  0  0  0
 11  7  1  0  0  0  0
 11 10  2  0  0  0  0
 12 13  1  0  0  0  0
 14 13  2  0  0  0  0
 15 14  1  0  0  0  0
 16 21  1  0  0  0  0
 16 15  2  0  0  0  0
 17 16  1  0  0  0  0
 18 17  2  0  0  0  0
 18 19  1  0  0  0  0
 19 20  2  0  0  0  0
 20 15  1  0  0  0  0
 20 12  1  0  0  0  0
 21 23  1  0  0  0  0
 22 21  1  0  0  0  0
 25 26  1  0  0  0  0
 25 24  1  0  0  0  0
 26 31  1  0  0  0  0
 27 28  1  0  0  0  0
 27 26  2  0  0  0  0
 28 29  2  0  0  0  0
 29 30  1  0  0  0  0
 30 32  1  0  0  0  0
 31 30  2  0  0  0  0
 32 37  2  0  0  0  0
 32 33  1  0  0  0  0
 33 34  2  0  0  0  0
 34 35  1  0  0  0  0
 36 35  2  0  0  0  0
 37 36  1  0  0  0  0
M  END
>  <minimizedAffinity>
-7.8608532

$$$$

 OpenBabel03242509573D

 37 42  0  0  0  0  0  0  0  0999 V2000
   35.2850   29.2950   39.4090 C   0  0  0  0  0  3  0  0  0  0  0  0
   35.4950   28.8680   40.7340 C   0  0  0  0  0  3  0  0  0  0  0  0
   36.6600   29.0880   41.3930 C   0  0  0  0  0  0  0  0  0  0  0  0
   37.6380   29.7420   40.7410 N   0  0  0  0  0  0  0  0  0  0  0  0
   37.4260   30.1600   39.4440 C   0  0  0  0  0  0  0  0  0  0  0  0
   36.3050   29.9470   38.8070 N   0  0  0  0  0  0  0  0  0  0  0  0
   38.6310   30.8630   38.9120 C   0  0  0  0  0  0  0  0  0  0  0  0
   39.3880   30.5730   37.6870 C   0  0  0  0  0  3  0  0  0  0  0  0
   40.6450   31.8680   37.8220 S   0  0  0  0  0  0  0  0  0  0  0  0
   39.9630   32.5580   39.4480 C   0  0  0  0  0  0  0  0  0  0  0  0
   38.9020   31.8150   39.7620 N   0  0  0  0  0  0  0  0  0  0  0  0
   40.6750   33.6820   40.0020 N   0  0  0  0  0  0  0  0  0  0  0  0
   40.3990   34.9770   39.7780 C   0  0  0  0  0  3  0  0  0  0  0  0
   41.3090   35.6810   40.4910 N   0  0  0  0  0  0  0  0  0  0  0  0
   42.1190   34.8330   41.1340 C   0  0  0  0  0  0  0  0  0  0  0  0
   43.2040   34.9250   41.9880 C   0  0  0  0  0  0  0  0  0  0  0  0
   43.8430   33.8400   42.4960 N   0  0  0  0  0  0  0  0  0  0  0  0
   43.4190   32.5970   42.1680 C   0  0  0  0  0  3  0  0  0  0  0  0
   42.3630   32.4760   41.3380 N   0  0  0  0  0  0  0  0  0  0  0  0
   41.7210   33.5500   40.8270 C   0  0  0  0  0  0  0  0  0  0  0  0
   43.6710   36.2250   42.3480 N   0  0  0  0  0  0  0  0  0  0  0  0
   44.4760   36.3260   42.9820 H   0  0  0  0  0  0  0  0  0  0  0  0
   43.2020   37.0620   41.9740 H   0  0  0  0  0  0  0  0  0  0  0  0
   36.8380   28.6250   42.7610 C   0  0  0  0  0  2  0  0  0  0  0  0
   38.2290   28.5090   43.2570 C   0  0  0  0  0  2  0  0  0  0  0  0
   38.6700   27.0900   43.0890 C   0  0  0  0  0  0  0  0  0  0  0  0
   39.7330   26.5520   43.7870 C   0  0  0  0  0  3  0  0  0  0  0  0
   40.2080   25.2820   43.7050 C   0  0  0  0  0  3  0  0  0  0  0  0
   39.5310   24.4880   42.8270 N   0  0  0  0  0  0  0  0  0  0  0  0
   38.4880   24.9740   42.1260 C   0  0  0  0  0  0  0  0  0  0  0  0
   38.0310   26.2460   42.2250 N   0  0  0  0  0  0  0  0  0  0  0  0
   37.8200   24.0610   41.2110 C   0  0  0  0  0  0  0  0  0  0  0  0
   36.5590   24.3730   40.7040 C   0  0  0  0  0  3  0  0  0  0  0  0
   35.9340   23.5070   39.8430 C   0  0  0  0  0  3  0  0  0  0  0  0
   36.5140   22.3650   39.4760 N   0  0  0  0  0  0  0  0  0  0  0  0
   37.7360   22.0830   39.9770 C   0  0  0  0  0  3  0  0  0  0  0  0
   38.4040   22.9060   40.8370 N   0  0  0  0  0  0  0  0  0  0  0  0
  1  2  1  0  0  0  0
  2  3  2  0  0  0  0
  3 24  1  0  0  0  0
  4  3  1  0  0  0  0
  5  4  2  0  0  0  0
  6  1  2  0  0  0  0
  6  5  1  0  0  0  0
  7  5  1  0  0  0  0
  7 11  1  0  0  0  0
  8  9  1  0  0  0  0
  8  7  2  0  0  0  0
  9 10  1  0  0  0  0
 10 11  2  0  0  0  0
 10 12  1  0  0  0  0
 12 20  1  0  0  0  0
 13 12  1  0  0  0  0
 13 14  2  0  0  0  0
 14 15  1  0  0  0  0
 15 16  1  0  0  0  0
 16 21  1  0  0  0  0
 16 17  2  0  0  0  0
 18 17  1  0  0  0  0
 19 18  2  0  0  0  0
 20 15  2  0  0  0  0
 20 19  1  0  0  0  0
 21 22  1  0  0  0  0
 23 21  1  0  0  0  0
 24 25  1  0  0  0  0
 26 25  1  0  0  0  0
 26 27  1  0  0  0  0
 28 27  2  0  0  0  0
 29 28  1  0  0  0  0
 30 31  1  0  0  0  0
 30 29  2  0  0  0  0
 31 26  2  0  0  0  0
 32 30  1  0  0  0  0
 33 32  2  0  0  0  0
 34 33  1  0  0  0  0
 35 34  2  0  0  0  0
 35 36  1  0  0  0  0
 36 37  2  0  0  0  0
 37 32  1  0  0  0  0
M  END
>  <minimizedAffinity>
-7.65643167

$$$$

 OpenBabel03242509573D

 37 42  0  0  0  0  0  0  0  0999 V2000
   35.4330   29.2390   39.2480 C   0  0  0  0  0  3  0  0  0  0  0  0
   35.6390   28.8690   40.5910 C   0  0  0  0  0  3  0  0  0  0  0  0
   36.7570   29.2150   41.2770 C   0  0  0  0  0  0  0  0  0  0  0  0
   37.6910   29.9380   40.6360 N   0  0  0  0  0  0  0  0  0  0  0  0
   37.4840   30.2990   39.3200 C   0  0  0  0  0  0  0  0  0  0  0  0
   36.4080   29.9650   38.6570 N   0  0  0  0  0  0  0  0  0  0  0  0
   38.6360   31.0960   38.8020 C   0  0  0  0  0  0  0  0  0  0  0  0
   39.3580   30.9350   37.5340 C   0  0  0  0  0  3  0  0  0  0  0  0
   40.5610   32.2730   37.7260 S   0  0  0  0  0  0  0  0  0  0  0  0
   39.9120   32.8060   39.4220 C   0  0  0  0  0  0  0  0  0  0  0  0
   38.8980   31.9920   39.7140 N   0  0  0  0  0  0  0  0  0  0  0  0
   40.5940   33.9160   40.0370 N   0  0  0  0  0  0  0  0  0  0  0  0
   40.2540   35.2100   39.9230 C   0  0  0  0  0  3  0  0  0  0  0  0
   41.1590   35.8990   40.6580 N   0  0  0  0  0  0  0  0  0  0  0  0
   42.0290   35.0430   41.2040 C   0  0  0  0  0  0  0  0  0  0  0  0
   43.1410   35.1200   42.0240 C   0  0  0  0  0  0  0  0  0  0  0  0
   43.8450   34.0320   42.4240 N   0  0  0  0  0  0  0  0  0  0  0  0
   43.4640   32.7980   42.0160 C   0  0  0  0  0  3  0  0  0  0  0  0
   42.3830   32.6910   41.2160 N   0  0  0  0  0  0  0  0  0  0  0  0
   41.6760   33.7700   40.8120 C   0  0  0  0  0  0  0  0  0  0  0  0
   43.5630   36.4100   42.4680 N   0  0  0  0  0  0  0  0  0  0  0  0
   44.3870   36.5000   43.0800 H   0  0  0  0  0  0  0  0  0  0  0  0
   43.0440   37.2500   42.1770 H   0  0  0  0  0  0  0  0  0  0  0  0
   36.9320   28.8090   42.6630 C   0  0  0  0  0  2  0  0  0  0  0  0
   36.4450   27.4600   43.0360 C   0  0  0  0  0  2  0  0  0  0  0  0
   37.5300   26.4740   42.7440 C   0  0  0  0  0  0  0  0  0  0  0  0
   37.3150   25.3240   42.0100 C   0  0  0  0  0  3  0  0  0  0  0  0
   38.2310   24.3710   41.6930 C   0  0  0  0  0  3  0  0  0  0  0  0
   39.4830   24.6180   42.1720 N   0  0  0  0  0  0  0  0  0  0  0  0
   39.7360   25.7280   42.8940 C   0  0  0  0  0  0  0  0  0  0  0  0
   38.8050   26.6660   43.1970 N   0  0  0  0  0  0  0  0  0  0  0  0
   41.0980   25.9170   43.3680 C   0  0  0  0  0  0  0  0  0  0  0  0
   41.3790   26.8900   44.3270 C   0  0  0  0  0  3  0  0  0  0  0  0
   42.6660   27.0630   44.7690 C   0  0  0  0  0  3  0  0  0  0  0  0
   43.6610   26.3140   44.2970 N   0  0  0  0  0  0  0  0  0  0  0  0
   43.3680   25.3780   43.3700 C   0  0  0  0  0  3  0  0  0  0  0  0
   42.1060   25.1610   42.8940 N   0  0  0  0  0  0  0  0  0  0  0  0
  1  2  1  0  0  0  0
  2  3  2  0  0  0  0
  3 24  1  0  0  0  0
  4  3  1  0  0  0  0
  5  4  2  0  0  0  0
  6  1  2  0  0  0  0
  6  5  1  0  0  0  0
  7  5  1  0  0  0  0
  7 11  1  0  0  0  0
  8  9  1  0  0  0  0
  8  7  2  0  0  0  0
  9 10  1  0  0  0  0
 10 11  2  0  0  0  0
 10 12  1  0  0  0  0
 12 20  1  0  0  0  0
 13 12  1  0  0  0  0
 13 14  2  0  0  0  0
 14 15  1  0  0  0  0
 15 16  1  0  0  0  0
 16 17  2  0  0  0  0
 16 21  1  0  0  0  0
 18 17  1  0  0  0  0
 19 18  2  0  0  0  0
 20 15  2  0  0  0  0
 20 19  1  0  0  0  0
 21 22  1  0  0  0  0
 23 21  1  0  0  0  0
 24 25  1  0  0  0  0
 26 25  1  0  0  0  0
 26 31  1  0  0  0  0
 27 26  2  0  0  0  0
 28 27  1  0  0  0  0
 28 29  2  0  0  0  0
 29 30  1  0  0  0  0
 30 31  2  0  0  0  0
 30 32  1  0  0  0  0
 32 33  1  0  0  0  0
 33 34  2  0  0  0  0
 35 34  1  0  0  0  0
 36 35  2  0  0  0  0
 37 32  2  0  0  0  0
 37 36  1  0  0  0  0
M  END
>  <minimizedAffinity>
-7.62998962

$$$$

 OpenBabel03242509573D

 37 42  0  0  0  0  0  0  0  0999 V2000
   37.2160   27.8340   44.0480 C   0  0  0  0  0  3  0  0  0  0  0  0
   38.4430   27.1730   43.8580 C   0  0  0  0  0  3  0  0  0  0  0  0
   39.3080   27.5140   42.8690 C   0  0  0  0  0  0  0  0  0  0  0  0
   38.9620   28.5240   42.0520 N   0  0  0  0  0  0  0  0  0  0  0  0
   37.7580   29.1690   42.2430 C   0  0  0  0  0  0  0  0  0  0  0  0
   36.9230   28.8410   43.1930 N   0  0  0  0  0  0  0  0  0  0  0  0
   37.5730   30.2530   41.2320 C   0  0  0  0  0  0  0  0  0  0  0  0
   36.3990   30.5260   40.3930 C   0  0  0  0  0  3  0  0  0  0  0  0
   37.0250   31.9680   39.4980 S   0  0  0  0  0  0  0  0  0  0  0  0
   38.7030   31.9620   40.3730 C   0  0  0  0  0  0  0  0  0  0  0  0
   38.6830   30.9390   41.2270 N   0  0  0  0  0  0  0  0  0  0  0  0
   39.6240   32.9960   39.9750 N   0  0  0  0  0  0  0  0  0  0  0  0
   39.7540   34.2010   40.5540 C   0  0  0  0  0  3  0  0  0  0  0  0
   40.7270   34.8420   39.8650 N   0  0  0  0  0  0  0  0  0  0  0  0
   41.1780   34.0460   38.8890 C   0  0  0  0  0  0  0  0  0  0  0  0
   42.1260   34.1180   37.8850 C   0  0  0  0  0  0  0  0  0  0  0  0
   42.3630   33.1040   37.0140 N   0  0  0  0  0  0  0  0  0  0  0  0
   41.6520   31.9560   37.1100 C   0  0  0  0  0  3  0  0  0  0  0  0
   40.7210   31.8560   38.0800 N   0  0  0  0  0  0  0  0  0  0  0  0
   40.4770   32.8600   38.9520 C   0  0  0  0  0  0  0  0  0  0  0  0
   42.8890   35.3180   37.7620 N   0  0  0  0  0  0  0  0  0  0  0  0
   43.6020   35.4020   37.0240 H   0  0  0  0  0  0  0  0  0  0  0  0
   42.7250   36.1010   38.4110 H   0  0  0  0  0  0  0  0  0  0  0  0
   40.5660   26.8020   42.7050 C   0  0  0  0  0  2  0  0  0  0  0  0
   41.2140   26.2880   43.9350 C   0  0  0  0  0  2  0  0  0  0  0  0
   42.1550   27.3340   44.4410 C   0  0  0  0  0  0  0  0  0  0  0  0
   42.9180   27.1640   45.5790 C   0  0  0  0  0  3  0  0  0  0  0  0
   43.7960   28.0500   46.1170 C   0  0  0  0  0  3  0  0  0  0  0  0
   43.9050   29.2200   45.4240 N   0  0  0  0  0  0  0  0  0  0  0  0
   43.1780   29.4270   44.3080 C   0  0  0  0  0  0  0  0  0  0  0  0
   42.3070   28.5260   43.7900 N   0  0  0  0  0  0  0  0  0  0  0  0
   43.3520   30.7010   43.6290 C   0  0  0  0  0  0  0  0  0  0  0  0
   42.4240   31.1220   42.6770 C   0  0  0  0  0  3  0  0  0  0  0  0
   42.5950   32.3240   42.0390 C   0  0  0  0  0  3  0  0  0  0  0  0
   43.6390   33.1050   42.3140 N   0  0  0  0  0  0  0  0  0  0  0  0
   44.5250   32.6800   43.2390 C   0  0  0  0  0  3  0  0  0  0  0  0
   44.4050   31.4930   43.9040 N   0  0  0  0  0  0  0  0  0  0  0  0
  2  1  1  0  0  0  0
  3  2  2  0  0  0  0
  4  5  2  0  0  0  0
  4  3  1  0  0  0  0
  5  6  1  0  0  0  0
  6  1  2  0  0  0  0
  7  5  1  0  0  0  0
  8  7  2  0  0  0  0
  9 10  1  0  0  0  0
  9  8  1  0  0  0  0
 10 11  2  0  0  0  0
 11  7  1  0  0  0  0
 12 10  1  0  0  0  0
 12 13  1  0  0  0  0
 14 13  2  0  0  0  0
 15 20  1  0  0  0  0
 15 14  1  0  0  0  0
 16 15  2  0  0  0  0
 17 18  2  0  0  0  0
 17 16  1  0  0  0  0
 18 19  1  0  0  0  0
 19 20  2  0  0  0  0
 20 12  1  0  0  0  0
 21 16  1  0  0  0  0
 21 23  1  0  0  0  0
 22 21  1  0  0  0  0
 24  3  1  0  0  0  0
 24 25  1  0  0  0  0
 25 26  1  0  0  0  0
 26 27  1  0  0  0  0
 27 28  2  0  0  0  0
 29 28  1  0  0  0  0
 30 29  2  0  0  0  0
 31 30  1  0  0  0  0
 31 26  2  0  0  0  0
 32 37  1  0  0  0  0
 32 30  1  0  0  0  0
 33 32  2  0  0  0  0
 34 35  2  0  0  0  0
 34 33  1  0  0  0  0
 35 36  1  0  0  0  0
 36 37  2  0  0  0  0
M  END
>  <minimizedAffinity>
-7.52866507

$$$$

 OpenBabel03242509573D

 37 42  0  0  0  0  0  0  0  0999 V2000
   40.9320   25.5610   43.4810 C   0  0  0  0  0  3  0  0  0  0  0  0
   39.8520   26.3650   43.8900 C   0  0  0  0  0  3  0  0  0  0  0  0
   39.3590   27.3670   43.1200 C   0  0  0  0  0  0  0  0  0  0  0  0
   39.9360   27.5850   41.9250 N   0  0  0  0  0  0  0  0  0  0  0  0
   40.9930   26.7930   41.5290 C   0  0  0  0  0  0  0  0  0  0  0  0
   41.4710   25.8290   42.2700 N   0  0  0  0  0  0  0  0  0  0  0  0
   41.4810   27.2000   40.1770 C   0  0  0  0  0  0  0  0  0  0  0  0
   42.1350   26.3710   39.1570 C   0  0  0  0  0  3  0  0  0  0  0  0
   42.3770   27.6340   37.8840 S   0  0  0  0  0  0  0  0  0  0  0  0
   41.5840   29.0170   38.9040 C   0  0  0  0  0  0  0  0  0  0  0  0
   41.2140   28.4720   40.0620 N   0  0  0  0  0  0  0  0  0  0  0  0
   41.5370   30.3130   38.2750 N   0  0  0  0  0  0  0  0  0  0  0  0
   40.5220   30.7950   37.5380 C   0  0  0  0  0  3  0  0  0  0  0  0
   40.8990   32.0360   37.1520 N   0  0  0  0  0  0  0  0  0  0  0  0
   42.1140   32.3030   37.6420 C   0  0  0  0  0  0  0  0  0  0  0  0
   43.0090   33.3580   37.6040 C   0  0  0  0  0  0  0  0  0  0  0  0
   44.2150   33.3310   38.2260 N   0  0  0  0  0  0  0  0  0  0  0  0
   44.5860   32.2330   38.9250 C   0  0  0  0  0  3  0  0  0  0  0  0
   43.7340   31.1880   38.9800 N   0  0  0  0  0  0  0  0  0  0  0  0
   42.5310   31.2050   38.3640 C   0  0  0  0  0  0  0  0  0  0  0  0
   42.6410   34.5280   36.8730 N   0  0  0  0  0  0  0  0  0  0  0  0
   43.2860   35.3300   36.8260 H   0  0  0  0  0  0  0  0  0  0  0  0
   41.7310   34.5700   36.3930 H   0  0  0  0  0  0  0  0  0  0  0  0
   38.2430   28.1780   43.5830 C   0  0  0  0  0  2  0  0  0  0  0  0
   36.9190   27.9120   42.9720 C   0  0  0  0  0  2  0  0  0  0  0  0
   36.7080   28.8940   41.8650 C   0  0  0  0  0  0  0  0  0  0  0  0
   35.7070   28.7530   40.9240 C   0  0  0  0  0  3  0  0  0  0  0  0
   35.4360   29.5860   39.8850 C   0  0  0  0  0  3  0  0  0  0  0  0
   36.2660   30.6650   39.8020 N   0  0  0  0  0  0  0  0  0  0  0  0
   37.2570   30.8400   40.7000 C   0  0  0  0  0  0  0  0  0  0  0  0
   37.5080   29.9940   41.7290 N   0  0  0  0  0  0  0  0  0  0  0  0
   38.0980   32.0150   40.5400 C   0  0  0  0  0  0  0  0  0  0  0  0
   37.5430   33.2230   40.1170 C   0  0  0  0  0  3  0  0  0  0  0  0
   38.3410   34.3280   39.9670 C   0  0  0  0  0  3  0  0  0  0  0  0
   39.6480   34.2710   40.2210 N   0  0  0  0  0  0  0  0  0  0  0  0
   40.1650   33.0930   40.6300 C   0  0  0  0  0  3  0  0  0  0  0  0
   39.4180   31.9620   40.7960 N   0  0  0  0  0  0  0  0  0  0  0  0
  1  2  1  0  0  0  0
  3 24  1  0  0  0  0
  3  2  2  0  0  0  0
  4  3  1  0  0  0  0
  5  4  2  0  0  0  0
  5  6  1  0  0  0  0
  6  1  2  0  0  0  0
  7  5  1  0  0  0  0
  8  7  2  0  0  0  0
  9 10  1  0  0  0  0
  9  8  1  0  0  0  0
 10 11  2  0  0  0  0
 11  7  1  0  0  0  0
 12 20  1  0  0  0  0
 12 10  1  0  0  0  0
 13 12  1  0  0  0  0
 14 13  2  0  0  0  0
 14 15  1  0  0  0  0
 15 20  1  0  0  0  0
 16 15  2  0  0  0  0
 16 17  1  0  0  0  0
 17 18  2  0  0  0  0
 18 19  1  0  0  0  0
 20 19  2  0  0  0  0
 21 16  1  0  0  0  0
 22 21  1  0  0  0  0
 23 21  1  0  0  0  0
 25 24  1  0  0  0  0
 26 25  1  0  0  0  0
 27 26  2  0  0  0  0
 28 27  1  0  0  0  0
 29 28  2  0  0  0  0
 29 30  1  0  0  0  0
 30 31  2  0  0  0  0
 31 26  1  0  0  0  0
 32 30  1  0  0  0  0
 32 37  1  0  0  0  0
 33 32  2  0  0  0  0
 34 33  1  0  0  0  0
 34 35  2  0  0  0  0
 35 36  1  0  0  0  0
 36 37  2  0  0  0  0
M  END
>  <minimizedAffinity>
-7.42241478

$$$$

 OpenBabel03242509573D

 37 42  0  0  0  0  0  0  0  0999 V2000
   37.1210   24.5930   41.2810 C   0  0  0  0  0  3  0  0  0  0  0  0
   37.4160   25.4260   42.3760 C   0  0  0  0  0  3  0  0  0  0  0  0
   37.8850   26.6910   42.2220 C   0  0  0  0  0  0  0  0  0  0  0  0
   38.0660   27.1470   40.9710 N   0  0  0  0  0  0  0  0  0  0  0  0
   37.7720   26.3270   39.9010 C   0  0  0  0  0  0  0  0  0  0  0  0
   37.3230   25.1080   40.0470 N   0  0  0  0  0  0  0  0  0  0  0  0
   38.0410   27.0260   38.6090 C   0  0  0  0  0  0  0  0  0  0  0  0
   37.7930   26.5450   37.2440 C   0  0  0  0  0  3  0  0  0  0  0  0
   38.3970   27.9830   36.3270 S   0  0  0  0  0  0  0  0  0  0  0  0
   38.8640   28.9570   37.8820 C   0  0  0  0  0  0  0  0  0  0  0  0
   38.5560   28.1840   38.9220 N   0  0  0  0  0  0  0  0  0  0  0  0
   39.4300   30.2630   37.6590 N   0  0  0  0  0  0  0  0  0  0  0  0
   38.7470   31.4190   37.6030 C   0  0  0  0  0  3  0  0  0  0  0  0
   39.6680   32.3850   37.3800 N   0  0  0  0  0  0  0  0  0  0  0  0
   40.8820   31.8310   37.3020 C   0  0  0  0  0  0  0  0  0  0  0  0
   42.1800   32.2660   37.0970 C   0  0  0  0  0  0  0  0  0  0  0  0
   43.2480   31.4290   37.0700 N   0  0  0  0  0  0  0  0  0  0  0  0
   43.0640   30.1000   37.2490 C   0  0  0  0  0  3  0  0  0  0  0  0
   41.8110   29.6460   37.4510 N   0  0  0  0  0  0  0  0  0  0  0  0
   40.7410   30.4710   37.4800 C   0  0  0  0  0  0  0  0  0  0  0  0
   42.4000   33.6630   36.9050 N   0  0  0  0  0  0  0  0  0  0  0  0
   43.3540   34.0180   36.7510 H   0  0  0  0  0  0  0  0  0  0  0  0
   41.6040   34.3170   36.9220 H   0  0  0  0  0  0  0  0  0  0  0  0
   38.1830   27.5170   43.3820 C   0  0  0  0  0  2  0  0  0  0  0  0
   37.8790   28.9630   43.2740 C   0  0  0  0  0  2  0  0  0  0  0  0
   39.0790   29.6530   42.7090 C   0  0  0  0  0  0  0  0  0  0  0  0
   40.3440   29.1000   42.7450 C   0  0  0  0  0  3  0  0  0  0  0  0
   41.4910   29.6450   42.2620 C   0  0  0  0  0  3  0  0  0  0  0  0
   41.3290   30.8710   41.6870 N   0  0  0  0  0  0  0  0  0  0  0  0
   40.1110   31.4470   41.6320 C   0  0  0  0  0  0  0  0  0  0  0  0
   38.9790   30.8830   42.1210 N   0  0  0  0  0  0  0  0  0  0  0  0
   40.0240   32.7560   41.0020 C   0  0  0  0  0  0  0  0  0  0  0  0
   38.7850   33.3730   40.8340 C   0  0  0  0  0  3  0  0  0  0  0  0
   38.7090   34.6070   40.2390 C   0  0  0  0  0  3  0  0  0  0  0  0
   39.8070   35.2330   39.8160 N   0  0  0  0  0  0  0  0  0  0  0  0
   40.9960   34.6180   39.9890 C   0  0  0  0  0  3  0  0  0  0  0  0
   41.1310   33.3920   40.5740 N   0  0  0  0  0  0  0  0  0  0  0  0
  1  2  1  0  0  0  0
  3  2  2  0  0  0  0
  3 24  1  0  0  0  0
  4  3  1  0  0  0  0
  5  6  1  0  0  0  0
  5  4  2  0  0  0  0
  6  1  2  0  0  0  0
  7 11  1  0  0  0  0
  7  5  1  0  0  0  0
  8  7  2  0  0  0  0
  9  8  1  0  0  0  0
  9 10  1  0  0  0  0
 10 11  2  0  0  0  0
 12 10  1  0  0  0  0
 13 12  1  0  0  0  0
 14 13  2  0  0  0  0
 15 14  1  0  0  0  0
 15 20  1  0  0  0  0
 16 15  2  0  0  0  0
 17 16  1  0  0  0  0
 17 18  2  0  0  0  0
 18 19  1  0  0  0  0
 19 20  2  0  0  0  0
 20 12  1  0  0  0  0
 21 23  1  0  0  0  0
 21 16  1  0  0  0  0
 22 21  1  0  0  0  0
 25 24  1  0  0  0  0
 26 27  1  0  0  0  0
 26 25  1  0  0  0  0
 28 27  2  0  0  0  0
 29 28  1  0  0  0  0
 30 29  2  0  0  0  0
 30 31  1  0  0  0  0
 31 26  2  0  0  0  0
 32 30  1  0  0  0  0
 33 32  1  0  0  0  0
 34 33  2  0  0  0  0
 35 36  2  0  0  0  0
 35 34  1  0  0  0  0
 36 37  1  0  0  0  0
 37 32  2  0  0  0  0
M  END
>  <minimizedAffinity>
-6.98856115

$$$$

 OpenBabel03242509573D

 37 42  0  0  0  0  0  0  0  0999 V2000
   36.4470   29.8140   37.5000 C   0  0  0  0  0  3  0  0  0  0  0  0
   36.0410   28.9910   38.5670 C   0  0  0  0  0  3  0  0  0  0  0  0
   36.3210   29.2870   39.8610 C   0  0  0  0  0  0  0  0  0  0  0  0
   37.0110   30.4120   40.1140 N   0  0  0  0  0  0  0  0  0  0  0  0
   37.4060   31.2160   39.0650 C   0  0  0  0  0  0  0  0  0  0  0  0
   37.1390   30.9320   37.8180 N   0  0  0  0  0  0  0  0  0  0  0  0
   38.1540   32.4090   39.5640 C   0  0  0  0  0  0  0  0  0  0  0  0
   37.6470   33.7660   39.8060 C   0  0  0  0  0  3  0  0  0  0  0  0
   39.1810   34.5380   40.3790 S   0  0  0  0  0  0  0  0  0  0  0  0
   40.2090   32.9580   40.2040 C   0  0  0  0  0  0  0  0  0  0  0  0
   39.3830   32.0140   39.7530 N   0  0  0  0  0  0  0  0  0  0  0  0
   41.5990   33.0700   40.5650 N   0  0  0  0  0  0  0  0  0  0  0  0
   42.1200   32.8200   41.7780 C   0  0  0  0  0  3  0  0  0  0  0  0
   43.4500   33.0490   41.6660 N   0  0  0  0  0  0  0  0  0  0  0  0
   43.7310   33.4290   40.4150 C   0  0  0  0  0  0  0  0  0  0  0  0
   44.8570   33.7920   39.6990 C   0  0  0  0  0  0  0  0  0  0  0  0
   44.8230   34.1420   38.3890 N   0  0  0  0  0  0  0  0  0  0  0  0
   43.6430   34.1450   37.7240 C   0  0  0  0  0  3  0  0  0  0  0  0
   42.5270   33.7950   38.3960 N   0  0  0  0  0  0  0  0  0  0  0  0
   42.5510   33.4450   39.7020 C   0  0  0  0  0  0  0  0  0  0  0  0
   46.1140   33.7980   40.3770 N   0  0  0  0  0  0  0  0  0  0  0  0
   46.9710   34.0630   39.8710 H   0  0  0  0  0  0  0  0  0  0  0  0
   46.1640   33.5360   41.3720 H   0  0  0  0  0  0  0  0  0  0  0  0
   35.8860   28.4060   40.9340 C   0  0  0  0  0  2  0  0  0  0  0  0
   36.6540   28.4560   42.2000 C   0  0  0  0  0  2  0  0  0  0  0  0
   37.4900   27.2200   42.2910 C   0  0  0  0  0  0  0  0  0  0  0  0
   37.0310   25.9780   41.8980 C   0  0  0  0  0  3  0  0  0  0  0  0
   37.7100   24.8030   41.9410 C   0  0  0  0  0  3  0  0  0  0  0  0
   38.9780   24.9070   42.4320 N   0  0  0  0  0  0  0  0  0  0  0  0
   39.4650   26.1000   42.8270 C   0  0  0  0  0  0  0  0  0  0  0  0
   38.7680   27.2620   42.7740 N   0  0  0  0  0  0  0  0  0  0  0  0
   40.8270   26.1250   43.3380 C   0  0  0  0  0  0  0  0  0  0  0  0
   41.8170   25.3480   42.7360 C   0  0  0  0  0  3  0  0  0  0  0  0
   43.0990   25.3750   43.2230 C   0  0  0  0  0  3  0  0  0  0  0  0
   43.4200   26.1360   44.2690 N   0  0  0  0  0  0  0  0  0  0  0  0
   42.4470   26.8810   44.8370 C   0  0  0  0  0  3  0  0  0  0  0  0
   41.1560   26.8930   44.3940 N   0  0  0  0  0  0  0  0  0  0  0  0
  1  6  2  0  0  0  0
  1  2  1  0  0  0  0
  2  3  2  0  0  0  0
  3  4  1  0  0  0  0
  3 24  1  0  0  0  0
  5  7  1  0  0  0  0
  5  4  2  0  0  0  0
  6  5  1  0  0  0  0
  7 11  1  0  0  0  0
  7  8  2  0  0  0  0
  8  9  1  0  0  0  0
 10  9  1  0  0  0  0
 10 12  1  0  0  0  0
 11 10  2  0  0  0  0
 12 13  1  0  0  0  0
 14 13  2  0  0  0  0
 15 14  1  0  0  0  0
 16 21  1  0  0  0  0
 16 15  2  0  0  0  0
 17 16  1  0  0  0  0
 18 17  2  0  0  0  0
 18 19  1  0  0  0  0
 19 20  2  0  0  0  0
 20 15  1  0  0  0  0
 20 12  1  0  0  0  0
 21 23  1  0  0  0  0
 22 21  1  0  0  0  0
 24 25  1  0  0  0  0
 25 26  1  0  0  0  0
 26 31  1  0  0  0  0
 27 28  1  0  0  0  0
 27 26  2  0  0  0  0
 28 29  2  0  0  0  0
 29 30  1  0  0  0  0
 30 32  1  0  0  0  0
 31 30  2  0  0  0  0
 32 37  1  0  0  0  0
 33 34  1  0  0  0  0
 33 32  2  0  0  0  0
 34 35  2  0  0  0  0
 35 36  1  0  0  0  0
 37 36  2  0  0  0  0
M  END
>  <minimizedAffinity>
-6.96069479

$$$$

 OpenBabel03242509573D

 37 42  0  0  0  0  0  0  0  0999 V2000
   37.8690   27.5620   43.8130 C   0  0  0  0  0  3  0  0  0  0  0  0
   36.8130   27.7840   42.9110 C   0  0  0  0  0  3  0  0  0  0  0  0
   37.0200   27.9970   41.5870 C   0  0  0  0  0  0  0  0  0  0  0  0
   38.2870   27.9920   41.1390 N   0  0  0  0  0  0  0  0  0  0  0  0
   39.3190   27.7720   42.0280 C   0  0  0  0  0  0  0  0  0  0  0  0
   39.1220   27.5690   43.3030 N   0  0  0  0  0  0  0  0  0  0  0  0
   40.6370   27.8050   41.3260 C   0  0  0  0  0  0  0  0  0  0  0  0
   41.7460   26.8480   41.4260 C   0  0  0  0  0  3  0  0  0  0  0  0
   42.9020   27.6390   40.2800 S   0  0  0  0  0  0  0  0  0  0  0  0
   41.7370   29.0750   39.8730 C   0  0  0  0  0  0  0  0  0  0  0  0
   40.6270   28.8770   40.5820 N   0  0  0  0  0  0  0  0  0  0  0  0
   42.2420   30.0460   38.9360 N   0  0  0  0  0  0  0  0  0  0  0  0
   42.0630   30.0240   37.6050 C   0  0  0  0  0  3  0  0  0  0  0  0
   42.6990   31.1180   37.1250 N   0  0  0  0  0  0  0  0  0  0  0  0
   43.2530   31.7890   38.1400 C   0  0  0  0  0  0  0  0  0  0  0  0
   44.0050   32.9400   38.2990 C   0  0  0  0  0  0  0  0  0  0  0  0
   44.4370   33.3830   39.5060 N   0  0  0  0  0  0  0  0  0  0  0  0
   44.1320   32.6870   40.6270 C   0  0  0  0  0  3  0  0  0  0  0  0
   43.3990   31.5610   40.5040 N   0  0  0  0  0  0  0  0  0  0  0  0
   42.9650   31.1110   39.3050 C   0  0  0  0  0  0  0  0  0  0  0  0
   44.3400   33.6920   37.1330 N   0  0  0  0  0  0  0  0  0  0  0  0
   44.8990   34.5530   37.2190 H   0  0  0  0  0  0  0  0  0  0  0  0
   44.0230   33.3740   36.2060 H   0  0  0  0  0  0  0  0  0  0  0  0
   35.8980   28.2270   40.6880 C   0  0  0  0  0  2  0  0  0  0  0  0
   35.4120   29.6210   40.5620 C   0  0  0  0  0  2  0  0  0  0  0  0
   36.2870   30.3350   39.5810 C   0  0  0  0  0  0  0  0  0  0  0  0
   36.3600   29.9780   38.2490 C   0  0  0  0  0  3  0  0  0  0  0  0
   37.1200   30.5600   37.2850 C   0  0  0  0  0  3  0  0  0  0  0  0
   37.8750   31.6070   37.7250 N   0  0  0  0  0  0  0  0  0  0  0  0
   37.8330   31.9880   39.0180 C   0  0  0  0  0  0  0  0  0  0  0  0
   37.0660   31.3910   39.9630 N   0  0  0  0  0  0  0  0  0  0  0  0
   38.6690   33.1140   39.4050 C   0  0  0  0  0  0  0  0  0  0  0  0
   38.0910   34.2690   39.9330 C   0  0  0  0  0  3  0  0  0  0  0  0
   38.8840   35.3270   40.2950 C   0  0  0  0  0  3  0  0  0  0  0  0
   40.2080   35.2730   40.1530 N   0  0  0  0  0  0  0  0  0  0  0  0
   40.7470   34.1470   39.6420 C   0  0  0  0  0  3  0  0  0  0  0  0
   40.0070   33.0630   39.2640 N   0  0  0  0  0  0  0  0  0  0  0  0
  2  1  2  0  0  0  0
  3  2  1  0  0  0  0
  4  3  2  0  0  0  0
  4  5  1  0  0  0  0
  5  6  2  0  0  0  0
  6  1  1  0  0  0  0
  7  8  2  0  0  0  0
  7  5  1  0  0  0  0
  9  8  1  0  0  0  0
 10  9  1  0  0  0  0
 10 11  2  0  0  0  0
 11  7  1  0  0  0  0
 12 20  1  0  0  0  0
 12 10  1  0  0  0  0
 13 12  1  0  0  0  0
 14 13  2  0  0  0  0
 14 15  1  0  0  0  0
 15 16  2  0  0  0  0
 15 20  1  0  0  0  0
 16 17  1  0  0  0  0
 17 18  2  0  0  0  0
 19 18  1  0  0  0  0
 20 19  2  0  0  0  0
 21 22  1  0  0  0  0
 21 16  1  0  0  0  0
 23 21  1  0  0  0  0
 24  3  1  0  0  0  0
 25 24  1  0  0  0  0
 26 31  1  0  0  0  0
 26 25  1  0  0  0  0
 27 26  2  0  0  0  0
 28 29  2  0  0  0  0
 28 27  1  0  0  0  0
 29 30  1  0  0  0  0
 30 32  1  0  0  0  0
 30 31  2  0  0  0  0
 32 33  1  0  0  0  0
 33 34  2  0  0  0  0
 35 34  1  0  0  0  0
 36 35  2  0  0  0  0
 37 32  2  0  0  0  0
 37 36  1  0  0  0  0
M  END
>  <minimizedAffinity>
-6.91641712

$$$$

 OpenBabel03242509573D

 37 42  0  0  0  0  0  0  0  0999 V2000
   36.8010   26.3270   40.3800 C   0  0  0  0  0  3  0  0  0  0  0  0
   37.3690   26.4070   41.6650 C   0  0  0  0  0  3  0  0  0  0  0  0
   38.1130   27.4680   42.0670 C   0  0  0  0  0  0  0  0  0  0  0  0
   38.3030   28.4710   41.1910 N   0  0  0  0  0  0  0  0  0  0  0  0
   37.7430   28.3880   39.9330 C   0  0  0  0  0  0  0  0  0  0  0  0
   37.0270   27.3660   39.5440 N   0  0  0  0  0  0  0  0  0  0  0  0
   38.0730   29.6000   39.1260 C   0  0  0  0  0  0  0  0  0  0  0  0
   38.0740   29.7500   37.6660 C   0  0  0  0  0  3  0  0  0  0  0  0
   38.5800   31.4840   37.5630 S   0  0  0  0  0  0  0  0  0  0  0  0
   38.7010   31.7080   39.4390 C   0  0  0  0  0  0  0  0  0  0  0  0
   38.3740   30.5370   39.9840 N   0  0  0  0  0  0  0  0  0  0  0  0
   39.1000   33.0170   39.8920 N   0  0  0  0  0  0  0  0  0  0  0  0
   38.2720   34.0270   40.2070 C   0  0  0  0  0  3  0  0  0  0  0  0
   39.0680   35.0580   40.5790 N   0  0  0  0  0  0  0  0  0  0  0  0
   40.3490   34.6820   40.4920 C   0  0  0  0  0  0  0  0  0  0  0  0
   41.5860   35.2560   40.7230 C   0  0  0  0  0  0  0  0  0  0  0  0
   42.7570   34.5950   40.5360 N   0  0  0  0  0  0  0  0  0  0  0  0
   42.7430   33.3120   40.1020 C   0  0  0  0  0  3  0  0  0  0  0  0
   41.5500   32.7260   39.8690 N   0  0  0  0  0  0  0  0  0  0  0  0
   40.3790   33.3760   40.0520 C   0  0  0  0  0  0  0  0  0  0  0  0
   41.6290   36.6070   41.1800 N   0  0  0  0  0  0  0  0  0  0  0  0
   42.5350   37.0620   41.3610 H   0  0  0  0  0  0  0  0  0  0  0  0
   40.7530   37.1280   41.3280 H   0  0  0  0  0  0  0  0  0  0  0  0
   38.6860   27.5090   43.4030 C   0  0  0  0  0  2  0  0  0  0  0  0
   39.4090   26.3000   43.8630 C   0  0  0  0  0  2  0  0  0  0  0  0
   40.8760   26.5410   43.7010 C   0  0  0  0  0  0  0  0  0  0  0  0
   41.7650   25.5370   43.3700 C   0  0  0  0  0  3  0  0  0  0  0  0
   43.1070   25.6550   43.2010 C   0  0  0  0  0  3  0  0  0  0  0  0
   43.5860   26.9180   43.3870 N   0  0  0  0  0  0  0  0  0  0  0  0
   42.7520   27.9270   43.7110 C   0  0  0  0  0  0  0  0  0  0  0  0
   41.4140   27.7860   43.8740 N   0  0  0  0  0  0  0  0  0  0  0  0
   43.3420   29.2440   43.8920 C   0  0  0  0  0  0  0  0  0  0  0  0
   42.8310   30.3430   43.2020 C   0  0  0  0  0  3  0  0  0  0  0  0
   43.3930   31.5830   43.3760 C   0  0  0  0  0  3  0  0  0  0  0  0
   44.4260   31.7590   44.1990 N   0  0  0  0  0  0  0  0  0  0  0  0
   44.9050   30.6820   44.8570 C   0  0  0  0  0  3  0  0  0  0  0  0
   44.3860   29.4270   44.7230 N   0  0  0  0  0  0  0  0  0  0  0  0
  1  2  1  0  0  0  0
  2  3  2  0  0  0  0
  3 24  1  0  0  0  0
  4  3  1  0  0  0  0
  5  4  2  0  0  0  0
  6  5  1  0  0  0  0
  6  1  2  0  0  0  0
  7  5  1  0  0  0  0
  7 11  1  0  0  0  0
  8  7  2  0  0  0  0
  9  8  1  0  0  0  0
  9 10  1  0  0  0  0
 10 12  1  0  0  0  0
 10 11  2  0  0  0  0
 12 20  1  0  0  0  0
 12 13  1  0  0  0  0
 13 14  2  0  0  0  0
 15 14  1  0  0  0  0
 15 16  1  0  0  0  0
 16 21  1  0  0  0  0
 17 16  2  0  0  0  0
 18 17  1  0  0  0  0
 19 20  1  0  0  0  0
 19 18  2  0  0  0  0
 20 15  2  0  0  0  0
 21 23  1  0  0  0  0
 21 22  1  0  0  0  0
 24 25  1  0  0  0  0
 26 25  1  0  0  0  0
 26 31  1  0  0  0  0
 27 26  2  0  0  0  0
 28 27  1  0  0  0  0
 28 29  2  0  0  0  0
 29 30  1  0  0  0  0
 30 31  2  0  0  0  0
 30 32  1  0  0  0  0
 32 37  1  0  0  0  0
 33 34  1  0  0  0  0
 33 32  2  0  0  0  0
 34 35  2  0  0  0  0
 35 36  1  0  0  0  0
 37 36  2  0  0  0  0
M  END
>  <minimizedAffinity>
-6.89384556

$$$$
