
     RDKit          3D

 51 55  0  0  0  0  0  0  0  0999 V2000
   44.7230   35.4490   44.7820 C   0  0  0  0  0  0  0  0  0  0  0  0
   45.5440   35.0760   43.7030 C   0  0  0  0  0  0  0  0  0  0  0  0
   46.3910   34.0160   43.7660 C   0  0  0  0  0  0  0  0  0  0  0  0
   46.4300   33.3130   44.9160 N   0  0  0  0  0  0  0  0  0  0  0  0
   45.6250   33.6850   45.9640 C   0  0  0  0  0  0  0  0  0  0  0  0
   44.8080   34.7050   45.9040 N   0  0  0  0  0  0  0  0  0  0  0  0
   45.8300   32.7720   47.1320 C   0  0  0  0  0  0  0  0  0  0  0  0
   44.8220   32.2140   48.0420 C   0  0  0  0  0  0  0  0  0  0  0  0
   45.9060   31.2570   49.1190 S   0  0  0  0  0  0  0  0  0  0  0  0
   47.4900   31.7490   48.1960 C   0  0  0  0  0  0  0  0  0  0  0  0
   47.1140   32.5560   47.1970 N   0  0  0  0  0  0  0  0  0  0  0  0
   48.7380   31.2100   48.6920 N   0  0  0  0  0  0  0  0  0  0  0  0
   49.5560   31.9210   49.4810 C   0  0  0  0  0  0  0  0  0  0  0  0
   50.7290   31.3320   49.9090 C   0  0  0  0  0  0  0  0  0  0  0  0
   51.6470   32.1080   50.7860 C   0  0  0  0  0  0  0  0  0  0  0  0
   51.0470   30.0380   49.5310 C   0  0  0  0  0  0  0  0  0  0  0  0
   52.1070   29.4710   49.9040 O   0  0  0  0  0  0  0  0  0  0  0  0
   50.1620   29.4090   48.7390 N   0  0  0  0  0  0  0  0  0  0  0  0
   48.9970   29.9560   48.2960 C   0  0  0  0  0  0  0  0  0  0  0  0
   48.2760   29.2410   47.5620 O   0  0  0  0  0  0  0  0  0  0  0  0
   47.2270   33.6660   42.6260 C   0  0  0  0  0  0  0  0  0  0  0  0
   47.5690   34.7530   41.6820 C   0  0  0  0  0  0  0  0  0  0  0  0
   47.2960   34.2700   40.2950 C   0  0  0  0  0  0  0  0  0  0  0  0
   48.2280   34.3440   39.2800 C   0  0  0  0  0  0  0  0  0  0  0  0
   48.0820   33.9380   37.9930 C   0  0  0  0  0  0  0  0  0  0  0  0
   46.8530   33.3970   37.7200 N   0  0  0  0  0  0  0  0  0  0  0  0
   45.9100   33.3040   38.6850 C   0  0  0  0  0  0  0  0  0  0  0  0
   46.0950   33.7230   39.9590 N   0  0  0  0  0  0  0  0  0  0  0  0
   44.6330   32.7180   38.3120 C   0  0  0  0  0  0  0  0  0  0  0  0
   43.4380   33.3080   38.7210 C   0  0  0  0  0  0  0  0  0  0  0  0
   42.2380   32.7490   38.3680 C   0  0  0  0  0  0  0  0  0  0  0  0
   42.1880   31.6430   37.6320 N   0  0  0  0  0  0  0  0  0  0  0  0
   43.3590   31.0810   37.2410 C   0  0  0  0  0  0  0  0  0  0  0  0
   44.5770   31.5980   37.5670 N   0  0  0  0  0  0  0  0  0  0  0  0
   44.0414   36.3097   44.7141 H   0  0  0  0  0  0  0  0  0  0  0  0
   45.4987   35.6639   42.7744 H   0  0  0  0  0  0  0  0  0  0  0  0
   43.7296   32.3418   48.0611 H   0  0  0  0  0  0  0  0  0  0  0  0
   49.2990   32.9480   49.7799 H   0  0  0  0  0  0  0  0  0  0  0  0
   51.4064   31.9046   51.8399 H   0  0  0  0  0  0  0  0  0  0  0  0
   52.6864   31.8106   50.5832 H   0  0  0  0  0  0  0  0  0  0  0  0
   51.5268   33.1824   50.5832 H   0  0  0  0  0  0  0  0  0  0  0  0
   50.3806   28.4458   48.4468 H   0  0  0  0  0  0  0  0  0  0  0  0
   48.1705   33.2596   43.0193 H   0  0  0  0  0  0  0  0  0  0  0  0
   46.6247   32.9576   42.0382 H   0  0  0  0  0  0  0  0  0  0  0  0
   46.9533   35.6391   41.8956 H   0  0  0  0  0  0  0  0  0  0  0  0
   48.6290   35.0277   41.7869 H   0  0  0  0  0  0  0  0  0  0  0  0
   49.2015   34.7826   39.5444 H   0  0  0  0  0  0  0  0  0  0  0  0
   48.8769   34.0344   37.2388 H   0  0  0  0  0  0  0  0  0  0  0  0
   43.4586   34.2247   39.3287 H   0  0  0  0  0  0  0  0  0  0  0  0
   41.3018   33.2225   38.6986 H   0  0  0  0  0  0  0  0  0  0  0  0
   43.3238   30.1653   36.6325 H   0  0  0  0  0  0  0  0  0  0  0  0
  1  6  2  0
  2  3  2  0
  2  1  1  0
  3  4  1  0
  4  5  2  0
  5  7  1  0
  6  5  1  0
  7 11  1  0
  7  8  2  0
  8  9  1  0
 10 12  1  0
 10  9  1  0
 11 10  2  0
 12 13  1  0
 13 14  2  0
 14 15  1  0
 16 17  2  0
 16 14  1  0
 18 16  1  0
 19 12  1  0
 19 18  1  0
 20 19  2  0
 21  3  1  0
 22 21  1  0
 23 22  1  0
 24 23  2  0
 25 24  1  0
 26 25  2  0
 26 27  1  0
 27 28  2  0
 28 23  1  0
 29 27  1  0
 29 30  2  0
 31 30  1  0
 32 31  2  0
 33 34  2  0
 33 32  1  0
 34 29  1  0
  1 35  1  0
  2 36  1  0
  8 37  1  0
 13 38  1  0
 15 39  1  0
 15 40  1  0
 15 41  1  0
 18 42  1  0
 21 43  1  0
 21 44  1  0
 22 45  1  0
 22 46  1  0
 24 47  1  0
 25 48  1  0
 30 49  1  0
 31 50  1  0
 33 51  1  0
M  END
>  <Score>  (1) 
-7.17126

$$$$
