
     RDKit          3D

 34 38  0  0  0  0  0  0  0  0999 V2000
   44.5680   36.1260   44.4340 C   0  0  0  0  0  0  0  0  0  0  0  0
   45.3390   36.0210   43.2520 C   0  0  0  0  0  0  0  0  0  0  0  0
   46.2030   34.9370   43.1470 C   0  0  0  0  0  0  0  0  0  0  0  0
   46.2690   34.0370   44.1750 N   0  0  0  0  0  0  0  0  0  0  0  0
   45.5200   34.1740   45.2790 C   0  0  0  0  0  0  0  0  0  0  0  0
   44.6700   35.2030   45.4270 N   0  0  0  0  0  0  0  0  0  0  0  0
   45.7030   33.1460   46.2680 N   0  0  0  0  0  0  0  0  0  0  0  0
   45.2110   33.0210   47.5260 C   0  0  0  0  0  0  0  0  0  0  0  0
   45.6890   31.8690   48.0300 N   0  0  0  0  0  0  0  0  0  0  0  0
   46.4710   31.2770   47.1030 C   0  0  0  0  0  0  0  0  0  0  0  0
   47.1600   30.0950   47.1800 C   0  0  0  0  0  0  0  0  0  0  0  0
   47.8610   29.7600   46.0810 N   0  0  0  0  0  0  0  0  0  0  0  0
   47.8860   30.5360   44.9760 C   0  0  0  0  0  0  0  0  0  0  0  0
   47.2120   31.6970   44.8930 N   0  0  0  0  0  0  0  0  0  0  0  0
   46.4950   32.0760   45.9680 C   0  0  0  0  0  0  0  0  0  0  0  0
   46.9750   34.8360   41.9580 N   0  0  0  0  0  0  0  0  0  0  0  0
   48.2000   35.3840   41.7700 C   0  0  0  0  0  0  0  0  0  0  0  0
   48.6590   35.0960   40.5150 N   0  0  0  0  0  0  0  0  0  0  0  0
   47.6790   34.3510   39.9280 C   0  0  0  0  0  0  0  0  0  0  0  0
   47.6240   33.7980   38.6660 C   0  0  0  0  0  0  0  0  0  0  0  0
   46.4970   33.0910   38.3470 N   0  0  0  0  0  0  0  0  0  0  0  0
   45.4910   32.9460   39.2320 C   0  0  0  0  0  0  0  0  0  0  0  0
   45.5180   33.4790   40.4820 N   0  0  0  0  0  0  0  0  0  0  0  0
   46.6260   34.1900   40.8320 C   0  0  0  0  0  0  0  0  0  0  0  0
   47.1880   29.2230   48.3000 N   0  0  0  0  0  0  0  0  0  0  0  0
   43.8730   36.9704   44.5516 H   0  0  0  0  0  0  0  0  0  0  0  0
   45.2579   36.7675   42.4482 H   0  0  0  0  0  0  0  0  0  0  0  0
   44.5447   33.7302   48.0389 H   0  0  0  0  0  0  0  0  0  0  0  0
   48.4801   30.2061   44.1110 H   0  0  0  0  0  0  0  0  0  0  0  0
   48.7464   35.9755   42.5194 H   0  0  0  0  0  0  0  0  0  0  0  0
   48.4488   33.9198   37.9484 H   0  0  0  0  0  0  0  0  0  0  0  0
   44.6055   32.3685   38.9281 H   0  0  0  0  0  0  0  0  0  0  0  0
   47.7380   28.3530   48.2617 H   0  0  0  0  0  0  0  0  0  0  0  0
   46.6583   29.4604   49.1509 H   0  0  0  0  0  0  0  0  0  0  0  0
  1  6  2  0
  2  1  1  0
  3  2  2  0
  3  4  1  0
  4  5  2  0
  5  6  1  0
  5  7  1  0
  7  8  1  0
  8  9  2  0
 10 11  2  0
 10  9  1  0
 11 25  1  0
 12 11  1  0
 13 12  2  0
 14 13  1  0
 14 15  2  0
 15  7  1  0
 15 10  1  0
 16  3  1  0
 17 16  1  0
 18 17  2  0
 19 18  1  0
 19 24  2  0
 20 19  1  0
 21 20  2  0
 21 22  1  0
 22 23  2  0
 23 24  1  0
 24 16  1  0
  1 26  1  0
  2 27  1  0
  8 28  1  0
 13 29  1  0
 17 30  1  0
 20 31  1  0
 22 32  1  0
 25 33  1  0
 25 34  1  0
M  END
>  <Score>  (1) 
-7.1064

$$$$
