
     RDKit          3D

 53 57  0  0  1  0  0  0  0  0999 V2000
   40.5130   35.4310   41.4060 C   0  0  0  0  0  0  0  0  0  0  0  0
   40.1230   35.0620   40.1100 C   0  0  0  0  0  0  0  0  0  0  0  0
   40.9500   34.1940   39.3740 C   0  0  0  0  0  0  0  0  0  0  0  0
   42.0910   33.7400   39.9230 N   0  0  0  0  0  0  0  0  0  0  0  0
   42.4270   34.1280   41.1880 C   0  0  0  0  0  0  0  0  0  0  0  0
   41.6480   34.9640   41.9230 N   0  0  0  0  0  0  0  0  0  0  0  0
   40.5640   33.7860   38.0260 C   0  0  2  0  0  0  0  0  0  0  0  0
   39.4560   34.5380   37.4120 C   0  0  0  0  0  0  0  0  0  0  0  0
   38.1830   33.7840   37.7660 C   0  0  0  0  0  0  0  0  0  0  0  0
   38.6150   32.3450   37.8600 C   0  0  0  0  0  0  0  0  0  0  0  0
   40.1170   32.3690   37.8680 C   0  0  2  0  0  0  0  0  0  0  0  0
   40.6190   31.4150   38.8480 C   0  0  0  0  0  0  0  0  0  0  0  0
   41.8840   30.8750   38.8730 C   0  0  0  0  0  0  0  0  0  0  0  0
   42.3630   29.9800   39.8040 C   0  0  0  0  0  0  0  0  0  0  0  0
   41.5290   29.5580   40.8260 C   0  0  0  0  0  0  0  0  0  0  0  0
   40.2470   30.0630   40.8550 C   0  0  0  0  0  0  0  0  0  0  0  0
   39.4550   29.6090   41.8880 C   0  0  0  0  0  0  0  0  0  0  0  0
   38.1550   30.0560   41.9970 C   0  0  0  0  0  0  0  0  0  0  0  0
   37.6780   30.9520   41.0610 C   0  0  0  0  0  0  0  0  0  0  0  0
   38.5190   31.3680   40.0510 C   0  0  0  0  0  0  0  0  0  0  0  0
   39.8260   30.9560   39.8950 C   0  0  0  0  0  0  0  0  0  0  0  0
   43.6620   33.6560   41.8400 C   0  0  0  0  0  0  0  0  0  0  0  0
   43.9760   32.4900   42.4310 N   0  0  0  0  0  0  0  0  0  0  0  0
   45.2020   32.5210   42.8770 O   0  0  0  0  0  0  0  0  0  0  0  0
   45.7320   33.6970   42.5990 C   0  0  0  0  0  0  0  0  0  0  0  0
   44.7680   34.4080   41.9500 N   0  0  0  0  0  0  0  0  0  0  0  0
   47.0760   34.0840   42.9460 C   0  0  0  0  0  0  0  0  0  0  0  0
   47.7170   33.5820   43.8360 O   0  0  0  0  0  0  0  0  0  0  0  0
   47.5420   35.1080   42.1260 N   0  0  0  0  0  0  0  0  0  0  0  0
   48.9330   35.3820   42.3010 C   0  0  0  0  0  0  0  0  0  0  0  0
   49.8670   34.9420   43.0250 N   0  0  0  0  0  0  0  0  0  0  0  0
   49.6610   36.3660   41.5680 N   0  0  0  0  0  0  0  0  0  0  0  0
   49.8860   33.9700   43.3540 H   0  0  0  0  0  0  0  0  0  0  0  0
   39.8792   36.1083   41.9972 H   0  0  0  0  0  0  0  0  0  0  0  0
   39.1870   35.4446   39.6769 H   0  0  0  0  0  0  0  0  0  0  0  0
   41.5289   33.9803   37.5349 H   0  0  0  0  0  0  0  0  0  0  0  0
   39.5829   34.5803   36.3202 H   0  0  0  0  0  0  0  0  0  0  0  0
   39.4231   35.5743   37.7794 H   0  0  0  0  0  0  0  0  0  0  0  0
   37.7785   34.1327   38.7277 H   0  0  0  0  0  0  0  0  0  0  0  0
   37.3856   33.9351   37.0235 H   0  0  0  0  0  0  0  0  0  0  0  0
   38.2341   31.8903   38.7864 H   0  0  0  0  0  0  0  0  0  0  0  0
   38.2238   31.7490   37.0223 H   0  0  0  0  0  0  0  0  0  0  0  0
   40.5546   32.0280   36.9181 H   0  0  0  0  0  0  0  0  0  0  0  0
   42.5762   31.1864   38.0768 H   0  0  0  0  0  0  0  0  0  0  0  0
   43.3950   29.6051   39.7366 H   0  0  0  0  0  0  0  0  0  0  0  0
   41.8775   28.8450   41.5877 H   0  0  0  0  0  0  0  0  0  0  0  0
   39.8576   28.8944   42.6210 H   0  0  0  0  0  0  0  0  0  0  0  0
   37.5093   29.7049   42.8154 H   0  0  0  0  0  0  0  0  0  0  0  0
   36.6456   31.3271   41.1202 H   0  0  0  0  0  0  0  0  0  0  0  0
   38.1182   32.0809   39.3154 H   0  0  0  0  0  0  0  0  0  0  0  0
   46.9437   35.6171   41.4598 H   0  0  0  0  0  0  0  0  0  0  0  0
   50.6649   36.5062   41.7508 H   0  0  0  0  0  0  0  0  0  0  0  0
   49.1827   36.9362   40.8560 H   0  0  0  0  0  0  0  0  0  0  0  0
  1  6  2  0
  2  1  1  0
  3  4  1  0
  3  2  2  0
  4  5  2  0
  5 22  1  0
  5  6  1  0
  7  3  1  0
  8  9  1  0
  8  7  1  0
  9 10  1  0
 10 11  1  0
 11  7  1  0
 11 12  1  0
 12 13  2  0
 12 21  1  0
 13 14  1  0
 14 15  2  0
 15 16  1  0
 16 17  2  0
 17 18  1  0
 19 18  2  0
 20 19  1  0
 21 20  2  0
 21 16  1  0
 22 26  1  0
 22 23  2  0
 23 24  1  0
 25 24  1  0
 25 27  1  0
 26 25  2  0
 27 28  2  0
 29 30  1  0
 29 27  1  0
 30 31  2  0
 31 33  1  0
 32 30  1  0
  1 34  1  0
  2 35  1  0
  7 36  1  6
  8 37  1  0
  8 38  1  0
  9 39  1  0
  9 40  1  0
 10 41  1  0
 10 42  1  0
 11 43  1  6
 13 44  1  0
 14 45  1  0
 15 46  1  0
 17 47  1  0
 18 48  1  0
 19 49  1  0
 20 50  1  0
 29 51  1  0
 32 52  1  0
 32 53  1  0
M  END
>  <Score>  (1) 
-7.30317

$$$$
