
     RDKit          3D

 42 45  0  0  1  0  0  0  0  0999 V2000
   44.5960   35.8090   44.6710 C   0  0  0  0  0  0  0  0  0  0  0  0
   45.3370   35.6640   43.4860 C   0  0  0  0  0  0  0  0  0  0  0  0
   46.2130   34.5830   43.4080 C   0  0  0  0  0  0  0  0  0  0  0  0
   46.2540   33.7940   44.4830 N   0  0  0  0  0  0  0  0  0  0  0  0
   45.5630   33.9100   45.6180 C   0  0  0  0  0  0  0  0  0  0  0  0
   44.7190   34.9550   45.6850 N   0  0  0  0  0  0  0  0  0  0  0  0
   47.0530   34.3130   42.2290 C   0  0  1  0  0  0  0  0  0  0  0  0
   46.3610   34.3040   40.9330 C   0  0  1  0  0  0  0  0  0  0  0  0
   47.5440   34.2120   39.9810 C   0  0  0  0  0  0  0  0  0  0  0  0
   48.5190   35.2040   40.6020 C   0  0  0  0  0  0  0  0  0  0  0  0
   48.1390   35.3630   42.0410 C   0  0  0  0  0  0  0  0  0  0  0  0
   45.5600   33.0030   40.8810 C   0  0  0  0  0  0  0  0  0  0  0  0
   46.1260   32.0300   41.6500 F   0  0  0  0  0  0  0  0  0  0  0  0
   45.4660   32.6610   39.5490 F   0  0  0  0  0  0  0  0  0  0  0  0
   44.2680   33.2370   41.3450 F   0  0  0  0  0  0  0  0  0  0  0  0
   45.8580   32.8630   46.5870 C   0  0  0  0  0  0  0  0  0  0  0  0
   45.3720   32.9260   47.8740 C   0  0  0  0  0  0  0  0  0  0  0  0
   45.6200   31.9670   48.8270 C   0  0  0  0  0  0  0  0  0  0  0  0
   46.3870   30.8650   48.5390 C   0  0  0  0  0  0  0  0  0  0  0  0
   46.8970   30.7540   47.2640 C   0  0  0  0  0  0  0  0  0  0  0  0
   47.6680   29.6520   46.9630 C   0  0  0  0  0  0  0  0  0  0  0  0
   48.2100   29.4790   45.7060 C   0  0  0  0  0  0  0  0  0  0  0  0
   47.9310   30.4800   44.7700 C   0  0  0  0  0  0  0  0  0  0  0  0
   47.1570   31.5650   45.1120 C   0  0  0  0  0  0  0  0  0  0  0  0
   46.6160   31.7430   46.3540 C   0  0  0  0  0  0  0  0  0  0  0  0
   43.8948   36.6515   44.7635 H   0  0  0  0  0  0  0  0  0  0  0  0
   45.2300   36.3750   42.6535 H   0  0  0  0  0  0  0  0  0  0  0  0
   47.4331   33.3084   42.4665 H   0  0  0  0  0  0  0  0  0  0  0  0
   45.6859   35.1474   40.7259 H   0  0  0  0  0  0  0  0  0  0  0  0
   47.2620   34.5122   38.9610 H   0  0  0  0  0  0  0  0  0  0  0  0
   47.9506   33.1958   39.8714 H   0  0  0  0  0  0  0  0  0  0  0  0
   49.5468   34.8197   40.5247 H   0  0  0  0  0  0  0  0  0  0  0  0
   48.4753   36.1709   40.0794 H   0  0  0  0  0  0  0  0  0  0  0  0
   48.9973   35.1659   42.7002 H   0  0  0  0  0  0  0  0  0  0  0  0
   47.8043   36.3808   42.2900 H   0  0  0  0  0  0  0  0  0  0  0  0
   44.7520   33.7903   48.1544 H   0  0  0  0  0  0  0  0  0  0  0  0
   45.1976   32.0841   49.8359 H   0  0  0  0  0  0  0  0  0  0  0  0
   46.5874   30.0969   49.3005 H   0  0  0  0  0  0  0  0  0  0  0  0
   47.8548   28.8959   47.7398 H   0  0  0  0  0  0  0  0  0  0  0  0
   48.8265   28.6035   45.4544 H   0  0  0  0  0  0  0  0  0  0  0  0
   48.3345   30.3991   43.7499 H   0  0  0  0  0  0  0  0  0  0  0  0
   46.9636   32.3294   44.3450 H   0  0  0  0  0  0  0  0  0  0  0  0
  1  6  2  0
  2  1  1  0
  3  2  2  0
  3  4  1  0
  4  5  2  0
  5  6  1  0
  5 16  1  0
  7  3  1  0
  8  7  1  0
  9 10  1  0
  9  8  1  0
 10 11  1  0
 11  7  1  0
 12  8  1  0
 12 15  1  0
 12 13  1  0
 14 12  1  0
 16 17  2  0
 17 18  1  0
 19 18  2  0
 20 19  1  0
 21 20  2  0
 22 21  1  0
 23 24  1  0
 23 22  2  0
 24 25  2  0
 25 16  1  0
 25 20  1  0
  1 26  1  0
  2 27  1  0
  7 28  1  1
  8 29  1  6
  9 30  1  0
  9 31  1  0
 10 32  1  0
 10 33  1  0
 11 34  1  0
 11 35  1  0
 17 36  1  0
 18 37  1  0
 19 38  1  0
 21 39  1  0
 22 40  1  0
 23 41  1  0
 24 42  1  0
M  END
>  <Score>  (1) 
-7.02436

$$$$
