
     RDKit          3D

 34 37  0  0  0  0  0  0  0  0999 V2000
   46.7280   34.8330   42.0500 C   0  0  0  0  0  0  0  0  0  0  0  0
   47.9830   35.4150   41.9740 C   0  0  0  0  0  0  0  0  0  0  0  0
   48.8200   35.3370   40.8840 C   0  0  0  0  0  0  0  0  0  0  0  0
   48.3970   34.6380   39.7910 C   0  0  0  0  0  0  0  0  0  0  0  0
   47.1670   34.0300   39.7830 C   0  0  0  0  0  0  0  0  0  0  0  0
   46.7370   33.3260   38.6830 C   0  0  0  0  0  0  0  0  0  0  0  0
   45.5050   32.7050   38.6460 C   0  0  0  0  0  0  0  0  0  0  0  0
   44.7260   32.8340   39.7830 C   0  0  0  0  0  0  0  0  0  0  0  0
   45.1740   33.5330   40.8510 C   0  0  0  0  0  0  0  0  0  0  0  0
   46.3880   34.1520   40.9050 C   0  0  0  0  0  0  0  0  0  0  0  0
   44.4100   35.9620   44.8610 C   0  0  0  0  0  0  0  0  0  0  0  0
   45.0490   35.9580   43.6230 C   0  0  0  0  0  0  0  0  0  0  0  0
   45.9820   35.0010   43.2650 C   0  0  0  0  0  0  0  0  0  0  0  0
   46.2030   34.0770   44.2460 N   0  0  0  0  0  0  0  0  0  0  0  0
   45.6040   34.0630   45.4330 C   0  0  0  0  0  0  0  0  0  0  0  0
   44.7180   35.0000   45.7280 N   0  0  0  0  0  0  0  0  0  0  0  0
   45.9270   33.0150   46.4020 C   0  0  0  0  0  0  0  0  0  0  0  0
   46.9360   32.1150   46.1280 C   0  0  0  0  0  0  0  0  0  0  0  0
   47.2190   31.1250   47.0760 C   0  0  0  0  0  0  0  0  0  0  0  0
   46.5170   31.0540   48.2370 N   0  0  0  0  0  0  0  0  0  0  0  0
   45.5390   31.9490   48.4730 C   0  0  0  0  0  0  0  0  0  0  0  0
   45.2600   32.9040   47.5660 N   0  0  0  0  0  0  0  0  0  0  0  0
   48.3364   35.9808   42.8487 H   0  0  0  0  0  0  0  0  0  0  0  0
   49.8053   35.8259   40.8938 H   0  0  0  0  0  0  0  0  0  0  0  0
   49.0483   34.5612   38.9079 H   0  0  0  0  0  0  0  0  0  0  0  0
   47.3956   33.2555   37.8048 H   0  0  0  0  0  0  0  0  0  0  0  0
   45.1626   32.1413   37.7657 H   0  0  0  0  0  0  0  0  0  0  0  0
   43.7324   32.3633   39.8184 H   0  0  0  0  0  0  0  0  0  0  0  0
   44.5181   33.6067   41.7309 H   0  0  0  0  0  0  0  0  0  0  0  0
   43.6724   36.7376   45.1147 H   0  0  0  0  0  0  0  0  0  0  0  0
   44.8014   36.7489   42.8997 H   0  0  0  0  0  0  0  0  0  0  0  0
   47.5040   32.1740   45.1878 H   0  0  0  0  0  0  0  0  0  0  0  0
   48.0189   30.3961   46.8788 H   0  0  0  0  0  0  0  0  0  0  0  0
   44.9658   31.8996   49.4105 H   0  0  0  0  0  0  0  0  0  0  0  0
  1 13  1  0
  2  1  2  0
  3  2  1  0
  4  3  2  0
  5  4  1  0
  5 10  2  0
  6  5  1  0
  7  6  2  0
  7  8  1  0
  8  9  2  0
  9 10  1  0
 10  1  1  0
 11 16  2  0
 12 11  1  0
 13 12  2  0
 13 14  1  0
 14 15  2  0
 15 16  1  0
 15 17  1  0
 17 22  1  0
 18 17  2  0
 18 19  1  0
 19 20  2  0
 20 21  1  0
 22 21  2  0
  2 23  1  0
  3 24  1  0
  4 25  1  0
  6 26  1  0
  7 27  1  0
  8 28  1  0
  9 29  1  0
 11 30  1  0
 12 31  1  0
 18 32  1  0
 19 33  1  0
 21 34  1  0
M  END
>  <Score>  (1) 
-7.00241

$$$$
