
     RDKit          3D

 37 40  0  0  0  0  0  0  0  0999 V2000
   44.7890   35.8810   44.9350 C   0  0  0  0  0  0  0  0  0  0  0  0
   44.1540   35.8480   43.6620 C   0  0  0  0  0  0  0  0  0  0  0  0
   44.1580   34.6380   42.9550 C   0  0  0  0  0  0  0  0  0  0  0  0
   44.7720   33.5760   43.5380 N   0  0  0  0  0  0  0  0  0  0  0  0
   45.3650   33.6160   44.7340 C   0  0  0  0  0  0  0  0  0  0  0  0
   45.3740   34.7790   45.4380 N   0  0  0  0  0  0  0  0  0  0  0  0
   45.9470   32.3850   45.1560 N   0  0  0  0  0  0  0  0  0  0  0  0
   46.5800   31.5660   44.2770 C   0  0  0  0  0  0  0  0  0  0  0  0
   47.0540   30.4660   44.8740 N   0  0  0  0  0  0  0  0  0  0  0  0
   46.7190   30.5710   46.1910 C   0  0  0  0  0  0  0  0  0  0  0  0
   46.8970   29.7980   47.3430 C   0  0  0  0  0  0  0  0  0  0  0  0
   47.5140   28.7140   47.2270 O   0  0  0  0  0  0  0  0  0  0  0  0
   46.4040   30.2470   48.5180 N   0  0  0  0  0  0  0  0  0  0  0  0
   45.7430   31.4130   48.6360 C   0  0  0  0  0  0  0  0  0  0  0  0
   45.3070   31.7060   49.9490 N   0  0  0  0  0  0  0  0  0  0  0  0
   45.5590   32.1820   47.5240 N   0  0  0  0  0  0  0  0  0  0  0  0
   46.0400   31.7620   46.3310 C   0  0  0  0  0  0  0  0  0  0  0  0
   43.5220   34.6390   41.6990 N   0  0  0  0  0  0  0  0  0  0  0  0
   42.2200   34.7990   41.4480 C   0  0  0  0  0  0  0  0  0  0  0  0
   41.7010   34.7810   40.1680 C   0  0  0  0  0  0  0  0  0  0  0  0
   42.6190   34.5850   39.1630 C   0  0  0  0  0  0  0  0  0  0  0  0
   42.2000   34.5600   37.9710 O   0  0  0  0  0  0  0  0  0  0  0  0
   43.9520   34.4190   39.3860 N   0  0  0  0  0  0  0  0  0  0  0  0
   44.3980   34.4470   40.6750 C   0  0  0  0  0  0  0  0  0  0  0  0
   45.6330   34.2870   40.8050 O   0  0  0  0  0  0  0  0  0  0  0  0
   40.2500   34.9630   39.9310 C   0  0  0  0  0  0  0  0  0  0  0  0
   44.8016   36.8166   45.5133 H   0  0  0  0  0  0  0  0  0  0  0  0
   43.6741   36.7458   43.2452 H   0  0  0  0  0  0  0  0  0  0  0  0
   46.6899   31.7808   43.2038 H   0  0  0  0  0  0  0  0  0  0  0  0
   46.5402   29.6711   49.3610 H   0  0  0  0  0  0  0  0  0  0  0  0
   44.7917   32.5776   50.1381 H   0  0  0  0  0  0  0  0  0  0  0  0
   45.5047   31.0478   50.7162 H   0  0  0  0  0  0  0  0  0  0  0  0
   41.5338   34.9511   42.2941 H   0  0  0  0  0  0  0  0  0  0  0  0
   44.6057   34.2762   38.6029 H   0  0  0  0  0  0  0  0  0  0  0  0
   39.7263   35.0287   40.8961 H   0  0  0  0  0  0  0  0  0  0  0  0
   40.0850   35.8889   39.3605 H   0  0  0  0  0  0  0  0  0  0  0  0
   39.8614   34.1066   39.3605 H   0  0  0  0  0  0  0  0  0  0  0  0
  1  6  2  0
  2  1  1  0
  3  4  1  0
  3  2  2  0
  4  5  2  0
  5  7  1  0
  5  6  1  0
  7 17  1  0
  8  9  2  0
  8  7  1  0
  9 10  1  0
 10 17  2  0
 10 11  1  0
 11 13  1  0
 12 11  2  0
 13 14  1  0
 14 15  1  0
 16 14  2  0
 17 16  1  0
 18  3  1  0
 19 18  1  0
 20 19  2  0
 21 23  1  0
 21 20  1  0
 22 21  2  0
 23 24  1  0
 24 25  2  0
 24 18  1  0
 26 20  1  0
  1 27  1  0
  2 28  1  0
  8 29  1  0
 13 30  1  0
 15 31  1  0
 15 32  1  0
 19 33  1  0
 23 34  1  0
 26 35  1  0
 26 36  1  0
 26 37  1  0
M  END
>  <Score>  (1) 
-7.06656

$$$$
