
     RDKit          3D

 36 39  0  0  0  0  0  0  0  0999 V2000
   46.6500   34.8120   41.9220 C   0  0  0  0  0  0  0  0  0  0  0  0
   47.9260   35.3350   41.8170 C   0  0  0  0  0  0  0  0  0  0  0  0
   48.7330   35.1810   40.7260 C   0  0  0  0  0  0  0  0  0  0  0  0
   48.2730   34.4650   39.6490 C   0  0  0  0  0  0  0  0  0  0  0  0
   47.0170   33.9140   39.6730 C   0  0  0  0  0  0  0  0  0  0  0  0
   46.5460   33.1960   38.5960 C   0  0  0  0  0  0  0  0  0  0  0  0
   45.2870   32.6300   38.5910 C   0  0  0  0  0  0  0  0  0  0  0  0
   44.5210   32.8350   39.7520 C   0  0  0  0  0  0  0  0  0  0  0  0
   45.0210   33.5460   40.7860 C   0  0  0  0  0  0  0  0  0  0  0  0
   46.2630   34.1110   40.8040 C   0  0  0  0  0  0  0  0  0  0  0  0
   44.3950   36.1160   44.7140 C   0  0  0  0  0  0  0  0  0  0  0  0
   45.0260   36.0430   43.4750 C   0  0  0  0  0  0  0  0  0  0  0  0
   45.9260   35.0520   43.1400 C   0  0  0  0  0  0  0  0  0  0  0  0
   46.1330   34.1550   44.1500 N   0  0  0  0  0  0  0  0  0  0  0  0
   45.5390   34.2040   45.3480 C   0  0  0  0  0  0  0  0  0  0  0  0
   44.6750   35.1870   45.6150 N   0  0  0  0  0  0  0  0  0  0  0  0
   45.8440   33.2020   46.3150 N   0  0  0  0  0  0  0  0  0  0  0  0
   45.1290   33.2280   47.4560 C   0  0  0  0  0  0  0  0  0  0  0  0
   45.3790   32.2830   48.4310 C   0  0  0  0  0  0  0  0  0  0  0  0
   46.3620   31.3510   48.1730 C   0  0  0  0  0  0  0  0  0  0  0  0
   46.5570   30.5050   49.0910 O   0  0  0  0  0  0  0  0  0  0  0  0
   47.0410   31.3760   47.0150 N   0  0  0  0  0  0  0  0  0  0  0  0
   46.8040   32.2960   46.0550 C   0  0  0  0  0  0  0  0  0  0  0  0
   47.4670   32.2790   44.9870 O   0  0  0  0  0  0  0  0  0  0  0  0
   48.3164   35.9127   42.6678 H   0  0  0  0  0  0  0  0  0  0  0  0
   49.7392   35.6253   40.7105 H   0  0  0  0  0  0  0  0  0  0  0  0
   48.9132   34.3327   38.7644 H   0  0  0  0  0  0  0  0  0  0  0  0
   47.1918   33.0700   37.7145 H   0  0  0  0  0  0  0  0  0  0  0  0
   44.9073   32.0553   37.7334 H   0  0  0  0  0  0  0  0  0  0  0  0
   43.5072   32.4134   39.8188 H   0  0  0  0  0  0  0  0  0  0  0  0
   44.3842   33.6784   41.6731 H   0  0  0  0  0  0  0  0  0  0  0  0
   43.6829   36.9238   44.9383 H   0  0  0  0  0  0  0  0  0  0  0  0
   44.7955   36.8142   42.7253 H   0  0  0  0  0  0  0  0  0  0  0  0
   44.3543   33.9937   47.6094 H   0  0  0  0  0  0  0  0  0  0  0  0
   44.8163   32.2739   49.3762 H   0  0  0  0  0  0  0  0  0  0  0  0
   47.7701   30.6668   46.8526 H   0  0  0  0  0  0  0  0  0  0  0  0
  1 13  1  0
  2  1  2  0
  3  2  1  0
  4  5  1  0
  4  3  2  0
  5 10  2  0
  6  5  1  0
  7  6  2  0
  7  8  1  0
  8  9  2  0
  9 10  1  0
 10  1  1  0
 11 16  2  0
 12 11  1  0
 13 12  2  0
 13 14  1  0
 14 15  2  0
 15 16  1  0
 15 17  1  0
 17 18  1  0
 18 19  2  0
 20 19  1  0
 20 21  2  0
 22 20  1  0
 23 17  1  0
 23 22  1  0
 24 23  2  0
  2 25  1  0
  3 26  1  0
  4 27  1  0
  6 28  1  0
  7 29  1  0
  8 30  1  0
  9 31  1  0
 11 32  1  0
 12 33  1  0
 18 34  1  0
 19 35  1  0
 22 36  1  0
M  END
>  <Score>  (1) 
-7.65292

$$$$
