
     RDKit          3D

 36 40  0  0  0  0  0  0  0  0999 V2000
   45.2060   33.9070   41.1100 C   0  0  0  0  0  0  0  0  0  0  0  0
   44.8400   33.7280   42.4510 C   0  0  0  0  0  0  0  0  0  0  0  0
   45.7960   34.1040   43.4060 C   0  0  0  0  0  0  0  0  0  0  0  0
   46.9860   34.6060   42.9660 N   0  0  0  0  0  0  0  0  0  0  0  0
   47.2930   34.7600   41.6600 C   0  0  0  0  0  0  0  0  0  0  0  0
   46.3950   34.4060   40.7490 N   0  0  0  0  0  0  0  0  0  0  0  0
   45.5160   33.9610   44.7950 N   0  0  0  0  0  0  0  0  0  0  0  0
   44.8410   34.9330   45.4760 C   0  0  0  0  0  0  0  0  0  0  0  0
   44.6690   34.6280   46.7690 N   0  0  0  0  0  0  0  0  0  0  0  0
   45.2540   33.4090   46.9450 C   0  0  0  0  0  0  0  0  0  0  0  0
   45.4570   32.5030   47.9820 C   0  0  0  0  0  0  0  0  0  0  0  0
   46.1090   31.3460   47.7610 N   0  0  0  0  0  0  0  0  0  0  0  0
   46.5920   31.0040   46.5570 C   0  0  0  0  0  0  0  0  0  0  0  0
   46.4240   31.8490   45.5060 N   0  0  0  0  0  0  0  0  0  0  0  0
   45.7660   33.0190   45.7240 C   0  0  0  0  0  0  0  0  0  0  0  0
   48.5950   35.3070   41.2510 C   0  0  0  0  0  0  0  0  0  0  0  0
   48.6140   35.4500   39.8610 F   0  0  0  0  0  0  0  0  0  0  0  0
   49.6110   34.4080   41.5640 F   0  0  0  0  0  0  0  0  0  0  0  0
   48.9280   36.4940   41.8960 F   0  0  0  0  0  0  0  0  0  0  0  0
   44.0140   33.4400   39.8110 S   0  0  0  0  0  0  0  0  0  0  0  0
   39.7050   32.9460   42.1490 N   0  0  0  0  0  0  0  0  0  0  0  0
   40.4450   31.8340   42.2450 C   0  0  0  0  0  0  0  0  0  0  0  0
   41.6000   32.0950   41.5650 N   0  0  0  0  0  0  0  0  0  0  0  0
   41.5070   33.3260   41.0990 C   0  0  0  0  0  0  0  0  0  0  0  0
   42.4190   34.0420   40.3500 C   0  0  0  0  0  0  0  0  0  0  0  0
   42.1470   35.3150   39.9550 N   0  0  0  0  0  0  0  0  0  0  0  0
   40.9520   35.8420   40.3280 C   0  0  0  0  0  0  0  0  0  0  0  0
   40.0540   35.1500   41.0600 N   0  0  0  0  0  0  0  0  0  0  0  0
   40.3220   33.8970   41.4490 C   0  0  0  0  0  0  0  0  0  0  0  0
   43.8608   33.3169   42.7376 H   0  0  0  0  0  0  0  0  0  0  0  0
   44.4786   35.8633   45.0142 H   0  0  0  0  0  0  0  0  0  0  0  0
   45.0818   32.7341   48.9899 H   0  0  0  0  0  0  0  0  0  0  0  0
   47.1193   30.0481   46.4217 H   0  0  0  0  0  0  0  0  0  0  0  0
   38.7697   33.0534   42.5668 H   0  0  0  0  0  0  0  0  0  0  0  0
   40.1775   30.9021   42.7647 H   0  0  0  0  0  0  0  0  0  0  0  0
   40.7074   36.8700   40.0224 H   0  0  0  0  0  0  0  0  0  0  0  0
  1  2  2  0
  2  3  1  0
  3  7  1  0
  4  3  2  0
  5  4  1  0
  6  1  1  0
  6  5  2  0
  7  8  1  0
  7 15  1  0
  8  9  2  0
  9 10  1  0
 10 11  2  0
 12 11  1  0
 13 12  2  0
 14 15  2  0
 14 13  1  0
 15 10  1  0
 16 18  1  0
 16  5  1  0
 16 19  1  0
 17 16  1  0
 20 25  1  0
 20  1  1  0
 21 22  1  0
 23 22  2  0
 24 29  2  0
 24 23  1  0
 25 24  1  0
 26 27  1  0
 26 25  2  0
 27 28  2  0
 28 29  1  0
 29 21  1  0
  2 30  1  0
  8 31  1  0
 11 32  1  0
 13 33  1  0
 21 34  1  0
 22 35  1  0
 27 36  1  0
M  END
>  <Score>  (1) 
-7.8272

$$$$
