
     RDKit          3D

 42 45  0  0  0  0  0  0  0  0999 V2000
   46.7870   34.7810   42.1180 C   0  0  0  0  0  0  0  0  0  0  0  0
   48.0150   35.4200   42.0450 C   0  0  0  0  0  0  0  0  0  0  0  0
   48.8270   35.3980   40.9360 C   0  0  0  0  0  0  0  0  0  0  0  0
   48.4260   34.7140   39.8230 C   0  0  0  0  0  0  0  0  0  0  0  0
   47.2260   34.0620   39.8280 C   0  0  0  0  0  0  0  0  0  0  0  0
   46.7990   33.3680   38.7060 C   0  0  0  0  0  0  0  0  0  0  0  0
   45.5890   32.7010   38.6660 C   0  0  0  0  0  0  0  0  0  0  0  0
   44.8200   32.7690   39.8340 C   0  0  0  0  0  0  0  0  0  0  0  0
   45.2680   33.4580   40.9130 C   0  0  0  0  0  0  0  0  0  0  0  0
   46.4640   34.1230   40.9630 C   0  0  0  0  0  0  0  0  0  0  0  0
   44.4520   35.7500   44.9770 C   0  0  0  0  0  0  0  0  0  0  0  0
   45.0710   35.7960   43.7350 C   0  0  0  0  0  0  0  0  0  0  0  0
   46.0500   34.8880   43.3480 C   0  0  0  0  0  0  0  0  0  0  0  0
   46.3290   33.9620   44.3120 N   0  0  0  0  0  0  0  0  0  0  0  0
   45.7450   33.9070   45.5050 C   0  0  0  0  0  0  0  0  0  0  0  0
   44.8120   34.8010   45.8250 N   0  0  0  0  0  0  0  0  0  0  0  0
   46.0930   32.8740   46.5120 C   0  0  0  0  0  0  0  0  0  0  0  0
   46.1980   31.5010   45.9080 C   0  0  0  0  0  0  0  0  0  0  0  0
   45.5810   30.4000   46.6790 C   0  0  0  0  0  0  0  0  0  0  0  0
   45.5500   30.5320   48.1540 C   0  0  0  0  0  0  0  0  0  0  0  0
   45.7120   31.9090   48.6950 C   0  0  0  0  0  0  0  0  0  0  0  0
   45.1720   32.9070   47.6970 C   0  0  0  0  0  0  0  0  0  0  0  0
   48.3605   35.9783   42.9276 H   0  0  0  0  0  0  0  0  0  0  0  0
   49.7916   35.9266   40.9444 H   0  0  0  0  0  0  0  0  0  0  0  0
   49.0658   34.6887   38.9286 H   0  0  0  0  0  0  0  0  0  0  0  0
   47.4459   33.3476   37.8166 H   0  0  0  0  0  0  0  0  0  0  0  0
   45.2520   32.1523   37.7742 H   0  0  0  0  0  0  0  0  0  0  0  0
   43.8457   32.2601   39.8769 H   0  0  0  0  0  0  0  0  0  0  0  0
   44.6281   33.4843   41.8073 H   0  0  0  0  0  0  0  0  0  0  0  0
   43.6805   36.4853   45.2492 H   0  0  0  0  0  0  0  0  0  0  0  0
   44.7742   36.5842   43.0274 H   0  0  0  0  0  0  0  0  0  0  0  0
   47.0961   33.1254   46.8870 H   0  0  0  0  0  0  0  0  0  0  0  0
   45.7149   31.5310   44.9202 H   0  0  0  0  0  0  0  0  0  0  0  0
   47.2738   31.2735   45.8789 H   0  0  0  0  0  0  0  0  0  0  0  0
   44.5410   30.2994   46.3352 H   0  0  0  0  0  0  0  0  0  0  0  0
   46.2255   29.5291   46.4889 H   0  0  0  0  0  0  0  0  0  0  0  0
   44.5818   30.1454   48.5051 H   0  0  0  0  0  0  0  0  0  0  0  0
   46.4220   29.9688   48.5179 H   0  0  0  0  0  0  0  0  0  0  0  0
   45.1578   31.9993   49.6409 H   0  0  0  0  0  0  0  0  0  0  0  0
   46.7784   32.1099   48.8753 H   0  0  0  0  0  0  0  0  0  0  0  0
   45.1579   33.9145   48.1382 H   0  0  0  0  0  0  0  0  0  0  0  0
   44.1418   32.6559   47.4044 H   0  0  0  0  0  0  0  0  0  0  0  0
  1 13  1  0
  2  1  2  0
  3  2  1  0
  4  5  1  0
  4  3  2  0
  5 10  2  0
  6  5  1  0
  7  6  2  0
  7  8  1  0
  8  9  2  0
  9 10  1  0
 10  1  1  0
 11 16  2  0
 12 11  1  0
 13 12  2  0
 13 14  1  0
 14 15  2  0
 15 16  1  0
 15 17  1  0
 17 22  1  0
 18 17  1  0
 18 19  1  0
 19 20  1  0
 20 21  1  0
 22 21  1  0
  2 23  1  0
  3 24  1  0
  4 25  1  0
  6 26  1  0
  7 27  1  0
  8 28  1  0
  9 29  1  0
 11 30  1  0
 12 31  1  0
 17 32  1  0
 18 33  1  0
 18 34  1  0
 19 35  1  0
 19 36  1  0
 20 37  1  0
 20 38  1  0
 21 39  1  0
 21 40  1  0
 22 41  1  0
 22 42  1  0
M  END
>  <Score>  (1) 
-7.19465

$$$$
