
 OpenBabel03262518423D

 25 27  0  0  0  0  0  0  0  0999 V2000
   39.6100   26.9290   33.9310 C   0  0  0  0  0  0  0  0  0  0  0  0
   38.4370   27.4150   33.3450 C   0  0  0  0  0  0  0  0  0  0  0  0
   37.2050   26.9730   33.8310 C   0  0  0  0  0  0  0  0  0  0  0  0
   37.2280   26.0780   34.8660 N   0  0  0  0  0  0  0  0  0  0  0  0
   38.3810   25.6350   35.4030 C   0  0  0  0  0  0  0  0  0  0  0  0
   39.5640   26.0480   34.9510 N   0  0  0  0  0  0  0  0  0  0  0  0
   38.2580   24.7050   36.4770 N   0  0  0  0  0  0  0  0  0  0  0  0
   38.0810   25.2560   37.6350 N   0  0  0  0  0  0  0  0  0  0  0  0
   37.9790   24.2680   38.5780 C   0  0  0  0  0  0  0  0  0  0  0  0
   38.1000   23.0760   37.9560 C   0  0  0  0  0  0  0  0  0  0  0  0
   38.2770   23.3620   36.6190 C   0  0  0  0  0  0  0  0  0  0  0  0
   40.8650   27.3780   33.4380 N   0  0  0  0  0  0  0  0  0  0  0  0
   38.4240   28.1160   32.5330 H   0  0  0  0  0  0  0  0  0  0  0  0
   36.2610   27.3040   33.4270 H   0  0  0  0  0  0  0  0  0  0  0  0
   37.8290   24.3690   39.6450 H   0  0  0  0  0  0  0  0  0  0  0  0
   38.0860   22.0500   38.2670 H   0  0  0  0  0  0  0  0  0  0  0  0
   41.6190   27.7980   34.0130 H   0  0  0  0  0  0  0  0  0  0  0  0
   40.9030   27.2140   32.3900 H   0  0  0  0  0  0  0  0  0  0  0  0
   38.4700   22.5700   35.3910 C   0  0  0  0  0  0  0  0  0  0  0  0
   39.5450   22.1680   34.7430 N   0  0  0  0  0  0  0  0  0  0  0  0
   39.2080   21.4760   33.6820 O   0  0  0  0  0  0  0  0  0  0  0  0
   37.8880   21.4480   33.6680 C   0  0  0  0  0  0  0  0  0  0  0  0
   37.3720   22.1270   34.7300 N   0  0  0  0  0  0  0  0  0  0  0  0
   36.9870   20.7850   32.6620 C   0  0  0  0  0  0  0  0  0  0  0  0
   36.3140   20.0540   33.1330 H   0  0  0  0  0  0  0  0  0  0  0  0
  1  6  1  0  0  0  0
  2  3  1  0  0  0  0
  2  1  2  0  0  0  0
  3  4  2  0  0  0  0
  4  5  1  0  0  0  0
  5  7  1  0  0  0  0
  6  5  2  0  0  0  0
  7 11  1  0  0  0  0
  7  8  1  0  0  0  0
  8  9  2  0  0  0  0
  9 15  1  0  0  0  0
 10 16  1  0  0  0  0
 10  9  1  0  0  0  0
 11 10  2  0  0  0  0
 12  1  1  0  0  0  0
 12 17  1  0  0  0  0
 13  2  1  0  0  0  0
 14  3  1  0  0  0  0
 18 12  1  0  0  0  0
 19 11  1  0  0  0  0
 20 19  2  0  0  0  0
 21 20  1  0  0  0  0
 22 21  1  0  0  0  0
 22 23  2  0  0  0  0
 23 19  1  0  0  0  0
 24 25  1  0  0  0  0
 24 22  1  0  0  0  0
M  END
>  <minimizedAffinity>
-4.41886568

>  <minimizedRMSD>
4.37128878

$$$$
