
 OpenBabel03262514423D

 53 56  0  0  1  0  0  0  0  0999 V2000
   38.8930   25.9250   34.8950 C   0  0  2  0  0  0  0  0  0  0  0  0
   38.9660   22.9760   37.1020 C   0  0  0  0  0  0  0  0  0  0  0  0
   38.3520   23.4030   38.2620 C   0  0  0  0  0  0  0  0  0  0  0  0
   37.9170   24.7080   38.2660 C   0  0  0  0  0  0  0  0  0  0  0  0
   38.1040   25.4850   37.1720 N   0  0  0  0  0  0  0  0  0  0  0  0
   38.7070   25.0410   36.0510 C   0  0  0  0  0  0  0  0  0  0  0  0
   39.1410   23.7510   36.0400 N   0  0  0  0  0  0  0  0  0  0  0  0
   39.3300   21.9480   37.0470 H   0  0  0  0  0  0  0  0  0  0  0  0
   37.4350   25.0720   39.1530 H   0  0  0  0  0  0  0  0  0  0  0  0
   38.2260   22.4840   39.3260 N   0  0  0  0  0  0  0  0  0  0  0  0
   37.2200   22.2400   39.5190 H   0  0  0  0  0  0  0  0  0  0  0  0
   39.0670   22.1080   39.8400 H   0  0  0  0  0  0  0  0  0  0  0  0
   39.1220   27.3320   35.3510 C   0  0  0  0  0  0  0  0  0  0  0  0
   38.1920   27.5860   35.9570 H   0  0  0  0  0  0  0  0  0  0  0  0
   39.9280   27.4260   36.0980 H   0  0  0  0  0  0  0  0  0  0  0  0
   39.1120   28.0940   34.5560 H   0  0  0  0  0  0  0  0  0  0  0  0
   37.6350   25.8320   34.0710 C   0  0  0  0  0  0  0  0  0  0  0  0
   36.7980   25.3800   34.6430 H   0  0  0  0  0  0  0  0  0  0  0  0
   37.7910   25.1090   33.2270 H   0  0  0  0  0  0  0  0  0  0  0  0
   37.1850   27.0380   33.4540 N   0  0  0  0  0  0  0  0  0  0  0  0
   36.5170   27.8920   34.2600 C   0  0  0  0  0  0  0  0  0  0  0  0
   36.0220   29.1070   33.8070 C   0  0  0  0  0  0  0  0  0  0  0  0
   36.2300   29.4300   32.4860 C   0  0  0  0  0  0  0  0  0  0  0  0
   35.7150   30.6810   32.0460 N   0  0  0  0  0  0  0  0  0  0  0  0
   36.8960   28.5740   31.6870 N   0  0  0  0  0  0  0  0  0  0  0  0
   37.3470   27.4200   32.1830 C   0  0  0  0  0  0  0  0  0  0  0  0
   37.9600   26.6250   31.4490 O   0  0  0  0  0  0  0  0  0  0  0  0
   36.3140   27.6870   35.3240 H   0  0  0  0  0  0  0  0  0  0  0  0
   34.8890   30.7420   31.4070 H   0  0  0  0  0  0  0  0  0  0  0  0
   36.3100   31.4210   32.4790 H   0  0  0  0  0  0  0  0  0  0  0  0
   35.2960   29.9950   34.7270 C   0  0  0  0  0  0  0  0  0  0  0  0
   35.9510   30.9250   35.4870 C   0  0  0  0  0  0  0  0  0  0  0  0
   35.2550   31.7530   36.3550 C   0  0  0  0  0  0  0  0  0  0  0  0
   33.9090   31.5930   36.4070 C   0  0  0  0  0  0  0  0  0  0  0  0
   33.1960   30.6740   35.6660 C   0  0  0  0  0  0  0  0  0  0  0  0
   33.9090   29.8500   34.8000 C   0  0  0  0  0  0  0  0  0  0  0  0
   37.0140   31.0180   35.4140 H   0  0  0  0  0  0  0  0  0  0  0  0
   35.8220   32.4630   36.9250 H   0  0  0  0  0  0  0  0  0  0  0  0
   33.3830   32.2550   37.0960 H   0  0  0  0  0  0  0  0  0  0  0  0
   32.1150   30.6100   35.7680 H   0  0  0  0  0  0  0  0  0  0  0  0
   33.4100   29.1240   34.2050 H   0  0  0  0  0  0  0  0  0  0  0  0
   40.0540   25.4560   34.0310 C   0  0  0  0  0  0  0  0  0  0  0  0
   39.7840   25.2690   32.9700 H   0  0  0  0  0  0  0  0  0  0  0  0
   40.1890   24.3470   34.3510 H   0  0  0  0  0  0  0  0  0  0  0  0
   41.3350   26.0170   34.1800 N   0  0  0  0  0  0  0  0  0  0  0  0
   42.1040   25.2000   34.9760 C   0  0  0  0  0  0  0  0  0  0  0  0
   43.4540   25.4790   35.2380 C   0  0  0  0  0  0  0  0  0  0  0  0
   44.0610   26.6140   34.6850 C   0  0  0  0  0  0  0  0  0  0  0  0
   45.2430   26.9580   34.8450 O   0  0  0  0  0  0  0  0  0  0  0  0
   43.2880   27.4000   33.9110 N   0  0  0  0  0  0  0  0  0  0  0  0
   42.0210   27.0630   33.7170 C   0  0  0  0  0  0  0  0  0  0  0  0
   41.2910   27.7980   33.0110 O   0  0  0  0  0  0  0  0  0  0  0  0
   43.6370   28.2670   33.4510 H   0  0  0  0  0  0  0  0  0  0  0  0
  1 42  1  6  0  0  0
  1 13  1  0  0  0  0
  1  6  1  0  0  0  0
  2  3  1  0  0  0  0
  3  4  2  0  0  0  0
  3 10  1  0  0  0  0
  4  9  1  0  0  0  0
  5  4  1  0  0  0  0
  6  5  2  0  0  0  0
  7  6  1  0  0  0  0
  7  2  2  0  0  0  0
  8  2  1  0  0  0  0
 10 11  1  0  0  0  0
 10 12  1  0  0  0  0
 13 14  1  0  0  0  0
 13 15  1  0  0  0  0
 16 13  1  0  0  0  0
 17 18  1  0  0  0  0
 17  1  1  0  0  0  0
 19 17  1  0  0  0  0
 20 17  1  0  0  0  0
 20 21  1  0  0  0  0
 21 28  1  0  0  0  0
 22 21  2  0  0  0  0
 22 31  1  0  0  0  0
 23 22  1  0  0  0  0
 24 30  1  0  0  0  0
 24 23  1  0  0  0  0
 25 26  1  0  0  0  0
 25 23  2  0  0  0  0
 26 20  1  0  0  0  0
 27 26  2  0  0  0  0
 29 24  1  0  0  0  0
 31 36  2  0  0  0  0
 31 32  1  0  0  0  0
 32 33  2  0  0  0  0
 33 34  1  0  0  0  0
 33 38  1  0  0  0  0
 34 39  1  0  0  0  0
 35 40  1  0  0  0  0
 35 34  2  0  0  0  0
 36 35  1  0  0  0  0
 37 32  1  0  0  0  0
 41 36  1  0  0  0  0
 42 45  1  0  0  0  0
 42 44  1  0  0  0  0
 43 42  1  0  0  0  0
 45 46  1  0  0  0  0
 46 47  2  0  0  0  0
 48 49  2  0  0  0  0
 48 47  1  0  0  0  0
 50 48  1  0  0  0  0
 51 50  1  0  0  0  0
 51 45  1  0  0  0  0
 52 51  2  0  0  0  0
 53 50  1  0  0  0  0
M  END
>  <minimizedAffinity>
-7.2520113

>  <minimizedRMSD>
1.16875136

$$$$
