
 OpenBabel03262516303D

 43 45  0  0  0  0  0  0  0  0999 V2000
   38.2520   23.1780   34.7210 C   0  0  0  0  0  0  0  0  0  0  0  0
   38.6680   24.4480   34.3210 C   0  0  0  0  0  0  0  0  0  0  0  0
   38.6110   25.2990   35.3820 C   0  0  0  0  0  0  0  0  0  0  0  0
   38.1490   24.4930   36.4190 C   0  0  0  0  0  0  0  0  0  0  0  0
   37.9510   23.2440   35.9810 O   0  0  0  0  0  0  0  0  0  0  0  0
   39.0010   24.7820   33.3300 H   0  0  0  0  0  0  0  0  0  0  0  0
   37.9550   24.7610   37.4500 H   0  0  0  0  0  0  0  0  0  0  0  0
   38.2100   22.0650   33.7970 C   0  0  0  0  0  0  0  0  0  0  0  0
   37.0800   21.4530   33.3160 C   0  0  0  0  0  0  0  0  0  0  0  0
   37.1280   20.4000   32.4390 C   0  0  0  0  0  0  0  0  0  0  0  0
   38.3490   19.9820   32.0660 N   0  0  0  0  0  0  0  0  0  0  0  0
   39.4900   20.5680   32.5280 C   0  0  0  0  0  0  0  0  0  0  0  0
   39.4310   21.6000   33.3860 N   0  0  0  0  0  0  0  0  0  0  0  0
   36.1290   21.8510   33.6660 H   0  0  0  0  0  0  0  0  0  0  0  0
   40.4660   20.2110   32.2100 H   0  0  0  0  0  0  0  0  0  0  0  0
   35.9270   19.7490   31.9250 C   0  0  0  0  0  0  0  0  0  0  0  0
   36.1190   19.2130   30.5080 C   0  0  0  0  0  0  0  0  0  0  0  0
   35.1550   18.8480   30.1290 H   0  0  0  0  0  0  0  0  0  0  0  0
   36.8570   18.3910   30.5410 H   0  0  0  0  0  0  0  0  0  0  0  0
   36.4560   20.0560   29.8860 H   0  0  0  0  0  0  0  0  0  0  0  0
   34.7430   20.7170   31.8930 C   0  0  0  0  0  0  0  0  0  0  0  0
   33.8540   20.0890   31.6590 H   0  0  0  0  0  0  0  0  0  0  0  0
   34.9080   21.5400   31.1950 H   0  0  0  0  0  0  0  0  0  0  0  0
   34.6810   21.1050   32.9500 H   0  0  0  0  0  0  0  0  0  0  0  0
   35.5520   18.6260   32.8680 C   0  0  0  0  0  0  0  0  0  0  0  0
   35.7720   17.6710   32.3440 H   0  0  0  0  0  0  0  0  0  0  0  0
   36.1520   18.6700   33.8120 H   0  0  0  0  0  0  0  0  0  0  0  0
   34.4560   18.6180   33.0830 H   0  0  0  0  0  0  0  0  0  0  0  0
   38.9330   26.7240   35.5000 C   0  0  0  0  0  0  0  0  0  0  0  0
   39.6540   27.0360   34.7380 H   0  0  0  0  0  0  0  0  0  0  0  0
   39.3520   26.8870   36.5320 H   0  0  0  0  0  0  0  0  0  0  0  0
   37.6690   27.6040   35.4140 C   0  0  0  0  0  0  0  0  0  0  0  0
   36.8030   27.0430   35.8210 H   0  0  0  0  0  0  0  0  0  0  0  0
   37.8340   28.5670   35.9050 H   0  0  0  0  0  0  0  0  0  0  0  0
   37.4470   27.8290   33.9780 N   0  0  0  0  0  0  0  0  0  0  0  0
   38.3150   27.4820   33.0100 C   0  0  0  0  0  0  0  0  0  0  0  0
   38.0320   27.7290   31.6850 C   0  0  0  0  0  0  0  0  0  0  0  0
   36.8460   28.3420   31.2990 C   0  0  0  0  0  0  0  0  0  0  0  0
   36.5200   28.5970   30.1110 O   0  0  0  0  0  0  0  0  0  0  0  0
   35.9910   28.6800   32.2750 N   0  0  0  0  0  0  0  0  0  0  0  0
   36.3100   28.4200   33.5500 C   0  0  0  0  0  0  0  0  0  0  0  0
   35.4830   28.7500   34.4650 O   0  0  0  0  0  0  0  0  0  0  0  0
   35.0710   29.1450   32.0900 H   0  0  0  0  0  0  0  0  0  0  0  0
  1  5  1  0  0  0  0
  2  1  2  0  0  0  0
  2  3  1  0  0  0  0
  3 29  1  0  0  0  0
  3  4  2  0  0  0  0
  4  7  1  0  0  0  0
  5  4  1  0  0  0  0
  6  2  1  0  0  0  0
  8  1  1  0  0  0  0
  9 14  1  0  0  0  0
  9  8  2  0  0  0  0
 10  9  1  0  0  0  0
 11 10  2  0  0  0  0
 11 12  1  0  0  0  0
 12 13  2  0  0  0  0
 13  8  1  0  0  0  0
 15 12  1  0  0  0  0
 16 10  1  0  0  0  0
 16 25  1  0  0  0  0
 17 19  1  0  0  0  0
 17 16  1  0  0  0  0
 18 17  1  0  0  0  0
 20 17  1  0  0  0  0
 21 16  1  0  0  0  0
 21 24  1  0  0  0  0
 22 21  1  0  0  0  0
 23 21  1  0  0  0  0
 25 28  1  0  0  0  0
 25 27  1  0  0  0  0
 26 25  1  0  0  0  0
 29 31  1  0  0  0  0
 30 29  1  0  0  0  0
 32 29  1  0  0  0  0
 32 33  1  0  0  0  0
 32 34  1  0  0  0  0
 35 32  1  0  0  0  0
 36 35  1  0  0  0  0
 37 36  2  0  0  0  0
 38 37  1  0  0  0  0
 38 40  1  0  0  0  0
 39 38  2  0  0  0  0
 40 41  1  0  0  0  0
 41 35  1  0  0  0  0
 41 42  2  0  0  0  0
 43 40  1  0  0  0  0
M  END
>  <minimizedAffinity>
-5.21540594

>  <minimizedRMSD>
8.90070724

$$$$
