
 OpenBabel03262519383D

 30 32  0  0  1  0  0  0  0  0999 V2000
   37.8880   24.2570   33.5740 N   0  0  0  0  0  0  0  0  0  0  0  0
   38.4710   23.5510   32.4830 C   0  0  0  0  0  0  0  0  0  0  0  0
   37.4670   23.6280   31.3640 C   0  0  0  0  0  0  0  0  0  0  0  0
   36.3360   24.4690   31.9230 C   0  0  0  0  0  0  0  0  0  0  0  0
   37.1500   25.3310   32.9200 C   0  0  2  0  0  0  0  0  0  0  0  0
   39.3960   24.1050   32.1790 H   0  0  0  0  0  0  0  0  0  0  0  0
   38.7440   22.4990   32.7250 H   0  0  0  0  0  0  0  0  0  0  0  0
   37.9010   24.1150   30.4650 H   0  0  0  0  0  0  0  0  0  0  0  0
   37.0300   22.6330   31.1230 H   0  0  0  0  0  0  0  0  0  0  0  0
   35.9370   25.1980   31.1920 H   0  0  0  0  0  0  0  0  0  0  0  0
   35.5790   23.8880   32.4660 H   0  0  0  0  0  0  0  0  0  0  0  0
   36.4830   25.7790   33.6530 H   0  0  0  0  0  0  0  0  0  0  0  0
   38.8380   24.8930   34.4430 C   0  0  0  0  0  0  0  0  0  0  0  0
   38.7570   25.9950   34.4400 H   0  0  0  0  0  0  0  0  0  0  0  0
   39.8630   24.6600   34.0370 H   0  0  0  0  0  0  0  0  0  0  0  0
   37.9540   24.2130   38.0570 C   0  0  0  0  0  0  0  0  0  0  0  0
   37.9300   24.7810   36.7860 C   0  0  0  0  0  0  0  0  0  0  0  0
   38.8200   24.3230   35.8150 C   0  0  0  0  0  0  0  0  0  0  0  0
   39.6890   23.3150   36.1800 N   0  0  0  0  0  0  0  0  0  0  0  0
   39.6730   22.7970   37.4220 C   0  0  0  0  0  0  0  0  0  0  0  0
   38.8150   23.2450   38.3450 N   0  0  0  0  0  0  0  0  0  0  0  0
   37.2590   24.5670   38.8230 H   0  0  0  0  0  0  0  0  0  0  0  0
   37.2350   25.5780   36.5180 H   0  0  0  0  0  0  0  0  0  0  0  0
   40.3880   21.9980   37.6530 H   0  0  0  0  0  0  0  0  0  0  0  0
   37.9360   26.2350   32.2880 O   0  0  0  0  0  0  0  0  0  0  0  0
   37.3740   27.3700   31.6510 C   0  0  0  0  0  0  0  0  0  0  0  0
   37.5470   27.9330   30.4000 C   0  0  0  0  0  0  0  0  0  0  0  0
   36.8560   29.0380   30.0750 C   0  0  0  0  0  0  0  0  0  0  0  0
   35.9490   29.6190   31.0290 C   0  0  0  0  0  0  0  0  0  0  0  0
   36.1650   28.4180   32.4880 S   0  0  0  0  0  0  0  0  0  0  0  0
  1 13  1  0  0  0  0
  2  7  1  0  0  0  0
  2  1  1  0  0  0  0
  3  4  1  0  0  0  0
  3  2  1  0  0  0  0
  4 11  1  0  0  0  0
  4  5  1  0  0  0  0
  5  1  1  0  0  0  0
  5 12  1  1  0  0  0
  6  2  1  0  0  0  0
  8  3  1  0  0  0  0
  9  3  1  0  0  0  0
 10  4  1  0  0  0  0
 13 18  1  0  0  0  0
 14 13  1  0  0  0  0
 15 13  1  0  0  0  0
 16 21  1  0  0  0  0
 16 22  1  0  0  0  0
 17 16  2  0  0  0  0
 18 19  2  0  0  0  0
 18 17  1  0  0  0  0
 19 20  1  0  0  0  0
 20 24  1  0  0  0  0
 20 21  2  0  0  0  0
 23 17  1  0  0  0  0
 25  5  1  0  0  0  0
 26 25  1  0  0  0  0
 26 30  1  0  0  0  0
 27 26  2  0  0  0  0
 28 27  1  0  0  0  0
 28 29  2  0  0  0  0
 29 30  1  0  0  0  0
M  END
>  <minimizedAffinity>
-4.23176575

>  <minimizedRMSD>
3.55101824

$$$$
