
 OpenBabel03262518483D

 29 31  0  0  0  0  0  0  0  0999 V2000
   38.7540   24.3180   31.7600 C   0  0  0  0  0  0  0  0  0  0  0  0
   37.6350   23.8350   32.4050 C   0  0  0  0  0  0  0  0  0  0  0  0
   37.7350   23.6750   33.7700 C   0  0  0  0  0  0  0  0  0  0  0  0
   38.8680   23.9670   34.4950 C   0  0  0  0  0  0  0  0  0  0  0  0
   39.9600   24.4480   33.8050 C   0  0  0  0  0  0  0  0  0  0  0  0
   39.9370   24.6360   32.4230 C   0  0  0  0  0  0  0  0  0  0  0  0
   36.8750   23.2980   34.3140 H   0  0  0  0  0  0  0  0  0  0  0  0
   40.8450   24.6740   34.3820 H   0  0  0  0  0  0  0  0  0  0  0  0
   40.8010   25.0090   31.9270 H   0  0  0  0  0  0  0  0  0  0  0  0
   39.8040   22.8050   37.8370 C   0  0  0  0  0  0  0  0  0  0  0  0
   38.8530   23.4140   38.6620 C   0  0  0  0  0  0  0  0  0  0  0  0
   37.8960   24.2200   38.0610 C   0  0  0  0  0  0  0  0  0  0  0  0
   37.9320   24.3760   36.7080 N   0  0  0  0  0  0  0  0  0  0  0  0
   38.8780   23.7630   35.9540 C   0  0  0  0  0  0  0  0  0  0  0  0
   39.8230   22.9730   36.4910 N   0  0  0  0  0  0  0  0  0  0  0  0
   40.5430   22.1790   38.3210 H   0  0  0  0  0  0  0  0  0  0  0  0
   38.8580   23.2650   39.7320 H   0  0  0  0  0  0  0  0  0  0  0  0
   37.1250   24.7280   38.6330 H   0  0  0  0  0  0  0  0  0  0  0  0
   38.6730   24.5350   30.0380 S   0  0  0  0  0  0  0  0  0  0  0  0
   39.5380   25.6630   29.5630 O   0  0  0  0  0  0  0  0  0  0  0  0
   39.1030   23.2310   29.4050 O   0  0  0  0  0  0  0  0  0  0  0  0
   37.3920   24.8280   29.6620 H   0  0  0  0  0  0  0  0  0  0  0  0
   36.1270   23.4220   31.5930 S   0  0  0  0  0  0  0  0  0  0  0  0
   36.0090   21.6200   31.4660 C   0  0  0  0  0  0  0  0  0  0  0  0
   36.9100   20.8110   30.8120 C   0  0  0  0  0  0  0  0  0  0  0  0
   36.2340   19.1780   31.0530 S   0  0  0  0  0  0  0  0  0  0  0  0
   34.7640   19.8620   32.0510 C   0  0  0  0  0  0  0  0  0  0  0  0
   33.9910   19.2000   32.4630 H   0  0  0  0  0  0  0  0  0  0  0  0
   34.9600   21.0910   32.0650 N   0  0  0  0  0  0  0  0  0  0  0  0
  1  2  2  0  0  0  0
  1  6  1  0  0  0  0
  2  3  1  0  0  0  0
  3  7  1  0  0  0  0
  3  4  2  0  0  0  0
  4 14  1  0  0  0  0
  5  8  1  0  0  0  0
  5  4  1  0  0  0  0
  6  5  2  0  0  0  0
  9  6  1  0  0  0  0
 10 16  1  0  0  0  0
 10 11  1  0  0  0  0
 11 17  1  0  0  0  0
 12 18  1  0  0  0  0
 12 11  2  0  0  0  0
 13 12  1  0  0  0  0
 14 15  1  0  0  0  0
 14 13  2  0  0  0  0
 15 10  2  0  0  0  0
 19  1  1  0  0  0  0
 20 19  2  0  0  0  0
 21 19  2  0  0  0  0
 22 19  1  0  0  0  0
 23  2  1  0  0  0  0
 24 23  1  0  0  0  0
 24 29  1  0  0  0  0
 25 26  1  0  0  0  0
 25 24  2  0  0  0  0
 26 27  1  0  0  0  0
 27 29  2  0  0  0  0
 27 28  1  0  0  0  0
M  END
>  <minimizedAffinity>
-4.55795813

>  <minimizedRMSD>
3.00017881

$$$$
