
 OpenBabel03262514593D

 47 51  0  0  0  0  0  0  0  0999 V2000
   41.2020   22.5790   34.3940 C   0  0  0  0  0  0  0  0  0  0  0  0
   41.1070   23.7490   35.1650 C   0  0  0  0  0  0  0  0  0  0  0  0
   39.8370   24.2360   35.4570 C   0  0  0  0  0  0  0  0  0  0  0  0
   38.7650   23.5730   34.9940 N   0  0  0  0  0  0  0  0  0  0  0  0
   38.8560   22.4610   34.2600 C   0  0  0  0  0  0  0  0  0  0  0  0
   40.0690   21.9590   33.9580 N   0  0  0  0  0  0  0  0  0  0  0  0
   37.7410   21.7490   33.7640 N   0  0  0  0  0  0  0  0  0  0  0  0
   37.5910   21.4270   32.4330 C   0  0  0  0  0  0  0  0  0  0  0  0
   36.4600   20.7280   32.0660 C   0  0  0  0  0  0  0  0  0  0  0  0
   35.5350   20.3830   33.0240 C   0  0  0  0  0  0  0  0  0  0  0  0
   34.5000   19.7480   32.7060 O   0  0  0  0  0  0  0  0  0  0  0  0
   35.6660   20.6880   34.3090 N   0  0  0  0  0  0  0  0  0  0  0  0
   36.7930   21.3780   34.6440 C   0  0  0  0  0  0  0  0  0  0  0  0
   36.9450   21.6800   35.8560 O   0  0  0  0  0  0  0  0  0  0  0  0
   42.1320   22.0860   34.0900 H   0  0  0  0  0  0  0  0  0  0  0  0
   39.8750   25.1140   36.0380 H   0  0  0  0  0  0  0  0  0  0  0  0
   38.3550   21.7310   31.7470 H   0  0  0  0  0  0  0  0  0  0  0  0
   34.9660   20.4310   35.0570 H   0  0  0  0  0  0  0  0  0  0  0  0
   42.4170   24.2430   35.5230 C   0  0  0  0  0  0  0  0  0  0  0  0
   43.0940   23.5650   36.5390 C   0  0  0  0  0  0  0  0  0  0  0  0
   44.3390   23.9080   36.9860 C   0  0  0  0  0  0  0  0  0  0  0  0
   44.9970   24.9700   36.4350 C   0  0  0  0  0  0  0  0  0  0  0  0
   44.3660   25.6690   35.4280 C   0  0  0  0  0  0  0  0  0  0  0  0
   44.9450   26.7580   34.8060 C   0  0  0  0  0  0  0  0  0  0  0  0
   44.3210   27.4660   33.7940 C   0  0  0  0  0  0  0  0  0  0  0  0
   43.0670   27.0710   33.3880 C   0  0  0  0  0  0  0  0  0  0  0  0
   42.4700   25.9910   33.9920 C   0  0  0  0  0  0  0  0  0  0  0  0
   43.1160   25.3000   35.0010 C   0  0  0  0  0  0  0  0  0  0  0  0
   42.6270   22.7110   37.0200 H   0  0  0  0  0  0  0  0  0  0  0  0
   44.8370   23.3550   37.7830 H   0  0  0  0  0  0  0  0  0  0  0  0
   45.9790   25.3200   36.7180 H   0  0  0  0  0  0  0  0  0  0  0  0
   45.9370   27.0620   35.1360 H   0  0  0  0  0  0  0  0  0  0  0  0
   44.8550   28.2940   33.3780 H   0  0  0  0  0  0  0  0  0  0  0  0
   42.5910   27.6210   32.6080 H   0  0  0  0  0  0  0  0  0  0  0  0
   41.4660   25.7000   33.6450 H   0  0  0  0  0  0  0  0  0  0  0  0
   36.2420   20.3550   30.6740 C   0  0  0  0  0  0  0  0  0  0  0  0
   35.3060   19.7470   30.5780 H   0  0  0  0  0  0  0  0  0  0  0  0
   36.0690   21.2440   30.0300 H   0  0  0  0  0  0  0  0  0  0  0  0
   37.3080   19.5860   30.0830 N   0  0  0  0  0  0  0  0  0  0  0  0
   38.2930   20.1690   29.4010 C   0  0  0  0  0  0  0  0  0  0  0  0
   39.3370   19.4890   28.8150 C   0  0  0  0  0  0  0  0  0  0  0  0
   39.3170   18.1030   28.9760 C   0  0  0  0  0  0  0  0  0  0  0  0
   40.2250   17.3970   28.4790 O   0  0  0  0  0  0  0  0  0  0  0  0
   38.3150   17.5390   29.6680 N   0  0  0  0  0  0  0  0  0  0  0  0
   37.3060   18.2290   30.2300 C   0  0  0  0  0  0  0  0  0  0  0  0
   36.3630   17.7090   30.8810 O   0  0  0  0  0  0  0  0  0  0  0  0
   38.2650   16.5180   29.8090 H   0  0  0  0  0  0  0  0  0  0  0  0
  1  2  1  0  0  0  0
  2  3  2  0  0  0  0
  2 19  1  0  0  0  0
  3 16  1  0  0  0  0
  4  3  1  0  0  0  0
  5  4  2  0  0  0  0
  6  5  1  0  0  0  0
  6  1  2  0  0  0  0
  7  5  1  0  0  0  0
  7 13  1  0  0  0  0
  8  7  1  0  0  0  0
  9  8  2  0  0  0  0
  9 10  1  0  0  0  0
 10 12  1  0  0  0  0
 11 10  2  0  0  0  0
 12 13  1  0  0  0  0
 12 18  1  0  0  0  0
 13 14  2  0  0  0  0
 15  1  1  0  0  0  0
 17  8  1  0  0  0  0
 19 20  1  0  0  0  0
 20 21  2  0  0  0  0
 20 29  1  0  0  0  0
 21 30  1  0  0  0  0
 22 31  1  0  0  0  0
 22 21  1  0  0  0  0
 23 22  2  0  0  0  0
 24 32  1  0  0  0  0
 24 23  1  0  0  0  0
 25 24  2  0  0  0  0
 26 25  1  0  0  0  0
 26 27  2  0  0  0  0
 27 28  1  0  0  0  0
 28 23  1  0  0  0  0
 28 19  2  0  0  0  0
 33 25  1  0  0  0  0
 34 26  1  0  0  0  0
 35 27  1  0  0  0  0
 36  9  1  0  0  0  0
 37 36  1  0  0  0  0
 38 36  1  0  0  0  0
 39 45  1  0  0  0  0
 39 36  1  0  0  0  0
 40 39  1  0  0  0  0
 41 42  1  0  0  0  0
 41 40  2  0  0  0  0
 42 44  1  0  0  0  0
 43 42  2  0  0  0  0
 44 47  1  0  0  0  0
 44 45  1  0  0  0  0
 45 46  2  0  0  0  0
M  END
>  <minimizedAffinity>
-5.74727201

>  <minimizedRMSD>
1.55670524

$$$$
