
 OpenBabel03262519353D

 27 28  0  0  1  0  0  0  0  0999 V2000
   37.6030   25.3570   34.3280 N   0  0  0  0  0  0  0  0  0  0  0  0
   37.0790   25.4990   33.0090 C   0  0  0  0  0  0  0  0  0  0  0  0
   36.8820   26.9890   32.8040 C   0  0  0  0  0  0  0  0  0  0  0  0
   37.3250   27.6110   34.1210 C   0  0  0  0  0  0  0  0  0  0  0  0
   38.3510   26.5340   34.5330 C   0  0  2  0  0  0  0  0  0  0  0  0
   37.9040   25.2200   32.3000 H   0  0  0  0  0  0  0  0  0  0  0  0
   36.2040   24.8880   32.7840 H   0  0  0  0  0  0  0  0  0  0  0  0
   35.7720   27.1220   32.6510 H   0  0  0  0  0  0  0  0  0  0  0  0
   37.4170   27.3950   31.9440 H   0  0  0  0  0  0  0  0  0  0  0  0
   37.8080   28.5950   33.9730 H   0  0  0  0  0  0  0  0  0  0  0  0
   36.4820   27.6280   34.8370 H   0  0  0  0  0  0  0  0  0  0  0  0
   38.5670   26.7290   35.6020 H   0  0  0  0  0  0  0  0  0  0  0  0
   38.4130   24.2130   34.5320 C   0  0  0  0  0  0  0  0  0  0  0  0
   39.3700   24.1620   34.0180 H   0  0  0  0  0  0  0  0  0  0  0  0
   37.8250   23.3400   34.1290 H   0  0  0  0  0  0  0  0  0  0  0  0
   37.8660   23.8980   38.2650 C   0  0  0  0  0  0  0  0  0  0  0  0
   37.6320   24.2530   36.9400 C   0  0  0  0  0  0  0  0  0  0  0  0
   38.5760   23.8790   35.9890 C   0  0  0  0  0  0  0  0  0  0  0  0
   39.6990   23.1770   36.3970 N   0  0  0  0  0  0  0  0  0  0  0  0
   39.8740   22.8610   37.6970 C   0  0  0  0  0  0  0  0  0  0  0  0
   38.9700   23.2160   38.6200 N   0  0  0  0  0  0  0  0  0  0  0  0
   37.1290   24.1910   39.0070 H   0  0  0  0  0  0  0  0  0  0  0  0
   36.7530   24.8020   36.6240 H   0  0  0  0  0  0  0  0  0  0  0  0
   40.7730   22.3110   37.9510 H   0  0  0  0  0  0  0  0  0  0  0  0
   39.5530   26.7820   33.7140 C   0  0  0  0  0  0  0  0  0  0  0  0
   40.7450   26.7950   34.6750 C   0  0  0  0  0  0  0  0  0  0  0  0
   40.5020   26.2340   35.6010 H   0  0  0  0  0  0  0  0  0  0  0  0
  1 13  1  0  0  0  0
  1  5  1  0  0  0  0
  2  1  1  0  0  0  0
  3  2  1  0  0  0  0
  3  4  1  0  0  0  0
  4  5  1  0  0  0  0
  4 11  1  0  0  0  0
  5 12  1  1  0  0  0
  6  2  1  0  0  0  0
  7  2  1  0  0  0  0
  8  3  1  0  0  0  0
  9  3  1  0  0  0  0
 10  4  1  0  0  0  0
 13 18  1  0  0  0  0
 14 13  1  0  0  0  0
 15 13  1  0  0  0  0
 16 21  1  0  0  0  0
 16 22  1  0  0  0  0
 17 16  2  0  0  0  0
 18 19  2  0  0  0  0
 18 17  1  0  0  0  0
 19 20  1  0  0  0  0
 20 24  1  0  0  0  0
 20 21  2  0  0  0  0
 23 17  1  0  0  0  0
 25  5  1  0  0  0  0
 25 26  1  0  0  0  0
 26 27  1  0  0  0  0
M  END
>  <minimizedAffinity>
-3.95787716

>  <minimizedRMSD>
0.784218252

$$$$
