
 OpenBabel03262519283D

 27 29  0  0  0  0  0  0  0  0999 V2000
   41.7430   22.1340   36.4990 C   0  0  0  0  0  0  0  0  0  0  0  0
   42.3420   23.2760   35.9930 C   0  0  0  0  0  0  0  0  0  0  0  0
   43.6420   23.0560   35.7440 N   0  0  0  0  0  0  0  0  0  0  0  0
   43.9500   21.7790   36.0690 C   0  0  0  0  0  0  0  0  0  0  0  0
   45.1280   21.0740   36.0020 C   0  0  0  0  0  0  0  0  0  0  0  0
   45.1520   19.7340   36.4170 C   0  0  0  0  0  0  0  0  0  0  0  0
   43.9770   19.1490   36.8880 C   0  0  0  0  0  0  0  0  0  0  0  0
   42.7990   19.8920   36.9440 C   0  0  0  0  0  0  0  0  0  0  0  0
   42.7850   21.2120   36.5340 C   0  0  0  0  0  0  0  0  0  0  0  0
   41.7760   24.1910   35.8450 H   0  0  0  0  0  0  0  0  0  0  0  0
   44.3060   23.7850   35.3530 H   0  0  0  0  0  0  0  0  0  0  0  0
   46.0030   21.5950   35.6250 H   0  0  0  0  0  0  0  0  0  0  0  0
   46.0800   19.1940   36.3600 H   0  0  0  0  0  0  0  0  0  0  0  0
   44.0300   18.1140   37.2000 H   0  0  0  0  0  0  0  0  0  0  0  0
   41.9040   19.3960   37.3190 H   0  0  0  0  0  0  0  0  0  0  0  0
   40.4220   21.9830   36.8700 O   0  0  0  0  0  0  0  0  0  0  0  0
   39.5560   23.0080   37.1430 C   0  0  0  0  0  0  0  0  0  0  0  0
   39.1080   23.1040   38.4690 C   0  0  0  0  0  0  0  0  0  0  0  0
   38.2180   24.1540   38.7580 C   0  0  0  0  0  0  0  0  0  0  0  0
   37.8420   25.0040   37.7710 N   0  0  0  0  0  0  0  0  0  0  0  0
   38.3090   24.8650   36.4940 C   0  0  0  0  0  0  0  0  0  0  0  0
   39.1490   23.8860   36.1880 N   0  0  0  0  0  0  0  0  0  0  0  0
   39.4250   22.4130   39.2320 H   0  0  0  0  0  0  0  0  0  0  0  0
   37.8730   24.2360   39.7590 H   0  0  0  0  0  0  0  0  0  0  0  0
   37.8590   25.8290   35.4620 C   0  0  0  0  0  0  0  0  0  0  0  0
   38.3260   27.2350   35.7190 C   0  0  0  0  0  0  0  0  0  0  0  0
   37.9180   27.8520   34.8870 H   0  0  0  0  0  0  0  0  0  0  0  0
  1  9  1  0  0  0  0
  1 16  1  0  0  0  0
  2  1  2  0  0  0  0
  3  2  1  0  0  0  0
  3  4  1  0  0  0  0
  4  9  1  0  0  0  0
  5  4  2  0  0  0  0
  5  6  1  0  0  0  0
  6  7  2  0  0  0  0
  7  8  1  0  0  0  0
  7 14  1  0  0  0  0
  8 15  1  0  0  0  0
  9  8  2  0  0  0  0
 10  2  1  0  0  0  0
 11  3  1  0  0  0  0
 12  5  1  0  0  0  0
 13  6  1  0  0  0  0
 16 17  1  0  0  0  0
 17 18  1  0  0  0  0
 18 19  2  0  0  0  0
 18 23  1  0  0  0  0
 19 24  1  0  0  0  0
 20 19  1  0  0  0  0
 21 20  2  0  0  0  0
 22 21  1  0  0  0  0
 22 17  2  0  0  0  0
 25 26  1  0  0  0  0
 25 21  1  0  0  0  0
 27 26  1  0  0  0  0
M  END
>  <minimizedAffinity>
-4.50934696

>  <minimizedRMSD>
1.10421419

$$$$
