
 OpenBabel03262519553D

 26 28  0  0  1  0  0  0  0  0999 V2000
   38.0630   23.5000   34.6500 C   0  0  0  0  0  0  0  0  0  0  0  0
   38.2950   24.6050   33.8400 C   0  0  0  0  0  0  0  0  0  0  0  0
   37.8140   24.2200   32.6260 N   0  0  0  0  0  0  0  0  0  0  0  0
   37.3430   22.9830   32.7470 C   0  0  0  0  0  0  0  0  0  0  0  0
   37.4840   22.5020   34.0020 N   0  0  0  0  0  0  0  0  0  0  0  0
   38.7640   25.5460   34.1600 H   0  0  0  0  0  0  0  0  0  0  0  0
   36.8980   22.4440   31.9020 H   0  0  0  0  0  0  0  0  0  0  0  0
   38.4140   23.4270   36.0700 C   0  0  0  0  0  0  0  0  0  0  0  0
   39.6130   22.8340   36.4640 C   0  0  0  0  0  0  0  0  0  0  0  0
   39.9060   22.7880   37.8450 C   0  0  0  0  0  0  0  0  0  0  0  0
   39.0230   23.3130   38.7020 N   0  0  0  0  0  0  0  0  0  0  0  0
   37.8560   23.8890   38.2890 C   0  0  0  0  0  0  0  0  0  0  0  0
   37.5420   23.9520   36.9760 N   0  0  0  0  0  0  0  0  0  0  0  0
   40.3000   22.4220   35.7640 H   0  0  0  0  0  0  0  0  0  0  0  0
   40.8320   22.3310   38.1740 H   0  0  0  0  0  0  0  0  0  0  0  0
   37.1610   24.3050   39.0080 H   0  0  0  0  0  0  0  0  0  0  0  0
   37.0610   21.1980   34.4030 C   0  0  1  0  0  0  0  0  0  0  0  0
   35.9710   20.9810   35.3520 C   0  0  0  0  0  0  0  0  0  0  0  0
   35.6610   20.8380   33.8890 C   0  0  2  0  0  0  0  0  0  0  0  0
   37.8180   20.3960   34.2490 H   0  0  0  0  0  0  0  0  0  0  0  0
   35.9380   20.1160   36.0410 H   0  0  0  0  0  0  0  0  0  0  0  0
   35.6020   21.8970   35.8600 H   0  0  0  0  0  0  0  0  0  0  0  0
   35.0310   21.6520   33.4520 H   0  0  0  0  0  0  0  0  0  0  0  0
   35.4940   19.5240   33.2150 C   0  0  0  0  0  0  0  0  0  0  0  0
   34.7000   19.5620   31.9440 C   0  0  0  0  0  0  0  0  0  0  0  0
   34.0640   18.6360   31.8450 H   0  0  0  0  0  0  0  0  0  0  0  0
  1  8  1  0  0  0  0
  2  6  1  0  0  0  0
  2  1  2  0  0  0  0
  3  4  2  0  0  0  0
  3  2  1  0  0  0  0
  4  5  1  0  0  0  0
  5 17  1  0  0  0  0
  5  1  1  0  0  0  0
  7  4  1  0  0  0  0
  8  9  2  0  0  0  0
  8 13  1  0  0  0  0
  9 10  1  0  0  0  0
 10 15  1  0  0  0  0
 10 11  2  0  0  0  0
 12 11  1  0  0  0  0
 12 16  1  0  0  0  0
 13 12  2  0  0  0  0
 14  9  1  0  0  0  0
 17 20  1  6  0  0  0
 17 18  1  0  0  0  0
 18 22  1  0  0  0  0
 18 21  1  0  0  0  0
 19 23  1  6  0  0  0
 19 17  1  0  0  0  0
 19 18  1  0  0  0  0
 24 19  1  0  0  0  0
 25 24  1  0  0  0  0
 26 25  1  0  0  0  0
M  END
>  <minimizedAffinity>
-4.44785976

>  <minimizedRMSD>
0.316969812

$$$$
