
 OpenBabel03262519043D

 19 20  0  0  1  0  0  0  0  0999 V2000
   37.6220   24.1520   37.1320 C   0  0  2  0  0  0  0  0  0  0  0  0
   37.9390   24.3910   38.5890 C   0  0  0  0  0  0  0  0  0  0  0  0
   38.4050   23.1610   37.8450 C   0  0  2  0  0  0  0  0  0  0  0  0
   36.5410   23.9240   36.8920 H   0  0  0  0  0  0  0  0  0  0  0  0
   37.0580   24.3400   39.2590 H   0  0  0  0  0  0  0  0  0  0  0  0
   38.6190   25.2060   38.8490 H   0  0  0  0  0  0  0  0  0  0  0  0
   37.8280   22.2400   38.1860 H   0  0  0  0  0  0  0  0  0  0  0  0
   38.8270   27.2990   35.6560 C   0  0  0  0  0  0  0  0  0  0  0  0
   39.3050   26.8950   34.3850 C   0  0  0  0  0  0  0  0  0  0  0  0
   39.1860   25.5250   34.0770 C   0  0  0  0  0  0  0  0  0  0  0  0
   38.6320   24.7020   35.0010 N   0  0  0  0  0  0  0  0  0  0  0  0
   38.1870   25.1480   36.2120 C   0  0  0  0  0  0  0  0  0  0  0  0
   38.2910   26.4610   36.5320 N   0  0  0  0  0  0  0  0  0  0  0  0
   38.9310   28.3550   35.8690 H   0  0  0  0  0  0  0  0  0  0  0  0
   39.7420   27.5300   33.6510 H   0  0  0  0  0  0  0  0  0  0  0  0
   39.5050   25.0710   33.1480 H   0  0  0  0  0  0  0  0  0  0  0  0
   39.8560   22.9770   37.9520 C   0  0  0  0  0  0  0  0  0  0  0  0
   40.4250   22.0640   36.8950 C   0  0  0  0  0  0  0  0  0  0  0  0
   40.3160   22.5220   35.8810 H   0  0  0  0  0  0  0  0  0  0  0  0
  1  4  1  6  0  0  0
  1  3  1  0  0  0  0
  1  2  1  0  0  0  0
  2  6  1  0  0  0  0
  2  5  1  0  0  0  0
  3 17  1  0  0  0  0
  3  7  1  1  0  0  0
  3  2  1  0  0  0  0
  8 14  1  0  0  0  0
  8 13  1  0  0  0  0
  9  8  2  0  0  0  0
 10  9  1  0  0  0  0
 10 11  2  0  0  0  0
 11 12  1  0  0  0  0
 12 13  2  0  0  0  0
 12  1  1  0  0  0  0
 15  9  1  0  0  0  0
 16 10  1  0  0  0  0
 18 17  1  0  0  0  0
 19 18  1  0  0  0  0
M  END
>  <minimizedAffinity>
-3.85479712

>  <minimizedRMSD>
4.61660147

$$$$
