
 OpenBabel03262519593D

 29 31  0  0  1  0  0  0  0  0999 V2000
   37.9580   22.6450   34.7540 C   0  0  0  0  0  0  0  0  0  0  0  0
   37.0560   21.6410   34.4060 C   0  0  0  0  0  0  0  0  0  0  0  0
   36.9110   21.7920   33.0570 N   0  0  0  0  0  0  0  0  0  0  0  0
   37.6820   22.8110   32.6770 C   0  0  0  0  0  0  0  0  0  0  0  0
   38.3350   23.3510   33.7000 N   0  0  0  0  0  0  0  0  0  0  0  0
   36.5810   20.9140   35.0560 H   0  0  0  0  0  0  0  0  0  0  0  0
   37.7180   23.1060   31.6300 H   0  0  0  0  0  0  0  0  0  0  0  0
   38.4250   22.8950   36.1080 C   0  0  0  0  0  0  0  0  0  0  0  0
   37.6160   23.6270   37.0010 C   0  0  0  0  0  0  0  0  0  0  0  0
   38.1100   23.8430   38.3070 C   0  0  0  0  0  0  0  0  0  0  0  0
   39.3320   23.3310   38.6160 N   0  0  0  0  0  0  0  0  0  0  0  0
   40.0770   22.6310   37.7230 C   0  0  0  0  0  0  0  0  0  0  0  0
   39.6290   22.4150   36.4830 N   0  0  0  0  0  0  0  0  0  0  0  0
   36.6610   24.0120   36.7160 H   0  0  0  0  0  0  0  0  0  0  0  0
   37.5300   24.4020   39.0410 H   0  0  0  0  0  0  0  0  0  0  0  0
   41.0460   22.2210   37.9560 H   0  0  0  0  0  0  0  0  0  0  0  0
   39.2200   24.4490   33.5640 C   0  0  1  0  0  0  0  0  0  0  0  0
   39.1050   25.5260   32.6170 C   0  0  0  0  0  0  0  0  0  0  0  0
   38.6760   25.7500   34.0970 C   0  0  2  0  0  0  0  0  0  0  0  0
   40.2710   24.1810   33.9310 H   0  0  0  0  0  0  0  0  0  0  0  0
   40.0470   26.0380   32.3000 H   0  0  0  0  0  0  0  0  0  0  0  0
   38.3430   25.5860   31.8210 H   0  0  0  0  0  0  0  0  0  0  0  0
   39.6630   26.6540   34.8100 C   0  0  0  0  0  0  0  0  0  0  0  0
   39.0890   27.1880   35.9420 F   0  0  0  0  0  0  0  0  0  0  0  0
   40.7410   25.8250   35.3380 F   0  0  0  0  0  0  0  0  0  0  0  0
   40.2700   27.5500   34.0160 F   0  0  0  0  0  0  0  0  0  0  0  0
   37.2340   26.1890   34.0240 C   0  0  0  0  0  2  0  0  0  0  0  0
   37.1790   27.6320   33.5830 C   0  0  0  0  0  2  0  0  0  0  0  0
   36.1550   27.8090   33.1200 H   0  0  0  0  0  0  0  0  0  0  0  0
  1  8  1  0  0  0  0
  2  1  2  0  0  0  0
  2  6  1  0  0  0  0
  3  2  1  0  0  0  0
  4  3  2  0  0  0  0
  4  5  1  0  0  0  0
  5  1  1  0  0  0  0
  7  4  1  0  0  0  0
  8 13  2  0  0  0  0
  8  9  1  0  0  0  0
  9 10  2  0  0  0  0
 10 11  1  0  0  0  0
 10 15  1  0  0  0  0
 12 16  1  0  0  0  0
 12 11  2  0  0  0  0
 13 12  1  0  0  0  0
 14  9  1  0  0  0  0
 17  5  1  0  0  0  0
 17 20  1  1  0  0  0
 17 19  1  0  0  0  0
 18 17  1  0  0  0  0
 18 19  1  0  0  0  0
 19 27  1  1  0  0  0
 19 23  1  0  0  0  0
 21 18  1  0  0  0  0
 22 18  1  0  0  0  0
 23 25  1  0  0  0  0
 23 24  1  0  0  0  0
 26 23  1  0  0  0  0
 28 27  1  0  0  0  0
 29 28  1  0  0  0  0
M  END
>  <minimizedAffinity>
-4.85119963

>  <minimizedRMSD>
4.67406321

$$$$
