
 OpenBabel03262518433D

 33 36  0  0  1  0  0  0  0  0999 V2000
   36.2330   24.0480   31.1000 C   0  0  0  0  0  0  0  0  0  0  0  0
   35.1130   24.9070   31.0510 C   0  0  0  0  0  0  0  0  0  0  0  0
   35.3180   26.2700   31.0290 C   0  0  0  0  0  0  0  0  0  0  0  0
   36.6130   26.7120   31.0550 N   0  0  0  0  0  0  0  0  0  0  0  0
   37.6550   25.8590   31.1020 C   0  0  0  0  0  0  0  0  0  0  0  0
   37.4790   24.5460   31.1240 N   0  0  0  0  0  0  0  0  0  0  0  0
   38.9510   26.4550   31.1250 N   0  0  0  0  0  0  0  0  0  0  0  0
   39.4140   26.7590   29.9410 N   0  0  0  0  0  0  0  0  0  0  0  0
   40.6380   27.3140   30.0780 C   0  0  0  0  0  0  0  0  0  0  0  0
   40.9390   27.3520   31.4000 C   0  0  0  0  0  0  0  0  0  0  0  0
   39.8540   26.8020   32.0570 C   0  0  0  0  0  0  0  0  0  0  0  0
   34.1060   24.4920   31.0320 H   0  0  0  0  0  0  0  0  0  0  0  0
   34.4960   26.9770   30.9920 H   0  0  0  0  0  0  0  0  0  0  0  0
   41.3220   27.6860   29.3290 H   0  0  0  0  0  0  0  0  0  0  0  0
   41.7760   27.6940   31.9990 H   0  0  0  0  0  0  0  0  0  0  0  0
   39.4990   26.5340   33.4490 C   0  0  0  0  0  0  0  0  0  0  0  0
   39.1420   27.3250   34.4540 N   0  0  0  0  0  0  0  0  0  0  0  0
   38.9180   26.6270   35.5200 O   0  0  0  0  0  0  0  0  0  0  0  0
   39.1420   25.3480   35.1810 C   0  0  0  0  0  0  0  0  0  0  0  0
   39.5080   25.2320   33.8970 N   0  0  0  0  0  0  0  0  0  0  0  0
   39.0040   24.1800   36.1000 C   0  0  2  0  0  0  0  0  0  0  0  0
   38.1030   23.0430   35.7290 C   0  0  0  0  0  0  0  0  0  0  0  0
   37.7570   23.9810   36.8890 C   0  0  1  0  0  0  0  0  0  0  0  0
   39.9630   23.9330   36.6280 H   0  0  0  0  0  0  0  0  0  0  0  0
   37.5500   23.1970   34.7800 H   0  0  0  0  0  0  0  0  0  0  0  0
   38.4930   22.0370   35.9720 H   0  0  0  0  0  0  0  0  0  0  0  0
   36.9000   24.6840   36.6920 H   0  0  0  0  0  0  0  0  0  0  0  0
   37.7700   23.3270   38.2300 C   0  0  0  0  0  0  0  0  0  0  0  0
   38.8380   23.8430   39.1530 C   0  0  0  0  0  0  0  0  0  0  0  0
   39.7770   23.2450   39.1180 H   0  0  0  0  0  0  0  0  0  0  0  0
   36.0290   22.6320   31.1220 N   0  0  0  0  0  0  0  0  0  0  0  0
   35.3840   22.3270   30.3410 H   0  0  0  0  0  0  0  0  0  0  0  0
   36.4640   22.0100   31.8180 H   0  0  0  0  0  0  0  0  0  0  0  0
  1 31  1  0  0  0  0
  1  6  1  0  0  0  0
  2  1  2  0  0  0  0
  3  2  1  0  0  0  0
  3  4  2  0  0  0  0
  4  5  1  0  0  0  0
  5  6  2  0  0  0  0
  5  7  1  0  0  0  0
  7 11  1  0  0  0  0
  8  9  2  0  0  0  0
  8  7  1  0  0  0  0
  9 10  1  0  0  0  0
 10 15  1  0  0  0  0
 10 11  2  0  0  0  0
 11 16  1  0  0  0  0
 12  2  1  0  0  0  0
 13  3  1  0  0  0  0
 14  9  1  0  0  0  0
 16 20  1  0  0  0  0
 16 17  2  0  0  0  0
 17 18  1  0  0  0  0
 19 18  1  0  0  0  0
 19 21  1  0  0  0  0
 20 19  2  0  0  0  0
 21 24  1  1  0  0  0
 21 23  1  0  0  0  0
 22 26  1  0  0  0  0
 22 21  1  0  0  0  0
 22 23  1  0  0  0  0
 23 27  1  6  0  0  0
 23 28  1  0  0  0  0
 25 22  1  0  0  0  0
 28 29  1  0  0  0  0
 30 29  1  0  0  0  0
 31 33  1  0  0  0  0
 32 31  1  0  0  0  0
M  END
>  <minimizedAffinity>
-5.02536535

>  <minimizedRMSD>
2.30624294

$$$$
