
 OpenBabel03262519593D

 29 31  0  0  1  0  0  0  0  0999 V2000
   39.5370   23.8680   33.7840 C   0  0  0  0  0  0  0  0  0  0  0  0
   40.1320   22.8970   32.9810 C   0  0  0  0  0  0  0  0  0  0  0  0
   40.7510   22.0730   33.8780 N   0  0  0  0  0  0  0  0  0  0  0  0
   40.5160   22.5520   35.0990 C   0  0  0  0  0  0  0  0  0  0  0  0
   39.7730   23.6530   35.0690 N   0  0  0  0  0  0  0  0  0  0  0  0
   40.1090   22.8160   31.8990 H   0  0  0  0  0  0  0  0  0  0  0  0
   40.9210   22.0430   35.9710 H   0  0  0  0  0  0  0  0  0  0  0  0
   38.7580   24.9860   33.2770 C   0  0  0  0  0  0  0  0  0  0  0  0
   39.3760   26.2400   33.0940 C   0  0  0  0  0  0  0  0  0  0  0  0
   38.5800   27.2970   32.5970 C   0  0  0  0  0  0  0  0  0  0  0  0
   37.2730   27.0350   32.3290 N   0  0  0  0  0  0  0  0  0  0  0  0
   36.7200   25.8100   32.5210 C   0  0  0  0  0  0  0  0  0  0  0  0
   37.4540   24.7970   32.9890 N   0  0  0  0  0  0  0  0  0  0  0  0
   40.4080   26.4020   33.3180 H   0  0  0  0  0  0  0  0  0  0  0  0
   39.0020   28.2890   32.4350 H   0  0  0  0  0  0  0  0  0  0  0  0
   35.6860   25.5900   32.3120 H   0  0  0  0  0  0  0  0  0  0  0  0
   39.3820   24.3580   36.2330 C   0  0  1  0  0  0  0  0  0  0  0  0
   38.2490   25.2360   36.3600 C   0  0  0  0  0  0  0  0  0  0  0  0
   38.1690   23.7860   36.9220 C   0  0  2  0  0  0  0  0  0  0  0  0
   40.2780   24.5530   36.9190 H   0  0  0  0  0  0  0  0  0  0  0  0
   38.3090   26.0510   37.1220 H   0  0  0  0  0  0  0  0  0  0  0  0
   37.5820   25.5270   35.5300 H   0  0  0  0  0  0  0  0  0  0  0  0
   38.1850   23.7980   38.4380 C   0  0  0  0  0  0  0  0  0  0  0  0
   37.3600   22.8130   38.9330 F   0  0  0  0  0  0  0  0  0  0  0  0
   39.5100   23.3820   38.8840 F   0  0  0  0  0  0  0  0  0  0  0  0
   37.9980   25.0090   38.9860 F   0  0  0  0  0  0  0  0  0  0  0  0
   36.9830   23.1620   36.2290 C   0  0  0  0  0  2  0  0  0  0  0  0
   37.2710   21.7020   35.9760 C   0  0  0  0  0  2  0  0  0  0  0  0
   36.2700   21.1690   35.8770 H   0  0  0  0  0  0  0  0  0  0  0  0
  1  5  1  0  0  0  0
  2  1  2  0  0  0  0
  2  3  1  0  0  0  0
  3  4  2  0  0  0  0
  4  7  1  0  0  0  0
  5  4  1  0  0  0  0
  5 17  1  0  0  0  0
  6  2  1  0  0  0  0
  8  1  1  0  0  0  0
  9  8  1  0  0  0  0
  9 14  1  0  0  0  0
 10  9  2  0  0  0  0
 11 12  2  0  0  0  0
 11 10  1  0  0  0  0
 12 13  1  0  0  0  0
 13  8  2  0  0  0  0
 15 10  1  0  0  0  0
 16 12  1  0  0  0  0
 17 18  1  0  0  0  0
 17 20  1  1  0  0  0
 17 19  1  0  0  0  0
 18 19  1  0  0  0  0
 18 21  1  0  0  0  0
 19 27  1  6  0  0  0
 19 23  1  0  0  0  0
 22 18  1  0  0  0  0
 23 25  1  0  0  0  0
 23 24  1  0  0  0  0
 23 26  1  0  0  0  0
 28 27  1  0  0  0  0
 29 28  1  0  0  0  0
M  END
>  <minimizedAffinity>
-4.1753912

>  <minimizedRMSD>
1.51914942

$$$$
