
 OpenBabel03262518103D

 19 20  0  0  0  0  0  0  0  0999 V2000
   42.5440   20.8000   37.0610 C   0  0  0  0  0  0  0  0  0  0  0  0
   41.4380   21.4880   37.5960 C   0  0  0  0  0  0  0  0  0  0  0  0
   40.5960   22.1530   36.7190 C   0  0  0  0  0  0  0  0  0  0  0  0
   40.8880   22.1060   35.3670 N   0  0  0  0  0  0  0  0  0  0  0  0
   41.9520   21.4380   34.9080 C   0  0  0  0  0  0  0  0  0  0  0  0
   42.7800   20.7880   35.7300 N   0  0  0  0  0  0  0  0  0  0  0  0
   43.2100   20.2750   37.7320 H   0  0  0  0  0  0  0  0  0  0  0  0
   41.2760   21.4790   38.6720 H   0  0  0  0  0  0  0  0  0  0  0  0
   39.4490   22.8690   37.2530 C   0  0  0  0  0  0  0  0  0  0  0  0
   38.5970   23.6690   36.4950 C   0  0  0  0  0  0  0  0  0  0  0  0
   37.6610   24.1520   37.3690 N   0  0  0  0  0  0  0  0  0  0  0  0
   37.9670   23.6430   38.5950 C   0  0  0  0  0  0  0  0  0  0  0  0
   39.0360   22.8730   38.5430 N   0  0  0  0  0  0  0  0  0  0  0  0
   38.6810   23.8540   35.4360 H   0  0  0  0  0  0  0  0  0  0  0  0
   37.3780   23.8650   39.4990 H   0  0  0  0  0  0  0  0  0  0  0  0
   39.4690   22.3670   39.3580 H   0  0  0  0  0  0  0  0  0  0  0  0
   42.2850   21.3710   33.4700 C   0  0  0  0  0  0  0  0  0  0  0  0
   41.3060   20.5580   32.6670 C   0  0  0  0  0  0  0  0  0  0  0  0
   40.3450   21.1400   32.6020 H   0  0  0  0  0  0  0  0  0  0  0  0
  1  2  1  0  0  0  0
  1  7  1  0  0  0  0
  2  8  1  0  0  0  0
  3  9  1  0  0  0  0
  3  2  2  0  0  0  0
  4  3  1  0  0  0  0
  5  4  2  0  0  0  0
  5  6  1  0  0  0  0
  6  1  2  0  0  0  0
  9 13  1  0  0  0  0
 10  9  2  0  0  0  0
 10 11  1  0  0  0  0
 11 12  2  0  0  0  0
 12 15  1  0  0  0  0
 13 12  1  0  0  0  0
 13 16  1  0  0  0  0
 14 10  1  0  0  0  0
 17  5  1  0  0  0  0
 18 17  1  0  0  0  0
 19 18  1  0  0  0  0
M  END
>  <minimizedAffinity>
-3.64872551

>  <minimizedRMSD>
0.0621839128

$$$$
