
 OpenBabel03262514463D

 18 19  0  0  0  0  0  0  0  0999 V2000
   37.0440   22.0450   35.7760 C   0  0  0  0  0  0  0  0  0  0  0  0
   37.8300   22.5300   34.7440 C   0  0  0  0  0  0  0  0  0  0  0  0
   38.7270   23.5850   34.9910 C   0  0  0  0  0  0  0  0  0  0  0  0
   38.7760   24.0870   36.2610 N   0  0  0  0  0  0  0  0  0  0  0  0
   38.0060   23.6020   37.2410 C   0  0  0  0  0  0  0  0  0  0  0  0
   37.1620   22.6030   36.9940 N   0  0  0  0  0  0  0  0  0  0  0  0
   39.3120   23.9180   34.1470 H   0  0  0  0  0  0  0  0  0  0  0  0
   38.1010   24.0520   38.2290 H   0  0  0  0  0  0  0  0  0  0  0  0
   37.6810   21.9380   33.4760 N   0  0  0  0  0  0  0  0  0  0  0  0
   36.7520   22.0540   32.4720 C   0  0  0  0  0  0  0  0  0  0  0  0
   37.0850   21.2520   31.4480 N   0  0  0  0  0  0  0  0  0  0  0  0
   38.2450   20.6140   31.8090 C   0  0  0  0  0  0  0  0  0  0  0  0
   38.5560   21.0680   33.0420 N   0  0  0  0  0  0  0  0  0  0  0  0
   35.9220   22.7330   32.6170 H   0  0  0  0  0  0  0  0  0  0  0  0
   38.7370   19.9040   31.1610 H   0  0  0  0  0  0  0  0  0  0  0  0
   36.0660   20.9260   35.7550 C   0  0  0  0  0  0  0  0  0  0  0  0
   35.1690   21.0140   36.9560 C   0  0  0  0  0  0  0  0  0  0  0  0
   35.0980   20.0490   37.4560 H   0  0  0  0  0  0  0  0  0  0  0  0
  1  6  1  0  0  0  0
  2  3  1  0  0  0  0
  2  1  2  0  0  0  0
  3  4  2  0  0  0  0
  4  5  1  0  0  0  0
  5  8  1  0  0  0  0
  6  5  2  0  0  0  0
  7  3  1  0  0  0  0
  9  2  1  0  0  0  0
 10 14  1  0  0  0  0
 10  9  1  0  0  0  0
 11 12  1  0  0  0  0
 11 10  2  0  0  0  0
 12 13  2  0  0  0  0
 13  9  1  0  0  0  0
 15 12  1  0  0  0  0
 16  1  1  0  0  0  0
 16 17  1  0  0  0  0
 17 18  1  0  0  0  0
M  END
>  <minimizedAffinity>
-3.31268334

>  <minimizedRMSD>
2.0426023

$$$$
