
 OpenBabel03262519593D

 29 31  0  0  1  0  0  0  0  0999 V2000
   39.5370   23.8700   33.7830 C   0  0  0  0  0  0  0  0  0  0  0  0
   40.1330   22.8980   32.9800 C   0  0  0  0  0  0  0  0  0  0  0  0
   40.7520   22.0750   33.8770 N   0  0  0  0  0  0  0  0  0  0  0  0
   40.5170   22.5540   35.0980 C   0  0  0  0  0  0  0  0  0  0  0  0
   39.7730   23.6550   35.0680 N   0  0  0  0  0  0  0  0  0  0  0  0
   40.1100   22.8180   31.8980 H   0  0  0  0  0  0  0  0  0  0  0  0
   40.9220   22.0450   35.9700 H   0  0  0  0  0  0  0  0  0  0  0  0
   38.7580   24.9880   33.2770 C   0  0  0  0  0  0  0  0  0  0  0  0
   39.3750   26.2420   33.0930 C   0  0  0  0  0  0  0  0  0  0  0  0
   38.5790   27.2980   32.5960 C   0  0  0  0  0  0  0  0  0  0  0  0
   37.2720   27.0350   32.3280 N   0  0  0  0  0  0  0  0  0  0  0  0
   36.7200   25.8100   32.5200 C   0  0  0  0  0  0  0  0  0  0  0  0
   37.4540   24.7970   32.9890 N   0  0  0  0  0  0  0  0  0  0  0  0
   40.4080   26.4040   33.3170 H   0  0  0  0  0  0  0  0  0  0  0  0
   39.0010   28.2900   32.4340 H   0  0  0  0  0  0  0  0  0  0  0  0
   35.6850   25.5910   32.3130 H   0  0  0  0  0  0  0  0  0  0  0  0
   39.3810   24.3590   36.2330 C   0  0  1  0  0  0  0  0  0  0  0  0
   38.2480   25.2360   36.3590 C   0  0  0  0  0  0  0  0  0  0  0  0
   38.1690   23.7860   36.9220 C   0  0  2  0  0  0  0  0  0  0  0  0
   40.2770   24.5540   36.9180 H   0  0  0  0  0  0  0  0  0  0  0  0
   38.3080   26.0520   37.1210 H   0  0  0  0  0  0  0  0  0  0  0  0
   37.5810   25.5280   35.5290 H   0  0  0  0  0  0  0  0  0  0  0  0
   38.1850   23.7980   38.4380 C   0  0  0  0  0  0  0  0  0  0  0  0
   37.3590   22.8130   38.9320 F   0  0  0  0  0  0  0  0  0  0  0  0
   39.5100   23.3810   38.8840 F   0  0  0  0  0  0  0  0  0  0  0  0
   37.9980   25.0100   38.9860 F   0  0  0  0  0  0  0  0  0  0  0  0
   36.9840   23.1610   36.2280 C   0  0  0  0  0  2  0  0  0  0  0  0
   37.2720   21.7020   35.9760 C   0  0  0  0  0  2  0  0  0  0  0  0
   36.2720   21.1670   35.8760 H   0  0  0  0  0  0  0  0  0  0  0  0
  1  5  1  0  0  0  0
  2  1  2  0  0  0  0
  2  3  1  0  0  0  0
  3  4  2  0  0  0  0
  4  7  1  0  0  0  0
  5  4  1  0  0  0  0
  5 17  1  0  0  0  0
  6  2  1  0  0  0  0
  8  1  1  0  0  0  0
  9  8  1  0  0  0  0
  9 14  1  0  0  0  0
 10  9  2  0  0  0  0
 11 12  2  0  0  0  0
 11 10  1  0  0  0  0
 12 13  1  0  0  0  0
 13  8  2  0  0  0  0
 15 10  1  0  0  0  0
 16 12  1  0  0  0  0
 17 18  1  0  0  0  0
 17 20  1  1  0  0  0
 17 19  1  0  0  0  0
 18 19  1  0  0  0  0
 18 21  1  0  0  0  0
 19 27  1  6  0  0  0
 19 23  1  0  0  0  0
 22 18  1  0  0  0  0
 23 25  1  0  0  0  0
 23 24  1  0  0  0  0
 23 26  1  0  0  0  0
 28 27  1  0  0  0  0
 29 28  1  0  0  0  0
M  END
>  <minimizedAffinity>
-4.17742205

>  <minimizedRMSD>
1.56144547

$$$$
