
 OpenBabel03262519563D

 26 28  0  0  1  0  0  0  0  0999 V2000
   37.8530   23.6340   33.9790 C   0  0  0  0  0  0  0  0  0  0  0  0
   37.8880   24.8900   33.3860 C   0  0  0  0  0  0  0  0  0  0  0  0
   37.2420   24.7040   32.2020 N   0  0  0  0  0  0  0  0  0  0  0  0
   36.8690   23.4310   32.1360 C   0  0  0  0  0  0  0  0  0  0  0  0
   37.2360   22.7320   33.2330 N   0  0  0  0  0  0  0  0  0  0  0  0
   38.3480   25.7900   33.8180 H   0  0  0  0  0  0  0  0  0  0  0  0
   36.3260   23.0260   31.2730 H   0  0  0  0  0  0  0  0  0  0  0  0
   38.4310   23.3220   35.2880 C   0  0  0  0  0  0  0  0  0  0  0  0
   39.6280   22.6100   35.3720 C   0  0  0  0  0  0  0  0  0  0  0  0
   40.1440   22.3330   36.6570 C   0  0  0  0  0  0  0  0  0  0  0  0
   39.4630   22.7650   37.7250 N   0  0  0  0  0  0  0  0  0  0  0  0
   38.2930   23.4600   37.6140 C   0  0  0  0  0  0  0  0  0  0  0  0
   37.7680   23.7440   36.4010 N   0  0  0  0  0  0  0  0  0  0  0  0
   40.1520   22.2760   34.5080 H   0  0  0  0  0  0  0  0  0  0  0  0
   41.0720   21.7810   36.7460 H   0  0  0  0  0  0  0  0  0  0  0  0
   37.7640   23.7960   38.4980 H   0  0  0  0  0  0  0  0  0  0  0  0
   36.9590   21.3430   33.4180 C   0  0  1  0  0  0  0  0  0  0  0  0
   35.9520   20.8600   34.3600 C   0  0  0  0  0  0  0  0  0  0  0  0
   35.5690   20.9370   32.9100 C   0  0  2  0  0  0  0  0  0  0  0  0
   37.7760   20.6580   33.0940 H   0  0  0  0  0  0  0  0  0  0  0  0
   36.0400   19.8910   34.8890 H   0  0  0  0  0  0  0  0  0  0  0  0
   35.5320   21.6340   35.0360 H   0  0  0  0  0  0  0  0  0  0  0  0
   34.8430   21.7450   32.6500 H   0  0  0  0  0  0  0  0  0  0  0  0
   35.4830   19.7460   32.0240 C   0  0  0  0  0  2  0  0  0  0  0  0
   35.2240   18.4510   32.7330 C   0  0  0  0  0  2  0  0  0  0  0  0
   35.7890   17.6090   32.2410 H   0  0  0  0  0  0  0  0  0  0  0  0
  1  8  1  0  0  0  0
  2  6  1  0  0  0  0
  2  1  2  0  0  0  0
  3  2  1  0  0  0  0
  4  3  2  0  0  0  0
  4  5  1  0  0  0  0
  5 17  1  0  0  0  0
  5  1  1  0  0  0  0
  7  4  1  0  0  0  0
  8  9  2  0  0  0  0
  8 13  1  0  0  0  0
  9 10  1  0  0  0  0
 10 15  1  0  0  0  0
 10 11  2  0  0  0  0
 12 11  1  0  0  0  0
 12 16  1  0  0  0  0
 13 12  2  0  0  0  0
 14  9  1  0  0  0  0
 17 20  1  6  0  0  0
 17 18  1  0  0  0  0
 18 21  1  0  0  0  0
 18 22  1  0  0  0  0
 19 23  1  6  0  0  0
 19 17  1  0  0  0  0
 19 18  1  0  0  0  0
 24 25  1  0  0  0  0
 24 19  1  0  0  0  0
 26 25  1  0  0  0  0
M  END
>  <minimizedAffinity>
-4.17637253

>  <minimizedRMSD>
0.974850476

$$$$
