
 OpenBabel03262519593D

 29 31  0  0  1  0  0  0  0  0999 V2000
   37.7020   23.5830   33.0130 C   0  0  0  0  0  0  0  0  0  0  0  0
   36.7220   22.8070   32.3960 C   0  0  0  0  0  0  0  0  0  0  0  0
   36.9000   21.5680   32.9430 N   0  0  0  0  0  0  0  0  0  0  0  0
   37.9120   21.6470   33.8070 C   0  0  0  0  0  0  0  0  0  0  0  0
   38.4210   22.8730   33.8690 N   0  0  0  0  0  0  0  0  0  0  0  0
   35.9910   23.1160   31.6570 H   0  0  0  0  0  0  0  0  0  0  0  0
   38.2260   20.7650   34.3600 H   0  0  0  0  0  0  0  0  0  0  0  0
   37.9180   24.9950   32.7460 C   0  0  0  0  0  0  0  0  0  0  0  0
   38.9340   25.3890   31.8510 C   0  0  0  0  0  0  0  0  0  0  0  0
   39.1060   26.7720   31.6210 C   0  0  0  0  0  0  0  0  0  0  0  0
   38.2810   27.6320   32.2780 N   0  0  0  0  0  0  0  0  0  0  0  0
   37.3150   27.2070   33.1320 C   0  0  0  0  0  0  0  0  0  0  0  0
   37.1350   25.9040   33.3640 N   0  0  0  0  0  0  0  0  0  0  0  0
   39.5600   24.6780   31.3550 H   0  0  0  0  0  0  0  0  0  0  0  0
   39.8740   27.1370   30.9400 H   0  0  0  0  0  0  0  0  0  0  0  0
   36.6560   27.8780   33.6590 H   0  0  0  0  0  0  0  0  0  0  0  0
   39.5050   23.2220   34.7110 C   0  0  1  0  0  0  0  0  0  0  0  0
   39.7210   24.4980   35.3400 C   0  0  0  0  0  0  0  0  0  0  0  0
   39.1450   23.3140   36.1720 C   0  0  2  0  0  0  0  0  0  0  0  0
   40.4290   22.5850   34.4820 H   0  0  0  0  0  0  0  0  0  0  0  0
   40.7750   24.7890   35.5710 H   0  0  0  0  0  0  0  0  0  0  0  0
   39.0970   25.3940   35.1770 H   0  0  0  0  0  0  0  0  0  0  0  0
   40.1780   22.8000   37.1560 C   0  0  0  0  0  0  0  0  0  0  0  0
   40.3380   21.4390   37.0120 F   0  0  0  0  0  0  0  0  0  0  0  0
   41.4800   23.3340   36.7720 F   0  0  0  0  0  0  0  0  0  0  0  0
   39.9920   23.2080   38.4210 F   0  0  0  0  0  0  0  0  0  0  0  0
   37.8330   23.8220   36.7190 C   0  0  0  0  0  2  0  0  0  0  0  0
   37.0200   22.6510   37.2140 C   0  0  0  0  0  2  0  0  0  0  0  0
   36.2840   23.0490   37.9870 H   0  0  0  0  0  0  0  0  0  0  0  0
  1  5  1  0  0  0  0
  2  3  1  0  0  0  0
  2  1  2  0  0  0  0
  3  4  2  0  0  0  0
  4  5  1  0  0  0  0
  4  7  1  0  0  0  0
  5 17  1  0  0  0  0
  6  2  1  0  0  0  0
  8  1  1  0  0  0  0
  8 13  1  0  0  0  0
  9  8  2  0  0  0  0
 10  9  1  0  0  0  0
 10 11  2  0  0  0  0
 11 12  1  0  0  0  0
 12 13  2  0  0  0  0
 12 16  1  0  0  0  0
 14  9  1  0  0  0  0
 15 10  1  0  0  0  0
 17 20  1  6  0  0  0
 17 18  1  0  0  0  0
 17 19  1  0  0  0  0
 18 21  1  0  0  0  0
 18 19  1  0  0  0  0
 19 27  1  1  0  0  0
 19 23  1  0  0  0  0
 22 18  1  0  0  0  0
 23 26  1  0  0  0  0
 24 23  1  0  0  0  0
 25 23  1  0  0  0  0
 27 28  1  0  0  0  0
 28 29  1  0  0  0  0
M  END
>  <minimizedAffinity>
-4.25538969

>  <minimizedRMSD>
1.77347147

$$$$
