
 OpenBabel03262519593D

 30 32  0  0  1  0  0  0  0  0999 V2000
   38.2280   23.6350   33.4410 C   0  0  0  0  0  0  0  0  0  0  0  0
   37.3370   22.6810   32.9510 C   0  0  0  0  0  0  0  0  0  0  0  0
   38.0430   21.5140   33.0230 N   0  0  0  0  0  0  0  0  0  0  0  0
   39.2420   21.7960   33.5190 C   0  0  0  0  0  0  0  0  0  0  0  0
   39.3840   23.0900   33.7850 N   0  0  0  0  0  0  0  0  0  0  0  0
   36.3380   22.9100   32.6140 H   0  0  0  0  0  0  0  0  0  0  0  0
   39.8840   20.9250   33.6160 H   0  0  0  0  0  0  0  0  0  0  0  0
   37.9360   25.0550   33.5520 C   0  0  0  0  0  0  0  0  0  0  0  0
   38.2340   25.9130   32.4710 C   0  0  0  0  0  0  0  0  0  0  0  0
   37.9300   27.2840   32.6140 C   0  0  0  0  0  0  0  0  0  0  0  0
   37.3710   27.6830   33.7880 N   0  0  0  0  0  0  0  0  0  0  0  0
   37.1040   26.8270   34.8000 C   0  0  0  0  0  0  0  0  0  0  0  0
   37.3830   25.5190   34.6860 N   0  0  0  0  0  0  0  0  0  0  0  0
   38.6790   25.4990   31.5770 H   0  0  0  0  0  0  0  0  0  0  0  0
   38.1490   27.9540   31.8000 H   0  0  0  0  0  0  0  0  0  0  0  0
   36.6600   27.3000   35.6650 H   0  0  0  0  0  0  0  0  0  0  0  0
   40.5700   23.6430   34.3250 C   0  0  1  0  0  0  0  0  0  0  0  0
   40.6630   24.6920   35.3000 C   0  0  0  0  0  0  0  0  0  0  0  0
   40.8910   23.2100   35.7170 C   0  0  0  0  0  0  0  0  0  0  0  0
   41.4430   23.5710   33.5840 H   0  0  0  0  0  0  0  0  0  0  0  0
   39.7650   25.1440   35.7220 H   0  0  0  0  0  0  0  0  0  0  0  0
   41.5430   25.3610   35.3620 H   0  0  0  0  0  0  0  0  0  0  0  0
   42.3500   22.9590   36.0400 C   0  0  0  0  0  0  0  0  0  0  0  0
   42.5060   21.7060   36.6010 F   0  0  0  0  0  0  0  0  0  0  0  0
   43.0840   22.8600   34.7840 F   0  0  0  0  0  0  0  0  0  0  0  0
   42.9340   23.9480   36.7340 F   0  0  0  0  0  0  0  0  0  0  0  0
   39.9450   22.9030   36.8510 C   0  0  0  0  0  0  0  0  0  0  0  0
   38.9980   23.9030   36.9140 F   0  0  0  0  0  0  0  0  0  0  0  0
   40.6870   23.0160   38.0170 F   0  0  0  0  0  0  0  0  0  0  0  0
   39.2880   21.7260   36.7530 F   0  0  0  0  0  0  0  0  0  0  0  0
  1  8  1  0  0  0  0
  1  5  1  0  0  0  0
  2  3  1  0  0  0  0
  2  1  2  0  0  0  0
  3  4  2  0  0  0  0
  4  7  1  0  0  0  0
  4  5  1  0  0  0  0
  5 17  1  0  0  0  0
  6  2  1  0  0  0  0
  8 13  1  0  0  0  0
  9 10  1  0  0  0  0
  9  8  2  0  0  0  0
 10 11  2  0  0  0  0
 11 12  1  0  0  0  0
 12 16  1  0  0  0  0
 13 12  2  0  0  0  0
 14  9  1  0  0  0  0
 15 10  1  0  0  0  0
 17 20  1  6  0  0  0
 17 18  1  0  0  0  0
 17 19  1  0  0  0  0
 18 22  1  0  0  0  0
 18 19  1  0  0  0  0
 18 21  1  0  0  0  0
 19 23  1  0  0  0  0
 19 27  1  0  0  0  0
 23 24  1  0  0  0  0
 23 26  1  0  0  0  0
 25 23  1  0  0  0  0
 27 28  1  0  0  0  0
 27 29  1  0  0  0  0
 30 27  1  0  0  0  0
M  END
>  <minimizedAffinity>
-4.19277191

>  <minimizedRMSD>
3.29515004

$$$$
