
 OpenBabel03262519523D

 29 30  0  0  1  0  0  0  0  0999 V2000
   40.4130   23.4730   34.4400 C   0  0  0  0  0  0  0  0  0  0  0  0
   40.8040   23.5590   33.3560 H   0  0  0  0  0  0  0  0  0  0  0  0
   39.9740   22.5150   34.3860 H   0  0  0  0  0  0  0  0  0  0  0  0
   43.1290   23.3370   36.7700 C   0  0  0  0  0  0  0  0  0  0  0  0
   41.9270   22.9140   36.1290 C   0  0  0  0  0  0  0  0  0  0  0  0
   41.5760   23.7850   35.1770 C   0  0  0  0  0  0  0  0  0  0  0  0
   42.3160   24.9310   34.8890 N   0  0  0  0  0  0  0  0  0  0  0  0
   43.4200   25.2540   35.5280 C   0  0  0  0  0  0  0  0  0  0  0  0
   43.8240   24.4420   36.4770 N   0  0  0  0  0  0  0  0  0  0  0  0
   43.5900   22.7520   37.5890 H   0  0  0  0  0  0  0  0  0  0  0  0
   43.8970   26.1640   35.2110 H   0  0  0  0  0  0  0  0  0  0  0  0
   41.3730   21.6990   36.6110 C   0  0  0  0  0  0  0  0  0  0  0  0
   41.4330   21.6070   38.0230 F   0  0  0  0  0  0  0  0  0  0  0  0
   42.0300   20.5270   36.5000 F   0  0  0  0  0  0  0  0  0  0  0  0
   39.9910   21.5600   36.6300 F   0  0  0  0  0  0  0  0  0  0  0  0
   39.3970   24.5100   34.4740 C   0  0  0  0  0  0  0  0  0  0  0  0
   39.9160   25.4910   34.6930 H   0  0  0  0  0  0  0  0  0  0  0  0
   38.8270   24.7220   33.5530 H   0  0  0  0  0  0  0  0  0  0  0  0
   38.5010   24.2670   35.6910 C   0  0  2  0  0  0  0  0  0  0  0  0
   37.5990   25.3950   36.0320 C   0  0  0  0  0  0  0  0  0  0  0  0
   38.6720   24.9060   36.9640 C   0  0  1  0  0  0  0  0  0  0  0  0
   38.0030   23.2940   35.6070 H   0  0  0  0  0  0  0  0  0  0  0  0
   36.5360   25.1460   36.3410 H   0  0  0  0  0  0  0  0  0  0  0  0
   37.6260   26.2610   35.4090 H   0  0  0  0  0  0  0  0  0  0  0  0
   39.1510   25.6950   37.4000 H   0  0  0  0  0  0  0  0  0  0  0  0
   38.1750   24.0010   38.1150 C   0  0  0  0  0  0  0  0  0  0  0  0
   39.2500   23.4230   38.7580 F   0  0  0  0  0  0  0  0  0  0  0  0
   37.4260   24.7400   39.0000 F   0  0  0  0  0  0  0  0  0  0  0  0
   37.4450   22.9790   37.5570 F   0  0  0  0  0  0  0  0  0  0  0  0
  1 16  1  0  0  0  0
  1  6  1  0  0  0  0
  2  1  1  0  0  0  0
  3  1  1  0  0  0  0
  4 10  1  0  0  0  0
  5 12  1  0  0  0  0
  5  4  2  0  0  0  0
  6  5  1  0  0  0  0
  7  6  2  0  0  0  0
  7  8  1  0  0  0  0
  8  9  2  0  0  0  0
  9  4  1  0  0  0  0
 11  8  1  0  0  0  0
 12 15  1  0  0  0  0
 12 13  1  0  0  0  0
 14 12  1  0  0  0  0
 16 17  1  0  0  0  0
 16 19  1  0  0  0  0
 18 16  1  0  0  0  0
 19 22  1  1  0  0  0
 19 20  1  0  0  0  0
 19 21  1  0  0  0  0
 20 23  1  0  0  0  0
 20 21  1  0  0  0  0
 21 25  1  1  0  0  0
 21 26  1  0  0  0  0
 24 20  1  0  0  0  0
 26 27  1  0  0  0  0
 26 28  1  0  0  0  0
 29 26  1  0  0  0  0
M  END
>  <minimizedAffinity>
-4.33875084

>  <minimizedRMSD>
1.87923157

$$$$
