
 OpenBabel03262519333D

 17 18  0  0  0  0  0  0  0  0999 V2000
   40.6740   22.1880   37.6480 C   0  0  0  0  0  0  0  0  0  0  0  0
   39.5350   22.9940   37.7780 C   0  0  0  0  0  0  0  0  0  0  0  0
   38.8460   23.3720   36.6050 C   0  0  0  0  0  0  0  0  0  0  0  0
   39.3380   22.9230   35.4210 N   0  0  0  0  0  0  0  0  0  0  0  0
   40.4280   22.1550   35.3280 C   0  0  0  0  0  0  0  0  0  0  0  0
   41.0890   21.7910   36.4440 N   0  0  0  0  0  0  0  0  0  0  0  0
   41.2070   21.8960   38.5530 H   0  0  0  0  0  0  0  0  0  0  0  0
   39.1810   23.3290   38.7590 H   0  0  0  0  0  0  0  0  0  0  0  0
   40.6970   21.8760   34.3070 H   0  0  0  0  0  0  0  0  0  0  0  0
   37.6170   24.2370   36.6990 C   0  0  0  0  0  0  0  0  0  0  0  0
   36.7010   23.6940   36.4010 H   0  0  0  0  0  0  0  0  0  0  0  0
   37.5670   24.5580   37.7800 H   0  0  0  0  0  0  0  0  0  0  0  0
   37.7770   25.4570   35.9470 N   0  0  0  0  0  0  0  0  0  0  0  0
   38.4020   26.5250   36.5180 C   0  0  0  0  0  0  0  0  0  0  0  0
   38.4160   27.5500   35.5810 C   0  0  0  0  0  0  0  0  0  0  0  0
   37.8060   27.1010   34.4550 N   0  0  0  0  0  0  0  0  0  0  0  0
   37.4340   25.8470   34.7050 C   0  0  0  0  0  0  0  0  0  0  0  0
  1  2  1  0  0  0  0
  1  7  1  0  0  0  0
  2  8  1  0  0  0  0
  3 10  1  0  0  0  0
  3  2  2  0  0  0  0
  4  3  1  0  0  0  0
  5  4  2  0  0  0  0
  5  6  1  0  0  0  0
  6  1  2  0  0  0  0
  9  5  1  0  0  0  0
 10 12  1  0  0  0  0
 11 10  1  0  0  0  0
 13 14  1  0  0  0  0
 13 10  1  0  0  0  0
 15 14  2  0  0  0  0
 16 17  2  0  0  0  0
 16 15  1  0  0  0  0
 17 13  1  0  0  0  0
M  END
>  <minimizedAffinity>
-3.23616791

>  <minimizedRMSD>
2.17281938

$$$$
