
 OpenBabel03262517123D

 38 42  0  0  1  0  0  0  0  0999 V2000
   38.1180   26.3290   32.7680 N   0  0  0  0  0  0  0  0  0  0  0  0
   39.0310   27.1370   32.1720 C   0  0  0  0  0  0  0  0  0  0  0  0
   40.3590   27.1580   32.4510 C   0  0  0  0  0  0  0  0  0  0  0  0
   40.8480   26.2910   33.4250 C   0  0  0  0  0  0  0  0  0  0  0  0
   42.0690   26.2620   33.7290 O   0  0  0  0  0  0  0  0  0  0  0  0
   40.0000   25.4510   34.0690 N   0  0  0  0  0  0  0  0  0  0  0  0
   38.6990   25.5140   33.7110 C   0  0  0  0  0  0  0  0  0  0  0  0
   37.9080   24.7180   34.3240 O   0  0  0  0  0  0  0  0  0  0  0  0
   38.6700   27.8290   31.4300 H   0  0  0  0  0  0  0  0  0  0  0  0
   41.0360   27.8250   31.9400 H   0  0  0  0  0  0  0  0  0  0  0  0
   40.4090   24.5330   35.0780 C   0  0  0  0  0  0  0  0  0  0  0  0
   41.6650   24.0050   34.9760 N   0  0  0  0  0  0  0  0  0  0  0  0
   42.1520   23.1400   35.8580 C   0  0  0  0  0  0  0  0  0  0  0  0
   41.4060   22.7410   36.9140 N   0  0  0  0  0  0  0  0  0  0  0  0
   40.1460   23.2310   37.0700 C   0  0  0  0  0  0  0  0  0  0  0  0
   39.3240   22.8710   38.1210 C   0  0  0  0  0  0  0  0  0  0  0  0
   38.0530   23.3900   38.2480 C   0  0  0  0  0  0  0  0  0  0  0  0
   37.4670   23.0650   39.0900 H   0  0  0  0  0  0  0  0  0  0  0  0
   37.5630   24.2890   37.3200 C   0  0  0  0  0  0  0  0  0  0  0  0
   36.5630   24.6730   37.4480 H   0  0  0  0  0  0  0  0  0  0  0  0
   38.3780   24.6580   36.2600 C   0  0  0  0  0  0  0  0  0  0  0  0
   39.6340   24.1430   36.1410 C   0  0  0  0  0  0  0  0  0  0  0  0
   35.9000   27.0490   31.6240 C   0  0  1  0  0  0  0  0  0  0  0  0
   36.3570   25.6920   31.1900 C   0  0  0  0  0  0  0  0  0  0  0  0
   36.7220   26.2390   32.5300 C   0  0  1  0  0  0  0  0  0  0  0  0
   34.8450   27.1380   31.9190 H   0  0  0  0  0  0  0  0  0  0  0  0
   37.1030   25.7230   30.3580 H   0  0  0  0  0  0  0  0  0  0  0  0
   35.6400   24.8630   31.0750 H   0  0  0  0  0  0  0  0  0  0  0  0
   36.1970   25.7020   33.3590 H   0  0  0  0  0  0  0  0  0  0  0  0
   36.3860   28.2610   30.9150 C   0  0  0  0  0  0  0  0  0  0  0  0
   36.2180   29.4720   31.5850 C   0  0  0  0  0  0  0  0  0  0  0  0
   36.6470   30.6420   30.9700 C   0  0  0  0  0  0  0  0  0  0  0  0
   37.2150   30.5280   29.7260 N   0  0  0  0  0  0  0  0  0  0  0  0
   37.3520   29.3320   29.1230 C   0  0  0  0  0  0  0  0  0  0  0  0
   36.9460   28.1990   29.6970 N   0  0  0  0  0  0  0  0  0  0  0  0
   35.7740   29.5890   32.5650 H   0  0  0  0  0  0  0  0  0  0  0  0
   36.5600   31.6180   31.4080 H   0  0  0  0  0  0  0  0  0  0  0  0
   37.8070   29.2640   28.1320 H   0  0  0  0  0  0  0  0  0  0  0  0
  1  7  1  0  0  0  0
  2  3  2  0  0  0  0
  2  1  1  0  0  0  0
  3  4  1  0  0  0  0
  4  5  2  0  0  0  0
  4  6  1  0  0  0  0
  6 11  1  0  0  0  0
  7  6  1  0  0  0  0
  7  8  2  0  0  0  0
  9  2  1  0  0  0  0
 10  3  1  0  0  0  0
 11 22  1  0  0  0  0
 12 11  2  0  0  0  0
 12 13  1  0  0  0  0
 13 14  2  0  0  0  0
 14 15  1  0  0  0  0
 15 16  1  0  0  0  0
 16 17  2  0  0  0  0
 17 18  1  0  0  0  0
 19 20  1  0  0  0  0
 19 17  1  0  0  0  0
 21 19  2  0  0  0  0
 22 21  1  0  0  0  0
 22 15  2  0  0  0  0
 23 26  1  1  0  0  0
 23 25  1  0  0  0  0
 24 23  1  0  0  0  0
 24 25  1  0  0  0  0
 25  1  1  0  0  0  0
 25 29  1  1  0  0  0
 27 24  1  0  0  0  0
 28 24  1  0  0  0  0
 30 31  1  0  0  0  0
 30 23  1  0  0  0  0
 31 36  1  0  0  0  0
 32 37  1  0  0  0  0
 32 31  2  0  0  0  0
 33 32  1  0  0  0  0
 34 35  1  0  0  0  0
 34 33  2  0  0  0  0
 35 30  2  0  0  0  0
 38 34  1  0  0  0  0
M  END
>  <minimizedAffinity>
-6.14480972

>  <minimizedRMSD>
7.62679148

$$$$
