
 OpenBabel03262518213D

 20 20  0  0  0  0  0  0  0  0999 V2000
   39.9080   23.0660   37.1870 C   0  0  0  0  0  0  0  0  0  0  0  0
   39.4750   23.8420   36.1040 C   0  0  0  0  0  0  0  0  0  0  0  0
   38.3350   24.6390   36.2730 C   0  0  0  0  0  0  0  0  0  0  0  0
   37.7260   24.6080   37.4740 N   0  0  0  0  0  0  0  0  0  0  0  0
   38.1590   23.8530   38.5080 C   0  0  0  0  0  0  0  0  0  0  0  0
   39.2520   23.0810   38.3630 N   0  0  0  0  0  0  0  0  0  0  0  0
   39.9770   23.8440   35.1710 H   0  0  0  0  0  0  0  0  0  0  0  0
   37.6170   23.8840   39.4350 H   0  0  0  0  0  0  0  0  0  0  0  0
   37.8380   25.4510   35.2180 N   0  0  0  0  0  0  0  0  0  0  0  0
   38.2250   26.8130   35.1530 C   0  0  0  0  0  0  0  0  0  0  0  0
   38.6650   27.4560   36.1910 N   0  0  0  0  0  0  0  0  0  0  0  0
   38.1030   27.4440   33.8760 N   0  0  0  0  0  0  0  0  0  0  0  0
   38.9370   28.4540   36.2000 H   0  0  0  0  0  0  0  0  0  0  0  0
   37.2030   25.0630   34.5020 H   0  0  0  0  0  0  0  0  0  0  0  0
   37.1740   27.3350   33.4020 H   0  0  0  0  0  0  0  0  0  0  0  0
   38.8890   27.9880   33.4220 H   0  0  0  0  0  0  0  0  0  0  0  0
   41.1310   22.2390   36.9380 C   0  0  0  0  0  0  0  0  0  0  0  0
   41.0240   21.5810   35.7250 F   0  0  0  0  0  0  0  0  0  0  0  0
   41.3170   21.3310   37.9840 F   0  0  0  0  0  0  0  0  0  0  0  0
   42.2030   23.1020   36.9670 F   0  0  0  0  0  0  0  0  0  0  0  0
  1  6  1  0  0  0  0
  2  3  1  0  0  0  0
  2  1  2  0  0  0  0
  3  4  2  0  0  0  0
  4  5  1  0  0  0  0
  5  8  1  0  0  0  0
  6  5  2  0  0  0  0
  7  2  1  0  0  0  0
  9  3  1  0  0  0  0
 10  9  1  0  0  0  0
 10 11  2  0  0  0  0
 11 13  1  0  0  0  0
 12 10  1  0  0  0  0
 14  9  1  0  0  0  0
 15 12  1  0  0  0  0
 16 12  1  0  0  0  0
 17 20  1  0  0  0  0
 17  1  1  0  0  0  0
 17 19  1  0  0  0  0
 18 17  1  0  0  0  0
M  END
>  <minimizedAffinity>
-4.42479801

>  <minimizedRMSD>
0.899894476

$$$$
