
 OpenBabel03262519593D

 30 32  0  0  1  0  0  0  0  0999 V2000
   38.4420   23.6230   33.6940 C   0  0  0  0  0  0  0  0  0  0  0  0
   37.6040   22.5190   33.5400 C   0  0  0  0  0  0  0  0  0  0  0  0
   38.4710   21.4680   33.4490 N   0  0  0  0  0  0  0  0  0  0  0  0
   39.7040   21.9490   33.5470 C   0  0  0  0  0  0  0  0  0  0  0  0
   39.7180   23.2690   33.6990 N   0  0  0  0  0  0  0  0  0  0  0  0
   36.5280   22.5820   33.5100 H   0  0  0  0  0  0  0  0  0  0  0  0
   40.4720   21.1830   33.4860 H   0  0  0  0  0  0  0  0  0  0  0  0
   37.9810   24.9960   33.8230 C   0  0  0  0  0  0  0  0  0  0  0  0
   37.8230   25.7870   32.6660 C   0  0  0  0  0  0  0  0  0  0  0  0
   37.3680   27.1130   32.8300 C   0  0  0  0  0  0  0  0  0  0  0  0
   37.1130   27.5360   34.0980 N   0  0  0  0  0  0  0  0  0  0  0  0
   37.2800   26.7440   35.1810 C   0  0  0  0  0  0  0  0  0  0  0  0
   37.7110   25.4790   35.0480 N   0  0  0  0  0  0  0  0  0  0  0  0
   38.0510   25.3610   31.6990 H   0  0  0  0  0  0  0  0  0  0  0  0
   37.2390   27.7330   31.9590 H   0  0  0  0  0  0  0  0  0  0  0  0
   37.0360   27.2270   36.1170 H   0  0  0  0  0  0  0  0  0  0  0  0
   40.9100   24.0210   33.8300 C   0  0  1  0  0  0  0  0  0  0  0  0
   41.1900   25.0240   34.8170 C   0  0  0  0  0  0  0  0  0  0  0  0
   41.8010   23.5990   34.9510 C   0  0  0  0  0  0  0  0  0  0  0  0
   41.4370   24.1540   32.8200 H   0  0  0  0  0  0  0  0  0  0  0  0
   40.4560   25.2730   35.5850 H   0  0  0  0  0  0  0  0  0  0  0  0
   41.9030   25.8500   34.6310 H   0  0  0  0  0  0  0  0  0  0  0  0
   43.2930   23.6260   34.6910 C   0  0  0  0  0  0  0  0  0  0  0  0
   43.8480   22.3920   34.9680 F   0  0  0  0  0  0  0  0  0  0  0  0
   43.5030   23.7770   33.2560 F   0  0  0  0  0  0  0  0  0  0  0  0
   43.9300   24.6560   35.2690 F   0  0  0  0  0  0  0  0  0  0  0  0
   41.4190   23.0640   36.3090 C   0  0  0  0  0  0  0  0  0  0  0  0
   41.2870   21.6960   36.2210 F   0  0  0  0  0  0  0  0  0  0  0  0
   40.1440   23.5470   36.5710 F   0  0  0  0  0  0  0  0  0  0  0  0
   42.2980   23.3250   37.3000 F   0  0  0  0  0  0  0  0  0  0  0  0
  1  5  1  0  0  0  0
  1  8  1  0  0  0  0
  2  1  2  0  0  0  0
  3  2  1  0  0  0  0
  3  4  2  0  0  0  0
  4  5  1  0  0  0  0
  5 17  1  0  0  0  0
  6  2  1  0  0  0  0
  7  4  1  0  0  0  0
  8 13  1  0  0  0  0
  9 10  1  0  0  0  0
  9  8  2  0  0  0  0
 10 11  2  0  0  0  0
 11 12  1  0  0  0  0
 12 16  1  0  0  0  0
 13 12  2  0  0  0  0
 14  9  1  0  0  0  0
 15 10  1  0  0  0  0
 17 20  1  6  0  0  0
 17 18  1  0  0  0  0
 17 19  1  0  0  0  0
 18 19  1  0  0  0  0
 18 21  1  0  0  0  0
 19 27  1  0  0  0  0
 22 18  1  0  0  0  0
 23 19  1  0  0  0  0
 23 24  1  0  0  0  0
 23 26  1  0  0  0  0
 25 23  1  0  0  0  0
 27 29  1  0  0  0  0
 27 30  1  0  0  0  0
 28 27  1  0  0  0  0
M  END
>  <minimizedAffinity>
-3.65837765

>  <minimizedRMSD>
4.26777506

$$$$
