
 OpenBabel03262519443D

 29 30  0  0  1  0  0  0  0  0999 V2000
   37.9650   23.7840   32.9840 C   0  0  1  0  0  0  0  0  0  0  0  0
   37.3410   23.0610   33.5630 H   0  0  0  0  0  0  0  0  0  0  0  0
   36.2790   26.9010   31.6660 C   0  0  0  0  0  0  0  0  0  0  0  0
   37.2210   26.1020   32.3240 C   0  0  0  0  0  0  0  0  0  0  0  0
   37.0190   24.6850   32.2970 C   0  0  0  0  0  0  0  0  0  0  0  0
   35.9240   24.2020   31.6340 N   0  0  0  0  0  0  0  0  0  0  0  0
   35.0510   24.9880   31.0210 C   0  0  0  0  0  0  0  0  0  0  0  0
   35.2300   26.3510   31.0360 N   0  0  0  0  0  0  0  0  0  0  0  0
   36.4430   27.9700   31.6930 H   0  0  0  0  0  0  0  0  0  0  0  0
   38.0910   26.4830   32.8520 H   0  0  0  0  0  0  0  0  0  0  0  0
   34.1930   24.5530   30.5050 H   0  0  0  0  0  0  0  0  0  0  0  0
   38.8340   23.0330   32.0100 C   0  0  0  0  0  0  0  0  0  0  0  0
   39.2880   22.1830   32.5730 H   0  0  0  0  0  0  0  0  0  0  0  0
   39.6670   23.6350   31.6340 H   0  0  0  0  0  0  0  0  0  0  0  0
   38.2020   22.5650   31.2260 H   0  0  0  0  0  0  0  0  0  0  0  0
   38.8060   24.5100   33.9930 C   0  0  0  0  0  0  0  0  0  0  0  0
   39.8430   24.3630   33.7620 H   0  0  0  0  0  0  0  0  0  0  0  0
   38.6050   25.6020   33.8520 H   0  0  0  0  0  0  0  0  0  0  0  0
   38.4760   24.2020   35.3240 N   0  0  0  0  0  0  0  0  0  0  0  0
   38.2960   23.0470   36.0010 C   0  0  0  0  0  0  0  0  0  0  0  0
   37.9680   23.2100   37.3290 C   0  0  0  0  0  0  0  0  0  0  0  0
   37.9420   24.5260   37.4890 N   0  0  0  0  0  0  0  0  0  0  0  0
   38.2480   25.1290   36.2870 C   0  0  0  0  0  0  0  0  0  0  0  0
   38.3980   22.0630   35.5530 H   0  0  0  0  0  0  0  0  0  0  0  0
   37.7830   22.4420   38.0390 H   0  0  0  0  0  0  0  0  0  0  0  0
   38.3140   26.6140   36.0850 C   0  0  0  0  0  0  0  0  0  0  0  0
   38.2780   27.2410   37.3170 F   0  0  0  0  0  0  0  0  0  0  0  0
   37.2360   26.9970   35.3470 F   0  0  0  0  0  0  0  0  0  0  0  0
   39.5190   27.0120   35.5540 F   0  0  0  0  0  0  0  0  0  0  0  0
  1  2  1  1  0  0  0
  1 16  1  0  0  0  0
  3  9  1  0  0  0  0
  3  4  1  0  0  0  0
  4 10  1  0  0  0  0
  5  4  2  0  0  0  0
  5  1  1  0  0  0  0
  6  5  1  0  0  0  0
  7  8  1  0  0  0  0
  7  6  2  0  0  0  0
  8  3  2  0  0  0  0
 11  7  1  0  0  0  0
 12 13  1  0  0  0  0
 12  1  1  0  0  0  0
 14 12  1  0  0  0  0
 15 12  1  0  0  0  0
 16 19  1  0  0  0  0
 17 16  1  0  0  0  0
 18 16  1  0  0  0  0
 19 20  1  0  0  0  0
 19 23  1  0  0  0  0
 20 21  2  0  0  0  0
 21 22  1  0  0  0  0
 21 25  1  0  0  0  0
 23 22  2  0  0  0  0
 24 20  1  0  0  0  0
 26 23  1  0  0  0  0
 26 27  1  0  0  0  0
 28 26  1  0  0  0  0
 29 26  1  0  0  0  0
M  END
>  <minimizedAffinity>
-4.39375496

>  <minimizedRMSD>
5.25358438

$$$$
