
 OpenBabel03262517093D

 42 44  0  0  0  0  0  0  0  0999 V2000
   38.5960   23.3210   35.0560 C   0  0  0  0  0  0  0  0  0  0  0  0
   38.3980   22.1080   34.4550 C   0  0  0  0  0  0  0  0  0  0  0  0
   38.3780   21.9620   33.0860 C   0  0  0  0  0  0  0  0  0  0  0  0
   38.5630   23.0630   32.2810 C   0  0  0  0  0  0  0  0  0  0  0  0
   38.7600   24.2700   32.9100 C   0  0  0  0  0  0  0  0  0  0  0  0
   38.7920   24.4880   34.3080 C   0  0  0  0  0  0  0  0  0  0  0  0
   38.2410   21.1740   34.9810 H   0  0  0  0  0  0  0  0  0  0  0  0
   38.2250   21.0210   32.5750 H   0  0  0  0  0  0  0  0  0  0  0  0
   38.5600   23.0270   31.2020 H   0  0  0  0  0  0  0  0  0  0  0  0
   38.9050   25.1380   32.2810 H   0  0  0  0  0  0  0  0  0  0  0  0
   39.5980   22.9760   37.3850 C   0  0  0  0  0  0  0  0  0  0  0  0
   38.5800   23.2660   36.5020 C   0  0  0  0  0  0  0  0  0  0  0  0
   37.5000   23.5050   37.2760 N   0  0  0  0  0  0  0  0  0  0  0  0
   37.8490   23.3660   38.5610 C   0  0  0  0  0  0  0  0  0  0  0  0
   39.1350   23.0390   38.6660 N   0  0  0  0  0  0  0  0  0  0  0  0
   37.2210   23.4870   39.4490 H   0  0  0  0  0  0  0  0  0  0  0  0
   39.7420   22.8550   39.4820 H   0  0  0  0  0  0  0  0  0  0  0  0
   42.6010   21.0580   36.3050 C   0  0  0  0  0  0  0  0  0  0  0  0
   41.2790   21.3330   36.6750 C   0  0  0  0  0  0  0  0  0  0  0  0
   40.9640   22.6500   36.9920 C   0  0  0  0  0  0  0  0  0  0  0  0
   41.9650   23.6070   36.9260 N   0  0  0  0  0  0  0  0  0  0  0  0
   43.2130   23.2860   36.5660 C   0  0  0  0  0  0  0  0  0  0  0  0
   43.5390   22.0320   36.2570 N   0  0  0  0  0  0  0  0  0  0  0  0
   42.8500   20.0410   36.0580 H   0  0  0  0  0  0  0  0  0  0  0  0
   40.5160   20.5630   36.7190 H   0  0  0  0  0  0  0  0  0  0  0  0
   44.2040   24.3970   36.5300 C   0  0  0  0  0  0  0  0  0  0  0  0
   44.2940   25.0360   37.7590 F   0  0  0  0  0  0  0  0  0  0  0  0
   43.8210   25.4010   35.6400 F   0  0  0  0  0  0  0  0  0  0  0  0
   45.4940   23.9450   36.2620 F   0  0  0  0  0  0  0  0  0  0  0  0
   39.0040   25.7660   34.9230 C   0  0  0  0  0  0  0  0  0  0  0  0
   38.5670   26.7760   33.8420 C   0  0  0  0  0  0  0  0  0  0  0  0
   39.3450   26.8610   33.0600 H   0  0  0  0  0  0  0  0  0  0  0  0
   37.5490   26.6070   33.4940 H   0  0  0  0  0  0  0  0  0  0  0  0
   38.5580   27.7870   34.3430 H   0  0  0  0  0  0  0  0  0  0  0  0
   38.3600   26.2020   36.1450 C   0  0  0  0  0  0  0  0  0  0  0  0
   37.3290   25.8260   36.3570 H   0  0  0  0  0  0  0  0  0  0  0  0
   39.0560   26.0430   37.0220 H   0  0  0  0  0  0  0  0  0  0  0  0
   38.2290   27.3180   36.1620 H   0  0  0  0  0  0  0  0  0  0  0  0
   40.5060   25.9780   35.0860 C   0  0  0  0  0  0  0  0  0  0  0  0
   40.6720   27.0890   35.0850 H   0  0  0  0  0  0  0  0  0  0  0  0
   40.8730   25.5490   36.0370 H   0  0  0  0  0  0  0  0  0  0  0  0
   40.9600   25.5520   34.1800 H   0  0  0  0  0  0  0  0  0  0  0  0
  1 12  1  0  0  0  0
  2  7  1  0  0  0  0
  2  1  1  0  0  0  0
  3  2  2  0  0  0  0
  4  5  2  0  0  0  0
  4  3  1  0  0  0  0
  5  6  1  0  0  0  0
  6 30  1  0  0  0  0
  6  1  2  0  0  0  0
  8  3  1  0  0  0  0
  9  4  1  0  0  0  0
 10  5  1  0  0  0  0
 11 15  1  0  0  0  0
 12 13  1  0  0  0  0
 12 11  2  0  0  0  0
 13 14  2  0  0  0  0
 14 15  1  0  0  0  0
 14 16  1  0  0  0  0
 15 17  1  0  0  0  0
 18 19  1  0  0  0  0
 19 25  1  0  0  0  0
 19 20  2  0  0  0  0
 20 11  1  0  0  0  0
 21 20  1  0  0  0  0
 22 21  2  0  0  0  0
 23 18  2  0  0  0  0
 23 22  1  0  0  0  0
 24 18  1  0  0  0  0
 26 22  1  0  0  0  0
 26 27  1  0  0  0  0
 28 26  1  0  0  0  0
 29 26  1  0  0  0  0
 30 39  1  0  0  0  0
 30 35  1  0  0  0  0
 31 34  1  0  0  0  0
 31 30  1  0  0  0  0
 32 31  1  0  0  0  0
 33 31  1  0  0  0  0
 35 38  1  0  0  0  0
 35 36  1  0  0  0  0
 35 37  1  0  0  0  0
 39 41  1  0  0  0  0
 40 39  1  0  0  0  0
 42 39  1  0  0  0  0
M  END
>  <minimizedAffinity>
-5.71634817

>  <minimizedRMSD>
2.424999

$$$$
