
 OpenBabel03262517503D

 19 20  0  0  0  0  0  0  0  0999 V2000
   37.3990   23.3630   37.0900 C   0  0  0  0  0  0  0  0  0  0  0  0
   38.4460   23.1130   36.1640 C   0  0  0  0  0  0  0  0  0  0  0  0
   39.7450   22.9440   36.6330 C   0  0  0  0  0  0  0  0  0  0  0  0
   39.9350   23.0330   37.9980 N   0  0  0  0  0  0  0  0  0  0  0  0
   38.9360   23.2690   38.8540 C   0  0  0  0  0  0  0  0  0  0  0  0
   37.6670   23.4340   38.4000 N   0  0  0  0  0  0  0  0  0  0  0  0
   36.3900   23.4960   36.7500 H   0  0  0  0  0  0  0  0  0  0  0  0
   39.2180   23.3130   39.8900 H   0  0  0  0  0  0  0  0  0  0  0  0
   38.0810   23.0370   34.8130 N   0  0  0  0  0  0  0  0  0  0  0  0
   38.0480   23.9370   33.8090 C   0  0  0  0  0  0  0  0  0  0  0  0
   37.6180   23.3680   32.6710 N   0  0  0  0  0  0  0  0  0  0  0  0
   37.3690   22.0560   32.9760 C   0  0  0  0  0  0  0  0  0  0  0  0
   37.6580   21.8660   34.2940 N   0  0  0  0  0  0  0  0  0  0  0  0
   38.2710   24.9600   33.7430 H   0  0  0  0  0  0  0  0  0  0  0  0
   37.0010   21.2750   32.2910 H   0  0  0  0  0  0  0  0  0  0  0  0
   40.9150   22.6990   35.7900 C   0  0  0  0  0  0  0  0  0  0  0  0
   42.0350   22.6150   36.6380 F   0  0  0  0  0  0  0  0  0  0  0  0
   40.8910   21.5970   35.0090 F   0  0  0  0  0  0  0  0  0  0  0  0
   41.2250   23.8240   34.9940 F   0  0  0  0  0  0  0  0  0  0  0  0
  1  6  1  0  0  0  0
  2  3  1  0  0  0  0
  2  1  2  0  0  0  0
  3  4  2  0  0  0  0
  4  5  1  0  0  0  0
  5  8  1  0  0  0  0
  6  5  2  0  0  0  0
  7  1  1  0  0  0  0
  9  2  1  0  0  0  0
 10  9  1  0  0  0  0
 11 12  1  0  0  0  0
 11 10  2  0  0  0  0
 12 13  2  0  0  0  0
 13  9  1  0  0  0  0
 14 10  1  0  0  0  0
 15 12  1  0  0  0  0
 16  3  1  0  0  0  0
 16 17  1  0  0  0  0
 18 16  1  0  0  0  0
 19 16  1  0  0  0  0
M  END
>  <minimizedAffinity>
-3.61775231

>  <minimizedRMSD>
1.60750628

$$$$
