
 OpenBabel03262518443D

 34 37  0  0  1  0  0  0  0  0999 V2000
   36.1980   23.7930   31.1180 C   0  0  0  0  0  0  0  0  0  0  0  0
   35.0440   24.6050   31.0590 C   0  0  0  0  0  0  0  0  0  0  0  0
   35.1920   25.9810   30.9790 C   0  0  0  0  0  0  0  0  0  0  0  0
   36.4680   26.4850   30.9610 N   0  0  0  0  0  0  0  0  0  0  0  0
   37.5400   25.6750   31.0200 C   0  0  0  0  0  0  0  0  0  0  0  0
   37.4200   24.3420   31.0970 N   0  0  0  0  0  0  0  0  0  0  0  0
   38.8080   26.3200   30.9920 N   0  0  0  0  0  0  0  0  0  0  0  0
   39.2320   26.5940   29.7910 N   0  0  0  0  0  0  0  0  0  0  0  0
   40.4480   27.2060   29.8800 C   0  0  0  0  0  0  0  0  0  0  0  0
   40.7660   27.3040   31.1900 C   0  0  0  0  0  0  0  0  0  0  0  0
   39.7190   26.7380   31.8960 C   0  0  0  0  0  0  0  0  0  0  0  0
   34.0740   24.1210   31.0780 H   0  0  0  0  0  0  0  0  0  0  0  0
   34.3240   26.6230   30.9330 H   0  0  0  0  0  0  0  0  0  0  0  0
   41.0870   27.5690   29.0860 H   0  0  0  0  0  0  0  0  0  0  0  0
   41.6040   27.7020   31.7390 H   0  0  0  0  0  0  0  0  0  0  0  0
   39.4050   26.5110   33.2930 C   0  0  0  0  0  0  0  0  0  0  0  0
   38.9720   27.3190   34.2570 N   0  0  0  0  0  0  0  0  0  0  0  0
   38.8250   26.6700   35.3720 O   0  0  0  0  0  0  0  0  0  0  0  0
   39.1790   25.4060   35.1020 C   0  0  0  0  0  0  0  0  0  0  0  0
   39.5480   25.2510   33.8230 N   0  0  0  0  0  0  0  0  0  0  0  0
   39.1750   24.2630   36.0930 C   0  0  2  0  0  0  0  0  0  0  0  0
   38.1830   23.1580   35.9240 C   0  0  0  0  0  0  0  0  0  0  0  0
   38.0490   24.1520   37.0620 C   0  0  1  0  0  0  0  0  0  0  0  0
   40.2040   23.9100   36.3170 H   0  0  0  0  0  0  0  0  0  0  0  0
   38.5160   22.1270   36.1540 H   0  0  0  0  0  0  0  0  0  0  0  0
   37.5160   23.2140   35.0460 H   0  0  0  0  0  0  0  0  0  0  0  0
   37.2330   24.8900   36.8850 H   0  0  0  0  0  0  0  0  0  0  0  0
   38.3030   23.6730   38.4710 C   0  0  0  0  0  0  0  0  0  0  0  0
   39.5820   23.2130   38.6400 F   0  0  0  0  0  0  0  0  0  0  0  0
   37.3230   22.8070   38.8690 F   0  0  0  0  0  0  0  0  0  0  0  0
   38.2040   24.8160   39.2750 F   0  0  0  0  0  0  0  0  0  0  0  0
   36.0530   22.3820   31.2010 N   0  0  0  0  0  0  0  0  0  0  0  0
   36.7030   21.7390   31.6640 H   0  0  0  0  0  0  0  0  0  0  0  0
   35.2830   21.7990   30.8160 H   0  0  0  0  0  0  0  0  0  0  0  0
  1 32  1  0  0  0  0
  2 12  1  0  0  0  0
  2  1  2  0  0  0  0
  3  2  1  0  0  0  0
  4  3  2  0  0  0  0
  4  5  1  0  0  0  0
  5  6  2  0  0  0  0
  6  1  1  0  0  0  0
  7  5  1  0  0  0  0
  7 11  1  0  0  0  0
  8  9  2  0  0  0  0
  8  7  1  0  0  0  0
  9 10  1  0  0  0  0
 10 15  1  0  0  0  0
 10 11  2  0  0  0  0
 11 16  1  0  0  0  0
 13  3  1  0  0  0  0
 14  9  1  0  0  0  0
 16 20  1  0  0  0  0
 16 17  2  0  0  0  0
 17 18  1  0  0  0  0
 19 18  1  0  0  0  0
 19 21  1  0  0  0  0
 20 19  2  0  0  0  0
 21 24  1  1  0  0  0
 21 23  1  0  0  0  0
 22 21  1  0  0  0  0
 22 25  1  0  0  0  0
 22 23  1  0  0  0  0
 23 27  1  6  0  0  0
 23 28  1  0  0  0  0
 26 22  1  0  0  0  0
 28 29  1  0  0  0  0
 28 30  1  0  0  0  0
 28 31  1  0  0  0  0
 32 33  1  0  0  0  0
 34 32  1  0  0  0  0
M  END
>  <minimizedAffinity>
-6.08060265

>  <minimizedRMSD>
2.41369581

$$$$
