
 OpenBabel03262519563D

 27 29  0  0  1  0  0  0  0  0999 V2000
   37.8800   23.6910   33.5010 C   0  0  0  0  0  0  0  0  0  0  0  0
   37.4580   22.6550   32.6700 C   0  0  0  0  0  0  0  0  0  0  0  0
   37.4760   21.5640   33.4870 N   0  0  0  0  0  0  0  0  0  0  0  0
   37.8810   21.9590   34.6950 C   0  0  0  0  0  0  0  0  0  0  0  0
   38.1380   23.2740   34.7330 N   0  0  0  0  0  0  0  0  0  0  0  0
   37.1950   22.7650   31.6350 H   0  0  0  0  0  0  0  0  0  0  0  0
   37.9790   21.2580   35.5330 H   0  0  0  0  0  0  0  0  0  0  0  0
   38.0220   25.0720   33.0760 C   0  0  0  0  0  0  0  0  0  0  0  0
   39.2810   25.6010   32.7720 C   0  0  0  0  0  0  0  0  0  0  0  0
   39.3830   26.9440   32.3640 C   0  0  0  0  0  0  0  0  0  0  0  0
   38.2410   27.6570   32.2870 N   0  0  0  0  0  0  0  0  0  0  0  0
   37.0300   27.1280   32.5850 C   0  0  0  0  0  0  0  0  0  0  0  0
   36.9140   25.8460   32.9770 N   0  0  0  0  0  0  0  0  0  0  0  0
   40.1540   25.0030   32.8470 H   0  0  0  0  0  0  0  0  0  0  0  0
   40.3320   27.3680   32.1280 H   0  0  0  0  0  0  0  0  0  0  0  0
   36.1540   27.7530   32.5020 H   0  0  0  0  0  0  0  0  0  0  0  0
   38.5880   23.9700   35.9000 C   0  0  1  0  0  0  0  0  0  0  0  0
   37.9770   25.2170   36.3610 C   0  0  0  0  0  0  0  0  0  0  0  0
   37.5730   23.9340   37.0400 C   0  0  2  0  0  0  0  0  0  0  0  0
   39.6560   23.8260   36.1260 H   0  0  0  0  0  0  0  0  0  0  0  0
   38.5450   25.9930   36.8770 H   0  0  0  0  0  0  0  0  0  0  0  0
   37.1640   25.6320   35.6960 H   0  0  0  0  0  0  0  0  0  0  0  0
   36.5750   23.4870   36.8670 H   0  0  0  0  0  0  0  0  0  0  0  0
   38.1870   23.7150   38.4110 C   0  0  0  0  0  0  0  0  0  0  0  0
   37.4240   22.7650   39.0780 F   0  0  0  0  0  0  0  0  0  0  0  0
   39.5130   23.3170   38.3010 F   0  0  0  0  0  0  0  0  0  0  0  0
   38.1810   24.8890   39.1390 F   0  0  0  0  0  0  0  0  0  0  0  0
  1  5  1  0  0  0  0
  2  3  1  0  0  0  0
  2  1  2  0  0  0  0
  3  4  2  0  0  0  0
  4  5  1  0  0  0  0
  4  7  1  0  0  0  0
  5 17  1  0  0  0  0
  6  2  1  0  0  0  0
  8  1  1  0  0  0  0
  9 14  1  0  0  0  0
  9  8  2  0  0  0  0
 10  9  1  0  0  0  0
 11 10  2  0  0  0  0
 11 12  1  0  0  0  0
 12 13  2  0  0  0  0
 13  8  1  0  0  0  0
 15 10  1  0  0  0  0
 16 12  1  0  0  0  0
 17 20  1  1  0  0  0
 17 18  1  0  0  0  0
 17 19  1  0  0  0  0
 18 21  1  0  0  0  0
 18 19  1  0  0  0  0
 19 23  1  6  0  0  0
 19 24  1  0  0  0  0
 22 18  1  0  0  0  0
 24 25  1  0  0  0  0
 24 27  1  0  0  0  0
 26 24  1  0  0  0  0
M  END
>  <minimizedAffinity>
-4.93279219

>  <minimizedRMSD>
5.44569635

$$$$
