
 OpenBabel03262519593D

 30 32  0  0  1  0  0  0  0  0999 V2000
   37.8730   25.0790   32.5800 C   0  0  0  0  0  0  0  0  0  0  0  0
   37.2580   23.8280   32.5390 C   0  0  0  0  0  0  0  0  0  0  0  0
   38.2620   22.9880   32.1480 N   0  0  0  0  0  0  0  0  0  0  0  0
   39.3590   23.7180   31.9830 C   0  0  0  0  0  0  0  0  0  0  0  0
   39.1510   25.0040   32.2430 N   0  0  0  0  0  0  0  0  0  0  0  0
   36.2200   23.6620   32.7780 H   0  0  0  0  0  0  0  0  0  0  0  0
   40.2210   23.1350   31.6700 H   0  0  0  0  0  0  0  0  0  0  0  0
   37.2000   26.3160   32.9370 C   0  0  0  0  0  0  0  0  0  0  0  0
   36.5710   27.0810   31.9320 C   0  0  0  0  0  0  0  0  0  0  0  0
   35.9220   28.2730   32.3180 C   0  0  0  0  0  0  0  0  0  0  0  0
   35.9500   28.6030   33.6370 N   0  0  0  0  0  0  0  0  0  0  0  0
   36.5670   27.8420   34.5690 C   0  0  0  0  0  0  0  0  0  0  0  0
   37.1890   26.7030   34.2250 N   0  0  0  0  0  0  0  0  0  0  0  0
   36.6020   26.7340   30.9080 H   0  0  0  0  0  0  0  0  0  0  0  0
   35.4350   28.8700   31.5650 H   0  0  0  0  0  0  0  0  0  0  0  0
   36.5000   28.2400   35.5720 H   0  0  0  0  0  0  0  0  0  0  0  0
   40.1650   25.9870   32.1440 C   0  0  1  0  0  0  0  0  0  0  0  0
   40.2120   27.2450   32.8320 C   0  0  0  0  0  0  0  0  0  0  0  0
   41.0930   26.0550   33.3120 C   0  0  0  0  0  0  0  0  0  0  0  0
   40.6810   25.9590   31.1200 H   0  0  0  0  0  0  0  0  0  0  0  0
   39.4230   27.5310   33.5300 H   0  0  0  0  0  0  0  0  0  0  0  0
   40.7500   28.1210   32.4210 H   0  0  0  0  0  0  0  0  0  0  0  0
   42.5550   26.3120   33.0150 C   0  0  0  0  0  0  0  0  0  0  0  0
   43.2850   25.1490   33.1640 F   0  0  0  0  0  0  0  0  0  0  0  0
   42.6850   26.6130   31.5930 F   0  0  0  0  0  0  0  0  0  0  0  0
   43.0680   27.3690   33.6650 F   0  0  0  0  0  0  0  0  0  0  0  0
   40.7890   25.8220   34.7710 C   0  0  0  0  0  0  0  0  0  0  0  0
   40.2920   26.9890   35.3080 F   0  0  0  0  0  0  0  0  0  0  0  0
   42.0120   25.6130   35.3940 F   0  0  0  0  0  0  0  0  0  0  0  0
   39.8920   24.8430   35.0240 F   0  0  0  0  0  0  0  0  0  0  0  0
  1  8  1  0  0  0  0
  2  1  2  0  0  0  0
  2  6  1  0  0  0  0
  3  2  1  0  0  0  0
  4  3  2  0  0  0  0
  4  5  1  0  0  0  0
  5  1  1  0  0  0  0
  7  4  1  0  0  0  0
  8 13  1  0  0  0  0
  9 10  1  0  0  0  0
  9  8  2  0  0  0  0
 10 11  2  0  0  0  0
 11 12  1  0  0  0  0
 12 16  1  0  0  0  0
 13 12  2  0  0  0  0
 14  9  1  0  0  0  0
 15 10  1  0  0  0  0
 17 20  1  6  0  0  0
 17  5  1  0  0  0  0
 17 18  1  0  0  0  0
 17 19  1  0  0  0  0
 18 19  1  0  0  0  0
 18 21  1  0  0  0  0
 19 27  1  0  0  0  0
 22 18  1  0  0  0  0
 23 24  1  0  0  0  0
 23 19  1  0  0  0  0
 23 26  1  0  0  0  0
 25 23  1  0  0  0  0
 27 30  1  0  0  0  0
 27 28  1  0  0  0  0
 27 29  1  0  0  0  0
M  END
>  <minimizedAffinity>
-3.83345985

>  <minimizedRMSD>
4.93357754

$$$$
