
 OpenBabel03262519073D

 31 33  0  0  1  0  0  0  0  0999 V2000
   39.1890   26.0880   35.3590 C   0  0  2  0  0  0  0  0  0  0  0  0
   38.6790   27.2180   36.1780 C   0  0  0  0  0  0  0  0  0  0  0  0
   38.3810   27.1510   34.7080 C   0  0  2  0  0  0  0  0  0  0  0  0
   40.2460   26.0840   35.0800 H   0  0  0  0  0  0  0  0  0  0  0  0
   39.3670   28.0390   36.5000 H   0  0  0  0  0  0  0  0  0  0  0  0
   37.8880   27.0190   36.9210 H   0  0  0  0  0  0  0  0  0  0  0  0
   38.9430   27.8780   34.0510 H   0  0  0  0  0  0  0  0  0  0  0  0
   37.5160   23.2790   37.0170 C   0  0  0  0  0  0  0  0  0  0  0  0
   37.4610   22.2660   36.0330 C   0  0  0  0  0  0  0  0  0  0  0  0
   38.0310   22.6100   34.7610 C   0  0  0  0  0  0  0  0  0  0  0  0
   38.5660   23.8450   34.5940 N   0  0  0  0  0  0  0  0  0  0  0  0
   38.5790   24.7720   35.6000 C   0  0  0  0  0  0  0  0  0  0  0  0
   38.0470   24.4840   36.8290 N   0  0  0  0  0  0  0  0  0  0  0  0
   37.0770   22.9750   37.9540 H   0  0  0  0  0  0  0  0  0  0  0  0
   37.0190   21.3010   36.2330 H   0  0  0  0  0  0  0  0  0  0  0  0
   38.0100   21.8680   33.9870 H   0  0  0  0  0  0  0  0  0  0  0  0
   36.9470   27.0740   34.3800 C   0  0  0  0  0  0  0  0  0  0  0  0
   36.2550   27.0940   35.2700 H   0  0  0  0  0  0  0  0  0  0  0  0
   36.7380   26.0900   33.8870 H   0  0  0  0  0  0  0  0  0  0  0  0
   36.4540   28.1090   33.4480 C   0  0  0  0  0  0  0  0  0  0  0  0
   35.5880   29.1430   33.6240 C   0  0  0  0  0  0  0  0  0  0  0  0
   35.2070   30.0460   32.6650 C   0  0  0  0  0  0  0  0  0  0  0  0
   35.7640   29.8740   31.4120 C   0  0  0  0  0  0  0  0  0  0  0  0
   36.6430   28.8230   31.2390 C   0  0  0  0  0  0  0  0  0  0  0  0
   36.9930   27.9550   32.2060 N   0  0  0  0  0  0  0  0  0  0  0  0
   35.2070   29.1840   34.6530 H   0  0  0  0  0  0  0  0  0  0  0  0
   34.5140   30.8160   32.9370 H   0  0  0  0  0  0  0  0  0  0  0  0
   35.4910   30.5630   30.6320 H   0  0  0  0  0  0  0  0  0  0  0  0
   37.1930   28.7190   29.8530 C   0  0  0  0  0  0  0  0  0  0  0  0
   37.3140   30.0820   29.2080 C   0  0  0  0  0  0  0  0  0  0  0  0
   38.4640   27.9310   29.7900 C   0  0  0  0  0  0  0  0  0  0  0  0
  1  4  1  6  0  0  0
  1 12  1  0  0  0  0
  1  2  1  0  0  0  0
  2  5  1  0  0  0  0
  2  6  1  0  0  0  0
  3  7  1  6  0  0  0
  3  1  1  0  0  0  0
  3  2  1  0  0  0  0
  8 14  1  0  0  0  0
  9 15  1  0  0  0  0
  9  8  2  0  0  0  0
 10  9  1  0  0  0  0
 11 10  2  0  0  0  0
 11 12  1  0  0  0  0
 12 13  2  0  0  0  0
 13  8  1  0  0  0  0
 16 10  1  0  0  0  0
 17  3  1  0  0  0  0
 17 18  1  0  0  0  0
 19 17  1  0  0  0  0
 20 21  1  0  0  0  0
 20 17  1  0  0  0  0
 21 26  1  0  0  0  0
 22 27  1  0  0  0  0
 22 21  2  0  0  0  0
 23 22  1  0  0  0  0
 24 23  2  0  0  0  0
 24 25  1  0  0  0  0
 25 20  2  0  0  0  0
 28 23  1  0  0  0  0
 29 24  1  0  0  0  0
 30 29  1  0  0  0  0
 31 29  1  0  0  0  0
M  END
>  <minimizedAffinity>
-4.82867479

>  <minimizedRMSD>
3.43136573

$$$$
