
 OpenBabel03262518263D

 22 23  0  0  0  0  0  0  0  0999 V2000
   37.8690   25.9620   35.9280 C   0  0  0  0  0  0  0  0  0  0  0  0
   38.4260   26.8530   36.5780 O   0  0  0  0  0  0  0  0  0  0  0  0
   37.4350   26.2280   34.5430 C   0  0  0  0  0  0  0  0  0  0  0  0
   37.5990   25.2190   33.5980 C   0  0  0  0  0  0  0  0  0  0  0  0
   37.1830   25.4780   32.2850 C   0  0  0  0  0  0  0  0  0  0  0  0
   36.6500   26.7010   32.0340 N   0  0  0  0  0  0  0  0  0  0  0  0
   36.5060   27.6440   32.9570 C   0  0  0  0  0  0  0  0  0  0  0  0
   36.8960   27.4250   34.2290 N   0  0  0  0  0  0  0  0  0  0  0  0
   38.0320   24.2700   33.8760 H   0  0  0  0  0  0  0  0  0  0  0  0
   37.3150   24.6890   31.5590 H   0  0  0  0  0  0  0  0  0  0  0  0
   36.0670   28.5850   32.6490 H   0  0  0  0  0  0  0  0  0  0  0  0
   37.6470   24.7180   36.4750 O   0  0  0  0  0  0  0  0  0  0  0  0
   39.8270   22.5050   38.1180 N   0  0  0  0  0  0  0  0  0  0  0  0
   38.7390   23.2590   38.0410 N   0  0  0  0  0  0  0  0  0  0  0  0
   38.7130   23.8550   36.8120 C   0  0  0  0  0  0  0  0  0  0  0  0
   39.8210   23.4600   36.1040 C   0  0  0  0  0  0  0  0  0  0  0  0
   40.5000   22.6100   36.9550 C   0  0  0  0  0  0  0  0  0  0  0  0
   40.1770   21.9010   38.9120 H   0  0  0  0  0  0  0  0  0  0  0  0
   40.0170   23.8060   35.0960 H   0  0  0  0  0  0  0  0  0  0  0  0
   41.7780   21.9590   36.5510 C   0  0  0  0  0  0  0  0  0  0  0  0
   42.0860   20.9200   37.6200 C   0  0  0  0  0  0  0  0  0  0  0  0
   42.9260   22.9490   36.5570 C   0  0  0  0  0  0  0  0  0  0  0  0
  1 12  1  0  0  0  0
  1  2  2  0  0  0  0
  3  1  1  0  0  0  0
  4  9  1  0  0  0  0
  4  3  2  0  0  0  0
  5  4  1  0  0  0  0
  6  5  2  0  0  0  0
  6  7  1  0  0  0  0
  7  8  2  0  0  0  0
  8  3  1  0  0  0  0
 10  5  1  0  0  0  0
 11  7  1  0  0  0  0
 12 15  1  0  0  0  0
 13 18  1  0  0  0  0
 14 13  1  0  0  0  0
 15 14  2  0  0  0  0
 16 15  1  0  0  0  0
 16 17  2  0  0  0  0
 17 13  1  0  0  0  0
 19 16  1  0  0  0  0
 20 22  1  0  0  0  0
 20 17  1  0  0  0  0
 20 21  1  0  0  0  0
M  END
>  <minimizedAffinity>
-4.74605989

>  <minimizedRMSD>
1.13000536

$$$$
