
 OpenBabel03262519563D

 26 28  0  0  1  0  0  0  0  0999 V2000
   37.8830   22.7490   34.8740 C   0  0  0  0  0  0  0  0  0  0  0  0
   37.7340   22.3780   36.2000 C   0  0  0  0  0  0  0  0  0  0  0  0
   37.8860   23.5380   36.8870 N   0  0  0  0  0  0  0  0  0  0  0  0
   38.1090   24.5160   36.0140 C   0  0  0  0  0  0  0  0  0  0  0  0
   38.1120   24.0480   34.7470 N   0  0  0  0  0  0  0  0  0  0  0  0
   37.5400   21.3610   36.5330 H   0  0  0  0  0  0  0  0  0  0  0  0
   38.2540   25.5260   36.4010 H   0  0  0  0  0  0  0  0  0  0  0  0
   37.8030   21.8360   33.7340 C   0  0  0  0  0  0  0  0  0  0  0  0
   38.9650   21.3620   33.1220 C   0  0  0  0  0  0  0  0  0  0  0  0
   38.8570   20.4880   32.0300 C   0  0  0  0  0  0  0  0  0  0  0  0
   37.6070   20.1520   31.6320 N   0  0  0  0  0  0  0  0  0  0  0  0
   36.4860   20.6270   32.2430 C   0  0  0  0  0  0  0  0  0  0  0  0
   36.5860   21.4650   33.2910 N   0  0  0  0  0  0  0  0  0  0  0  0
   39.9580   21.6600   33.4770 H   0  0  0  0  0  0  0  0  0  0  0  0
   39.7280   20.0920   31.5210 H   0  0  0  0  0  0  0  0  0  0  0  0
   35.5010   20.3220   31.8790 H   0  0  0  0  0  0  0  0  0  0  0  0
   38.3290   24.8830   33.5840 C   0  0  1  0  0  0  0  0  0  0  0  0
   37.5800   24.7350   32.3440 C   0  0  0  0  0  0  0  0  0  0  0  0
   37.1300   25.8020   33.3150 C   0  0  2  0  0  0  0  0  0  0  0  0
   39.3230   25.3450   33.5290 H   0  0  0  0  0  0  0  0  0  0  0  0
   36.9640   23.8230   32.1880 H   0  0  0  0  0  0  0  0  0  0  0  0
   38.0520   25.0890   31.4060 H   0  0  0  0  0  0  0  0  0  0  0  0
   36.1560   25.5580   33.7770 H   0  0  0  0  0  0  0  0  0  0  0  0
   37.3670   27.2550   33.0350 C   0  0  0  0  0  3  0  0  0  0  0  0
   37.0150   27.5050   31.5820 C   0  0  0  0  0  1  0  0  0  0  0  0
   36.5470   28.1750   33.8790 C   0  0  0  0  0  1  0  0  0  0  0  0
  1  2  2  0  0  0  0
  2  6  1  0  0  0  0
  2  3  1  0  0  0  0
  4  7  1  0  0  0  0
  4  3  2  0  0  0  0
  5  1  1  0  0  0  0
  5  4  1  0  0  0  0
  8  1  1  0  0  0  0
  9 14  1  0  0  0  0
  9  8  2  0  0  0  0
 10  9  1  0  0  0  0
 11 10  2  0  0  0  0
 11 12  1  0  0  0  0
 12 13  2  0  0  0  0
 13  8  1  0  0  0  0
 15 10  1  0  0  0  0
 16 12  1  0  0  0  0
 17 20  1  6  0  0  0
 17  5  1  0  0  0  0
 18 19  1  0  0  0  0
 18 17  1  0  0  0  0
 19 17  1  0  0  0  0
 19 23  1  1  0  0  0
 21 18  1  0  0  0  0
 22 18  1  0  0  0  0
 24 19  1  0  0  0  0
 24 26  1  0  0  0  0
 25 24  1  0  0  0  0
M  END
>  <minimizedAffinity>
-3.73358011

>  <minimizedRMSD>
5.68981743

$$$$
