
 OpenBabel03262519563D

 26 28  0  0  1  0  0  0  0  0999 V2000
   37.8060   23.5060   33.8050 C   0  0  0  0  0  0  0  0  0  0  0  0
   37.8760   24.7340   33.1680 C   0  0  0  0  0  0  0  0  0  0  0  0
   37.1770   24.5500   32.0190 N   0  0  0  0  0  0  0  0  0  0  0  0
   36.7320   23.2980   31.9950 C   0  0  0  0  0  0  0  0  0  0  0  0
   37.1120   22.6230   33.1010 N   0  0  0  0  0  0  0  0  0  0  0  0
   38.3970   25.6020   33.5660 H   0  0  0  0  0  0  0  0  0  0  0  0
   36.1440   22.9800   31.1330 H   0  0  0  0  0  0  0  0  0  0  0  0
   38.4160   23.1960   35.0980 C   0  0  0  0  0  0  0  0  0  0  0  0
   39.6300   22.5100   35.1630 C   0  0  0  0  0  0  0  0  0  0  0  0
   40.1910   22.2260   36.4170 C   0  0  0  0  0  0  0  0  0  0  0  0
   39.5060   22.6460   37.5060 N   0  0  0  0  0  0  0  0  0  0  0  0
   38.3220   23.3150   37.4210 C   0  0  0  0  0  0  0  0  0  0  0  0
   37.7810   23.5880   36.2200 N   0  0  0  0  0  0  0  0  0  0  0  0
   40.1520   22.1880   34.2540 H   0  0  0  0  0  0  0  0  0  0  0  0
   41.1310   21.6970   36.5210 H   0  0  0  0  0  0  0  0  0  0  0  0
   37.8110   23.6300   38.3350 H   0  0  0  0  0  0  0  0  0  0  0  0
   36.7730   21.2380   33.3520 C   0  0  1  0  0  0  0  0  0  0  0  0
   35.7900   20.8240   34.3420 C   0  0  0  0  0  0  0  0  0  0  0  0
   35.3430   20.9140   32.9010 C   0  0  2  0  0  0  0  0  0  0  0  0
   37.5510   20.5160   33.0700 H   0  0  0  0  0  0  0  0  0  0  0  0
   35.4270   21.5620   35.0890 H   0  0  0  0  0  0  0  0  0  0  0  0
   35.8780   19.8040   34.7680 H   0  0  0  0  0  0  0  0  0  0  0  0
   34.6330   21.7460   32.7390 H   0  0  0  0  0  0  0  0  0  0  0  0
   35.0900   19.6810   32.0880 C   0  0  0  0  0  3  0  0  0  0  0  0
   36.0020   19.7350   30.8790 C   0  0  0  0  0  1  0  0  0  0  0  0
   35.3590   18.4080   32.8200 C   0  0  0  0  0  1  0  0  0  0  0  0
  1  8  1  0  0  0  0
  2  6  1  0  0  0  0
  2  1  2  0  0  0  0
  3  2  1  0  0  0  0
  4  3  2  0  0  0  0
  4  5  1  0  0  0  0
  5 17  1  0  0  0  0
  5  1  1  0  0  0  0
  7  4  1  0  0  0  0
  8  9  2  0  0  0  0
  8 13  1  0  0  0  0
  9 10  1  0  0  0  0
 10 15  1  0  0  0  0
 10 11  2  0  0  0  0
 12 11  1  0  0  0  0
 12 16  1  0  0  0  0
 13 12  2  0  0  0  0
 14  9  1  0  0  0  0
 17 20  1  6  0  0  0
 17 18  1  0  0  0  0
 18 22  1  0  0  0  0
 18 21  1  0  0  0  0
 19 23  1  6  0  0  0
 19 17  1  0  0  0  0
 19 18  1  0  0  0  0
 24 26  1  0  0  0  0
 24 19  1  0  0  0  0
 25 24  1  0  0  0  0
M  END
>  <minimizedAffinity>
-4.56822014

>  <minimizedRMSD>
1.08010244

$$$$
