
 OpenBabel03262519563D

 26 28  0  0  1  0  0  0  0  0999 V2000
   36.8470   25.2680   32.1470 C   0  0  0  0  0  0  0  0  0  0  0  0
   36.3970   26.4620   31.6090 C   0  0  0  0  0  0  0  0  0  0  0  0
   35.3050   26.1080   30.8860 N   0  0  0  0  0  0  0  0  0  0  0  0
   35.1350   24.7940   30.9990 C   0  0  0  0  0  0  0  0  0  0  0  0
   36.0870   24.2440   31.7840 N   0  0  0  0  0  0  0  0  0  0  0  0
   36.8710   27.4270   31.7770 H   0  0  0  0  0  0  0  0  0  0  0  0
   34.2930   24.3390   30.4760 H   0  0  0  0  0  0  0  0  0  0  0  0
   38.0170   25.1270   33.0150 C   0  0  0  0  0  0  0  0  0  0  0  0
   39.2910   24.9690   32.4660 C   0  0  0  0  0  0  0  0  0  0  0  0
   40.3940   24.8360   33.3230 C   0  0  0  0  0  0  0  0  0  0  0  0
   40.1470   24.8710   34.6530 N   0  0  0  0  0  0  0  0  0  0  0  0
   38.8950   25.0260   35.1680 C   0  0  0  0  0  0  0  0  0  0  0  0
   37.8350   25.1540   34.3490 N   0  0  0  0  0  0  0  0  0  0  0  0
   39.4460   24.9470   31.3810 H   0  0  0  0  0  0  0  0  0  0  0  0
   41.4020   24.7110   32.9470 H   0  0  0  0  0  0  0  0  0  0  0  0
   38.7540   25.0470   36.2520 H   0  0  0  0  0  0  0  0  0  0  0  0
   36.1580   22.8310   32.0880 C   0  0  1  0  0  0  0  0  0  0  0  0
   35.6390   21.7970   31.2050 C   0  0  0  0  0  0  0  0  0  0  0  0
   37.1190   22.0960   31.1440 C   0  0  2  0  0  0  0  0  0  0  0  0
   36.2450   22.5950   33.1570 H   0  0  0  0  0  0  0  0  0  0  0  0
   34.9730   22.0870   30.3630 H   0  0  0  0  0  0  0  0  0  0  0  0
   35.3500   20.8260   31.6540 H   0  0  0  0  0  0  0  0  0  0  0  0
   37.4050   22.5780   30.1920 H   0  0  0  0  0  0  0  0  0  0  0  0
   38.1270   21.1450   31.7150 C   0  0  0  0  0  3  0  0  0  0  0  0
   38.2760   21.4670   33.1890 C   0  0  0  0  0  1  0  0  0  0  0  0
   37.7430   19.7080   31.5880 C   0  0  0  0  0  1  0  0  0  0  0  0
  1  8  1  0  0  0  0
  2  6  1  0  0  0  0
  2  1  2  0  0  0  0
  3  4  2  0  0  0  0
  3  2  1  0  0  0  0
  4  5  1  0  0  0  0
  5 17  1  0  0  0  0
  5  1  1  0  0  0  0
  7  4  1  0  0  0  0
  8 13  1  0  0  0  0
  9  8  2  0  0  0  0
  9 10  1  0  0  0  0
 10 11  2  0  0  0  0
 11 12  1  0  0  0  0
 12 16  1  0  0  0  0
 13 12  2  0  0  0  0
 14  9  1  0  0  0  0
 15 10  1  0  0  0  0
 17 20  1  1  0  0  0
 18 22  1  0  0  0  0
 18 17  1  0  0  0  0
 19 23  1  6  0  0  0
 19 18  1  0  0  0  0
 19 24  1  0  0  0  0
 19 17  1  0  0  0  0
 21 18  1  0  0  0  0
 24 25  1  0  0  0  0
 26 24  1  0  0  0  0
M  END
>  <minimizedAffinity>
-3.64368653

>  <minimizedRMSD>
3.67838168

$$$$
