
 OpenBabel03262518523D

 22 23  0  0  0  0  0  0  0  0999 V2000
   39.9170   22.8000   37.1880 C   0  0  0  0  0  0  0  0  0  0  0  0
   39.3690   23.4520   38.3140 C   0  0  0  0  0  0  0  0  0  0  0  0
   37.9520   23.4920   38.4010 C   0  0  0  0  0  0  0  0  0  0  0  0
   37.2200   22.9120   37.4190 N   0  0  0  0  0  0  0  0  0  0  0  0
   37.8090   22.2960   36.3560 C   0  0  0  0  0  0  0  0  0  0  0  0
   39.1530   22.2370   36.2370 N   0  0  0  0  0  0  0  0  0  0  0  0
   37.0360   21.6870   35.3230 N   0  0  0  0  0  0  0  0  0  0  0  0
   37.4740   21.9080   34.0460 C   0  0  0  0  0  0  0  0  0  0  0  0
   36.7490   21.3320   33.0160 C   0  0  0  0  0  0  0  0  0  0  0  0
   35.6230   20.5670   33.3340 C   0  0  0  0  0  0  0  0  0  0  0  0
   34.9600   20.0410   32.3880 O   0  0  0  0  0  0  0  0  0  0  0  0
   35.2400   20.3870   34.6200 N   0  0  0  0  0  0  0  0  0  0  0  0
   35.9540   20.9520   35.6180 C   0  0  0  0  0  0  0  0  0  0  0  0
   35.6700   20.8340   36.8140 O   0  0  0  0  0  0  0  0  0  0  0  0
   40.9970   22.7450   37.0800 H   0  0  0  0  0  0  0  0  0  0  0  0
   40.0090   23.8960   39.0640 H   0  0  0  0  0  0  0  0  0  0  0  0
   37.5020   23.9840   39.2520 H   0  0  0  0  0  0  0  0  0  0  0  0
   38.3530   22.5060   33.8310 H   0  0  0  0  0  0  0  0  0  0  0  0
   34.4000   19.8180   34.8780 H   0  0  0  0  0  0  0  0  0  0  0  0
   37.1220   21.4960   31.5950 C   0  0  0  0  0  0  0  0  0  0  0  0
   36.9060   20.2140   30.7930 C   0  0  0  0  0  0  0  0  0  0  0  0
   36.2350   22.5500   30.9540 C   0  0  0  0  0  0  0  0  0  0  0  0
  1  2  1  0  0  0  0
  2  3  2  0  0  0  0
  2 16  1  0  0  0  0
  3 17  1  0  0  0  0
  4  3  1  0  0  0  0
  5  4  2  0  0  0  0
  6  5  1  0  0  0  0
  6  1  2  0  0  0  0
  7 13  1  0  0  0  0
  7  5  1  0  0  0  0
  8  7  1  0  0  0  0
  9 10  1  0  0  0  0
  9  8  2  0  0  0  0
 10 12  1  0  0  0  0
 11 10  2  0  0  0  0
 12 19  1  0  0  0  0
 12 13  1  0  0  0  0
 13 14  2  0  0  0  0
 15  1  1  0  0  0  0
 18  8  1  0  0  0  0
 20  9  1  0  0  0  0
 21 20  1  0  0  0  0
 22 20  1  0  0  0  0
M  END
>  <minimizedAffinity>
-5.10629606

>  <minimizedRMSD>
0.454957396

$$$$
