
 OpenBabel03262514283D

 31 32  0  0  1  0  0  0  0  0999 V2000
   40.5660   23.0460   35.2580 C   0  0  2  0  0  0  0  0  0  0  0  0
   41.0240   22.0680   35.4990 H   0  0  0  0  0  0  0  0  0  0  0  0
   38.7530   24.5060   36.1770 C   0  0  0  0  0  0  0  0  0  0  0  0
   39.6970   23.4510   36.3280 C   0  0  0  0  0  0  0  0  0  0  0  0
   39.7180   22.8020   37.5370 C   0  0  0  0  0  0  0  0  0  0  0  0
   38.8390   23.1940   38.5290 N   0  0  0  0  0  0  0  0  0  0  0  0
   37.9520   24.2100   38.3390 C   0  0  0  0  0  0  0  0  0  0  0  0
   37.9080   24.8740   37.1510 N   0  0  0  0  0  0  0  0  0  0  0  0
   40.6080   21.7460   37.8470 N   0  0  0  0  0  0  0  0  0  0  0  0
   38.7710   24.9930   35.2080 H   0  0  0  0  0  0  0  0  0  0  0  0
   37.2900   24.4710   39.1540 H   0  0  0  0  0  0  0  0  0  0  0  0
   40.7170   20.9160   37.2300 H   0  0  0  0  0  0  0  0  0  0  0  0
   41.2570   21.5870   38.6480 H   0  0  0  0  0  0  0  0  0  0  0  0
   41.8150   24.0200   35.3120 C   0  0  0  0  0  0  0  0  0  0  0  0
   42.4460   23.6910   34.4670 H   0  0  0  0  0  0  0  0  0  0  0  0
   42.3670   23.8060   36.2600 H   0  0  0  0  0  0  0  0  0  0  0  0
   41.4630   25.0570   35.2530 H   0  0  0  0  0  0  0  0  0  0  0  0
   39.9810   23.0520   33.9250 C   0  0  0  0  0  0  0  0  0  0  0  0
   40.1730   24.0170   33.3980 H   0  0  0  0  0  0  0  0  0  0  0  0
   38.8570   22.9700   33.9780 H   0  0  0  0  0  0  0  0  0  0  0  0
   40.5470   21.6740   32.9350 S   0  0  0  0  0  0  0  0  0  0  0  0
   38.1140   18.9050   31.6220 N   0  0  0  0  0  0  0  0  0  0  0  0
   39.3220   19.4060   31.8800 N   0  0  0  0  0  0  0  0  0  0  0  0
   39.1930   20.6330   32.4300 C   0  0  0  0  0  0  0  0  0  0  0  0
   37.8420   20.8330   32.4840 C   0  0  0  0  0  0  0  0  0  0  0  0
   37.1360   19.7660   31.9850 C   0  0  0  0  0  0  0  0  0  0  0  0
   37.9350   17.9520   31.1880 H   0  0  0  0  0  0  0  0  0  0  0  0
   37.3870   21.7480   32.8850 H   0  0  0  0  0  0  0  0  0  0  0  0
   35.6670   19.5840   31.8640 C   0  0  0  0  0  0  0  0  0  0  0  0
   34.9540   20.8320   32.3620 C   0  0  0  0  0  0  0  0  0  0  0  0
   35.2320   18.3900   32.6870 C   0  0  0  0  0  0  0  0  0  0  0  0
  1 14  1  0  0  0  0
  1  2  1  1  0  0  0
  1  4  1  0  0  0  0
  3  4  2  0  0  0  0
  3  8  1  0  0  0  0
  4  5  1  0  0  0  0
  5  9  1  0  0  0  0
  5  6  2  0  0  0  0
  7  6  1  0  0  0  0
  7 11  1  0  0  0  0
  8  7  2  0  0  0  0
  9 13  1  0  0  0  0
 10  3  1  0  0  0  0
 12  9  1  0  0  0  0
 14 16  1  0  0  0  0
 15 14  1  0  0  0  0
 17 14  1  0  0  0  0
 18 20  1  0  0  0  0
 18  1  1  0  0  0  0
 19 18  1  0  0  0  0
 21 18  1  0  0  0  0
 22 23  1  0  0  0  0
 22 26  1  0  0  0  0
 23 24  2  0  0  0  0
 24 25  1  0  0  0  0
 24 21  1  0  0  0  0
 25 28  1  0  0  0  0
 26 25  2  0  0  0  0
 27 22  1  0  0  0  0
 29 26  1  0  0  0  0
 29 30  1  0  0  0  0
 29 31  1  0  0  0  0
M  END
>  <minimizedAffinity>
-4.72682714

>  <minimizedRMSD>
2.00724959

$$$$
