
 OpenBabel03262519473D

 35 37  0  0  1  0  0  0  0  0999 V2000
   38.5750   25.7130   34.0440 C   0  0  0  0  0  0  0  0  0  0  0  0
   39.3800   24.9260   33.9580 H   0  0  0  0  0  0  0  0  0  0  0  0
   39.1150   26.6650   33.8080 H   0  0  0  0  0  0  0  0  0  0  0  0
   37.5810   25.4510   33.0710 N   0  0  0  0  0  0  0  0  0  0  0  0
   37.1220   24.3550   32.4690 C   0  0  0  0  0  0  0  0  0  0  0  0
   36.1070   24.5920   31.5720 C   0  0  0  0  0  0  0  0  0  0  0  0
   35.9330   25.9090   31.6280 N   0  0  0  0  0  0  0  0  0  0  0  0
   36.8220   26.4340   32.5300 C   0  0  0  0  0  0  0  0  0  0  0  0
   37.5380   23.3580   32.6890 H   0  0  0  0  0  0  0  0  0  0  0  0
   35.6150   23.8030   30.9920 H   0  0  0  0  0  0  0  0  0  0  0  0
   36.8550   27.9290   32.7580 C   0  0  1  0  0  0  0  0  0  0  0  0
   36.4010   28.7480   31.6100 C   0  0  0  0  0  0  0  0  0  0  0  0
   35.5250   28.6240   32.8390 C   0  0  2  0  0  0  0  0  0  0  0  0
   37.6430   28.2120   33.4550 H   0  0  0  0  0  0  0  0  0  0  0  0
   36.0550   28.2300   30.6770 H   0  0  0  0  0  0  0  0  0  0  0  0
   36.9930   29.6340   31.4000 H   0  0  0  0  0  0  0  0  0  0  0  0
   34.6480   27.9480   32.7060 H   0  0  0  0  0  0  0  0  0  0  0  0
   35.2990   29.9520   33.4390 C   0  0  0  0  0  0  0  0  0  0  0  0
   33.7820   30.2150   33.3840 C   0  0  0  0  0  0  0  0  0  0  0  0
   35.7560   30.1890   34.8260 C   0  0  0  0  0  0  0  0  0  0  0  0
   38.0480   25.7500   35.4310 C   0  0  1  0  0  0  0  0  0  0  0  0
   36.9430   25.6010   35.4630 H   0  0  0  0  0  0  0  0  0  0  0  0
   38.6610   23.4030   38.3350 C   0  0  0  0  0  0  0  0  0  0  0  0
   38.0530   24.4270   37.5890 C   0  0  0  0  0  0  0  0  0  0  0  0
   38.6210   24.7030   36.3020 C   0  0  0  0  0  0  0  0  0  0  0  0
   39.7090   23.9650   35.8740 N   0  0  0  0  0  0  0  0  0  0  0  0
   40.2490   23.0080   36.6100 C   0  0  0  0  0  0  0  0  0  0  0  0
   39.7230   22.7180   37.8600 N   0  0  0  0  0  0  0  0  0  0  0  0
   38.2540   23.1740   39.3100 H   0  0  0  0  0  0  0  0  0  0  0  0
   37.2120   24.9900   37.9330 H   0  0  0  0  0  0  0  0  0  0  0  0
   41.0980   22.4250   36.2860 H   0  0  0  0  0  0  0  0  0  0  0  0
   38.2810   27.1210   36.0460 C   0  0  0  0  0  0  0  0  0  0  0  0
   39.0310   27.6300   35.4420 H   0  0  0  0  0  0  0  0  0  0  0  0
   37.3520   27.6450   36.2530 H   0  0  0  0  0  0  0  0  0  0  0  0
   38.7670   26.9630   37.0510 H   0  0  0  0  0  0  0  0  0  0  0  0
  1 21  1  0  0  0  0
  2  1  1  0  0  0  0
  3  1  1  0  0  0  0
  4  1  1  0  0  0  0
  5  9  1  0  0  0  0
  5  4  1  0  0  0  0
  6  7  1  0  0  0  0
  6  5  2  0  0  0  0
  7  8  2  0  0  0  0
  8 11  1  0  0  0  0
  8  4  1  0  0  0  0
 10  6  1  0  0  0  0
 11 13  1  0  0  0  0
 11 14  1  1  0  0  0
 12 11  1  0  0  0  0
 12 13  1  0  0  0  0
 13 17  1  6  0  0  0
 13 18  1  0  0  0  0
 15 12  1  0  0  0  0
 16 12  1  0  0  0  0
 18 20  1  0  0  0  0
 19 18  1  0  0  0  0
 21 22  1  6  0  0  0
 21 32  1  0  0  0  0
 21 25  1  0  0  0  0
 23 29  1  0  0  0  0
 24 30  1  0  0  0  0
 24 23  2  0  0  0  0
 25 24  1  0  0  0  0
 26 25  2  0  0  0  0
 26 27  1  0  0  0  0
 27 28  2  0  0  0  0
 28 23  1  0  0  0  0
 31 27  1  0  0  0  0
 32 34  1  0  0  0  0
 32 35  1  0  0  0  0
 33 32  1  0  0  0  0
M  END
>  <minimizedAffinity>
-5.04686499

>  <minimizedRMSD>
0.646735847

$$$$
