
 OpenBabel03262519563D

 26 28  0  0  1  0  0  0  0  0999 V2000
   38.0200   24.9470   34.0470 C   0  0  0  0  0  0  0  0  0  0  0  0
   38.1190   24.2640   35.2470 C   0  0  0  0  0  0  0  0  0  0  0  0
   38.0120   25.2350   36.1900 N   0  0  0  0  0  0  0  0  0  0  0  0
   37.8620   26.4030   35.5730 C   0  0  0  0  0  0  0  0  0  0  0  0
   37.8640   26.2510   34.2310 N   0  0  0  0  0  0  0  0  0  0  0  0
   38.2510   23.1880   35.3310 H   0  0  0  0  0  0  0  0  0  0  0  0
   37.7600   27.2980   36.1880 H   0  0  0  0  0  0  0  0  0  0  0  0
   38.0800   24.3290   32.7230 C   0  0  0  0  0  0  0  0  0  0  0  0
   39.2720   24.3230   31.9950 C   0  0  0  0  0  0  0  0  0  0  0  0
   39.2990   23.7230   30.7270 C   0  0  0  0  0  0  0  0  0  0  0  0
   38.1440   23.1750   30.2830 N   0  0  0  0  0  0  0  0  0  0  0  0
   36.9910   23.1910   31.0080 C   0  0  0  0  0  0  0  0  0  0  0  0
   36.9610   23.7660   32.2240 N   0  0  0  0  0  0  0  0  0  0  0  0
   40.1850   24.7790   32.3950 H   0  0  0  0  0  0  0  0  0  0  0  0
   40.1980   23.6920   30.1250 H   0  0  0  0  0  0  0  0  0  0  0  0
   36.0860   22.7340   30.5980 H   0  0  0  0  0  0  0  0  0  0  0  0
   37.7190   27.3490   33.2990 C   0  0  1  0  0  0  0  0  0  0  0  0
   37.0330   27.2250   32.0210 C   0  0  0  0  0  0  0  0  0  0  0  0
   36.2580   27.8030   33.1820 C   0  0  2  0  0  0  0  0  0  0  0  0
   38.4720   28.1410   33.4000 H   0  0  0  0  0  0  0  0  0  0  0  0
   36.7880   26.2130   31.6320 H   0  0  0  0  0  0  0  0  0  0  0  0
   37.3090   27.9310   31.2120 H   0  0  0  0  0  0  0  0  0  0  0  0
   35.4580   27.1230   33.5260 H   0  0  0  0  0  0  0  0  0  0  0  0
   35.9360   29.2660   33.2490 C   0  0  0  0  0  3  0  0  0  0  0  0
   35.2290   29.6380   31.9620 C   0  0  0  0  0  1  0  0  0  0  0  0
   35.0520   29.6380   34.3930 C   0  0  0  0  0  1  0  0  0  0  0  0
  1  5  1  0  0  0  0
  1  2  2  0  0  0  0
  2  6  1  0  0  0  0
  2  3  1  0  0  0  0
  4  7  1  0  0  0  0
  4  3  2  0  0  0  0
  5  4  1  0  0  0  0
  8  1  1  0  0  0  0
  9 14  1  0  0  0  0
  9  8  2  0  0  0  0
 10  9  1  0  0  0  0
 11 10  2  0  0  0  0
 11 12  1  0  0  0  0
 12 13  2  0  0  0  0
 13  8  1  0  0  0  0
 15 10  1  0  0  0  0
 16 12  1  0  0  0  0
 17 20  1  1  0  0  0
 17  5  1  0  0  0  0
 18 19  1  0  0  0  0
 18 17  1  0  0  0  0
 19 24  1  0  0  0  0
 19 17  1  0  0  0  0
 19 23  1  1  0  0  0
 21 18  1  0  0  0  0
 22 18  1  0  0  0  0
 24 26  1  0  0  0  0
 25 24  1  0  0  0  0
M  END
>  <minimizedAffinity>
-3.49538946

>  <minimizedRMSD>
6.73694372

$$$$
