
 OpenBabel03262519503D

 18 18  0  0  0  0  0  0  0  0999 V2000
   39.4850   27.1530   32.6550 C   0  0  0  0  0  0  0  0  0  0  0  0
   39.4780   27.0070   34.0890 C   0  0  0  0  0  0  0  0  0  0  0  0
   38.2310   27.1100   34.7050 C   0  0  0  0  0  0  0  0  0  0  0  0
   37.0910   27.3350   33.9480 N   0  0  0  0  0  0  0  0  0  0  0  0
   37.1720   27.4580   32.6230 C   0  0  0  0  0  0  0  0  0  0  0  0
   38.3340   27.3710   31.9920 N   0  0  0  0  0  0  0  0  0  0  0  0
   40.3050   27.1210   31.9370 H   0  0  0  0  0  0  0  0  0  0  0  0
   36.1750   27.6250   32.2410 H   0  0  0  0  0  0  0  0  0  0  0  0
   38.4360   26.9650   36.1720 C   0  0  0  0  0  0  0  0  0  0  0  0
   37.6750   27.6370   36.6550 H   0  0  0  0  0  0  0  0  0  0  0  0
   39.4090   27.2750   36.5310 H   0  0  0  0  0  0  0  0  0  0  0  0
   38.0980   25.4970   36.5130 C   0  0  0  0  0  0  0  0  0  0  0  0
   39.1400   25.0600   36.7040 H   0  0  0  0  0  0  0  0  0  0  0  0
   37.6050   25.3830   37.4740 H   0  0  0  0  0  0  0  0  0  0  0  0
   37.7400   24.9230   35.6700 H   0  0  0  0  0  0  0  0  0  0  0  0
   40.8840   26.6970   34.4410 C   0  0  0  0  0  0  0  0  0  0  0  0
   41.1130   25.1610   34.3050 C   0  0  0  0  0  0  0  0  0  0  0  0
   41.8220   27.3650   33.4920 C   0  0  0  0  0  0  0  0  0  0  0  0
  1  2  1  0  0  0  0
  2 16  1  0  0  0  0
  2  3  2  0  0  0  0
  3  9  1  0  0  0  0
  4  3  1  0  0  0  0
  5  4  2  0  0  0  0
  6  5  1  0  0  0  0
  6  1  2  0  0  0  0
  7  1  1  0  0  0  0
  8  5  1  0  0  0  0
  9 12  1  0  0  0  0
  9 11  1  0  0  0  0
  9 10  1  0  0  0  0
 12 13  1  0  0  0  0
 12 14  1  0  0  0  0
 15 12  1  0  0  0  0
 17 16  1  0  0  0  0
 18 16  1  0  0  0  0
M  END
>  <minimizedAffinity>
-3.24444604

>  <minimizedRMSD>
6.16157818

$$$$
