
 OpenBabel03262519553D

 26 28  0  0  1  0  0  0  0  0999 V2000
   37.8500   24.2840   32.7960 C   0  0  0  0  0  0  0  0  0  0  0  0
   38.2600   25.4550   32.1820 C   0  0  0  0  0  0  0  0  0  0  0  0
   37.5920   25.4600   31.0010 N   0  0  0  0  0  0  0  0  0  0  0  0
   36.8440   24.3630   30.9370 C   0  0  0  0  0  0  0  0  0  0  0  0
   36.9870   23.6090   32.0490 N   0  0  0  0  0  0  0  0  0  0  0  0
   38.9650   26.1600   32.6170 H   0  0  0  0  0  0  0  0  0  0  0  0
   36.2350   24.2090   30.0450 H   0  0  0  0  0  0  0  0  0  0  0  0
   38.2990   23.8230   34.1100 C   0  0  0  0  0  0  0  0  0  0  0  0
   39.0660   22.6630   34.2310 C   0  0  0  0  0  0  0  0  0  0  0  0
   39.4820   22.2450   35.5040 C   0  0  0  0  0  0  0  0  0  0  0  0
   39.1070   23.0110   36.5550 N   0  0  0  0  0  0  0  0  0  0  0  0
   38.3590   24.1410   36.4150 C   0  0  0  0  0  0  0  0  0  0  0  0
   37.9570   24.5440   35.1960 N   0  0  0  0  0  0  0  0  0  0  0  0
   39.3470   22.0720   33.3510 H   0  0  0  0  0  0  0  0  0  0  0  0
   40.0780   21.3530   35.6500 H   0  0  0  0  0  0  0  0  0  0  0  0
   38.0840   24.7220   37.3000 H   0  0  0  0  0  0  0  0  0  0  0  0
   36.2950   22.3560   32.2620 C   0  0  1  0  0  0  0  0  0  0  0  0
   35.4440   21.7330   31.2590 C   0  0  0  0  0  0  0  0  0  0  0  0
   36.8660   21.2370   31.3820 C   0  0  2  0  0  0  0  0  0  0  0  0
   36.1120   22.1060   33.3150 H   0  0  0  0  0  0  0  0  0  0  0  0
   35.1310   22.3230   30.3700 H   0  0  0  0  0  0  0  0  0  0  0  0
   34.6490   21.0430   31.6070 H   0  0  0  0  0  0  0  0  0  0  0  0
   37.4770   21.5090   30.5020 H   0  0  0  0  0  0  0  0  0  0  0  0
   37.1730   19.9030   31.9940 C   0  0  0  0  0  3  0  0  0  0  0  0
   36.2610   18.8810   31.3470 C   0  0  0  0  0  1  0  0  0  0  0  0
   38.5850   19.4590   31.8000 C   0  0  0  0  0  1  0  0  0  0  0  0
  1  8  1  0  0  0  0
  2  6  1  0  0  0  0
  2  1  2  0  0  0  0
  3  2  1  0  0  0  0
  4  3  2  0  0  0  0
  4  5  1  0  0  0  0
  5 17  1  0  0  0  0
  5  1  1  0  0  0  0
  7  4  1  0  0  0  0
  8  9  2  0  0  0  0
  8 13  1  0  0  0  0
  9 10  1  0  0  0  0
 10 15  1  0  0  0  0
 10 11  2  0  0  0  0
 12 11  1  0  0  0  0
 12 16  1  0  0  0  0
 13 12  2  0  0  0  0
 14  9  1  0  0  0  0
 17 20  1  1  0  0  0
 18 19  1  0  0  0  0
 18 22  1  0  0  0  0
 18 17  1  0  0  0  0
 19 23  1  6  0  0  0
 19 24  1  0  0  0  0
 19 17  1  0  0  0  0
 21 18  1  0  0  0  0
 25 24  1  0  0  0  0
 26 24  1  0  0  0  0
M  END
>  <minimizedAffinity>
-3.72874546

>  <minimizedRMSD>
2.57410192

$$$$
