
 OpenBabel03262519553D

 26 28  0  0  1  0  0  0  0  0999 V2000
   38.0850   23.8460   34.5790 C   0  0  0  0  0  0  0  0  0  0  0  0
   38.1920   25.0690   33.9390 C   0  0  0  0  0  0  0  0  0  0  0  0
   37.7570   24.8210   32.6780 N   0  0  0  0  0  0  0  0  0  0  0  0
   37.4210   23.5370   32.5950 C   0  0  0  0  0  0  0  0  0  0  0  0
   37.6170   22.9040   33.7720 N   0  0  0  0  0  0  0  0  0  0  0  0
   38.5540   25.9790   34.4130 H   0  0  0  0  0  0  0  0  0  0  0  0
   37.0460   23.1660   31.6400 H   0  0  0  0  0  0  0  0  0  0  0  0
   38.4400   23.5960   35.9760 C   0  0  0  0  0  0  0  0  0  0  0  0
   39.6670   23.0170   36.3040 C   0  0  0  0  0  0  0  0  0  0  0  0
   39.9810   22.7890   37.6520 C   0  0  0  0  0  0  0  0  0  0  0  0
   39.0540   23.1550   38.5680 N   0  0  0  0  0  0  0  0  0  0  0  0
   37.8620   23.7190   38.2280 C   0  0  0  0  0  0  0  0  0  0  0  0
   37.5580   23.9390   36.9360 N   0  0  0  0  0  0  0  0  0  0  0  0
   40.3900   22.7360   35.5280 H   0  0  0  0  0  0  0  0  0  0  0  0
   40.9190   22.3430   37.9570 H   0  0  0  0  0  0  0  0  0  0  0  0
   37.1500   23.9950   39.0110 H   0  0  0  0  0  0  0  0  0  0  0  0
   37.3380   21.4990   33.9830 C   0  0  1  0  0  0  0  0  0  0  0  0
   36.1220   21.0140   34.6190 C   0  0  0  0  0  0  0  0  0  0  0  0
   36.1740   21.0150   33.1090 C   0  0  2  0  0  0  0  0  0  0  0  0
   38.2260   20.8550   34.0180 H   0  0  0  0  0  0  0  0  0  0  0  0
   35.4670   21.7320   35.1580 H   0  0  0  0  0  0  0  0  0  0  0  0
   36.1540   20.0220   35.1130 H   0  0  0  0  0  0  0  0  0  0  0  0
   35.4880   21.7630   32.6710 H   0  0  0  0  0  0  0  0  0  0  0  0
   36.3170   19.7390   32.3360 C   0  0  0  0  0  3  0  0  0  0  0  0
   35.2520   18.7810   32.8310 C   0  0  0  0  0  1  0  0  0  0  0  0
   36.1490   19.9030   30.8620 C   0  0  0  0  0  1  0  0  0  0  0  0
  1  8  1  0  0  0  0
  2  6  1  0  0  0  0
  2  1  2  0  0  0  0
  3  2  1  0  0  0  0
  4  3  2  0  0  0  0
  4  5  1  0  0  0  0
  5 17  1  0  0  0  0
  5  1  1  0  0  0  0
  7  4  1  0  0  0  0
  8  9  2  0  0  0  0
  8 13  1  0  0  0  0
  9 10  1  0  0  0  0
 10 15  1  0  0  0  0
 10 11  2  0  0  0  0
 12 11  1  0  0  0  0
 12 16  1  0  0  0  0
 13 12  2  0  0  0  0
 14  9  1  0  0  0  0
 17 20  1  1  0  0  0
 17 18  1  0  0  0  0
 18 22  1  0  0  0  0
 18 21  1  0  0  0  0
 19 23  1  6  0  0  0
 19 17  1  0  0  0  0
 19 18  1  0  0  0  0
 24 25  1  0  0  0  0
 24 19  1  0  0  0  0
 26 24  1  0  0  0  0
M  END
>  <minimizedAffinity>
-4.56331301

>  <minimizedRMSD>
0.750581205

$$$$
