
 OpenBabel03262519563D

 26 28  0  0  1  0  0  0  0  0999 V2000
   38.0840   23.8450   34.5800 C   0  0  0  0  0  0  0  0  0  0  0  0
   38.1910   25.0690   33.9390 C   0  0  0  0  0  0  0  0  0  0  0  0
   37.7550   24.8200   32.6780 N   0  0  0  0  0  0  0  0  0  0  0  0
   37.4190   23.5370   32.5960 C   0  0  0  0  0  0  0  0  0  0  0  0
   37.6150   22.9040   33.7720 N   0  0  0  0  0  0  0  0  0  0  0  0
   38.5530   25.9780   34.4130 H   0  0  0  0  0  0  0  0  0  0  0  0
   37.0440   23.1650   31.6410 H   0  0  0  0  0  0  0  0  0  0  0  0
   38.4390   23.5960   35.9770 C   0  0  0  0  0  0  0  0  0  0  0  0
   39.6670   23.0160   36.3030 C   0  0  0  0  0  0  0  0  0  0  0  0
   39.9810   22.7890   37.6520 C   0  0  0  0  0  0  0  0  0  0  0  0
   39.0550   23.1550   38.5680 N   0  0  0  0  0  0  0  0  0  0  0  0
   37.8620   23.7200   38.2280 C   0  0  0  0  0  0  0  0  0  0  0  0
   37.5580   23.9390   36.9360 N   0  0  0  0  0  0  0  0  0  0  0  0
   40.3890   22.7350   35.5270 H   0  0  0  0  0  0  0  0  0  0  0  0
   40.9190   22.3420   37.9560 H   0  0  0  0  0  0  0  0  0  0  0  0
   37.1500   23.9950   39.0110 H   0  0  0  0  0  0  0  0  0  0  0  0
   37.3370   21.4990   33.9840 C   0  0  1  0  0  0  0  0  0  0  0  0
   36.1200   21.0140   34.6190 C   0  0  0  0  0  0  0  0  0  0  0  0
   36.1730   21.0140   33.1090 C   0  0  2  0  0  0  0  0  0  0  0  0
   38.2250   20.8550   34.0200 H   0  0  0  0  0  0  0  0  0  0  0  0
   35.4650   21.7320   35.1580 H   0  0  0  0  0  0  0  0  0  0  0  0
   36.1520   20.0220   35.1130 H   0  0  0  0  0  0  0  0  0  0  0  0
   35.4870   21.7620   32.6710 H   0  0  0  0  0  0  0  0  0  0  0  0
   36.3170   19.7380   32.3370 C   0  0  0  0  0  3  0  0  0  0  0  0
   35.2520   18.7800   32.8310 C   0  0  0  0  0  1  0  0  0  0  0  0
   36.1480   19.9020   30.8620 C   0  0  0  0  0  1  0  0  0  0  0  0
  1  8  1  0  0  0  0
  2  6  1  0  0  0  0
  2  1  2  0  0  0  0
  3  2  1  0  0  0  0
  4  3  2  0  0  0  0
  4  5  1  0  0  0  0
  5 17  1  0  0  0  0
  5  1  1  0  0  0  0
  7  4  1  0  0  0  0
  8  9  2  0  0  0  0
  8 13  1  0  0  0  0
  9 10  1  0  0  0  0
 10 15  1  0  0  0  0
 10 11  2  0  0  0  0
 12 11  1  0  0  0  0
 12 16  1  0  0  0  0
 13 12  2  0  0  0  0
 14  9  1  0  0  0  0
 17 20  1  1  0  0  0
 17 18  1  0  0  0  0
 18 22  1  0  0  0  0
 18 21  1  0  0  0  0
 19 23  1  6  0  0  0
 19 17  1  0  0  0  0
 19 18  1  0  0  0  0
 24 25  1  0  0  0  0
 24 19  1  0  0  0  0
 26 24  1  0  0  0  0
M  END
>  <minimizedAffinity>
-4.56363153

>  <minimizedRMSD>
0.674305975

$$$$
