
 OpenBabel03262518473D

 25 26  0  0  0  0  0  0  0  0999 V2000
   36.2550   22.0280   32.5430 C   0  0  0  0  0  0  0  0  0  0  0  0
   37.3940   22.6200   33.0420 C   0  0  0  0  0  0  0  0  0  0  0  0
   37.6380   23.9030   32.5940 C   0  0  0  0  0  0  0  0  0  0  0  0
   36.8240   24.5930   31.7030 C   0  0  0  0  0  0  0  0  0  0  0  0
   35.7060   23.9420   31.2470 C   0  0  0  0  0  0  0  0  0  0  0  0
   35.3880   22.6510   31.6490 C   0  0  0  0  0  0  0  0  0  0  0  0
   38.5120   24.4430   32.9350 H   0  0  0  0  0  0  0  0  0  0  0  0
   35.0570   24.4570   30.5520 H   0  0  0  0  0  0  0  0  0  0  0  0
   34.5070   22.1340   31.2910 H   0  0  0  0  0  0  0  0  0  0  0  0
   36.5370   28.0560   30.5320 C   0  0  0  0  0  0  0  0  0  0  0  0
   37.8900   28.4960   30.5490 C   0  0  0  0  0  0  0  0  0  0  0  0
   38.8700   27.5800   30.9670 C   0  0  0  0  0  0  0  0  0  0  0  0
   38.4780   26.3330   31.3290 N   0  0  0  0  0  0  0  0  0  0  0  0
   37.1900   25.9570   31.2990 C   0  0  0  0  0  0  0  0  0  0  0  0
   36.2370   26.7970   30.9100 N   0  0  0  0  0  0  0  0  0  0  0  0
   35.8030   28.7820   30.2060 H   0  0  0  0  0  0  0  0  0  0  0  0
   38.1040   29.5060   30.2430 H   0  0  0  0  0  0  0  0  0  0  0  0
   39.8910   27.8940   30.9850 H   0  0  0  0  0  0  0  0  0  0  0  0
   35.8530   20.4210   33.0570 S   0  0  0  0  0  0  0  0  0  0  0  0
   35.4210   20.3370   34.4780 O   0  0  0  0  0  0  0  0  0  0  0  0
   34.7760   19.9250   32.1530 O   0  0  0  0  0  0  0  0  0  0  0  0
   36.9090   19.5380   32.9430 H   0  0  0  0  0  0  0  0  0  0  0  0
   38.3230   21.9790   33.9860 C   0  0  0  0  0  0  0  0  0  0  0  0
   39.7650   22.3180   33.5600 C   0  0  0  0  0  0  0  0  0  0  0  0
   38.2040   22.4400   35.4040 C   0  0  0  0  0  0  0  0  0  0  0  0
  1  2  1  0  0  0  0
  1 19  1  0  0  0  0
  2 23  1  0  0  0  0
  3  7  1  0  0  0  0
  3  2  2  0  0  0  0
  4  3  1  0  0  0  0
  5  6  1  0  0  0  0
  5  4  2  0  0  0  0
  6  1  2  0  0  0  0
  8  5  1  0  0  0  0
  9  6  1  0  0  0  0
 10 11  2  0  0  0  0
 10 15  1  0  0  0  0
 11 12  1  0  0  0  0
 12 18  1  0  0  0  0
 12 13  2  0  0  0  0
 14 13  1  0  0  0  0
 14  4  1  0  0  0  0
 15 14  2  0  0  0  0
 16 10  1  0  0  0  0
 17 11  1  0  0  0  0
 19 20  2  0  0  0  0
 21 19  2  0  0  0  0
 22 19  1  0  0  0  0
 23 25  1  0  0  0  0
 24 23  1  0  0  0  0
M  END
>  <minimizedAffinity>
-4.21630287

>  <minimizedRMSD>
5.73446894

$$$$
