
 OpenBabel03262519563D

 26 28  0  0  1  0  0  0  0  0999 V2000
   38.0850   23.8490   34.5840 C   0  0  0  0  0  0  0  0  0  0  0  0
   38.1900   25.0730   33.9450 C   0  0  0  0  0  0  0  0  0  0  0  0
   37.7550   24.8260   32.6840 N   0  0  0  0  0  0  0  0  0  0  0  0
   37.4200   23.5430   32.6000 C   0  0  0  0  0  0  0  0  0  0  0  0
   37.6170   22.9080   33.7750 N   0  0  0  0  0  0  0  0  0  0  0  0
   38.5520   25.9830   34.4200 H   0  0  0  0  0  0  0  0  0  0  0  0
   37.0450   23.1720   31.6440 H   0  0  0  0  0  0  0  0  0  0  0  0
   38.4410   23.5980   35.9800 C   0  0  0  0  0  0  0  0  0  0  0  0
   39.6690   23.0200   36.3060 C   0  0  0  0  0  0  0  0  0  0  0  0
   39.9830   22.7900   37.6540 C   0  0  0  0  0  0  0  0  0  0  0  0
   39.0560   23.1540   38.5710 N   0  0  0  0  0  0  0  0  0  0  0  0
   37.8630   23.7180   38.2320 C   0  0  0  0  0  0  0  0  0  0  0  0
   37.5590   23.9390   36.9410 N   0  0  0  0  0  0  0  0  0  0  0  0
   40.3910   22.7400   35.5300 H   0  0  0  0  0  0  0  0  0  0  0  0
   40.9220   22.3450   37.9580 H   0  0  0  0  0  0  0  0  0  0  0  0
   37.1510   23.9920   39.0160 H   0  0  0  0  0  0  0  0  0  0  0  0
   37.3400   21.5030   33.9850 C   0  0  1  0  0  0  0  0  0  0  0  0
   36.1240   21.0160   34.6210 C   0  0  0  0  0  0  0  0  0  0  0  0
   36.1760   21.0190   33.1100 C   0  0  2  0  0  0  0  0  0  0  0  0
   38.2280   20.8590   34.0190 H   0  0  0  0  0  0  0  0  0  0  0  0
   35.4680   21.7330   35.1600 H   0  0  0  0  0  0  0  0  0  0  0  0
   36.1570   20.0230   35.1130 H   0  0  0  0  0  0  0  0  0  0  0  0
   35.4890   21.7660   32.6740 H   0  0  0  0  0  0  0  0  0  0  0  0
   36.3200   19.7430   32.3360 C   0  0  0  0  0  3  0  0  0  0  0  0
   35.2560   18.7840   32.8310 C   0  0  0  0  0  1  0  0  0  0  0  0
   36.1490   19.9100   30.8630 C   0  0  0  0  0  1  0  0  0  0  0  0
  1  8  1  0  0  0  0
  2  6  1  0  0  0  0
  2  1  2  0  0  0  0
  3  2  1  0  0  0  0
  4  3  2  0  0  0  0
  4  5  1  0  0  0  0
  5 17  1  0  0  0  0
  5  1  1  0  0  0  0
  7  4  1  0  0  0  0
  8  9  2  0  0  0  0
  8 13  1  0  0  0  0
  9 10  1  0  0  0  0
 10 15  1  0  0  0  0
 10 11  2  0  0  0  0
 12 11  1  0  0  0  0
 12 16  1  0  0  0  0
 13 12  2  0  0  0  0
 14  9  1  0  0  0  0
 17 20  1  1  0  0  0
 17 18  1  0  0  0  0
 18 22  1  0  0  0  0
 18 21  1  0  0  0  0
 19 23  1  6  0  0  0
 19 17  1  0  0  0  0
 19 18  1  0  0  0  0
 24 25  1  0  0  0  0
 24 19  1  0  0  0  0
 26 24  1  0  0  0  0
M  END
>  <minimizedAffinity>
-4.56560993

>  <minimizedRMSD>
0.923522353

$$$$
