
 OpenBabel03262519253D

 40 44  0  0  0  0  0  0  0  0999 V2000
   39.6620   25.3860   32.5920 C   0  0  0  0  0  0  0  0  0  0  0  0
   39.8160   25.9170   33.9500 C   0  0  0  0  0  0  0  0  0  0  0  0
   40.6580   27.0280   34.1250 C   0  0  0  0  0  0  0  0  0  0  0  0
   41.3060   27.5570   33.0310 N   0  0  0  0  0  0  0  0  0  0  0  0
   41.1690   27.0420   31.8160 C   0  0  0  0  0  0  0  0  0  0  0  0
   40.3840   26.0420   31.7410 N   0  0  0  0  0  0  0  0  0  0  0  0
   40.7470   27.4100   35.1430 H   0  0  0  0  0  0  0  0  0  0  0  0
   41.7480   27.5500   31.0580 H   0  0  0  0  0  0  0  0  0  0  0  0
   38.9190   24.2570   32.2850 C   0  0  0  0  0  0  0  0  0  0  0  0
   39.4970   23.0180   32.4040 C   0  0  0  0  0  0  0  0  0  0  0  0
   38.7980   21.8280   32.1100 C   0  0  0  0  0  0  0  0  0  0  0  0
   37.4820   21.9030   31.6880 C   0  0  0  0  0  0  0  0  0  0  0  0
   36.8970   23.1480   31.5670 C   0  0  0  0  0  0  0  0  0  0  0  0
   35.5670   23.2560   31.1960 C   0  0  0  0  0  0  0  0  0  0  0  0
   34.9340   24.4410   31.1120 C   0  0  0  0  0  0  0  0  0  0  0  0
   35.6990   25.5650   31.4070 C   0  0  0  0  0  0  0  0  0  0  0  0
   36.9970   25.5120   31.7570 C   0  0  0  0  0  0  0  0  0  0  0  0
   37.6360   24.2860   31.8660 C   0  0  0  0  0  0  0  0  0  0  0  0
   40.5240   22.9410   32.7340 H   0  0  0  0  0  0  0  0  0  0  0  0
   39.3440   20.9120   32.2350 H   0  0  0  0  0  0  0  0  0  0  0  0
   36.9460   20.9930   31.4640 H   0  0  0  0  0  0  0  0  0  0  0  0
   35.1100   22.2900   30.9880 H   0  0  0  0  0  0  0  0  0  0  0  0
   33.9070   24.3270   30.8170 H   0  0  0  0  0  0  0  0  0  0  0  0
   34.9010   26.3250   31.2740 H   0  0  0  0  0  0  0  0  0  0  0  0
   37.5600   26.8810   31.7850 C   0  0  0  0  0  0  0  0  0  0  0  0
   36.3980   27.8560   31.3010 C   0  0  0  0  0  0  0  0  0  0  0  0
   37.6470   27.7440   32.9170 C   0  0  0  0  0  0  0  0  0  0  0  0
   38.1790   27.1120   30.4270 C   0  0  0  0  0  0  0  0  0  0  0  0
   39.2220   25.2520   34.9990 N   0  0  0  0  0  0  0  0  0  0  0  0
   37.9850   25.4380   35.4310 C   0  0  0  0  0  0  0  0  0  0  0  0
   37.6850   24.6400   36.4790 N   0  0  0  0  0  0  0  0  0  0  0  0
   38.8080   23.9050   36.7190 C   0  0  0  0  0  0  0  0  0  0  0  0
   39.1380   22.9320   37.6300 C   0  0  0  0  0  0  0  0  0  0  0  0
   40.3390   22.3250   37.6780 N   0  0  0  0  0  0  0  0  0  0  0  0
   41.2360   22.7410   36.7440 C   0  0  0  0  0  0  0  0  0  0  0  0
   40.8950   23.6860   35.8690 N   0  0  0  0  0  0  0  0  0  0  0  0
   39.7340   24.3030   35.7920 C   0  0  0  0  0  0  0  0  0  0  0  0
   37.0860   26.0040   35.2540 H   0  0  0  0  0  0  0  0  0  0  0  0
   38.4140   22.6010   38.3780 H   0  0  0  0  0  0  0  0  0  0  0  0
   42.2220   22.3190   36.6960 H   0  0  0  0  0  0  0  0  0  0  0  0
  1  2  1  0  0  0  0
  2  3  2  0  0  0  0
  2 29  1  0  0  0  0
  3  7  1  0  0  0  0
  4  3  1  0  0  0  0
  5  4  2  0  0  0  0
  6  5  1  0  0  0  0
  6  1  2  0  0  0  0
  8  5  1  0  0  0  0
  9 10  1  0  0  0  0
  9  1  1  0  0  0  0
 10 19  1  0  0  0  0
 11 20  1  0  0  0  0
 11 10  2  0  0  0  0
 12 11  1  0  0  0  0
 13 12  2  0  0  0  0
 13 18  1  0  0  0  0
 14 13  1  0  0  0  0
 15 14  2  0  0  0  0
 15 16  1  0  0  0  0
 16 17  2  0  0  0  0
 17 25  1  0  0  0  0
 17 18  1  0  0  0  0
 18  9  2  0  0  0  0
 21 12  1  0  0  0  0
 22 14  1  0  0  0  0
 23 15  1  0  0  0  0
 24 16  1  0  0  0  0
 25 27  1  0  0  0  0
 26 25  1  0  0  0  0
 28 25  1  0  0  0  0
 29 30  1  0  0  0  0
 29 37  1  0  0  0  0
 30 31  2  0  0  0  0
 31 32  1  0  0  0  0
 32 33  1  0  0  0  0
 33 34  2  0  0  0  0
 33 39  1  0  0  0  0
 35 34  1  0  0  0  0
 36 35  2  0  0  0  0
 37 36  1  0  0  0  0
 37 32  2  0  0  0  0
 38 30  1  0  0  0  0
 40 35  1  0  0  0  0
M  END
>  <minimizedAffinity>
-6.04805183

>  <minimizedRMSD>
0.417950004

$$$$
