
 OpenBabel03262519563D

 27 29  0  0  1  0  0  0  0  0999 V2000
   36.4700   27.2310   32.4950 C   0  0  0  0  0  0  0  0  0  0  0  0
   35.4470   28.0750   32.0980 C   0  0  0  0  0  0  0  0  0  0  0  0
   35.3860   28.9980   33.1070 N   0  0  0  0  0  0  0  0  0  0  0  0
   36.3150   28.6890   34.0060 C   0  0  0  0  0  0  0  0  0  0  0  0
   37.0140   27.5830   33.6510 N   0  0  0  0  0  0  0  0  0  0  0  0
   34.8470   28.0010   31.1950 H   0  0  0  0  0  0  0  0  0  0  0  0
   36.4790   29.2750   34.9200 H   0  0  0  0  0  0  0  0  0  0  0  0
   36.9230   26.0610   31.7320 C   0  0  0  0  0  0  0  0  0  0  0  0
   36.1880   24.8760   31.7520 C   0  0  0  0  0  0  0  0  0  0  0  0
   36.6620   23.7780   31.0030 C   0  0  0  0  0  0  0  0  0  0  0  0
   37.8110   23.9470   30.3080 N   0  0  0  0  0  0  0  0  0  0  0  0
   38.5040   25.1020   30.3030 C   0  0  0  0  0  0  0  0  0  0  0  0
   38.0660   26.1650   31.0140 N   0  0  0  0  0  0  0  0  0  0  0  0
   35.2750   24.8020   32.3280 H   0  0  0  0  0  0  0  0  0  0  0  0
   36.1060   22.8440   31.0040 H   0  0  0  0  0  0  0  0  0  0  0  0
   39.4290   25.2190   29.7370 H   0  0  0  0  0  0  0  0  0  0  0  0
   38.0720   27.0290   34.4380 C   0  0  1  0  0  0  0  0  0  0  0  0
   38.1590   27.2180   35.8880 C   0  0  0  0  0  0  0  0  0  0  0  0
   37.5960   25.9190   35.3770 C   0  0  2  0  0  0  0  0  0  0  0  0
   38.9430   26.7040   33.8110 H   0  0  0  0  0  0  0  0  0  0  0  0
   37.4070   27.9370   36.3100 H   0  0  0  0  0  0  0  0  0  0  0  0
   39.1260   27.2930   36.3820 H   0  0  0  0  0  0  0  0  0  0  0  0
   36.5270   25.7450   35.4920 H   0  0  0  0  0  0  0  0  0  0  0  0
   38.4740   24.7320   35.6230 C   0  0  0  0  0  0  0  0  0  0  0  0
   39.9390   25.0250   35.4500 C   0  0  0  0  0  1  0  0  0  0  0  0
   38.0990   23.5140   34.8040 C   0  0  0  0  0  1  0  0  0  0  0  0
   38.2950   24.3450   37.0800 C   0  0  0  0  0  1  0  0  0  0  0  0
  1  5  1  0  0  0  0
  2  1  2  0  0  0  0
  2  3  1  0  0  0  0
  3  4  2  0  0  0  0
  4  7  1  0  0  0  0
  5  4  1  0  0  0  0
  5 17  1  0  0  0  0
  6  2  1  0  0  0  0
  8  9  1  0  0  0  0
  8  1  1  0  0  0  0
  9 14  1  0  0  0  0
 10 15  1  0  0  0  0
 10  9  2  0  0  0  0
 11 10  1  0  0  0  0
 12 11  2  0  0  0  0
 12 13  1  0  0  0  0
 13  8  2  0  0  0  0
 16 12  1  0  0  0  0
 17 20  1  6  0  0  0
 17 19  1  0  0  0  0
 17 18  1  0  0  0  0
 18 21  1  0  0  0  0
 18 22  1  0  0  0  0
 19 23  1  1  0  0  0
 19 24  1  0  0  0  0
 19 18  1  0  0  0  0
 24 27  1  0  0  0  0
 25 24  1  0  0  0  0
 26 24  1  0  0  0  0
M  END
>  <minimizedAffinity>
-4.33092022

>  <minimizedRMSD>
6.44274712

$$$$
