
 OpenBabel03262519463D

 36 38  0  0  1  0  0  0  0  0999 V2000
   38.5900   25.6640   34.0400 C   0  0  0  0  0  0  0  0  0  0  0  0
   39.0940   26.6280   33.7680 H   0  0  0  0  0  0  0  0  0  0  0  0
   39.3970   24.8860   34.0110 H   0  0  0  0  0  0  0  0  0  0  0  0
   37.6090   25.3310   33.0800 N   0  0  0  0  0  0  0  0  0  0  0  0
   37.1700   24.1950   32.5380 C   0  0  0  0  0  0  0  0  0  0  0  0
   36.1590   24.3660   31.6230 C   0  0  0  0  0  0  0  0  0  0  0  0
   35.9630   25.6790   31.5960 N   0  0  0  0  0  0  0  0  0  0  0  0
   36.8370   26.2680   32.4750 C   0  0  0  0  0  0  0  0  0  0  0  0
   37.5980   23.2180   32.8190 H   0  0  0  0  0  0  0  0  0  0  0  0
   35.6570   23.5850   31.0650 H   0  0  0  0  0  0  0  0  0  0  0  0
   36.8500   27.7780   32.6220 C   0  0  1  0  0  0  0  0  0  0  0  0
   36.5200   28.5250   31.3860 C   0  0  0  0  0  0  0  0  0  0  0  0
   35.5180   28.4650   32.5210 C   0  0  2  0  0  0  0  0  0  0  0  0
   37.5120   28.1110   33.4220 H   0  0  0  0  0  0  0  0  0  0  0  0
   37.1440   29.3950   31.1980 H   0  0  0  0  0  0  0  0  0  0  0  0
   36.3220   27.9340   30.4490 H   0  0  0  0  0  0  0  0  0  0  0  0
   34.6660   27.7800   32.2950 H   0  0  0  0  0  0  0  0  0  0  0  0
   35.2000   29.8180   32.9830 C   0  0  0  0  0  0  0  0  0  0  0  0
   35.5190   29.8980   34.4880 C   0  0  0  0  0  0  0  0  0  0  0  0
   33.7050   30.1860   32.9510 C   0  0  0  0  0  0  0  0  0  0  0  0
   35.8910   30.9710   32.3540 C   0  0  0  0  0  0  0  0  0  0  0  0
   38.0620   25.7230   35.4250 C   0  0  1  0  0  0  0  0  0  0  0  0
   36.9520   25.5500   35.4100 H   0  0  0  0  0  0  0  0  0  0  0  0
   38.6560   23.4230   38.3740 C   0  0  0  0  0  0  0  0  0  0  0  0
   38.0500   24.4370   37.6120 C   0  0  0  0  0  0  0  0  0  0  0  0
   38.6350   24.6850   36.3160 C   0  0  0  0  0  0  0  0  0  0  0  0
   39.7250   23.9450   35.8890 N   0  0  0  0  0  0  0  0  0  0  0  0
   40.2510   22.9980   36.6630 C   0  0  0  0  0  0  0  0  0  0  0  0
   39.7130   22.7350   37.9150 N   0  0  0  0  0  0  0  0  0  0  0  0
   38.1960   23.2740   39.3200 H   0  0  0  0  0  0  0  0  0  0  0  0
   37.2160   25.0360   37.8820 H   0  0  0  0  0  0  0  0  0  0  0  0
   41.0950   22.4610   36.2730 H   0  0  0  0  0  0  0  0  0  0  0  0
   38.3020   27.1050   36.0200 C   0  0  0  0  0  0  0  0  0  0  0  0
   39.0680   26.9820   36.8420 H   0  0  0  0  0  0  0  0  0  0  0  0
   38.8030   27.7300   35.2730 H   0  0  0  0  0  0  0  0  0  0  0  0
   37.3860   27.4890   36.4590 H   0  0  0  0  0  0  0  0  0  0  0  0
  1 22  1  0  0  0  0
  2  1  1  0  0  0  0
  3  1  1  0  0  0  0
  4  1  1  0  0  0  0
  5  9  1  0  0  0  0
  5  4  1  0  0  0  0
  6  5  2  0  0  0  0
  7  6  1  0  0  0  0
  7  8  2  0  0  0  0
  8 11  1  0  0  0  0
  8  4  1  0  0  0  0
 10  6  1  0  0  0  0
 11 14  1  1  0  0  0
 12 13  1  0  0  0  0
 12 11  1  0  0  0  0
 13 17  1  6  0  0  0
 13 11  1  0  0  0  0
 13 18  1  0  0  0  0
 15 12  1  0  0  0  0
 16 12  1  0  0  0  0
 18 19  1  0  0  0  0
 20 18  1  0  0  0  0
 21 18  1  0  0  0  0
 22 23  1  6  0  0  0
 22 33  1  0  0  0  0
 22 26  1  0  0  0  0
 24 30  1  0  0  0  0
 25 31  1  0  0  0  0
 25 24  2  0  0  0  0
 26 25  1  0  0  0  0
 27 26  2  0  0  0  0
 27 28  1  0  0  0  0
 28 29  2  0  0  0  0
 29 24  1  0  0  0  0
 32 28  1  0  0  0  0
 33 36  1  0  0  0  0
 33 34  1  0  0  0  0
 35 33  1  0  0  0  0
M  END
>  <minimizedAffinity>
-5.25329638

>  <minimizedRMSD>
1.02851343

$$$$
