
 OpenBabel03262519563D

 27 29  0  0  1  0  0  0  0  0999 V2000
   39.7820   25.9670   30.5860 C   0  0  0  0  0  0  0  0  0  0  0  0
   39.8230   25.0090   29.5870 C   0  0  0  0  0  0  0  0  0  0  0  0
   38.6660   24.3020   29.7760 N   0  0  0  0  0  0  0  0  0  0  0  0
   38.0230   24.8320   30.8110 C   0  0  0  0  0  0  0  0  0  0  0  0
   38.6980   25.8810   31.3420 N   0  0  0  0  0  0  0  0  0  0  0  0
   40.6020   24.8700   28.8420 H   0  0  0  0  0  0  0  0  0  0  0  0
   37.0600   24.4500   31.1740 H   0  0  0  0  0  0  0  0  0  0  0  0
   40.8200   26.9830   30.8040 C   0  0  0  0  0  0  0  0  0  0  0  0
   41.7000   26.8750   31.8800 C   0  0  0  0  0  0  0  0  0  0  0  0
   42.6810   27.8750   32.0490 C   0  0  0  0  0  0  0  0  0  0  0  0
   42.7030   28.8840   31.1480 N   0  0  0  0  0  0  0  0  0  0  0  0
   41.8430   28.9670   30.1150 C   0  0  0  0  0  0  0  0  0  0  0  0
   40.8960   28.0190   29.9360 N   0  0  0  0  0  0  0  0  0  0  0  0
   41.6310   26.0420   32.5680 H   0  0  0  0  0  0  0  0  0  0  0  0
   43.3770   27.8130   32.8810 H   0  0  0  0  0  0  0  0  0  0  0  0
   41.8770   29.7900   29.3990 H   0  0  0  0  0  0  0  0  0  0  0  0
   38.2320   26.6340   32.4650 C   0  0  1  0  0  0  0  0  0  0  0  0
   36.9510   26.3620   33.1220 C   0  0  0  0  0  0  0  0  0  0  0  0
   38.2010   25.8170   33.7580 C   0  0  2  0  0  0  0  0  0  0  0  0
   38.7900   27.5990   32.5920 H   0  0  0  0  0  0  0  0  0  0  0  0
   36.3090   25.6060   32.5950 H   0  0  0  0  0  0  0  0  0  0  0  0
   36.3670   27.1700   33.5580 H   0  0  0  0  0  0  0  0  0  0  0  0
   38.3730   24.7420   33.7100 H   0  0  0  0  0  0  0  0  0  0  0  0
   38.5640   26.4710   35.0560 C   0  0  0  0  0  0  0  0  0  0  0  0
   37.7340   27.6880   35.3630 C   0  0  0  0  0  1  0  0  0  0  0  0
   40.0350   26.8120   35.1780 C   0  0  0  0  0  1  0  0  0  0  0  0
   38.2590   25.4700   36.1550 C   0  0  0  0  0  1  0  0  0  0  0  0
  1  8  1  0  0  0  0
  1  5  1  0  0  0  0
  2  3  1  0  0  0  0
  2  1  2  0  0  0  0
  3  4  2  0  0  0  0
  4  7  1  0  0  0  0
  4  5  1  0  0  0  0
  5 17  1  0  0  0  0
  6  2  1  0  0  0  0
  8  9  1  0  0  0  0
  9 10  2  0  0  0  0
  9 14  1  0  0  0  0
 10 15  1  0  0  0  0
 11 10  1  0  0  0  0
 12 11  2  0  0  0  0
 13 12  1  0  0  0  0
 13  8  2  0  0  0  0
 16 12  1  0  0  0  0
 17 20  1  1  0  0  0
 17 18  1  0  0  0  0
 17 19  1  0  0  0  0
 18 22  1  0  0  0  0
 18 19  1  0  0  0  0
 19 23  1  6  0  0  0
 19 24  1  0  0  0  0
 21 18  1  0  0  0  0
 24 26  1  0  0  0  0
 24 25  1  0  0  0  0
 24 27  1  0  0  0  0
M  END
>  <minimizedAffinity>
-3.51134467

>  <minimizedRMSD>
7.20002127

$$$$
