
 OpenBabel03262519553D

 27 29  0  0  1  0  0  0  0  0999 V2000
   37.9040   24.0210   33.3610 C   0  0  0  0  0  0  0  0  0  0  0  0
   38.1760   25.2680   32.8240 C   0  0  0  0  0  0  0  0  0  0  0  0
   37.4310   25.2890   31.6750 N   0  0  0  0  0  0  0  0  0  0  0  0
   36.7860   24.1310   31.5800 C   0  0  0  0  0  0  0  0  0  0  0  0
   37.0610   23.3120   32.6250 N   0  0  0  0  0  0  0  0  0  0  0  0
   38.8310   26.0320   33.2340 H   0  0  0  0  0  0  0  0  0  0  0  0
   36.1140   23.8880   30.7460 H   0  0  0  0  0  0  0  0  0  0  0  0
   38.4760   23.5170   34.6160 C   0  0  0  0  0  0  0  0  0  0  0  0
   39.5530   22.6310   34.5960 C   0  0  0  0  0  0  0  0  0  0  0  0
   40.0700   22.1730   35.8260 C   0  0  0  0  0  0  0  0  0  0  0  0
   39.4810   22.6260   36.9560 N   0  0  0  0  0  0  0  0  0  0  0  0
   38.4410   23.4830   36.9520 C   0  0  0  0  0  0  0  0  0  0  0  0
   37.9330   23.9330   35.7830 N   0  0  0  0  0  0  0  0  0  0  0  0
   39.9810   22.3040   33.6560 H   0  0  0  0  0  0  0  0  0  0  0  0
   40.9090   21.4810   35.8340 H   0  0  0  0  0  0  0  0  0  0  0  0
   37.9800   23.8370   37.8750 H   0  0  0  0  0  0  0  0  0  0  0  0
   36.5020   22.0040   32.7730 C   0  0  1  0  0  0  0  0  0  0  0  0
   35.1700   21.6530   32.2740 C   0  0  0  0  0  0  0  0  0  0  0  0
   36.3630   21.2620   31.4430 C   0  0  2  0  0  0  0  0  0  0  0  0
   37.0470   21.3920   33.5400 H   0  0  0  0  0  0  0  0  0  0  0  0
   34.5750   22.5220   31.8850 H   0  0  0  0  0  0  0  0  0  0  0  0
   34.5510   20.9300   32.8010 H   0  0  0  0  0  0  0  0  0  0  0  0
   36.5380   21.8030   30.5130 H   0  0  0  0  0  0  0  0  0  0  0  0
   36.6140   19.7860   31.3890 C   0  0  0  0  0  0  0  0  0  0  0  0
   36.5170   19.2160   30.0010 C   0  0  0  0  0  1  0  0  0  0  0  0
   35.7420   18.9830   32.3320 C   0  0  0  0  0  1  0  0  0  0  0  0
   38.0480   19.5660   31.8320 C   0  0  0  0  0  1  0  0  0  0  0  0
  1  8  1  0  0  0  0
  2  6  1  0  0  0  0
  2  1  2  0  0  0  0
  3  2  1  0  0  0  0
  4  3  2  0  0  0  0
  4  5  1  0  0  0  0
  5 17  1  0  0  0  0
  5  1  1  0  0  0  0
  7  4  1  0  0  0  0
  8 13  1  0  0  0  0
  9  8  2  0  0  0  0
  9 10  1  0  0  0  0
 10 15  1  0  0  0  0
 10 11  2  0  0  0  0
 12 11  1  0  0  0  0
 12 16  1  0  0  0  0
 13 12  2  0  0  0  0
 14  9  1  0  0  0  0
 17 20  1  1  0  0  0
 18 17  1  0  0  0  0
 18 22  1  0  0  0  0
 19 23  1  6  0  0  0
 19 18  1  0  0  0  0
 19 17  1  0  0  0  0
 21 18  1  0  0  0  0
 24 19  1  0  0  0  0
 24 27  1  0  0  0  0
 24 26  1  0  0  0  0
 25 24  1  0  0  0  0
M  END
>  <minimizedAffinity>
-4.14242315

>  <minimizedRMSD>
1.9843713

$$$$
