
 OpenBabel03262518113D

 20 21  0  0  0  0  0  0  0  0999 V2000
   42.5350   20.7850   37.0390 C   0  0  0  0  0  0  0  0  0  0  0  0
   41.4360   21.4600   37.5730 C   0  0  0  0  0  0  0  0  0  0  0  0
   40.5960   22.1680   36.7060 C   0  0  0  0  0  0  0  0  0  0  0  0
   40.8990   22.1610   35.3700 N   0  0  0  0  0  0  0  0  0  0  0  0
   41.9710   21.4940   34.8990 C   0  0  0  0  0  0  0  0  0  0  0  0
   42.7800   20.8150   35.7160 N   0  0  0  0  0  0  0  0  0  0  0  0
   43.1950   20.2330   37.6950 H   0  0  0  0  0  0  0  0  0  0  0  0
   41.2620   21.4210   38.6310 H   0  0  0  0  0  0  0  0  0  0  0  0
   39.4440   22.8760   37.2670 C   0  0  0  0  0  0  0  0  0  0  0  0
   38.5930   23.6760   36.5010 C   0  0  0  0  0  0  0  0  0  0  0  0
   37.6620   24.1480   37.3800 N   0  0  0  0  0  0  0  0  0  0  0  0
   37.9640   23.6410   38.6010 C   0  0  0  0  0  0  0  0  0  0  0  0
   39.0390   22.8700   38.5450 N   0  0  0  0  0  0  0  0  0  0  0  0
   38.6790   23.8650   35.4320 H   0  0  0  0  0  0  0  0  0  0  0  0
   37.3690   23.8690   39.4770 H   0  0  0  0  0  0  0  0  0  0  0  0
   39.4810   22.3640   39.3270 H   0  0  0  0  0  0  0  0  0  0  0  0
   42.2420   21.5280   33.4340 C   0  0  0  0  0  0  0  0  0  0  0  0
   41.3140   20.5210   32.7770 C   0  0  0  0  0  0  0  0  0  0  0  0
   41.8290   22.8940   32.8900 C   0  0  0  0  0  0  0  0  0  0  0  0
   43.6750   21.2320   33.1210 C   0  0  0  0  0  0  0  0  0  0  0  0
  1  2  1  0  0  0  0
  1  7  1  0  0  0  0
  2  8  1  0  0  0  0
  3  9  1  0  0  0  0
  3  2  2  0  0  0  0
  4  3  1  0  0  0  0
  5  4  2  0  0  0  0
  5  6  1  0  0  0  0
  6  1  2  0  0  0  0
  9 13  1  0  0  0  0
 10  9  2  0  0  0  0
 10 11  1  0  0  0  0
 11 12  2  0  0  0  0
 12 15  1  0  0  0  0
 13 12  1  0  0  0  0
 13 16  1  0  0  0  0
 14 10  1  0  0  0  0
 17  5  1  0  0  0  0
 18 17  1  0  0  0  0
 19 17  1  0  0  0  0
 20 17  1  0  0  0  0
M  END
>  <minimizedAffinity>
-3.7631712

>  <minimizedRMSD>
0.0553633682

$$$$
