
 OpenBabel03262519523D

 29 30  0  0  1  0  0  0  0  0999 V2000
   41.5180   22.2770   35.7720 C   0  0  0  0  0  0  0  0  0  0  0  0
   41.1120   22.8490   34.8520 H   0  0  0  0  0  0  0  0  0  0  0  0
   41.2010   21.3020   35.5210 H   0  0  0  0  0  0  0  0  0  0  0  0
   45.0880   22.3160   36.0120 C   0  0  0  0  0  0  0  0  0  0  0  0
   43.7800   21.7670   36.0610 C   0  0  0  0  0  0  0  0  0  0  0  0
   42.8670   22.7020   35.7870 C   0  0  0  0  0  0  0  0  0  0  0  0
   43.2010   24.0220   35.4990 N   0  0  0  0  0  0  0  0  0  0  0  0
   44.4420   24.4650   35.4700 C   0  0  0  0  0  0  0  0  0  0  0  0
   45.3970   23.6020   35.7290 N   0  0  0  0  0  0  0  0  0  0  0  0
   45.9950   21.7120   36.2090 H   0  0  0  0  0  0  0  0  0  0  0  0
   44.5870   25.4880   35.2390 H   0  0  0  0  0  0  0  0  0  0  0  0
   43.7240   20.3860   36.3700 C   0  0  0  0  0  0  0  0  0  0  0  0
   42.9790   20.1270   37.5450 F   0  0  0  0  0  0  0  0  0  0  0  0
   44.7780   19.7280   36.8870 F   0  0  0  0  0  0  0  0  0  0  0  0
   42.8760   19.5740   35.6170 F   0  0  0  0  0  0  0  0  0  0  0  0
   40.7130   22.8270   36.8440 C   0  0  0  0  0  0  0  0  0  0  0  0
   41.2180   23.4020   37.6480 H   0  0  0  0  0  0  0  0  0  0  0  0
   40.2250   21.9720   37.4010 H   0  0  0  0  0  0  0  0  0  0  0  0
   39.5420   23.6000   36.2230 C   0  0  2  0  0  0  0  0  0  0  0  0
   39.3390   23.3410   34.7620 C   0  0  0  0  0  0  0  0  0  0  0  0
   39.6980   24.7030   35.3220 C   0  0  1  0  0  0  0  0  0  0  0  0
   38.6340   23.4470   36.8080 H   0  0  0  0  0  0  0  0  0  0  0  0
   38.3100   23.3040   34.3410 H   0  0  0  0  0  0  0  0  0  0  0  0
   39.9970   22.6590   34.2870 H   0  0  0  0  0  0  0  0  0  0  0  0
   40.3460   25.1530   34.6650 H   0  0  0  0  0  0  0  0  0  0  0  0
   38.5490   25.7160   35.4920 C   0  0  0  0  0  0  0  0  0  0  0  0
   37.8340   25.2850   36.7540 C   0  0  0  0  0  0  0  0  0  0  0  0
   37.5360   25.6400   34.3850 C   0  0  0  0  0  0  0  0  0  0  0  0
   39.0160   27.1330   35.6780 C   0  0  0  0  0  0  0  0  0  0  0  0
  1  6  1  0  0  0  0
  1 16  1  0  0  0  0
  2  1  1  0  0  0  0
  3  1  1  0  0  0  0
  4  5  1  0  0  0  0
  4 10  1  0  0  0  0
  5 12  1  0  0  0  0
  6  5  2  0  0  0  0
  7  6  1  0  0  0  0
  8  7  2  0  0  0  0
  8  9  1  0  0  0  0
  9  4  2  0  0  0  0
 11  8  1  0  0  0  0
 12 14  1  0  0  0  0
 12 13  1  0  0  0  0
 15 12  1  0  0  0  0
 16 18  1  0  0  0  0
 16 17  1  0  0  0  0
 19 22  1  1  0  0  0
 19 16  1  0  0  0  0
 20 21  1  0  0  0  0
 20 19  1  0  0  0  0
 21 25  1  6  0  0  0
 21 26  1  0  0  0  0
 21 19  1  0  0  0  0
 23 20  1  0  0  0  0
 24 20  1  0  0  0  0
 26 29  1  0  0  0  0
 26 27  1  0  0  0  0
 28 26  1  0  0  0  0
M  END
>  <minimizedAffinity>
-3.58774257

>  <minimizedRMSD>
3.20823812

$$$$
