
 OpenBabel03262519553D

 27 29  0  0  1  0  0  0  0  0999 V2000
   38.7370   24.8490   31.7730 C   0  0  0  0  0  0  0  0  0  0  0  0
   37.6570   24.3520   31.0650 C   0  0  0  0  0  0  0  0  0  0  0  0
   36.9530   23.6520   32.0070 N   0  0  0  0  0  0  0  0  0  0  0  0
   37.5980   23.7550   33.1650 C   0  0  0  0  0  0  0  0  0  0  0  0
   38.7230   24.5020   33.0520 N   0  0  0  0  0  0  0  0  0  0  0  0
   37.4410   24.4950   30.0090 H   0  0  0  0  0  0  0  0  0  0  0  0
   37.2420   23.2820   34.0900 H   0  0  0  0  0  0  0  0  0  0  0  0
   39.7990   25.6800   31.1900 C   0  0  0  0  0  0  0  0  0  0  0  0
   41.0130   25.1100   30.8100 C   0  0  0  0  0  0  0  0  0  0  0  0
   42.0040   25.9470   30.2540 C   0  0  0  0  0  0  0  0  0  0  0  0
   41.7090   27.2620   30.1270 N   0  0  0  0  0  0  0  0  0  0  0  0
   40.5280   27.7900   30.5020 C   0  0  0  0  0  0  0  0  0  0  0  0
   39.5660   27.0040   31.0360 N   0  0  0  0  0  0  0  0  0  0  0  0
   41.1890   24.0500   30.9370 H   0  0  0  0  0  0  0  0  0  0  0  0
   42.9580   25.5250   29.9510 H   0  0  0  0  0  0  0  0  0  0  0  0
   40.3090   28.8540   30.3920 H   0  0  0  0  0  0  0  0  0  0  0  0
   39.6060   24.7720   34.1430 C   0  0  1  0  0  0  0  0  0  0  0  0
   39.6430   23.9460   35.3530 C   0  0  0  0  0  0  0  0  0  0  0  0
   40.6970   23.7110   34.3040 C   0  0  2  0  0  0  0  0  0  0  0  0
   40.0330   25.8090   34.0990 H   0  0  0  0  0  0  0  0  0  0  0  0
   38.8360   23.1680   35.4090 H   0  0  0  0  0  0  0  0  0  0  0  0
   39.8590   24.3900   36.3230 H   0  0  0  0  0  0  0  0  0  0  0  0
   40.6370   22.7960   33.7150 H   0  0  0  0  0  0  0  0  0  0  0  0
   42.0750   24.1230   34.7180 C   0  0  0  0  0  0  0  0  0  0  0  0
   42.2190   25.6060   34.9240 C   0  0  0  0  0  1  0  0  0  0  0  0
   43.1650   23.6300   33.7880 C   0  0  0  0  0  1  0  0  0  0  0  0
   42.3390   23.4860   36.0700 C   0  0  0  0  0  1  0  0  0  0  0  0
  1  5  1  0  0  0  0
  2  1  2  0  0  0  0
  2  3  1  0  0  0  0
  3  4  2  0  0  0  0
  4  7  1  0  0  0  0
  5  4  1  0  0  0  0
  5 17  1  0  0  0  0
  6  2  1  0  0  0  0
  8  1  1  0  0  0  0
  9 14  1  0  0  0  0
  9  8  2  0  0  0  0
 10  9  1  0  0  0  0
 11 10  2  0  0  0  0
 11 12  1  0  0  0  0
 12 13  2  0  0  0  0
 13  8  1  0  0  0  0
 15 10  1  0  0  0  0
 16 12  1  0  0  0  0
 17 20  1  1  0  0  0
 17 19  1  0  0  0  0
 17 18  1  0  0  0  0
 18 21  1  0  0  0  0
 18 22  1  0  0  0  0
 19 23  1  6  0  0  0
 19 24  1  0  0  0  0
 19 18  1  0  0  0  0
 24 25  1  0  0  0  0
 24 27  1  0  0  0  0
 26 24  1  0  0  0  0
M  END
>  <minimizedAffinity>
-2.68895936

>  <minimizedRMSD>
6.6838789

$$$$
