
 OpenBabel03262519563D

 27 29  0  0  1  0  0  0  0  0999 V2000
   38.5690   24.5430   31.6630 C   0  0  0  0  0  0  0  0  0  0  0  0
   38.8940   25.1900   30.4840 C   0  0  0  0  0  0  0  0  0  0  0  0
   38.8430   24.1920   29.5480 N   0  0  0  0  0  0  0  0  0  0  0  0
   38.5100   23.0640   30.1660 C   0  0  0  0  0  0  0  0  0  0  0  0
   38.3300   23.2500   31.4970 N   0  0  0  0  0  0  0  0  0  0  0  0
   39.1320   26.2430   30.3560 H   0  0  0  0  0  0  0  0  0  0  0  0
   38.3990   22.1050   29.6410 H   0  0  0  0  0  0  0  0  0  0  0  0
   38.4900   25.2000   32.9750 C   0  0  0  0  0  0  0  0  0  0  0  0
   39.5820   25.1810   33.8420 C   0  0  0  0  0  0  0  0  0  0  0  0
   39.4600   25.8250   35.0910 C   0  0  0  0  0  0  0  0  0  0  0  0
   38.2790   26.4240   35.3700 N   0  0  0  0  0  0  0  0  0  0  0  0
   37.2370   26.4290   34.5160 C   0  0  0  0  0  0  0  0  0  0  0  0
   37.3350   25.8180   33.3150 N   0  0  0  0  0  0  0  0  0  0  0  0
   40.5020   24.6840   33.5600 H   0  0  0  0  0  0  0  0  0  0  0  0
   40.2980   25.8230   35.7830 H   0  0  0  0  0  0  0  0  0  0  0  0
   36.2920   26.9170   34.7600 H   0  0  0  0  0  0  0  0  0  0  0  0
   37.9680   22.2030   32.4010 C   0  0  1  0  0  0  0  0  0  0  0  0
   37.3150   22.4610   33.6870 C   0  0  0  0  0  0  0  0  0  0  0  0
   36.4540   22.0280   32.5320 C   0  0  2  0  0  0  0  0  0  0  0  0
   38.4830   21.2360   32.1610 H   0  0  0  0  0  0  0  0  0  0  0  0
   37.2430   23.5470   33.9620 H   0  0  0  0  0  0  0  0  0  0  0  0
   37.5150   21.8280   34.5490 H   0  0  0  0  0  0  0  0  0  0  0  0
   35.7930   22.7680   32.0810 H   0  0  0  0  0  0  0  0  0  0  0  0
   35.8780   20.6530   32.6790 C   0  0  0  0  0  0  0  0  0  0  0  0
   36.8160   19.5630   32.2400 C   0  0  0  0  0  1  0  0  0  0  0  0
   34.5360   20.4780   31.9980 C   0  0  0  0  0  1  0  0  0  0  0  0
   35.6430   20.4300   34.1610 C   0  0  0  0  0  1  0  0  0  0  0  0
  1  8  1  0  0  0  0
  2  1  2  0  0  0  0
  3  4  2  0  0  0  0
  3  2  1  0  0  0  0
  4  5  1  0  0  0  0
  5  1  1  0  0  0  0
  5 17  1  0  0  0  0
  6  2  1  0  0  0  0
  7  4  1  0  0  0  0
  8 13  2  0  0  0  0
  8  9  1  0  0  0  0
  9 10  2  0  0  0  0
 10 11  1  0  0  0  0
 10 15  1  0  0  0  0
 12 16  1  0  0  0  0
 12 11  2  0  0  0  0
 13 12  1  0  0  0  0
 14  9  1  0  0  0  0
 17 20  1  6  0  0  0
 17 19  1  0  0  0  0
 17 18  1  0  0  0  0
 18 21  1  0  0  0  0
 18 22  1  0  0  0  0
 19 23  1  6  0  0  0
 19 24  1  0  0  0  0
 19 18  1  0  0  0  0
 24 27  1  0  0  0  0
 25 24  1  0  0  0  0
 26 24  1  0  0  0  0
M  END
>  <minimizedAffinity>
-3.7190783

>  <minimizedRMSD>
3.14867067

$$$$
