
 OpenBabel03262519553D

 27 29  0  0  1  0  0  0  0  0999 V2000
   38.1300   24.0250   34.1860 C   0  0  0  0  0  0  0  0  0  0  0  0
   38.2620   25.3050   33.6760 C   0  0  0  0  0  0  0  0  0  0  0  0
   37.7760   25.1910   32.4010 N   0  0  0  0  0  0  0  0  0  0  0  0
   37.3970   23.9310   32.2150 C   0  0  0  0  0  0  0  0  0  0  0  0
   37.6060   23.1720   33.3180 N   0  0  0  0  0  0  0  0  0  0  0  0
   38.6610   26.1780   34.1850 H   0  0  0  0  0  0  0  0  0  0  0  0
   36.9680   23.5700   31.2700 H   0  0  0  0  0  0  0  0  0  0  0  0
   38.5220   23.6300   35.5460 C   0  0  0  0  0  0  0  0  0  0  0  0
   39.7590   23.0300   35.7780 C   0  0  0  0  0  0  0  0  0  0  0  0
   40.0930   22.6680   37.1010 C   0  0  0  0  0  0  0  0  0  0  0  0
   39.1810   22.9270   38.0660 N   0  0  0  0  0  0  0  0  0  0  0  0
   37.9910   23.5080   37.8170 C   0  0  0  0  0  0  0  0  0  0  0  0
   37.6540   23.8630   36.5570 N   0  0  0  0  0  0  0  0  0  0  0  0
   40.4470   22.8490   34.9620 H   0  0  0  0  0  0  0  0  0  0  0  0
   41.0510   22.1990   37.3060 H   0  0  0  0  0  0  0  0  0  0  0  0
   37.2690   23.7090   38.6100 H   0  0  0  0  0  0  0  0  0  0  0  0
   37.2890   21.7790   33.3920 C   0  0  1  0  0  0  0  0  0  0  0  0
   36.3740   21.2300   34.3950 C   0  0  0  0  0  0  0  0  0  0  0  0
   35.8390   21.4780   33.0110 C   0  0  2  0  0  0  0  0  0  0  0  0
   38.0150   21.1460   32.8160 H   0  0  0  0  0  0  0  0  0  0  0  0
   36.0460   21.9660   35.1780 H   0  0  0  0  0  0  0  0  0  0  0  0
   36.5280   20.2330   34.8030 H   0  0  0  0  0  0  0  0  0  0  0  0
   35.1440   22.3070   32.8720 H   0  0  0  0  0  0  0  0  0  0  0  0
   35.5180   20.2320   32.2460 C   0  0  0  0  0  0  0  0  0  0  0  0
   36.4280   20.0010   31.0720 C   0  0  0  0  0  1  0  0  0  0  0  0
   34.0740   20.1460   31.7970 C   0  0  0  0  0  1  0  0  0  0  0  0
   35.7480   19.0640   33.1880 C   0  0  0  0  0  1  0  0  0  0  0  0
  1  8  1  0  0  0  0
  2  6  1  0  0  0  0
  2  1  2  0  0  0  0
  3  2  1  0  0  0  0
  4  3  2  0  0  0  0
  4  5  1  0  0  0  0
  5 17  1  0  0  0  0
  5  1  1  0  0  0  0
  7  4  1  0  0  0  0
  8  9  2  0  0  0  0
  8 13  1  0  0  0  0
  9 10  1  0  0  0  0
 10 15  1  0  0  0  0
 10 11  2  0  0  0  0
 12 11  1  0  0  0  0
 12 16  1  0  0  0  0
 13 12  2  0  0  0  0
 14  9  1  0  0  0  0
 17 20  1  6  0  0  0
 17 18  1  0  0  0  0
 18 22  1  0  0  0  0
 18 21  1  0  0  0  0
 19 23  1  6  0  0  0
 19 17  1  0  0  0  0
 19 18  1  0  0  0  0
 24 19  1  0  0  0  0
 24 27  1  0  0  0  0
 25 24  1  0  0  0  0
 26 24  1  0  0  0  0
M  END
>  <minimizedAffinity>
-4.27175379

>  <minimizedRMSD>
1.15204322

$$$$
