
 OpenBabel03262519283D

 28 30  0  0  0  0  0  0  0  0999 V2000
   41.9170   22.0940   36.8450 C   0  0  0  0  0  0  0  0  0  0  0  0
   42.5560   23.2090   36.3520 C   0  0  0  0  0  0  0  0  0  0  0  0
   43.8100   22.9180   35.9780 N   0  0  0  0  0  0  0  0  0  0  0  0
   44.0640   21.6090   36.2040 C   0  0  0  0  0  0  0  0  0  0  0  0
   45.1630   20.7970   36.0110 C   0  0  0  0  0  0  0  0  0  0  0  0
   45.1110   19.4580   36.3520 C   0  0  0  0  0  0  0  0  0  0  0  0
   43.9440   18.9400   36.8900 C   0  0  0  0  0  0  0  0  0  0  0  0
   42.8410   19.7490   37.0840 C   0  0  0  0  0  0  0  0  0  0  0  0
   42.8880   21.0990   36.7430 C   0  0  0  0  0  0  0  0  0  0  0  0
   42.1760   24.2220   36.2420 H   0  0  0  0  0  0  0  0  0  0  0  0
   44.5360   23.5690   35.5650 H   0  0  0  0  0  0  0  0  0  0  0  0
   46.0790   21.1910   35.5930 H   0  0  0  0  0  0  0  0  0  0  0  0
   45.9170   18.7590   36.2360 H   0  0  0  0  0  0  0  0  0  0  0  0
   43.8670   17.8810   37.1720 H   0  0  0  0  0  0  0  0  0  0  0  0
   41.9210   19.3310   37.5100 H   0  0  0  0  0  0  0  0  0  0  0  0
   40.6370   22.0290   37.3130 O   0  0  0  0  0  0  0  0  0  0  0  0
   39.7010   23.0280   37.2640 C   0  0  0  0  0  0  0  0  0  0  0  0
   38.9050   23.1880   38.4000 C   0  0  0  0  0  0  0  0  0  0  0  0
   37.9460   24.1990   38.3690 C   0  0  0  0  0  0  0  0  0  0  0  0
   37.8350   24.9610   37.2620 N   0  0  0  0  0  0  0  0  0  0  0  0
   38.6290   24.7700   36.1830 C   0  0  0  0  0  0  0  0  0  0  0  0
   39.5540   23.8090   36.1860 N   0  0  0  0  0  0  0  0  0  0  0  0
   39.0390   22.5490   39.2560 H   0  0  0  0  0  0  0  0  0  0  0  0
   37.3070   24.3550   39.2360 H   0  0  0  0  0  0  0  0  0  0  0  0
   38.4250   25.6750   34.9960 C   0  0  0  0  0  0  0  0  0  0  0  0
   39.6160   26.5870   34.8210 C   0  0  0  0  0  0  0  0  0  0  0  0
   38.2880   24.8500   33.7270 C   0  0  0  0  0  0  0  0  0  0  0  0
   37.1860   26.5150   35.1200 C   0  0  0  0  0  0  0  0  0  0  0  0
  1 16  1  0  0  0  0
  2  1  2  0  0  0  0
  3  4  1  0  0  0  0
  3  2  1  0  0  0  0
  4  9  1  0  0  0  0
  5  4  2  0  0  0  0
  5  6  1  0  0  0  0
  6  7  2  0  0  0  0
  7  8  1  0  0  0  0
  7 14  1  0  0  0  0
  8 15  1  0  0  0  0
  9  1  1  0  0  0  0
  9  8  2  0  0  0  0
 10  2  1  0  0  0  0
 11  3  1  0  0  0  0
 12  5  1  0  0  0  0
 13  6  1  0  0  0  0
 17 16  1  0  0  0  0
 17 18  1  0  0  0  0
 18 23  1  0  0  0  0
 19 18  2  0  0  0  0
 19 24  1  0  0  0  0
 20 19  1  0  0  0  0
 21 22  1  0  0  0  0
 21 20  2  0  0  0  0
 22 17  2  0  0  0  0
 25 28  1  0  0  0  0
 25 21  1  0  0  0  0
 26 25  1  0  0  0  0
 27 25  1  0  0  0  0
M  END
>  <minimizedAffinity>
-4.92125034

>  <minimizedRMSD>
1.31962669

$$$$
