
 OpenBabel03262519553D

 27 29  0  0  1  0  0  0  0  0999 V2000
   38.1820   24.2480   34.7270 C   0  0  0  0  0  0  0  0  0  0  0  0
   38.2300   25.5470   34.2510 C   0  0  0  0  0  0  0  0  0  0  0  0
   37.8740   25.4170   32.9350 N   0  0  0  0  0  0  0  0  0  0  0  0
   37.6420   24.1310   32.6950 C   0  0  0  0  0  0  0  0  0  0  0  0
   37.8260   23.3690   33.8020 N   0  0  0  0  0  0  0  0  0  0  0  0
   38.4920   26.4420   34.8080 H   0  0  0  0  0  0  0  0  0  0  0  0
   37.3380   23.7520   31.7100 H   0  0  0  0  0  0  0  0  0  0  0  0
   38.4870   23.8600   36.1110 C   0  0  0  0  0  0  0  0  0  0  0  0
   39.6940   23.2330   36.4190 C   0  0  0  0  0  0  0  0  0  0  0  0
   39.9440   22.8790   37.7620 C   0  0  0  0  0  0  0  0  0  0  0  0
   38.9870   23.1730   38.6710 N   0  0  0  0  0  0  0  0  0  0  0  0
   37.8280   23.7800   38.3500 C   0  0  0  0  0  0  0  0  0  0  0  0
   37.5700   24.1270   37.0690 N   0  0  0  0  0  0  0  0  0  0  0  0
   40.4210   23.0250   35.6440 H   0  0  0  0  0  0  0  0  0  0  0  0
   40.8780   22.3890   38.0250 H   0  0  0  0  0  0  0  0  0  0  0  0
   37.0680   24.0080   39.0990 H   0  0  0  0  0  0  0  0  0  0  0  0
   37.6460   21.9500   33.8250 C   0  0  1  0  0  0  0  0  0  0  0  0
   36.6090   21.3000   34.6300 C   0  0  0  0  0  0  0  0  0  0  0  0
   36.3390   21.5060   33.1640 C   0  0  2  0  0  0  0  0  0  0  0  0
   38.5320   21.4010   33.4120 H   0  0  0  0  0  0  0  0  0  0  0  0
   36.0580   21.9890   35.3250 H   0  0  0  0  0  0  0  0  0  0  0  0
   36.7800   20.3190   35.0700 H   0  0  0  0  0  0  0  0  0  0  0  0
   35.6050   22.2610   32.8810 H   0  0  0  0  0  0  0  0  0  0  0  0
   36.3070   20.2420   32.3630 C   0  0  0  0  0  0  0  0  0  0  0  0
   35.4870   19.1530   32.9990 C   0  0  0  0  0  1  0  0  0  0  0  0
   37.6800   19.7080   32.0110 C   0  0  0  0  0  1  0  0  0  0  0  0
   35.6200   20.5690   31.0500 C   0  0  0  0  0  1  0  0  0  0  0  0
  1  8  1  0  0  0  0
  2  1  2  0  0  0  0
  2  6  1  0  0  0  0
  3  2  1  0  0  0  0
  4  3  2  0  0  0  0
  4  5  1  0  0  0  0
  5 17  1  0  0  0  0
  5  1  1  0  0  0  0
  7  4  1  0  0  0  0
  8  9  2  0  0  0  0
  8 13  1  0  0  0  0
  9 10  1  0  0  0  0
 10 15  1  0  0  0  0
 10 11  2  0  0  0  0
 12 11  1  0  0  0  0
 12 16  1  0  0  0  0
 13 12  2  0  0  0  0
 14  9  1  0  0  0  0
 17 20  1  6  0  0  0
 17 18  1  0  0  0  0
 18 22  1  0  0  0  0
 18 21  1  0  0  0  0
 19 23  1  6  0  0  0
 19 17  1  0  0  0  0
 19 18  1  0  0  0  0
 24 25  1  0  0  0  0
 24 19  1  0  0  0  0
 26 24  1  0  0  0  0
 27 24  1  0  0  0  0
M  END
>  <minimizedAffinity>
-4.61240721

>  <minimizedRMSD>
1.12995732

$$$$
