
 OpenBabel03262519563D

 27 29  0  0  1  0  0  0  0  0999 V2000
   37.9910   22.7550   34.7150 C   0  0  0  0  0  0  0  0  0  0  0  0
   38.1460   22.5250   36.0710 C   0  0  0  0  0  0  0  0  0  0  0  0
   38.4220   23.7680   36.5750 N   0  0  0  0  0  0  0  0  0  0  0  0
   38.4180   24.6320   35.5660 C   0  0  0  0  0  0  0  0  0  0  0  0
   38.1500   24.0280   34.3830 N   0  0  0  0  0  0  0  0  0  0  0  0
   38.0650   21.5730   36.5900 H   0  0  0  0  0  0  0  0  0  0  0  0
   38.6120   25.7050   35.6990 H   0  0  0  0  0  0  0  0  0  0  0  0
   37.6800   21.7120   33.7280 C   0  0  0  0  0  0  0  0  0  0  0  0
   38.6840   21.1850   32.9170 C   0  0  0  0  0  0  0  0  0  0  0  0
   38.3380   20.1860   31.9830 C   0  0  0  0  0  0  0  0  0  0  0  0
   37.0420   19.8010   31.9340 N   0  0  0  0  0  0  0  0  0  0  0  0
   36.0880   20.3250   32.7280 C   0  0  0  0  0  0  0  0  0  0  0  0
   36.4000   21.2830   33.6290 N   0  0  0  0  0  0  0  0  0  0  0  0
   39.7050   21.5350   33.0040 H   0  0  0  0  0  0  0  0  0  0  0  0
   39.1040   19.7600   31.3400 H   0  0  0  0  0  0  0  0  0  0  0  0
   35.0480   20.0010   32.6730 H   0  0  0  0  0  0  0  0  0  0  0  0
   38.0860   24.7230   33.1350 C   0  0  1  0  0  0  0  0  0  0  0  0
   36.9760   24.5560   32.1940 C   0  0  0  0  0  0  0  0  0  0  0  0
   36.9650   25.7640   33.0910 C   0  0  2  0  0  0  0  0  0  0  0  0
   39.0760   25.1600   32.8400 H   0  0  0  0  0  0  0  0  0  0  0  0
   36.2510   23.7430   32.4690 H   0  0  0  0  0  0  0  0  0  0  0  0
   37.1440   24.6150   31.1200 H   0  0  0  0  0  0  0  0  0  0  0  0
   36.2360   25.7920   33.9010 H   0  0  0  0  0  0  0  0  0  0  0  0
   37.1860   27.0600   32.3760 C   0  0  0  0  0  0  0  0  0  0  0  0
   38.6320   27.3310   32.0650 C   0  0  0  0  0  1  0  0  0  0  0  0
   36.5820   28.2570   33.0800 C   0  0  0  0  0  1  0  0  0  0  0  0
   36.4850   26.9480   31.0340 C   0  0  0  0  0  1  0  0  0  0  0  0
  1  2  2  0  0  0  0
  2  3  1  0  0  0  0
  2  6  1  0  0  0  0
  4  7  1  0  0  0  0
  4  3  2  0  0  0  0
  5  1  1  0  0  0  0
  5  4  1  0  0  0  0
  8  1  1  0  0  0  0
  9 14  1  0  0  0  0
  9  8  2  0  0  0  0
 10  9  1  0  0  0  0
 11 10  2  0  0  0  0
 11 12  1  0  0  0  0
 12 13  2  0  0  0  0
 13  8  1  0  0  0  0
 15 10  1  0  0  0  0
 16 12  1  0  0  0  0
 17 20  1  6  0  0  0
 17  5  1  0  0  0  0
 18 21  1  0  0  0  0
 18 19  1  0  0  0  0
 18 17  1  0  0  0  0
 19 17  1  0  0  0  0
 19 23  1  1  0  0  0
 22 18  1  0  0  0  0
 24 26  1  0  0  0  0
 24 19  1  0  0  0  0
 25 24  1  0  0  0  0
 27 24  1  0  0  0  0
M  END
>  <minimizedAffinity>
-3.99631476

>  <minimizedRMSD>
5.8601203

$$$$
