
 OpenBabel03262515043D

 34 36  0  0  1  0  0  0  0  0999 V2000
   38.1640   26.0640   35.3190 C   0  0  1  0  0  0  0  0  0  0  0  0
   37.2960   25.7850   35.9400 H   0  0  0  0  0  0  0  0  0  0  0  0
   38.9630   23.8510   36.2910 C   0  0  0  0  0  0  0  0  0  0  0  0
   39.1700   24.9830   35.4950 C   0  0  0  0  0  0  0  0  0  0  0  0
   40.3930   25.1260   34.8190 C   0  0  0  0  0  0  0  0  0  0  0  0
   41.3270   24.1300   34.9830 N   0  0  0  0  0  0  0  0  0  0  0  0
   41.0590   23.0540   35.7720 C   0  0  0  0  0  0  0  0  0  0  0  0
   39.9000   22.9190   36.4130 N   0  0  0  0  0  0  0  0  0  0  0  0
   40.5850   25.9810   34.2020 H   0  0  0  0  0  0  0  0  0  0  0  0
   41.7940   22.2680   35.9010 H   0  0  0  0  0  0  0  0  0  0  0  0
   37.6770   23.8130   36.9330 C   0  0  0  0  0  0  0  0  0  0  0  0
   36.9660   22.8040   37.1150 O   0  0  0  0  0  0  0  0  0  0  0  0
   37.0570   24.5940   37.3810 H   0  0  0  0  0  0  0  0  0  0  0  0
   38.7910   27.3280   35.8290 C   0  0  0  0  0  0  0  0  0  0  0  0
   38.1510   28.2200   35.6790 H   0  0  0  0  0  0  0  0  0  0  0  0
   39.7320   27.5300   35.2660 H   0  0  0  0  0  0  0  0  0  0  0  0
   39.0500   27.2630   36.8980 H   0  0  0  0  0  0  0  0  0  0  0  0
   37.6850   26.1780   33.9000 C   0  0  0  0  0  0  0  0  0  0  0  0
   37.1290   25.2840   33.5640 H   0  0  0  0  0  0  0  0  0  0  0  0
   38.6230   26.2030   33.2760 H   0  0  0  0  0  0  0  0  0  0  0  0
   36.9180   27.3410   33.5970 N   0  0  0  0  0  0  0  0  0  0  0  0
   36.2370   28.0740   34.5140 C   0  0  0  0  0  0  0  0  0  0  0  0
   35.6040   29.1170   33.9370 N   0  0  0  0  0  0  0  0  0  0  0  0
   35.8580   29.0950   32.6170 C   0  0  0  0  0  0  0  0  0  0  0  0
   35.4880   29.8900   31.5530 C   0  0  0  0  0  0  0  0  0  0  0  0
   34.7520   30.8880   31.7310 O   0  0  0  0  0  0  0  0  0  0  0  0
   35.9390   29.5690   30.3070 N   0  0  0  0  0  0  0  0  0  0  0  0
   36.7350   28.4860   30.1350 C   0  0  0  0  0  0  0  0  0  0  0  0
   37.1930   28.1710   28.8230 N   0  0  0  0  0  0  0  0  0  0  0  0
   37.0970   27.7040   31.1920 N   0  0  0  0  0  0  0  0  0  0  0  0
   36.6680   27.9920   32.4460 C   0  0  0  0  0  0  0  0  0  0  0  0
   35.6350   30.1960   29.5410 H   0  0  0  0  0  0  0  0  0  0  0  0
   37.9550   28.5530   28.1990 H   0  0  0  0  0  0  0  0  0  0  0  0
   36.8330   27.4350   28.1640 H   0  0  0  0  0  0  0  0  0  0  0  0
  1  4  1  0  0  0  0
  1 14  1  0  0  0  0
  1  2  1  1  0  0  0
  3  8  1  0  0  0  0
  3 11  1  0  0  0  0
  4  3  2  0  0  0  0
  5  6  2  0  0  0  0
  5  4  1  0  0  0  0
  6  7  1  0  0  0  0
  7 10  1  0  0  0  0
  7  8  2  0  0  0  0
  9  5  1  0  0  0  0
 11 12  2  0  0  0  0
 11 13  1  0  0  0  0
 14 17  1  0  0  0  0
 15 14  1  0  0  0  0
 16 14  1  0  0  0  0
 18  1  1  0  0  0  0
 19 18  1  0  0  0  0
 20 18  1  0  0  0  0
 21 18  1  0  0  0  0
 21 22  1  0  0  0  0
 23 22  2  0  0  0  0
 24 23  1  0  0  0  0
 25 26  2  0  0  0  0
 25 24  1  0  0  0  0
 27 25  1  0  0  0  0
 28 27  1  0  0  0  0
 28 30  2  0  0  0  0
 29 28  1  0  0  0  0
 30 31  1  0  0  0  0
 31 24  2  0  0  0  0
 31 21  1  0  0  0  0
 32 27  1  0  0  0  0
 33 29  1  0  0  0  0
 34 29  1  0  0  0  0
M  END
>  <minimizedAffinity>
-5.46159029

>  <minimizedRMSD>
0.974002421

$$$$
