
 OpenBabel03262519563D

 27 29  0  0  1  0  0  0  0  0999 V2000
   37.5150   25.7340   33.3470 C   0  0  0  0  0  0  0  0  0  0  0  0
   37.1740   26.1160   34.6330 C   0  0  0  0  0  0  0  0  0  0  0  0
   37.0570   27.4770   34.5410 N   0  0  0  0  0  0  0  0  0  0  0  0
   37.3140   27.8290   33.2860 C   0  0  0  0  0  0  0  0  0  0  0  0
   37.6050   26.7560   32.5090 N   0  0  0  0  0  0  0  0  0  0  0  0
   37.0380   25.4700   35.4970 H   0  0  0  0  0  0  0  0  0  0  0  0
   37.2880   28.8710   32.9400 H   0  0  0  0  0  0  0  0  0  0  0  0
   37.7540   24.3460   32.9310 C   0  0  0  0  0  0  0  0  0  0  0  0
   38.9780   23.7310   33.1930 C   0  0  0  0  0  0  0  0  0  0  0  0
   39.1630   22.3960   32.7740 C   0  0  0  0  0  0  0  0  0  0  0  0
   38.1320   21.7940   32.1390 N   0  0  0  0  0  0  0  0  0  0  0  0
   36.9570   22.4080   31.8970 C   0  0  0  0  0  0  0  0  0  0  0  0
   36.7610   23.6870   32.2900 N   0  0  0  0  0  0  0  0  0  0  0  0
   39.7660   24.2660   33.7060 H   0  0  0  0  0  0  0  0  0  0  0  0
   40.1090   21.8960   32.9670 H   0  0  0  0  0  0  0  0  0  0  0  0
   36.1370   21.9060   31.3820 H   0  0  0  0  0  0  0  0  0  0  0  0
   37.9220   26.8490   31.1180 C   0  0  1  0  0  0  0  0  0  0  0  0
   38.6180   28.0020   30.5420 C   0  0  0  0  0  0  0  0  0  0  0  0
   39.4240   26.7680   30.8430 C   0  0  2  0  0  0  0  0  0  0  0  0
   37.3420   26.1150   30.4990 H   0  0  0  0  0  0  0  0  0  0  0  0
   38.7640   28.8590   31.2520 H   0  0  0  0  0  0  0  0  0  0  0  0
   38.3980   28.3360   29.5300 H   0  0  0  0  0  0  0  0  0  0  0  0
   40.1200   26.8030   31.6820 H   0  0  0  0  0  0  0  0  0  0  0  0
   39.9160   26.0460   29.6270 C   0  0  0  0  0  0  0  0  0  0  0  0
   39.7390   26.8280   28.3550 C   0  0  0  0  0  1  0  0  0  0  0  0
   39.3270   24.6600   29.4590 C   0  0  0  0  0  1  0  0  0  0  0  0
   41.4130   25.8620   29.7980 C   0  0  0  0  0  1  0  0  0  0  0  0
  1  2  2  0  0  0  0
  2  6  1  0  0  0  0
  3  2  1  0  0  0  0
  4  3  2  0  0  0  0
  5  4  1  0  0  0  0
  5  1  1  0  0  0  0
  7  4  1  0  0  0  0
  8  9  1  0  0  0  0
  8  1  1  0  0  0  0
  9 14  1  0  0  0  0
 10 15  1  0  0  0  0
 10  9  2  0  0  0  0
 11 10  1  0  0  0  0
 12 11  2  0  0  0  0
 12 13  1  0  0  0  0
 13  8  2  0  0  0  0
 16 12  1  0  0  0  0
 17 20  1  6  0  0  0
 17  5  1  0  0  0  0
 18 19  1  0  0  0  0
 18 17  1  0  0  0  0
 18 21  1  0  0  0  0
 19 17  1  0  0  0  0
 19 23  1  1  0  0  0
 22 18  1  0  0  0  0
 24 27  1  0  0  0  0
 24 19  1  0  0  0  0
 25 24  1  0  0  0  0
 26 24  1  0  0  0  0
M  END
>  <minimizedAffinity>
-2.9604423

>  <minimizedRMSD>
6.52443552

$$$$
