
 OpenBabel03262519383D

 31 33  0  0  1  0  0  0  0  0999 V2000
   38.4520   22.4220   35.8250 N   0  0  0  0  0  0  0  0  0  0  0  0
   37.8360   23.6530   36.1480 C   0  0  0  0  0  0  0  0  0  0  0  0
   38.3930   24.0600   37.4900 C   0  0  0  0  0  0  0  0  0  0  0  0
   39.3700   22.9320   37.8500 C   0  0  0  0  0  0  0  0  0  0  0  0
   39.7780   22.5300   36.4280 C   0  0  2  0  0  0  0  0  0  0  0  0
   37.8830   24.4330   35.3780 H   0  0  0  0  0  0  0  0  0  0  0  0
   36.7390   23.4440   36.3030 H   0  0  0  0  0  0  0  0  0  0  0  0
   37.6170   24.2070   38.2570 H   0  0  0  0  0  0  0  0  0  0  0  0
   39.0390   24.9480   37.3190 H   0  0  0  0  0  0  0  0  0  0  0  0
   40.2210   23.3170   38.4380 H   0  0  0  0  0  0  0  0  0  0  0  0
   38.7710   22.1560   38.3200 H   0  0  0  0  0  0  0  0  0  0  0  0
   40.2190   21.5110   36.4970 H   0  0  0  0  0  0  0  0  0  0  0  0
   38.6610   22.1690   34.4420 C   0  0  0  0  0  0  0  0  0  0  0  0
   39.3500   21.3180   34.2290 H   0  0  0  0  0  0  0  0  0  0  0  0
   39.1620   23.0520   33.9650 H   0  0  0  0  0  0  0  0  0  0  0  0
   35.3140   20.7760   33.3370 C   0  0  0  0  0  0  0  0  0  0  0  0
   36.4920   20.9420   34.0670 C   0  0  0  0  0  0  0  0  0  0  0  0
   37.3840   21.9450   33.6970 C   0  0  0  0  0  0  0  0  0  0  0  0
   37.0510   22.7340   32.6130 N   0  0  0  0  0  0  0  0  0  0  0  0
   35.9070   22.5410   31.9360 C   0  0  0  0  0  0  0  0  0  0  0  0
   35.0510   21.5690   32.3020 N   0  0  0  0  0  0  0  0  0  0  0  0
   34.6870   19.9740   33.7010 H   0  0  0  0  0  0  0  0  0  0  0  0
   36.7340   20.3130   34.9160 H   0  0  0  0  0  0  0  0  0  0  0  0
   35.6390   23.1530   31.0860 H   0  0  0  0  0  0  0  0  0  0  0  0
   40.5530   23.4800   35.8120 O   0  0  0  0  0  0  0  0  0  0  0  0
   41.9020   23.6940   35.9710 C   0  0  0  0  0  0  0  0  0  0  0  0
   42.9010   22.9800   36.5750 C   0  0  0  0  0  0  0  0  0  0  0  0
   44.0630   23.7100   36.4080 C   0  0  0  0  0  0  0  0  0  0  0  0
   43.6980   24.8210   35.7140 C   0  0  0  0  0  0  0  0  0  0  0  0
   44.4600   25.5650   35.4570 H   0  0  0  0  0  0  0  0  0  0  0  0
   42.4160   24.7910   35.4660 O   0  0  0  0  0  0  0  0  0  0  0  0
  1  2  1  0  0  0  0
  1  5  1  0  0  0  0
  2  7  1  0  0  0  0
  2  3  1  0  0  0  0
  3  4  1  0  0  0  0
  3  8  1  0  0  0  0
  4 11  1  0  0  0  0
  4 10  1  0  0  0  0
  5 12  1  1  0  0  0
  5  4  1  0  0  0  0
  6  2  1  0  0  0  0
  9  3  1  0  0  0  0
 13  1  1  0  0  0  0
 14 13  1  0  0  0  0
 15 13  1  0  0  0  0
 16 22  1  0  0  0  0
 16 17  1  0  0  0  0
 17 23  1  0  0  0  0
 18 17  2  0  0  0  0
 18 13  1  0  0  0  0
 19 18  1  0  0  0  0
 20 21  1  0  0  0  0
 20 19  2  0  0  0  0
 21 16  2  0  0  0  0
 24 20  1  0  0  0  0
 25 26  1  0  0  0  0
 25  5  1  0  0  0  0
 26 27  2  0  0  0  0
 28 27  1  0  0  0  0
 29 28  2  0  0  0  0
 30 29  1  0  0  0  0
 31 29  1  0  0  0  0
 31 26  1  0  0  0  0
M  END
>  <minimizedAffinity>
-4.36613846

>  <minimizedRMSD>
5.29959965

$$$$
