
 OpenBabel03262519383D

 37 40  0  0  1  0  0  0  0  0999 V2000
   37.7140   25.2970   34.2900 N   0  0  0  0  0  0  0  0  0  0  0  0
   37.0440   25.2630   33.0270 C   0  0  0  0  0  0  0  0  0  0  0  0
   36.9520   26.6990   32.5780 C   0  0  0  0  0  0  0  0  0  0  0  0
   37.6440   27.4880   33.6990 C   0  0  0  0  0  0  0  0  0  0  0  0
   38.6510   26.3980   34.1490 C   0  0  2  0  0  0  0  0  0  0  0  0
   37.6530   24.6870   32.3020 H   0  0  0  0  0  0  0  0  0  0  0  0
   36.0390   24.7780   33.0800 H   0  0  0  0  0  0  0  0  0  0  0  0
   35.9210   27.0140   32.4140 H   0  0  0  0  0  0  0  0  0  0  0  0
   37.5160   26.8610   31.6140 H   0  0  0  0  0  0  0  0  0  0  0  0
   36.9180   27.6780   34.4900 H   0  0  0  0  0  0  0  0  0  0  0  0
   38.1740   28.3780   33.3180 H   0  0  0  0  0  0  0  0  0  0  0  0
   38.9710   26.6710   35.1800 H   0  0  0  0  0  0  0  0  0  0  0  0
   38.5060   24.1380   34.5730 C   0  0  0  0  0  0  0  0  0  0  0  0
   39.5240   24.1600   34.1470 H   0  0  0  0  0  0  0  0  0  0  0  0
   38.0050   23.2550   34.1210 H   0  0  0  0  0  0  0  0  0  0  0  0
   37.8930   24.1540   38.3130 C   0  0  0  0  0  0  0  0  0  0  0  0
   37.7470   24.4170   36.9420 C   0  0  0  0  0  0  0  0  0  0  0  0
   38.6410   23.8720   36.0270 C   0  0  0  0  0  0  0  0  0  0  0  0
   39.6390   23.0890   36.5350 N   0  0  0  0  0  0  0  0  0  0  0  0
   39.7630   22.8490   37.8480 C   0  0  0  0  0  0  0  0  0  0  0  0
   38.8950   23.3790   38.7220 N   0  0  0  0  0  0  0  0  0  0  0  0
   37.1200   24.6490   38.8950 H   0  0  0  0  0  0  0  0  0  0  0  0
   36.9730   25.0270   36.5280 H   0  0  0  0  0  0  0  0  0  0  0  0
   40.5500   22.2290   38.2560 H   0  0  0  0  0  0  0  0  0  0  0  0
   39.6220   26.1710   33.2300 O   0  0  0  0  0  0  0  0  0  0  0  0
   40.9000   26.6450   33.1250 C   0  0  0  0  0  0  0  0  0  0  0  0
   41.9160   26.4790   34.0100 N   0  0  0  0  0  0  0  0  0  0  0  0
   43.1420   27.0120   33.7700 C   0  0  0  0  0  3  0  0  0  0  0  0
   43.4510   27.7340   32.6630 N   0  0  0  0  0  0  0  0  0  0  0  0
   42.4540   27.9100   31.7720 C   0  0  0  0  0  0  0  0  0  0  0  0
   42.7030   28.6340   30.6250 C   0  0  0  0  0  3  0  0  0  0  0  0
   41.7110   28.8370   29.6890 C   0  0  0  0  0  0  0  0  0  0  0  0
   41.9060   29.4090   28.7850 H   0  0  0  0  0  0  0  0  0  0  0  0
   40.4220   28.3250   29.8560 C   0  0  0  0  0  0  0  0  0  0  0  0
   39.6140   28.4600   29.1480 H   0  0  0  0  0  0  0  0  0  0  0  0
   40.2400   27.6110   31.0220 C   0  0  0  0  0  3  0  0  0  0  0  0
   41.1910   27.3820   31.9800 C   0  0  0  0  0  0  0  0  0  0  0  0
  1 13  1  0  0  0  0
  2  7  1  0  0  0  0
  2  1  1  0  0  0  0
  3  2  1  0  0  0  0
  3  4  1  0  0  0  0
  4  5  1  0  0  0  0
  4 10  1  0  0  0  0
  5  1  1  0  0  0  0
  5 12  1  1  0  0  0
  6  2  1  0  0  0  0
  8  3  1  0  0  0  0
  9  3  1  0  0  0  0
 11  4  1  0  0  0  0
 13 18  1  0  0  0  0
 14 13  1  0  0  0  0
 15 13  1  0  0  0  0
 16 21  1  0  0  0  0
 16 22  1  0  0  0  0
 17 16  2  0  0  0  0
 18 19  2  0  0  0  0
 18 17  1  0  0  0  0
 19 20  1  0  0  0  0
 20 24  1  0  0  0  0
 20 21  2  0  0  0  0
 23 17  1  0  0  0  0
 25  5  1  0  0  0  0
 26 25  1  0  0  0  0
 26 27  1  0  0  0  0
 28 27  2  0  0  0  0
 29 28  1  0  0  0  0
 30 37  1  0  0  0  0
 30 29  2  0  0  0  0
 31 30  1  0  0  0  0
 32 34  1  0  0  0  0
 32 31  2  0  0  0  0
 33 32  1  0  0  0  0
 34 36  2  0  0  0  0
 35 34  1  0  0  0  0
 36 37  1  0  0  0  0
 37 26  2  0  0  0  0
M  END
>  <minimizedAffinity>
-4.58489752

>  <minimizedRMSD>
1.06778395

$$$$
