
 OpenBabel03262519403D

 44 48  0  0  1  0  0  0  0  0999 V2000
   38.2200   25.3900   34.3300 N   0  0  0  0  0  0  0  0  0  0  0  0
   37.5620   25.6930   33.0780 C   0  0  0  0  0  0  0  0  0  0  0  0
   38.3310   26.8230   32.4830 C   0  0  0  0  0  0  0  0  0  0  0  0
   39.4520   27.0730   33.4750 C   0  0  0  0  0  0  0  0  0  0  0  0
   39.6000   25.6350   34.0560 C   0  0  2  0  0  0  0  0  0  0  0  0
   37.6180   24.8100   32.4050 H   0  0  0  0  0  0  0  0  0  0  0  0
   36.4970   25.9320   33.2690 H   0  0  0  0  0  0  0  0  0  0  0  0
   38.7210   26.6140   31.4700 H   0  0  0  0  0  0  0  0  0  0  0  0
   37.7120   27.7640   32.4940 H   0  0  0  0  0  0  0  0  0  0  0  0
   39.1580   27.7390   34.2900 H   0  0  0  0  0  0  0  0  0  0  0  0
   40.4130   27.3000   32.9950 H   0  0  0  0  0  0  0  0  0  0  0  0
   40.2950   25.6970   34.9010 H   0  0  0  0  0  0  0  0  0  0  0  0
   38.0920   24.0030   34.6760 C   0  0  0  0  0  0  0  0  0  0  0  0
   38.7570   23.3940   34.0390 H   0  0  0  0  0  0  0  0  0  0  0  0
   37.0530   23.6770   34.4590 H   0  0  0  0  0  0  0  0  0  0  0  0
   37.9830   24.0960   38.4620 C   0  0  0  0  0  0  0  0  0  0  0  0
   37.6330   24.3630   37.1440 C   0  0  0  0  0  0  0  0  0  0  0  0
   38.4070   23.7670   36.1210 C   0  0  0  0  0  0  0  0  0  0  0  0
   39.4470   22.9670   36.4990 N   0  0  0  0  0  0  0  0  0  0  0  0
   39.7320   22.7490   37.8000 C   0  0  0  0  0  0  0  0  0  0  0  0
   38.9960   23.3160   38.7640 N   0  0  0  0  0  0  0  0  0  0  0  0
   37.3690   24.5680   39.2060 H   0  0  0  0  0  0  0  0  0  0  0  0
   36.8290   24.9800   36.7810 H   0  0  0  0  0  0  0  0  0  0  0  0
   40.5910   22.0890   37.8700 H   0  0  0  0  0  0  0  0  0  0  0  0
   40.1250   24.7690   33.1370 O   0  0  0  0  0  0  0  0  0  0  0  0
   41.2810   24.1490   33.5550 C   0  0  2  0  0  0  0  0  0  0  0  0
   42.1230   23.5310   32.4710 C   0  0  0  0  0  0  0  0  0  0  0  0
   41.4130   22.6600   33.4780 C   0  0  1  0  0  0  0  0  0  0  0  0
   41.6630   24.5730   34.4920 H   0  0  0  0  0  0  0  0  0  0  0  0
   43.2260   23.6370   32.5130 H   0  0  0  0  0  0  0  0  0  0  0  0
   41.6740   23.4490   31.4420 H   0  0  0  0  0  0  0  0  0  0  0  0
   40.5740   22.0350   33.1790 H   0  0  0  0  0  0  0  0  0  0  0  0
   42.3140   22.0690   34.4440 N   0  0  0  0  0  0  0  0  0  0  0  0
   42.8920   22.7020   35.5070 C   0  0  0  0  0  3  0  0  0  0  0  0
   43.6780   21.8670   36.2120 N   0  0  0  0  0  0  0  0  0  0  0  0
   43.6300   20.6600   35.6190 C   0  0  0  0  0  0  0  0  0  0  0  0
   44.1840   19.4160   35.8270 C   0  0  0  0  0  0  0  0  0  0  0  0
   43.9410   18.3580   35.0330 N   0  0  0  0  0  0  0  0  0  0  0  0
   43.1160   18.5340   33.9880 C   0  0  0  0  0  3  0  0  0  0  0  0
   42.5760   19.7350   33.7810 N   0  0  0  0  0  0  0  0  0  0  0  0
   42.7880   20.8120   34.5390 C   0  0  0  0  0  0  0  0  0  0  0  0
   45.0570   19.2570   36.9460 N   0  0  0  0  0  0  0  0  0  0  0  0
   45.0210   19.6940   37.8930 H   0  0  0  0  0  0  0  0  0  0  0  0
   45.8710   18.6030   36.8200 H   0  0  0  0  0  0  0  0  0  0  0  0
  1 13  1  0  0  0  0
  2  7  1  0  0  0  0
  2  1  1  0  0  0  0
  3  9  1  0  0  0  0
  3  2  1  0  0  0  0
  3  4  1  0  0  0  0
  4  5  1  0  0  0  0
  4 10  1  0  0  0  0
  5  1  1  0  0  0  0
  5 12  1  1  0  0  0
  6  2  1  0  0  0  0
  8  3  1  0  0  0  0
 11  4  1  0  0  0  0
 13 18  1  0  0  0  0
 14 13  1  0  0  0  0
 15 13  1  0  0  0  0
 16 21  1  0  0  0  0
 16 22  1  0  0  0  0
 17 16  2  0  0  0  0
 18 19  2  0  0  0  0
 18 17  1  0  0  0  0
 19 20  1  0  0  0  0
 20 24  1  0  0  0  0
 20 21  2  0  0  0  0
 23 17  1  0  0  0  0
 25 26  1  0  0  0  0
 25  5  1  0  0  0  0
 26 29  1  1  0  0  0
 27 30  1  0  0  0  0
 27 28  1  0  0  0  0
 27 26  1  0  0  0  0
 28 32  1  6  0  0  0
 28 26  1  0  0  0  0
 28 33  1  0  0  0  0
 31 27  1  0  0  0  0
 33 41  1  0  0  0  0
 33 34  1  0  0  0  0
 34 35  2  0  0  0  0
 36 37  1  0  0  0  0
 36 35  1  0  0  0  0
 37 42  1  0  0  0  0
 38 37  2  0  0  0  0
 39 38  1  0  0  0  0
 40 39  2  0  0  0  0
 40 41  1  0  0  0  0
 41 36  2  0  0  0  0
 42 43  1  0  0  0  0
 44 42  1  0  0  0  0
M  END
>  <minimizedAffinity>
-4.18856621

>  <minimizedRMSD>
4.17671251

$$$$
