
 OpenBabel03262519163D

 40 44  0  0  0  0  0  0  0  0999 V2000
   38.1700   26.3140   33.8070 C   0  0  0  0  0  0  0  0  0  0  0  0
   39.3480   26.2820   33.0870 C   0  0  0  0  0  0  0  0  0  0  0  0
   40.2480   25.3340   33.4450 C   0  0  0  0  0  0  0  0  0  0  0  0
   39.9430   24.4780   34.4820 C   0  0  0  0  0  0  0  0  0  0  0  0
   38.2440   25.0360   35.0180 S   0  0  0  0  0  0  0  0  0  0  0  0
   39.5650   26.9710   32.2730 H   0  0  0  0  0  0  0  0  0  0  0  0
   41.5270   25.0950   32.8610 N   0  0  0  0  0  0  0  0  0  0  0  0
   41.8140   24.2620   31.8190 C   0  0  0  0  0  0  0  0  0  0  0  0
   43.1290   24.2870   31.5360 N   0  0  0  0  0  0  0  0  0  0  0  0
   43.7310   25.1370   32.3850 C   0  0  0  0  0  0  0  0  0  0  0  0
   45.0530   25.5050   32.5010 C   0  0  0  0  0  0  0  0  0  0  0  0
   45.3380   26.3910   33.4710 N   0  0  0  0  0  0  0  0  0  0  0  0
   44.3530   26.8690   34.2640 C   0  0  0  0  0  0  0  0  0  0  0  0
   43.0540   26.5150   34.1590 N   0  0  0  0  0  0  0  0  0  0  0  0
   42.7160   25.6240   33.1970 C   0  0  0  0  0  0  0  0  0  0  0  0
   46.0120   24.9260   31.5950 N   0  0  0  0  0  0  0  0  0  0  0  0
   46.0790   25.7700   30.9540 H   0  0  0  0  0  0  0  0  0  0  0  0
   46.4060   23.9690   31.6960 H   0  0  0  0  0  0  0  0  0  0  0  0
   36.4060   27.3740   32.3230 C   0  0  0  0  0  0  0  0  0  0  0  0
   37.0840   27.2540   33.5620 C   0  0  0  0  0  0  0  0  0  0  0  0
   36.7360   28.0560   34.6340 C   0  0  0  0  0  0  0  0  0  0  0  0
   35.7210   28.9380   34.4030 N   0  0  0  0  0  0  0  0  0  0  0  0
   35.0760   29.0470   33.2100 C   0  0  0  0  0  0  0  0  0  0  0  0
   35.4350   28.2600   32.1950 N   0  0  0  0  0  0  0  0  0  0  0  0
   36.7650   26.6960   31.5600 H   0  0  0  0  0  0  0  0  0  0  0  0
   37.2020   28.0170   35.5900 H   0  0  0  0  0  0  0  0  0  0  0  0
   34.0050   30.0510   33.1160 C   0  0  0  0  0  0  0  0  0  0  0  0
   33.8770   30.8750   34.1920 C   0  0  0  0  0  0  0  0  0  0  0  0
   32.4350   31.9780   33.7000 S   0  0  0  0  0  0  0  0  0  0  0  0
   32.2990   31.0280   32.0300 C   0  0  0  0  0  0  0  0  0  0  0  0
   33.1360   30.3020   32.1830 N   0  0  0  0  0  0  0  0  0  0  0  0
   31.3360   31.3310   31.0340 N   0  0  0  0  0  0  0  0  0  0  0  0
   34.2970   31.1030   35.1800 H   0  0  0  0  0  0  0  0  0  0  0  0
   30.3140   31.1820   31.2810 H   0  0  0  0  0  0  0  0  0  0  0  0
   31.8410   31.6700   30.1760 H   0  0  0  0  0  0  0  0  0  0  0  0
   40.5790   23.3990   35.1470 C   0  0  0  0  0  0  0  0  0  0  0  0
   41.3520   23.5880   36.0790 O   0  0  0  0  0  0  0  0  0  0  0  0
   40.3280   22.0480   34.7370 N   0  0  0  0  0  0  0  0  0  0  0  0
   40.0380   21.4030   35.4880 H   0  0  0  0  0  0  0  0  0  0  0  0
   40.2490   21.2370   34.0930 H   0  0  0  0  0  0  0  0  0  0  0  0
  1  5  1  0  0  0  0
  2  3  1  0  0  0  0
  2  1  2  0  0  0  0
  3  4  2  0  0  0  0
  4  5  1  0  0  0  0
  4 36  1  0  0  0  0
  6  2  1  0  0  0  0
  7 15  1  0  0  0  0
  7  3  1  0  0  0  0
  8  7  1  0  0  0  0
  9  8  2  0  0  0  0
  9 10  1  0  0  0  0
 10 11  2  0  0  0  0
 10 15  1  0  0  0  0
 11 12  1  0  0  0  0
 12 13  2  0  0  0  0
 14 13  1  0  0  0  0
 15 14  2  0  0  0  0
 16 18  1  0  0  0  0
 16 11  1  0  0  0  0
 17 16  1  0  0  0  0
 19 20  1  0  0  0  0
 20  1  1  0  0  0  0
 20 21  2  0  0  0  0
 21 26  1  0  0  0  0
 22 21  1  0  0  0  0
 23 22  2  0  0  0  0
 24 19  2  0  0  0  0
 24 23  1  0  0  0  0
 25 19  1  0  0  0  0
 27 23  1  0  0  0  0
 27 28  2  0  0  0  0
 28 33  1  0  0  0  0
 29 28  1  0  0  0  0
 30 31  2  0  0  0  0
 30 29  1  0  0  0  0
 31 27  1  0  0  0  0
 32 34  1  0  0  0  0
 32 30  1  0  0  0  0
 35 32  1  0  0  0  0
 36 37  2  0  0  0  0
 38 36  1  0  0  0  0
 38 39  1  0  0  0  0
 40 38  1  0  0  0  0
M  END
>  <minimizedAffinity>
-4.48710346

>  <minimizedRMSD>
10.1954193

$$$$
