
 OpenBabel03262519283D

 36 40  0  0  0  0  0  0  0  0999 V2000
   39.8640   22.7820   37.5270 C   0  0  0  0  0  0  0  0  0  0  0  0
   39.0130   23.1960   38.5600 C   0  0  0  0  0  0  0  0  0  0  0  0
   37.7160   23.5960   38.1860 C   0  0  0  0  0  0  0  0  0  0  0  0
   37.3560   23.5650   36.8870 N   0  0  0  0  0  0  0  0  0  0  0  0
   38.2370   23.1490   35.9270 C   0  0  0  0  0  0  0  0  0  0  0  0
   39.4620   22.7670   36.2440 N   0  0  0  0  0  0  0  0  0  0  0  0
   39.2810   23.2270   39.5870 H   0  0  0  0  0  0  0  0  0  0  0  0
   37.0230   23.9240   38.9530 H   0  0  0  0  0  0  0  0  0  0  0  0
   37.8970   23.1010   34.5350 N   0  0  0  0  0  0  0  0  0  0  0  0
   37.2620   22.1350   33.8100 C   0  0  0  0  0  3  0  0  0  0  0  0
   37.1720   22.5520   32.5230 N   0  0  0  0  0  0  0  0  0  0  0  0
   37.7400   23.7690   32.4260 C   0  0  0  0  0  0  0  0  0  0  0  0
   37.9680   24.6990   31.4480 C   0  0  0  0  0  0  0  0  0  0  0  0
   38.5780   25.8620   31.6490 N   0  0  0  0  0  0  0  0  0  0  0  0
   39.0060   26.1630   32.8870 C   0  0  0  0  0  3  0  0  0  0  0  0
   38.8010   25.2840   33.8580 N   0  0  0  0  0  0  0  0  0  0  0  0
   38.1940   24.1130   33.6860 C   0  0  0  0  0  0  0  0  0  0  0  0
   37.5300   24.4170   30.1280 N   0  0  0  0  0  0  0  0  0  0  0  0
   37.5590   23.9230   29.2260 H   0  0  0  0  0  0  0  0  0  0  0  0
   36.7290   25.0450   29.9260 H   0  0  0  0  0  0  0  0  0  0  0  0
   41.1230   22.3950   37.8980 O   0  0  0  0  0  0  0  0  0  0  0  0
   42.2180   22.3200   37.0610 C   0  0  0  0  0  0  0  0  0  0  0  0
   42.8360   23.3710   36.3970 C   0  0  0  0  0  0  0  0  0  0  0  0
   43.8660   22.9300   35.6750 N   0  0  0  0  0  0  0  0  0  0  0  0
   43.9910   21.5870   35.8150 C   0  0  0  0  0  0  0  0  0  0  0  0
   44.8610   20.6620   35.3020 C   0  0  0  0  0  0  0  0  0  0  0  0
   44.7270   19.3160   35.6440 C   0  0  0  0  0  0  0  0  0  0  0  0
   43.7070   18.9220   36.5070 C   0  0  0  0  0  0  0  0  0  0  0  0
   42.8340   19.8820   37.0140 C   0  0  0  0  0  0  0  0  0  0  0  0
   42.9740   21.2160   36.6700 C   0  0  0  0  0  0  0  0  0  0  0  0
   42.5310   24.4090   36.4500 H   0  0  0  0  0  0  0  0  0  0  0  0
   44.5060   23.5190   35.0740 H   0  0  0  0  0  0  0  0  0  0  0  0
   45.6540   20.9770   34.6330 H   0  0  0  0  0  0  0  0  0  0  0  0
   45.4480   18.6250   35.2080 H   0  0  0  0  0  0  0  0  0  0  0  0
   43.6430   17.8660   36.7420 H   0  0  0  0  0  0  0  0  0  0  0  0
   42.0420   19.5340   37.6900 H   0  0  0  0  0  0  0  0  0  0  0  0
  1 21  1  0  0  0  0
  1  2  1  0  0  0  0
  2  7  1  0  0  0  0
  3  2  2  0  0  0  0
  3  8  1  0  0  0  0
  4  3  1  0  0  0  0
  5  6  1  0  0  0  0
  5  4  2  0  0  0  0
  6  1  2  0  0  0  0
  9  5  1  0  0  0  0
 10  9  1  0  0  0  0
 11 10  2  0  0  0  0
 12 11  1  0  0  0  0
 12 17  1  0  0  0  0
 13 14  1  0  0  0  0
 13 12  2  0  0  0  0
 14 15  2  0  0  0  0
 15 16  1  0  0  0  0
 17 16  2  0  0  0  0
 17  9  1  0  0  0  0
 18 13  1  0  0  0  0
 19 18  1  0  0  0  0
 20 18  1  0  0  0  0
 22 21  1  0  0  0  0
 23 31  1  0  0  0  0
 23 22  2  0  0  0  0
 24 25  1  0  0  0  0
 24 23  1  0  0  0  0
 25 30  1  0  0  0  0
 26 27  1  0  0  0  0
 26 25  2  0  0  0  0
 27 28  2  0  0  0  0
 28 35  1  0  0  0  0
 28 29  1  0  0  0  0
 29 36  1  0  0  0  0
 30 29  2  0  0  0  0
 30 22  1  0  0  0  0
 32 24  1  0  0  0  0
 33 26  1  0  0  0  0
 34 27  1  0  0  0  0
M  END
>  <minimizedAffinity>
-5.66215897

>  <minimizedRMSD>
0.614114046

$$$$
