
 OpenBabel03262519333D

 19 20  0  0  0  0  0  0  0  0999 V2000
   37.6750   23.7380   36.6860 C   0  0  0  0  0  0  0  0  0  0  0  0
   37.2800   24.1010   37.6580 H   0  0  0  0  0  0  0  0  0  0  0  0
   36.9550   23.1450   36.1130 H   0  0  0  0  0  0  0  0  0  0  0  0
   38.5980   27.2720   35.6920 C   0  0  0  0  0  0  0  0  0  0  0  0
   38.3310   26.1580   36.5030 C   0  0  0  0  0  0  0  0  0  0  0  0
   37.9720   24.9610   35.8800 C   0  0  0  0  0  0  0  0  0  0  0  0
   37.8980   24.9360   34.5090 N   0  0  0  0  0  0  0  0  0  0  0  0
   38.1620   26.0240   33.7700 C   0  0  0  0  0  0  0  0  0  0  0  0
   38.5080   27.1840   34.3530 N   0  0  0  0  0  0  0  0  0  0  0  0
   38.8790   28.2160   36.1420 H   0  0  0  0  0  0  0  0  0  0  0  0
   38.4030   26.2340   37.5700 H   0  0  0  0  0  0  0  0  0  0  0  0
   38.0790   25.9160   32.6930 H   0  0  0  0  0  0  0  0  0  0  0  0
   38.9400   23.0300   36.8990 N   0  0  0  0  0  0  0  0  0  0  0  0
   39.4620   22.2980   35.9160 N   0  0  0  0  0  0  0  0  0  0  0  0
   40.6190   21.7380   36.3260 C   0  0  0  0  0  0  0  0  0  0  0  0
   41.2540   21.0990   35.7400 H   0  0  0  0  0  0  0  0  0  0  0  0
   40.7950   22.1690   37.6400 C   0  0  0  0  0  0  0  0  0  0  0  0
   39.7250   22.9760   37.9660 C   0  0  0  0  0  0  0  0  0  0  0  0
   39.5360   23.4770   38.8910 H   0  0  0  0  0  0  0  0  0  0  0  0
  1 13  1  0  0  0  0
  1  2  1  0  0  0  0
  3  1  1  0  0  0  0
  4 10  1  0  0  0  0
  4  5  1  0  0  0  0
  5 11  1  0  0  0  0
  6  5  2  0  0  0  0
  6  1  1  0  0  0  0
  7  6  1  0  0  0  0
  8  9  1  0  0  0  0
  8  7  2  0  0  0  0
  9  4  2  0  0  0  0
 12  8  1  0  0  0  0
 13 18  1  0  0  0  0
 14 15  2  0  0  0  0
 14 13  1  0  0  0  0
 15 17  1  0  0  0  0
 16 15  1  0  0  0  0
 17 18  2  0  0  0  0
 18 19  1  0  0  0  0
M  END
>  <minimizedAffinity>
-3.44787312

>  <minimizedRMSD>
4.47385406

$$$$
