
 OpenBabel03262517313D

 28 31  0  0  0  0  0  0  0  0999 V2000
   37.5770   21.9000   35.3420 C   0  0  0  0  0  0  0  0  0  0  0  0
   36.3860   21.3050   35.3930 C   0  0  0  0  0  0  0  0  0  0  0  0
   35.7480   20.6230   34.4300 C   0  0  0  0  0  0  0  0  0  0  0  0
   36.6110   20.6210   33.2200 C   0  0  0  0  0  0  0  0  0  0  0  0
   38.1810   21.5850   33.6440 S   0  0  0  0  0  0  0  0  0  0  0  0
   35.6640   21.2450   36.2400 H   0  0  0  0  0  0  0  0  0  0  0  0
   34.9040   20.0810   34.1370 H   0  0  0  0  0  0  0  0  0  0  0  0
   39.8630   22.9320   37.9370 C   0  0  0  0  0  0  0  0  0  0  0  0
   39.1050   23.8040   38.7190 C   0  0  0  0  0  0  0  0  0  0  0  0
   37.7710   24.0540   38.3560 C   0  0  0  0  0  0  0  0  0  0  0  0
   37.2770   23.4280   37.2500 N   0  0  0  0  0  0  0  0  0  0  0  0
   38.0540   22.5830   36.5150 C   0  0  0  0  0  0  0  0  0  0  0  0
   39.3210   22.3470   36.8600 N   0  0  0  0  0  0  0  0  0  0  0  0
   40.8750   22.7520   38.2260 H   0  0  0  0  0  0  0  0  0  0  0  0
   39.5620   24.2520   39.5650 H   0  0  0  0  0  0  0  0  0  0  0  0
   37.1680   24.7270   38.9510 H   0  0  0  0  0  0  0  0  0  0  0  0
   36.5430   20.0930   31.8840 N   0  0  0  0  0  0  0  0  0  0  0  0
   36.3950   20.9100   30.8300 C   0  0  0  0  0  0  0  0  0  0  0  0
   36.3720   20.0820   29.7700 N   0  0  0  0  0  0  0  0  0  0  0  0
   36.5020   18.8290   30.1840 C   0  0  0  0  0  0  0  0  0  0  0  0
   36.5340   17.6380   29.4520 C   0  0  0  0  0  0  0  0  0  0  0  0
   36.6810   16.4880   30.1690 N   0  0  0  0  0  0  0  0  0  0  0  0
   36.7880   16.5170   31.5130 C   0  0  0  0  0  0  0  0  0  0  0  0
   36.7580   17.6460   32.2120 N   0  0  0  0  0  0  0  0  0  0  0  0
   36.6160   18.8110   31.5680 C   0  0  0  0  0  0  0  0  0  0  0  0
   36.4170   17.6580   28.0330 N   0  0  0  0  0  0  0  0  0  0  0  0
   37.1960   17.2840   27.4350 H   0  0  0  0  0  0  0  0  0  0  0  0
   35.5540   18.0450   27.5660 H   0  0  0  0  0  0  0  0  0  0  0  0
  1  2  2  0  0  0  0
  1 12  1  0  0  0  0
  2  6  1  0  0  0  0
  3  2  1  0  0  0  0
  4  5  1  0  0  0  0
  4  3  2  0  0  0  0
  5  1  1  0  0  0  0
  7  3  1  0  0  0  0
  8 14  1  0  0  0  0
  8  9  1  0  0  0  0
  9 15  1  0  0  0  0
 10  9  2  0  0  0  0
 10 16  1  0  0  0  0
 11 10  1  0  0  0  0
 12 13  1  0  0  0  0
 12 11  2  0  0  0  0
 13  8  2  0  0  0  0
 17  4  1  0  0  0  0
 18 17  1  0  0  0  0
 19 20  1  0  0  0  0
 19 18  2  0  0  0  0
 20 25  1  0  0  0  0
 21 22  1  0  0  0  0
 21 20  2  0  0  0  0
 22 23  2  0  0  0  0
 23 24  1  0  0  0  0
 25 17  1  0  0  0  0
 25 24  2  0  0  0  0
 26 21  1  0  0  0  0
 27 26  1  0  0  0  0
 28 26  1  0  0  0  0
M  END
>  <minimizedAffinity>
-4.6272459

>  <minimizedRMSD>
1.67747235

$$$$
