
 OpenBabel03262515373D

 37 40  0  0  0  0  0  0  0  0999 V2000
   38.9950   26.5210   35.3190 C   0  0  0  0  0  0  0  0  0  0  0  0
   39.9570   26.7630   35.8250 H   0  0  0  0  0  0  0  0  0  0  0  0
   39.2100   26.4650   34.2450 H   0  0  0  0  0  0  0  0  0  0  0  0
   37.6180   23.7230   37.3870 C   0  0  0  0  0  0  0  0  0  0  0  0
   37.6460   22.6780   36.4640 C   0  0  0  0  0  0  0  0  0  0  0  0
   38.1300   22.9310   35.1570 C   0  0  0  0  0  0  0  0  0  0  0  0
   38.5460   24.1910   34.8630 N   0  0  0  0  0  0  0  0  0  0  0  0
   38.5030   25.1850   35.7860 C   0  0  0  0  0  0  0  0  0  0  0  0
   38.0460   24.9650   37.0370 N   0  0  0  0  0  0  0  0  0  0  0  0
   37.2600   23.6000   38.4020 H   0  0  0  0  0  0  0  0  0  0  0  0
   37.2940   21.7110   36.7910 H   0  0  0  0  0  0  0  0  0  0  0  0
   38.1610   21.8400   34.1900 C   0  0  0  0  0  0  0  0  0  0  0  0
   39.0390   22.0080   33.5120 H   0  0  0  0  0  0  0  0  0  0  0  0
   38.3710   20.8950   34.7550 H   0  0  0  0  0  0  0  0  0  0  0  0
   36.9820   21.7580   33.3820 N   0  0  0  0  0  0  0  0  0  0  0  0
   36.7280   22.5600   32.3520 N   0  0  0  0  0  0  0  0  0  0  0  0
   35.5620   22.2550   31.7870 C   0  0  0  0  0  0  0  0  0  0  0  0
   35.0380   22.6920   30.9340 H   0  0  0  0  0  0  0  0  0  0  0  0
   35.0080   21.1870   32.4820 C   0  0  0  0  0  0  0  0  0  0  0  0
   35.9460   20.9110   33.4820 C   0  0  0  0  0  0  0  0  0  0  0  0
   35.8140   20.1200   34.2080 H   0  0  0  0  0  0  0  0  0  0  0  0
   37.9790   27.5730   35.6700 C   0  0  0  0  0  0  0  0  0  0  0  0
   37.3130   27.2380   36.4970 H   0  0  0  0  0  0  0  0  0  0  0  0
   38.4900   28.4980   36.0470 H   0  0  0  0  0  0  0  0  0  0  0  0
   37.1050   27.8910   34.5110 C   0  0  0  0  0  0  0  0  0  0  0  0
   37.2610   27.3620   33.2880 N   0  0  0  0  0  0  0  0  0  0  0  0
   36.3450   27.8310   32.4880 O   0  0  0  0  0  0  0  0  0  0  0  0
   35.5840   28.6530   33.1220 C   0  0  0  0  0  0  0  0  0  0  0  0
   36.0360   28.7130   34.3990 N   0  0  0  0  0  0  0  0  0  0  0  0
   34.4290   29.4430   32.7060 C   0  0  0  0  0  0  0  0  0  0  0  0
   34.3200   30.5210   31.8440 C   0  0  0  0  0  0  0  0  0  0  0  0
   32.9770   30.8960   31.8040 C   0  0  0  0  0  0  0  0  0  0  0  0
   32.3440   29.9980   32.6650 C   0  0  0  0  0  0  0  0  0  0  0  0
   33.2060   29.1680   33.1740 O   0  0  0  0  0  0  0  0  0  0  0  0
   35.1840   30.9350   31.3350 H   0  0  0  0  0  0  0  0  0  0  0  0
   32.6190   31.7210   31.2010 H   0  0  0  0  0  0  0  0  0  0  0  0
   31.2730   30.0470   32.8380 H   0  0  0  0  0  0  0  0  0  0  0  0
  1 22  1  0  0  0  0
  1  8  1  0  0  0  0
  1  2  1  0  0  0  0
  3  1  1  0  0  0  0
  4 10  1  0  0  0  0
  5 11  1  0  0  0  0
  5  4  2  0  0  0  0
  6  5  1  0  0  0  0
  7  6  2  0  0  0  0
  7  8  1  0  0  0  0
  8  9  2  0  0  0  0
  9  4  1  0  0  0  0
 12 14  1  0  0  0  0
 12  6  1  0  0  0  0
 13 12  1  0  0  0  0
 15 20  1  0  0  0  0
 15 12  1  0  0  0  0
 16 15  1  0  0  0  0
 17 16  2  0  0  0  0
 17 19  1  0  0  0  0
 18 17  1  0  0  0  0
 19 20  2  0  0  0  0
 20 21  1  0  0  0  0
 22 24  1  0  0  0  0
 22 23  1  0  0  0  0
 25 22  1  0  0  0  0
 26 25  2  0  0  0  0
 27 28  1  0  0  0  0
 27 26  1  0  0  0  0
 28 29  2  0  0  0  0
 29 25  1  0  0  0  0
 30 28  1  0  0  0  0
 30 34  1  0  0  0  0
 31 30  2  0  0  0  0
 32 31  1  0  0  0  0
 32 33  2  0  0  0  0
 33 37  1  0  0  0  0
 33 34  1  0  0  0  0
 35 31  1  0  0  0  0
 36 32  1  0  0  0  0
M  END
>  <minimizedAffinity>
-5.28535175

>  <minimizedRMSD>
2.75358963

$$$$
