
 OpenBabel03262519473D

 44 48  0  0  1  0  0  0  0  0999 V2000
   37.5490   25.5130   33.0730 N   0  0  0  0  0  0  0  0  0  0  0  0
   37.0220   24.4350   32.4920 C   0  0  0  0  0  0  0  0  0  0  0  0
   36.0140   24.7160   31.5940 C   0  0  0  0  0  0  0  0  0  0  0  0
   35.9150   26.0460   31.6240 N   0  0  0  0  0  0  0  0  0  0  0  0
   36.8330   26.5270   32.5080 C   0  0  0  0  0  0  0  0  0  0  0  0
   37.3740   23.4220   32.7220 H   0  0  0  0  0  0  0  0  0  0  0  0
   35.4630   23.9720   31.0220 H   0  0  0  0  0  0  0  0  0  0  0  0
   36.9530   28.0090   32.7130 C   0  0  1  0  0  0  0  0  0  0  0  0
   36.3080   28.9060   31.7350 C   0  0  0  0  0  0  0  0  0  0  0  0
   35.6570   28.7330   33.0870 C   0  0  2  0  0  0  0  0  0  0  0  0
   37.8510   28.4020   33.2550 H   0  0  0  0  0  0  0  0  0  0  0  0
   35.8060   28.4010   30.8590 H   0  0  0  0  0  0  0  0  0  0  0  0
   36.6650   29.9140   31.5210 H   0  0  0  0  0  0  0  0  0  0  0  0
   34.7620   28.0810   33.0940 H   0  0  0  0  0  0  0  0  0  0  0  0
   35.7230   29.8150   34.0240 N   0  0  0  0  0  0  0  0  0  0  0  0
   36.2160   29.8250   35.2730 C   0  0  0  0  0  3  0  0  0  0  0  0
   36.0620   31.0780   35.7720 N   0  0  0  0  0  0  0  0  0  0  0  0
   35.4790   31.8390   34.8430 C   0  0  0  0  0  0  0  0  0  0  0  0
   35.1040   33.1750   34.8460 C   0  0  0  0  0  0  0  0  0  0  0  0
   34.5240   33.6890   33.7470 N   0  0  0  0  0  0  0  0  0  0  0  0
   34.3040   32.9320   32.6570 C   0  0  0  0  0  3  0  0  0  0  0  0
   34.6800   31.6310   32.6820 N   0  0  0  0  0  0  0  0  0  0  0  0
   35.2660   31.0440   33.7400 C   0  0  0  0  0  0  0  0  0  0  0  0
   35.3130   34.0200   35.9730 N   0  0  0  0  0  0  0  0  0  0  0  0
   36.0440   34.4440   36.5640 H   0  0  0  0  0  0  0  0  0  0  0  0
   34.3630   34.3150   36.3270 H   0  0  0  0  0  0  0  0  0  0  0  0
   38.5580   25.7340   34.0320 C   0  0  0  0  0  0  0  0  0  0  0  0
   39.2870   24.8910   33.9540 H   0  0  0  0  0  0  0  0  0  0  0  0
   39.1700   26.6370   33.7510 H   0  0  0  0  0  0  0  0  0  0  0  0
   38.0600   25.7700   35.4290 C   0  0  1  0  0  0  0  0  0  0  0  0
   36.9340   25.7020   35.4240 H   0  0  0  0  0  0  0  0  0  0  0  0
   38.6590   23.3730   38.2920 C   0  0  0  0  0  0  0  0  0  0  0  0
   38.0610   24.4100   37.5640 C   0  0  0  0  0  0  0  0  0  0  0  0
   38.6200   24.7110   36.2880 C   0  0  0  0  0  0  0  0  0  0  0  0
   39.7060   23.9730   35.8490 N   0  0  0  0  0  0  0  0  0  0  0  0
   40.2460   22.9990   36.5620 C   0  0  0  0  0  0  0  0  0  0  0  0
   39.7170   22.6910   37.8060 N   0  0  0  0  0  0  0  0  0  0  0  0
   38.2550   23.1240   39.2650 H   0  0  0  0  0  0  0  0  0  0  0  0
   37.2130   24.9800   37.9180 H   0  0  0  0  0  0  0  0  0  0  0  0
   41.0940   22.4470   36.1790 H   0  0  0  0  0  0  0  0  0  0  0  0
   38.3250   27.1400   36.0450 C   0  0  0  0  0  0  0  0  0  0  0  0
   38.6770   27.8350   35.2650 H   0  0  0  0  0  0  0  0  0  0  0  0
   37.4830   27.5270   36.6290 H   0  0  0  0  0  0  0  0  0  0  0  0
   39.1860   27.0300   36.7580 H   0  0  0  0  0  0  0  0  0  0  0  0
  1 27  1  0  0  0  0
  2  6  1  0  0  0  0
  2  1  1  0  0  0  0
  3  4  1  0  0  0  0
  3  2  2  0  0  0  0
  4  5  2  0  0  0  0
  5  8  1  0  0  0  0
  5  1  1  0  0  0  0
  7  3  1  0  0  0  0
  8 10  1  0  0  0  0
  8 11  1  1  0  0  0
  9  8  1  0  0  0  0
  9 10  1  0  0  0  0
 10 14  1  1  0  0  0
 10 15  1  0  0  0  0
 12  9  1  0  0  0  0
 13  9  1  0  0  0  0
 15 16  1  0  0  0  0
 16 17  2  0  0  0  0
 18 19  1  0  0  0  0
 18 17  1  0  0  0  0
 19 24  1  0  0  0  0
 20 19  2  0  0  0  0
 21 22  2  0  0  0  0
 21 20  1  0  0  0  0
 22 23  1  0  0  0  0
 23 15  1  0  0  0  0
 23 18  2  0  0  0  0
 24 26  1  0  0  0  0
 24 25  1  0  0  0  0
 27 30  1  0  0  0  0
 28 27  1  0  0  0  0
 29 27  1  0  0  0  0
 30 31  1  6  0  0  0
 30 41  1  0  0  0  0
 30 34  1  0  0  0  0
 32 38  1  0  0  0  0
 33 39  1  0  0  0  0
 33 32  2  0  0  0  0
 34 33  1  0  0  0  0
 35 34  2  0  0  0  0
 35 36  1  0  0  0  0
 36 37  2  0  0  0  0
 37 32  1  0  0  0  0
 40 36  1  0  0  0  0
 41 43  1  0  0  0  0
 41 44  1  0  0  0  0
 42 41  1  0  0  0  0
M  END
>  <minimizedAffinity>
-5.67813921

>  <minimizedRMSD>
1.79471004

$$$$
