
 OpenBabel03262519473D

 44 48  0  0  1  0  0  0  0  0999 V2000
   37.4440   25.6560   32.9710 N   0  0  0  0  0  0  0  0  0  0  0  0
   36.9170   24.5760   32.3940 C   0  0  0  0  0  0  0  0  0  0  0  0
   35.8970   24.8530   31.5080 C   0  0  0  0  0  0  0  0  0  0  0  0
   35.7910   26.1820   31.5420 N   0  0  0  0  0  0  0  0  0  0  0  0
   36.7170   26.6670   32.4160 C   0  0  0  0  0  0  0  0  0  0  0  0
   37.2770   23.5640   32.6180 H   0  0  0  0  0  0  0  0  0  0  0  0
   35.3440   24.1070   30.9410 H   0  0  0  0  0  0  0  0  0  0  0  0
   36.8300   28.1490   32.6230 C   0  0  1  0  0  0  0  0  0  0  0  0
   36.1360   29.0440   31.6770 C   0  0  0  0  0  0  0  0  0  0  0  0
   35.5430   28.8580   33.0530 C   0  0  2  0  0  0  0  0  0  0  0  0
   37.7460   28.5490   33.1280 H   0  0  0  0  0  0  0  0  0  0  0  0
   35.6030   28.5370   30.8200 H   0  0  0  0  0  0  0  0  0  0  0  0
   36.4730   30.0550   31.4520 H   0  0  0  0  0  0  0  0  0  0  0  0
   34.6570   28.1970   33.0950 H   0  0  0  0  0  0  0  0  0  0  0  0
   35.6390   29.9370   33.9920 N   0  0  0  0  0  0  0  0  0  0  0  0
   36.1580   29.9400   35.2290 C   0  0  0  0  0  3  0  0  0  0  0  0
   36.0230   31.1930   35.7360 N   0  0  0  0  0  0  0  0  0  0  0  0
   35.4260   31.9600   34.8230 C   0  0  0  0  0  0  0  0  0  0  0  0
   35.0600   33.2980   34.8380 C   0  0  0  0  0  0  0  0  0  0  0  0
   34.4580   33.8210   33.7520 N   0  0  0  0  0  0  0  0  0  0  0  0
   34.2100   33.0670   32.6660 C   0  0  0  0  0  3  0  0  0  0  0  0
   34.5790   31.7640   32.6790 N   0  0  0  0  0  0  0  0  0  0  0  0
   35.1820   31.1700   33.7220 C   0  0  0  0  0  0  0  0  0  0  0  0
   35.2990   34.1380   35.9620 N   0  0  0  0  0  0  0  0  0  0  0  0
   36.0460   34.5570   36.5380 H   0  0  0  0  0  0  0  0  0  0  0  0
   34.3590   34.4390   36.3380 H   0  0  0  0  0  0  0  0  0  0  0  0
   38.4630   25.8810   33.9190 C   0  0  0  0  0  0  0  0  0  0  0  0
   39.1940   25.0410   33.8330 H   0  0  0  0  0  0  0  0  0  0  0  0
   39.0690   26.7860   33.6310 H   0  0  0  0  0  0  0  0  0  0  0  0
   37.9800   25.9150   35.3210 C   0  0  1  0  0  0  0  0  0  0  0  0
   36.8530   25.8870   35.3270 H   0  0  0  0  0  0  0  0  0  0  0  0
   38.5310   23.4690   38.1520 C   0  0  0  0  0  0  0  0  0  0  0  0
   37.9630   24.5360   37.4440 C   0  0  0  0  0  0  0  0  0  0  0  0
   38.5110   24.8260   36.1610 C   0  0  0  0  0  0  0  0  0  0  0  0
   39.5570   24.0480   35.6950 N   0  0  0  0  0  0  0  0  0  0  0  0
   40.0690   23.0460   36.3890 C   0  0  0  0  0  0  0  0  0  0  0  0
   39.5510   22.7480   37.6400 N   0  0  0  0  0  0  0  0  0  0  0  0
   38.1350   23.2270   39.1300 H   0  0  0  0  0  0  0  0  0  0  0  0
   37.1460   25.1380   37.8180 H   0  0  0  0  0  0  0  0  0  0  0  0
   40.8870   22.4630   35.9860 H   0  0  0  0  0  0  0  0  0  0  0  0
   38.2990   27.2670   35.9530 C   0  0  0  0  0  0  0  0  0  0  0  0
   38.6670   27.9600   35.1780 H   0  0  0  0  0  0  0  0  0  0  0  0
   37.4770   27.6750   36.5500 H   0  0  0  0  0  0  0  0  0  0  0  0
   39.1620   27.1180   36.6550 H   0  0  0  0  0  0  0  0  0  0  0  0
  1 27  1  0  0  0  0
  2  6  1  0  0  0  0
  2  1  1  0  0  0  0
  3  4  1  0  0  0  0
  3  2  2  0  0  0  0
  4  5  2  0  0  0  0
  5  8  1  0  0  0  0
  5  1  1  0  0  0  0
  7  3  1  0  0  0  0
  8 10  1  0  0  0  0
  8 11  1  1  0  0  0
  9  8  1  0  0  0  0
  9 10  1  0  0  0  0
 10 14  1  1  0  0  0
 10 15  1  0  0  0  0
 12  9  1  0  0  0  0
 13  9  1  0  0  0  0
 15 16  1  0  0  0  0
 16 17  2  0  0  0  0
 18 19  1  0  0  0  0
 18 17  1  0  0  0  0
 19 24  1  0  0  0  0
 20 19  2  0  0  0  0
 21 22  2  0  0  0  0
 21 20  1  0  0  0  0
 22 23  1  0  0  0  0
 23 15  1  0  0  0  0
 23 18  2  0  0  0  0
 24 26  1  0  0  0  0
 24 25  1  0  0  0  0
 27 30  1  0  0  0  0
 28 27  1  0  0  0  0
 29 27  1  0  0  0  0
 30 31  1  6  0  0  0
 30 41  1  0  0  0  0
 30 34  1  0  0  0  0
 32 38  1  0  0  0  0
 33 39  1  0  0  0  0
 33 32  2  0  0  0  0
 34 33  1  0  0  0  0
 35 34  2  0  0  0  0
 35 36  1  0  0  0  0
 36 37  2  0  0  0  0
 37 32  1  0  0  0  0
 40 36  1  0  0  0  0
 41 43  1  0  0  0  0
 41 44  1  0  0  0  0
 42 41  1  0  0  0  0
M  END
>  <minimizedAffinity>
-5.66849232

>  <minimizedRMSD>
0.905485451

$$$$
