
 OpenBabel03262519473D

 44 48  0  0  1  0  0  0  0  0999 V2000
   37.5490   25.5130   33.0730 N   0  0  0  0  0  0  0  0  0  0  0  0
   37.0230   24.4350   32.4930 C   0  0  0  0  0  0  0  0  0  0  0  0
   36.0150   24.7160   31.5940 C   0  0  0  0  0  0  0  0  0  0  0  0
   35.9160   26.0450   31.6240 N   0  0  0  0  0  0  0  0  0  0  0  0
   36.8340   26.5270   32.5080 C   0  0  0  0  0  0  0  0  0  0  0  0
   37.3740   23.4220   32.7230 H   0  0  0  0  0  0  0  0  0  0  0  0
   35.4650   23.9710   31.0230 H   0  0  0  0  0  0  0  0  0  0  0  0
   36.9530   28.0080   32.7120 C   0  0  1  0  0  0  0  0  0  0  0  0
   36.3070   28.9060   31.7350 C   0  0  0  0  0  0  0  0  0  0  0  0
   35.6570   28.7320   33.0860 C   0  0  2  0  0  0  0  0  0  0  0  0
   37.8510   28.4030   33.2540 H   0  0  0  0  0  0  0  0  0  0  0  0
   35.8050   28.4000   30.8590 H   0  0  0  0  0  0  0  0  0  0  0  0
   36.6640   29.9130   31.5200 H   0  0  0  0  0  0  0  0  0  0  0  0
   34.7630   28.0800   33.0950 H   0  0  0  0  0  0  0  0  0  0  0  0
   35.7240   29.8150   34.0240 N   0  0  0  0  0  0  0  0  0  0  0  0
   36.2160   29.8260   35.2730 C   0  0  0  0  0  3  0  0  0  0  0  0
   36.0620   31.0780   35.7720 N   0  0  0  0  0  0  0  0  0  0  0  0
   35.4790   31.8380   34.8430 C   0  0  0  0  0  0  0  0  0  0  0  0
   35.1040   33.1740   34.8470 C   0  0  0  0  0  0  0  0  0  0  0  0
   34.5220   33.6890   33.7460 N   0  0  0  0  0  0  0  0  0  0  0  0
   34.3040   32.9310   32.6570 C   0  0  0  0  0  3  0  0  0  0  0  0
   34.6800   31.6300   32.6820 N   0  0  0  0  0  0  0  0  0  0  0  0
   35.2650   31.0440   33.7400 C   0  0  0  0  0  0  0  0  0  0  0  0
   35.3120   34.0190   35.9730 N   0  0  0  0  0  0  0  0  0  0  0  0
   36.0430   34.4440   36.5640 H   0  0  0  0  0  0  0  0  0  0  0  0
   34.3630   34.3150   36.3270 H   0  0  0  0  0  0  0  0  0  0  0  0
   38.5580   25.7340   34.0330 C   0  0  0  0  0  0  0  0  0  0  0  0
   39.2880   24.8920   33.9550 H   0  0  0  0  0  0  0  0  0  0  0  0
   39.1700   26.6380   33.7520 H   0  0  0  0  0  0  0  0  0  0  0  0
   38.0590   25.7700   35.4300 C   0  0  1  0  0  0  0  0  0  0  0  0
   36.9340   25.7010   35.4250 H   0  0  0  0  0  0  0  0  0  0  0  0
   38.6590   23.3730   38.2930 C   0  0  0  0  0  0  0  0  0  0  0  0
   38.0610   24.4100   37.5650 C   0  0  0  0  0  0  0  0  0  0  0  0
   38.6200   24.7110   36.2890 C   0  0  0  0  0  0  0  0  0  0  0  0
   39.7050   23.9730   35.8490 N   0  0  0  0  0  0  0  0  0  0  0  0
   40.2460   23.0000   36.5620 C   0  0  0  0  0  0  0  0  0  0  0  0
   39.7180   22.6910   37.8060 N   0  0  0  0  0  0  0  0  0  0  0  0
   38.2560   23.1240   39.2660 H   0  0  0  0  0  0  0  0  0  0  0  0
   37.2130   24.9810   37.9190 H   0  0  0  0  0  0  0  0  0  0  0  0
   41.0940   22.4480   36.1800 H   0  0  0  0  0  0  0  0  0  0  0  0
   38.3240   27.1400   36.0460 C   0  0  0  0  0  0  0  0  0  0  0  0
   38.6750   27.8360   35.2660 H   0  0  0  0  0  0  0  0  0  0  0  0
   37.4810   27.5260   36.6290 H   0  0  0  0  0  0  0  0  0  0  0  0
   39.1840   27.0310   36.7600 H   0  0  0  0  0  0  0  0  0  0  0  0
  1 27  1  0  0  0  0
  2  6  1  0  0  0  0
  2  1  1  0  0  0  0
  3  4  1  0  0  0  0
  3  2  2  0  0  0  0
  4  5  2  0  0  0  0
  5  8  1  0  0  0  0
  5  1  1  0  0  0  0
  7  3  1  0  0  0  0
  8 10  1  0  0  0  0
  8 11  1  1  0  0  0
  9  8  1  0  0  0  0
  9 10  1  0  0  0  0
 10 14  1  1  0  0  0
 10 15  1  0  0  0  0
 12  9  1  0  0  0  0
 13  9  1  0  0  0  0
 15 16  1  0  0  0  0
 16 17  2  0  0  0  0
 18 19  1  0  0  0  0
 18 17  1  0  0  0  0
 19 24  1  0  0  0  0
 20 19  2  0  0  0  0
 21 22  2  0  0  0  0
 21 20  1  0  0  0  0
 22 23  1  0  0  0  0
 23 15  1  0  0  0  0
 23 18  2  0  0  0  0
 24 26  1  0  0  0  0
 24 25  1  0  0  0  0
 27 30  1  0  0  0  0
 28 27  1  0  0  0  0
 29 27  1  0  0  0  0
 30 31  1  6  0  0  0
 30 41  1  0  0  0  0
 30 34  1  0  0  0  0
 32 38  1  0  0  0  0
 33 39  1  0  0  0  0
 33 32  2  0  0  0  0
 34 33  1  0  0  0  0
 35 34  2  0  0  0  0
 35 36  1  0  0  0  0
 36 37  2  0  0  0  0
 37 32  1  0  0  0  0
 40 36  1  0  0  0  0
 41 43  1  0  0  0  0
 41 44  1  0  0  0  0
 42 41  1  0  0  0  0
M  END
>  <minimizedAffinity>
-5.67813444

>  <minimizedRMSD>
1.0406934

$$$$
