
 OpenBabel03262519473D

 44 48  0  0  1  0  0  0  0  0999 V2000
   37.3890   25.8420   32.9060 N   0  0  0  0  0  0  0  0  0  0  0  0
   36.9230   24.7520   32.2940 C   0  0  0  0  0  0  0  0  0  0  0  0
   35.8730   24.9960   31.4350 C   0  0  0  0  0  0  0  0  0  0  0  0
   35.6820   26.3130   31.5230 N   0  0  0  0  0  0  0  0  0  0  0  0
   36.5880   26.8230   32.4030 C   0  0  0  0  0  0  0  0  0  0  0  0
   37.3520   23.7580   32.4730 H   0  0  0  0  0  0  0  0  0  0  0  0
   35.3600   24.2380   30.8470 H   0  0  0  0  0  0  0  0  0  0  0  0
   36.6090   28.3000   32.6660 C   0  0  1  0  0  0  0  0  0  0  0  0
   35.7920   29.1780   31.8060 C   0  0  0  0  0  0  0  0  0  0  0  0
   35.3060   28.8950   33.2070 C   0  0  2  0  0  0  0  0  0  0  0  0
   37.5250   28.7480   33.1300 H   0  0  0  0  0  0  0  0  0  0  0  0
   35.2410   28.6670   30.9630 H   0  0  0  0  0  0  0  0  0  0  0  0
   36.0400   30.2200   31.6040 H   0  0  0  0  0  0  0  0  0  0  0  0
   34.4740   28.1690   33.2760 H   0  0  0  0  0  0  0  0  0  0  0  0
   35.3860   29.9410   34.1850 N   0  0  0  0  0  0  0  0  0  0  0  0
   36.2460   30.0830   35.2050 C   0  0  0  0  0  3  0  0  0  0  0  0
   35.9320   31.2310   35.8580 N   0  0  0  0  0  0  0  0  0  0  0  0
   34.8860   31.7950   35.2520 C   0  0  0  0  0  0  0  0  0  0  0  0
   34.1830   32.9610   35.5180 C   0  0  0  0  0  0  0  0  0  0  0  0
   33.1490   33.2930   34.7230 N   0  0  0  0  0  0  0  0  0  0  0  0
   32.7930   32.5140   33.6850 C   0  0  0  0  0  3  0  0  0  0  0  0
   33.4970   31.3810   33.4500 N   0  0  0  0  0  0  0  0  0  0  0  0
   34.5400   30.9830   34.1960 C   0  0  0  0  0  0  0  0  0  0  0  0
   34.5200   33.8200   36.6030 N   0  0  0  0  0  0  0  0  0  0  0  0
   35.2590   34.4350   36.9720 H   0  0  0  0  0  0  0  0  0  0  0  0
   33.7010   33.8190   37.2710 H   0  0  0  0  0  0  0  0  0  0  0  0
   38.4070   26.0950   33.8470 C   0  0  0  0  0  0  0  0  0  0  0  0
   39.1870   25.3050   33.7220 H   0  0  0  0  0  0  0  0  0  0  0  0
   38.9520   27.0460   33.5840 H   0  0  0  0  0  0  0  0  0  0  0  0
   37.9450   26.0520   35.2570 C   0  0  1  0  0  0  0  0  0  0  0  0
   36.8180   26.0220   35.2780 H   0  0  0  0  0  0  0  0  0  0  0  0
   38.5380   23.4530   37.9390 C   0  0  0  0  0  0  0  0  0  0  0  0
   37.9600   24.5580   37.3000 C   0  0  0  0  0  0  0  0  0  0  0  0
   38.4880   24.9180   36.0270 C   0  0  0  0  0  0  0  0  0  0  0  0
   39.5270   24.1680   35.5030 N   0  0  0  0  0  0  0  0  0  0  0  0
   40.0490   23.1290   36.1330 C   0  0  0  0  0  0  0  0  0  0  0  0
   39.5500   22.7620   37.3730 N   0  0  0  0  0  0  0  0  0  0  0  0
   38.1560   23.1570   38.9080 H   0  0  0  0  0  0  0  0  0  0  0  0
   37.1490   25.1380   37.7190 H   0  0  0  0  0  0  0  0  0  0  0  0
   40.8610   22.5700   35.6860 H   0  0  0  0  0  0  0  0  0  0  0  0
   38.2740   27.3670   35.9570 C   0  0  0  0  0  0  0  0  0  0  0  0
   38.6310   28.1020   35.2170 H   0  0  0  0  0  0  0  0  0  0  0  0
   37.4600   27.7410   36.5880 H   0  0  0  0  0  0  0  0  0  0  0  0
   39.1470   27.1790   36.6380 H   0  0  0  0  0  0  0  0  0  0  0  0
  1 27  1  0  0  0  0
  2  6  1  0  0  0  0
  2  1  1  0  0  0  0
  3  4  1  0  0  0  0
  3  2  2  0  0  0  0
  4  5  2  0  0  0  0
  5  8  1  0  0  0  0
  5  1  1  0  0  0  0
  7  3  1  0  0  0  0
  8 11  1  1  0  0  0
  8 10  1  0  0  0  0
  9  8  1  0  0  0  0
  9 10  1  0  0  0  0
 10 14  1  1  0  0  0
 10 15  1  0  0  0  0
 12  9  1  0  0  0  0
 13  9  1  0  0  0  0
 15 23  1  0  0  0  0
 15 16  1  0  0  0  0
 16 17  2  0  0  0  0
 18 19  1  0  0  0  0
 18 17  1  0  0  0  0
 19 24  1  0  0  0  0
 20 19  2  0  0  0  0
 21 20  1  0  0  0  0
 22 21  2  0  0  0  0
 22 23  1  0  0  0  0
 23 18  2  0  0  0  0
 24 25  1  0  0  0  0
 24 26  1  0  0  0  0
 27 30  1  0  0  0  0
 28 27  1  0  0  0  0
 29 27  1  0  0  0  0
 30 31  1  6  0  0  0
 30 41  1  0  0  0  0
 30 34  1  0  0  0  0
 32 38  1  0  0  0  0
 33 39  1  0  0  0  0
 33 32  2  0  0  0  0
 34 33  1  0  0  0  0
 35 34  2  0  0  0  0
 35 36  1  0  0  0  0
 36 37  2  0  0  0  0
 37 32  1  0  0  0  0
 40 36  1  0  0  0  0
 41 43  1  0  0  0  0
 41 44  1  0  0  0  0
 42 41  1  0  0  0  0
M  END
>  <minimizedAffinity>
-5.6397357

>  <minimizedRMSD>
1.07108068

$$$$
