
 OpenBabel03262511193D

 42 45  0  0  1  0  0  0  0  0999 V2000
   39.1790   25.5080   33.8070 C   0  0  0  0  0  0  0  0  0  0  0  0
   40.5650   25.4060   33.9140 C   0  0  0  0  0  0  0  0  0  0  0  0
   41.0900   26.3170   33.0640 N   0  0  0  0  0  0  0  0  0  0  0  0
   40.1100   26.9790   32.4360 C   0  0  0  0  0  0  0  0  0  0  0  0
   38.9790   26.4760   32.8990 N   0  0  0  0  0  0  0  0  0  0  0  0
   41.1060   24.7110   34.5700 H   0  0  0  0  0  0  0  0  0  0  0  0
   40.3590   27.7350   31.7300 H   0  0  0  0  0  0  0  0  0  0  0  0
   36.7830   27.0880   33.6210 N   0  0  0  0  0  0  0  0  0  0  0  0
   36.1560   28.3560   33.4750 C   0  0  0  0  0  0  0  0  0  0  0  0
   36.3000   28.7410   32.0240 C   0  0  0  0  0  0  0  0  0  0  0  0
   37.6900   28.1980   31.7140 C   0  0  0  0  0  0  0  0  0  0  0  0
   37.6770   26.9150   32.4770 C   0  0  1  0  0  0  0  0  0  0  0  0
   36.1800   26.2800   33.8070 H   0  0  0  0  0  0  0  0  0  0  0  0
   35.0600   28.2330   33.6660 H   0  0  0  0  0  0  0  0  0  0  0  0
   36.4910   29.1400   34.1810 H   0  0  0  0  0  0  0  0  0  0  0  0
   36.3460   29.8570   32.0120 H   0  0  0  0  0  0  0  0  0  0  0  0
   35.5150   28.3350   31.3860 H   0  0  0  0  0  0  0  0  0  0  0  0
   38.4170   28.9130   32.1620 H   0  0  0  0  0  0  0  0  0  0  0  0
   37.8490   28.0450   30.6270 H   0  0  0  0  0  0  0  0  0  0  0  0
   37.1110   25.8170   31.6270 C   0  0  0  0  0  0  0  0  0  0  0  0
   36.1320   25.1670   32.0890 O   0  0  0  0  0  0  0  0  0  0  0  0
   37.6060   25.4820   30.3670 O   0  0  0  0  0  0  0  0  0  0  0  0
   37.0860   24.8000   29.8280 H   0  0  0  0  0  0  0  0  0  0  0  0
   38.3110   24.7160   34.5420 O   0  0  0  0  0  0  0  0  0  0  0  0
   39.7810   22.8680   37.2630 C   0  0  0  0  0  0  0  0  0  0  0  0
   39.0100   23.2900   38.3440 C   0  0  0  0  0  0  0  0  0  0  0  0
   37.9930   24.2130   38.0970 C   0  0  0  0  0  0  0  0  0  0  0  0
   37.8000   24.6500   36.8470 N   0  0  0  0  0  0  0  0  0  0  0  0
   38.5700   24.2200   35.8020 C   0  0  0  0  0  0  0  0  0  0  0  0
   39.5580   23.3240   36.0410 N   0  0  0  0  0  0  0  0  0  0  0  0
   39.2240   22.8930   39.3300 H   0  0  0  0  0  0  0  0  0  0  0  0
   37.3880   24.5480   38.9330 H   0  0  0  0  0  0  0  0  0  0  0  0
   40.8580   21.8990   37.4860 C   0  0  0  0  0  0  0  0  0  0  0  0
   41.2170   21.8490   38.5440 H   0  0  0  0  0  0  0  0  0  0  0  0
   40.4770   20.8890   37.2300 H   0  0  0  0  0  0  0  0  0  0  0  0
   42.0030   22.2170   36.6400 N   0  0  0  0  0  0  0  0  0  0  0  0
   42.3920   21.4380   35.6420 N   0  0  0  0  0  0  0  0  0  0  0  0
   43.4670   22.0030   35.0620 C   0  0  0  0  0  0  0  0  0  0  0  0
   43.9950   21.5850   34.2190 H   0  0  0  0  0  0  0  0  0  0  0  0
   43.7950   23.1930   35.6990 C   0  0  0  0  0  0  0  0  0  0  0  0
   42.8340   23.2860   36.6960 C   0  0  0  0  0  0  0  0  0  0  0  0
   42.7370   24.0880   37.4310 H   0  0  0  0  0  0  0  0  0  0  0  0
  1  2  2  0  0  0  0
  1 24  1  0  0  0  0
  2  6  1  0  0  0  0
  3  2  1  0  0  0  0
  4  5  1  0  0  0  0
  4  3  2  0  0  0  0
  5  1  1  0  0  0  0
  7  4  1  0  0  0  0
  8 13  1  0  0  0  0
  9  8  1  0  0  0  0
  9 14  1  0  0  0  0
  9 15  1  0  0  0  0
 10  9  1  0  0  0  0
 11 10  1  0  0  0  0
 11 18  1  0  0  0  0
 11 12  1  0  0  0  0
 12 20  1  6  0  0  0
 12  5  1  0  0  0  0
 12  8  1  0  0  0  0
 16 10  1  0  0  0  0
 17 10  1  0  0  0  0
 19 11  1  0  0  0  0
 20 21  2  0  0  0  0
 22 20  1  0  0  0  0
 23 22  1  0  0  0  0
 24 29  1  0  0  0  0
 25 33  1  0  0  0  0
 25 26  1  0  0  0  0
 26 31  1  0  0  0  0
 27 26  2  0  0  0  0
 27 32  1  0  0  0  0
 28 27  1  0  0  0  0
 29 30  1  0  0  0  0
 29 28  2  0  0  0  0
 30 25  2  0  0  0  0
 33 34  1  0  0  0  0
 35 33  1  0  0  0  0
 36 41  1  0  0  0  0
 36 33  1  0  0  0  0
 37 36  1  0  0  0  0
 38 37  2  0  0  0  0
 38 40  1  0  0  0  0
 39 38  1  0  0  0  0
 40 41  2  0  0  0  0
 41 42  1  0  0  0  0
M  END
>  <minimizedAffinity>
-5.13323545

>  <minimizedRMSD>
1.05982232

$$$$
