
 OpenBabel03262519553D

 35 39  0  0  1  0  0  0  0  0999 V2000
   37.4030   21.6320   33.8520 C   0  0  1  0  0  0  0  0  0  0  0  0
   36.2800   21.1990   34.6850 C   0  0  0  0  0  0  0  0  0  0  0  0
   36.0710   21.2730   33.1920 C   0  0  2  0  0  0  0  0  0  0  0  0
   38.2480   20.9170   33.6670 H   0  0  0  0  0  0  0  0  0  0  0  0
   35.7100   21.9570   35.2800 H   0  0  0  0  0  0  0  0  0  0  0  0
   36.3160   20.2090   35.1800 H   0  0  0  0  0  0  0  0  0  0  0  0
   35.4380   22.0600   32.7810 H   0  0  0  0  0  0  0  0  0  0  0  0
   35.9990   19.9560   32.5560 N   0  0  0  0  0  0  0  0  0  0  0  0
   35.3370   18.8850   33.0150 C   0  0  0  0  0  3  0  0  0  0  0  0
   35.4920   17.8310   32.1600 N   0  0  0  0  0  0  0  0  0  0  0  0
   36.2690   18.2970   31.1670 C   0  0  0  0  0  0  0  0  0  0  0  0
   36.7970   17.7690   30.0080 C   0  0  0  0  0  0  0  0  0  0  0  0
   37.5760   18.4940   29.1580 N   0  0  0  0  0  0  0  0  0  0  0  0
   37.8580   19.7950   29.4450 C   0  0  0  0  0  3  0  0  0  0  0  0
   37.3590   20.3400   30.5690 N   0  0  0  0  0  0  0  0  0  0  0  0
   36.5980   19.6140   31.3890 C   0  0  0  0  0  0  0  0  0  0  0  0
   36.5280   16.4130   29.6670 N   0  0  0  0  0  0  0  0  0  0  0  0
   37.3660   15.9390   30.1110 H   0  0  0  0  0  0  0  0  0  0  0  0
   35.8520   15.7970   29.1750 H   0  0  0  0  0  0  0  0  0  0  0  0
   38.2250   23.9280   34.5130 C   0  0  0  0  0  0  0  0  0  0  0  0
   38.4180   25.1530   33.8890 C   0  0  0  0  0  0  0  0  0  0  0  0
   38.0340   24.9350   32.6010 N   0  0  0  0  0  0  0  0  0  0  0  0
   37.6480   23.6720   32.5040 C   0  0  0  0  0  0  0  0  0  0  0  0
   37.7520   23.0070   33.6750 N   0  0  0  0  0  0  0  0  0  0  0  0
   38.7980   26.0680   34.3570 H   0  0  0  0  0  0  0  0  0  0  0  0
   37.2880   23.2420   31.5600 H   0  0  0  0  0  0  0  0  0  0  0  0
   38.5000   23.6590   35.9140 C   0  0  0  0  0  0  0  0  0  0  0  0
   39.7030   23.0400   36.2980 C   0  0  0  0  0  0  0  0  0  0  0  0
   39.9170   22.8020   37.6760 C   0  0  0  0  0  0  0  0  0  0  0  0
   38.9640   23.1780   38.5380 N   0  0  0  0  0  0  0  0  0  0  0  0
   37.8060   23.7770   38.1430 C   0  0  0  0  0  0  0  0  0  0  0  0
   37.5780   24.0140   36.8330 N   0  0  0  0  0  0  0  0  0  0  0  0
   40.4460   22.7520   35.5630 H   0  0  0  0  0  0  0  0  0  0  0  0
   40.8390   22.3250   38.0020 H   0  0  0  0  0  0  0  0  0  0  0  0
   37.0810   24.0550   38.8800 H   0  0  0  0  0  0  0  0  0  0  0  0
  1  4  1  6  0  0  0
  1  2  1  0  0  0  0
  2  6  1  0  0  0  0
  2  5  1  0  0  0  0
  3  7  1  6  0  0  0
  3  1  1  0  0  0  0
  3  2  1  0  0  0  0
  8  9  1  0  0  0  0
  8  3  1  0  0  0  0
 10  9  2  0  0  0  0
 11 16  1  0  0  0  0
 11 10  1  0  0  0  0
 12 11  2  0  0  0  0
 13 14  2  0  0  0  0
 13 12  1  0  0  0  0
 14 15  1  0  0  0  0
 15 16  2  0  0  0  0
 16  8  1  0  0  0  0
 17 12  1  0  0  0  0
 17 18  1  0  0  0  0
 19 17  1  0  0  0  0
 20 27  1  0  0  0  0
 21 25  1  0  0  0  0
 21 20  2  0  0  0  0
 22 21  1  0  0  0  0
 23 22  2  0  0  0  0
 23 24  1  0  0  0  0
 24  1  1  0  0  0  0
 24 20  1  0  0  0  0
 26 23  1  0  0  0  0
 27 28  2  0  0  0  0
 27 32  1  0  0  0  0
 28 29  1  0  0  0  0
 29 34  1  0  0  0  0
 29 30  2  0  0  0  0
 31 30  1  0  0  0  0
 31 35  1  0  0  0  0
 32 31  2  0  0  0  0
 33 28  1  0  0  0  0
M  END
>  <minimizedAffinity>
-5.2516346

>  <minimizedRMSD>
1.07890069

$$$$
