
 OpenBabel03262519553D

 35 39  0  0  1  0  0  0  0  0999 V2000
   37.4040   21.6340   33.8510 C   0  0  1  0  0  0  0  0  0  0  0  0
   36.2810   21.2000   34.6840 C   0  0  0  0  0  0  0  0  0  0  0  0
   36.0720   21.2740   33.1910 C   0  0  2  0  0  0  0  0  0  0  0  0
   38.2490   20.9180   33.6670 H   0  0  0  0  0  0  0  0  0  0  0  0
   35.7110   21.9580   35.2790 H   0  0  0  0  0  0  0  0  0  0  0  0
   36.3160   20.2100   35.1790 H   0  0  0  0  0  0  0  0  0  0  0  0
   35.4390   22.0620   32.7800 H   0  0  0  0  0  0  0  0  0  0  0  0
   36.0000   19.9570   32.5550 N   0  0  0  0  0  0  0  0  0  0  0  0
   35.3380   18.8860   33.0140 C   0  0  0  0  0  3  0  0  0  0  0  0
   35.4920   17.8320   32.1590 N   0  0  0  0  0  0  0  0  0  0  0  0
   36.2690   18.2990   31.1660 C   0  0  0  0  0  0  0  0  0  0  0  0
   36.7970   17.7700   30.0070 C   0  0  0  0  0  0  0  0  0  0  0  0
   37.5780   18.4950   29.1560 N   0  0  0  0  0  0  0  0  0  0  0  0
   37.8600   19.7960   29.4450 C   0  0  0  0  0  3  0  0  0  0  0  0
   37.3600   20.3420   30.5680 N   0  0  0  0  0  0  0  0  0  0  0  0
   36.5990   19.6160   31.3870 C   0  0  0  0  0  0  0  0  0  0  0  0
   36.5300   16.4150   29.6650 N   0  0  0  0  0  0  0  0  0  0  0  0
   37.3660   15.9410   30.1100 H   0  0  0  0  0  0  0  0  0  0  0  0
   35.8530   15.8000   29.1740 H   0  0  0  0  0  0  0  0  0  0  0  0
   38.2260   23.9290   34.5130 C   0  0  0  0  0  0  0  0  0  0  0  0
   38.4190   25.1540   33.8890 C   0  0  0  0  0  0  0  0  0  0  0  0
   38.0350   24.9370   32.6010 N   0  0  0  0  0  0  0  0  0  0  0  0
   37.6490   23.6730   32.5040 C   0  0  0  0  0  0  0  0  0  0  0  0
   37.7530   23.0080   33.6750 N   0  0  0  0  0  0  0  0  0  0  0  0
   38.7990   26.0690   34.3570 H   0  0  0  0  0  0  0  0  0  0  0  0
   37.2900   23.2440   31.5600 H   0  0  0  0  0  0  0  0  0  0  0  0
   38.5000   23.6590   35.9140 C   0  0  0  0  0  0  0  0  0  0  0  0
   39.7040   23.0420   36.2980 C   0  0  0  0  0  0  0  0  0  0  0  0
   39.9180   22.8040   37.6760 C   0  0  0  0  0  0  0  0  0  0  0  0
   38.9640   23.1780   38.5390 N   0  0  0  0  0  0  0  0  0  0  0  0
   37.8050   23.7750   38.1430 C   0  0  0  0  0  0  0  0  0  0  0  0
   37.5770   24.0130   36.8330 N   0  0  0  0  0  0  0  0  0  0  0  0
   40.4470   22.7560   35.5640 H   0  0  0  0  0  0  0  0  0  0  0  0
   40.8400   22.3270   38.0030 H   0  0  0  0  0  0  0  0  0  0  0  0
   37.0800   24.0530   38.8790 H   0  0  0  0  0  0  0  0  0  0  0  0
  1  4  1  6  0  0  0
  1  2  1  0  0  0  0
  2  6  1  0  0  0  0
  2  5  1  0  0  0  0
  3  7  1  6  0  0  0
  3  1  1  0  0  0  0
  3  2  1  0  0  0  0
  8  9  1  0  0  0  0
  8  3  1  0  0  0  0
 10  9  2  0  0  0  0
 11 16  1  0  0  0  0
 11 10  1  0  0  0  0
 12 11  2  0  0  0  0
 13 14  2  0  0  0  0
 13 12  1  0  0  0  0
 14 15  1  0  0  0  0
 15 16  2  0  0  0  0
 16  8  1  0  0  0  0
 17 12  1  0  0  0  0
 17 18  1  0  0  0  0
 19 17  1  0  0  0  0
 20 27  1  0  0  0  0
 21 25  1  0  0  0  0
 21 20  2  0  0  0  0
 22 21  1  0  0  0  0
 23 22  2  0  0  0  0
 23 24  1  0  0  0  0
 24  1  1  0  0  0  0
 24 20  1  0  0  0  0
 26 23  1  0  0  0  0
 27 28  2  0  0  0  0
 27 32  1  0  0  0  0
 28 29  1  0  0  0  0
 29 34  1  0  0  0  0
 29 30  2  0  0  0  0
 31 30  1  0  0  0  0
 31 35  1  0  0  0  0
 32 31  2  0  0  0  0
 33 28  1  0  0  0  0
M  END
>  <minimizedAffinity>
-5.24841595

>  <minimizedRMSD>
1.13105762

$$$$
