
 OpenBabel03262519523D

 34 36  0  0  1  0  0  0  0  0999 V2000
   38.6690   27.2320   35.1790 C   0  0  0  0  0  0  0  0  0  0  0  0
   38.9310   27.8370   36.0500 H   0  0  0  0  0  0  0  0  0  0  0  0
   39.0820   27.8130   34.3000 H   0  0  0  0  0  0  0  0  0  0  0  0
   39.4480   25.8980   35.1190 C   0  0  2  0  0  0  0  0  0  0  0  0
   39.3420   25.1520   33.8540 C   0  0  0  0  0  0  0  0  0  0  0  0
   38.8220   24.6190   35.1520 C   0  0  1  0  0  0  0  0  0  0  0  0
   40.4600   26.0590   35.4910 H   0  0  0  0  0  0  0  0  0  0  0  0
   40.2070   24.6710   33.3290 H   0  0  0  0  0  0  0  0  0  0  0  0
   38.7250   25.6120   33.0980 H   0  0  0  0  0  0  0  0  0  0  0  0
   37.9690   24.0870   34.8990 H   0  0  0  0  0  0  0  0  0  0  0  0
   39.5960   23.6500   35.9510 N   0  0  0  0  0  0  0  0  0  0  0  0
   40.8140   23.2150   35.5380 C   0  0  0  0  0  3  0  0  0  0  0  0
   41.5760   22.3100   36.2430 C   0  0  0  0  0  3  0  0  0  0  0  0
   41.0990   21.8060   37.4330 C   0  0  0  0  0  0  0  0  0  0  0  0
   41.8470   20.9900   38.0140 O   0  0  0  0  0  0  0  0  0  0  0  0
   39.8970   22.2520   37.8120 N   0  0  0  0  0  0  0  0  0  0  0  0
   39.1980   23.1310   37.0920 C   0  0  0  0  0  0  0  0  0  0  0  0
   38.1100   23.4400   37.5800 O   0  0  0  0  0  0  0  0  0  0  0  0
   39.5480   21.8540   38.7280 H   0  0  0  0  0  0  0  0  0  0  0  0
   37.2740   26.9540   34.9060 C   0  0  0  0  0  0  0  0  0  0  0  0
   36.8160   26.9550   35.9680 H   0  0  0  0  0  0  0  0  0  0  0  0
   37.1370   25.9370   34.6580 H   0  0  0  0  0  0  0  0  0  0  0  0
   35.5150   29.0030   32.5570 C   0  0  0  0  0  0  0  0  0  0  0  0
   36.2360   27.8640   33.0280 C   0  0  0  0  0  0  0  0  0  0  0  0
   36.5820   28.0280   34.3040 C   0  0  0  0  0  0  0  0  0  0  0  0
   36.2620   29.1660   35.0370 N   0  0  0  0  0  0  0  0  0  0  0  0
   35.5890   30.1820   34.5330 C   0  0  0  0  0  0  0  0  0  0  0  0
   35.2120   30.1000   33.2810 N   0  0  0  0  0  0  0  0  0  0  0  0
   35.1340   29.0720   31.5210 H   0  0  0  0  0  0  0  0  0  0  0  0
   35.3990   31.0040   35.1880 H   0  0  0  0  0  0  0  0  0  0  0  0
   36.4150   26.8360   32.0690 C   0  0  0  0  0  0  0  0  0  0  0  0
   37.7590   26.7520   31.6240 F   0  0  0  0  0  0  0  0  0  0  0  0
   35.9940   26.9530   30.7990 F   0  0  0  0  0  0  0  0  0  0  0  0
   36.4570   25.5100   32.5170 F   0  0  0  0  0  0  0  0  0  0  0  0
  1  2  1  0  0  0  0
  3  1  1  0  0  0  0
  4  6  1  0  0  0  0
  4  1  1  0  0  0  0
  4  7  1  1  0  0  0
  5  4  1  0  0  0  0
  5  6  1  0  0  0  0
  6 10  1  1  0  0  0
  6 11  1  0  0  0  0
  8  5  1  0  0  0  0
  9  5  1  0  0  0  0
 11 17  1  0  0  0  0
 12 11  1  0  0  0  0
 12 13  2  0  0  0  0
 13 14  1  0  0  0  0
 14 16  1  0  0  0  0
 14 15  2  0  0  0  0
 16 19  1  0  0  0  0
 17 18  2  0  0  0  0
 17 16  1  0  0  0  0
 20  1  1  0  0  0  0
 20 21  1  0  0  0  0
 22 20  1  0  0  0  0
 23 24  2  0  0  0  0
 23 28  1  0  0  0  0
 24 25  1  0  0  0  0
 25 20  1  0  0  0  0
 25 26  2  0  0  0  0
 27 26  1  0  0  0  0
 27 30  1  0  0  0  0
 28 27  2  0  0  0  0
 29 23  1  0  0  0  0
 31 34  1  0  0  0  0
 31 24  1  0  0  0  0
 32 31  1  0  0  0  0
 33 31  1  0  0  0  0
M  END
>  <minimizedAffinity>
-5.37336206

>  <minimizedRMSD>
7.00435019

$$$$
