
 OpenBabel03262519523D

 34 36  0  0  1  0  0  0  0  0999 V2000
   38.6280   26.9720   35.5450 C   0  0  0  0  0  0  0  0  0  0  0  0
   38.6440   27.4500   36.5260 H   0  0  0  0  0  0  0  0  0  0  0  0
   39.0940   27.7360   34.8520 H   0  0  0  0  0  0  0  0  0  0  0  0
   39.5980   25.7700   35.4480 C   0  0  2  0  0  0  0  0  0  0  0  0
   39.8210   25.2380   34.0930 C   0  0  0  0  0  0  0  0  0  0  0  0
   39.1740   24.4370   35.1790 C   0  0  1  0  0  0  0  0  0  0  0  0
   40.4960   25.9900   36.0260 H   0  0  0  0  0  0  0  0  0  0  0  0
   40.8250   24.9590   33.6820 H   0  0  0  0  0  0  0  0  0  0  0  0
   39.2800   25.7380   33.3060 H   0  0  0  0  0  0  0  0  0  0  0  0
   38.4660   23.8550   34.6960 H   0  0  0  0  0  0  0  0  0  0  0  0
   39.9370   23.4500   35.9670 N   0  0  0  0  0  0  0  0  0  0  0  0
   41.1800   23.0600   35.5870 C   0  0  0  0  0  3  0  0  0  0  0  0
   41.9340   22.1420   36.2820 C   0  0  0  0  0  3  0  0  0  0  0  0
   41.4210   21.5750   37.4280 C   0  0  0  0  0  0  0  0  0  0  0  0
   42.1630   20.7510   38.0040 O   0  0  0  0  0  0  0  0  0  0  0  0
   40.1950   21.9780   37.7760 N   0  0  0  0  0  0  0  0  0  0  0  0
   39.5050   22.8730   37.0660 C   0  0  0  0  0  0  0  0  0  0  0  0
   38.3910   23.1370   37.5220 O   0  0  0  0  0  0  0  0  0  0  0  0
   39.8180   21.5310   38.6580 H   0  0  0  0  0  0  0  0  0  0  0  0
   37.3570   26.5750   34.9730 C   0  0  0  0  0  0  0  0  0  0  0  0
   36.6810   26.5100   35.9080 H   0  0  0  0  0  0  0  0  0  0  0  0
   37.3730   25.5560   34.6970 H   0  0  0  0  0  0  0  0  0  0  0  0
   35.7730   28.4200   32.3480 C   0  0  0  0  0  0  0  0  0  0  0  0
   36.4520   27.3230   32.9600 C   0  0  0  0  0  0  0  0  0  0  0  0
   36.7160   27.5950   34.2360 C   0  0  0  0  0  0  0  0  0  0  0  0
   36.3610   28.7940   34.8470 N   0  0  0  0  0  0  0  0  0  0  0  0
   35.7330   29.7660   34.2150 C   0  0  0  0  0  0  0  0  0  0  0  0
   35.4350   29.5770   32.9520 N   0  0  0  0  0  0  0  0  0  0  0  0
   35.4600   28.4010   31.2860 H   0  0  0  0  0  0  0  0  0  0  0  0
   35.5100   30.6420   34.7830 H   0  0  0  0  0  0  0  0  0  0  0  0
   36.6810   26.2150   32.1070 C   0  0  0  0  0  0  0  0  0  0  0  0
   38.0300   26.1460   31.6760 F   0  0  0  0  0  0  0  0  0  0  0  0
   36.2640   26.1890   30.8300 F   0  0  0  0  0  0  0  0  0  0  0  0
   36.7770   24.9430   32.6830 F   0  0  0  0  0  0  0  0  0  0  0  0
  1  2  1  0  0  0  0
  3  1  1  0  0  0  0
  4  1  1  0  0  0  0
  4  7  1  1  0  0  0
  5  6  1  0  0  0  0
  5  4  1  0  0  0  0
  6 10  1  6  0  0  0
  6  4  1  0  0  0  0
  6 11  1  0  0  0  0
  8  5  1  0  0  0  0
  9  5  1  0  0  0  0
 11 17  1  0  0  0  0
 12 11  1  0  0  0  0
 12 13  2  0  0  0  0
 13 14  1  0  0  0  0
 14 16  1  0  0  0  0
 14 15  2  0  0  0  0
 16 19  1  0  0  0  0
 17 18  2  0  0  0  0
 17 16  1  0  0  0  0
 20  1  1  0  0  0  0
 20 21  1  0  0  0  0
 22 20  1  0  0  0  0
 23 28  2  0  0  0  0
 23 24  1  0  0  0  0
 24 25  2  0  0  0  0
 25 26  1  0  0  0  0
 25 20  1  0  0  0  0
 27 30  1  0  0  0  0
 27 26  2  0  0  0  0
 28 27  1  0  0  0  0
 29 23  1  0  0  0  0
 31 34  1  0  0  0  0
 31 24  1  0  0  0  0
 32 31  1  0  0  0  0
 33 31  1  0  0  0  0
M  END
>  <minimizedAffinity>
-5.30784369

>  <minimizedRMSD>
6.87192631

$$$$
