
 OpenBabel03262519553D

 32 35  0  0  1  0  0  0  0  0999 V2000
   41.1770   23.5910   33.3150 C   0  0  0  0  0  0  0  0  0  0  0  0
   41.3610   24.3800   32.1900 C   0  0  0  0  0  0  0  0  0  0  0  0
   40.2060   24.2000   31.4820 N   0  0  0  0  0  0  0  0  0  0  0  0
   39.4330   23.3750   32.1530 C   0  0  0  0  0  0  0  0  0  0  0  0
   40.0050   22.9710   33.3080 N   0  0  0  0  0  0  0  0  0  0  0  0
   42.2440   24.9660   32.0010 H   0  0  0  0  0  0  0  0  0  0  0  0
   38.4680   23.1300   31.7160 H   0  0  0  0  0  0  0  0  0  0  0  0
   42.1590   23.4510   34.3970 C   0  0  0  0  0  0  0  0  0  0  0  0
   43.0000   22.3230   34.4250 C   0  0  0  0  0  0  0  0  0  0  0  0
   43.9340   22.2150   35.4770 C   0  0  0  0  0  0  0  0  0  0  0  0
   43.9600   23.1960   36.3870 N   0  0  0  0  0  0  0  0  0  0  0  0
   43.1370   24.2740   36.3370 C   0  0  0  0  0  0  0  0  0  0  0  0
   42.2300   24.4060   35.3390 N   0  0  0  0  0  0  0  0  0  0  0  0
   42.9460   21.5620   33.6800 H   0  0  0  0  0  0  0  0  0  0  0  0
   44.5910   21.3610   35.5230 H   0  0  0  0  0  0  0  0  0  0  0  0
   43.1420   25.0770   37.0620 H   0  0  0  0  0  0  0  0  0  0  0  0
   39.3830   22.0660   34.2430 C   0  0  1  0  0  0  0  0  0  0  0  0
   39.5450   22.1450   35.6740 C   0  0  0  0  0  0  0  0  0  0  0  0
   38.2840   22.7020   35.0530 C   0  0  1  0  0  0  0  0  0  0  0  0
   39.1890   21.0730   33.7690 H   0  0  0  0  0  0  0  0  0  0  0  0
   39.3410   21.1940   36.2490 H   0  0  0  0  0  0  0  0  0  0  0  0
   40.2370   22.7790   36.2430 H   0  0  0  0  0  0  0  0  0  0  0  0
   37.3480   22.1090   35.0780 H   0  0  0  0  0  0  0  0  0  0  0  0
   38.1400   24.1160   35.1420 N   0  0  0  0  0  0  0  0  0  0  0  0
   37.8300   24.8980   34.0990 C   0  0  0  0  0  3  0  0  0  0  0  0
   37.6880   26.2690   34.1710 C   0  0  0  0  0  3  0  0  0  0  0  0
   37.8780   26.8800   35.4130 C   0  0  0  0  0  0  0  0  0  0  0  0
   37.7770   28.1150   35.6050 O   0  0  0  0  0  0  0  0  0  0  0  0
   38.1900   26.1040   36.4740 N   0  0  0  0  0  0  0  0  0  0  0  0
   38.3160   24.7570   36.3320 C   0  0  0  0  0  0  0  0  0  0  0  0
   38.6130   24.1110   37.3940 O   0  0  0  0  0  0  0  0  0  0  0  0
   38.3380   26.5430   37.4210 H   0  0  0  0  0  0  0  0  0  0  0  0
  1  8  1  0  0  0  0
  2  1  2  0  0  0  0
  3  4  2  0  0  0  0
  3  2  1  0  0  0  0
  4  5  1  0  0  0  0
  5  1  1  0  0  0  0
  5 17  1  0  0  0  0
  6  2  1  0  0  0  0
  7  4  1  0  0  0  0
  8  9  2  0  0  0  0
  8 13  1  0  0  0  0
  9 10  1  0  0  0  0
 10 15  1  0  0  0  0
 10 11  2  0  0  0  0
 12 11  1  0  0  0  0
 12 16  1  0  0  0  0
 13 12  2  0  0  0  0
 14  9  1  0  0  0  0
 17 20  1  6  0  0  0
 17 19  1  0  0  0  0
 17 18  1  0  0  0  0
 18 22  1  0  0  0  0
 18 21  1  0  0  0  0
 19 23  1  1  0  0  0
 19 24  1  0  0  0  0
 19 18  1  0  0  0  0
 24 30  1  0  0  0  0
 25 26  2  0  0  0  0
 25 24  1  0  0  0  0
 26 27  1  0  0  0  0
 27 28  2  0  0  0  0
 27 29  1  0  0  0  0
 29 32  1  0  0  0  0
 30 29  1  0  0  0  0
 30 31  2  0  0  0  0
M  END
>  <minimizedAffinity>
-3.75874233

>  <minimizedRMSD>
4.81163311

$$$$
