
 OpenBabel03262519433D

 23 24  0  0  1  0  0  0  0  0999 V2000
   38.6580   23.5440   36.4710 C   0  0  1  0  0  0  0  0  0  0  0  0
   38.6550   23.2640   37.5490 H   0  0  0  0  0  0  0  0  0  0  0  0
   41.8180   24.8810   34.8630 C   0  0  0  0  0  0  0  0  0  0  0  0
   40.4510   24.7610   35.2090 C   0  0  0  0  0  0  0  0  0  0  0  0
   40.0750   23.7130   36.0910 C   0  0  0  0  0  0  0  0  0  0  0  0
   41.0440   22.8640   36.5710 N   0  0  0  0  0  0  0  0  0  0  0  0
   42.3440   23.0240   36.2060 C   0  0  0  0  0  0  0  0  0  0  0  0
   42.7370   24.0230   35.3600 N   0  0  0  0  0  0  0  0  0  0  0  0
   42.0280   25.6990   34.1900 H   0  0  0  0  0  0  0  0  0  0  0  0
   39.7230   25.4520   34.8070 H   0  0  0  0  0  0  0  0  0  0  0  0
   43.0610   22.3260   36.6160 H   0  0  0  0  0  0  0  0  0  0  0  0
   37.8430   24.7850   36.1870 C   0  0  0  0  0  0  0  0  0  0  0  0
   36.7550   24.5940   36.2730 H   0  0  0  0  0  0  0  0  0  0  0  0
   38.1180   25.6030   36.8820 H   0  0  0  0  0  0  0  0  0  0  0  0
   37.9940   25.1000   35.1340 H   0  0  0  0  0  0  0  0  0  0  0  0
   38.0020   22.3680   35.7760 C   0  0  0  0  0  0  0  0  0  0  0  0
   38.3560   21.4670   36.3260 H   0  0  0  0  0  0  0  0  0  0  0  0
   36.9250   22.4570   35.9640 H   0  0  0  0  0  0  0  0  0  0  0  0
   38.2890   22.3150   34.3750 N   0  0  0  0  0  0  0  0  0  0  0  0
   37.6170   22.9740   33.3880 C   0  0  0  0  0  3  0  0  0  0  0  0
   38.1700   22.6810   32.2100 N   0  0  0  0  0  0  0  0  0  0  0  0
   39.2060   21.8280   32.4420 C   0  0  0  0  0  3  0  0  0  0  0  0
   39.2470   21.6280   33.7740 N   0  0  0  0  0  0  0  0  0  0  0  0
  1  2  1  1  0  0  0
  3  4  2  0  0  0  0
  3  8  1  0  0  0  0
  4  5  1  0  0  0  0
  5  1  1  0  0  0  0
  5  6  2  0  0  0  0
  7  6  1  0  0  0  0
  7 11  1  0  0  0  0
  8  7  2  0  0  0  0
  9  3  1  0  0  0  0
 10  4  1  0  0  0  0
 12 13  1  0  0  0  0
 12  1  1  0  0  0  0
 12 14  1  0  0  0  0
 15 12  1  0  0  0  0
 16 18  1  0  0  0  0
 16 17  1  0  0  0  0
 16  1  1  0  0  0  0
 19 16  1  0  0  0  0
 20 19  1  0  0  0  0
 21 22  1  0  0  0  0
 21 20  2  0  0  0  0
 22 23  2  0  0  0  0
 23 19  1  0  0  0  0
M  END
>  <minimizedAffinity>
-2.74282098

>  <minimizedRMSD>
4.35365057

$$$$
