
 OpenBabel03262514463D

 24 26  0  0  0  0  0  0  0  0999 V2000
   39.9500   23.7440   35.6960 C   0  0  0  0  0  0  0  0  0  0  0  0
   40.0540   25.0320   35.1760 C   0  0  0  0  0  0  0  0  0  0  0  0
   41.3100   25.5790   34.9670 C   0  0  0  0  0  0  0  0  0  0  0  0
   42.3980   24.8220   35.2840 N   0  0  0  0  0  0  0  0  0  0  0  0
   42.2710   23.5730   35.7870 C   0  0  0  0  0  0  0  0  0  0  0  0
   41.0430   23.0400   35.9900 N   0  0  0  0  0  0  0  0  0  0  0  0
   41.3420   26.5730   34.5650 H   0  0  0  0  0  0  0  0  0  0  0  0
   43.2020   23.0360   36.0130 H   0  0  0  0  0  0  0  0  0  0  0  0
   38.7390   23.0470   35.9650 N   0  0  0  0  0  0  0  0  0  0  0  0
   38.2740   22.2730   34.9680 C   0  0  0  0  0  0  0  0  0  0  0  0
   37.1060   21.5660   35.1550 C   0  0  0  0  0  0  0  0  0  0  0  0
   36.4550   21.6780   36.3590 C   0  0  0  0  0  0  0  0  0  0  0  0
   35.3860   21.1080   36.7000 O   0  0  0  0  0  0  0  0  0  0  0  0
   36.9760   22.4710   37.3140 N   0  0  0  0  0  0  0  0  0  0  0  0
   38.1150   23.1780   37.1730 C   0  0  0  0  0  0  0  0  0  0  0  0
   38.5860   23.9130   38.0760 O   0  0  0  0  0  0  0  0  0  0  0  0
   36.5290   22.6020   38.2590 H   0  0  0  0  0  0  0  0  0  0  0  0
   38.8330   25.6980   34.8940 N   0  0  0  0  0  0  0  0  0  0  0  0
   38.0020   26.4890   35.6470 C   0  0  0  0  0  0  0  0  0  0  0  0
   36.9550   26.8810   34.9020 N   0  0  0  0  0  0  0  0  0  0  0  0
   37.1210   26.3360   33.6670 C   0  0  0  0  0  0  0  0  0  0  0  0
   38.2750   25.6240   33.7060 N   0  0  0  0  0  0  0  0  0  0  0  0
   38.2490   26.7060   36.6850 H   0  0  0  0  0  0  0  0  0  0  0  0
   36.4520   26.4460   32.8000 H   0  0  0  0  0  0  0  0  0  0  0  0
  1  9  1  0  0  0  0
  1  6  1  0  0  0  0
  2  1  2  0  0  0  0
  3  2  1  0  0  0  0
  3  4  2  0  0  0  0
  4  5  1  0  0  0  0
  5  6  2  0  0  0  0
  5  8  1  0  0  0  0
  7  3  1  0  0  0  0
  9 15  1  0  0  0  0
 10 11  2  0  0  0  0
 10  9  1  0  0  0  0
 11 12  1  0  0  0  0
 12 13  2  0  0  0  0
 12 14  1  0  0  0  0
 14 17  1  0  0  0  0
 15 14  1  0  0  0  0
 15 16  2  0  0  0  0
 18  2  1  0  0  0  0
 18 19  1  0  0  0  0
 19 23  1  0  0  0  0
 20 19  2  0  0  0  0
 21 22  2  0  0  0  0
 21 20  1  0  0  0  0
 22 18  1  0  0  0  0
 24 21  1  0  0  0  0
M  END
>  <minimizedAffinity>
-4.83848381

>  <minimizedRMSD>
4.2615242

$$$$
