
 OpenBabel03262519063D

 24 26  0  0  1  0  0  0  0  0999 V2000
   39.1180   24.3800   34.5170 C   0  0  2  0  0  0  0  0  0  0  0  0
   37.8420   24.7810   33.8270 C   0  0  0  0  0  0  0  0  0  0  0  0
   38.5400   23.5000   33.4750 C   0  0  2  0  0  0  0  0  0  0  0  0
   40.0440   24.9380   34.2730 H   0  0  0  0  0  0  0  0  0  0  0  0
   36.9140   24.8000   34.4090 H   0  0  0  0  0  0  0  0  0  0  0  0
   37.9250   25.6650   33.1390 H   0  0  0  0  0  0  0  0  0  0  0  0
   39.0530   23.5490   32.4810 H   0  0  0  0  0  0  0  0  0  0  0  0
   37.9190   24.2810   37.9830 C   0  0  0  0  0  0  0  0  0  0  0  0
   38.8050   23.3610   38.6160 C   0  0  0  0  0  0  0  0  0  0  0  0
   39.8190   22.7910   37.7930 C   0  0  0  0  0  0  0  0  0  0  0  0
   39.8770   23.1460   36.5030 N   0  0  0  0  0  0  0  0  0  0  0  0
   39.0030   24.0370   35.9340 C   0  0  0  0  0  0  0  0  0  0  0  0
   38.0230   24.6040   36.6810 N   0  0  0  0  0  0  0  0  0  0  0  0
   37.1300   24.7460   38.5570 H   0  0  0  0  0  0  0  0  0  0  0  0
   38.7100   23.1150   39.6510 H   0  0  0  0  0  0  0  0  0  0  0  0
   40.5140   22.0860   38.2300 H   0  0  0  0  0  0  0  0  0  0  0  0
   37.7480   22.2870   33.7470 C   0  0  0  0  0  0  0  0  0  0  0  0
   37.2380   22.4620   34.7450 H   0  0  0  0  0  0  0  0  0  0  0  0
   38.4370   21.4380   33.9710 H   0  0  0  0  0  0  0  0  0  0  0  0
   36.7720   21.8990   32.7750 N   0  0  0  0  0  0  0  0  0  0  0  0
   36.5580   22.0910   31.4590 C   0  0  0  0  0  0  0  0  0  0  0  0
   35.4300   21.4420   31.0760 N   0  0  0  0  0  0  0  0  0  0  0  0
   34.9290   20.8370   32.1670 C   0  0  0  0  0  0  0  0  0  0  0  0
   35.7500   21.1240   33.1780 N   0  0  0  0  0  0  0  0  0  0  0  0
  1  4  1  6  0  0  0
  1 12  1  0  0  0  0
  2  5  1  0  0  0  0
  2  1  1  0  0  0  0
  3  7  1  6  0  0  0
  3 17  1  0  0  0  0
  3  2  1  0  0  0  0
  3  1  1  0  0  0  0
  6  2  1  0  0  0  0
  8 14  1  0  0  0  0
  8  9  1  0  0  0  0
  9 15  1  0  0  0  0
 10 16  1  0  0  0  0
 10  9  2  0  0  0  0
 11 10  1  0  0  0  0
 12 11  2  0  0  0  0
 12 13  1  0  0  0  0
 13  8  2  0  0  0  0
 17 19  1  0  0  0  0
 17 18  1  0  0  0  0
 20 24  1  0  0  0  0
 20 17  1  0  0  0  0
 21 20  1  0  0  0  0
 22 21  2  0  0  0  0
 22 23  1  0  0  0  0
 23 24  2  0  0  0  0
M  END
>  <minimizedAffinity>
-3.92689919

>  <minimizedRMSD>
5.65189981

$$$$
