
 OpenBabel03262519343D

 17 18  0  0  0  0  0  0  0  0999 V2000
   37.7970   24.4980   36.8080 C   0  0  0  0  0  0  0  0  0  0  0  0
   38.8190   24.0410   35.9670 C   0  0  0  0  0  0  0  0  0  0  0  0
   39.8070   23.2150   36.5000 C   0  0  0  0  0  0  0  0  0  0  0  0
   39.7190   22.8950   37.8320 N   0  0  0  0  0  0  0  0  0  0  0  0
   38.7250   23.3510   38.6090 C   0  0  0  0  0  0  0  0  0  0  0  0
   37.7760   24.1430   38.1050 N   0  0  0  0  0  0  0  0  0  0  0  0
   37.1160   25.1250   36.2410 H   0  0  0  0  0  0  0  0  0  0  0  0
   38.9340   24.2610   34.9230 H   0  0  0  0  0  0  0  0  0  0  0  0
   38.6810   23.0800   39.6620 H   0  0  0  0  0  0  0  0  0  0  0  0
   40.9200   22.6990   35.6470 C   0  0  0  0  0  0  0  0  0  0  0  0
   40.6180   22.9070   34.6000 H   0  0  0  0  0  0  0  0  0  0  0  0
   41.0070   21.6190   35.7890 H   0  0  0  0  0  0  0  0  0  0  0  0
   42.1370   23.4210   35.9010 N   0  0  0  0  0  0  0  0  0  0  0  0
   43.2160   23.1110   36.6420 C   0  0  0  0  0  0  0  0  0  0  0  0
   44.1110   24.1220   36.5670 N   0  0  0  0  0  0  0  0  0  0  0  0
   43.5850   25.0680   35.7720 C   0  0  0  0  0  0  0  0  0  0  0  0
   42.3790   24.6120   35.3800 N   0  0  0  0  0  0  0  0  0  0  0  0
  1  6  1  0  0  0  0
  2  3  1  0  0  0  0
  2  1  2  0  0  0  0
  3  4  2  0  0  0  0
  4  5  1  0  0  0  0
  5  9  1  0  0  0  0
  6  5  2  0  0  0  0
  7  1  1  0  0  0  0
  8  2  1  0  0  0  0
 10 12  1  0  0  0  0
 10 13  1  0  0  0  0
 10  3  1  0  0  0  0
 11 10  1  0  0  0  0
 13 14  1  0  0  0  0
 15 14  2  0  0  0  0
 16 15  1  0  0  0  0
 17 16  2  0  0  0  0
 17 13  1  0  0  0  0
M  END
>  <minimizedAffinity>
-3.29375029

>  <minimizedRMSD>
5.86482286

$$$$
