
 OpenBabel03262519473D

 41 44  0  0  1  0  0  0  0  0999 V2000
   37.4070   26.0530   32.8600 N   0  0  0  0  0  0  0  0  0  0  0  0
   37.0190   25.0270   32.0990 C   0  0  0  0  0  0  0  0  0  0  0  0
   35.9510   25.3020   31.2850 C   0  0  0  0  0  0  0  0  0  0  0  0
   35.6550   26.5740   31.5530 N   0  0  0  0  0  0  0  0  0  0  0  0
   36.5330   27.0290   32.5010 C   0  0  0  0  0  0  0  0  0  0  0  0
   37.5350   24.0540   32.1470 H   0  0  0  0  0  0  0  0  0  0  0  0
   35.4720   24.6240   30.5910 H   0  0  0  0  0  0  0  0  0  0  0  0
   36.4430   28.4660   32.9690 C   0  0  1  0  0  0  0  0  0  0  0  0
   35.4330   29.3150   32.2990 C   0  0  0  0  0  0  0  0  0  0  0  0
   35.1660   28.8320   33.7070 C   0  0  2  0  0  0  0  0  0  0  0  0
   37.3710   28.8360   33.4440 H   0  0  0  0  0  0  0  0  0  0  0  0
   35.7120   30.3680   32.1030 H   0  0  0  0  0  0  0  0  0  0  0  0
   34.8090   28.8410   31.5160 H   0  0  0  0  0  0  0  0  0  0  0  0
   34.4180   28.0490   33.8540 H   0  0  0  0  0  0  0  0  0  0  0  0
   35.1470   29.9050   34.6520 N   0  0  0  0  0  0  0  0  0  0  0  0
   36.1440   30.6650   35.1430 C   0  0  0  0  0  3  0  0  0  0  0  0
   35.8860   31.6610   36.0630 C   0  0  0  0  0  3  0  0  0  0  0  0
   34.6060   31.9190   36.5130 C   0  0  0  0  0  0  0  0  0  0  0  0
   34.3900   32.8290   37.3490 O   0  0  0  0  0  0  0  0  0  0  0  0
   33.6340   31.1420   36.0010 N   0  0  0  0  0  0  0  0  0  0  0  0
   33.8770   30.1560   35.0940 C   0  0  0  0  0  0  0  0  0  0  0  0
   32.8260   29.5270   34.7250 O   0  0  0  0  0  0  0  0  0  0  0  0
   32.6640   31.3450   36.3490 H   0  0  0  0  0  0  0  0  0  0  0  0
   38.4110   26.2570   33.8330 C   0  0  0  0  0  0  0  0  0  0  0  0
   38.9500   27.2050   33.6770 H   0  0  0  0  0  0  0  0  0  0  0  0
   39.1860   25.4550   33.6980 H   0  0  0  0  0  0  0  0  0  0  0  0
   37.9140   26.1580   35.2260 C   0  0  1  0  0  0  0  0  0  0  0  0
   36.7930   26.0440   35.2110 H   0  0  0  0  0  0  0  0  0  0  0  0
   38.4590   23.4690   37.8380 C   0  0  0  0  0  0  0  0  0  0  0  0
   37.8990   24.5880   37.2170 C   0  0  0  0  0  0  0  0  0  0  0  0
   38.4470   24.9970   35.9670 C   0  0  0  0  0  0  0  0  0  0  0  0
   39.5000   24.2720   35.4330 N   0  0  0  0  0  0  0  0  0  0  0  0
   40.0060   23.2130   36.0520 C   0  0  0  0  0  0  0  0  0  0  0  0
   39.4870   22.7970   37.2700 N   0  0  0  0  0  0  0  0  0  0  0  0
   38.0640   23.1380   38.7830 H   0  0  0  0  0  0  0  0  0  0  0  0
   37.0770   25.1530   37.6360 H   0  0  0  0  0  0  0  0  0  0  0  0
   40.8330   22.6740   35.5930 H   0  0  0  0  0  0  0  0  0  0  0  0
   38.2000   27.4430   35.9940 C   0  0  0  0  0  0  0  0  0  0  0  0
   38.4330   27.1520   37.0390 H   0  0  0  0  0  0  0  0  0  0  0  0
   37.2920   28.0740   36.0610 H   0  0  0  0  0  0  0  0  0  0  0  0
   39.0770   27.9080   35.5540 H   0  0  0  0  0  0  0  0  0  0  0  0
  1 24  1  0  0  0  0
  2  6  1  0  0  0  0
  2  1  1  0  0  0  0
  3  4  1  0  0  0  0
  3  2  2  0  0  0  0
  4  5  2  0  0  0  0
  5  1  1  0  0  0  0
  5  8  1  0  0  0  0
  7  3  1  0  0  0  0
  8 11  1  1  0  0  0
  8 10  1  0  0  0  0
  9  8  1  0  0  0  0
  9 10  1  0  0  0  0
 10 14  1  1  0  0  0
 10 15  1  0  0  0  0
 12  9  1  0  0  0  0
 13  9  1  0  0  0  0
 15 21  1  0  0  0  0
 15 16  1  0  0  0  0
 16 17  2  0  0  0  0
 17 18  1  0  0  0  0
 18 19  2  0  0  0  0
 20 23  1  0  0  0  0
 20 18  1  0  0  0  0
 21 20  1  0  0  0  0
 22 21  2  0  0  0  0
 24 27  1  0  0  0  0
 25 24  1  0  0  0  0
 26 24  1  0  0  0  0
 27 28  1  6  0  0  0
 27 31  1  0  0  0  0
 27 38  1  0  0  0  0
 29 35  1  0  0  0  0
 30 36  1  0  0  0  0
 30 29  2  0  0  0  0
 31 30  1  0  0  0  0
 32 31  2  0  0  0  0
 32 33  1  0  0  0  0
 33 34  2  0  0  0  0
 34 29  1  0  0  0  0
 37 33  1  0  0  0  0
 38 40  1  0  0  0  0
 38 39  1  0  0  0  0
 41 38  1  0  0  0  0
M  END
>  <minimizedAffinity>
-5.78500843

>  <minimizedRMSD>
2.01621556

$$$$
