
 OpenBabel03262519563D

 32 35  0  0  1  0  0  0  0  0999 V2000
   38.3100   22.9510   35.5190 C   0  0  0  0  0  0  0  0  0  0  0  0
   37.7860   23.7630   36.5130 C   0  0  0  0  0  0  0  0  0  0  0  0
   38.7760   23.7960   37.4530 N   0  0  0  0  0  0  0  0  0  0  0  0
   39.7790   23.0610   37.0260 C   0  0  0  0  0  0  0  0  0  0  0  0
   39.5260   22.5150   35.8160 N   0  0  0  0  0  0  0  0  0  0  0  0
   36.8120   24.2190   36.4680 H   0  0  0  0  0  0  0  0  0  0  0  0
   40.6520   22.9870   37.6690 H   0  0  0  0  0  0  0  0  0  0  0  0
   37.6100   22.6070   34.2760 C   0  0  0  0  0  0  0  0  0  0  0  0
   36.9530   21.3680   34.1720 C   0  0  0  0  0  0  0  0  0  0  0  0
   36.2880   21.0640   32.9650 C   0  0  0  0  0  0  0  0  0  0  0  0
   36.3270   21.9790   31.9880 N   0  0  0  0  0  0  0  0  0  0  0  0
   36.9690   23.1680   32.1140 C   0  0  0  0  0  0  0  0  0  0  0  0
   37.6160   23.4870   33.2610 N   0  0  0  0  0  0  0  0  0  0  0  0
   36.9460   20.6650   34.9750 H   0  0  0  0  0  0  0  0  0  0  0  0
   35.7750   20.1210   32.8600 H   0  0  0  0  0  0  0  0  0  0  0  0
   37.0130   23.9200   31.3380 H   0  0  0  0  0  0  0  0  0  0  0  0
   40.4500   21.6640   35.1070 C   0  0  1  0  0  0  0  0  0  0  0  0
   40.5440   21.5940   33.6690 C   0  0  0  0  0  0  0  0  0  0  0  0
   41.5600   22.4200   34.4260 C   0  0  1  0  0  0  0  0  0  0  0  0
   40.7140   20.7650   35.7160 H   0  0  0  0  0  0  0  0  0  0  0  0
   41.0050   20.6520   33.2480 H   0  0  0  0  0  0  0  0  0  0  0  0
   39.8750   22.0430   32.9250 H   0  0  0  0  0  0  0  0  0  0  0  0
   42.5700   22.0070   34.6250 H   0  0  0  0  0  0  0  0  0  0  0  0
   41.4840   23.8250   34.2030 N   0  0  0  0  0  0  0  0  0  0  0  0
   40.7840   24.3830   33.2080 C   0  0  0  0  0  3  0  0  0  0  0  0
   40.7020   25.7410   32.9800 C   0  0  0  0  0  3  0  0  0  0  0  0
   41.3960   26.5900   33.8460 C   0  0  0  0  0  0  0  0  0  0  0  0
   41.4000   27.8400   33.7440 O   0  0  0  0  0  0  0  0  0  0  0  0
   42.1080   26.0420   34.8570 N   0  0  0  0  0  0  0  0  0  0  0  0
   42.1450   24.6930   35.0220 C   0  0  0  0  0  0  0  0  0  0  0  0
   42.8450   24.2720   36.0050 O   0  0  0  0  0  0  0  0  0  0  0  0
   42.6410   26.6630   35.5230 H   0  0  0  0  0  0  0  0  0  0  0  0
  1  5  1  0  0  0  0
  1  2  2  0  0  0  0
  2  3  1  0  0  0  0
  4  3  2  0  0  0  0
  4  7  1  0  0  0  0
  5  4  1  0  0  0  0
  6  2  1  0  0  0  0
  8  1  1  0  0  0  0
  9  8  1  0  0  0  0
  9 14  1  0  0  0  0
 10  9  2  0  0  0  0
 11 12  2  0  0  0  0
 11 10  1  0  0  0  0
 12 13  1  0  0  0  0
 13  8  2  0  0  0  0
 15 10  1  0  0  0  0
 16 12  1  0  0  0  0
 17 20  1  1  0  0  0
 17  5  1  0  0  0  0
 18 19  1  0  0  0  0
 18 17  1  0  0  0  0
 19 23  1  1  0  0  0
 19 17  1  0  0  0  0
 21 18  1  0  0  0  0
 22 18  1  0  0  0  0
 24 19  1  0  0  0  0
 24 30  1  0  0  0  0
 25 24  1  0  0  0  0
 26 25  2  0  0  0  0
 26 27  1  0  0  0  0
 27 29  1  0  0  0  0
 28 27  2  0  0  0  0
 29 30  1  0  0  0  0
 29 32  1  0  0  0  0
 30 31  2  0  0  0  0
M  END
>  <minimizedAffinity>
-3.72097707

>  <minimizedRMSD>
6.38658476

$$$$
