
 OpenBabel03262519563D

 33 36  0  0  1  0  0  0  0  0999 V2000
   38.0170   22.5010   33.5210 C   0  0  1  0  0  0  0  0  0  0  0  0
   37.1760   21.5880   34.3020 C   0  0  0  0  0  0  0  0  0  0  0  0
   36.7260   21.9670   32.9200 C   0  0  2  0  0  0  0  0  0  0  0  0
   38.9330   22.0990   33.0360 H   0  0  0  0  0  0  0  0  0  0  0  0
   37.6110   20.6100   34.5330 H   0  0  0  0  0  0  0  0  0  0  0  0
   36.6700   22.0290   35.2000 H   0  0  0  0  0  0  0  0  0  0  0  0
   35.8100   22.6200   32.9430 H   0  0  0  0  0  0  0  0  0  0  0  0
   36.7580   21.0070   31.8550 N   0  0  0  0  0  0  0  0  0  0  0  0
   37.6500   20.9470   30.8540 C   0  0  0  0  0  3  0  0  0  0  0  0
   37.5990   19.9810   29.8700 C   0  0  0  0  0  3  0  0  0  0  0  0
   36.6030   19.0230   29.8840 C   0  0  0  0  0  0  0  0  0  0  0  0
   36.5250   18.0150   28.8820 N   0  0  0  0  0  0  0  0  0  0  0  0
   35.7190   19.1030   30.8980 N   0  0  0  0  0  0  0  0  0  0  0  0
   35.8030   20.0590   31.8380 C   0  0  0  0  0  0  0  0  0  0  0  0
   34.8670   19.9360   32.6860 O   0  0  0  0  0  0  0  0  0  0  0  0
   36.6120   18.0930   27.8470 H   0  0  0  0  0  0  0  0  0  0  0  0
   36.3540   17.0730   29.2830 H   0  0  0  0  0  0  0  0  0  0  0  0
   38.1760   24.6930   34.7860 C   0  0  0  0  0  0  0  0  0  0  0  0
   38.0490   26.0430   34.5000 C   0  0  0  0  0  0  0  0  0  0  0  0
   37.7660   26.0550   33.1650 N   0  0  0  0  0  0  0  0  0  0  0  0
   37.7370   24.8100   32.7390 C   0  0  0  0  0  0  0  0  0  0  0  0
   37.9870   23.9270   33.7140 N   0  0  0  0  0  0  0  0  0  0  0  0
   38.1630   26.8540   35.2270 H   0  0  0  0  0  0  0  0  0  0  0  0
   37.5190   24.7000   31.6840 H   0  0  0  0  0  0  0  0  0  0  0  0
   38.4830   24.1500   36.1100 C   0  0  0  0  0  0  0  0  0  0  0  0
   39.6780   23.4880   36.3500 C   0  0  0  0  0  0  0  0  0  0  0  0
   39.9550   22.9730   37.6260 C   0  0  0  0  0  0  0  0  0  0  0  0
   39.0030   23.1640   38.5730 N   0  0  0  0  0  0  0  0  0  0  0  0
   37.8450   23.8090   38.3290 C   0  0  0  0  0  0  0  0  0  0  0  0
   37.5900   24.2980   37.1050 N   0  0  0  0  0  0  0  0  0  0  0  0
   40.4110   23.3510   35.5860 H   0  0  0  0  0  0  0  0  0  0  0  0
   40.8490   22.4580   37.8730 H   0  0  0  0  0  0  0  0  0  0  0  0
   37.0860   23.9680   39.0650 H   0  0  0  0  0  0  0  0  0  0  0  0
  1  4  1  6  0  0  0
  1 22  1  0  0  0  0
  1  2  1  0  0  0  0
  2  5  1  0  0  0  0
  2  6  1  0  0  0  0
  3  7  1  6  0  0  0
  3  1  1  0  0  0  0
  3  2  1  0  0  0  0
  8  3  1  0  0  0  0
  9  8  1  0  0  0  0
 10 11  1  0  0  0  0
 10  9  2  0  0  0  0
 11 13  2  0  0  0  0
 12 17  1  0  0  0  0
 12 11  1  0  0  0  0
 13 14  1  0  0  0  0
 14  8  1  0  0  0  0
 14 15  2  0  0  0  0
 16 12  1  0  0  0  0
 18 25  1  0  0  0  0
 19 18  2  0  0  0  0
 19 23  1  0  0  0  0
 20 19  1  0  0  0  0
 21 20  2  0  0  0  0
 21 22  1  0  0  0  0
 22 18  1  0  0  0  0
 24 21  1  0  0  0  0
 25 26  2  0  0  0  0
 25 30  1  0  0  0  0
 26 27  1  0  0  0  0
 27 32  1  0  0  0  0
 27 28  2  0  0  0  0
 29 28  1  0  0  0  0
 29 33  1  0  0  0  0
 30 29  2  0  0  0  0
 31 26  1  0  0  0  0
M  END
>  <minimizedAffinity>
-5.08149099

>  <minimizedRMSD>
2.27989721

$$$$
