
 OpenBabel03262519553D

 33 36  0  0  1  0  0  0  0  0999 V2000
   37.8670   21.9080   32.1390 C   0  0  1  0  0  0  0  0  0  0  0  0
   37.5380   22.8940   31.1050 C   0  0  0  0  0  0  0  0  0  0  0  0
   37.5350   23.3360   32.5410 C   0  0  2  0  0  0  0  0  0  0  0  0
   38.9330   21.6370   32.2990 H   0  0  0  0  0  0  0  0  0  0  0  0
   38.3450   23.1520   30.4110 H   0  0  0  0  0  0  0  0  0  0  0  0
   36.5700   22.7350   30.5610 H   0  0  0  0  0  0  0  0  0  0  0  0
   36.4950   23.5660   32.9040 H   0  0  0  0  0  0  0  0  0  0  0  0
   38.5560   24.2130   33.0350 N   0  0  0  0  0  0  0  0  0  0  0  0
   39.3860   24.9750   32.3010 C   0  0  0  0  0  3  0  0  0  0  0  0
   40.3400   25.7900   32.8700 C   0  0  0  0  0  3  0  0  0  0  0  0
   40.4800   25.8510   34.2430 C   0  0  0  0  0  0  0  0  0  0  0  0
   41.4570   26.6840   34.8570 N   0  0  0  0  0  0  0  0  0  0  0  0
   39.6380   25.0790   34.9580 N   0  0  0  0  0  0  0  0  0  0  0  0
   38.7190   24.2960   34.3680 C   0  0  0  0  0  0  0  0  0  0  0  0
   38.0450   23.6650   35.2370 O   0  0  0  0  0  0  0  0  0  0  0  0
   42.4620   26.8200   34.6210 H   0  0  0  0  0  0  0  0  0  0  0  0
   41.0720   27.2210   35.6570 H   0  0  0  0  0  0  0  0  0  0  0  0
   36.4850   19.7820   32.1680 C   0  0  0  0  0  0  0  0  0  0  0  0
   35.5240   19.2060   32.9830 C   0  0  0  0  0  0  0  0  0  0  0  0
   35.3760   20.1170   33.9870 N   0  0  0  0  0  0  0  0  0  0  0  0
   36.1910   21.1240   33.7520 C   0  0  0  0  0  0  0  0  0  0  0  0
   36.9020   20.9580   32.6290 N   0  0  0  0  0  0  0  0  0  0  0  0
   35.0400   18.2400   32.8000 H   0  0  0  0  0  0  0  0  0  0  0  0
   36.1570   21.9140   34.4920 H   0  0  0  0  0  0  0  0  0  0  0  0
   36.9980   19.1810   30.9350 C   0  0  0  0  0  0  0  0  0  0  0  0
   38.1290   18.3780   30.9500 C   0  0  0  0  0  0  0  0  0  0  0  0
   38.6070   17.8110   29.7590 C   0  0  0  0  0  0  0  0  0  0  0  0
   37.9060   18.0940   28.6330 N   0  0  0  0  0  0  0  0  0  0  0  0
   36.8080   18.8760   28.6290 C   0  0  0  0  0  0  0  0  0  0  0  0
   36.3600   19.4140   29.7750 N   0  0  0  0  0  0  0  0  0  0  0  0
   38.6620   18.1700   31.8510 H   0  0  0  0  0  0  0  0  0  0  0  0
   39.4650   17.1890   29.7030 H   0  0  0  0  0  0  0  0  0  0  0  0
   36.2460   19.1090   27.7500 H   0  0  0  0  0  0  0  0  0  0  0  0
  1  4  1  1  0  0  0
  1  3  1  0  0  0  0
  1 22  1  0  0  0  0
  2  1  1  0  0  0  0
  2  3  1  0  0  0  0
  3  7  1  1  0  0  0
  3  8  1  0  0  0  0
  5  2  1  0  0  0  0
  6  2  1  0  0  0  0
  8 14  1  0  0  0  0
  9 10  2  0  0  0  0
  9  8  1  0  0  0  0
 10 11  1  0  0  0  0
 11 12  1  0  0  0  0
 11 13  2  0  0  0  0
 12 17  1  0  0  0  0
 14 13  1  0  0  0  0
 14 15  2  0  0  0  0
 16 12  1  0  0  0  0
 18 22  1  0  0  0  0
 18 19  2  0  0  0  0
 19 20  1  0  0  0  0
 21 20  2  0  0  0  0
 21 24  1  0  0  0  0
 22 21  1  0  0  0  0
 23 19  1  0  0  0  0
 25 26  1  0  0  0  0
 25 18  1  0  0  0  0
 26 31  1  0  0  0  0
 27 26  2  0  0  0  0
 28 27  1  0  0  0  0
 29 28  2  0  0  0  0
 29 30  1  0  0  0  0
 30 25  2  0  0  0  0
 32 27  1  0  0  0  0
 33 29  1  0  0  0  0
M  END
>  <minimizedAffinity>
-4.10036898

>  <minimizedRMSD>
7.57885838

$$$$
