
 OpenBabel03262517453D

 32 35  0  0  0  0  0  0  0  0999 V2000
   39.7120   22.7910   37.8610 C   0  0  0  0  0  0  0  0  0  0  0  0
   38.7680   23.5130   38.5940 C   0  0  0  0  0  0  0  0  0  0  0  0
   37.7660   24.1770   37.8890 C   0  0  0  0  0  0  0  0  0  0  0  0
   37.7840   24.0700   36.5180 N   0  0  0  0  0  0  0  0  0  0  0  0
   38.7040   23.3700   35.8520 C   0  0  0  0  0  0  0  0  0  0  0  0
   39.6750   22.7260   36.5320 N   0  0  0  0  0  0  0  0  0  0  0  0
   38.6090   23.3400   34.4290 N   0  0  0  0  0  0  0  0  0  0  0  0
   39.0430   22.3060   33.6630 C   0  0  0  0  0  0  0  0  0  0  0  0
   38.8110   22.5820   32.3530 N   0  0  0  0  0  0  0  0  0  0  0  0
   38.2210   23.8050   32.2660 C   0  0  0  0  0  0  0  0  0  0  0  0
   37.7520   24.6210   31.2400 C   0  0  0  0  0  0  0  0  0  0  0  0
   37.2050   25.8090   31.5000 N   0  0  0  0  0  0  0  0  0  0  0  0
   37.1110   26.2130   32.7880 C   0  0  0  0  0  0  0  0  0  0  0  0
   37.5520   25.4540   33.8080 N   0  0  0  0  0  0  0  0  0  0  0  0
   38.1100   24.2480   33.5670 C   0  0  0  0  0  0  0  0  0  0  0  0
   37.9320   24.0360   29.9520 N   0  0  0  0  0  0  0  0  0  0  0  0
   40.4630   22.3000   38.4800 H   0  0  0  0  0  0  0  0  0  0  0  0
   38.7260   23.6160   39.6690 H   0  0  0  0  0  0  0  0  0  0  0  0
   36.9610   24.7760   38.2930 H   0  0  0  0  0  0  0  0  0  0  0  0
   39.5090   21.3960   34.0570 H   0  0  0  0  0  0  0  0  0  0  0  0
   37.2340   24.0230   29.1490 H   0  0  0  0  0  0  0  0  0  0  0  0
   38.8000   23.5400   29.6480 H   0  0  0  0  0  0  0  0  0  0  0  0
   36.5490   27.4490   33.1420 N   0  0  0  0  0  0  0  0  0  0  0  0
   35.9380   28.1330   32.1310 C   0  0  0  0  0  0  0  0  0  0  0  0
   35.3640   29.3510   32.4010 C   0  0  0  0  0  0  0  0  0  0  0  0
   35.4400   29.8210   33.7070 C   0  0  0  0  0  0  0  0  0  0  0  0
   34.8470   31.0840   33.9940 N   0  0  0  0  0  0  0  0  0  0  0  0
   36.0610   29.0830   34.6430 N   0  0  0  0  0  0  0  0  0  0  0  0
   36.6180   27.9020   34.3850 C   0  0  0  0  0  0  0  0  0  0  0  0
   37.2080   27.1840   35.2370 O   0  0  0  0  0  0  0  0  0  0  0  0
   35.5000   31.6570   34.5890 H   0  0  0  0  0  0  0  0  0  0  0  0
   33.9250   31.4670   33.7090 H   0  0  0  0  0  0  0  0  0  0  0  0
  1 17  1  0  0  0  0
  1  2  1  0  0  0  0
  2 18  1  0  0  0  0
  3 19  1  0  0  0  0
  3  2  2  0  0  0  0
  4  3  1  0  0  0  0
  5  4  2  0  0  0  0
  5  6  1  0  0  0  0
  6  1  2  0  0  0  0
  7  5  1  0  0  0  0
  8 20  1  0  0  0  0
  8  7  1  0  0  0  0
  9  8  2  0  0  0  0
 10  9  1  0  0  0  0
 10 15  1  0  0  0  0
 11 12  1  0  0  0  0
 11 10  2  0  0  0  0
 12 13  2  0  0  0  0
 13 23  1  0  0  0  0
 13 14  1  0  0  0  0
 15 14  2  0  0  0  0
 15  7  1  0  0  0  0
 16 11  1  0  0  0  0
 21 16  1  0  0  0  0
 22 16  1  0  0  0  0
 23 29  1  0  0  0  0
 24 25  2  0  0  0  0
 24 23  1  0  0  0  0
 25 26  1  0  0  0  0
 26 27  1  0  0  0  0
 26 28  2  0  0  0  0
 27 31  1  0  0  0  0
 29 28  1  0  0  0  0
 29 30  2  0  0  0  0
 32 27  1  0  0  0  0
M  END
>  <minimizedAffinity>
-6.5276618

>  <minimizedRMSD>
1.95472419

$$$$
