
 OpenBabel03262519553D

 33 36  0  0  1  0  0  0  0  0999 V2000
   37.6980   21.9120   33.9560 C   0  0  1  0  0  0  0  0  0  0  0  0
   36.5110   21.2790   34.5390 C   0  0  0  0  0  0  0  0  0  0  0  0
   36.5910   21.4060   33.0440 C   0  0  2  0  0  0  0  0  0  0  0  0
   38.6370   21.3220   33.8850 H   0  0  0  0  0  0  0  0  0  0  0  0
   36.6770   20.3300   35.0600 H   0  0  0  0  0  0  0  0  0  0  0  0
   35.8310   21.9500   35.1260 H   0  0  0  0  0  0  0  0  0  0  0  0
   35.8400   22.1440   32.6470 H   0  0  0  0  0  0  0  0  0  0  0  0
   36.7910   20.2470   32.2250 N   0  0  0  0  0  0  0  0  0  0  0  0
   37.9690   19.7340   31.8300 C   0  0  0  0  0  3  0  0  0  0  0  0
   38.0610   18.6100   31.0380 C   0  0  0  0  0  3  0  0  0  0  0  0
   36.9190   17.9590   30.6140 C   0  0  0  0  0  0  0  0  0  0  0  0
   36.9840   16.7970   29.7950 N   0  0  0  0  0  0  0  0  0  0  0  0
   35.7490   18.4900   31.0210 N   0  0  0  0  0  0  0  0  0  0  0  0
   35.6990   19.5890   31.7930 C   0  0  0  0  0  0  0  0  0  0  0  0
   34.4980   19.9020   32.0480 O   0  0  0  0  0  0  0  0  0  0  0  0
   37.5600   16.6060   28.9490 H   0  0  0  0  0  0  0  0  0  0  0  0
   36.3460   16.0470   30.1230 H   0  0  0  0  0  0  0  0  0  0  0  0
   38.1810   24.2500   34.8090 C   0  0  0  0  0  0  0  0  0  0  0  0
   38.2110   25.5350   34.2900 C   0  0  0  0  0  0  0  0  0  0  0  0
   37.8750   25.3530   32.9810 N   0  0  0  0  0  0  0  0  0  0  0  0
   37.6740   24.0680   32.7820 C   0  0  0  0  0  0  0  0  0  0  0  0
   37.8530   23.3420   33.8940 N   0  0  0  0  0  0  0  0  0  0  0  0
   38.4560   26.4390   34.8600 H   0  0  0  0  0  0  0  0  0  0  0  0
   37.3990   23.8050   31.7680 H   0  0  0  0  0  0  0  0  0  0  0  0
   38.4750   23.9100   36.2020 C   0  0  0  0  0  0  0  0  0  0  0  0
   39.6360   23.2310   36.5410 C   0  0  0  0  0  0  0  0  0  0  0  0
   39.9000   22.9120   37.8820 C   0  0  0  0  0  0  0  0  0  0  0  0
   38.9700   23.3030   38.7890 N   0  0  0  0  0  0  0  0  0  0  0  0
   37.8450   23.9620   38.4490 C   0  0  0  0  0  0  0  0  0  0  0  0
   37.6020   24.2620   37.1630 N   0  0  0  0  0  0  0  0  0  0  0  0
   40.3520   22.9350   35.8070 H   0  0  0  0  0  0  0  0  0  0  0  0
   40.7680   22.3960   38.2060 H   0  0  0  0  0  0  0  0  0  0  0  0
   37.1030   24.2760   39.1520 H   0  0  0  0  0  0  0  0  0  0  0  0
  1  4  1  1  0  0  0
  1  2  1  0  0  0  0
  2  5  1  0  0  0  0
  2  6  1  0  0  0  0
  3  7  1  6  0  0  0
  3  1  1  0  0  0  0
  3  2  1  0  0  0  0
  8  3  1  0  0  0  0
  9  8  1  0  0  0  0
 10  9  2  0  0  0  0
 11 13  2  0  0  0  0
 11 10  1  0  0  0  0
 12 17  1  0  0  0  0
 12 11  1  0  0  0  0
 13 14  1  0  0  0  0
 14 15  2  0  0  0  0
 14  8  1  0  0  0  0
 16 12  1  0  0  0  0
 18 25  1  0  0  0  0
 19 18  2  0  0  0  0
 19 23  1  0  0  0  0
 20 19  1  0  0  0  0
 21 20  2  0  0  0  0
 21 22  1  0  0  0  0
 22  1  1  0  0  0  0
 22 18  1  0  0  0  0
 24 21  1  0  0  0  0
 25 26  2  0  0  0  0
 25 30  1  0  0  0  0
 26 27  1  0  0  0  0
 27 32  1  0  0  0  0
 27 28  2  0  0  0  0
 29 28  1  0  0  0  0
 29 33  1  0  0  0  0
 30 29  2  0  0  0  0
 31 26  1  0  0  0  0
M  END
>  <minimizedAffinity>
-4.80998945

>  <minimizedRMSD>
1.94869947

$$$$
