
 OpenBabel03262517153D

 43 47  0  0  1  0  0  0  0  0999 V2000
   37.9850   26.4520   36.5290 C   0  0  1  0  0  0  0  0  0  0  0  0
   38.8580   27.3290   35.7130 C   0  0  0  0  0  0  0  0  0  0  0  0
   37.5580   26.8430   35.1680 C   0  0  1  0  0  0  0  0  0  0  0  0
   37.4180   26.9700   37.3340 H   0  0  0  0  0  0  0  0  0  0  0  0
   39.8170   26.8540   35.3600 H   0  0  0  0  0  0  0  0  0  0  0  0
   39.0250   28.3920   35.9620 H   0  0  0  0  0  0  0  0  0  0  0  0
   36.7990   27.6800   35.0890 H   0  0  0  0  0  0  0  0  0  0  0  0
   37.6470   26.1220   33.9660 N   0  0  0  0  0  0  0  0  0  0  0  0
   37.6870   24.7890   33.8090 C   0  0  0  0  0  0  0  0  0  0  0  0
   37.7750   24.1430   32.6020 C   0  0  0  0  0  0  0  0  0  0  0  0
   37.8260   24.9150   31.4350 C   0  0  0  0  0  0  0  0  0  0  0  0
   37.9080   24.3740   30.3070 O   0  0  0  0  0  0  0  0  0  0  0  0
   37.7880   26.2770   31.5240 N   0  0  0  0  0  0  0  0  0  0  0  0
   37.7030   26.8020   32.7590 C   0  0  0  0  0  0  0  0  0  0  0  0
   37.6680   28.0760   32.8140 O   0  0  0  0  0  0  0  0  0  0  0  0
   37.1420   28.4600   28.7830 N   0  0  0  0  0  0  0  0  0  0  0  0
   36.7560   27.7630   29.8240 N   0  0  0  0  0  0  0  0  0  0  0  0
   37.8150   27.1260   30.3810 C   0  0  0  0  0  0  0  0  0  0  0  0
   38.9070   27.4580   29.6330 C   0  0  0  0  0  0  0  0  0  0  0  0
   38.4730   28.2980   28.6290 C   0  0  0  0  0  0  0  0  0  0  0  0
   37.6150   24.0960   34.6240 H   0  0  0  0  0  0  0  0  0  0  0  0
   37.8100   23.0910   32.4530 H   0  0  0  0  0  0  0  0  0  0  0  0
   36.4780   29.0330   28.2000 H   0  0  0  0  0  0  0  0  0  0  0  0
   39.9290   27.1080   29.8170 H   0  0  0  0  0  0  0  0  0  0  0  0
   39.0810   28.7590   27.8420 H   0  0  0  0  0  0  0  0  0  0  0  0
   38.4250   25.0770   36.8760 C   0  0  0  0  0  0  0  0  0  0  0  0
   37.8440   24.5140   38.0190 C   0  0  0  0  0  0  0  0  0  0  0  0
   38.2020   23.2440   38.4080 C   0  0  0  0  0  0  0  0  0  0  0  0
   39.1210   22.6000   37.6410 N   0  0  0  0  0  0  0  0  0  0  0  0
   39.6570   23.1710   36.5520 C   0  0  0  0  0  0  0  0  0  0  0  0
   39.3300   24.3990   36.1500 N   0  0  0  0  0  0  0  0  0  0  0  0
   37.1120   25.0540   38.6120 H   0  0  0  0  0  0  0  0  0  0  0  0
   37.7640   22.7970   39.2860 H   0  0  0  0  0  0  0  0  0  0  0  0
   40.6280   22.4620   35.7610 N   0  0  0  0  0  0  0  0  0  0  0  0
   40.7900   22.5550   34.4270 C   0  0  0  0  0  0  0  0  0  0  0  0
   41.7710   21.8070   33.8080 C   0  0  0  0  0  0  0  0  0  0  0  0
   42.5450   20.9890   34.6060 C   0  0  0  0  0  0  0  0  0  0  0  0
   43.5620   20.2130   33.9730 N   0  0  0  0  0  0  0  0  0  0  0  0
   42.3910   20.8890   35.9380 N   0  0  0  0  0  0  0  0  0  0  0  0
   41.4110   21.6460   36.5090 C   0  0  0  0  0  0  0  0  0  0  0  0
   41.3140   21.5110   37.7490 O   0  0  0  0  0  0  0  0  0  0  0  0
   44.4860   20.5480   33.6270 H   0  0  0  0  0  0  0  0  0  0  0  0
   43.8000   19.2480   33.6510 H   0  0  0  0  0  0  0  0  0  0  0  0
  1 26  1  0  0  0  0
  1  4  1  1  0  0  0
  2  6  1  0  0  0  0
  2  1  1  0  0  0  0
  3  7  1  6  0  0  0
  3  2  1  0  0  0  0
  3  1  1  0  0  0  0
  5  2  1  0  0  0  0
  8  3  1  0  0  0  0
  9  8  1  0  0  0  0
  9 21  1  0  0  0  0
 10  9  2  0  0  0  0
 11 13  1  0  0  0  0
 11 10  1  0  0  0  0
 12 11  2  0  0  0  0
 13 14  1  0  0  0  0
 14 15  2  0  0  0  0
 14  8  1  0  0  0  0
 16 17  1  0  0  0  0
 17 18  2  0  0  0  0
 18 13  1  0  0  0  0
 19 24  1  0  0  0  0
 19 18  1  0  0  0  0
 20 16  1  0  0  0  0
 20 19  2  0  0  0  0
 22 10  1  0  0  0  0
 23 16  1  0  0  0  0
 25 20  1  0  0  0  0
 26 27  1  0  0  0  0
 27 28  2  0  0  0  0
 27 32  1  0  0  0  0
 28 33  1  0  0  0  0
 29 28  1  0  0  0  0
 30 29  2  0  0  0  0
 31 30  1  0  0  0  0
 31 26  2  0  0  0  0
 34 40  1  0  0  0  0
 34 30  1  0  0  0  0
 35 34  1  0  0  0  0
 36 35  2  0  0  0  0
 36 37  1  0  0  0  0
 37 39  2  0  0  0  0
 38 37  1  0  0  0  0
 39 40  1  0  0  0  0
 40 41  2  0  0  0  0
 42 38  1  0  0  0  0
 43 38  1  0  0  0  0
M  END
>  <minimizedAffinity>
-6.45996237

>  <minimizedRMSD>
0.49515447

$$$$
