
 OpenBabel03262518563D

 22 24  0  0  0  0  0  0  0  0999 V2000
   37.7360   23.4380   33.6060 C   0  0  0  0  0  0  0  0  0  0  0  0
   37.8250   22.7260   32.7830 H   0  0  0  0  0  0  0  0  0  0  0  0
   36.6690   23.3630   33.9420 H   0  0  0  0  0  0  0  0  0  0  0  0
   38.6080   23.0950   34.7020 N   0  0  0  0  0  0  0  0  0  0  0  0
   39.7550   22.4080   34.4510 C   0  0  0  0  0  0  0  0  0  0  0  0
   40.4260   22.1860   35.5950 N   0  0  0  0  0  0  0  0  0  0  0  0
   39.7320   22.7220   36.6000 C   0  0  0  0  0  0  0  0  0  0  0  0
   39.8650   22.8390   37.9720 C   0  0  0  0  0  0  0  0  0  0  0  0
   40.7520   22.3920   38.3930 H   0  0  0  0  0  0  0  0  0  0  0  0
   38.9110   23.4810   38.6820 N   0  0  0  0  0  0  0  0  0  0  0  0
   37.8190   24.0180   38.0760 C   0  0  0  0  0  0  0  0  0  0  0  0
   37.6470   23.9270   36.7280 N   0  0  0  0  0  0  0  0  0  0  0  0
   38.6070   23.2830   36.0350 C   0  0  0  0  0  0  0  0  0  0  0  0
   39.0180   26.3450   31.7720 C   0  0  0  0  0  0  0  0  0  0  0  0
   38.3620   27.4360   32.3520 C   0  0  0  0  0  0  0  0  0  0  0  0
   37.4640   27.1600   33.3920 C   0  0  0  0  0  0  0  0  0  0  0  0
   37.2710   25.8540   33.7880 N   0  0  0  0  0  0  0  0  0  0  0  0
   37.9410   24.8550   33.1810 C   0  0  0  0  0  0  0  0  0  0  0  0
   38.8150   25.0640   32.1780 N   0  0  0  0  0  0  0  0  0  0  0  0
   39.7100   26.5880   30.9670 H   0  0  0  0  0  0  0  0  0  0  0  0
   38.5390   28.4320   32.0170 H   0  0  0  0  0  0  0  0  0  0  0  0
   36.9220   27.9530   33.8850 H   0  0  0  0  0  0  0  0  0  0  0  0
  1  3  1  0  0  0  0
  1  4  1  0  0  0  0
  2  1  1  0  0  0  0
  4 13  1  0  0  0  0
  5  4  1  0  0  0  0
  5  6  2  0  0  0  0
  6  7  1  0  0  0  0
  7  8  1  0  0  0  0
  8  9  1  0  0  0  0
  8 10  2  0  0  0  0
 11 10  1  0  0  0  0
 12 11  2  0  0  0  0
 13  7  2  0  0  0  0
 13 12  1  0  0  0  0
 14 19  2  0  0  0  0
 14 15  1  0  0  0  0
 15 16  2  0  0  0  0
 16 17  1  0  0  0  0
 16 22  1  0  0  0  0
 18  1  1  0  0  0  0
 18 17  2  0  0  0  0
 19 18  1  0  0  0  0
 20 14  1  0  0  0  0
 21 15  1  0  0  0  0
M  END
>  <minimizedAffinity>
-3.95484877

>  <minimizedRMSD>
5.68546104

$$$$
