
 OpenBabel03262519183D

 39 43  0  0  0  0  0  0  0  0999 V2000
   36.5650   28.3140   33.4850 C   0  0  0  0  0  0  0  0  0  0  0  0
   35.7590   29.1130   34.2820 C   0  0  0  0  0  0  0  0  0  0  0  0
   35.1130   30.1290   33.6610 C   0  0  0  0  0  0  0  0  0  0  0  0
   35.2930   30.2970   32.3150 C   0  0  0  0  0  0  0  0  0  0  0  0
   36.4710   28.9250   31.8340 S   0  0  0  0  0  0  0  0  0  0  0  0
   35.6370   28.9490   35.3620 H   0  0  0  0  0  0  0  0  0  0  0  0
   37.0860   26.5390   35.2140 C   0  0  0  0  0  0  0  0  0  0  0  0
   37.3310   27.1810   33.9880 C   0  0  0  0  0  0  0  0  0  0  0  0
   38.3640   26.7430   33.1620 C   0  0  0  0  0  0  0  0  0  0  0  0
   39.0670   25.6880   33.6400 N   0  0  0  0  0  0  0  0  0  0  0  0
   38.8310   25.0730   34.8150 C   0  0  0  0  0  0  0  0  0  0  0  0
   37.8310   25.5190   35.5880 N   0  0  0  0  0  0  0  0  0  0  0  0
   36.2500   26.9700   35.7770 H   0  0  0  0  0  0  0  0  0  0  0  0
   38.5910   27.2010   32.2140 H   0  0  0  0  0  0  0  0  0  0  0  0
   39.6730   23.9340   35.1880 C   0  0  0  0  0  0  0  0  0  0  0  0
   40.4360   23.4260   34.1860 C   0  0  0  0  0  0  0  0  0  0  0  0
   41.3370   22.0020   35.0140 S   0  0  0  0  0  0  0  0  0  0  0  0
   40.4270   22.4210   36.6690 C   0  0  0  0  0  0  0  0  0  0  0  0
   39.8180   23.2970   36.3230 N   0  0  0  0  0  0  0  0  0  0  0  0
   40.6130   21.7010   37.8650 N   0  0  0  0  0  0  0  0  0  0  0  0
   40.6800   23.5590   33.1420 H   0  0  0  0  0  0  0  0  0  0  0  0
   39.7070   21.3410   38.2480 H   0  0  0  0  0  0  0  0  0  0  0  0
   41.5920   21.6220   38.2050 H   0  0  0  0  0  0  0  0  0  0  0  0
   34.8310   31.1930   31.2980 C   0  0  0  0  0  0  0  0  0  0  0  0
   35.5600   32.0410   30.8050 O   0  0  0  0  0  0  0  0  0  0  0  0
   33.4710   31.1150   30.8210 N   0  0  0  0  0  0  0  0  0  0  0  0
   32.9710   30.7150   29.9910 H   0  0  0  0  0  0  0  0  0  0  0  0
   32.4660   31.3550   30.9950 H   0  0  0  0  0  0  0  0  0  0  0  0
   34.0120   31.3240   34.3960 S   0  0  0  0  0  0  0  0  0  0  0  0
   34.7360   35.9040   38.1910 H   0  0  0  0  0  0  0  0  0  0  0  0
   34.4620   35.0600   37.6040 N   0  0  0  0  0  0  0  0  0  0  0  0
   33.3460   34.3430   37.8210 C   0  0  0  0  0  0  0  0  0  0  0  0
   33.3490   33.3600   36.8780 N   0  0  0  0  0  0  0  0  0  0  0  0
   34.4540   33.5100   36.1290 C   0  0  0  0  0  0  0  0  0  0  0  0
   34.8470   32.7270   35.0630 C   0  0  0  0  0  0  0  0  0  0  0  0
   35.9990   33.0630   34.4550 N   0  0  0  0  0  0  0  0  0  0  0  0
   36.7180   34.1350   34.9000 C   0  0  0  0  0  0  0  0  0  0  0  0
   36.3280   34.9060   35.9520 N   0  0  0  0  0  0  0  0  0  0  0  0
   35.1950   34.5900   36.5640 C   0  0  0  0  0  0  0  0  0  0  0  0
  1  8  1  0  0  0  0
  1  2  2  0  0  0  0
  2  6  1  0  0  0  0
  3  2  1  0  0  0  0
  3 29  1  0  0  0  0
  4  3  2  0  0  0  0
  5  4  1  0  0  0  0
  5  1  1  0  0  0  0
  7 12  1  0  0  0  0
  7 13  1  0  0  0  0
  8  7  2  0  0  0  0
  9 10  2  0  0  0  0
  9  8  1  0  0  0  0
 10 11  1  0  0  0  0
 11 15  1  0  0  0  0
 11 12  2  0  0  0  0
 14  9  1  0  0  0  0
 15 19  1  0  0  0  0
 16 17  1  0  0  0  0
 16 15  2  0  0  0  0
 17 18  1  0  0  0  0
 18 20  1  0  0  0  0
 19 18  2  0  0  0  0
 20 23  1  0  0  0  0
 20 22  1  0  0  0  0
 21 16  1  0  0  0  0
 24  4  1  0  0  0  0
 25 24  2  0  0  0  0
 26 28  1  0  0  0  0
 26 24  1  0  0  0  0
 27 26  1  0  0  0  0
 29 35  1  0  0  0  0
 31 32  1  0  0  0  0
 31 30  1  0  0  0  0
 33 32  2  0  0  0  0
 34 39  1  0  0  0  0
 34 33  1  0  0  0  0
 35 34  2  0  0  0  0
 36 37  2  0  0  0  0
 36 35  1  0  0  0  0
 37 38  1  0  0  0  0
 38 39  2  0  0  0  0
 39 31  1  0  0  0  0
M  END
>  <minimizedAffinity>
-5.65107155

>  <minimizedRMSD>
2.3007772

$$$$
