
 OpenBabel03262519163D

 38 41  0  0  0  0  0  0  0  0999 V2000
   36.2900   28.2390   33.8250 C   0  0  0  0  0  0  0  0  0  0  0  0
   35.9360   29.3410   34.5830 C   0  0  0  0  0  0  0  0  0  0  0  0
   35.0970   30.2370   34.0130 C   0  0  0  0  0  0  0  0  0  0  0  0
   34.6550   29.9960   32.7280 C   0  0  0  0  0  0  0  0  0  0  0  0
   35.4770   28.3780   32.2650 S   0  0  0  0  0  0  0  0  0  0  0  0
   36.3050   29.5050   35.6030 H   0  0  0  0  0  0  0  0  0  0  0  0
   34.5900   31.4410   34.5810 N   0  0  0  0  0  0  0  0  0  0  0  0
   35.1480   32.6560   34.3750 C   0  0  0  0  0  0  0  0  0  0  0  0
   34.6200   33.8100   34.9500 C   0  0  0  0  0  0  0  0  0  0  0  0
   33.4940   33.6590   35.7460 C   0  0  0  0  0  0  0  0  0  0  0  0
   32.9990   34.8860   36.3080 N   0  0  0  0  0  0  0  0  0  0  0  0
   32.9250   32.4440   35.9590 N   0  0  0  0  0  0  0  0  0  0  0  0
   33.4840   31.3480   35.3710 C   0  0  0  0  0  0  0  0  0  0  0  0
   32.8820   30.2710   35.6310 O   0  0  0  0  0  0  0  0  0  0  0  0
   32.0670   34.9910   35.8080 H   0  0  0  0  0  0  0  0  0  0  0  0
   33.6720   35.2620   36.9900 H   0  0  0  0  0  0  0  0  0  0  0  0
   37.9650   27.2580   35.4590 C   0  0  0  0  0  0  0  0  0  0  0  0
   37.1760   27.1810   34.2860 C   0  0  0  0  0  0  0  0  0  0  0  0
   37.2150   26.0530   33.4810 C   0  0  0  0  0  0  0  0  0  0  0  0
   38.0500   25.0640   33.9080 N   0  0  0  0  0  0  0  0  0  0  0  0
   38.8060   25.1440   35.0360 C   0  0  0  0  0  0  0  0  0  0  0  0
   38.7450   26.2470   35.7910 N   0  0  0  0  0  0  0  0  0  0  0  0
   37.8600   28.1880   36.0190 H   0  0  0  0  0  0  0  0  0  0  0  0
   36.6440   25.9420   32.5900 H   0  0  0  0  0  0  0  0  0  0  0  0
   39.6640   23.9960   35.3550 C   0  0  0  0  0  0  0  0  0  0  0  0
   40.4500   23.5450   34.3490 C   0  0  0  0  0  0  0  0  0  0  0  0
   41.3730   22.1080   35.1220 S   0  0  0  0  0  0  0  0  0  0  0  0
   40.4380   22.4340   36.7700 C   0  0  0  0  0  0  0  0  0  0  0  0
   39.8260   23.3030   36.4390 N   0  0  0  0  0  0  0  0  0  0  0  0
   40.6380   21.6590   37.9370 N   0  0  0  0  0  0  0  0  0  0  0  0
   40.7080   23.7540   33.2500 H   0  0  0  0  0  0  0  0  0  0  0  0
   40.5630   20.6010   37.8810 H   0  0  0  0  0  0  0  0  0  0  0  0
   40.8520   22.2150   38.7960 H   0  0  0  0  0  0  0  0  0  0  0  0
   33.8090   30.6540   31.7940 C   0  0  0  0  0  0  0  0  0  0  0  0
   32.5880   30.6180   31.9050 O   0  0  0  0  0  0  0  0  0  0  0  0
   34.3990   31.3850   30.6830 N   0  0  0  0  0  0  0  0  0  0  0  0
   34.1800   31.1230   29.6770 H   0  0  0  0  0  0  0  0  0  0  0  0
   35.0190   32.1480   30.3760 H   0  0  0  0  0  0  0  0  0  0  0  0
  1 18  1  0  0  0  0
  1  2  2  0  0  0  0
  2  6  1  0  0  0  0
  3  7  1  0  0  0  0
  3  2  1  0  0  0  0
  4  3  2  0  0  0  0
  5  4  1  0  0  0  0
  5  1  1  0  0  0  0
  7 13  1  0  0  0  0
  8  7  1  0  0  0  0
  8  9  2  0  0  0  0
  9 10  1  0  0  0  0
 10 12  2  0  0  0  0
 10 11  1  0  0  0  0
 11 16  1  0  0  0  0
 13 14  2  0  0  0  0
 13 12  1  0  0  0  0
 15 11  1  0  0  0  0
 17 22  1  0  0  0  0
 17 23  1  0  0  0  0
 18 17  2  0  0  0  0
 19 20  2  0  0  0  0
 19 18  1  0  0  0  0
 20 21  1  0  0  0  0
 21 25  1  0  0  0  0
 21 22  2  0  0  0  0
 24 19  1  0  0  0  0
 25 29  1  0  0  0  0
 26 27  1  0  0  0  0
 26 25  2  0  0  0  0
 27 28  1  0  0  0  0
 28 30  1  0  0  0  0
 29 28  2  0  0  0  0
 30 33  1  0  0  0  0
 31 26  1  0  0  0  0
 32 30  1  0  0  0  0
 34 35  2  0  0  0  0
 34  4  1  0  0  0  0
 36 34  1  0  0  0  0
 37 36  1  0  0  0  0
 38 36  1  0  0  0  0
M  END
>  <minimizedAffinity>
-5.87934208

>  <minimizedRMSD>
3.98759389

$$$$
