
 OpenBabel03262518383D

 46 49  0  0  0  0  0  0  0  0999 V2000
   37.1330   26.7490   34.3620 C   0  0  0  0  0  0  0  0  0  0  0  0
   37.1810   25.8430   33.2910 C   0  0  0  0  0  0  0  0  0  0  0  0
   36.5410   26.1930   32.0970 C   0  0  0  0  0  0  0  0  0  0  0  0
   35.9140   27.3860   32.0460 N   0  0  0  0  0  0  0  0  0  0  0  0
   35.8740   28.2450   33.0740 C   0  0  0  0  0  0  0  0  0  0  0  0
   36.4870   27.9280   34.2410 N   0  0  0  0  0  0  0  0  0  0  0  0
   37.6940   24.8910   33.3630 H   0  0  0  0  0  0  0  0  0  0  0  0
   36.5650   25.5020   31.2500 H   0  0  0  0  0  0  0  0  0  0  0  0
   37.7990   26.3870   35.6060 C   0  0  0  0  0  0  0  0  0  0  0  0
   38.6680   27.1340   36.0730 O   0  0  0  0  0  0  0  0  0  0  0  0
   37.4330   25.2050   36.2320 O   0  0  0  0  0  0  0  0  0  0  0  0
   39.3530   22.9180   38.1360 N   0  0  0  0  0  0  0  0  0  0  0  0
   38.2970   23.7170   37.9200 N   0  0  0  0  0  0  0  0  0  0  0  0
   38.4260   24.3070   36.7010 C   0  0  0  0  0  0  0  0  0  0  0  0
   39.5840   23.8720   36.1380 C   0  0  0  0  0  0  0  0  0  0  0  0
   40.1380   23.0140   37.0460 C   0  0  0  0  0  0  0  0  0  0  0  0
   39.5790   22.3160   38.9620 H   0  0  0  0  0  0  0  0  0  0  0  0
   39.9290   24.1920   35.1560 H   0  0  0  0  0  0  0  0  0  0  0  0
   41.4260   22.2960   36.8450 C   0  0  0  0  0  0  0  0  0  0  0  0
   42.4640   22.9380   36.2000 C   0  0  0  0  0  0  0  0  0  0  0  0
   43.6060   22.1870   36.0680 C   0  0  0  0  0  0  0  0  0  0  0  0
   43.7840   20.9170   36.5020 N   0  0  0  0  0  0  0  0  0  0  0  0
   42.7230   20.3340   37.1320 C   0  0  0  0  0  0  0  0  0  0  0  0
   41.5850   21.0290   37.2860 N   0  0  0  0  0  0  0  0  0  0  0  0
   42.3970   23.9440   35.8280 H   0  0  0  0  0  0  0  0  0  0  0  0
   44.4630   22.6500   35.5620 H   0  0  0  0  0  0  0  0  0  0  0  0
   42.8240   19.3180   37.4960 H   0  0  0  0  0  0  0  0  0  0  0  0
   35.1590   29.5330   32.9220 C   0  0  0  0  0  0  0  0  0  0  0  0
   35.8710   30.5500   33.7730 C   0  0  0  0  0  0  0  0  0  0  0  0
   36.9710   30.3000   33.7870 H   0  0  0  0  0  0  0  0  0  0  0  0
   35.4540   30.5590   34.7940 H   0  0  0  0  0  0  0  0  0  0  0  0
   35.8410   31.5730   33.3130 H   0  0  0  0  0  0  0  0  0  0  0  0
   33.7560   29.3280   33.4360 C   0  0  0  0  0  0  0  0  0  0  0  0
   33.2290   30.3040   33.3450 H   0  0  0  0  0  0  0  0  0  0  0  0
   33.2240   28.5830   32.8090 H   0  0  0  0  0  0  0  0  0  0  0  0
   33.8340   28.9850   34.4840 H   0  0  0  0  0  0  0  0  0  0  0  0
   35.1310   29.9770   31.4580 C   0  0  0  0  0  0  0  0  0  0  0  0
   34.4470   30.8500   31.4310 H   0  0  0  0  0  0  0  0  0  0  0  0
   34.7220   29.1410   30.8680 H   0  0  0  0  0  0  0  0  0  0  0  0
   36.4480   30.2910   31.1230 O   0  0  0  0  0  0  0  0  0  0  0  0
   37.0250   30.0730   29.8910 C   0  0  0  0  0  0  0  0  0  0  0  0
   37.3880   28.9270   29.2800 N   0  0  0  0  0  0  0  0  0  0  0  0
   37.9050   29.2080   28.0990 O   0  0  0  0  0  0  0  0  0  0  0  0
   37.8960   30.5190   27.9130 C   0  0  0  0  0  0  0  0  0  0  0  0
   38.2810   30.9580   26.9980 H   0  0  0  0  0  0  0  0  0  0  0  0
   37.3480   31.0530   29.0270 N   0  0  0  0  0  0  0  0  0  0  0  0
  1  9  1  0  0  0  0
  2  7  1  0  0  0  0
  2  1  2  0  0  0  0
  3  2  1  0  0  0  0
  4  3  2  0  0  0  0
  4  5  1  0  0  0  0
  5  6  2  0  0  0  0
  6  1  1  0  0  0  0
  8  3  1  0  0  0  0
  9 10  2  0  0  0  0
  9 11  1  0  0  0  0
 11 14  1  0  0  0  0
 12 17  1  0  0  0  0
 13 12  1  0  0  0  0
 14 13  2  0  0  0  0
 15 14  1  0  0  0  0
 15 16  2  0  0  0  0
 16 12  1  0  0  0  0
 18 15  1  0  0  0  0
 19 16  1  0  0  0  0
 19 24  1  0  0  0  0
 20 19  2  0  0  0  0
 21 20  1  0  0  0  0
 21 22  2  0  0  0  0
 22 23  1  0  0  0  0
 23 24  2  0  0  0  0
 23 27  1  0  0  0  0
 25 20  1  0  0  0  0
 26 21  1  0  0  0  0
 28  5  1  0  0  0  0
 28 33  1  0  0  0  0
 28 29  1  0  0  0  0
 29 30  1  0  0  0  0
 29 31  1  0  0  0  0
 32 29  1  0  0  0  0
 33 36  1  0  0  0  0
 34 33  1  0  0  0  0
 35 33  1  0  0  0  0
 37 28  1  0  0  0  0
 38 37  1  0  0  0  0
 39 37  1  0  0  0  0
 40 37  1  0  0  0  0
 41 40  1  0  0  0  0
 42 41  2  0  0  0  0
 43 42  1  0  0  0  0
 44 43  1  0  0  0  0
 44 46  2  0  0  0  0
 45 44  1  0  0  0  0
 46 41  1  0  0  0  0
M  END
>  <minimizedAffinity>
-5.60047007

>  <minimizedRMSD>
0.5736655

$$$$
