
 OpenBabel03262519563D

 33 36  0  0  1  0  0  0  0  0999 V2000
   38.2580   22.5300   33.5940 C   0  0  1  0  0  0  0  0  0  0  0  0
   37.2850   21.7430   34.3580 C   0  0  0  0  0  0  0  0  0  0  0  0
   36.9370   22.1390   32.9500 C   0  0  2  0  0  0  0  0  0  0  0  0
   39.1370   22.0110   33.1550 H   0  0  0  0  0  0  0  0  0  0  0  0
   37.5900   20.7270   34.6250 H   0  0  0  0  0  0  0  0  0  0  0  0
   36.8010   22.2640   35.2250 H   0  0  0  0  0  0  0  0  0  0  0  0
   36.1060   22.8970   32.9230 H   0  0  0  0  0  0  0  0  0  0  0  0
   36.8940   21.1570   31.9070 N   0  0  0  0  0  0  0  0  0  0  0  0
   37.7830   21.0010   30.9120 C   0  0  0  0  0  3  0  0  0  0  0  0
   37.6560   20.0220   29.9500 C   0  0  0  0  0  3  0  0  0  0  0  0
   36.5860   19.1480   29.9800 C   0  0  0  0  0  0  0  0  0  0  0  0
   36.4300   18.1280   29.0000 N   0  0  0  0  0  0  0  0  0  0  0  0
   35.7080   19.3220   30.9860 N   0  0  0  0  0  0  0  0  0  0  0  0
   35.8640   20.2890   31.9060 C   0  0  0  0  0  0  0  0  0  0  0  0
   34.9200   20.2610   32.7510 O   0  0  0  0  0  0  0  0  0  0  0  0
   36.5260   18.1750   27.9640 H   0  0  0  0  0  0  0  0  0  0  0  0
   36.1820   17.2120   29.4200 H   0  0  0  0  0  0  0  0  0  0  0  0
   38.5930   24.7210   34.8260 C   0  0  0  0  0  0  0  0  0  0  0  0
   38.6580   26.0670   34.5060 C   0  0  0  0  0  0  0  0  0  0  0  0
   38.4820   26.0770   33.1530 N   0  0  0  0  0  0  0  0  0  0  0  0
   38.3310   24.8330   32.7490 C   0  0  0  0  0  0  0  0  0  0  0  0
   38.3920   23.9540   33.7570 N   0  0  0  0  0  0  0  0  0  0  0  0
   38.8170   26.8790   35.2250 H   0  0  0  0  0  0  0  0  0  0  0  0
   38.1820   24.7210   31.6820 H   0  0  0  0  0  0  0  0  0  0  0  0
   38.7270   24.1820   36.1810 C   0  0  0  0  0  0  0  0  0  0  0  0
   39.8070   23.3830   36.5270 C   0  0  0  0  0  0  0  0  0  0  0  0
   39.9180   22.8740   37.8300 C   0  0  0  0  0  0  0  0  0  0  0  0
   38.9290   23.2100   38.6950 N   0  0  0  0  0  0  0  0  0  0  0  0
   37.8840   23.9870   38.3480 C   0  0  0  0  0  0  0  0  0  0  0  0
   37.7870   24.4680   37.0980 N   0  0  0  0  0  0  0  0  0  0  0  0
   40.5730   23.1340   35.8260 H   0  0  0  0  0  0  0  0  0  0  0  0
   40.7190   22.2590   38.1570 H   0  0  0  0  0  0  0  0  0  0  0  0
   37.0970   24.2600   39.0180 H   0  0  0  0  0  0  0  0  0  0  0  0
  1  4  1  6  0  0  0
  1 22  1  0  0  0  0
  1  2  1  0  0  0  0
  2  5  1  0  0  0  0
  2  6  1  0  0  0  0
  3  7  1  6  0  0  0
  3  1  1  0  0  0  0
  3  2  1  0  0  0  0
  8  3  1  0  0  0  0
  9  8  1  0  0  0  0
 10 11  1  0  0  0  0
 10  9  2  0  0  0  0
 11 13  2  0  0  0  0
 12 17  1  0  0  0  0
 12 11  1  0  0  0  0
 13 14  1  0  0  0  0
 14  8  1  0  0  0  0
 14 15  2  0  0  0  0
 16 12  1  0  0  0  0
 18 25  1  0  0  0  0
 19 18  2  0  0  0  0
 19 23  1  0  0  0  0
 20 19  1  0  0  0  0
 21 20  2  0  0  0  0
 21 22  1  0  0  0  0
 22 18  1  0  0  0  0
 24 21  1  0  0  0  0
 25 26  2  0  0  0  0
 25 30  1  0  0  0  0
 26 27  1  0  0  0  0
 27 32  1  0  0  0  0
 27 28  2  0  0  0  0
 29 28  1  0  0  0  0
 29 33  1  0  0  0  0
 30 29  2  0  0  0  0
 31 26  1  0  0  0  0
M  END
>  <minimizedAffinity>
-5.08451843

>  <minimizedRMSD>
2.30531597

$$$$
