
 OpenBabel03262517123D

 36 40  0  0  1  0  0  0  0  0999 V2000
   37.6720   25.9530   33.5580 N   0  0  0  0  0  0  0  0  0  0  0  0
   37.0740   24.7710   33.2700 C   0  0  0  0  0  0  0  0  0  0  0  0
   37.1950   24.0970   32.0960 C   0  0  0  0  0  0  0  0  0  0  0  0
   37.9870   24.6450   31.0920 C   0  0  0  0  0  0  0  0  0  0  0  0
   38.1320   24.0620   29.9910 O   0  0  0  0  0  0  0  0  0  0  0  0
   38.6200   25.8260   31.3000 N   0  0  0  0  0  0  0  0  0  0  0  0
   38.4270   26.4040   32.5080 C   0  0  0  0  0  0  0  0  0  0  0  0
   39.0350   27.5220   32.6840 O   0  0  0  0  0  0  0  0  0  0  0  0
   36.4390   24.3370   34.0210 H   0  0  0  0  0  0  0  0  0  0  0  0
   36.6860   23.1560   31.9410 H   0  0  0  0  0  0  0  0  0  0  0  0
   39.0240   29.7800   27.2870 H   0  0  0  0  0  0  0  0  0  0  0  0
   38.8400   29.0830   28.0430 N   0  0  0  0  0  0  0  0  0  0  0  0
   37.6180   29.0130   28.6440 C   0  0  0  0  0  0  0  0  0  0  0  0
   37.6100   28.0500   29.5810 N   0  0  0  0  0  0  0  0  0  0  0  0
   38.8270   27.4780   29.6060 C   0  0  0  0  0  0  0  0  0  0  0  0
   39.4480   26.4560   30.3270 C   0  0  0  0  0  0  0  0  0  0  0  0
   40.7320   26.1360   30.0770 N   0  0  0  0  0  0  0  0  0  0  0  0
   41.4340   26.8030   29.1250 C   0  0  0  0  0  0  0  0  0  0  0  0
   40.8580   27.8020   28.4070 N   0  0  0  0  0  0  0  0  0  0  0  0
   39.5700   28.1340   28.6460 C   0  0  0  0  0  0  0  0  0  0  0  0
   38.1000   26.3600   36.0850 C   0  0  1  0  0  0  0  0  0  0  0  0
   38.9070   27.2670   35.2120 C   0  0  0  0  0  0  0  0  0  0  0  0
   37.6110   26.7180   34.7490 C   0  0  1  0  0  0  0  0  0  0  0  0
   37.5520   26.8340   36.9140 H   0  0  0  0  0  0  0  0  0  0  0  0
   39.8590   26.8080   34.8410 H   0  0  0  0  0  0  0  0  0  0  0  0
   39.0390   28.3330   35.4670 H   0  0  0  0  0  0  0  0  0  0  0  0
   36.8040   27.5000   34.6920 H   0  0  0  0  0  0  0  0  0  0  0  0
   38.6170   25.0160   36.4530 C   0  0  0  0  0  0  0  0  0  0  0  0
   38.0550   24.4380   37.5900 C   0  0  0  0  0  0  0  0  0  0  0  0
   38.5000   23.1830   37.9870 C   0  0  0  0  0  0  0  0  0  0  0  0
   39.4730   22.5830   37.2290 N   0  0  0  0  0  0  0  0  0  0  0  0
   39.9910   23.1930   36.1210 C   0  0  0  0  0  0  0  0  0  0  0  0
   39.5690   24.3970   35.7370 N   0  0  0  0  0  0  0  0  0  0  0  0
   37.2890   24.8860   38.2080 H   0  0  0  0  0  0  0  0  0  0  0  0
   38.1250   22.6580   38.8520 H   0  0  0  0  0  0  0  0  0  0  0  0
   40.7540   22.7230   35.5250 H   0  0  0  0  0  0  0  0  0  0  0  0
  1 23  1  0  0  0  0
  2  1  1  0  0  0  0
  2  9  1  0  0  0  0
  3  2  2  0  0  0  0
  4  6  1  0  0  0  0
  4  3  1  0  0  0  0
  5  4  2  0  0  0  0
  6  7  1  0  0  0  0
  7  8  2  0  0  0  0
  7  1  1  0  0  0  0
 10  3  1  0  0  0  0
 11 12  1  0  0  0  0
 12 13  1  0  0  0  0
 12 20  1  0  0  0  0
 13 14  2  0  0  0  0
 14 15  1  0  0  0  0
 15 16  1  0  0  0  0
 16  6  1  0  0  0  0
 17 16  2  0  0  0  0
 18 17  1  0  0  0  0
 19 20  1  0  0  0  0
 19 18  2  0  0  0  0
 20 15  2  0  0  0  0
 21 28  1  0  0  0  0
 21 24  1  1  0  0  0
 22 26  1  0  0  0  0
 22 21  1  0  0  0  0
 23 27  1  1  0  0  0
 23 22  1  0  0  0  0
 23 21  1  0  0  0  0
 25 22  1  0  0  0  0
 28 29  1  0  0  0  0
 29 30  2  0  0  0  0
 29 34  1  0  0  0  0
 30 35  1  0  0  0  0
 31 30  1  0  0  0  0
 32 31  2  0  0  0  0
 33 32  1  0  0  0  0
 33 28  2  0  0  0  0
 36 32  1  0  0  0  0
M  END
>  <minimizedAffinity>
-5.10244942

>  <minimizedRMSD>
1.71486998

$$$$
