
 OpenBabel03262519553D

 33 36  0  0  1  0  0  0  0  0999 V2000
   37.3110   21.5920   34.0160 C   0  0  1  0  0  0  0  0  0  0  0  0
   36.0690   21.2040   34.6910 C   0  0  0  0  0  0  0  0  0  0  0  0
   36.1050   21.1740   33.1900 C   0  0  2  0  0  0  0  0  0  0  0  0
   38.1490   20.8620   33.9800 H   0  0  0  0  0  0  0  0  0  0  0  0
   36.1150   20.2950   35.3000 H   0  0  0  0  0  0  0  0  0  0  0  0
   35.5210   22.0240   35.2260 H   0  0  0  0  0  0  0  0  0  0  0  0
   35.4560   21.9750   32.7400 H   0  0  0  0  0  0  0  0  0  0  0  0
   36.0980   19.9250   32.4860 N   0  0  0  0  0  0  0  0  0  0  0  0
   35.6190   18.7520   32.9350 C   0  0  0  0  0  3  0  0  0  0  0  0
   35.6550   17.5980   32.1820 C   0  0  0  0  0  3  0  0  0  0  0  0
   36.1980   17.6110   30.9110 C   0  0  0  0  0  0  0  0  0  0  0  0
   36.2500   16.4340   30.1110 N   0  0  0  0  0  0  0  0  0  0  0  0
   36.6730   18.7960   30.4810 N   0  0  0  0  0  0  0  0  0  0  0  0
   36.6190   19.9010   31.2450 C   0  0  0  0  0  0  0  0  0  0  0  0
   37.1220   20.8920   30.6350 O   0  0  0  0  0  0  0  0  0  0  0  0
   36.5390   15.4660   30.3650 H   0  0  0  0  0  0  0  0  0  0  0  0
   35.9450   16.6080   29.1350 H   0  0  0  0  0  0  0  0  0  0  0  0
   38.1680   23.9020   34.6160 C   0  0  0  0  0  0  0  0  0  0  0  0
   38.3660   25.1110   33.9700 C   0  0  0  0  0  0  0  0  0  0  0  0
   37.9570   24.8570   32.6940 N   0  0  0  0  0  0  0  0  0  0  0  0
   37.5600   23.6030   32.6320 C   0  0  0  0  0  0  0  0  0  0  0  0
   37.6740   22.9690   33.8060 N   0  0  0  0  0  0  0  0  0  0  0  0
   38.7640   26.0180   34.4400 H   0  0  0  0  0  0  0  0  0  0  0  0
   37.2100   23.2890   31.6560 H   0  0  0  0  0  0  0  0  0  0  0  0
   38.4620   23.6560   36.0290 C   0  0  0  0  0  0  0  0  0  0  0  0
   39.6330   23.0200   36.4140 C   0  0  0  0  0  0  0  0  0  0  0  0
   39.8970   22.7920   37.7730 C   0  0  0  0  0  0  0  0  0  0  0  0
   38.9590   23.2260   38.6510 N   0  0  0  0  0  0  0  0  0  0  0  0
   37.8240   23.8430   38.2670 C   0  0  0  0  0  0  0  0  0  0  0  0
   37.5810   24.0560   36.9630 N   0  0  0  0  0  0  0  0  0  0  0  0
   40.3560   22.6890   35.7020 H   0  0  0  0  0  0  0  0  0  0  0  0
   40.7730   22.3120   38.1320 H   0  0  0  0  0  0  0  0  0  0  0  0
   37.0750   24.1900   38.9460 H   0  0  0  0  0  0  0  0  0  0  0  0
  1  4  1  1  0  0  0
  1  2  1  0  0  0  0
  2  6  1  0  0  0  0
  2  5  1  0  0  0  0
  3  7  1  6  0  0  0
  3  1  1  0  0  0  0
  3  2  1  0  0  0  0
  8  9  1  0  0  0  0
  8  3  1  0  0  0  0
 10  9  2  0  0  0  0
 11 10  1  0  0  0  0
 12 16  1  0  0  0  0
 12 11  1  0  0  0  0
 13 11  2  0  0  0  0
 13 14  1  0  0  0  0
 14  8  1  0  0  0  0
 15 14  2  0  0  0  0
 17 12  1  0  0  0  0
 18 25  1  0  0  0  0
 19 23  1  0  0  0  0
 19 18  2  0  0  0  0
 20 19  1  0  0  0  0
 21 20  2  0  0  0  0
 21 22  1  0  0  0  0
 22  1  1  0  0  0  0
 22 18  1  0  0  0  0
 24 21  1  0  0  0  0
 25 26  2  0  0  0  0
 25 30  1  0  0  0  0
 26 27  1  0  0  0  0
 27 32  1  0  0  0  0
 27 28  2  0  0  0  0
 29 28  1  0  0  0  0
 29 33  1  0  0  0  0
 30 29  2  0  0  0  0
 31 26  1  0  0  0  0
M  END
>  <minimizedAffinity>
-5.09519434

>  <minimizedRMSD>
1.23835802

$$$$
