
 OpenBabel03262519563D

 33 36  0  0  1  0  0  0  0  0999 V2000
   38.8530   21.7330   33.8930 C   0  0  1  0  0  0  0  0  0  0  0  0
   37.5310   22.3620   33.9650 C   0  0  0  0  0  0  0  0  0  0  0  0
   38.1510   22.1560   32.6120 C   0  0  2  0  0  0  0  0  0  0  0  0
   38.9270   20.6310   34.0160 H   0  0  0  0  0  0  0  0  0  0  0  0
   36.7180   21.7340   34.3430 H   0  0  0  0  0  0  0  0  0  0  0  0
   37.4960   23.3870   34.4190 H   0  0  0  0  0  0  0  0  0  0  0  0
   38.4430   23.1320   32.1340 H   0  0  0  0  0  0  0  0  0  0  0  0
   37.6210   21.1760   31.7110 N   0  0  0  0  0  0  0  0  0  0  0  0
   36.4700   20.4970   31.8480 C   0  0  0  0  0  3  0  0  0  0  0  0
   36.0420   19.5680   30.9240 C   0  0  0  0  0  3  0  0  0  0  0  0
   36.8000   19.2990   29.8000 C   0  0  0  0  0  0  0  0  0  0  0  0
   36.3820   18.3460   28.8290 N   0  0  0  0  0  0  0  0  0  0  0  0
   37.9500   19.9920   29.6830 N   0  0  0  0  0  0  0  0  0  0  0  0
   38.3340   20.8900   30.6060 C   0  0  0  0  0  0  0  0  0  0  0  0
   39.4440   21.4130   30.2850 O   0  0  0  0  0  0  0  0  0  0  0  0
   36.0000   17.3850   28.9570 H   0  0  0  0  0  0  0  0  0  0  0  0
   36.4910   18.6960   27.8600 H   0  0  0  0  0  0  0  0  0  0  0  0
   40.4420   23.3040   35.0920 C   0  0  0  0  0  0  0  0  0  0  0  0
   41.7270   23.7890   34.9040 C   0  0  0  0  0  0  0  0  0  0  0  0
   42.1220   23.1890   33.7440 N   0  0  0  0  0  0  0  0  0  0  0  0
   41.1360   22.4290   33.3170 C   0  0  0  0  0  0  0  0  0  0  0  0
   40.0680   22.4700   34.1250 N   0  0  0  0  0  0  0  0  0  0  0  0
   42.2400   24.4880   35.5740 H   0  0  0  0  0  0  0  0  0  0  0  0
   41.3410   21.9000   32.3950 H   0  0  0  0  0  0  0  0  0  0  0  0
   39.5770   23.6580   36.2190 C   0  0  0  0  0  0  0  0  0  0  0  0
   39.5930   22.9160   37.3900 C   0  0  0  0  0  0  0  0  0  0  0  0
   38.7560   23.2690   38.4600 C   0  0  0  0  0  0  0  0  0  0  0  0
   37.9610   24.3510   38.2710 N   0  0  0  0  0  0  0  0  0  0  0  0
   37.9530   25.0660   37.1290 C   0  0  0  0  0  0  0  0  0  0  0  0
   38.7570   24.7190   36.1110 N   0  0  0  0  0  0  0  0  0  0  0  0
   40.2300   22.0680   37.5130 H   0  0  0  0  0  0  0  0  0  0  0  0
   38.7220   22.7440   39.3810 H   0  0  0  0  0  0  0  0  0  0  0  0
   37.3320   25.9200   36.9650 H   0  0  0  0  0  0  0  0  0  0  0  0
  1  2  1  0  0  0  0
  1  4  1  1  0  0  0
  1 22  1  0  0  0  0
  2  5  1  0  0  0  0
  2  6  1  0  0  0  0
  3  7  1  6  0  0  0
  3  1  1  0  0  0  0
  3  2  1  0  0  0  0
  8  9  1  0  0  0  0
  8  3  1  0  0  0  0
 10  9  2  0  0  0  0
 11 10  1  0  0  0  0
 12 16  1  0  0  0  0
 12 11  1  0  0  0  0
 13 11  2  0  0  0  0
 13 14  1  0  0  0  0
 14  8  1  0  0  0  0
 15 14  2  0  0  0  0
 17 12  1  0  0  0  0
 18 25  1  0  0  0  0
 19 18  2  0  0  0  0
 19 23  1  0  0  0  0
 20 19  1  0  0  0  0
 21 20  2  0  0  0  0
 21 22  1  0  0  0  0
 22 18  1  0  0  0  0
 24 21  1  0  0  0  0
 25 26  1  0  0  0  0
 26 31  1  0  0  0  0
 26 27  2  0  0  0  0
 27 32  1  0  0  0  0
 28 27  1  0  0  0  0
 29 28  2  0  0  0  0
 30 25  2  0  0  0  0
 30 29  1  0  0  0  0
 33 29  1  0  0  0  0
M  END
>  <minimizedAffinity>
-4.40596819

>  <minimizedRMSD>
2.93115902

$$$$
