
 OpenBabel03262519473D

 42 45  0  0  1  0  0  0  0  0999 V2000
   37.4200   25.9150   32.9230 N   0  0  0  0  0  0  0  0  0  0  0  0
   37.0030   24.8630   32.2140 C   0  0  0  0  0  0  0  0  0  0  0  0
   35.9330   25.1270   31.3950 C   0  0  0  0  0  0  0  0  0  0  0  0
   35.6740   26.4210   31.6120 N   0  0  0  0  0  0  0  0  0  0  0  0
   36.5670   26.9010   32.5310 C   0  0  0  0  0  0  0  0  0  0  0  0
   37.5120   23.8900   32.3180 H   0  0  0  0  0  0  0  0  0  0  0  0
   35.4940   24.3620   30.7640 H   0  0  0  0  0  0  0  0  0  0  0  0
   36.5050   28.3460   32.9240 C   0  0  1  0  0  0  0  0  0  0  0  0
   35.8770   29.2850   31.9690 C   0  0  0  0  0  0  0  0  0  0  0  0
   35.1460   28.9080   33.2360 C   0  0  2  0  0  0  0  0  0  0  0  0
   37.3790   28.6800   33.4690 H   0  0  0  0  0  0  0  0  0  0  0  0
   35.3620   28.8890   31.0450 H   0  0  0  0  0  0  0  0  0  0  0  0
   36.2420   30.3010   31.8120 H   0  0  0  0  0  0  0  0  0  0  0  0
   34.3210   28.1770   33.1870 H   0  0  0  0  0  0  0  0  0  0  0  0
   34.9370   30.0150   34.1030 N   0  0  0  0  0  0  0  0  0  0  0  0
   36.0210   30.2090   34.9140 C   0  0  0  0  0  0  0  0  0  0  0  0
   36.0400   31.2480   35.8540 C   0  0  0  0  0  0  0  0  0  0  0  0
   34.9360   32.0690   35.9390 C   0  0  0  0  0  0  0  0  0  0  0  0
   34.8300   33.1550   36.8450 N   0  0  0  0  0  0  0  0  0  0  0  0
   33.8980   31.8460   35.1270 N   0  0  0  0  0  0  0  0  0  0  0  0
   33.9100   30.8390   34.2350 C   0  0  0  0  0  0  0  0  0  0  0  0
   32.9640   30.6150   33.4760 O   0  0  0  0  0  0  0  0  0  0  0  0
   34.9240   34.1930   36.6400 H   0  0  0  0  0  0  0  0  0  0  0  0
   34.6370   32.6340   37.7470 H   0  0  0  0  0  0  0  0  0  0  0  0
   38.4360   26.1400   33.8780 C   0  0  0  0  0  0  0  0  0  0  0  0
   38.9400   27.1230   33.7020 H   0  0  0  0  0  0  0  0  0  0  0  0
   39.2420   25.3780   33.6900 H   0  0  0  0  0  0  0  0  0  0  0  0
   37.9550   26.0790   35.2800 C   0  0  1  0  0  0  0  0  0  0  0  0
   36.8390   25.9930   35.2890 H   0  0  0  0  0  0  0  0  0  0  0  0
   38.5250   23.4630   37.9570 C   0  0  0  0  0  0  0  0  0  0  0  0
   37.9370   24.5600   37.3130 C   0  0  0  0  0  0  0  0  0  0  0  0
   38.5050   24.9470   36.0560 C   0  0  0  0  0  0  0  0  0  0  0  0
   39.5820   24.2390   35.5460 N   0  0  0  0  0  0  0  0  0  0  0  0
   40.1030   23.2020   36.2010 C   0  0  0  0  0  0  0  0  0  0  0  0
   39.5680   22.8120   37.4200 N   0  0  0  0  0  0  0  0  0  0  0  0
   38.0900   23.1800   38.9050 H   0  0  0  0  0  0  0  0  0  0  0  0
   37.0980   25.1310   37.6870 H   0  0  0  0  0  0  0  0  0  0  0  0
   40.9400   22.6830   35.7650 H   0  0  0  0  0  0  0  0  0  0  0  0
   38.2400   27.3910   36.0040 C   0  0  0  0  0  0  0  0  0  0  0  0
   38.3960   27.1220   37.0700 H   0  0  0  0  0  0  0  0  0  0  0  0
   37.3770   28.0810   36.0080 H   0  0  0  0  0  0  0  0  0  0  0  0
   39.1900   27.8230   35.6570 H   0  0  0  0  0  0  0  0  0  0  0  0
  1 25  1  0  0  0  0
  2  6  1  0  0  0  0
  2  1  1  0  0  0  0
  3  4  1  0  0  0  0
  3  2  2  0  0  0  0
  4  5  2  0  0  0  0
  5  1  1  0  0  0  0
  5  8  1  0  0  0  0
  7  3  1  0  0  0  0
  8 10  1  0  0  0  0
  8 11  1  1  0  0  0
  9  8  1  0  0  0  0
  9 10  1  0  0  0  0
 10 14  1  6  0  0  0
 10 15  1  0  0  0  0
 12  9  1  0  0  0  0
 13  9  1  0  0  0  0
 15 21  1  0  0  0  0
 15 16  1  0  0  0  0
 16 17  2  0  0  0  0
 17 18  1  0  0  0  0
 18 19  1  0  0  0  0
 19 24  1  0  0  0  0
 20 18  2  0  0  0  0
 21 20  1  0  0  0  0
 22 21  2  0  0  0  0
 23 19  1  0  0  0  0
 25 28  1  0  0  0  0
 26 25  1  0  0  0  0
 27 25  1  0  0  0  0
 28 29  1  6  0  0  0
 28 39  1  0  0  0  0
 28 32  1  0  0  0  0
 30 36  1  0  0  0  0
 31 37  1  0  0  0  0
 31 30  2  0  0  0  0
 32 31  1  0  0  0  0
 33 32  2  0  0  0  0
 33 34  1  0  0  0  0
 34 35  2  0  0  0  0
 35 30  1  0  0  0  0
 38 34  1  0  0  0  0
 39 41  1  0  0  0  0
 39 40  1  0  0  0  0
 42 39  1  0  0  0  0
M  END
>  <minimizedAffinity>
-5.71178532

>  <minimizedRMSD>
1.46073687

$$$$
