
 OpenBabel03262519523D

 30 32  0  0  1  0  0  0  0  0999 V2000
   40.7960   23.9820   34.9260 C   0  0  0  0  0  0  0  0  0  0  0  0
   40.8500   24.6350   33.9730 H   0  0  0  0  0  0  0  0  0  0  0  0
   40.4550   23.0860   34.4860 H   0  0  0  0  0  0  0  0  0  0  0  0
   43.8880   23.5210   36.6700 C   0  0  0  0  0  0  0  0  0  0  0  0
   42.5660   23.2080   36.2370 C   0  0  0  0  0  0  0  0  0  0  0  0
   42.0870   24.1810   35.4570 C   0  0  0  0  0  0  0  0  0  0  0  0
   42.8180   25.3240   35.1370 N   0  0  0  0  0  0  0  0  0  0  0  0
   44.0380   25.5390   35.5770 C   0  0  0  0  0  0  0  0  0  0  0  0
   44.5840   24.6310   36.3520 N   0  0  0  0  0  0  0  0  0  0  0  0
   44.4650   22.8420   37.3270 H   0  0  0  0  0  0  0  0  0  0  0  0
   44.5250   26.4300   35.2920 H   0  0  0  0  0  0  0  0  0  0  0  0
   42.0540   21.9690   36.7050 C   0  0  0  0  0  0  0  0  0  0  0  0
   41.0740   22.1540   37.7140 F   0  0  0  0  0  0  0  0  0  0  0  0
   42.7570   21.1720   37.5290 F   0  0  0  0  0  0  0  0  0  0  0  0
   41.1550   21.2800   35.9070 F   0  0  0  0  0  0  0  0  0  0  0  0
   39.7410   24.6350   35.6800 C   0  0  0  0  0  0  0  0  0  0  0  0
   39.5850   25.7270   35.5300 H   0  0  0  0  0  0  0  0  0  0  0  0
   39.9810   24.5660   36.7820 H   0  0  0  0  0  0  0  0  0  0  0  0
   38.4480   23.8250   35.5080 C   0  0  2  0  0  0  0  0  0  0  0  0
   37.6530   23.6900   36.7640 C   0  0  0  0  0  0  0  0  0  0  0  0
   38.2450   22.5090   36.0370 C   0  0  1  0  0  0  0  0  0  0  0  0
   37.9180   24.1660   34.6050 H   0  0  0  0  0  0  0  0  0  0  0  0
   38.0310   24.1510   37.6540 H   0  0  0  0  0  0  0  0  0  0  0  0
   36.5460   23.9090   36.6450 H   0  0  0  0  0  0  0  0  0  0  0  0
   38.5990   21.8340   36.7230 H   0  0  0  0  0  0  0  0  0  0  0  0
   37.2060   21.7660   35.2640 N   0  0  0  0  0  0  0  0  0  0  0  0
   37.1590   21.6860   33.9010 C   0  0  0  0  0  0  0  0  0  0  0  0
   36.0690   20.9180   33.5570 C   0  0  0  0  0  0  0  0  0  0  0  0
   35.4570   20.5340   34.6670 N   0  0  0  0  0  0  0  0  0  0  0  0
   36.1420   21.0440   35.7020 C   0  0  0  0  0  0  0  0  0  0  0  0
  1  6  1  0  0  0  0
  1 16  1  0  0  0  0
  2  1  1  0  0  0  0
  3  1  1  0  0  0  0
  4 10  1  0  0  0  0
  5  4  2  0  0  0  0
  5 12  1  0  0  0  0
  6  5  1  0  0  0  0
  7  6  2  0  0  0  0
  7  8  1  0  0  0  0
  8  9  2  0  0  0  0
  9  4  1  0  0  0  0
 11  8  1  0  0  0  0
 12 14  1  0  0  0  0
 12 13  1  0  0  0  0
 15 12  1  0  0  0  0
 16 18  1  0  0  0  0
 17 16  1  0  0  0  0
 19 22  1  6  0  0  0
 19 16  1  0  0  0  0
 19 21  1  0  0  0  0
 19 20  1  0  0  0  0
 20 23  1  0  0  0  0
 21 25  1  1  0  0  0
 21 20  1  0  0  0  0
 24 20  1  0  0  0  0
 26 30  1  0  0  0  0
 26 21  1  0  0  0  0
 27 26  1  0  0  0  0
 28 27  2  0  0  0  0
 28 29  1  0  0  0  0
 29 30  2  0  0  0  0
M  END
>  <minimizedAffinity>
-4.22229767

>  <minimizedRMSD>
1.97580445

$$$$
