
 OpenBabel03262519593D

 31 34  0  0  1  0  0  0  0  0999 V2000
   38.3880   22.8320   34.7600 C   0  0  0  0  0  0  0  0  0  0  0  0
   37.4320   21.9460   34.2720 C   0  0  0  0  0  0  0  0  0  0  0  0
   37.6250   21.9870   32.9140 N   0  0  0  0  0  0  0  0  0  0  0  0
   38.6170   22.8370   32.6720 C   0  0  0  0  0  0  0  0  0  0  0  0
   39.1040   23.3690   33.7860 N   0  0  0  0  0  0  0  0  0  0  0  0
   36.7320   21.3910   34.9080 H   0  0  0  0  0  0  0  0  0  0  0  0
   38.8920   22.9810   31.6230 H   0  0  0  0  0  0  0  0  0  0  0  0
   38.5750   23.1370   36.1700 C   0  0  0  0  0  0  0  0  0  0  0  0
   37.6880   24.0240   36.8170 C   0  0  0  0  0  0  0  0  0  0  0  0
   37.9120   24.2810   38.1890 C   0  0  0  0  0  0  0  0  0  0  0  0
   38.9600   23.6590   38.7910 N   0  0  0  0  0  0  0  0  0  0  0  0
   39.7860   22.8130   38.1270 C   0  0  0  0  0  0  0  0  0  0  0  0
   39.6020   22.5470   36.8240 N   0  0  0  0  0  0  0  0  0  0  0  0
   36.8920   24.4610   36.2450 H   0  0  0  0  0  0  0  0  0  0  0  0
   37.2430   24.9550   38.6920 H   0  0  0  0  0  0  0  0  0  0  0  0
   40.5640   22.4050   38.7510 H   0  0  0  0  0  0  0  0  0  0  0  0
   40.1680   24.2980   33.7980 C   0  0  1  0  0  0  0  0  0  0  0  0
   40.7070   25.0080   32.6690 C   0  0  0  0  0  0  0  0  0  0  0  0
   39.7660   25.7270   33.6810 C   0  0  1  0  0  0  0  0  0  0  0  0
   40.9260   24.0700   34.6250 H   0  0  0  0  0  0  0  0  0  0  0  0
   41.7380   25.3870   32.6440 H   0  0  0  0  0  0  0  0  0  0  0  0
   40.2700   24.8570   31.6790 H   0  0  0  0  0  0  0  0  0  0  0  0
   38.6590   26.2830   32.8810 N   0  0  0  0  0  0  0  0  0  0  0  0
   37.4810   26.3120   33.5510 C   0  0  0  0  0  3  0  0  0  0  0  0
   36.5560   26.8590   32.6580 C   0  0  0  0  0  3  0  0  0  0  0  0
   37.2160   27.1230   31.5240 N   0  0  0  0  0  0  0  0  0  0  0  0
   38.4970   26.7800   31.6390 C   0  0  0  0  0  3  0  0  0  0  0  0
   40.5360   26.7340   34.5130 C   0  0  0  0  0  0  0  0  0  0  0  0
   39.7570   27.1620   35.5700 F   0  0  0  0  0  0  0  0  0  0  0  0
   41.6400   26.0380   35.1550 F   0  0  0  0  0  0  0  0  0  0  0  0
   41.0820   27.7290   33.7980 F   0  0  0  0  0  0  0  0  0  0  0  0
  1  8  1  0  0  0  0
  2  1  2  0  0  0  0
  2  6  1  0  0  0  0
  3  2  1  0  0  0  0
  4  3  2  0  0  0  0
  4  5  1  0  0  0  0
  5 17  1  0  0  0  0
  5  1  1  0  0  0  0
  7  4  1  0  0  0  0
  8  9  2  0  0  0  0
  8 13  1  0  0  0  0
  9 10  1  0  0  0  0
 10 15  1  0  0  0  0
 10 11  2  0  0  0  0
 12 16  1  0  0  0  0
 12 11  1  0  0  0  0
 13 12  2  0  0  0  0
 14  9  1  0  0  0  0
 17 20  1  1  0  0  0
 18 19  1  0  0  0  0
 18 17  1  0  0  0  0
 19 17  1  0  0  0  0
 19 28  1  1  0  0  0
 21 18  1  0  0  0  0
 22 18  1  0  0  0  0
 23 24  1  0  0  0  0
 23 19  1  0  0  0  0
 25 24  2  0  0  0  0
 26 27  2  0  0  0  0
 26 25  1  0  0  0  0
 27 23  1  0  0  0  0
 28 30  1  0  0  0  0
 28 29  1  0  0  0  0
 31 28  1  0  0  0  0
M  END
>  <minimizedAffinity>
-4.99964285

>  <minimizedRMSD>
5.13506126

$$$$
