
 OpenBabel03262519593D

 31 34  0  0  1  0  0  0  0  0999 V2000
   39.6080   23.0940   32.6620 C   0  0  0  0  0  0  0  0  0  0  0  0
   39.2570   21.7900   32.3260 C   0  0  0  0  0  0  0  0  0  0  0  0
   37.9060   21.7530   32.5660 N   0  0  0  0  0  0  0  0  0  0  0  0
   37.5410   22.9520   33.0050 C   0  0  0  0  0  0  0  0  0  0  0  0
   38.5640   23.7940   33.0730 N   0  0  0  0  0  0  0  0  0  0  0  0
   39.9690   21.0400   31.9610 H   0  0  0  0  0  0  0  0  0  0  0  0
   36.4810   23.0830   33.2450 H   0  0  0  0  0  0  0  0  0  0  0  0
   40.9610   23.6230   32.5790 C   0  0  0  0  0  0  0  0  0  0  0  0
   41.8600   23.4150   33.6460 C   0  0  0  0  0  0  0  0  0  0  0  0
   43.1630   23.9450   33.5110 C   0  0  0  0  0  0  0  0  0  0  0  0
   43.4620   24.6160   32.3670 N   0  0  0  0  0  0  0  0  0  0  0  0
   42.5640   24.7910   31.3670 C   0  0  0  0  0  0  0  0  0  0  0  0
   41.3170   24.3000   31.4630 N   0  0  0  0  0  0  0  0  0  0  0  0
   41.5190   22.8690   34.5060 H   0  0  0  0  0  0  0  0  0  0  0  0
   43.8570   23.7930   34.3170 H   0  0  0  0  0  0  0  0  0  0  0  0
   42.9610   25.3440   30.5320 H   0  0  0  0  0  0  0  0  0  0  0  0
   38.4360   25.1330   33.5050 C   0  0  1  0  0  0  0  0  0  0  0  0
   37.4790   25.6480   34.4490 C   0  0  0  0  0  0  0  0  0  0  0  0
   38.9610   25.4140   34.8710 C   0  0  1  0  0  0  0  0  0  0  0  0
   38.7570   25.8770   32.6960 H   0  0  0  0  0  0  0  0  0  0  0  0
   37.1570   26.6980   34.4520 H   0  0  0  0  0  0  0  0  0  0  0  0
   36.7660   24.9670   34.9190 H   0  0  0  0  0  0  0  0  0  0  0  0
   38.9120   24.5290   36.0490 N   0  0  0  0  0  0  0  0  0  0  0  0
   37.9910   24.9150   36.9650 C   0  0  0  0  0  3  0  0  0  0  0  0
   38.0770   23.9790   38.0000 C   0  0  0  0  0  3  0  0  0  0  0  0
   39.0250   23.1000   37.6540 N   0  0  0  0  0  0  0  0  0  0  0  0
   39.5460   23.4160   36.4700 C   0  0  0  0  0  3  0  0  0  0  0  0
   39.6780   26.7330   35.0790 C   0  0  0  0  0  0  0  0  0  0  0  0
   41.0180   26.5050   35.3260 F   0  0  0  0  0  0  0  0  0  0  0  0
   39.6760   27.4520   33.8150 F   0  0  0  0  0  0  0  0  0  0  0  0
   39.0870   27.5410   35.9730 F   0  0  0  0  0  0  0  0  0  0  0  0
  1  5  1  0  0  0  0
  2  3  1  0  0  0  0
  2  1  2  0  0  0  0
  3  4  2  0  0  0  0
  4  5  1  0  0  0  0
  4  7  1  0  0  0  0
  5 17  1  0  0  0  0
  6  2  1  0  0  0  0
  8  1  1  0  0  0  0
  8  9  1  0  0  0  0
  9 14  1  0  0  0  0
 10  9  2  0  0  0  0
 10 15  1  0  0  0  0
 11 10  1  0  0  0  0
 12 13  1  0  0  0  0
 12 11  2  0  0  0  0
 13  8  2  0  0  0  0
 16 12  1  0  0  0  0
 17 20  1  6  0  0  0
 17 18  1  0  0  0  0
 17 19  1  0  0  0  0
 18 21  1  0  0  0  0
 18 19  1  0  0  0  0
 18 22  1  0  0  0  0
 19 28  1  1  0  0  0
 19 23  1  0  0  0  0
 23 27  1  0  0  0  0
 23 24  1  0  0  0  0
 24 25  2  0  0  0  0
 26 25  1  0  0  0  0
 27 26  2  0  0  0  0
 28 29  1  0  0  0  0
 28 31  1  0  0  0  0
 30 28  1  0  0  0  0
M  END
>  <minimizedAffinity>
-4.21447659

>  <minimizedRMSD>
4.06145573

$$$$
