
 OpenBabel03262519403D

 37 40  0  0  1  0  0  0  0  0999 V2000
   37.7870   25.2000   34.4210 N   0  0  0  0  0  0  0  0  0  0  0  0
   37.4700   25.3880   33.0210 C   0  0  0  0  0  0  0  0  0  0  0  0
   37.6870   26.8370   32.7500 C   0  0  0  0  0  0  0  0  0  0  0  0
   38.1750   27.3940   34.0770 C   0  0  0  0  0  0  0  0  0  0  0  0
   38.8550   26.1190   34.6490 C   0  0  2  0  0  0  0  0  0  0  0  0
   38.0070   24.7090   32.3390 H   0  0  0  0  0  0  0  0  0  0  0  0
   36.3900   25.1760   32.8900 H   0  0  0  0  0  0  0  0  0  0  0  0
   38.5190   26.9780   32.0310 H   0  0  0  0  0  0  0  0  0  0  0  0
   36.7530   27.3710   32.4350 H   0  0  0  0  0  0  0  0  0  0  0  0
   37.3700   27.6700   34.7660 H   0  0  0  0  0  0  0  0  0  0  0  0
   38.9610   28.1620   33.9570 H   0  0  0  0  0  0  0  0  0  0  0  0
   39.1290   26.3390   35.6940 H   0  0  0  0  0  0  0  0  0  0  0  0
   38.2880   23.8800   34.6790 C   0  0  0  0  0  0  0  0  0  0  0  0
   39.2030   23.6510   34.0950 H   0  0  0  0  0  0  0  0  0  0  0  0
   37.4890   23.1610   34.4030 H   0  0  0  0  0  0  0  0  0  0  0  0
   37.8670   23.8320   38.4460 C   0  0  0  0  0  0  0  0  0  0  0  0
   37.5790   24.0660   37.1030 C   0  0  0  0  0  0  0  0  0  0  0  0
   38.5330   23.6600   36.1400 C   0  0  0  0  0  0  0  0  0  0  0  0
   39.6740   23.0670   36.6000 N   0  0  0  0  0  0  0  0  0  0  0  0
   39.8930   22.8690   37.9110 C   0  0  0  0  0  0  0  0  0  0  0  0
   38.9880   23.2540   38.8160 N   0  0  0  0  0  0  0  0  0  0  0  0
   37.1650   24.1260   39.2150 H   0  0  0  0  0  0  0  0  0  0  0  0
   36.6650   24.5390   36.7860 H   0  0  0  0  0  0  0  0  0  0  0  0
   40.8550   22.3860   38.0370 H   0  0  0  0  0  0  0  0  0  0  0  0
   39.9930   25.7910   33.9640 O   0  0  0  0  0  0  0  0  0  0  0  0
   41.1480   26.2790   34.5220 C   0  0  2  0  0  0  0  0  0  0  0  0
   41.9110   27.2680   33.6970 C   0  0  0  0  0  0  0  0  0  0  0  0
   42.4830   25.9010   33.9520 C   0  0  1  0  0  0  0  0  0  0  0  0
   41.1320   26.3040   35.6140 H   0  0  0  0  0  0  0  0  0  0  0  0
   41.6090   27.4310   32.6320 H   0  0  0  0  0  0  0  0  0  0  0  0
   42.4800   28.0850   34.1840 H   0  0  0  0  0  0  0  0  0  0  0  0
   42.4810   25.1380   33.1550 H   0  0  0  0  0  0  0  0  0  0  0  0
   43.5460   25.7760   34.9230 N   0  0  0  0  0  0  0  0  0  0  0  0
   43.6020   25.0360   36.0270 C   0  0  0  0  0  0  0  0  0  0  0  0
   44.8380   25.2520   36.6370 C   0  0  0  0  0  0  0  0  0  0  0  0
   45.5280   26.1400   35.8750 N   0  0  0  0  0  0  0  0  0  0  0  0
   44.7290   26.4500   34.8340 C   0  0  0  0  0  0  0  0  0  0  0  0
  1  5  1  0  0  0  0
  1 13  1  0  0  0  0
  2  1  1  0  0  0  0
  3  2  1  0  0  0  0
  3  4  1  0  0  0  0
  4  5  1  0  0  0  0
  4 10  1  0  0  0  0
  5 12  1  1  0  0  0
  6  2  1  0  0  0  0
  7  2  1  0  0  0  0
  8  3  1  0  0  0  0
  9  3  1  0  0  0  0
 11  4  1  0  0  0  0
 13 18  1  0  0  0  0
 14 13  1  0  0  0  0
 15 13  1  0  0  0  0
 16 21  1  0  0  0  0
 16 22  1  0  0  0  0
 17 16  2  0  0  0  0
 18 19  2  0  0  0  0
 18 17  1  0  0  0  0
 19 20  1  0  0  0  0
 20 24  1  0  0  0  0
 20 21  2  0  0  0  0
 23 17  1  0  0  0  0
 25 26  1  0  0  0  0
 25  5  1  0  0  0  0
 26 29  1  1  0  0  0
 27 28  1  0  0  0  0
 27 31  1  0  0  0  0
 27 26  1  0  0  0  0
 28 32  1  6  0  0  0
 28 26  1  0  0  0  0
 28 33  1  0  0  0  0
 30 27  1  0  0  0  0
 33 34  1  0  0  0  0
 34 35  2  0  0  0  0
 36 35  1  0  0  0  0
 37 33  1  0  0  0  0
 37 36  2  0  0  0  0
M  END
>  <minimizedAffinity>
-4.50028849

>  <minimizedRMSD>
0.992877841

$$$$
