
 OpenBabel03262519563D

 28 31  0  0  1  0  0  0  0  0999 V2000
   38.1740   23.8750   34.4690 C   0  0  0  0  0  0  0  0  0  0  0  0
   38.3710   25.1020   33.8410 C   0  0  0  0  0  0  0  0  0  0  0  0
   37.9620   24.8800   32.5560 N   0  0  0  0  0  0  0  0  0  0  0  0
   37.5600   23.6110   32.4680 C   0  0  0  0  0  0  0  0  0  0  0  0
   37.6800   22.9590   33.6460 N   0  0  0  0  0  0  0  0  0  0  0  0
   38.7500   26.0260   34.2270 H   0  0  0  0  0  0  0  0  0  0  0  0
   37.1760   23.1500   31.5450 H   0  0  0  0  0  0  0  0  0  0  0  0
   38.4710   23.6140   35.8750 C   0  0  0  0  0  0  0  0  0  0  0  0
   39.6860   23.0190   36.2480 C   0  0  0  0  0  0  0  0  0  0  0  0
   39.9300   22.7860   37.6080 C   0  0  0  0  0  0  0  0  0  0  0  0
   38.9860   23.1450   38.4860 N   0  0  0  0  0  0  0  0  0  0  0  0
   37.8150   23.7200   38.1100 C   0  0  0  0  0  0  0  0  0  0  0  0
   37.5460   23.9590   36.8040 N   0  0  0  0  0  0  0  0  0  0  0  0
   40.3660   22.7770   35.4360 H   0  0  0  0  0  0  0  0  0  0  0  0
   40.8750   22.3280   37.8630 H   0  0  0  0  0  0  0  0  0  0  0  0
   37.1100   23.9750   38.9040 H   0  0  0  0  0  0  0  0  0  0  0  0
   37.3260   21.5880   33.8500 C   0  0  1  0  0  0  0  0  0  0  0  0
   36.1970   21.1600   34.6550 C   0  0  0  0  0  0  0  0  0  0  0  0
   36.0060   21.2160   33.1630 C   0  0  2  0  0  0  0  0  0  0  0  0
   38.1860   20.8930   33.7260 H   0  0  0  0  0  0  0  0  0  0  0  0
   35.6370   21.9530   35.2280 H   0  0  0  0  0  0  0  0  0  0  0  0
   36.2210   20.2000   35.2010 H   0  0  0  0  0  0  0  0  0  0  0  0
   35.3820   22.0080   32.7220 H   0  0  0  0  0  0  0  0  0  0  0  0
   36.0280   19.9240   32.5090 N   0  0  0  0  0  0  0  0  0  0  0  0
   36.6670   19.6700   31.3480 C   0  0  0  0  0  3  0  0  0  0  0  0
   36.4880   18.3430   31.0020 C   0  0  0  0  0  3  0  0  0  0  0  0
   35.7280   17.8340   31.9970 N   0  0  0  0  0  0  0  0  0  0  0  0
   35.4470   18.7800   32.9080 C   0  0  0  0  0  3  0  0  0  0  0  0
  1  8  1  0  0  0  0
  2  6  1  0  0  0  0
  2  1  2  0  0  0  0
  3  2  1  0  0  0  0
  4  3  2  0  0  0  0
  4  5  1  0  0  0  0
  5 17  1  0  0  0  0
  5  1  1  0  0  0  0
  7  4  1  0  0  0  0
  8  9  2  0  0  0  0
  8 13  1  0  0  0  0
  9 10  1  0  0  0  0
 10 15  1  0  0  0  0
 10 11  2  0  0  0  0
 12 11  1  0  0  0  0
 12 16  1  0  0  0  0
 13 12  2  0  0  0  0
 14  9  1  0  0  0  0
 17 20  1  6  0  0  0
 17 18  1  0  0  0  0
 18 22  1  0  0  0  0
 18 21  1  0  0  0  0
 19 23  1  6  0  0  0
 19 17  1  0  0  0  0
 19 18  1  0  0  0  0
 24 28  1  0  0  0  0
 24 19  1  0  0  0  0
 25 24  1  0  0  0  0
 26 25  2  0  0  0  0
 26 27  1  0  0  0  0
 27 28  2  0  0  0  0
M  END
>  <minimizedAffinity>
-4.50551462

>  <minimizedRMSD>
0.815288424

$$$$
