
 OpenBabel03262519553D

 28 31  0  0  1  0  0  0  0  0999 V2000
   38.1040   23.7360   34.4870 C   0  0  0  0  0  0  0  0  0  0  0  0
   38.3030   24.9330   33.8050 C   0  0  0  0  0  0  0  0  0  0  0  0
   37.8580   24.6670   32.5410 N   0  0  0  0  0  0  0  0  0  0  0  0
   37.4350   23.4030   32.5150 C   0  0  0  0  0  0  0  0  0  0  0  0
   37.5750   22.7960   33.7140 N   0  0  0  0  0  0  0  0  0  0  0  0
   38.7060   25.8660   34.1450 H   0  0  0  0  0  0  0  0  0  0  0  0
   37.0210   22.9120   31.6200 H   0  0  0  0  0  0  0  0  0  0  0  0
   38.4320   23.5270   35.8940 C   0  0  0  0  0  0  0  0  0  0  0  0
   39.6540   22.9380   36.2610 C   0  0  0  0  0  0  0  0  0  0  0  0
   39.9280   22.7550   37.6230 C   0  0  0  0  0  0  0  0  0  0  0  0
   39.0080   23.1530   38.5080 N   0  0  0  0  0  0  0  0  0  0  0  0
   37.8300   23.7200   38.1390 C   0  0  0  0  0  0  0  0  0  0  0  0
   37.5320   23.9120   36.8310 N   0  0  0  0  0  0  0  0  0  0  0  0
   40.3120   22.6610   35.4430 H   0  0  0  0  0  0  0  0  0  0  0  0
   40.8770   22.3000   37.8730 H   0  0  0  0  0  0  0  0  0  0  0  0
   37.1460   24.0100   38.9390 H   0  0  0  0  0  0  0  0  0  0  0  0
   37.2060   21.4410   33.9820 C   0  0  1  0  0  0  0  0  0  0  0  0
   36.0020   21.0600   34.6960 C   0  0  0  0  0  0  0  0  0  0  0  0
   35.9650   21.0050   33.1920 C   0  0  2  0  0  0  0  0  0  0  0  0
   38.0760   20.7470   33.9990 H   0  0  0  0  0  0  0  0  0  0  0  0
   35.3820   21.8880   35.1470 H   0  0  0  0  0  0  0  0  0  0  0  0
   35.9710   20.1440   35.3110 H   0  0  0  0  0  0  0  0  0  0  0  0
   35.3870   21.7560   32.6310 H   0  0  0  0  0  0  0  0  0  0  0  0
   36.0580   19.6680   32.6410 N   0  0  0  0  0  0  0  0  0  0  0  0
   36.9620   19.2900   31.7140 C   0  0  0  0  0  3  0  0  0  0  0  0
   36.7780   17.9530   31.4070 C   0  0  0  0  0  3  0  0  0  0  0  0
   35.7410   17.5690   32.1840 N   0  0  0  0  0  0  0  0  0  0  0  0
   35.3020   18.5960   32.9300 C   0  0  0  0  0  3  0  0  0  0  0  0
  1  8  1  0  0  0  0
  2  6  1  0  0  0  0
  2  1  2  0  0  0  0
  3  2  1  0  0  0  0
  4  3  2  0  0  0  0
  4  5  1  0  0  0  0
  5 17  1  0  0  0  0
  5  1  1  0  0  0  0
  7  4  1  0  0  0  0
  8  9  2  0  0  0  0
  8 13  1  0  0  0  0
  9 10  1  0  0  0  0
 10 15  1  0  0  0  0
 10 11  2  0  0  0  0
 12 11  1  0  0  0  0
 12 16  1  0  0  0  0
 13 12  2  0  0  0  0
 14  9  1  0  0  0  0
 17 20  1  1  0  0  0
 17 18  1  0  0  0  0
 18 21  1  0  0  0  0
 18 22  1  0  0  0  0
 19 23  1  6  0  0  0
 19 17  1  0  0  0  0
 19 18  1  0  0  0  0
 24 28  1  0  0  0  0
 24 19  1  0  0  0  0
 25 24  1  0  0  0  0
 26 25  2  0  0  0  0
 26 27  1  0  0  0  0
 27 28  2  0  0  0  0
M  END
>  <minimizedAffinity>
-4.54610109

>  <minimizedRMSD>
0.64444685

$$$$
