
 OpenBabel03262519553D

 28 31  0  0  1  0  0  0  0  0999 V2000
   38.1050   23.7390   34.4910 C   0  0  0  0  0  0  0  0  0  0  0  0
   38.3050   24.9360   33.8100 C   0  0  0  0  0  0  0  0  0  0  0  0
   37.8600   24.6700   32.5450 N   0  0  0  0  0  0  0  0  0  0  0  0
   37.4360   23.4060   32.5180 C   0  0  0  0  0  0  0  0  0  0  0  0
   37.5770   22.7990   33.7170 N   0  0  0  0  0  0  0  0  0  0  0  0
   38.7080   25.8680   34.1490 H   0  0  0  0  0  0  0  0  0  0  0  0
   37.0220   22.9150   31.6240 H   0  0  0  0  0  0  0  0  0  0  0  0
   38.4330   23.5290   35.8980 C   0  0  0  0  0  0  0  0  0  0  0  0
   39.6530   22.9380   36.2640 C   0  0  0  0  0  0  0  0  0  0  0  0
   39.9280   22.7540   37.6260 C   0  0  0  0  0  0  0  0  0  0  0  0
   39.0080   23.1540   38.5120 N   0  0  0  0  0  0  0  0  0  0  0  0
   37.8320   23.7240   38.1430 C   0  0  0  0  0  0  0  0  0  0  0  0
   37.5340   23.9160   36.8350 N   0  0  0  0  0  0  0  0  0  0  0  0
   40.3110   22.6590   35.4460 H   0  0  0  0  0  0  0  0  0  0  0  0
   40.8750   22.2970   37.8770 H   0  0  0  0  0  0  0  0  0  0  0  0
   37.1480   24.0150   38.9420 H   0  0  0  0  0  0  0  0  0  0  0  0
   37.2070   21.4430   33.9850 C   0  0  1  0  0  0  0  0  0  0  0  0
   36.0020   21.0630   34.6980 C   0  0  0  0  0  0  0  0  0  0  0  0
   35.9670   21.0080   33.1950 C   0  0  2  0  0  0  0  0  0  0  0  0
   38.0770   20.7500   34.0010 H   0  0  0  0  0  0  0  0  0  0  0  0
   35.3830   21.8900   35.1500 H   0  0  0  0  0  0  0  0  0  0  0  0
   35.9720   20.1460   35.3130 H   0  0  0  0  0  0  0  0  0  0  0  0
   35.3890   21.7590   32.6340 H   0  0  0  0  0  0  0  0  0  0  0  0
   36.0590   19.6720   32.6430 N   0  0  0  0  0  0  0  0  0  0  0  0
   36.9640   19.2930   31.7160 C   0  0  0  0  0  3  0  0  0  0  0  0
   36.7800   17.9570   31.4090 C   0  0  0  0  0  3  0  0  0  0  0  0
   35.7420   17.5720   32.1850 N   0  0  0  0  0  0  0  0  0  0  0  0
   35.3030   18.5990   32.9300 C   0  0  0  0  0  3  0  0  0  0  0  0
  1  8  1  0  0  0  0
  2  6  1  0  0  0  0
  2  1  2  0  0  0  0
  3  2  1  0  0  0  0
  4  3  2  0  0  0  0
  4  5  1  0  0  0  0
  5 17  1  0  0  0  0
  5  1  1  0  0  0  0
  7  4  1  0  0  0  0
  8  9  2  0  0  0  0
  8 13  1  0  0  0  0
  9 10  1  0  0  0  0
 10 15  1  0  0  0  0
 10 11  2  0  0  0  0
 12 11  1  0  0  0  0
 12 16  1  0  0  0  0
 13 12  2  0  0  0  0
 14  9  1  0  0  0  0
 17 20  1  1  0  0  0
 17 18  1  0  0  0  0
 18 21  1  0  0  0  0
 18 22  1  0  0  0  0
 19 23  1  6  0  0  0
 19 17  1  0  0  0  0
 19 18  1  0  0  0  0
 24 28  1  0  0  0  0
 24 19  1  0  0  0  0
 25 24  1  0  0  0  0
 26 25  2  0  0  0  0
 26 27  1  0  0  0  0
 27 28  2  0  0  0  0
M  END
>  <minimizedAffinity>
-4.5465517

>  <minimizedRMSD>
0.673778355

$$$$
