
 OpenBabel03262517273D

 47 50  0  0  0  0  0  0  0  0999 V2000
   37.8540   26.5770   31.3400 N   0  0  0  0  0  0  0  0  0  0  0  0
   36.6350   27.1300   31.0420 C   0  0  0  0  0  0  0  0  0  0  0  0
   36.8760   28.1210   30.0870 C   0  0  0  0  0  0  0  0  0  0  0  0
   38.1940   28.1480   29.8350 N   0  0  0  0  0  0  0  0  0  0  0  0
   38.8110   27.2040   30.5980 C   0  0  0  0  0  0  0  0  0  0  0  0
   35.7520   26.7750   31.5210 H   0  0  0  0  0  0  0  0  0  0  0  0
   36.0620   28.6910   29.7020 H   0  0  0  0  0  0  0  0  0  0  0  0
   38.7530   24.2830   33.9190 N   0  0  0  0  0  0  0  0  0  0  0  0
   38.8710   23.5640   32.8040 N   0  0  0  0  0  0  0  0  0  0  0  0
   38.5640   24.2980   31.7370 C   0  0  0  0  0  0  0  0  0  0  0  0
   38.2340   25.5520   32.2200 C   0  0  0  0  0  0  0  0  0  0  0  0
   38.3510   25.5510   33.6070 C   0  0  0  0  0  0  0  0  0  0  0  0
   38.5950   23.9020   30.7400 H   0  0  0  0  0  0  0  0  0  0  0  0
   37.9180   23.6380   36.1020 C   0  0  0  0  0  0  0  0  0  0  0  0
   39.0040   23.8050   35.2290 C   0  0  0  0  0  0  0  0  0  0  0  0
   40.2900   23.5090   35.6360 C   0  0  0  0  0  0  0  0  0  0  0  0
   40.4310   23.0540   36.9190 N   0  0  0  0  0  0  0  0  0  0  0  0
   39.3960   22.8940   37.7540 C   0  0  0  0  0  0  0  0  0  0  0  0
   38.1290   23.1870   37.3470 N   0  0  0  0  0  0  0  0  0  0  0  0
   36.9070   23.8650   35.7990 H   0  0  0  0  0  0  0  0  0  0  0  0
   41.1340   23.6260   34.9940 H   0  0  0  0  0  0  0  0  0  0  0  0
   39.6490   22.5250   38.7470 H   0  0  0  0  0  0  0  0  0  0  0  0
   38.0970   26.6500   34.4410 N   0  0  0  0  0  0  0  0  0  0  0  0
   39.0430   27.1290   35.3960 C   0  0  0  0  0  0  0  0  0  0  0  0
   40.3110   27.0740   35.0040 N   0  0  0  0  0  0  0  0  0  0  0  0
   38.5600   27.6100   36.6460 N   0  0  0  0  0  0  0  0  0  0  0  0
   40.9870   27.4460   35.7070 H   0  0  0  0  0  0  0  0  0  0  0  0
   37.1550   27.1340   34.3470 H   0  0  0  0  0  0  0  0  0  0  0  0
   37.6570   28.1350   36.6220 H   0  0  0  0  0  0  0  0  0  0  0  0
   39.0400   27.4710   37.5660 H   0  0  0  0  0  0  0  0  0  0  0  0
   40.2910   27.0960   30.4460 C   0  0  0  0  0  0  0  0  0  0  0  0
   40.6630   25.9900   29.4590 C   0  0  0  0  0  0  0  0  0  0  0  0
   40.8910   25.0410   30.0320 H   0  0  0  0  0  0  0  0  0  0  0  0
   41.5760   26.1870   28.8930 H   0  0  0  0  0  0  0  0  0  0  0  0
   39.7930   25.8580   28.7890 H   0  0  0  0  0  0  0  0  0  0  0  0
   41.0450   26.8270   31.6890 C   0  0  0  0  0  0  0  0  0  0  0  0
   42.1110   26.8890   31.4380 H   0  0  0  0  0  0  0  0  0  0  0  0
   40.8290   25.8180   32.0370 H   0  0  0  0  0  0  0  0  0  0  0  0
   40.8440   27.6240   32.4420 H   0  0  0  0  0  0  0  0  0  0  0  0
   40.7360   28.3870   29.7660 C   0  0  0  0  0  0  0  0  0  0  0  0
   40.4090   28.3350   28.6950 H   0  0  0  0  0  0  0  0  0  0  0  0
   40.1420   29.2380   30.1800 H   0  0  0  0  0  0  0  0  0  0  0  0
   42.1290   28.6740   29.8450 C   0  0  0  0  0  0  0  0  0  0  0  0
   42.8220   29.3790   30.7760 C   0  0  0  0  0  0  0  0  0  0  0  0
   44.1590   29.5630   30.7050 C   0  0  0  0  0  0  0  0  0  0  0  0
   44.8320   28.9970   29.6230 C   0  0  0  0  0  0  0  0  0  0  0  0
   43.4580   28.1440   28.6410 S   0  0  0  0  0  0  0  0  0  0  0  0
  1 11  1  0  0  0  0
  2  1  1  0  0  0  0
  2  6  1  0  0  0  0
  3  2  2  0  0  0  0
  4  3  1  0  0  0  0
  4  5  2  0  0  0  0
  5  1  1  0  0  0  0
  7  3  1  0  0  0  0
  8 15  1  0  0  0  0
  9  8  1  0  0  0  0
 10 11  1  0  0  0  0
 10  9  2  0  0  0  0
 11 12  2  0  0  0  0
 12  8  1  0  0  0  0
 12 23  1  0  0  0  0
 13 10  1  0  0  0  0
 14 19  1  0  0  0  0
 15 16  1  0  0  0  0
 15 14  2  0  0  0  0
 16 17  2  0  0  0  0
 17 18  1  0  0  0  0
 18 22  1  0  0  0  0
 19 18  2  0  0  0  0
 20 14  1  0  0  0  0
 21 16  1  0  0  0  0
 23 24  1  0  0  0  0
 24 26  1  0  0  0  0
 25 24  2  0  0  0  0
 25 27  1  0  0  0  0
 26 30  1  0  0  0  0
 28 23  1  0  0  0  0
 29 26  1  0  0  0  0
 31  5  1  0  0  0  0
 31 36  1  0  0  0  0
 32 33  1  0  0  0  0
 32 31  1  0  0  0  0
 34 32  1  0  0  0  0
 35 32  1  0  0  0  0
 36 38  1  0  0  0  0
 36 39  1  0  0  0  0
 37 36  1  0  0  0  0
 40 43  1  0  0  0  0
 40 42  1  0  0  0  0
 40 31  1  0  0  0  0
 41 40  1  0  0  0  0
 43 44  2  0  0  0  0
 45 44  1  0  0  0  0
 46 45  2  0  0  0  0
 47 46  1  0  0  0  0
 47 43  1  0  0  0  0
M  END
>  <minimizedAffinity>
-4.82126951

>  <minimizedRMSD>
0.456736058

$$$$
