
 OpenBabel03262519553D

 28 31  0  0  1  0  0  0  0  0999 V2000
   38.1730   23.8890   34.4700 C   0  0  0  0  0  0  0  0  0  0  0  0
   38.3650   25.1180   33.8450 C   0  0  0  0  0  0  0  0  0  0  0  0
   37.9570   24.8980   32.5600 N   0  0  0  0  0  0  0  0  0  0  0  0
   37.5600   23.6280   32.4680 C   0  0  0  0  0  0  0  0  0  0  0  0
   37.6830   22.9730   33.6440 N   0  0  0  0  0  0  0  0  0  0  0  0
   38.7410   26.0420   34.2340 H   0  0  0  0  0  0  0  0  0  0  0  0
   37.1780   23.1680   31.5440 H   0  0  0  0  0  0  0  0  0  0  0  0
   38.4710   23.6250   35.8740 C   0  0  0  0  0  0  0  0  0  0  0  0
   39.6850   23.0260   36.2450 C   0  0  0  0  0  0  0  0  0  0  0  0
   39.9300   22.7900   37.6050 C   0  0  0  0  0  0  0  0  0  0  0  0
   38.9880   23.1510   38.4840 N   0  0  0  0  0  0  0  0  0  0  0  0
   37.8180   23.7290   38.1110 C   0  0  0  0  0  0  0  0  0  0  0  0
   37.5480   23.9720   36.8050 N   0  0  0  0  0  0  0  0  0  0  0  0
   40.3620   22.7830   35.4320 H   0  0  0  0  0  0  0  0  0  0  0  0
   40.8740   22.3280   37.8580 H   0  0  0  0  0  0  0  0  0  0  0  0
   37.1150   23.9860   38.9060 H   0  0  0  0  0  0  0  0  0  0  0  0
   37.3340   21.6010   33.8440 C   0  0  1  0  0  0  0  0  0  0  0  0
   36.2010   21.1650   34.6400 C   0  0  0  0  0  0  0  0  0  0  0  0
   36.0210   21.2220   33.1470 C   0  0  2  0  0  0  0  0  0  0  0  0
   38.1990   20.9100   33.7260 H   0  0  0  0  0  0  0  0  0  0  0  0
   35.6330   21.9560   35.2090 H   0  0  0  0  0  0  0  0  0  0  0  0
   36.2250   20.2060   35.1850 H   0  0  0  0  0  0  0  0  0  0  0  0
   35.3960   22.0110   32.7010 H   0  0  0  0  0  0  0  0  0  0  0  0
   36.0540   19.9310   32.4910 N   0  0  0  0  0  0  0  0  0  0  0  0
   35.4490   18.8220   32.9660 C   0  0  0  0  0  3  0  0  0  0  0  0
   35.6760   17.7650   32.1020 C   0  0  0  0  0  3  0  0  0  0  0  0
   36.4310   18.2950   31.1130 N   0  0  0  0  0  0  0  0  0  0  0  0
   36.6630   19.5980   31.3410 C   0  0  0  0  0  3  0  0  0  0  0  0
  1  8  1  0  0  0  0
  2  6  1  0  0  0  0
  2  1  2  0  0  0  0
  3  2  1  0  0  0  0
  4  3  2  0  0  0  0
  4  5  1  0  0  0  0
  5 17  1  0  0  0  0
  5  1  1  0  0  0  0
  7  4  1  0  0  0  0
  8  9  2  0  0  0  0
  8 13  1  0  0  0  0
  9 10  1  0  0  0  0
 10 15  1  0  0  0  0
 10 11  2  0  0  0  0
 12 11  1  0  0  0  0
 12 16  1  0  0  0  0
 13 12  2  0  0  0  0
 14  9  1  0  0  0  0
 17 20  1  6  0  0  0
 17 18  1  0  0  0  0
 18 22  1  0  0  0  0
 18 21  1  0  0  0  0
 19 23  1  6  0  0  0
 19 17  1  0  0  0  0
 19 18  1  0  0  0  0
 24 25  1  0  0  0  0
 24 19  1  0  0  0  0
 26 25  2  0  0  0  0
 27 28  2  0  0  0  0
 27 26  1  0  0  0  0
 28 24  1  0  0  0  0
M  END
>  <minimizedAffinity>
-4.51273632

>  <minimizedRMSD>
0.852192163

$$$$
