
 OpenBabel03262519553D

 28 31  0  0  1  0  0  0  0  0999 V2000
   38.5110   23.6500   33.8290 C   0  0  0  0  0  0  0  0  0  0  0  0
   37.5510   23.0910   32.9900 C   0  0  0  0  0  0  0  0  0  0  0  0
   37.9440   21.7880   32.8680 N   0  0  0  0  0  0  0  0  0  0  0  0
   39.0530   21.6250   33.5910 C   0  0  0  0  0  0  0  0  0  0  0  0
   39.4310   22.7690   34.2020 N   0  0  0  0  0  0  0  0  0  0  0  0
   36.6930   23.5330   32.5270 H   0  0  0  0  0  0  0  0  0  0  0  0
   39.5960   20.6710   33.6780 H   0  0  0  0  0  0  0  0  0  0  0  0
   38.5160   25.0450   34.2570 C   0  0  0  0  0  0  0  0  0  0  0  0
   39.2110   26.0160   33.5180 C   0  0  0  0  0  0  0  0  0  0  0  0
   39.1900   27.3440   33.9660 C   0  0  0  0  0  0  0  0  0  0  0  0
   38.5040   27.6190   35.0810 N   0  0  0  0  0  0  0  0  0  0  0  0
   37.8370   26.6710   35.7860 C   0  0  0  0  0  0  0  0  0  0  0  0
   37.8360   25.3770   35.3820 N   0  0  0  0  0  0  0  0  0  0  0  0
   39.7270   25.6590   32.6320 H   0  0  0  0  0  0  0  0  0  0  0  0
   39.7340   28.0670   33.3750 H   0  0  0  0  0  0  0  0  0  0  0  0
   37.3070   26.9980   36.6830 H   0  0  0  0  0  0  0  0  0  0  0  0
   40.5820   22.8940   35.0420 C   0  0  1  0  0  0  0  0  0  0  0  0
   40.7000   22.2670   36.3450 C   0  0  0  0  0  0  0  0  0  0  0  0
   41.3530   21.5760   35.1790 C   0  0  2  0  0  0  0  0  0  0  0  0
   41.1710   23.8170   34.8400 H   0  0  0  0  0  0  0  0  0  0  0  0
   39.7900   21.7390   36.7520 H   0  0  0  0  0  0  0  0  0  0  0  0
   41.2950   22.7350   37.1490 H   0  0  0  0  0  0  0  0  0  0  0  0
   40.9160   20.6470   34.7800 H   0  0  0  0  0  0  0  0  0  0  0  0
   42.7930   21.7270   35.1240 N   0  0  0  0  0  0  0  0  0  0  0  0
   43.5760   21.9450   36.2010 C   0  0  0  0  0  3  0  0  0  0  0  0
   44.8970   22.0410   35.8000 C   0  0  0  0  0  3  0  0  0  0  0  0
   44.8560   21.8730   34.4600 N   0  0  0  0  0  0  0  0  0  0  0  0
   43.5920   21.6840   34.0460 C   0  0  0  0  0  3  0  0  0  0  0  0
  1  5  1  0  0  0  0
  1  8  1  0  0  0  0
  2  1  2  0  0  0  0
  3  2  1  0  0  0  0
  3  4  2  0  0  0  0
  4  7  1  0  0  0  0
  4  5  1  0  0  0  0
  5 17  1  0  0  0  0
  6  2  1  0  0  0  0
  8 13  1  0  0  0  0
  9 10  1  0  0  0  0
  9  8  2  0  0  0  0
 10 11  2  0  0  0  0
 11 12  1  0  0  0  0
 12 16  1  0  0  0  0
 13 12  2  0  0  0  0
 14  9  1  0  0  0  0
 15 10  1  0  0  0  0
 17 20  1  6  0  0  0
 17 19  1  0  0  0  0
 17 18  1  0  0  0  0
 18 21  1  0  0  0  0
 18 22  1  0  0  0  0
 19 23  1  6  0  0  0
 19 18  1  0  0  0  0
 24 19  1  0  0  0  0
 24 25  1  0  0  0  0
 26 25  2  0  0  0  0
 27 26  1  0  0  0  0
 28 27  2  0  0  0  0
 28 24  1  0  0  0  0
M  END
>  <minimizedAffinity>
-2.75395918

>  <minimizedRMSD>
5.86839581

$$$$
