
 OpenBabel03262517413D

 39 42  0  0  0  0  0  0  0  0999 V2000
   40.0380   22.2560   34.5030 C   0  0  0  0  0  0  0  0  0  0  0  0
   38.7900   22.0960   33.9390 C   0  0  0  0  0  0  0  0  0  0  0  0
   38.6360   21.2600   32.8510 C   0  0  0  0  0  0  0  0  0  0  0  0
   39.7380   20.6120   32.3660 N   0  0  0  0  0  0  0  0  0  0  0  0
   40.9430   20.7800   32.9310 C   0  0  0  0  0  0  0  0  0  0  0  0
   41.1140   21.5900   33.9880 N   0  0  0  0  0  0  0  0  0  0  0  0
   37.4360   20.9780   32.1480 N   0  0  0  0  0  0  0  0  0  0  0  0
   36.9390   21.7010   31.0080 C   0  0  0  0  0  0  0  0  0  0  0  0
   35.5860   22.2880   31.3280 C   0  0  0  0  0  0  0  0  0  0  0  0
   35.0740   21.7250   32.5170 O   0  0  0  0  0  0  0  0  0  0  0  0
   35.0840   20.3520   32.4030 C   0  0  0  0  0  0  0  0  0  0  0  0
   36.5240   19.8820   32.5030 C   0  0  0  0  0  0  0  0  0  0  0  0
   37.8840   22.5760   34.2700 H   0  0  0  0  0  0  0  0  0  0  0  0
   41.8370   20.2940   32.5870 H   0  0  0  0  0  0  0  0  0  0  0  0
   37.6470   22.4810   30.6890 H   0  0  0  0  0  0  0  0  0  0  0  0
   36.7780   20.9430   30.1900 H   0  0  0  0  0  0  0  0  0  0  0  0
   34.8560   22.1300   30.5100 H   0  0  0  0  0  0  0  0  0  0  0  0
   35.6890   23.3640   31.5010 H   0  0  0  0  0  0  0  0  0  0  0  0
   34.4260   19.9080   33.1530 H   0  0  0  0  0  0  0  0  0  0  0  0
   34.7460   20.1110   31.3590 H   0  0  0  0  0  0  0  0  0  0  0  0
   36.7200   19.5890   33.5490 H   0  0  0  0  0  0  0  0  0  0  0  0
   36.6900   19.0520   31.7970 H   0  0  0  0  0  0  0  0  0  0  0  0
   40.1560   23.1320   35.6300 C   0  0  0  0  0  0  0  0  0  0  0  0
   40.6840   22.8300   36.7420 O   0  0  0  0  0  0  0  0  0  0  0  0
   39.6650   24.5220   35.6210 C   0  0  0  0  0  0  0  0  0  0  0  0
   38.4780   24.8750   36.2130 C   0  0  0  0  0  0  0  0  0  0  0  0
   38.0480   26.1910   36.1840 C   0  0  0  0  0  0  0  0  0  0  0  0
   38.7930   27.1800   35.5670 C   0  0  0  0  0  0  0  0  0  0  0  0
   39.9770   26.8300   34.9770 C   0  0  0  0  0  0  0  0  0  0  0  0
   40.4020   25.5080   35.0080 C   0  0  0  0  0  0  0  0  0  0  0  0
   37.8690   24.1160   36.7080 H   0  0  0  0  0  0  0  0  0  0  0  0
   37.1040   26.4440   36.6610 H   0  0  0  0  0  0  0  0  0  0  0  0
   38.4200   28.1940   35.5680 H   0  0  0  0  0  0  0  0  0  0  0  0
   40.5910   27.5680   34.4820 H   0  0  0  0  0  0  0  0  0  0  0  0
   41.6390   25.1980   34.3790 N   0  0  0  0  0  0  0  0  0  0  0  0
   42.7170   25.2370   35.2140 C   0  0  0  0  0  0  0  0  0  0  0  0
   43.8380   24.9180   34.4790 C   0  0  0  0  0  0  0  0  0  0  0  0
   43.4360   24.6910   33.2170 N   0  0  0  0  0  0  0  0  0  0  0  0
   42.1020   24.8620   33.1610 C   0  0  0  0  0  0  0  0  0  0  0  0
  1 23  1  0  0  0  0
  2 13  1  0  0  0  0
  2  1  2  0  0  0  0
  3  2  1  0  0  0  0
  4  3  2  0  0  0  0
  4  5  1  0  0  0  0
  5  6  2  0  0  0  0
  6  1  1  0  0  0  0
  7 12  1  0  0  0  0
  7  3  1  0  0  0  0
  8  9  1  0  0  0  0
  8  7  1  0  0  0  0
  9 18  1  0  0  0  0
  9 10  1  0  0  0  0
 11 12  1  0  0  0  0
 11 10  1  0  0  0  0
 11 19  1  0  0  0  0
 12 21  1  0  0  0  0
 14  5  1  0  0  0  0
 15  8  1  0  0  0  0
 16  8  1  0  0  0  0
 17  9  1  0  0  0  0
 20 11  1  0  0  0  0
 22 12  1  0  0  0  0
 23 24  2  0  0  0  0
 25 23  1  0  0  0  0
 25 26  1  0  0  0  0
 26 31  1  0  0  0  0
 27 26  2  0  0  0  0
 27 32  1  0  0  0  0
 28 33  1  0  0  0  0
 28 27  1  0  0  0  0
 29 30  1  0  0  0  0
 29 28  2  0  0  0  0
 30 25  2  0  0  0  0
 34 29  1  0  0  0  0
 35 30  1  0  0  0  0
 35 36  1  0  0  0  0
 37 36  2  0  0  0  0
 38 37  1  0  0  0  0
 39 38  2  0  0  0  0
 39 35  1  0  0  0  0
M  END
>  <minimizedAffinity>
-5.16630936

>  <minimizedRMSD>
0.674193501

$$$$
