
 OpenBabel03262519553D

 28 31  0  0  1  0  0  0  0  0999 V2000
   38.1720   23.8890   34.4700 C   0  0  0  0  0  0  0  0  0  0  0  0
   38.3640   25.1170   33.8450 C   0  0  0  0  0  0  0  0  0  0  0  0
   37.9560   24.8970   32.5600 N   0  0  0  0  0  0  0  0  0  0  0  0
   37.5580   23.6270   32.4680 C   0  0  0  0  0  0  0  0  0  0  0  0
   37.6820   22.9730   33.6440 N   0  0  0  0  0  0  0  0  0  0  0  0
   38.7400   26.0420   34.2340 H   0  0  0  0  0  0  0  0  0  0  0  0
   37.1760   23.1680   31.5440 H   0  0  0  0  0  0  0  0  0  0  0  0
   38.4700   23.6250   35.8740 C   0  0  0  0  0  0  0  0  0  0  0  0
   39.6850   23.0260   36.2450 C   0  0  0  0  0  0  0  0  0  0  0  0
   39.9300   22.7900   37.6040 C   0  0  0  0  0  0  0  0  0  0  0  0
   38.9890   23.1510   38.4840 N   0  0  0  0  0  0  0  0  0  0  0  0
   37.8180   23.7290   38.1110 C   0  0  0  0  0  0  0  0  0  0  0  0
   37.5480   23.9710   36.8050 N   0  0  0  0  0  0  0  0  0  0  0  0
   40.3620   22.7830   35.4320 H   0  0  0  0  0  0  0  0  0  0  0  0
   40.8740   22.3290   37.8580 H   0  0  0  0  0  0  0  0  0  0  0  0
   37.1150   23.9860   38.9060 H   0  0  0  0  0  0  0  0  0  0  0  0
   37.3330   21.6000   33.8450 C   0  0  1  0  0  0  0  0  0  0  0  0
   36.2010   21.1650   34.6410 C   0  0  0  0  0  0  0  0  0  0  0  0
   36.0210   21.2210   33.1480 C   0  0  2  0  0  0  0  0  0  0  0  0
   38.1980   20.9090   33.7260 H   0  0  0  0  0  0  0  0  0  0  0  0
   35.6320   21.9550   35.2100 H   0  0  0  0  0  0  0  0  0  0  0  0
   36.2250   20.2050   35.1860 H   0  0  0  0  0  0  0  0  0  0  0  0
   35.3950   22.0110   32.7020 H   0  0  0  0  0  0  0  0  0  0  0  0
   36.0540   19.9300   32.4920 N   0  0  0  0  0  0  0  0  0  0  0  0
   35.4480   18.8220   32.9660 C   0  0  0  0  0  3  0  0  0  0  0  0
   35.6750   17.7650   32.1030 C   0  0  0  0  0  3  0  0  0  0  0  0
   36.4320   18.2940   31.1140 N   0  0  0  0  0  0  0  0  0  0  0  0
   36.6630   19.5970   31.3430 C   0  0  0  0  0  3  0  0  0  0  0  0
  1  8  1  0  0  0  0
  2  6  1  0  0  0  0
  2  1  2  0  0  0  0
  3  2  1  0  0  0  0
  4  3  2  0  0  0  0
  4  5  1  0  0  0  0
  5 17  1  0  0  0  0
  5  1  1  0  0  0  0
  7  4  1  0  0  0  0
  8  9  2  0  0  0  0
  8 13  1  0  0  0  0
  9 10  1  0  0  0  0
 10 15  1  0  0  0  0
 10 11  2  0  0  0  0
 12 11  1  0  0  0  0
 12 16  1  0  0  0  0
 13 12  2  0  0  0  0
 14  9  1  0  0  0  0
 17 20  1  6  0  0  0
 17 18  1  0  0  0  0
 18 22  1  0  0  0  0
 18 21  1  0  0  0  0
 19 23  1  6  0  0  0
 19 17  1  0  0  0  0
 19 18  1  0  0  0  0
 24 25  1  0  0  0  0
 24 19  1  0  0  0  0
 26 25  2  0  0  0  0
 27 28  2  0  0  0  0
 27 26  1  0  0  0  0
 28 24  1  0  0  0  0
M  END
>  <minimizedAffinity>
-4.51300478

>  <minimizedRMSD>
0.8264575

$$$$
