
 OpenBabel03262519203D

 25 28  0  0  0  0  0  0  0  0999 V2000
   37.5260   25.1490   33.7670 C   0  0  0  0  0  0  0  0  0  0  0  0
   37.8820   25.5070   35.0630 C   0  0  0  0  0  0  0  0  0  0  0  0
   37.8330   26.8440   35.3970 C   0  0  0  0  0  0  0  0  0  0  0  0
   37.4480   27.7580   34.4720 N   0  0  0  0  0  0  0  0  0  0  0  0
   37.1060   27.3740   33.2110 C   0  0  0  0  0  0  0  0  0  0  0  0
   37.1450   26.0770   32.8630 N   0  0  0  0  0  0  0  0  0  0  0  0
   38.1110   27.1460   36.4150 H   0  0  0  0  0  0  0  0  0  0  0  0
   36.8150   28.1960   32.5620 H   0  0  0  0  0  0  0  0  0  0  0  0
   37.5400   23.7990   33.3170 N   0  0  0  0  0  0  0  0  0  0  0  0
   37.9320   22.5820   33.7220 C   0  0  0  0  0  0  0  0  0  0  0  0
   37.6300   21.6510   32.7440 C   0  0  0  0  0  0  0  0  0  0  0  0
   37.0520   22.3300   31.7510 N   0  0  0  0  0  0  0  0  0  0  0  0
   36.9900   23.6340   32.0830 C   0  0  0  0  0  0  0  0  0  0  0  0
   38.2710   24.5420   35.9820 N   0  0  0  0  0  0  0  0  0  0  0  0
   37.4890   23.9680   36.9260 C   0  0  0  0  0  0  0  0  0  0  0  0
   38.1670   23.0640   37.6640 N   0  0  0  0  0  0  0  0  0  0  0  0
   39.4250   23.0550   37.1820 C   0  0  0  0  0  0  0  0  0  0  0  0
   40.5610   22.3640   37.5050 C   0  0  0  0  0  0  0  0  0  0  0  0
   41.7430   22.5220   36.8680 N   0  0  0  0  0  0  0  0  0  0  0  0
   41.7450   23.4250   35.8640 C   0  0  0  0  0  0  0  0  0  0  0  0
   40.6410   24.0960   35.5500 N   0  0  0  0  0  0  0  0  0  0  0  0
   39.4720   23.9750   36.1420 C   0  0  0  0  0  0  0  0  0  0  0  0
   36.4330   24.1730   37.1100 H   0  0  0  0  0  0  0  0  0  0  0  0
   40.4990   21.6520   38.3210 H   0  0  0  0  0  0  0  0  0  0  0  0
   42.7090   23.5460   35.3520 H   0  0  0  0  0  0  0  0  0  0  0  0
  1  2  1  0  0  0  0
  2  3  2  0  0  0  0
  2 14  1  0  0  0  0
  3  7  1  0  0  0  0
  4  3  1  0  0  0  0
  5  4  2  0  0  0  0
  6  5  1  0  0  0  0
  6  1  2  0  0  0  0
  8  5  1  0  0  0  0
  9 10  1  0  0  0  0
  9  1  1  0  0  0  0
 11 10  2  0  0  0  0
 12 13  2  0  0  0  0
 12 11  1  0  0  0  0
 13  9  1  0  0  0  0
 14 22  1  0  0  0  0
 14 15  1  0  0  0  0
 15 23  1  0  0  0  0
 15 16  2  0  0  0  0
 17 18  1  0  0  0  0
 17 16  1  0  0  0  0
 18 24  1  0  0  0  0
 19 18  2  0  0  0  0
 20 19  1  0  0  0  0
 21 20  2  0  0  0  0
 21 22  1  0  0  0  0
 22 17  2  0  0  0  0
 25 20  1  0  0  0  0
M  END
>  <minimizedAffinity>
-4.92933369

>  <minimizedRMSD>
0.782415986

$$$$
