
 OpenBabel03262519553D

 28 31  0  0  1  0  0  0  0  0999 V2000
   38.1560   23.8350   34.5370 C   0  0  0  0  0  0  0  0  0  0  0  0
   38.3510   25.0490   33.8860 C   0  0  0  0  0  0  0  0  0  0  0  0
   37.9360   24.8040   32.6070 N   0  0  0  0  0  0  0  0  0  0  0  0
   37.5330   23.5340   32.5440 C   0  0  0  0  0  0  0  0  0  0  0  0
   37.6580   22.9040   33.7330 N   0  0  0  0  0  0  0  0  0  0  0  0
   38.7330   25.9800   34.2540 H   0  0  0  0  0  0  0  0  0  0  0  0
   37.1450   23.0570   31.6310 H   0  0  0  0  0  0  0  0  0  0  0  0
   38.4590   23.5990   35.9460 C   0  0  0  0  0  0  0  0  0  0  0  0
   39.6730   23.0050   36.3240 C   0  0  0  0  0  0  0  0  0  0  0  0
   39.9230   22.7970   37.6870 C   0  0  0  0  0  0  0  0  0  0  0  0
   38.9860   23.1780   38.5630 N   0  0  0  0  0  0  0  0  0  0  0  0
   37.8150   23.7510   38.1830 C   0  0  0  0  0  0  0  0  0  0  0  0
   37.5400   23.9670   36.8730 N   0  0  0  0  0  0  0  0  0  0  0  0
   40.3470   22.7430   35.5140 H   0  0  0  0  0  0  0  0  0  0  0  0
   40.8670   22.3380   37.9470 H   0  0  0  0  0  0  0  0  0  0  0  0
   37.1160   24.0260   38.9740 H   0  0  0  0  0  0  0  0  0  0  0  0
   37.3040   21.5380   33.9640 C   0  0  1  0  0  0  0  0  0  0  0  0
   36.1190   21.1250   34.6920 C   0  0  0  0  0  0  0  0  0  0  0  0
   36.0490   21.1190   33.1890 C   0  0  2  0  0  0  0  0  0  0  0  0
   38.1790   20.8500   33.9380 H   0  0  0  0  0  0  0  0  0  0  0  0
   35.5050   21.9320   35.1850 H   0  0  0  0  0  0  0  0  0  0  0  0
   36.1090   20.1880   35.2760 H   0  0  0  0  0  0  0  0  0  0  0  0
   35.4530   21.8840   32.6660 H   0  0  0  0  0  0  0  0  0  0  0  0
   36.1380   19.8020   32.5910 N   0  0  0  0  0  0  0  0  0  0  0  0
   35.3680   18.7530   32.9460 C   0  0  0  0  0  3  0  0  0  0  0  0
   35.7080   17.6500   32.1830 C   0  0  0  0  0  3  0  0  0  0  0  0
   36.6980   18.0910   31.3760 N   0  0  0  0  0  0  0  0  0  0  0  0
   36.9620   19.3860   31.6160 C   0  0  0  0  0  3  0  0  0  0  0  0
  1  8  1  0  0  0  0
  2  6  1  0  0  0  0
  2  1  2  0  0  0  0
  3  2  1  0  0  0  0
  4  3  2  0  0  0  0
  4  5  1  0  0  0  0
  5 17  1  0  0  0  0
  5  1  1  0  0  0  0
  7  4  1  0  0  0  0
  8  9  2  0  0  0  0
  8 13  1  0  0  0  0
  9 10  1  0  0  0  0
 10 15  1  0  0  0  0
 10 11  2  0  0  0  0
 12 11  1  0  0  0  0
 12 16  1  0  0  0  0
 13 12  2  0  0  0  0
 14  9  1  0  0  0  0
 17 20  1  6  0  0  0
 17 18  1  0  0  0  0
 18 21  1  0  0  0  0
 18 22  1  0  0  0  0
 19 23  1  6  0  0  0
 19 17  1  0  0  0  0
 19 18  1  0  0  0  0
 24 25  1  0  0  0  0
 24 19  1  0  0  0  0
 26 25  2  0  0  0  0
 27 28  2  0  0  0  0
 27 26  1  0  0  0  0
 28 24  1  0  0  0  0
M  END
>  <minimizedAffinity>
-4.54603243

>  <minimizedRMSD>
0.737633646

$$$$
