
 OpenBabel03262519153D

 36 39  0  0  0  0  0  0  0  0999 V2000
   38.8190   23.4130   34.8510 C   0  0  0  0  0  0  0  0  0  0  0  0
   39.1770   24.6680   34.3140 C   0  0  0  0  0  0  0  0  0  0  0  0
   40.3790   24.8120   33.6190 C   0  0  0  0  0  0  0  0  0  0  0  0
   41.1410   23.6910   33.5080 N   0  0  0  0  0  0  0  0  0  0  0  0
   40.7680   22.4850   34.0390 C   0  0  0  0  0  0  0  0  0  0  0  0
   39.6110   22.3700   34.7020 N   0  0  0  0  0  0  0  0  0  0  0  0
   37.8610   23.4020   35.3760 H   0  0  0  0  0  0  0  0  0  0  0  0
   40.7030   25.7470   33.1880 H   0  0  0  0  0  0  0  0  0  0  0  0
   41.6990   21.3540   33.8430 C   0  0  0  0  0  0  0  0  0  0  0  0
   41.9230   20.9880   32.5480 C   0  0  0  0  0  0  0  0  0  0  0  0
   43.1300   19.5550   32.7440 S   0  0  0  0  0  0  0  0  0  0  0  0
   43.0720   19.7670   34.6280 C   0  0  0  0  0  0  0  0  0  0  0  0
   42.3570   20.6300   34.7130 N   0  0  0  0  0  0  0  0  0  0  0  0
   41.6380   21.2520   31.5320 H   0  0  0  0  0  0  0  0  0  0  0  0
   43.8080   18.9530   35.5350 N   0  0  0  0  0  0  0  0  0  0  0  0
   44.7080   18.0310   35.1430 C   0  0  0  0  0  0  0  0  0  0  0  0
   45.3320   17.3290   36.1640 C   0  0  0  0  0  0  0  0  0  0  0  0
   46.3350   16.2970   35.8030 C   0  0  0  0  0  0  0  0  0  0  0  0
   45.0640   17.5420   37.4990 C   0  0  0  0  0  0  0  0  0  0  0  0
   45.6470   16.8870   38.4110 O   0  0  0  0  0  0  0  0  0  0  0  0
   44.1590   18.4730   37.8090 N   0  0  0  0  0  0  0  0  0  0  0  0
   43.5440   19.1640   36.8390 C   0  0  0  0  0  0  0  0  0  0  0  0
   42.7010   20.0270   37.2190 O   0  0  0  0  0  0  0  0  0  0  0  0
   43.9420   18.6500   38.8290 H   0  0  0  0  0  0  0  0  0  0  0  0
   38.3740   25.8690   34.4320 C   0  0  0  0  0  0  0  0  0  0  0  0
   38.4460   26.7680   35.4880 C   0  0  0  0  0  0  0  0  0  0  0  0
   37.6190   27.8400   35.4330 C   0  0  0  0  0  0  0  0  0  0  0  0
   36.7670   27.9740   34.3470 C   0  0  0  0  0  0  0  0  0  0  0  0
   37.1510   26.4850   33.3240 S   0  0  0  0  0  0  0  0  0  0  0  0
   39.1210   26.6400   36.3240 H   0  0  0  0  0  0  0  0  0  0  0  0
   37.5240   28.6450   36.1470 H   0  0  0  0  0  0  0  0  0  0  0  0
   35.7940   28.9100   33.9390 C   0  0  0  0  0  0  0  0  0  0  0  0
   35.1340   28.7360   32.9060 O   0  0  0  0  0  0  0  0  0  0  0  0
   35.5320   30.0970   34.7060 N   0  0  0  0  0  0  0  0  0  0  0  0
   35.4490   30.0470   35.7480 H   0  0  0  0  0  0  0  0  0  0  0  0
   35.4350   30.9870   34.1380 H   0  0  0  0  0  0  0  0  0  0  0  0
  1  7  1  0  0  0  0
  2 25  1  0  0  0  0
  2  1  2  0  0  0  0
  3  2  1  0  0  0  0
  4  3  2  0  0  0  0
  4  5  1  0  0  0  0
  5  6  2  0  0  0  0
  6  1  1  0  0  0  0
  8  3  1  0  0  0  0
  9  5  1  0  0  0  0
  9 13  1  0  0  0  0
 10 11  1  0  0  0  0
 10  9  2  0  0  0  0
 11 12  1  0  0  0  0
 12 13  2  0  0  0  0
 12 15  1  0  0  0  0
 14 10  1  0  0  0  0
 15 22  1  0  0  0  0
 16 15  1  0  0  0  0
 16 17  2  0  0  0  0
 17 19  1  0  0  0  0
 18 17  1  0  0  0  0
 19 21  1  0  0  0  0
 19 20  2  0  0  0  0
 21 24  1  0  0  0  0
 22 23  2  0  0  0  0
 22 21  1  0  0  0  0
 25 26  2  0  0  0  0
 26 30  1  0  0  0  0
 27 26  1  0  0  0  0
 27 31  1  0  0  0  0
 28 27  2  0  0  0  0
 29 28  1  0  0  0  0
 29 25  1  0  0  0  0
 32 28  1  0  0  0  0
 32 34  1  0  0  0  0
 33 32  2  0  0  0  0
 34 35  1  0  0  0  0
 36 34  1  0  0  0  0
M  END
>  <minimizedAffinity>
-4.57341576

>  <minimizedRMSD>
2.61243057

$$$$
