
 OpenBabel03262519293D

 34 37  0  0  0  0  0  0  0  0999 V2000
   39.6730   22.8570   37.2470 C   0  0  0  0  0  0  0  0  0  0  0  0
   38.9510   23.2960   38.3660 C   0  0  0  0  0  0  0  0  0  0  0  0
   37.8820   24.1790   38.1320 C   0  0  0  0  0  0  0  0  0  0  0  0
   37.6110   24.5530   36.8550 N   0  0  0  0  0  0  0  0  0  0  0  0
   38.3440   24.0960   35.8110 C   0  0  0  0  0  0  0  0  0  0  0  0
   39.3640   23.2580   35.9900 N   0  0  0  0  0  0  0  0  0  0  0  0
   39.2140   22.9620   39.3650 H   0  0  0  0  0  0  0  0  0  0  0  0
   37.2960   24.5450   38.9600 H   0  0  0  0  0  0  0  0  0  0  0  0
   37.9060   24.6010   34.5570 N   0  0  0  0  0  0  0  0  0  0  0  0
   37.8560   23.8970   33.4350 C   0  0  0  0  0  3  0  0  0  0  0  0
   37.4230   24.4520   32.2650 C   0  0  0  0  0  0  0  0  0  0  0  0
   37.3390   23.7300   30.9700 C   0  0  0  0  0  1  0  0  0  0  0  0
   37.0200   25.7690   32.2150 C   0  0  0  0  0  0  0  0  0  0  0  0
   36.6040   26.3530   31.1590 O   0  0  0  0  0  0  0  0  0  0  0  0
   37.0590   26.5070   33.3360 N   0  0  0  0  0  0  0  0  0  0  0  0
   37.5020   25.8920   34.4660 C   0  0  0  0  0  0  0  0  0  0  0  0
   37.5260   26.6080   35.4970 O   0  0  0  0  0  0  0  0  0  0  0  0
   36.7690   27.4920   33.3500 H   0  0  0  0  0  0  0  0  0  0  0  0
   40.7050   22.0040   37.4840 O   0  0  0  0  0  0  0  0  0  0  0  0
   41.9730   22.0800   36.9510 C   0  0  0  0  0  0  0  0  0  0  0  0
   42.5870   23.2070   36.4580 C   0  0  0  0  0  0  0  0  0  0  0  0
   43.8200   22.9220   36.0160 N   0  0  0  0  0  0  0  0  0  0  0  0
   44.0740   21.6100   36.1950 C   0  0  0  0  0  0  0  0  0  0  0  0
   45.1660   20.8010   35.9230 C   0  0  0  0  0  0  0  0  0  0  0  0
   45.1190   19.4420   36.2330 C   0  0  0  0  0  0  0  0  0  0  0  0
   43.9680   18.9040   36.8180 C   0  0  0  0  0  0  0  0  0  0  0  0
   42.8770   19.7260   37.0870 C   0  0  0  0  0  0  0  0  0  0  0  0
   42.9310   21.0750   36.7760 C   0  0  0  0  0  0  0  0  0  0  0  0
   42.1570   24.1880   36.4240 H   0  0  0  0  0  0  0  0  0  0  0  0
   44.5070   23.5700   35.5970 H   0  0  0  0  0  0  0  0  0  0  0  0
   46.0600   21.2090   35.4700 H   0  0  0  0  0  0  0  0  0  0  0  0
   45.9420   18.7670   36.0420 H   0  0  0  0  0  0  0  0  0  0  0  0
   43.9590   17.8500   37.0470 H   0  0  0  0  0  0  0  0  0  0  0  0
   41.9970   19.2880   37.5400 H   0  0  0  0  0  0  0  0  0  0  0  0
  1 19  1  0  0  0  0
  1  2  1  0  0  0  0
  2  7  1  0  0  0  0
  3  2  2  0  0  0  0
  3  8  1  0  0  0  0
  4  3  1  0  0  0  0
  5  6  1  0  0  0  0
  5  4  2  0  0  0  0
  6  1  2  0  0  0  0
  9  5  1  0  0  0  0
 10  9  1  0  0  0  0
 11 10  2  0  0  0  0
 12 11  1  0  0  0  0
 13 11  1  0  0  0  0
 13 15  1  0  0  0  0
 14 13  2  0  0  0  0
 15 18  1  0  0  0  0
 15 16  1  0  0  0  0
 16  9  1  0  0  0  0
 16 17  2  0  0  0  0
 20 19  1  0  0  0  0
 21 20  2  0  0  0  0
 22 23  1  0  0  0  0
 22 21  1  0  0  0  0
 23 28  1  0  0  0  0
 24 23  2  0  0  0  0
 24 25  1  0  0  0  0
 25 26  2  0  0  0  0
 26 33  1  0  0  0  0
 26 27  1  0  0  0  0
 27 34  1  0  0  0  0
 28 20  1  0  0  0  0
 28 27  2  0  0  0  0
 29 21  1  0  0  0  0
 30 22  1  0  0  0  0
 31 24  1  0  0  0  0
 32 25  1  0  0  0  0
M  END
>  <minimizedAffinity>
-6.08741617

>  <minimizedRMSD>
1.07421207

$$$$
