
 OpenBabel03262519463D

 42 45  0  0  1  0  0  0  0  0999 V2000
   37.6530   25.3000   32.9240 N   0  0  0  0  0  0  0  0  0  0  0  0
   37.1700   24.1060   32.5620 C   0  0  0  0  0  0  0  0  0  0  0  0
   36.2600   24.1560   31.5330 C   0  0  0  0  0  0  0  0  0  0  0  0
   36.1740   25.4560   31.2390 N   0  0  0  0  0  0  0  0  0  0  0  0
   37.0070   26.1410   32.0710 C   0  0  0  0  0  0  0  0  0  0  0  0
   37.4940   23.1800   33.0670 H   0  0  0  0  0  0  0  0  0  0  0  0
   35.7770   23.2550   31.1260 H   0  0  0  0  0  0  0  0  0  0  0  0
   37.1270   27.6450   31.9290 C   0  0  1  0  0  0  0  0  0  0  0  0
   36.5220   28.2430   30.7190 C   0  0  0  0  0  0  0  0  0  0  0  0
   35.8310   28.4270   32.0410 C   0  0  2  0  0  0  0  0  0  0  0  0
   37.9940   28.0090   32.4790 H   0  0  0  0  0  0  0  0  0  0  0  0
   36.9800   29.0900   30.1820 H   0  0  0  0  0  0  0  0  0  0  0  0
   36.0020   27.5480   30.0270 H   0  0  0  0  0  0  0  0  0  0  0  0
   34.9520   27.8280   32.2680 H   0  0  0  0  0  0  0  0  0  0  0  0
   35.8270   29.7220   32.6810 N   0  0  0  0  0  0  0  0  0  0  0  0
   36.1280   30.8660   32.0190 C   0  0  0  0  0  3  0  0  0  0  0  0
   36.1260   32.1080   32.6190 C   0  0  0  0  0  0  0  0  0  0  0  0
   36.4590   33.3510   31.8720 C   0  0  0  0  0  1  0  0  0  0  0  0
   35.8060   32.2250   33.9640 C   0  0  0  0  0  0  0  0  0  0  0  0
   35.8030   33.3550   34.5160 O   0  0  0  0  0  0  0  0  0  0  0  0
   35.5080   31.0810   34.6140 N   0  0  0  0  0  0  0  0  0  0  0  0
   35.5280   29.9000   33.9700 C   0  0  0  0  0  0  0  0  0  0  0  0
   35.2330   28.9350   34.6930 O   0  0  0  0  0  0  0  0  0  0  0  0
   35.2720   31.1960   35.6210 H   0  0  0  0  0  0  0  0  0  0  0  0
   38.5640   25.7560   33.8970 C   0  0  0  0  0  0  0  0  0  0  0  0
   38.9910   26.7570   33.5980 H   0  0  0  0  0  0  0  0  0  0  0  0
   39.4660   25.0840   33.9540 H   0  0  0  0  0  0  0  0  0  0  0  0
   37.9870   25.8440   35.2610 C   0  0  1  0  0  0  0  0  0  0  0  0
   36.8760   25.7470   35.2170 H   0  0  0  0  0  0  0  0  0  0  0  0
   38.4510   23.6030   38.2770 C   0  0  0  0  0  0  0  0  0  0  0  0
   37.9060   24.6110   37.4740 C   0  0  0  0  0  0  0  0  0  0  0  0
   38.5010   24.8150   36.1850 C   0  0  0  0  0  0  0  0  0  0  0  0
   39.5690   24.0200   35.7990 N   0  0  0  0  0  0  0  0  0  0  0  0
   40.0510   23.0740   36.6020 C   0  0  0  0  0  0  0  0  0  0  0  0
   39.4960   22.8590   37.8440 N   0  0  0  0  0  0  0  0  0  0  0  0
   37.9860   23.4720   39.2370 H   0  0  0  0  0  0  0  0  0  0  0  0
   37.0790   25.2370   37.7530 H   0  0  0  0  0  0  0  0  0  0  0  0
   40.8880   22.4800   36.2490 H   0  0  0  0  0  0  0  0  0  0  0  0
   38.2180   27.2350   35.8450 C   0  0  0  0  0  0  0  0  0  0  0  0
   38.4930   27.9100   35.0360 H   0  0  0  0  0  0  0  0  0  0  0  0
   37.3630   27.5940   36.4160 H   0  0  0  0  0  0  0  0  0  0  0  0
   39.0570   27.1230   36.5840 H   0  0  0  0  0  0  0  0  0  0  0  0
  1 25  1  0  0  0  0
  2  1  1  0  0  0  0
  2  6  1  0  0  0  0
  3  2  2  0  0  0  0
  4  3  1  0  0  0  0
  4  5  2  0  0  0  0
  5  1  1  0  0  0  0
  7  3  1  0  0  0  0
  8 10  1  0  0  0  0
  8  5  1  0  0  0  0
  8 11  1  1  0  0  0
  9  8  1  0  0  0  0
  9 10  1  0  0  0  0
 10 14  1  1  0  0  0
 10 15  1  0  0  0  0
 12  9  1  0  0  0  0
 13  9  1  0  0  0  0
 15 22  1  0  0  0  0
 16 17  2  0  0  0  0
 16 15  1  0  0  0  0
 17 19  1  0  0  0  0
 18 17  1  0  0  0  0
 19 20  2  0  0  0  0
 19 21  1  0  0  0  0
 21 24  1  0  0  0  0
 22 21  1  0  0  0  0
 22 23  2  0  0  0  0
 25 27  1  0  0  0  0
 25 28  1  0  0  0  0
 26 25  1  0  0  0  0
 28 29  1  6  0  0  0
 28 39  1  0  0  0  0
 28 32  1  0  0  0  0
 30 36  1  0  0  0  0
 31 37  1  0  0  0  0
 31 30  2  0  0  0  0
 32 31  1  0  0  0  0
 33 32  2  0  0  0  0
 33 34  1  0  0  0  0
 34 35  2  0  0  0  0
 35 30  1  0  0  0  0
 38 34  1  0  0  0  0
 39 41  1  0  0  0  0
 39 42  1  0  0  0  0
 40 39  1  0  0  0  0
M  END
>  <minimizedAffinity>
-5.59868288

>  <minimizedRMSD>
1.44179773

$$$$
