
 OpenBabel03262517273D

 49 52  0  0  0  0  0  0  0  0999 V2000
   37.8060   26.6110   31.3510 N   0  0  0  0  0  0  0  0  0  0  0  0
   36.5750   27.1440   31.0670 C   0  0  0  0  0  0  0  0  0  0  0  0
   36.7940   28.1500   30.1230 C   0  0  0  0  0  0  0  0  0  0  0  0
   38.1070   28.2050   29.8640 N   0  0  0  0  0  0  0  0  0  0  0  0
   38.7470   27.2630   30.6120 C   0  0  0  0  0  0  0  0  0  0  0  0
   35.7090   26.7620   31.5500 H   0  0  0  0  0  0  0  0  0  0  0  0
   35.9850   28.7410   29.7190 H   0  0  0  0  0  0  0  0  0  0  0  0
   38.7590   24.2970   33.8950 N   0  0  0  0  0  0  0  0  0  0  0  0
   38.8770   23.5860   32.7760 N   0  0  0  0  0  0  0  0  0  0  0  0
   38.5500   24.3290   31.7170 C   0  0  0  0  0  0  0  0  0  0  0  0
   38.2060   25.5820   32.2170 C   0  0  0  0  0  0  0  0  0  0  0  0
   38.3390   25.5650   33.6020 C   0  0  0  0  0  0  0  0  0  0  0  0
   38.5870   23.9120   30.7160 H   0  0  0  0  0  0  0  0  0  0  0  0
   37.9650   23.6300   36.0900 C   0  0  0  0  0  0  0  0  0  0  0  0
   39.0290   23.8120   35.1990 C   0  0  0  0  0  0  0  0  0  0  0  0
   40.3200   23.5210   35.5870 C   0  0  0  0  0  0  0  0  0  0  0  0
   40.4880   23.0580   36.8620 N   0  0  0  0  0  0  0  0  0  0  0  0
   39.4730   22.8830   37.7150 C   0  0  0  0  0  0  0  0  0  0  0  0
   38.1940   23.1710   37.3270 N   0  0  0  0  0  0  0  0  0  0  0  0
   36.9440   23.8550   35.7950 H   0  0  0  0  0  0  0  0  0  0  0  0
   41.1700   23.6430   34.9400 H   0  0  0  0  0  0  0  0  0  0  0  0
   39.6050   22.5170   38.7200 H   0  0  0  0  0  0  0  0  0  0  0  0
   38.0800   26.6520   34.4460 N   0  0  0  0  0  0  0  0  0  0  0  0
   39.0280   27.1290   35.4020 C   0  0  0  0  0  0  0  0  0  0  0  0
   40.2950   27.0900   35.0080 N   0  0  0  0  0  0  0  0  0  0  0  0
   38.5480   27.5920   36.6580 N   0  0  0  0  0  0  0  0  0  0  0  0
   40.9680   27.4640   35.7120 H   0  0  0  0  0  0  0  0  0  0  0  0
   37.1350   27.1330   34.3630 H   0  0  0  0  0  0  0  0  0  0  0  0
   37.9490   28.4430   36.7780 H   0  0  0  0  0  0  0  0  0  0  0  0
   38.7620   27.1090   37.5560 H   0  0  0  0  0  0  0  0  0  0  0  0
   40.2300   27.1780   30.4540 C   0  0  0  0  0  0  0  0  0  0  0  0
   40.6160   26.0420   29.5110 C   0  0  0  0  0  0  0  0  0  0  0  0
   40.8890   25.1410   30.1330 H   0  0  0  0  0  0  0  0  0  0  0  0
   41.4850   26.2380   28.8950 H   0  0  0  0  0  0  0  0  0  0  0  0
   39.7190   25.7490   28.9430 H   0  0  0  0  0  0  0  0  0  0  0  0
   40.9990   26.9790   31.7040 C   0  0  0  0  0  0  0  0  0  0  0  0
   42.0550   27.0730   31.4600 H   0  0  0  0  0  0  0  0  0  0  0  0
   40.7470   27.8080   32.4010 H   0  0  0  0  0  0  0  0  0  0  0  0
   40.7980   25.9780   32.0890 H   0  0  0  0  0  0  0  0  0  0  0  0
   40.6340   28.4490   29.7100 C   0  0  0  0  0  0  0  0  0  0  0  0
   40.3150   28.3090   28.6470 H   0  0  0  0  0  0  0  0  0  0  0  0
   39.9650   29.2530   30.1000 H   0  0  0  0  0  0  0  0  0  0  0  0
   42.0510   28.7910   29.8300 C   0  0  0  0  0  0  0  0  0  0  0  0
   42.8020   28.5320   28.6750 C   0  0  0  0  0  0  0  0  0  0  0  0
   44.1540   28.7820   28.5720 C   0  0  0  0  0  0  0  0  0  0  0  0
   44.7620   29.3090   29.6750 N   0  0  0  0  0  0  0  0  0  0  0  0
   44.0380   29.5560   30.7830 C   0  0  0  0  0  0  0  0  0  0  0  0
   44.4460   29.9740   31.7000 H   0  0  0  0  0  0  0  0  0  0  0  0
   42.7190   29.3100   30.8750 N   0  0  0  0  0  0  0  0  0  0  0  0
  1 11  1  0  0  0  0
  2  1  1  0  0  0  0
  2  6  1  0  0  0  0
  3  2  2  0  0  0  0
  4  3  1  0  0  0  0
  4  5  2  0  0  0  0
  5  1  1  0  0  0  0
  7  3  1  0  0  0  0
  8 15  1  0  0  0  0
  9  8  1  0  0  0  0
 10 11  1  0  0  0  0
 10  9  2  0  0  0  0
 11 12  2  0  0  0  0
 12  8  1  0  0  0  0
 12 23  1  0  0  0  0
 13 10  1  0  0  0  0
 14 19  1  0  0  0  0
 15 16  1  0  0  0  0
 15 14  2  0  0  0  0
 16 17  2  0  0  0  0
 17 18  1  0  0  0  0
 18 22  1  0  0  0  0
 19 18  2  0  0  0  0
 20 14  1  0  0  0  0
 21 16  1  0  0  0  0
 23 24  1  0  0  0  0
 24 26  1  0  0  0  0
 25 24  2  0  0  0  0
 25 27  1  0  0  0  0
 26 29  1  0  0  0  0
 26 30  1  0  0  0  0
 28 23  1  0  0  0  0
 31  5  1  0  0  0  0
 31 36  1  0  0  0  0
 32 33  1  0  0  0  0
 32 31  1  0  0  0  0
 34 32  1  0  0  0  0
 35 32  1  0  0  0  0
 36 39  1  0  0  0  0
 36 38  1  0  0  0  0
 37 36  1  0  0  0  0
 40 43  1  0  0  0  0
 40 42  1  0  0  0  0
 40 31  1  0  0  0  0
 41 40  1  0  0  0  0
 43 49  1  0  0  0  0
 44 43  2  0  0  0  0
 45 44  1  0  0  0  0
 45 46  2  0  0  0  0
 46 47  1  0  0  0  0
 47 49  2  0  0  0  0
 47 48  1  0  0  0  0
M  END
>  <minimizedAffinity>
-4.87381411

>  <minimizedRMSD>
0.598954737

$$$$
