
 OpenBabel03262519523D

 35 37  0  0  1  0  0  0  0  0999 V2000
   40.4000   25.8290   34.9980 C   0  0  0  0  0  0  0  0  0  0  0  0
   41.4470   25.4310   34.8300 H   0  0  0  0  0  0  0  0  0  0  0  0
   40.5500   26.6090   35.7740 H   0  0  0  0  0  0  0  0  0  0  0  0
   39.6180   24.6200   35.5210 C   0  0  2  0  0  0  0  0  0  0  0  0
   40.4820   23.4650   35.9530 C   0  0  0  0  0  0  0  0  0  0  0  0
   39.5120   23.3710   34.8470 C   0  0  1  0  0  0  0  0  0  0  0  0
   38.9220   24.9640   36.3210 H   0  0  0  0  0  0  0  0  0  0  0  0
   40.2740   23.0000   36.9700 H   0  0  0  0  0  0  0  0  0  0  0  0
   41.5610   23.6190   35.8820 H   0  0  0  0  0  0  0  0  0  0  0  0
   39.5940   22.9690   33.9010 H   0  0  0  0  0  0  0  0  0  0  0  0
   38.2740   22.6610   35.3170 N   0  0  0  0  0  0  0  0  0  0  0  0
   37.5940   21.9570   34.4290 C   0  0  0  0  0  0  0  0  0  0  0  0
   36.4530   21.3110   34.8850 C   0  0  0  0  0  0  0  0  0  0  0  0
   35.6170   20.4970   33.9810 C   0  0  0  0  0  0  0  0  0  0  0  0
   36.0950   21.4360   36.2250 C   0  0  0  0  0  0  0  0  0  0  0  0
   35.0630   20.8490   36.6300 O   0  0  0  0  0  0  0  0  0  0  0  0
   36.8190   22.1660   37.0980 N   0  0  0  0  0  0  0  0  0  0  0  0
   37.9170   22.7770   36.6130 C   0  0  0  0  0  0  0  0  0  0  0  0
   38.5740   23.4500   37.4470 O   0  0  0  0  0  0  0  0  0  0  0  0
   36.5140   22.2330   38.0910 H   0  0  0  0  0  0  0  0  0  0  0  0
   39.8410   26.2150   33.7200 C   0  0  0  0  0  0  0  0  0  0  0  0
   38.9300   25.7270   33.5160 H   0  0  0  0  0  0  0  0  0  0  0  0
   39.4070   27.2620   33.9600 H   0  0  0  0  0  0  0  0  0  0  0  0
   41.8480   26.2480   30.7620 C   0  0  0  0  0  0  0  0  0  0  0  0
   40.8720   25.7710   31.6740 C   0  0  0  0  0  0  0  0  0  0  0  0
   40.8050   26.5610   32.7470 C   0  0  0  0  0  0  0  0  0  0  0  0
   41.6050   27.6900   32.9090 N   0  0  0  0  0  0  0  0  0  0  0  0
   42.4950   28.0750   32.0160 C   0  0  0  0  0  0  0  0  0  0  0  0
   42.6210   27.3490   30.9280 N   0  0  0  0  0  0  0  0  0  0  0  0
   42.0680   25.7430   29.8030 H   0  0  0  0  0  0  0  0  0  0  0  0
   43.0560   28.9420   32.2200 H   0  0  0  0  0  0  0  0  0  0  0  0
   40.1940   24.5990   31.2550 C   0  0  0  0  0  0  0  0  0  0  0  0
   40.6520   23.4450   31.9430 F   0  0  0  0  0  0  0  0  0  0  0  0
   40.4530   24.0050   30.0770 F   0  0  0  0  0  0  0  0  0  0  0  0
   38.9050   24.3710   31.7230 F   0  0  0  0  0  0  0  0  0  0  0  0
  1  4  1  0  0  0  0
  1  3  1  0  0  0  0
  2  1  1  0  0  0  0
  4  5  1  0  0  0  0
  4  7  1  1  0  0  0
  5  8  1  0  0  0  0
  6 10  1  6  0  0  0
  6 11  1  0  0  0  0
  6  4  1  0  0  0  0
  6  5  1  0  0  0  0
  9  5  1  0  0  0  0
 11 18  1  0  0  0  0
 12 13  2  0  0  0  0
 12 11  1  0  0  0  0
 13 15  1  0  0  0  0
 14 13  1  0  0  0  0
 15 16  2  0  0  0  0
 15 17  1  0  0  0  0
 17 20  1  0  0  0  0
 18 17  1  0  0  0  0
 18 19  2  0  0  0  0
 21 23  1  0  0  0  0
 21  1  1  0  0  0  0
 22 21  1  0  0  0  0
 24 29  2  0  0  0  0
 24 25  1  0  0  0  0
 25 26  2  0  0  0  0
 26 27  1  0  0  0  0
 26 21  1  0  0  0  0
 28 31  1  0  0  0  0
 28 27  2  0  0  0  0
 29 28  1  0  0  0  0
 30 24  1  0  0  0  0
 32 25  1  0  0  0  0
 32 35  1  0  0  0  0
 32 33  1  0  0  0  0
 34 32  1  0  0  0  0
M  END
>  <minimizedAffinity>
-4.28362989

>  <minimizedRMSD>
4.49741793

$$$$
