
 OpenBabel03262517123D

 33 36  0  0  1  0  0  0  0  0999 V2000
   37.5640   25.9820   33.8010 N   0  0  0  0  0  0  0  0  0  0  0  0
   37.5420   24.6390   33.6080 C   0  0  0  0  0  0  0  0  0  0  0  0
   37.6360   24.0370   32.3820 C   0  0  0  0  0  0  0  0  0  0  0  0
   37.7620   24.8160   31.2480 C   0  0  0  0  0  0  0  0  0  0  0  0
   37.8490   24.2800   30.1170 O   0  0  0  0  0  0  0  0  0  0  0  0
   37.7870   26.1440   31.3820 N   0  0  0  0  0  0  0  0  0  0  0  0
   37.6910   26.6660   32.6100 C   0  0  0  0  0  0  0  0  0  0  0  0
   37.7160   27.9450   32.6940 O   0  0  0  0  0  0  0  0  0  0  0  0
   37.4270   24.0230   34.4830 H   0  0  0  0  0  0  0  0  0  0  0  0
   37.6120   22.9600   32.3080 H   0  0  0  0  0  0  0  0  0  0  0  0
   38.0220   26.3380   36.3300 C   0  0  1  0  0  0  0  0  0  0  0  0
   38.7680   27.3090   35.4740 C   0  0  0  0  0  0  0  0  0  0  0  0
   37.4860   26.7100   35.0140 C   0  0  1  0  0  0  0  0  0  0  0  0
   37.4710   26.7550   37.1820 H   0  0  0  0  0  0  0  0  0  0  0  0
   38.8600   28.3660   35.7550 H   0  0  0  0  0  0  0  0  0  0  0  0
   39.7280   26.9010   35.0650 H   0  0  0  0  0  0  0  0  0  0  0  0
   36.6460   27.4550   34.9950 H   0  0  0  0  0  0  0  0  0  0  0  0
   38.6230   25.0130   36.6440 C   0  0  0  0  0  0  0  0  0  0  0  0
   38.0520   24.3390   37.7340 C   0  0  0  0  0  0  0  0  0  0  0  0
   38.5850   23.0940   38.0760 C   0  0  0  0  0  0  0  0  0  0  0  0
   39.6230   22.6170   37.3330 N   0  0  0  0  0  0  0  0  0  0  0  0
   40.1310   23.3080   36.2960 C   0  0  0  0  0  0  0  0  0  0  0  0
   39.6470   24.5010   35.9390 N   0  0  0  0  0  0  0  0  0  0  0  0
   37.2310   24.7360   38.3100 H   0  0  0  0  0  0  0  0  0  0  0  0
   38.1510   22.5640   38.9180 H   0  0  0  0  0  0  0  0  0  0  0  0
   40.9500   22.8410   35.7740 H   0  0  0  0  0  0  0  0  0  0  0  0
   37.9840   29.1690   27.3000 H   0  0  0  0  0  0  0  0  0  0  0  0
   37.8840   28.4990   28.0920 N   0  0  0  0  0  0  0  0  0  0  0  0
   37.2880   29.1460   29.2610 C   0  0  0  0  0  0  0  0  0  0  0  0
   36.8300   27.9900   30.1590 C   0  0  0  0  0  0  0  0  0  0  0  0
   37.9160   26.9230   30.2050 C   0  0  0  0  0  0  0  0  0  0  0  0
   39.2200   27.5560   29.9270 C   0  0  0  0  0  0  0  0  0  0  0  0
   39.2020   28.0560   28.4750 C   0  0  0  0  0  0  0  0  0  0  0  0
  1 13  1  0  0  0  0
  2  1  1  0  0  0  0
  2  9  1  0  0  0  0
  3  2  2  0  0  0  0
  4  6  1  0  0  0  0
  4  3  1  0  0  0  0
  5  4  2  0  0  0  0
  6  7  1  0  0  0  0
  7  8  2  0  0  0  0
  7  1  1  0  0  0  0
 10  3  1  0  0  0  0
 11 18  1  0  0  0  0
 11 14  1  1  0  0  0
 12 15  1  0  0  0  0
 12 11  1  0  0  0  0
 13 17  1  1  0  0  0
 13 12  1  0  0  0  0
 13 11  1  0  0  0  0
 16 12  1  0  0  0  0
 18 19  1  0  0  0  0
 19 20  2  0  0  0  0
 19 24  1  0  0  0  0
 20 25  1  0  0  0  0
 21 20  1  0  0  0  0
 22 21  2  0  0  0  0
 23 22  1  0  0  0  0
 23 18  2  0  0  0  0
 26 22  1  0  0  0  0
 27 28  1  0  0  0  0
 28 33  1  0  0  0  0
 28 29  1  0  0  0  0
 29 30  1  0  0  0  0
 30 31  1  0  0  0  0
 31  6  1  0  0  0  0
 32 31  1  0  0  0  0
 33 32  1  0  0  0  0
M  END
>  <minimizedAffinity>
-5.29071188

>  <minimizedRMSD>
0.990764022

$$$$
