
 OpenBabel03262519423D

 25 26  0  0  1  0  0  0  0  0999 V2000
   38.1570   24.4380   36.9960 C   0  0  1  0  0  0  0  0  0  0  0  0
   37.2770   24.1010   36.3710 H   0  0  0  0  0  0  0  0  0  0  0  0
   40.9780   21.9290   37.4120 C   0  0  0  0  0  0  0  0  0  0  0  0
   39.9400   22.8310   37.7260 C   0  0  0  0  0  0  0  0  0  0  0  0
   39.2320   23.4800   36.6790 C   0  0  0  0  0  0  0  0  0  0  0  0
   39.6170   23.1730   35.4160 N   0  0  0  0  0  0  0  0  0  0  0  0
   40.6000   22.3200   35.1250 C   0  0  0  0  0  0  0  0  0  0  0  0
   41.2840   21.6940   36.1290 N   0  0  0  0  0  0  0  0  0  0  0  0
   41.4900   21.4590   38.2500 H   0  0  0  0  0  0  0  0  0  0  0  0
   39.6990   23.0160   38.7700 H   0  0  0  0  0  0  0  0  0  0  0  0
   40.8630   22.1170   34.0780 H   0  0  0  0  0  0  0  0  0  0  0  0
   37.7200   24.3610   38.4440 C   0  0  0  0  0  0  0  0  0  0  0  0
   38.6190   24.5120   39.1020 H   0  0  0  0  0  0  0  0  0  0  0  0
   37.1700   23.4400   38.6940 H   0  0  0  0  0  0  0  0  0  0  0  0
   37.0770   25.2570   38.6170 H   0  0  0  0  0  0  0  0  0  0  0  0
   38.5050   25.8470   36.6480 C   0  0  0  0  0  0  0  0  0  0  0  0
   39.6250   25.9130   36.7360 H   0  0  0  0  0  0  0  0  0  0  0  0
   38.0300   26.5640   37.3620 H   0  0  0  0  0  0  0  0  0  0  0  0
   38.1660   26.1540   35.2540 C   0  0  0  0  0  0  0  0  0  0  0  0
   39.3260   26.7100   34.6910 C   0  0  0  0  0  3  0  0  0  0  0  0
   39.4190   27.1410   33.3610 C   0  0  0  0  0  3  0  0  0  0  0  0
   38.3410   27.0220   32.5640 N   0  0  0  0  0  0  0  0  0  0  0  0
   37.2240   26.4810   33.1220 C   0  0  0  0  0  0  0  0  0  0  0  0
   36.2880   26.3250   32.6020 H   0  0  0  0  0  0  0  0  0  0  0  0
   37.1720   26.0870   34.3770 N   0  0  0  0  0  0  0  0  0  0  0  0
  1  2  1  6  0  0  0
  1 12  1  0  0  0  0
  3  4  1  0  0  0  0
  3  9  1  0  0  0  0
  4 10  1  0  0  0  0
  5  1  1  0  0  0  0
  5  4  2  0  0  0  0
  6  5  1  0  0  0  0
  7  6  2  0  0  0  0
  7  8  1  0  0  0  0
  8  3  2  0  0  0  0
 11  7  1  0  0  0  0
 12 15  1  0  0  0  0
 12 14  1  0  0  0  0
 12 13  1  0  0  0  0
 16 17  1  0  0  0  0
 16  1  1  0  0  0  0
 16 18  1  0  0  0  0
 19 16  1  0  0  0  0
 20 19  1  0  0  0  0
 21 20  2  0  0  0  0
 22 23  2  0  0  0  0
 22 21  1  0  0  0  0
 23 25  1  0  0  0  0
 24 23  1  0  0  0  0
 25 19  2  0  0  0  0
M  END
>  <minimizedAffinity>
-3.96246648

>  <minimizedRMSD>
0.769496799

$$$$
