
 OpenBabel03262519543D

 25 27  0  0  1  0  0  0  0  0999 V2000
   38.0990   23.6980   34.4430 C   0  0  0  0  0  0  0  0  0  0  0  0
   38.2660   24.8850   33.7520 C   0  0  0  0  0  0  0  0  0  0  0  0
   37.8330   24.5850   32.4930 N   0  0  0  0  0  0  0  0  0  0  0  0
   37.4510   23.3260   32.4720 C   0  0  0  0  0  0  0  0  0  0  0  0
   37.6020   22.7270   33.6790 N   0  0  0  0  0  0  0  0  0  0  0  0
   38.6530   25.7990   34.1750 H   0  0  0  0  0  0  0  0  0  0  0  0
   37.0580   22.8310   31.5710 H   0  0  0  0  0  0  0  0  0  0  0  0
   38.4250   23.5050   35.8570 C   0  0  0  0  0  0  0  0  0  0  0  0
   39.6240   22.9240   36.2380 C   0  0  0  0  0  0  0  0  0  0  0  0
   39.8890   22.7610   37.6140 C   0  0  0  0  0  0  0  0  0  0  0  0
   38.9430   23.1870   38.4880 N   0  0  0  0  0  0  0  0  0  0  0  0
   37.7800   23.7500   38.0900 C   0  0  0  0  0  0  0  0  0  0  0  0
   37.5100   23.9140   36.7820 N   0  0  0  0  0  0  0  0  0  0  0  0
   40.3370   22.6060   35.5070 H   0  0  0  0  0  0  0  0  0  0  0  0
   40.8230   22.3090   37.9170 H   0  0  0  0  0  0  0  0  0  0  0  0
   37.0720   24.0650   38.8430 H   0  0  0  0  0  0  0  0  0  0  0  0
   37.2640   21.3490   33.9530 C   0  0  1  0  0  0  0  0  0  0  0  0
   36.0630   20.9950   34.7200 C   0  0  0  0  0  0  0  0  0  0  0  0
   35.9920   20.9280   33.2040 C   0  0  1  0  0  0  0  0  0  0  0  0
   38.0710   20.5950   33.9090 H   0  0  0  0  0  0  0  0  0  0  0  0
   36.0540   20.0350   35.2790 H   0  0  0  0  0  0  0  0  0  0  0  0
   35.5880   21.8130   35.2720 H   0  0  0  0  0  0  0  0  0  0  0  0
   35.9730   19.9350   32.7410 H   0  0  0  0  0  0  0  0  0  0  0  0
   35.1740   21.8900   32.6620 O   0  0  0  0  0  0  0  0  0  0  0  0
   35.0840   22.6800   33.2640 H   0  0  0  0  0  0  0  0  0  0  0  0
  1  8  1  0  0  0  0
  2  6  1  0  0  0  0
  2  1  2  0  0  0  0
  3  2  1  0  0  0  0
  4  3  2  0  0  0  0
  4  5  1  0  0  0  0
  5 17  1  0  0  0  0
  5  1  1  0  0  0  0
  7  4  1  0  0  0  0
  8  9  2  0  0  0  0
  8 13  1  0  0  0  0
  9 10  1  0  0  0  0
 10 15  1  0  0  0  0
 10 11  2  0  0  0  0
 12 11  1  0  0  0  0
 12 16  1  0  0  0  0
 13 12  2  0  0  0  0
 14  9  1  0  0  0  0
 17 20  1  1  0  0  0
 17 18  1  0  0  0  0
 18 22  1  0  0  0  0
 18 21  1  0  0  0  0
 19 23  1  6  0  0  0
 19 17  1  0  0  0  0
 19 18  1  0  0  0  0
 24 19  1  0  0  0  0
 24 25  1  0  0  0  0
M  END
>  <minimizedAffinity>
-3.87954664

>  <minimizedRMSD>
0.404655278

$$$$
