
 OpenBabel03262515453D

 29 30  0  0  1  0  0  0  0  0999 V2000
   38.8590   24.8520   34.5670 N   0  0  0  0  0  0  0  0  0  0  0  0
   39.9680   25.5920   33.9860 C   0  0  1  0  0  0  0  0  0  0  0  0
   39.4970   26.9720   33.5610 C   0  0  0  0  0  0  0  0  0  0  0  0
   38.1040   27.0050   33.5640 O   0  0  0  0  0  0  0  0  0  0  0  0
   37.5920   25.9590   32.8150 C   0  0  0  0  0  0  0  0  0  0  0  0
   37.7800   24.6850   33.6030 C   0  0  0  0  0  0  0  0  0  0  0  0
   40.4000   25.0190   33.1670 H   0  0  0  0  0  0  0  0  0  0  0  0
   39.8850   27.7830   34.2010 H   0  0  0  0  0  0  0  0  0  0  0  0
   39.8490   27.1270   32.5240 H   0  0  0  0  0  0  0  0  0  0  0  0
   38.0180   25.9120   31.7930 H   0  0  0  0  0  0  0  0  0  0  0  0
   36.4890   26.1140   32.7520 H   0  0  0  0  0  0  0  0  0  0  0  0
   38.1620   23.9200   32.8720 H   0  0  0  0  0  0  0  0  0  0  0  0
   36.8620   24.2770   34.0420 H   0  0  0  0  0  0  0  0  0  0  0  0
   38.1190   24.1710   38.1630 C   0  0  0  0  0  0  0  0  0  0  0  0
   38.0070   24.7830   36.9070 C   0  0  0  0  0  0  0  0  0  0  0  0
   38.8280   24.3580   35.8870 C   0  0  0  0  0  0  0  0  0  0  0  0
   39.7030   23.3660   36.1580 N   0  0  0  0  0  0  0  0  0  0  0  0
   39.8090   22.7850   37.3540 C   0  0  0  0  0  0  0  0  0  0  0  0
   39.0100   23.1880   38.3680 N   0  0  0  0  0  0  0  0  0  0  0  0
   37.4120   24.6020   38.8750 H   0  0  0  0  0  0  0  0  0  0  0  0
   37.3230   25.5730   36.6560 H   0  0  0  0  0  0  0  0  0  0  0  0
   40.4950   21.9900   37.6080 H   0  0  0  0  0  0  0  0  0  0  0  0
   40.9050   25.7920   35.0720 N   0  0  0  0  0  0  0  0  0  0  0  0
   40.5860   26.1620   35.9800 H   0  0  0  0  0  0  0  0  0  0  0  0
   42.2550   25.4470   34.7810 C   0  0  0  0  0  0  0  0  0  0  0  0
   42.6610   25.2530   33.4310 N   0  0  0  0  0  0  0  0  0  0  0  0
   43.1490   25.2950   35.6760 O   0  0  0  0  0  0  0  0  0  0  0  0
   42.7200   24.3400   32.8870 H   0  0  0  0  0  0  0  0  0  0  0  0
   43.0020   25.5790   32.4880 H   0  0  0  0  0  0  0  0  0  0  0  0
  1 16  1  0  0  0  0
  2  7  1  6  0  0  0
  2  1  1  0  0  0  0
  2 23  1  0  0  0  0
  3  4  1  0  0  0  0
  3  2  1  0  0  0  0
  3  8  1  0  0  0  0
  5  4  1  0  0  0  0
  5  6  1  0  0  0  0
  6 13  1  0  0  0  0
  6  1  1  0  0  0  0
  9  3  1  0  0  0  0
 10  5  1  0  0  0  0
 11  5  1  0  0  0  0
 12  6  1  0  0  0  0
 14 19  1  0  0  0  0
 14 20  1  0  0  0  0
 15 14  2  0  0  0  0
 16 17  2  0  0  0  0
 16 15  1  0  0  0  0
 17 18  1  0  0  0  0
 18 22  1  0  0  0  0
 18 19  2  0  0  0  0
 21 15  1  0  0  0  0
 23 24  1  0  0  0  0
 25 23  1  0  0  0  0
 25 27  2  0  0  0  0
 26 25  1  0  0  0  0
 28 26  1  0  0  0  0
 29 26  1  0  0  0  0
M  END
>  <minimizedAffinity>
-3.84330654

>  <minimizedRMSD>
2.06964779

$$$$
