
 OpenBabel03262519373D

 30 31  0  0  1  0  0  0  0  0999 V2000
   37.7670   25.4540   34.3330 N   0  0  0  0  0  0  0  0  0  0  0  0
   37.1450   25.4020   33.0420 C   0  0  0  0  0  0  0  0  0  0  0  0
   36.8820   26.8360   32.6660 C   0  0  0  0  0  0  0  0  0  0  0  0
   37.4590   27.6460   33.8140 C   0  0  0  0  0  0  0  0  0  0  0  0
   38.5590   26.6580   34.2590 C   0  0  2  0  0  0  0  0  0  0  0  0
   37.9140   25.0070   32.3390 H   0  0  0  0  0  0  0  0  0  0  0  0
   36.2530   24.7510   33.0210 H   0  0  0  0  0  0  0  0  0  0  0  0
   35.7850   27.0050   32.6940 H   0  0  0  0  0  0  0  0  0  0  0  0
   37.3210   27.1270   31.6860 H   0  0  0  0  0  0  0  0  0  0  0  0
   37.9820   28.5380   33.4270 H   0  0  0  0  0  0  0  0  0  0  0  0
   36.7300   27.8360   34.6100 H   0  0  0  0  0  0  0  0  0  0  0  0
   38.9440   26.9500   35.2590 H   0  0  0  0  0  0  0  0  0  0  0  0
   38.6940   24.3820   34.5760 C   0  0  0  0  0  0  0  0  0  0  0  0
   39.7300   24.5810   34.2600 H   0  0  0  0  0  0  0  0  0  0  0  0
   38.3780   23.4700   34.0260 H   0  0  0  0  0  0  0  0  0  0  0  0
   37.9340   24.1540   38.2870 C   0  0  0  0  0  0  0  0  0  0  0  0
   37.8410   24.5180   36.9410 C   0  0  0  0  0  0  0  0  0  0  0  0
   38.7610   24.0170   36.0210 C   0  0  0  0  0  0  0  0  0  0  0  0
   39.7220   23.1780   36.5000 N   0  0  0  0  0  0  0  0  0  0  0  0
   39.7950   22.8400   37.8000 C   0  0  0  0  0  0  0  0  0  0  0  0
   38.9050   23.3270   38.6770 N   0  0  0  0  0  0  0  0  0  0  0  0
   37.1800   24.5910   38.9180 H   0  0  0  0  0  0  0  0  0  0  0  0
   37.0770   25.1820   36.5670 H   0  0  0  0  0  0  0  0  0  0  0  0
   40.5630   22.1710   38.1840 H   0  0  0  0  0  0  0  0  0  0  0  0
   39.5940   26.6200   33.3750 O   0  0  0  0  0  0  0  0  0  0  0  0
   40.8890   27.0890   33.6610 C   0  0  0  0  0  0  0  0  0  0  0  0
   41.4270   26.6490   34.9020 N   0  0  0  0  0  0  0  0  0  0  0  0
   41.5730   27.8350   32.9280 O   0  0  0  0  0  0  0  0  0  0  0  0
   42.4570   26.4690   34.9460 H   0  0  0  0  0  0  0  0  0  0  0  0
   41.8340   26.3280   35.7990 H   0  0  0  0  0  0  0  0  0  0  0  0
  1 13  1  0  0  0  0
  2  1  1  0  0  0  0
  3  8  1  0  0  0  0
  3  2  1  0  0  0  0
  3  4  1  0  0  0  0
  4  5  1  0  0  0  0
  4 11  1  0  0  0  0
  5  1  1  0  0  0  0
  5 12  1  1  0  0  0
  6  2  1  0  0  0  0
  7  2  1  0  0  0  0
  9  3  1  0  0  0  0
 10  4  1  0  0  0  0
 13 18  1  0  0  0  0
 14 13  1  0  0  0  0
 15 13  1  0  0  0  0
 16 21  1  0  0  0  0
 16 22  1  0  0  0  0
 17 16  2  0  0  0  0
 18 19  2  0  0  0  0
 18 17  1  0  0  0  0
 19 20  1  0  0  0  0
 20 24  1  0  0  0  0
 20 21  2  0  0  0  0
 23 17  1  0  0  0  0
 25 26  1  0  0  0  0
 25  5  1  0  0  0  0
 26 27  1  0  0  0  0
 27 29  1  0  0  0  0
 27 30  1  0  0  0  0
 28 26  2  0  0  0  0
M  END
>  <minimizedAffinity>
-4.07954073

>  <minimizedRMSD>
0.525443852

$$$$
