
 OpenBabel03262514353D

 25 25  0  0  0  0  0  0  0  0999 V2000
   38.6560   25.9630   34.8080 C   0  0  0  0  0  0  0  0  0  0  0  0
   40.7450   23.2200   36.0750 C   0  0  0  0  0  0  0  0  0  0  0  0
   40.0290   22.7350   37.1650 C   0  0  0  0  0  0  0  0  0  0  0  0
   38.8270   23.3610   37.4500 C   0  0  0  0  0  0  0  0  0  0  0  0
   38.4270   24.3940   36.6650 N   0  0  0  0  0  0  0  0  0  0  0  0
   39.1610   24.8300   35.6150 C   0  0  0  0  0  0  0  0  0  0  0  0
   40.3410   24.2250   35.3230 N   0  0  0  0  0  0  0  0  0  0  0  0
   41.6980   22.8030   35.7640 H   0  0  0  0  0  0  0  0  0  0  0  0
   38.2560   23.0000   38.2900 H   0  0  0  0  0  0  0  0  0  0  0  0
   40.5750   21.6490   37.9110 N   0  0  0  0  0  0  0  0  0  0  0  0
   40.3070   21.7050   38.9380 H   0  0  0  0  0  0  0  0  0  0  0  0
   41.1440   20.9570   37.4000 H   0  0  0  0  0  0  0  0  0  0  0  0
   38.9060   25.7250   33.3290 C   0  0  0  0  0  0  0  0  0  0  0  0
   39.6360   26.4750   32.9700 H   0  0  0  0  0  0  0  0  0  0  0  0
   39.3720   24.7240   33.2050 H   0  0  0  0  0  0  0  0  0  0  0  0
   37.9710   25.7290   32.7460 H   0  0  0  0  0  0  0  0  0  0  0  0
   37.1780   26.1790   35.0830 C   0  0  0  0  0  0  0  0  0  0  0  0
   36.8710   27.2170   34.8970 H   0  0  0  0  0  0  0  0  0  0  0  0
   36.5700   25.4460   34.4890 H   0  0  0  0  0  0  0  0  0  0  0  0
   37.0280   25.9070   36.1690 H   0  0  0  0  0  0  0  0  0  0  0  0
   39.3840   27.2150   35.2690 C   0  0  0  0  0  0  0  0  0  0  0  0
   39.3300   28.0160   34.5060 H   0  0  0  0  0  0  0  0  0  0  0  0
   40.4380   26.9790   35.5190 H   0  0  0  0  0  0  0  0  0  0  0  0
   38.7280   27.6650   36.4250 O   0  0  0  0  0  0  0  0  0  0  0  0
   39.1130   28.5140   36.7260 H   0  0  0  0  0  0  0  0  0  0  0  0
  1 17  1  0  0  0  0
  1 21  1  0  0  0  0
  1  6  1  0  0  0  0
  2  3  1  0  0  0  0
  3  4  2  0  0  0  0
  3 10  1  0  0  0  0
  4  9  1  0  0  0  0
  5  4  1  0  0  0  0
  6  5  2  0  0  0  0
  7  6  1  0  0  0  0
  7  2  2  0  0  0  0
  8  2  1  0  0  0  0
 10 11  1  0  0  0  0
 12 10  1  0  0  0  0
 13  1  1  0  0  0  0
 14 13  1  0  0  0  0
 15 13  1  0  0  0  0
 16 13  1  0  0  0  0
 17 20  1  0  0  0  0
 18 17  1  0  0  0  0
 19 17  1  0  0  0  0
 21 23  1  0  0  0  0
 21 24  1  0  0  0  0
 22 21  1  0  0  0  0
 24 25  1  0  0  0  0
M  END
>  <minimizedAffinity>
-4.13861561

>  <minimizedRMSD>
0.905134559

$$$$
