
 OpenBabel03262516563D

 37 40  0  0  1  0  0  0  0  0999 V2000
   37.0110   21.4920   34.1890 C   0  0  0  0  0  0  0  0  0  0  0  0
   36.6210   21.2840   35.3540 O   0  0  0  0  0  0  0  0  0  0  0  0
   36.4570   20.6870   33.1830 N   0  0  0  0  0  0  0  0  0  0  0  0
   36.0540   19.3310   33.6140 C   0  0  0  0  0  0  0  0  0  0  0  0
   35.2240   18.6280   32.5970 C   0  0  0  0  0  0  0  0  0  0  0  0
   34.3520   19.4200   31.9070 O   0  0  0  0  0  0  0  0  0  0  0  0
   34.7450   20.6480   31.5650 C   0  0  0  0  0  0  0  0  0  0  0  0
   36.2010   20.9230   31.7630 C   0  0  1  0  0  0  0  0  0  0  0  0
   35.6480   19.3500   34.6320 H   0  0  0  0  0  0  0  0  0  0  0  0
   37.0300   18.7770   33.6880 H   0  0  0  0  0  0  0  0  0  0  0  0
   34.6770   17.8140   33.1050 H   0  0  0  0  0  0  0  0  0  0  0  0
   35.8810   18.1250   31.8390 H   0  0  0  0  0  0  0  0  0  0  0  0
   34.4810   20.8890   30.5040 H   0  0  0  0  0  0  0  0  0  0  0  0
   34.1870   21.3900   32.1790 H   0  0  0  0  0  0  0  0  0  0  0  0
   36.8730   20.3050   31.1400 H   0  0  0  0  0  0  0  0  0  0  0  0
   40.1260   23.2980   33.4080 C   0  0  0  0  0  0  0  0  0  0  0  0
   39.7810   24.6260   33.6860 C   0  0  0  0  0  0  0  0  0  0  0  0
   38.5010   24.8770   34.1300 C   0  0  0  0  0  0  0  0  0  0  0  0
   37.6860   23.8030   34.2580 N   0  0  0  0  0  0  0  0  0  0  0  0
   38.0060   22.5560   33.9990 C   0  0  0  0  0  0  0  0  0  0  0  0
   39.2650   22.2960   33.5610 N   0  0  0  0  0  0  0  0  0  0  0  0
   41.1370   23.1630   33.0650 H   0  0  0  0  0  0  0  0  0  0  0  0
   40.4240   25.4820   33.5840 H   0  0  0  0  0  0  0  0  0  0  0  0
   38.0760   25.8470   34.3880 H   0  0  0  0  0  0  0  0  0  0  0  0
   36.4420   22.3340   31.3540 C   0  0  0  0  0  0  0  0  0  0  0  0
   37.4640   22.9390   30.7710 N   0  0  0  0  0  0  0  0  0  0  0  0
   37.2080   24.1890   30.5870 O   0  0  0  0  0  0  0  0  0  0  0  0
   35.9890   24.4380   31.0550 C   0  0  0  0  0  0  0  0  0  0  0  0
   35.4580   23.2910   31.5550 N   0  0  0  0  0  0  0  0  0  0  0  0
   35.2390   25.7130   31.0770 C   0  0  0  0  0  0  0  0  0  0  0  0
   34.0140   25.7750   30.8410 O   0  0  0  0  0  0  0  0  0  0  0  0
   36.0100   26.8960   31.3930 N   0  0  0  0  0  0  0  0  0  0  0  0
   36.4110   27.6710   32.5760 C   0  0  0  0  0  0  0  0  0  0  0  0
   37.8890   27.9370   32.4010 C   0  0  0  0  0  0  0  0  0  0  0  0
   38.0990   27.8400   30.8940 C   0  0  0  0  0  0  0  0  0  0  0  0
   36.6780   27.7140   30.3690 C   0  0  0  0  0  0  0  0  0  0  0  0
   36.7270   27.1610   29.4150 H   0  0  0  0  0  0  0  0  0  0  0  0
  1  2  2  0  0  0  0
  3  4  1  0  0  0  0
  3  1  1  0  0  0  0
  4 10  1  0  0  0  0
  4  9  1  0  0  0  0
  5 11  1  0  0  0  0
  5  4  1  0  0  0  0
  6  5  1  0  0  0  0
  7  8  1  0  0  0  0
  7  6  1  0  0  0  0
  7 14  1  0  0  0  0
  8 15  1  6  0  0  0
  8  3  1  0  0  0  0
 12  5  1  0  0  0  0
 13  7  1  0  0  0  0
 16 21  2  0  0  0  0
 16 17  1  0  0  0  0
 17 18  2  0  0  0  0
 18 19  1  0  0  0  0
 18 24  1  0  0  0  0
 20  1  1  0  0  0  0
 20 19  2  0  0  0  0
 21 20  1  0  0  0  0
 22 16  1  0  0  0  0
 23 17  1  0  0  0  0
 25 29  1  0  0  0  0
 25  8  1  0  0  0  0
 26 25  2  0  0  0  0
 27 26  1  0  0  0  0
 27 28  1  0  0  0  0
 28 30  1  0  0  0  0
 28 29  2  0  0  0  0
 30 32  1  0  0  0  0
 31 30  2  0  0  0  0
 32 33  1  0  0  0  0
 34 33  1  0  0  0  0
 35 34  1  0  0  0  0
 36 35  1  0  0  0  0
 36 32  1  0  0  0  0
 37 36  1  0  0  0  0
M  END
>  <minimizedAffinity>
-4.69658422

>  <minimizedRMSD>
4.44160986

$$$$
