
 OpenBabel03262513203D

 30 31  0  0  0  0  0  0  0  0999 V2000
   37.2360   21.9700   34.7120 C   0  0  0  0  0  0  0  0  0  0  0  0
   36.3070   20.9230   34.8780 C   0  0  0  0  0  0  0  0  0  0  0  0
   35.5390   20.6190   33.7750 C   0  0  0  0  0  0  0  0  0  0  0  0
   35.6500   21.2640   32.6050 N   0  0  0  0  0  0  0  0  0  0  0  0
   36.5660   22.2830   32.4740 C   0  0  0  0  0  0  0  0  0  0  0  0
   37.3490   22.6110   33.5580 N   0  0  0  0  0  0  0  0  0  0  0  0
   36.2180   20.3990   35.8290 H   0  0  0  0  0  0  0  0  0  0  0  0
   34.8260   19.8240   33.8790 H   0  0  0  0  0  0  0  0  0  0  0  0
   40.1530   22.3390   36.8980 C   0  0  0  0  0  0  0  0  0  0  0  0
   39.6210   23.0380   38.0270 C   0  0  0  0  0  0  0  0  0  0  0  0
   38.2670   23.3470   37.9700 C   0  0  0  0  0  0  0  0  0  0  0  0
   37.5170   22.9890   36.8840 N   0  0  0  0  0  0  0  0  0  0  0  0
   38.0700   22.3300   35.8460 C   0  0  0  0  0  0  0  0  0  0  0  0
   39.3490   22.0310   35.8850 N   0  0  0  0  0  0  0  0  0  0  0  0
   41.1860   22.0510   36.8390 H   0  0  0  0  0  0  0  0  0  0  0  0
   40.2800   23.2790   38.8350 H   0  0  0  0  0  0  0  0  0  0  0  0
   37.8320   23.8760   38.8090 H   0  0  0  0  0  0  0  0  0  0  0  0
   36.7160   23.0170   31.1980 C   0  0  0  0  0  0  0  0  0  0  0  0
   37.7880   23.2920   30.9970 H   0  0  0  0  0  0  0  0  0  0  0  0
   36.2750   22.3870   30.4010 H   0  0  0  0  0  0  0  0  0  0  0  0
   35.8420   24.2600   31.2410 C   0  0  0  0  0  0  0  0  0  0  0  0
   34.8590   24.0930   30.7910 H   0  0  0  0  0  0  0  0  0  0  0  0
   35.6470   24.4960   32.3240 H   0  0  0  0  0  0  0  0  0  0  0  0
   36.6070   25.3320   30.6320 N   0  0  0  0  0  0  0  0  0  0  0  0
   37.4710   25.1690   30.0610 H   0  0  0  0  0  0  0  0  0  0  0  0
   36.1870   26.6840   30.8020 C   0  0  0  0  0  0  0  0  0  0  0  0
   36.4770   27.6340   29.7620 N   0  0  0  0  0  0  0  0  0  0  0  0
   35.5730   27.1250   31.8010 O   0  0  0  0  0  0  0  0  0  0  0  0
   37.0590   28.4330   30.1280 H   0  0  0  0  0  0  0  0  0  0  0  0
   36.5210   28.1220   28.8520 H   0  0  0  0  0  0  0  0  0  0  0  0
  1  2  1  0  0  0  0
  1 13  1  0  0  0  0
  2  7  1  0  0  0  0
  3  8  1  0  0  0  0
  3  2  2  0  0  0  0
  4  3  1  0  0  0  0
  5  4  2  0  0  0  0
  5  6  1  0  0  0  0
  6  1  2  0  0  0  0
  9 10  1  0  0  0  0
 10 16  1  0  0  0  0
 11 10  2  0  0  0  0
 11 17  1  0  0  0  0
 12 11  1  0  0  0  0
 13 14  1  0  0  0  0
 13 12  2  0  0  0  0
 14  9  2  0  0  0  0
 15  9  1  0  0  0  0
 18 21  1  0  0  0  0
 18  5  1  0  0  0  0
 19 18  1  0  0  0  0
 20 18  1  0  0  0  0
 21 23  1  0  0  0  0
 22 21  1  0  0  0  0
 24 26  1  0  0  0  0
 24 21  1  0  0  0  0
 25 24  1  0  0  0  0
 26 28  2  0  0  0  0
 27 29  1  0  0  0  0
 27 26  1  0  0  0  0
 30 27  1  0  0  0  0
M  END
>  <minimizedAffinity>
-5.01924372

>  <minimizedRMSD>
0.766006351

$$$$
