
 OpenBabel03262519143D

 28 30  0  0  0  0  0  0  0  0999 V2000
   38.8050   24.0850   36.0460 C   0  0  0  0  0  0  0  0  0  0  0  0
   39.1620   25.1760   35.2210 C   0  0  0  0  0  0  0  0  0  0  0  0
   40.4470   25.2500   34.6860 C   0  0  0  0  0  0  0  0  0  0  0  0
   41.2970   24.2360   35.0030 N   0  0  0  0  0  0  0  0  0  0  0  0
   40.9100   23.1800   35.8190 C   0  0  0  0  0  0  0  0  0  0  0  0
   39.6780   23.1360   36.3170 N   0  0  0  0  0  0  0  0  0  0  0  0
   37.7910   24.0960   36.4260 H   0  0  0  0  0  0  0  0  0  0  0  0
   40.7990   26.0320   34.0560 H   0  0  0  0  0  0  0  0  0  0  0  0
   38.2710   26.2670   34.8810 C   0  0  0  0  0  0  0  0  0  0  0  0
   38.0520   27.3830   35.6780 C   0  0  0  0  0  0  0  0  0  0  0  0
   37.1810   28.3130   35.2030 C   0  0  0  0  0  0  0  0  0  0  0  0
   36.5770   28.0890   33.9740 C   0  0  0  0  0  0  0  0  0  0  0  0
   37.2760   26.4630   33.4420 S   0  0  0  0  0  0  0  0  0  0  0  0
   38.5370   27.5310   36.6290 H   0  0  0  0  0  0  0  0  0  0  0  0
   36.8800   29.2410   35.6670 H   0  0  0  0  0  0  0  0  0  0  0  0
   35.6510   28.7930   33.1690 C   0  0  0  0  0  0  0  0  0  0  0  0
   35.0920   28.2360   32.2170 O   0  0  0  0  0  0  0  0  0  0  0  0
   35.3350   30.1690   33.4350 N   0  0  0  0  0  0  0  0  0  0  0  0
   34.3700   30.5290   33.2530 H   0  0  0  0  0  0  0  0  0  0  0  0
   36.1210   30.7750   33.8160 H   0  0  0  0  0  0  0  0  0  0  0  0
   41.9450   22.1640   36.0820 C   0  0  0  0  0  0  0  0  0  0  0  0
   43.1240   22.3210   35.4090 C   0  0  0  0  0  0  0  0  0  0  0  0
   44.1540   20.8710   36.0040 S   0  0  0  0  0  0  0  0  0  0  0  0
   42.6850   20.3270   37.1060 C   0  0  0  0  0  0  0  0  0  0  0  0
   41.9320   21.1190   36.8680 N   0  0  0  0  0  0  0  0  0  0  0  0
   43.6220   22.9910   34.6720 H   0  0  0  0  0  0  0  0  0  0  0  0
   42.5550   19.2200   37.9930 O   0  0  0  0  0  0  0  0  0  0  0  0
   43.2470   19.1170   38.7440 H   0  0  0  0  0  0  0  0  0  0  0  0
  1  6  1  0  0  0  0
  1  7  1  0  0  0  0
  2  1  2  0  0  0  0
  3  4  2  0  0  0  0
  3  2  1  0  0  0  0
  4  5  1  0  0  0  0
  5 21  1  0  0  0  0
  5  6  2  0  0  0  0
  8  3  1  0  0  0  0
  9  2  1  0  0  0  0
  9 10  2  0  0  0  0
 10 14  1  0  0  0  0
 11 15  1  0  0  0  0
 11 10  1  0  0  0  0
 12 11  2  0  0  0  0
 13 12  1  0  0  0  0
 13  9  1  0  0  0  0
 16 18  1  0  0  0  0
 16 12  1  0  0  0  0
 17 16  2  0  0  0  0
 18 20  1  0  0  0  0
 19 18  1  0  0  0  0
 21 25  1  0  0  0  0
 22 23  1  0  0  0  0
 22 21  2  0  0  0  0
 23 24  1  0  0  0  0
 24 27  1  0  0  0  0
 25 24  2  0  0  0  0
 26 22  1  0  0  0  0
 27 28  1  0  0  0  0
M  END
>  <minimizedAffinity>
-4.51056862

>  <minimizedRMSD>
0.27485773

$$$$
