
 OpenBabel03262519593D

 28 30  0  0  1  0  0  0  0  0999 V2000
   38.9250   23.7150   33.6000 C   0  0  0  0  0  0  0  0  0  0  0  0
   39.2660   22.6580   32.7570 C   0  0  0  0  0  0  0  0  0  0  0  0
   39.6340   21.6650   33.6130 N   0  0  0  0  0  0  0  0  0  0  0  0
   39.5090   22.1310   34.8530 C   0  0  0  0  0  0  0  0  0  0  0  0
   39.0740   23.3870   34.8730 N   0  0  0  0  0  0  0  0  0  0  0  0
   39.2410   22.6370   31.6600 H   0  0  0  0  0  0  0  0  0  0  0  0
   39.7550   21.4920   35.7080 H   0  0  0  0  0  0  0  0  0  0  0  0
   38.4750   25.0220   33.1460 C   0  0  0  0  0  0  0  0  0  0  0  0
   39.4200   26.0500   32.9480 C   0  0  0  0  0  0  0  0  0  0  0  0
   38.9420   27.3020   32.5030 C   0  0  0  0  0  0  0  0  0  0  0  0
   37.6060   27.4300   32.2970 N   0  0  0  0  0  0  0  0  0  0  0  0
   36.7330   26.4140   32.5000 C   0  0  0  0  0  0  0  0  0  0  0  0
   37.1630   25.2110   32.9250 N   0  0  0  0  0  0  0  0  0  0  0  0
   40.4690   25.8840   33.1300 H   0  0  0  0  0  0  0  0  0  0  0  0
   39.6690   28.0650   32.3580 H   0  0  0  0  0  0  0  0  0  0  0  0
   35.7070   26.6770   32.2910 H   0  0  0  0  0  0  0  0  0  0  0  0
   38.8490   24.1090   36.0720 C   0  0  1  0  0  0  0  0  0  0  0  0
   37.6240   24.7490   36.4670 C   0  0  0  0  0  0  0  0  0  0  0  0
   38.0320   23.3800   37.0930 C   0  0  2  0  0  0  0  0  0  0  0  0
   39.8020   24.6150   36.4650 H   0  0  0  0  0  0  0  0  0  0  0  0
   36.7150   24.6880   35.8460 H   0  0  0  0  0  0  0  0  0  0  0  0
   37.5960   25.6120   37.1520 H   0  0  0  0  0  0  0  0  0  0  0  0
   38.4300   23.5520   38.5430 C   0  0  0  0  0  0  0  0  0  0  0  0
   37.8660   22.5570   39.3120 F   0  0  0  0  0  0  0  0  0  0  0  0
   39.8650   23.2870   38.6490 F   0  0  0  0  0  0  0  0  0  0  0  0
   38.2520   24.7910   39.0260 F   0  0  0  0  0  0  0  0  0  0  0  0
   36.9650   22.4940   36.8760 O   0  0  0  0  0  0  0  0  0  0  0  0
   37.4010   21.5980   36.7130 H   0  0  0  0  0  0  0  0  0  0  0  0
  1  5  1  0  0  0  0
  2  1  2  0  0  0  0
  2  3  1  0  0  0  0
  3  4  2  0  0  0  0
  4  5  1  0  0  0  0
  4  7  1  0  0  0  0
  5 17  1  0  0  0  0
  6  2  1  0  0  0  0
  8  1  1  0  0  0  0
  9 14  1  0  0  0  0
  9  8  1  0  0  0  0
 10  9  2  0  0  0  0
 11 12  2  0  0  0  0
 11 10  1  0  0  0  0
 12 13  1  0  0  0  0
 13  8  2  0  0  0  0
 15 10  1  0  0  0  0
 16 12  1  0  0  0  0
 17 20  1  1  0  0  0
 17 18  1  0  0  0  0
 17 19  1  0  0  0  0
 18 19  1  0  0  0  0
 18 22  1  0  0  0  0
 19 27  1  6  0  0  0
 19 23  1  0  0  0  0
 21 18  1  0  0  0  0
 23 25  1  0  0  0  0
 23 26  1  0  0  0  0
 23 24  1  0  0  0  0
 28 27  1  0  0  0  0
M  END
>  <minimizedAffinity>
-4.7543931

>  <minimizedRMSD>
1.01625705

$$$$
