
 OpenBabel03262517453D

 24 26  0  0  0  0  0  0  0  0999 V2000
   39.6980   22.8300   37.6230 C   0  0  0  0  0  0  0  0  0  0  0  0
   38.9490   23.3900   38.6640 C   0  0  0  0  0  0  0  0  0  0  0  0
   37.9210   24.2810   38.3140 C   0  0  0  0  0  0  0  0  0  0  0  0
   37.7240   24.5410   36.9770 N   0  0  0  0  0  0  0  0  0  0  0  0
   38.4790   23.9700   36.0080 C   0  0  0  0  0  0  0  0  0  0  0  0
   39.4560   23.1230   36.3450 N   0  0  0  0  0  0  0  0  0  0  0  0
   38.1510   24.3410   34.6750 N   0  0  0  0  0  0  0  0  0  0  0  0
   38.3470   23.5010   33.6130 C   0  0  0  0  0  0  0  0  0  0  0  0
   37.9460   24.1190   32.4820 N   0  0  0  0  0  0  0  0  0  0  0  0
   37.4860   25.3620   32.7950 C   0  0  0  0  0  0  0  0  0  0  0  0
   36.9570   26.4390   32.0950 C   0  0  0  0  0  0  0  0  0  0  0  0
   36.5910   27.5540   32.7280 N   0  0  0  0  0  0  0  0  0  0  0  0
   36.7430   27.6240   34.0650 C   0  0  0  0  0  0  0  0  0  0  0  0
   37.2540   26.5960   34.7760 N   0  0  0  0  0  0  0  0  0  0  0  0
   37.6270   25.4710   34.1670 C   0  0  0  0  0  0  0  0  0  0  0  0
   36.8670   26.1920   30.6900 N   0  0  0  0  0  0  0  0  0  0  0  0
   40.4870   22.1480   37.8760 H   0  0  0  0  0  0  0  0  0  0  0  0
   39.1470   23.1510   39.7010 H   0  0  0  0  0  0  0  0  0  0  0  0
   37.3270   24.7290   39.0800 H   0  0  0  0  0  0  0  0  0  0  0  0
   38.7640   22.4870   33.6740 H   0  0  0  0  0  0  0  0  0  0  0  0
   37.6070   25.6750   30.1660 H   0  0  0  0  0  0  0  0  0  0  0  0
   35.9760   26.6060   30.3210 H   0  0  0  0  0  0  0  0  0  0  0  0
   36.3570   28.7980   34.7190 O   0  0  0  0  0  0  0  0  0  0  0  0
   36.8290   29.6650   34.5280 H   0  0  0  0  0  0  0  0  0  0  0  0
  1 17  1  0  0  0  0
  1  2  1  0  0  0  0
  2 18  1  0  0  0  0
  3  2  2  0  0  0  0
  3 19  1  0  0  0  0
  4  3  1  0  0  0  0
  5  6  1  0  0  0  0
  5  4  2  0  0  0  0
  6  1  2  0  0  0  0
  7  5  1  0  0  0  0
  8 20  1  0  0  0  0
  8  7  1  0  0  0  0
  9 10  1  0  0  0  0
  9  8  2  0  0  0  0
 10 15  1  0  0  0  0
 11 12  1  0  0  0  0
 11 10  2  0  0  0  0
 12 13  2  0  0  0  0
 13 23  1  0  0  0  0
 13 14  1  0  0  0  0
 15  7  1  0  0  0  0
 15 14  2  0  0  0  0
 16 11  1  0  0  0  0
 21 16  1  0  0  0  0
 22 16  1  0  0  0  0
 24 23  1  0  0  0  0
M  END
>  <minimizedAffinity>
-5.25319719

>  <minimizedRMSD>
0.0873707533

$$$$
