
 OpenBabel03262519043D

 18 19  0  0  1  0  0  0  0  0999 V2000
   39.7070   22.9970   37.2580 C   0  0  0  0  0  0  0  0  0  0  0  0
   38.8260   23.1840   38.3470 C   0  0  0  0  0  0  0  0  0  0  0  0
   37.9190   24.2510   38.2850 C   0  0  0  0  0  0  0  0  0  0  0  0
   37.9390   25.0460   37.1800 N   0  0  0  0  0  0  0  0  0  0  0  0
   38.8120   24.8250   36.1470 C   0  0  0  0  0  0  0  0  0  0  0  0
   39.6980   23.7900   36.1980 N   0  0  0  0  0  0  0  0  0  0  0  0
   40.3960   22.1670   37.3330 H   0  0  0  0  0  0  0  0  0  0  0  0
   38.7920   22.5670   39.2350 H   0  0  0  0  0  0  0  0  0  0  0  0
   37.1940   24.5070   39.0420 H   0  0  0  0  0  0  0  0  0  0  0  0
   38.7940   25.7360   34.9800 C   0  0  2  0  0  0  0  0  0  0  0  0
   40.0840   26.5350   34.8190 C   0  0  0  0  0  0  0  0  0  0  0  0
   38.7900   27.2000   35.1730 C   0  0  2  0  0  0  0  0  0  0  0  0
   38.4350   25.2620   34.0320 H   0  0  0  0  0  0  0  0  0  0  0  0
   40.4050   26.7250   33.7790 H   0  0  0  0  0  0  0  0  0  0  0  0
   40.8670   26.4460   35.5780 H   0  0  0  0  0  0  0  0  0  0  0  0
   38.2490   27.8380   34.4460 H   0  0  0  0  0  0  0  0  0  0  0  0
   38.7060   27.6140   36.5170 O   0  0  0  0  0  0  0  0  0  0  0  0
   38.6820   28.6180   36.4870 H   0  0  0  0  0  0  0  0  0  0  0  0
  1  7  1  0  0  0  0
  1  2  1  0  0  0  0
  2  8  1  0  0  0  0
  3  2  2  0  0  0  0
  3  9  1  0  0  0  0
  4  3  1  0  0  0  0
  5  6  1  0  0  0  0
  5  4  2  0  0  0  0
  6  1  2  0  0  0  0
 10 13  1  6  0  0  0
 10 12  1  0  0  0  0
 10  5  1  0  0  0  0
 11 10  1  0  0  0  0
 11 12  1  0  0  0  0
 11 15  1  0  0  0  0
 12 16  1  6  0  0  0
 12 17  1  0  0  0  0
 14 11  1  0  0  0  0
 18 17  1  0  0  0  0
M  END
>  <minimizedAffinity>
-3.86669588

>  <minimizedRMSD>
0.570706248

$$$$
