
 OpenBabel03262519103D

 24 26  0  0  0  0  0  0  0  0999 V2000
   38.0520   25.2240   35.0750 C   0  0  0  0  0  0  0  0  0  0  0  0
   37.5510   26.5110   35.2880 C   0  0  0  0  0  0  0  0  0  0  0  0
   36.9640   27.1560   34.2530 C   0  0  0  0  0  0  0  0  0  0  0  0
   36.8920   26.4830   33.0120 C   0  0  0  0  0  0  0  0  0  0  0  0
   37.7140   24.8330   33.3520 S   0  0  0  0  0  0  0  0  0  0  0  0
   37.6320   26.9820   36.2580 H   0  0  0  0  0  0  0  0  0  0  0  0
   36.5330   28.1270   34.2360 H   0  0  0  0  0  0  0  0  0  0  0  0
   38.1700   24.1290   37.3290 C   0  0  0  0  0  0  0  0  0  0  0  0
   38.6990   24.3810   36.0350 C   0  0  0  0  0  0  0  0  0  0  0  0
   39.8840   23.8030   35.6600 C   0  0  0  0  0  0  0  0  0  0  0  0
   40.4880   23.0030   36.5870 N   0  0  0  0  0  0  0  0  0  0  0  0
   39.9890   22.7630   37.8140 C   0  0  0  0  0  0  0  0  0  0  0  0
   38.8420   23.3290   38.1610 N   0  0  0  0  0  0  0  0  0  0  0  0
   37.2440   24.5890   37.6030 H   0  0  0  0  0  0  0  0  0  0  0  0
   40.3100   23.9750   34.6880 H   0  0  0  0  0  0  0  0  0  0  0  0
   40.6520   22.1040   38.3460 H   0  0  0  0  0  0  0  0  0  0  0  0
   36.3840   26.7960   31.7500 C   0  0  0  0  0  0  0  0  0  0  0  0
   35.4480   26.1470   31.2630 O   0  0  0  0  0  0  0  0  0  0  0  0
   37.1550   27.9200   31.2710 N   0  0  0  0  0  0  0  0  0  0  0  0
   38.3740   28.2260   30.4990 C   0  0  0  0  0  0  0  0  0  0  0  0
   37.7160   28.9620   29.3230 C   0  0  0  0  0  0  0  0  0  0  0  0
   36.7170   29.8160   30.0720 C   0  0  0  0  0  0  0  0  0  0  0  0
   36.7730   29.3190   31.5230 C   0  0  0  0  0  0  0  0  0  0  0  0
   35.8190   29.4190   32.0410 H   0  0  0  0  0  0  0  0  0  0  0  0
  1  2  2  0  0  0  0
  1  9  1  0  0  0  0
  2  6  1  0  0  0  0
  3  2  1  0  0  0  0
  4  5  1  0  0  0  0
  4  3  2  0  0  0  0
  5  1  1  0  0  0  0
  7  3  1  0  0  0  0
  8 14  1  0  0  0  0
  8 13  1  0  0  0  0
  9  8  2  0  0  0  0
 10  9  1  0  0  0  0
 10 11  2  0  0  0  0
 11 12  1  0  0  0  0
 12 13  2  0  0  0  0
 12 16  1  0  0  0  0
 15 10  1  0  0  0  0
 17  4  1  0  0  0  0
 18 17  2  0  0  0  0
 19 23  1  0  0  0  0
 19 17  1  0  0  0  0
 20 19  1  0  0  0  0
 21 22  1  0  0  0  0
 21 20  1  0  0  0  0
 22 23  1  0  0  0  0
 23 24  1  0  0  0  0
M  END
>  <minimizedAffinity>
-4.81082773

>  <minimizedRMSD>
0.789156854

$$$$
