
 OpenBabel03262519033D

 40 44  0  0  0  0  0  0  0  0999 V2000
   37.7730   27.2650   35.1930 C   0  0  0  0  0  0  0  0  0  0  0  0
   38.1370   28.3400   35.3090 H   0  0  0  0  0  0  0  0  0  0  0  0
   37.1430   27.1250   36.0720 H   0  0  0  0  0  0  0  0  0  0  0  0
   38.9950   26.4830   35.1010 C   0  0  0  0  0  0  0  0  0  0  0  0
   40.1100   26.9830   34.4320 C   0  0  0  0  0  0  0  0  0  0  0  0
   41.2710   26.2660   34.3490 C   0  0  0  0  0  0  0  0  0  0  0  0
   41.3750   25.0020   34.9370 C   0  0  0  0  0  0  0  0  0  0  0  0
   40.2680   24.4990   35.6060 C   0  0  0  0  0  0  0  0  0  0  0  0
   40.3570   23.2500   36.1920 C   0  0  0  0  0  0  0  0  0  0  0  0
   39.2840   22.7080   36.8670 C   0  0  0  0  0  0  0  0  0  0  0  0
   38.1060   23.4370   36.9500 C   0  0  0  0  0  0  0  0  0  0  0  0
   38.0510   24.6890   36.3490 C   0  0  0  0  0  0  0  0  0  0  0  0
   39.1010   25.2630   35.6680 C   0  0  0  0  0  0  0  0  0  0  0  0
   40.0720   27.9580   33.9620 H   0  0  0  0  0  0  0  0  0  0  0  0
   42.1750   26.5890   33.8460 H   0  0  0  0  0  0  0  0  0  0  0  0
   42.2580   24.4130   34.8960 H   0  0  0  0  0  0  0  0  0  0  0  0
   41.2610   22.6840   36.1310 H   0  0  0  0  0  0  0  0  0  0  0  0
   39.3730   21.7320   37.3180 H   0  0  0  0  0  0  0  0  0  0  0  0
   37.2830   22.9940   37.4810 H   0  0  0  0  0  0  0  0  0  0  0  0
   37.0950   25.1780   36.4650 H   0  0  0  0  0  0  0  0  0  0  0  0
   35.8590   28.6800   32.4030 C   0  0  0  0  0  0  0  0  0  0  0  0
   35.5940   27.6050   31.5800 C   0  0  0  0  0  0  0  0  0  0  0  0
   36.0820   26.3400   31.9840 C   0  0  0  0  0  0  0  0  0  0  0  0
   36.7830   26.2480   33.1540 N   0  0  0  0  0  0  0  0  0  0  0  0
   37.0060   27.3170   33.9040 C   0  0  0  0  0  0  0  0  0  0  0  0
   36.5490   28.5360   33.5360 N   0  0  0  0  0  0  0  0  0  0  0  0
   35.4800   29.6400   32.0810 H   0  0  0  0  0  0  0  0  0  0  0  0
   35.0420   27.6270   30.6400 H   0  0  0  0  0  0  0  0  0  0  0  0
   35.8440   25.1590   31.1720 C   0  0  0  0  0  0  0  0  0  0  0  0
   34.7790   25.1100   30.4930 O   0  0  0  0  0  0  0  0  0  0  0  0
   36.6570   23.9560   30.9890 C   0  0  0  0  0  0  0  0  0  0  0  0
   37.8910   23.8660   30.3760 C   0  0  0  0  0  0  0  0  0  0  0  0
   38.2620   22.5680   30.4380 N   0  0  0  0  0  0  0  0  0  0  0  0
   37.3240   21.8310   31.0600 C   0  0  0  0  0  0  0  0  0  0  0  0
   37.2370   20.4720   31.3670 C   0  0  0  0  0  0  0  0  0  0  0  0
   36.1390   19.9580   32.0280 C   0  0  0  0  0  0  0  0  0  0  0  0
   35.1380   20.8410   32.3690 C   0  0  0  0  0  0  0  0  0  0  0  0
   35.1850   22.1840   32.0850 C   0  0  0  0  0  0  0  0  0  0  0  0
   36.2880   22.6940   31.4220 C   0  0  0  0  0  0  0  0  0  0  0  0
   39.1710   22.1840   30.0470 H   0  0  0  0  0  0  0  0  0  0  0  0
  1  2  1  0  0  0  0
  1  3  1  0  0  0  0
  4  1  1  0  0  0  0
  4 13  1  0  0  0  0
  5  4  2  0  0  0  0
  6  5  1  0  0  0  0
  6  7  2  0  0  0  0
  7  8  1  0  0  0  0
  8 13  2  0  0  0  0
  8  9  1  0  0  0  0
  9 10  2  0  0  0  0
 10 11  1  0  0  0  0
 10 18  1  0  0  0  0
 11 19  1  0  0  0  0
 12 20  1  0  0  0  0
 12 11  2  0  0  0  0
 13 12  1  0  0  0  0
 14  5  1  0  0  0  0
 15  6  1  0  0  0  0
 16  7  1  0  0  0  0
 17  9  1  0  0  0  0
 21 26  1  0  0  0  0
 22 23  1  0  0  0  0
 22 21  2  0  0  0  0
 23 24  2  0  0  0  0
 24 25  1  0  0  0  0
 25  1  1  0  0  0  0
 26 25  2  0  0  0  0
 27 21  1  0  0  0  0
 28 22  1  0  0  0  0
 29 23  1  0  0  0  0
 30 29  2  0  0  0  0
 31 29  1  0  0  0  0
 31 39  1  0  0  0  0
 32 33  1  0  0  0  0
 32 31  2  0  0  0  0
 33 34  1  0  0  0  0
 34 35  2  0  0  0  0
 34 39  1  0  0  0  0
 35 36  1  0  0  0  0
 36 37  2  0  0  0  0
 38 37  1  0  0  0  0
 39 38  2  0  0  0  0
 40 33  1  0  0  0  0
M  END
>  <minimizedAffinity>
-7.08939362

>  <minimizedRMSD>
2.26479506

$$$$
