
 OpenBabel03262519553D

 37 41  0  0  1  0  0  0  0  0999 V2000
   37.3630   21.5760   33.9910 C   0  0  1  0  0  0  0  0  0  0  0  0
   36.1620   21.1690   34.6980 C   0  0  0  0  0  0  0  0  0  0  0  0
   36.1270   21.1720   33.1900 C   0  0  2  0  0  0  0  0  0  0  0  0
   38.2370   20.8960   33.9750 H   0  0  0  0  0  0  0  0  0  0  0  0
   36.2130   20.2080   35.2470 H   0  0  0  0  0  0  0  0  0  0  0  0
   35.4520   21.8910   35.1570 H   0  0  0  0  0  0  0  0  0  0  0  0
   35.5360   21.9430   32.6660 H   0  0  0  0  0  0  0  0  0  0  0  0
   36.0170   19.8710   32.6090 N   0  0  0  0  0  0  0  0  0  0  0  0
   35.3420   18.7660   32.9700 C   0  0  0  0  0  3  0  0  0  0  0  0
   35.5840   17.7850   32.0520 N   0  0  0  0  0  0  0  0  0  0  0  0
   36.4120   18.2770   31.1130 C   0  0  0  0  0  0  0  0  0  0  0  0
   36.9470   17.6840   29.9840 C   0  0  0  0  0  0  0  0  0  0  0  0
   36.6910   16.4840   29.6740 O   0  0  0  0  0  0  0  0  0  0  0  0
   37.7660   18.3820   29.1760 N   0  0  0  0  0  0  0  0  0  0  0  0
   38.0220   19.6680   29.5360 C   0  0  0  0  0  0  0  0  0  0  0  0
   38.8690   20.4720   28.7470 N   0  0  0  0  0  0  0  0  0  0  0  0
   37.5090   20.2660   30.6320 N   0  0  0  0  0  0  0  0  0  0  0  0
   36.6860   19.6000   31.4660 C   0  0  0  0  0  0  0  0  0  0  0  0
   38.2000   17.9870   28.3090 H   0  0  0  0  0  0  0  0  0  0  0  0
   38.4910   20.4760   27.7570 H   0  0  0  0  0  0  0  0  0  0  0  0
   39.7260   21.0530   28.8070 H   0  0  0  0  0  0  0  0  0  0  0  0
   38.1850   23.8990   34.6000 C   0  0  0  0  0  0  0  0  0  0  0  0
   38.3700   25.1090   33.9600 C   0  0  0  0  0  0  0  0  0  0  0  0
   37.9720   24.8590   32.6790 N   0  0  0  0  0  0  0  0  0  0  0  0
   37.5930   23.6020   32.6050 C   0  0  0  0  0  0  0  0  0  0  0  0
   37.7110   22.9680   33.7880 N   0  0  0  0  0  0  0  0  0  0  0  0
   38.7300   26.0500   34.3120 H   0  0  0  0  0  0  0  0  0  0  0  0
   37.2260   23.1420   31.6810 H   0  0  0  0  0  0  0  0  0  0  0  0
   38.4720   23.6530   36.0090 C   0  0  0  0  0  0  0  0  0  0  0  0
   39.6520   23.0120   36.3980 C   0  0  0  0  0  0  0  0  0  0  0  0
   39.9020   22.7890   37.7570 C   0  0  0  0  0  0  0  0  0  0  0  0
   38.9700   23.2160   38.6280 N   0  0  0  0  0  0  0  0  0  0  0  0
   37.8240   23.8390   38.2500 C   0  0  0  0  0  0  0  0  0  0  0  0
   37.5810   24.0550   36.9400 N   0  0  0  0  0  0  0  0  0  0  0  0
   40.3610   22.6920   35.6680 H   0  0  0  0  0  0  0  0  0  0  0  0
   40.7970   22.2990   38.1080 H   0  0  0  0  0  0  0  0  0  0  0  0
   37.0670   24.1870   38.9280 H   0  0  0  0  0  0  0  0  0  0  0  0
  1  4  1  1  0  0  0
  1  2  1  0  0  0  0
  2  6  1  0  0  0  0
  2  5  1  0  0  0  0
  3  7  1  6  0  0  0
  3  1  1  0  0  0  0
  3  2  1  0  0  0  0
  8  9  1  0  0  0  0
  8  3  1  0  0  0  0
 10  9  2  0  0  0  0
 11 18  2  0  0  0  0
 11 10  1  0  0  0  0
 12 11  1  0  0  0  0
 13 12  2  0  0  0  0
 14 15  1  0  0  0  0
 14 12  1  0  0  0  0
 15 17  2  0  0  0  0
 16 21  1  0  0  0  0
 16 15  1  0  0  0  0
 17 18  1  0  0  0  0
 18  8  1  0  0  0  0
 19 14  1  0  0  0  0
 20 16  1  0  0  0  0
 22 29  1  0  0  0  0
 23 27  1  0  0  0  0
 23 22  2  0  0  0  0
 24 23  1  0  0  0  0
 25 24  2  0  0  0  0
 25 26  1  0  0  0  0
 26  1  1  0  0  0  0
 26 22  1  0  0  0  0
 28 25  1  0  0  0  0
 29 30  2  0  0  0  0
 29 34  1  0  0  0  0
 30 31  1  0  0  0  0
 31 36  1  0  0  0  0
 31 32  2  0  0  0  0
 33 32  1  0  0  0  0
 33 37  1  0  0  0  0
 34 33  2  0  0  0  0
 35 30  1  0  0  0  0
M  END
>  <minimizedAffinity>
-5.25573349

>  <minimizedRMSD>
1.56770229

$$$$
