
 OpenBabel03262519593D

 40 44  0  0  1  0  0  0  0  0999 V2000
   40.1690   24.2790   34.5180 C   0  0  1  0  0  0  0  0  0  0  0  0
   39.6120   22.9610   34.3790 C   0  0  0  0  0  0  0  0  0  0  0  0
   39.7400   23.8950   33.1380 C   0  0  1  0  0  0  0  0  0  0  0  0
   41.2960   24.3370   34.6910 H   0  0  0  0  0  0  0  0  0  0  0  0
   40.2870   22.0710   34.3700 H   0  0  0  0  0  0  0  0  0  0  0  0
   38.5930   22.7310   34.6890 H   0  0  0  0  0  0  0  0  0  0  0  0
   38.3860   24.0020   32.5780 N   0  0  0  0  0  0  0  0  0  0  0  0
   37.5050   22.9700   32.6870 C   0  0  0  0  0  3  0  0  0  0  0  0
   36.3380   23.3320   32.0880 N   0  0  0  0  0  0  0  0  0  0  0  0
   36.5100   24.5700   31.6220 C   0  0  0  0  0  0  0  0  0  0  0  0
   35.6920   25.4440   30.9360 C   0  0  0  0  0  0  0  0  0  0  0  0
   34.5140   25.1370   30.6210 O   0  0  0  0  0  0  0  0  0  0  0  0
   36.1850   26.6510   30.6040 N   0  0  0  0  0  0  0  0  0  0  0  0
   37.4460   27.0530   30.9090 C   0  0  0  0  0  0  0  0  0  0  0  0
   37.9340   28.3420   30.5410 N   0  0  0  0  0  0  0  0  0  0  0  0
   38.2670   26.2200   31.5800 N   0  0  0  0  0  0  0  0  0  0  0  0
   37.7870   25.0100   31.9180 C   0  0  0  0  0  0  0  0  0  0  0  0
   35.5600   27.3290   30.0750 H   0  0  0  0  0  0  0  0  0  0  0  0
   37.3190   29.1680   30.4600 H   0  0  0  0  0  0  0  0  0  0  0  0
   38.9660   28.4410   30.3450 H   0  0  0  0  0  0  0  0  0  0  0  0
   38.6380   25.5660   36.0210 C   0  0  0  0  0  0  0  0  0  0  0  0
   38.2610   26.8980   36.1830 C   0  0  0  0  0  0  0  0  0  0  0  0
   38.9820   27.5540   35.2210 N   0  0  0  0  0  0  0  0  0  0  0  0
   39.7090   26.6490   34.5730 C   0  0  0  0  0  0  0  0  0  0  0  0
   39.5160   25.4220   35.0430 N   0  0  0  0  0  0  0  0  0  0  0  0
   37.5420   27.2450   36.9360 H   0  0  0  0  0  0  0  0  0  0  0  0
   40.3430   27.0270   33.7690 H   0  0  0  0  0  0  0  0  0  0  0  0
   38.1380   24.4680   36.8340 C   0  0  0  0  0  0  0  0  0  0  0  0
   38.5250   24.3740   38.1880 C   0  0  0  0  0  0  0  0  0  0  0  0
   38.0110   23.2960   38.9430 C   0  0  0  0  0  0  0  0  0  0  0  0
   37.1810   22.4240   38.3100 N   0  0  0  0  0  0  0  0  0  0  0  0
   36.8360   22.5510   37.0080 C   0  0  0  0  0  0  0  0  0  0  0  0
   37.3100   23.5680   36.2670 N   0  0  0  0  0  0  0  0  0  0  0  0
   39.1850   25.1020   38.6170 H   0  0  0  0  0  0  0  0  0  0  0  0
   38.2810   23.1860   39.9830 H   0  0  0  0  0  0  0  0  0  0  0  0
   36.1700   21.7790   36.6580 H   0  0  0  0  0  0  0  0  0  0  0  0
   40.8150   23.3930   32.1950 C   0  0  0  0  0  0  0  0  0  0  0  0
   40.8480   24.1780   31.0600 F   0  0  0  0  0  0  0  0  0  0  0  0
   42.1080   23.6370   32.8210 F   0  0  0  0  0  0  0  0  0  0  0  0
   40.7600   22.0760   31.9480 F   0  0  0  0  0  0  0  0  0  0  0  0
  1  4  1  1  0  0  0
  1 25  1  0  0  0  0
  2  1  1  0  0  0  0
  2  6  1  0  0  0  0
  3 37  1  6  0  0  0
  3  2  1  0  0  0  0
  3  1  1  0  0  0  0
  5  2  1  0  0  0  0
  7  8  1  0  0  0  0
  7  3  1  0  0  0  0
  9  8  2  0  0  0  0
 10 17  2  0  0  0  0
 10  9  1  0  0  0  0
 11 10  1  0  0  0  0
 12 11  2  0  0  0  0
 13 14  1  0  0  0  0
 13 11  1  0  0  0  0
 14 16  2  0  0  0  0
 15 14  1  0  0  0  0
 16 17  1  0  0  0  0
 17  7  1  0  0  0  0
 18 13  1  0  0  0  0
 19 15  1  0  0  0  0
 20 15  1  0  0  0  0
 21 22  2  0  0  0  0
 21 28  1  0  0  0  0
 22 26  1  0  0  0  0
 23 22  1  0  0  0  0
 24 25  1  0  0  0  0
 24 23  2  0  0  0  0
 25 21  1  0  0  0  0
 27 24  1  0  0  0  0
 28 29  1  0  0  0  0
 29 34  1  0  0  0  0
 29 30  2  0  0  0  0
 30 35  1  0  0  0  0
 31 30  1  0  0  0  0
 32 31  2  0  0  0  0
 33 28  2  0  0  0  0
 33 32  1  0  0  0  0
 36 32  1  0  0  0  0
 37 39  1  0  0  0  0
 38 37  1  0  0  0  0
 40 37  1  0  0  0  0
M  END
>  <minimizedAffinity>
-4.71934843

>  <minimizedRMSD>
5.81756353

$$$$
