
 OpenBabel03262519473D

 46 50  0  0  1  0  0  0  0  0999 V2000
   37.4230   25.8720   32.9360 N   0  0  0  0  0  0  0  0  0  0  0  0
   36.9870   24.7900   32.2760 C   0  0  0  0  0  0  0  0  0  0  0  0
   35.9260   25.0350   31.4400 C   0  0  0  0  0  0  0  0  0  0  0  0
   35.6920   26.3410   31.5900 N   0  0  0  0  0  0  0  0  0  0  0  0
   36.5900   26.8400   32.4870 C   0  0  0  0  0  0  0  0  0  0  0  0
   37.4650   23.8050   32.4180 H   0  0  0  0  0  0  0  0  0  0  0  0
   35.4380   24.2930   30.8270 H   0  0  0  0  0  0  0  0  0  0  0  0
   36.5610   28.3140   32.8090 C   0  0  1  0  0  0  0  0  0  0  0  0
   35.7450   29.1650   31.9090 C   0  0  0  0  0  0  0  0  0  0  0  0
   35.2380   28.8810   33.2840 C   0  0  2  0  0  0  0  0  0  0  0  0
   37.4530   28.6570   33.3640 H   0  0  0  0  0  0  0  0  0  0  0  0
   35.1940   28.6760   31.0800 H   0  0  0  0  0  0  0  0  0  0  0  0
   36.2450   30.0930   31.6130 H   0  0  0  0  0  0  0  0  0  0  0  0
   34.4040   28.1900   33.3870 H   0  0  0  0  0  0  0  0  0  0  0  0
   35.2920   29.9690   34.2410 N   0  0  0  0  0  0  0  0  0  0  0  0
   36.2560   30.1250   35.1940 C   0  0  0  0  0  3  0  0  0  0  0  0
   36.0220   31.2450   35.9300 N   0  0  0  0  0  0  0  0  0  0  0  0
   34.8920   31.8250   35.4520 C   0  0  0  0  0  0  0  0  0  0  0  0
   34.1860   32.9580   35.7970 C   0  0  0  0  0  0  0  0  0  0  0  0
   34.5650   33.6940   36.7370 O   0  0  0  0  0  0  0  0  0  0  0  0
   33.0580   33.2890   35.1120 N   0  0  0  0  0  0  0  0  0  0  0  0
   32.6600   32.4820   34.0970 C   0  0  0  0  0  0  0  0  0  0  0  0
   31.4710   32.8620   33.4010 N   0  0  0  0  0  0  0  0  0  0  0  0
   33.3650   31.3810   33.7780 N   0  0  0  0  0  0  0  0  0  0  0  0
   34.4800   31.0170   34.4250 C   0  0  0  0  0  0  0  0  0  0  0  0
   32.5600   34.1490   35.4070 H   0  0  0  0  0  0  0  0  0  0  0  0
   31.1900   33.8590   33.2780 H   0  0  0  0  0  0  0  0  0  0  0  0
   30.7580   32.2400   32.9420 H   0  0  0  0  0  0  0  0  0  0  0  0
   38.4370   26.1230   33.8830 C   0  0  0  0  0  0  0  0  0  0  0  0
   39.2460   25.3570   33.7600 H   0  0  0  0  0  0  0  0  0  0  0  0
   38.9210   27.1140   33.6990 H   0  0  0  0  0  0  0  0  0  0  0  0
   37.9670   26.0590   35.2890 C   0  0  1  0  0  0  0  0  0  0  0  0
   36.8440   25.9330   35.2990 H   0  0  0  0  0  0  0  0  0  0  0  0
   38.5430   23.4330   37.9570 C   0  0  0  0  0  0  0  0  0  0  0  0
   37.9570   24.5390   37.3220 C   0  0  0  0  0  0  0  0  0  0  0  0
   38.5150   24.9200   36.0570 C   0  0  0  0  0  0  0  0  0  0  0  0
   39.5780   24.2020   35.5330 N   0  0  0  0  0  0  0  0  0  0  0  0
   40.0970   23.1580   36.1820 C   0  0  0  0  0  0  0  0  0  0  0  0
   39.5770   22.7670   37.4060 N   0  0  0  0  0  0  0  0  0  0  0  0
   38.1100   23.1610   38.9080 H   0  0  0  0  0  0  0  0  0  0  0  0
   37.1410   25.1120   37.6940 H   0  0  0  0  0  0  0  0  0  0  0  0
   40.9250   22.5920   35.7830 H   0  0  0  0  0  0  0  0  0  0  0  0
   38.2600   27.3690   36.0140 C   0  0  0  0  0  0  0  0  0  0  0  0
   39.1930   27.2000   36.6210 H   0  0  0  0  0  0  0  0  0  0  0  0
   37.4550   27.5390   36.7580 H   0  0  0  0  0  0  0  0  0  0  0  0
   38.4240   28.1930   35.3140 H   0  0  0  0  0  0  0  0  0  0  0  0
  1 29  1  0  0  0  0
  2  6  1  0  0  0  0
  2  1  1  0  0  0  0
  3  4  1  0  0  0  0
  3  2  2  0  0  0  0
  4  5  2  0  0  0  0
  5  8  1  0  0  0  0
  5  1  1  0  0  0  0
  7  3  1  0  0  0  0
  8 10  1  0  0  0  0
  8 11  1  1  0  0  0
  9  8  1  0  0  0  0
  9 10  1  0  0  0  0
 10 14  1  1  0  0  0
 10 15  1  0  0  0  0
 12  9  1  0  0  0  0
 13  9  1  0  0  0  0
 15 25  1  0  0  0  0
 15 16  1  0  0  0  0
 16 17  2  0  0  0  0
 18 19  1  0  0  0  0
 18 17  1  0  0  0  0
 19 20  2  0  0  0  0
 21 26  1  0  0  0  0
 21 19  1  0  0  0  0
 22 21  1  0  0  0  0
 23 22  1  0  0  0  0
 24 22  2  0  0  0  0
 24 25  1  0  0  0  0
 25 18  2  0  0  0  0
 27 23  1  0  0  0  0
 28 23  1  0  0  0  0
 29 32  1  0  0  0  0
 30 29  1  0  0  0  0
 31 29  1  0  0  0  0
 32 33  1  6  0  0  0
 32 43  1  0  0  0  0
 32 36  1  0  0  0  0
 34 40  1  0  0  0  0
 35 41  1  0  0  0  0
 35 34  2  0  0  0  0
 36 35  1  0  0  0  0
 37 36  2  0  0  0  0
 37 38  1  0  0  0  0
 38 39  2  0  0  0  0
 39 34  1  0  0  0  0
 42 38  1  0  0  0  0
 43 44  1  0  0  0  0
 43 45  1  0  0  0  0
 46 43  1  0  0  0  0
M  END
>  <minimizedAffinity>
-5.69886065

>  <minimizedRMSD>
1.30429423

$$$$
