
 OpenBabel03262518163D

 46 50  0  0  1  0  0  0  0  0999 V2000
   39.3750   23.2360   36.0430 C   0  0  1  0  0  0  0  0  0  0  0  0
   39.6770   23.0290   37.4990 C   0  0  0  0  0  0  0  0  0  0  0  0
   38.4750   23.1830   38.3840 C   0  0  0  0  0  0  0  0  0  0  0  0
   37.5820   24.2850   37.9310 C   0  0  0  0  0  0  0  0  0  0  0  0
   38.3260   25.2400   37.0420 C   0  0  0  0  0  0  0  0  0  0  0  0
   38.6680   24.5360   35.7480 C   0  0  1  0  0  0  0  0  0  0  0  0
   38.7830   22.3590   35.7010 H   0  0  0  0  0  0  0  0  0  0  0  0
   40.0330   21.9860   37.6130 H   0  0  0  0  0  0  0  0  0  0  0  0
   40.4480   23.7350   37.8730 H   0  0  0  0  0  0  0  0  0  0  0  0
   38.8240   23.3860   39.4150 H   0  0  0  0  0  0  0  0  0  0  0  0
   37.9320   22.2170   38.3950 H   0  0  0  0  0  0  0  0  0  0  0  0
   37.2360   24.8750   38.8170 H   0  0  0  0  0  0  0  0  0  0  0  0
   36.6920   23.9140   37.4050 H   0  0  0  0  0  0  0  0  0  0  0  0
   39.2720   25.5650   37.5590 H   0  0  0  0  0  0  0  0  0  0  0  0
   37.6940   26.1200   36.8570 H   0  0  0  0  0  0  0  0  0  0  0  0
   37.6810   24.2730   35.3130 H   0  0  0  0  0  0  0  0  0  0  0  0
   39.3710   25.3720   34.8250 N   0  0  0  0  0  0  0  0  0  0  0  0
   40.3810   26.1870   35.1860 C   0  0  0  0  0  0  0  0  0  0  0  0
   40.8210   26.8300   34.0830 N   0  0  0  0  0  0  0  0  0  0  0  0
   40.0650   26.3940   33.0600 C   0  0  0  0  0  0  0  0  0  0  0  0
   40.0410   26.6840   31.7010 C   0  0  0  0  0  0  0  0  0  0  0  0
   40.8540   27.5180   31.2190 O   0  0  0  0  0  0  0  0  0  0  0  0
   39.1660   26.1050   30.8320 N   0  0  0  0  0  0  0  0  0  0  0  0
   38.2790   25.2060   31.3180 C   0  0  0  0  0  0  0  0  0  0  0  0
   37.3390   24.5650   30.4660 N   0  0  0  0  0  0  0  0  0  0  0  0
   38.2940   24.9170   32.6320 N   0  0  0  0  0  0  0  0  0  0  0  0
   39.1500   25.4780   33.5050 C   0  0  0  0  0  0  0  0  0  0  0  0
   39.1810   26.3490   29.8300 H   0  0  0  0  0  0  0  0  0  0  0  0
   37.0330   23.5670   30.4800 H   0  0  0  0  0  0  0  0  0  0  0  0
   36.7990   24.9940   29.6830 H   0  0  0  0  0  0  0  0  0  0  0  0
   41.9040   23.0220   33.4070 C   0  0  0  0  0  0  0  0  0  0  0  0
   43.0830   23.3600   34.0520 C   0  0  0  0  0  0  0  0  0  0  0  0
   43.0320   23.6670   35.4010 C   0  0  0  0  0  0  0  0  0  0  0  0
   41.8100   23.6190   36.0310 N   0  0  0  0  0  0  0  0  0  0  0  0
   40.6990   23.2850   35.3580 C   0  0  0  0  0  0  0  0  0  0  0  0
   40.7500   22.9930   34.0700 N   0  0  0  0  0  0  0  0  0  0  0  0
   41.8880   22.7760   32.3650 H   0  0  0  0  0  0  0  0  0  0  0  0
   43.9940   23.3690   33.4690 H   0  0  0  0  0  0  0  0  0  0  0  0
   44.2680   24.0190   36.1040 C   0  0  0  0  0  0  0  0  0  0  0  0
   44.3510   24.9080   37.1680 C   0  0  0  0  0  0  0  0  0  0  0  0
   45.6680   24.9410   37.5210 N   0  0  0  0  0  0  0  0  0  0  0  0
   46.3150   24.1050   36.6920 C   0  0  0  0  0  0  0  0  0  0  0  0
   45.5100   23.5340   35.8270 N   0  0  0  0  0  0  0  0  0  0  0  0
   43.5490   25.4590   37.6280 H   0  0  0  0  0  0  0  0  0  0  0  0
   47.3770   23.8650   36.6610 H   0  0  0  0  0  0  0  0  0  0  0  0
   45.6660   22.8440   35.0520 H   0  0  0  0  0  0  0  0  0  0  0  0
  1  7  1  6  0  0  0
  1  2  1  0  0  0  0
  2  8  1  0  0  0  0
  2  9  1  0  0  0  0
  2  3  1  0  0  0  0
  3 11  1  0  0  0  0
  3 10  1  0  0  0  0
  4  3  1  0  0  0  0
  4 12  1  0  0  0  0
  5 14  1  0  0  0  0
  5  4  1  0  0  0  0
  6 16  1  6  0  0  0
  6  1  1  0  0  0  0
  6  5  1  0  0  0  0
 13  4  1  0  0  0  0
 15  5  1  0  0  0  0
 17 18  1  0  0  0  0
 17  6  1  0  0  0  0
 19 18  2  0  0  0  0
 20 27  2  0  0  0  0
 20 19  1  0  0  0  0
 21 20  1  0  0  0  0
 22 21  2  0  0  0  0
 23 24  1  0  0  0  0
 23 21  1  0  0  0  0
 24 26  2  0  0  0  0
 25 29  1  0  0  0  0
 25 24  1  0  0  0  0
 26 27  1  0  0  0  0
 27 17  1  0  0  0  0
 28 23  1  0  0  0  0
 30 25  1  0  0  0  0
 31 32  2  0  0  0  0
 31 36  1  0  0  0  0
 32 33  1  0  0  0  0
 33 34  2  0  0  0  0
 33 39  1  0  0  0  0
 35 34  1  0  0  0  0
 35  1  1  0  0  0  0
 36 35  2  0  0  0  0
 37 31  1  0  0  0  0
 38 32  1  0  0  0  0
 39 40  2  0  0  0  0
 40 41  1  0  0  0  0
 40 44  1  0  0  0  0
 42 41  2  0  0  0  0
 43 39  1  0  0  0  0
 43 42  1  0  0  0  0
 45 42  1  0  0  0  0
 46 43  1  0  0  0  0
M  END
>  <minimizedAffinity>
-5.50225306

>  <minimizedRMSD>
6.15404415

$$$$
