
 OpenBabel03262519563D

 37 41  0  0  1  0  0  0  0  0999 V2000
   37.3630   21.5760   33.9900 C   0  0  1  0  0  0  0  0  0  0  0  0
   36.1630   21.1700   34.6970 C   0  0  0  0  0  0  0  0  0  0  0  0
   36.1270   21.1730   33.1890 C   0  0  2  0  0  0  0  0  0  0  0  0
   38.2370   20.8970   33.9730 H   0  0  0  0  0  0  0  0  0  0  0  0
   36.2140   20.2080   35.2460 H   0  0  0  0  0  0  0  0  0  0  0  0
   35.4530   21.8910   35.1570 H   0  0  0  0  0  0  0  0  0  0  0  0
   35.5350   21.9440   32.6650 H   0  0  0  0  0  0  0  0  0  0  0  0
   36.0170   19.8730   32.6070 N   0  0  0  0  0  0  0  0  0  0  0  0
   35.3430   18.7670   32.9690 C   0  0  0  0  0  3  0  0  0  0  0  0
   35.5850   17.7870   32.0510 N   0  0  0  0  0  0  0  0  0  0  0  0
   36.4120   18.2790   31.1110 C   0  0  0  0  0  0  0  0  0  0  0  0
   36.9470   17.6850   29.9830 C   0  0  0  0  0  0  0  0  0  0  0  0
   36.6900   16.4850   29.6740 O   0  0  0  0  0  0  0  0  0  0  0  0
   37.7650   18.3830   29.1750 N   0  0  0  0  0  0  0  0  0  0  0  0
   38.0210   19.6690   29.5340 C   0  0  0  0  0  0  0  0  0  0  0  0
   38.8680   20.4730   28.7450 N   0  0  0  0  0  0  0  0  0  0  0  0
   37.5090   20.2660   30.6310 N   0  0  0  0  0  0  0  0  0  0  0  0
   36.6860   19.6010   31.4640 C   0  0  0  0  0  0  0  0  0  0  0  0
   38.1990   17.9880   28.3080 H   0  0  0  0  0  0  0  0  0  0  0  0
   38.4890   20.4760   27.7560 H   0  0  0  0  0  0  0  0  0  0  0  0
   39.7250   21.0540   28.8050 H   0  0  0  0  0  0  0  0  0  0  0  0
   38.1860   23.9000   34.6000 C   0  0  0  0  0  0  0  0  0  0  0  0
   38.3710   25.1100   33.9610 C   0  0  0  0  0  0  0  0  0  0  0  0
   37.9730   24.8600   32.6790 N   0  0  0  0  0  0  0  0  0  0  0  0
   37.5930   23.6030   32.6050 C   0  0  0  0  0  0  0  0  0  0  0  0
   37.7120   22.9690   33.7870 N   0  0  0  0  0  0  0  0  0  0  0  0
   38.7300   26.0510   34.3130 H   0  0  0  0  0  0  0  0  0  0  0  0
   37.2270   23.1440   31.6810 H   0  0  0  0  0  0  0  0  0  0  0  0
   38.4720   23.6530   36.0090 C   0  0  0  0  0  0  0  0  0  0  0  0
   39.6530   23.0120   36.3970 C   0  0  0  0  0  0  0  0  0  0  0  0
   39.9020   22.7890   37.7560 C   0  0  0  0  0  0  0  0  0  0  0  0
   38.9700   23.2160   38.6270 N   0  0  0  0  0  0  0  0  0  0  0  0
   37.8240   23.8380   38.2500 C   0  0  0  0  0  0  0  0  0  0  0  0
   37.5810   24.0550   36.9400 N   0  0  0  0  0  0  0  0  0  0  0  0
   40.3610   22.6930   35.6670 H   0  0  0  0  0  0  0  0  0  0  0  0
   40.7970   22.2990   38.1070 H   0  0  0  0  0  0  0  0  0  0  0  0
   37.0670   24.1850   38.9280 H   0  0  0  0  0  0  0  0  0  0  0  0
  1  4  1  1  0  0  0
  1  2  1  0  0  0  0
  2  6  1  0  0  0  0
  2  5  1  0  0  0  0
  3  7  1  6  0  0  0
  3  1  1  0  0  0  0
  3  2  1  0  0  0  0
  8  9  1  0  0  0  0
  8  3  1  0  0  0  0
 10  9  2  0  0  0  0
 11 18  2  0  0  0  0
 11 10  1  0  0  0  0
 12 11  1  0  0  0  0
 13 12  2  0  0  0  0
 14 15  1  0  0  0  0
 14 12  1  0  0  0  0
 15 17  2  0  0  0  0
 16 21  1  0  0  0  0
 16 15  1  0  0  0  0
 17 18  1  0  0  0  0
 18  8  1  0  0  0  0
 19 14  1  0  0  0  0
 20 16  1  0  0  0  0
 22 29  1  0  0  0  0
 23 27  1  0  0  0  0
 23 22  2  0  0  0  0
 24 23  1  0  0  0  0
 25 24  2  0  0  0  0
 25 26  1  0  0  0  0
 26  1  1  0  0  0  0
 26 22  1  0  0  0  0
 28 25  1  0  0  0  0
 29 30  2  0  0  0  0
 29 34  1  0  0  0  0
 30 31  1  0  0  0  0
 31 36  1  0  0  0  0
 31 32  2  0  0  0  0
 33 32  1  0  0  0  0
 33 37  1  0  0  0  0
 34 33  2  0  0  0  0
 35 30  1  0  0  0  0
M  END
>  <minimizedAffinity>
-5.25564384

>  <minimizedRMSD>
1.96977198

$$$$
