
 OpenBabel03262518443D

 44 49  0  0  1  0  0  0  0  0999 V2000
   41.5180   25.2020   33.7830 C   0  0  0  0  0  0  0  0  0  0  0  0
   40.7990   24.4820   34.6250 N   0  0  0  0  0  0  0  0  0  0  0  0
   39.7350   25.1270   34.9900 O   0  0  0  0  0  0  0  0  0  0  0  0
   39.7880   26.3040   34.3500 C   0  0  0  0  0  0  0  0  0  0  0  0
   40.8790   26.4060   33.5830 N   0  0  0  0  0  0  0  0  0  0  0  0
   40.0610   24.4130   29.3500 C   0  0  0  0  0  0  0  0  0  0  0  0
   39.9420   25.7040   28.7910 C   0  0  0  0  0  0  0  0  0  0  0  0
   40.7740   26.7160   29.2450 C   0  0  0  0  0  0  0  0  0  0  0  0
   41.6810   26.4020   30.2270 N   0  0  0  0  0  0  0  0  0  0  0  0
   41.7600   25.1610   30.7290 C   0  0  0  0  0  0  0  0  0  0  0  0
   40.9670   24.1720   30.3050 N   0  0  0  0  0  0  0  0  0  0  0  0
   42.7420   24.9550   31.7460 N   0  0  0  0  0  0  0  0  0  0  0  0
   43.9380   24.7080   31.2880 N   0  0  0  0  0  0  0  0  0  0  0  0
   44.7850   24.5300   32.3260 C   0  0  0  0  0  0  0  0  0  0  0  0
   44.0780   24.6740   33.4650 C   0  0  0  0  0  0  0  0  0  0  0  0
   42.7740   24.9450   33.0920 C   0  0  0  0  0  0  0  0  0  0  0  0
   39.2210   25.9320   28.0170 H   0  0  0  0  0  0  0  0  0  0  0  0
   40.7460   27.7300   28.8690 H   0  0  0  0  0  0  0  0  0  0  0  0
   45.8430   24.3110   32.3230 H   0  0  0  0  0  0  0  0  0  0  0  0
   44.2960   24.6250   34.5260 H   0  0  0  0  0  0  0  0  0  0  0  0
   39.2100   23.3700   28.8880 N   0  0  0  0  0  0  0  0  0  0  0  0
   38.6680   22.8440   29.6160 H   0  0  0  0  0  0  0  0  0  0  0  0
   39.1520   23.1670   27.8670 H   0  0  0  0  0  0  0  0  0  0  0  0
   38.7630   27.4110   34.4540 C   0  0  2  0  0  0  0  0  0  0  0  0
   38.0190   27.5970   35.7350 C   0  0  0  0  0  0  0  0  0  0  0  0
   37.3160   27.0510   34.5080 C   0  0  1  0  0  0  0  0  0  0  0  0
   39.1560   28.3320   33.9900 H   0  0  0  0  0  0  0  0  0  0  0  0
   37.8340   28.6340   36.0440 H   0  0  0  0  0  0  0  0  0  0  0  0
   38.1750   26.9050   36.5950 H   0  0  0  0  0  0  0  0  0  0  0  0
   37.0230   26.0020   34.5530 H   0  0  0  0  0  0  0  0  0  0  0  0
   36.4820   27.9370   33.7280 N   0  0  0  0  0  0  0  0  0  0  0  0
   36.0470   27.7520   32.4500 C   0  0  0  0  0  0  0  0  0  0  0  0
   35.2820   28.7930   32.0400 N   0  0  0  0  0  0  0  0  0  0  0  0
   35.2270   29.6550   33.0680 C   0  0  0  0  0  0  0  0  0  0  0  0
   34.5790   30.8700   33.1690 C   0  0  0  0  0  0  0  0  0  0  0  0
   33.9140   31.3390   32.2230 O   0  0  0  0  0  0  0  0  0  0  0  0
   34.6520   31.5830   34.3000 N   0  0  0  0  0  0  0  0  0  0  0  0
   35.3920   31.0250   35.3000 C   0  0  0  0  0  0  0  0  0  0  0  0
   35.5610   31.6690   36.5660 N   0  0  0  0  0  0  0  0  0  0  0  0
   36.0390   29.8430   35.2400 N   0  0  0  0  0  0  0  0  0  0  0  0
   35.9720   29.1090   34.0970 C   0  0  0  0  0  0  0  0  0  0  0  0
   34.1950   32.5100   34.4660 H   0  0  0  0  0  0  0  0  0  0  0  0
   34.7020   31.3450   37.0940 H   0  0  0  0  0  0  0  0  0  0  0  0
   36.1680   32.2970   37.1410 H   0  0  0  0  0  0  0  0  0  0  0  0
  1  2  2  0  0  0  0
  2  3  1  0  0  0  0
  4 24  1  0  0  0  0
  4  3  1  0  0  0  0
  5  1  1  0  0  0  0
  5  4  2  0  0  0  0
  6 11  1  0  0  0  0
  7  8  1  0  0  0  0
  7  6  2  0  0  0  0
  8  9  2  0  0  0  0
  9 10  1  0  0  0  0
 10 12  1  0  0  0  0
 11 10  2  0  0  0  0
 12 16  1  0  0  0  0
 13 12  1  0  0  0  0
 13 14  2  0  0  0  0
 14 15  1  0  0  0  0
 15 20  1  0  0  0  0
 16 15  2  0  0  0  0
 16  1  1  0  0  0  0
 17  7  1  0  0  0  0
 18  8  1  0  0  0  0
 19 14  1  0  0  0  0
 21  6  1  0  0  0  0
 21 22  1  0  0  0  0
 23 21  1  0  0  0  0
 24 27  1  6  0  0  0
 24 26  1  0  0  0  0
 24 25  1  0  0  0  0
 25 28  1  0  0  0  0
 25 29  1  0  0  0  0
 26 30  1  6  0  0  0
 26 25  1  0  0  0  0
 31 41  1  0  0  0  0
 31 26  1  0  0  0  0
 32 31  1  0  0  0  0
 33 32  2  0  0  0  0
 33 34  1  0  0  0  0
 34 35  1  0  0  0  0
 34 41  2  0  0  0  0
 35 37  1  0  0  0  0
 36 35  2  0  0  0  0
 37 42  1  0  0  0  0
 37 38  1  0  0  0  0
 38 39  1  0  0  0  0
 39 43  1  0  0  0  0
 39 44  1  0  0  0  0
 40 38  2  0  0  0  0
 41 40  1  0  0  0  0
M  END
>  <minimizedAffinity>
-4.77810287

>  <minimizedRMSD>
6.87547112

$$$$
