
 OpenBabel03262519083D

 42 46  0  0  1  0  0  0  0  0999 V2000
   36.5040   28.0570   33.2330 C   0  0  0  0  0  0  0  0  0  0  0  0
   35.3830   28.8610   33.2370 C   0  0  0  0  0  0  0  0  0  0  0  0
   35.0350   29.7160   32.2230 C   0  0  0  0  0  0  0  0  0  0  0  0
   35.8730   29.7610   31.1360 C   0  0  0  0  0  0  0  0  0  0  0  0
   36.9840   28.9530   31.1490 C   0  0  0  0  0  0  0  0  0  0  0  0
   37.3220   28.1180   32.1440 N   0  0  0  0  0  0  0  0  0  0  0  0
   34.7980   28.7400   34.1450 H   0  0  0  0  0  0  0  0  0  0  0  0
   34.1310   30.2890   32.3510 H   0  0  0  0  0  0  0  0  0  0  0  0
   35.6230   30.4220   30.3280 H   0  0  0  0  0  0  0  0  0  0  0  0
   37.8040   29.0630   29.9760 N   0  0  0  0  0  0  0  0  0  0  0  0
   38.2210   27.9650   29.2810 C   0  0  0  0  0  0  0  0  0  0  0  0
   38.9690   28.3650   28.2360 N   0  0  0  0  0  0  0  0  0  0  0  0
   39.0470   29.7030   28.2380 C   0  0  0  0  0  0  0  0  0  0  0  0
   39.6770   30.5850   27.4050 C   0  0  0  0  0  0  0  0  0  0  0  0
   40.3350   30.1370   26.4190 O   0  0  0  0  0  0  0  0  0  0  0  0
   39.5520   31.8910   27.6970 N   0  0  0  0  0  0  0  0  0  0  0  0
   38.8250   32.2900   28.7800 C   0  0  0  0  0  0  0  0  0  0  0  0
   38.7380   33.6890   29.0240 N   0  0  0  0  0  0  0  0  0  0  0  0
   38.1890   31.4260   29.6240 N   0  0  0  0  0  0  0  0  0  0  0  0
   38.3140   30.1130   29.3300 C   0  0  0  0  0  0  0  0  0  0  0  0
   40.0170   32.5840   27.0870 H   0  0  0  0  0  0  0  0  0  0  0  0
   39.0300   34.1350   29.9160 H   0  0  0  0  0  0  0  0  0  0  0  0
   38.4720   34.6030   28.6500 H   0  0  0  0  0  0  0  0  0  0  0  0
   36.9940   27.0950   34.2390 C   0  0  0  0  0  0  0  0  0  0  0  0
   36.7570   26.0790   33.8060 H   0  0  0  0  0  0  0  0  0  0  0  0
   36.3350   27.1780   35.1400 H   0  0  0  0  0  0  0  0  0  0  0  0
   39.2500   26.1170   35.1940 C   0  0  2  0  0  0  0  0  0  0  0  0
   38.7740   27.2950   35.9660 C   0  0  0  0  0  0  0  0  0  0  0  0
   38.4400   27.1580   34.5100 C   0  0  2  0  0  0  0  0  0  0  0  0
   40.2820   26.0500   34.8310 H   0  0  0  0  0  0  0  0  0  0  0  0
   39.5110   28.0670   36.3110 H   0  0  0  0  0  0  0  0  0  0  0  0
   37.9950   27.1220   36.7370 H   0  0  0  0  0  0  0  0  0  0  0  0
   38.9860   27.9130   33.8770 H   0  0  0  0  0  0  0  0  0  0  0  0
   37.5650   23.4310   37.0260 C   0  0  0  0  0  0  0  0  0  0  0  0
   37.4910   22.3620   36.1030 C   0  0  0  0  0  0  0  0  0  0  0  0
   38.0530   22.6230   34.8090 C   0  0  0  0  0  0  0  0  0  0  0  0
   38.5990   23.8350   34.5670 N   0  0  0  0  0  0  0  0  0  0  0  0
   38.6300   24.8230   35.5210 C   0  0  0  0  0  0  0  0  0  0  0  0
   38.1070   24.6190   36.7690 N   0  0  0  0  0  0  0  0  0  0  0  0
   37.1330   23.2050   37.9920 H   0  0  0  0  0  0  0  0  0  0  0  0
   37.0360   21.4200   36.3750 H   0  0  0  0  0  0  0  0  0  0  0  0
   38.0090   21.8330   34.0950 H   0  0  0  0  0  0  0  0  0  0  0  0
  1  2  1  0  0  0  0
  1 24  1  0  0  0  0
  2  7  1  0  0  0  0
  3  8  1  0  0  0  0
  3  2  2  0  0  0  0
  4  5  2  0  0  0  0
  4  3  1  0  0  0  0
  5  6  1  0  0  0  0
  6  1  2  0  0  0  0
  9  4  1  0  0  0  0
 10  5  1  0  0  0  0
 11 10  1  0  0  0  0
 12 13  1  0  0  0  0
 12 11  2  0  0  0  0
 13 20  2  0  0  0  0
 14 16  1  0  0  0  0
 14 13  1  0  0  0  0
 15 14  2  0  0  0  0
 16 17  1  0  0  0  0
 17 18  1  0  0  0  0
 17 19  2  0  0  0  0
 18 22  1  0  0  0  0
 20 19  1  0  0  0  0
 20 10  1  0  0  0  0
 21 16  1  0  0  0  0
 23 18  1  0  0  0  0
 24 29  1  0  0  0  0
 24 26  1  0  0  0  0
 25 24  1  0  0  0  0
 27 30  1  6  0  0  0
 27 38  1  0  0  0  0
 27 28  1  0  0  0  0
 28 31  1  0  0  0  0
 28 32  1  0  0  0  0
 29 33  1  6  0  0  0
 29 27  1  0  0  0  0
 29 28  1  0  0  0  0
 34 40  1  0  0  0  0
 35 41  1  0  0  0  0
 35 34  2  0  0  0  0
 36 35  1  0  0  0  0
 37 36  2  0  0  0  0
 37 38  1  0  0  0  0
 38 39  2  0  0  0  0
 39 34  1  0  0  0  0
 42 36  1  0  0  0  0
M  END
>  <minimizedAffinity>
-5.57142258

>  <minimizedRMSD>
3.05402899

$$$$
