
 OpenBabel03262519383D

 35 38  0  0  1  0  0  0  0  0999 V2000
   38.8870   22.3200   30.5220 N   0  0  0  0  0  0  0  0  0  0  0  0
   40.2970   22.3640   30.2490 C   0  0  0  0  0  0  0  0  0  0  0  0
   40.4910   23.4880   29.2790 C   0  0  0  0  0  0  0  0  0  0  0  0
   39.0970   24.0860   29.1100 C   0  0  0  0  0  0  0  0  0  0  0  0
   38.5080   23.7080   30.4880 C   0  0  2  0  0  0  0  0  0  0  0  0
   40.7070   21.3940   29.9000 H   0  0  0  0  0  0  0  0  0  0  0  0
   40.8180   22.6490   31.1880 H   0  0  0  0  0  0  0  0  0  0  0  0
   40.7280   23.0330   28.2760 H   0  0  0  0  0  0  0  0  0  0  0  0
   41.2380   24.2230   29.5830 H   0  0  0  0  0  0  0  0  0  0  0  0
   39.1730   25.1730   29.0590 H   0  0  0  0  0  0  0  0  0  0  0  0
   38.5260   23.6050   28.2930 H   0  0  0  0  0  0  0  0  0  0  0  0
   37.4030   23.8090   30.4480 H   0  0  0  0  0  0  0  0  0  0  0  0
   38.5730   21.8420   31.8290 C   0  0  0  0  0  0  0  0  0  0  0  0
   39.3370   21.0470   32.0670 H   0  0  0  0  0  0  0  0  0  0  0  0
   38.6380   22.5810   32.6410 H   0  0  0  0  0  0  0  0  0  0  0  0
   35.6620   19.4680   31.3000 C   0  0  0  0  0  0  0  0  0  0  0  0
   36.9500   20.0060   31.2130 C   0  0  0  0  0  0  0  0  0  0  0  0
   37.2140   21.2060   31.8770 C   0  0  0  0  0  0  0  0  0  0  0  0
   36.1920   21.8020   32.5900 N   0  0  0  0  0  0  0  0  0  0  0  0
   34.9670   21.2400   32.6420 C   0  0  0  0  0  0  0  0  0  0  0  0
   34.7180   20.0890   32.0010 N   0  0  0  0  0  0  0  0  0  0  0  0
   35.4190   18.5380   30.7970 H   0  0  0  0  0  0  0  0  0  0  0  0
   37.7300   19.5240   30.6530 H   0  0  0  0  0  0  0  0  0  0  0  0
   34.1470   21.6640   33.1780 H   0  0  0  0  0  0  0  0  0  0  0  0
   39.0280   24.4730   31.4860 O   0  0  0  0  0  0  0  0  0  0  0  0
   36.9530   26.4030   36.2620 H   0  0  0  0  0  0  0  0  0  0  0  0
   37.3960   25.9370   35.4640 N   0  0  0  0  0  0  0  0  0  0  0  0
   38.1360   24.8130   35.6000 C   0  0  0  0  0  3  0  0  0  0  0  0
   38.5610   24.4740   34.3760 N   0  0  0  0  0  0  0  0  0  0  0  0
   38.0940   25.3760   33.4870 C   0  0  0  0  0  0  0  0  0  0  0  0
   38.2650   25.4520   32.1060 C   0  0  0  0  0  0  0  0  0  0  0  0
   37.6700   26.4810   31.4740 N   0  0  0  0  0  0  0  0  0  0  0  0
   36.9380   27.4050   32.1390 C   0  0  0  0  0  3  0  0  0  0  0  0
   36.7800   27.3150   33.4920 N   0  0  0  0  0  0  0  0  0  0  0  0
   37.3510   26.3080   34.1770 C   0  0  0  0  0  0  0  0  0  0  0  0
  1 13  1  0  0  0  0
  2  1  1  0  0  0  0
  2  7  1  0  0  0  0
  3  9  1  0  0  0  0
  3  2  1  0  0  0  0
  4  3  1  0  0  0  0
  4  5  1  0  0  0  0
  5 12  1  6  0  0  0
  5  1  1  0  0  0  0
  5 25  1  0  0  0  0
  6  2  1  0  0  0  0
  8  3  1  0  0  0  0
 10  4  1  0  0  0  0
 11  4  1  0  0  0  0
 13 18  1  0  0  0  0
 13 14  1  0  0  0  0
 13 15  1  0  0  0  0
 16 21  1  0  0  0  0
 17 16  2  0  0  0  0
 17 18  1  0  0  0  0
 18 19  2  0  0  0  0
 19 20  1  0  0  0  0
 20 24  1  0  0  0  0
 21 20  2  0  0  0  0
 22 16  1  0  0  0  0
 23 17  1  0  0  0  0
 25 31  1  0  0  0  0
 27 28  1  0  0  0  0
 27 26  1  0  0  0  0
 29 28  2  0  0  0  0
 30 35  1  0  0  0  0
 30 29  1  0  0  0  0
 31 30  2  0  0  0  0
 32 31  1  0  0  0  0
 32 33  2  0  0  0  0
 33 34  1  0  0  0  0
 34 35  2  0  0  0  0
 35 27  1  0  0  0  0
M  END
>  <minimizedAffinity>
-3.79955006

>  <minimizedRMSD>
5.78257465

$$$$
