
 OpenBabel03262519253D

 50 56  0  0  0  0  0  0  0  0999 V2000
   38.6330   23.1970   32.7120 C   0  0  0  0  0  0  0  0  0  0  0  0
   38.5170   21.9280   33.2660 C   0  0  0  0  0  0  0  0  0  0  0  0
   37.3260   21.2030   33.2290 C   0  0  0  0  0  0  0  0  0  0  0  0
   36.2040   21.7530   32.6220 C   0  0  0  0  0  0  0  0  0  0  0  0
   36.2930   23.0100   32.0640 C   0  0  0  0  0  0  0  0  0  0  0  0
   35.1890   23.5620   31.4680 C   0  0  0  0  0  0  0  0  0  0  0  0
   35.2100   24.8100   30.9000 C   0  0  0  0  0  0  0  0  0  0  0  0
   36.4130   25.5030   30.9500 C   0  0  0  0  0  0  0  0  0  0  0  0
   37.5140   24.9190   31.5570 C   0  0  0  0  0  0  0  0  0  0  0  0
   37.4980   23.6830   32.1270 C   0  0  0  0  0  0  0  0  0  0  0  0
   39.4260   21.5340   33.7350 H   0  0  0  0  0  0  0  0  0  0  0  0
   37.2740   20.2290   33.6660 H   0  0  0  0  0  0  0  0  0  0  0  0
   35.2820   21.1700   32.6040 H   0  0  0  0  0  0  0  0  0  0  0  0
   34.2890   22.9620   31.4690 H   0  0  0  0  0  0  0  0  0  0  0  0
   34.2660   25.1330   30.4620 H   0  0  0  0  0  0  0  0  0  0  0  0
   36.2850   26.4680   30.4650 H   0  0  0  0  0  0  0  0  0  0  0  0
   38.5520   25.8650   31.3420 N   0  0  0  0  0  0  0  0  0  0  0  0
   39.1590   26.9290   31.8810 C   0  0  0  0  0  0  0  0  0  0  0  0
   40.1150   27.4690   31.1250 N   0  0  0  0  0  0  0  0  0  0  0  0
   40.2270   26.7840   29.9780 C   0  0  0  0  0  0  0  0  0  0  0  0
   41.0310   26.9040   28.8750 C   0  0  0  0  0  0  0  0  0  0  0  0
   41.8570   27.8540   28.9020 O   0  0  0  0  0  0  0  0  0  0  0  0
   40.8670   26.0160   27.8820 N   0  0  0  0  0  0  0  0  0  0  0  0
   39.9460   25.0590   27.9930 C   0  0  0  0  0  0  0  0  0  0  0  0
   39.8210   24.1490   26.9070 N   0  0  0  0  0  0  0  0  0  0  0  0
   39.1600   24.9400   29.0740 N   0  0  0  0  0  0  0  0  0  0  0  0
   39.2550   25.8000   30.1340 C   0  0  0  0  0  0  0  0  0  0  0  0
   41.4860   26.1300   27.0580 H   0  0  0  0  0  0  0  0  0  0  0  0
   39.2930   23.2620   26.9130 H   0  0  0  0  0  0  0  0  0  0  0  0
   40.2560   24.2950   25.9910 H   0  0  0  0  0  0  0  0  0  0  0  0
   39.8710   23.9170   32.7820 C   0  0  0  0  0  0  0  0  0  0  0  0
   40.1960   24.7810   33.8490 C   0  0  0  0  0  0  0  0  0  0  0  0
   41.4360   25.4190   33.8160 C   0  0  0  0  0  0  0  0  0  0  0  0
   42.2860   25.1890   32.7690 N   0  0  0  0  0  0  0  0  0  0  0  0
   41.9410   24.3470   31.7610 C   0  0  0  0  0  0  0  0  0  0  0  0
   40.7740   23.7470   31.7890 N   0  0  0  0  0  0  0  0  0  0  0  0
   41.7440   26.0950   34.6030 H   0  0  0  0  0  0  0  0  0  0  0  0
   42.6000   24.1560   30.9310 H   0  0  0  0  0  0  0  0  0  0  0  0
   39.3080   24.9570   34.8950 N   0  0  0  0  0  0  0  0  0  0  0  0
   38.3140   25.8530   34.9540 C   0  0  0  0  0  0  0  0  0  0  0  0
   37.6250   25.7700   36.1140 N   0  0  0  0  0  0  0  0  0  0  0  0
   38.2140   24.7690   36.8250 C   0  0  0  0  0  0  0  0  0  0  0  0
   37.9760   24.2150   38.0530 C   0  0  0  0  0  0  0  0  0  0  0  0
   38.7010   23.2020   38.5760 N   0  0  0  0  0  0  0  0  0  0  0  0
   39.7090   22.7470   37.7930 C   0  0  0  0  0  0  0  0  0  0  0  0
   39.9260   23.2980   36.6030 N   0  0  0  0  0  0  0  0  0  0  0  0
   39.2460   24.2870   36.0520 C   0  0  0  0  0  0  0  0  0  0  0  0
   37.9100   26.6230   34.3240 H   0  0  0  0  0  0  0  0  0  0  0  0
   37.1540   24.5970   38.6740 H   0  0  0  0  0  0  0  0  0  0  0  0
   40.4020   21.9500   38.0200 H   0  0  0  0  0  0  0  0  0  0  0  0
  1 31  1  0  0  0  0
  1  2  1  0  0  0  0
  2 11  1  0  0  0  0
  3  2  2  0  0  0  0
  3 12  1  0  0  0  0
  4  3  1  0  0  0  0
  5 10  1  0  0  0  0
  5  4  2  0  0  0  0
  6 14  1  0  0  0  0
  6  5  1  0  0  0  0
  7  8  1  0  0  0  0
  7  6  2  0  0  0  0
  8  9  2  0  0  0  0
  9 10  1  0  0  0  0
 10  1  2  0  0  0  0
 13  4  1  0  0  0  0
 15  7  1  0  0  0  0
 16  8  1  0  0  0  0
 17  9  1  0  0  0  0
 17 18  1  0  0  0  0
 19 18  2  0  0  0  0
 20 27  2  0  0  0  0
 20 19  1  0  0  0  0
 21 22  2  0  0  0  0
 21 20  1  0  0  0  0
 23 24  1  0  0  0  0
 23 21  1  0  0  0  0
 24 26  2  0  0  0  0
 25 29  1  0  0  0  0
 25 24  1  0  0  0  0
 26 27  1  0  0  0  0
 27 17  1  0  0  0  0
 28 23  1  0  0  0  0
 30 25  1  0  0  0  0
 31 32  1  0  0  0  0
 32 39  1  0  0  0  0
 33 32  2  0  0  0  0
 33 37  1  0  0  0  0
 34 33  1  0  0  0  0
 35 36  1  0  0  0  0
 35 34  2  0  0  0  0
 36 31  2  0  0  0  0
 38 35  1  0  0  0  0
 39 40  1  0  0  0  0
 39 47  1  0  0  0  0
 40 41  2  0  0  0  0
 41 42  1  0  0  0  0
 42 43  1  0  0  0  0
 43 44  2  0  0  0  0
 43 49  1  0  0  0  0
 45 50  1  0  0  0  0
 45 44  1  0  0  0  0
 46 45  2  0  0  0  0
 47 46  1  0  0  0  0
 47 42  2  0  0  0  0
 48 40  1  0  0  0  0
M  END
>  <minimizedAffinity>
-6.37701082

>  <minimizedRMSD>
1.9306742

$$$$
