
 OpenBabel03262519333D

 19 20  0  0  0  0  0  0  0  0999 V2000
   37.7300   24.0240   36.8130 C   0  0  0  0  0  0  0  0  0  0  0  0
   36.9020   23.3970   36.4090 H   0  0  0  0  0  0  0  0  0  0  0  0
   37.5880   24.2890   37.8770 H   0  0  0  0  0  0  0  0  0  0  0  0
   40.8900   22.0960   37.6220 C   0  0  0  0  0  0  0  0  0  0  0  0
   39.7250   22.8460   37.8110 C   0  0  0  0  0  0  0  0  0  0  0  0
   38.9840   23.2220   36.6820 C   0  0  0  0  0  0  0  0  0  0  0  0
   39.4450   22.8320   35.4540 N   0  0  0  0  0  0  0  0  0  0  0  0
   40.5790   22.1060   35.3200 C   0  0  0  0  0  0  0  0  0  0  0  0
   41.2920   21.7440   36.4000 N   0  0  0  0  0  0  0  0  0  0  0  0
   41.4980   21.7800   38.4600 H   0  0  0  0  0  0  0  0  0  0  0  0
   39.3990   23.1310   38.8010 H   0  0  0  0  0  0  0  0  0  0  0  0
   40.9540   21.7910   34.3510 H   0  0  0  0  0  0  0  0  0  0  0  0
   37.8540   25.2270   35.9490 C   0  0  0  0  0  0  0  0  0  0  0  0
   38.3810   26.4350   36.3920 C   0  0  0  0  0  3  0  0  0  0  0  0
   38.4770   27.5350   35.5430 C   0  0  0  0  0  3  0  0  0  0  0  0
   38.0240   27.3770   34.2330 C   0  0  0  0  0  0  0  0  0  0  0  0
   38.0810   28.2200   33.5300 H   0  0  0  0  0  0  0  0  0  0  0  0
   37.5020   26.1810   33.7950 C   0  0  0  0  0  3  0  0  0  0  0  0
   37.4410   25.1670   34.6700 N   0  0  0  0  0  0  0  0  0  0  0  0
  1  3  1  0  0  0  0
  2  1  1  0  0  0  0
  4  5  1  0  0  0  0
  4 10  1  0  0  0  0
  5 11  1  0  0  0  0
  6  1  1  0  0  0  0
  6  5  2  0  0  0  0
  7  6  1  0  0  0  0
  8  7  2  0  0  0  0
  8  9  1  0  0  0  0
  9  4  2  0  0  0  0
 12  8  1  0  0  0  0
 13 14  1  0  0  0  0
 13  1  1  0  0  0  0
 15 14  2  0  0  0  0
 16 15  1  0  0  0  0
 17 16  1  0  0  0  0
 18 16  2  0  0  0  0
 18 19  1  0  0  0  0
 19 13  2  0  0  0  0
M  END
>  <minimizedAffinity>
-3.77110648

>  <minimizedRMSD>
2.33179522

$$$$
