
 OpenBabel03262519403D

 46 50  0  0  1  0  0  0  0  0999 V2000
   37.9650   25.2300   34.2920 N   0  0  0  0  0  0  0  0  0  0  0  0
   37.2940   25.4050   33.0220 C   0  0  0  0  0  0  0  0  0  0  0  0
   37.8310   26.6720   32.4510 C   0  0  0  0  0  0  0  0  0  0  0  0
   38.8310   27.1510   33.4920 C   0  0  0  0  0  0  0  0  0  0  0  0
   39.2660   25.7670   34.0650 C   0  0  2  0  0  0  0  0  0  0  0  0
   36.2050   25.4970   33.1930 H   0  0  0  0  0  0  0  0  0  0  0  0
   37.5010   24.5130   32.4000 H   0  0  0  0  0  0  0  0  0  0  0  0
   38.4710   26.3740   31.5700 H   0  0  0  0  0  0  0  0  0  0  0  0
   37.0810   27.4200   32.1760 H   0  0  0  0  0  0  0  0  0  0  0  0
   39.6800   27.6880   33.0780 H   0  0  0  0  0  0  0  0  0  0  0  0
   38.3010   27.6710   34.3020 H   0  0  0  0  0  0  0  0  0  0  0  0
   39.8290   25.9830   35.0020 H   0  0  0  0  0  0  0  0  0  0  0  0
   38.1230   23.8430   34.6220 C   0  0  0  0  0  0  0  0  0  0  0  0
   38.9770   23.4270   34.0650 H   0  0  0  0  0  0  0  0  0  0  0  0
   37.2090   23.3020   34.3660 H   0  0  0  0  0  0  0  0  0  0  0  0
   37.9370   24.0050   38.4070 C   0  0  0  0  0  0  0  0  0  0  0  0
   37.5950   24.2160   37.0740 C   0  0  0  0  0  0  0  0  0  0  0  0
   38.4300   23.6570   36.0770 C   0  0  0  0  0  0  0  0  0  0  0  0
   39.5180   22.9440   36.4930 N   0  0  0  0  0  0  0  0  0  0  0  0
   39.7970   22.7760   37.7950 C   0  0  0  0  0  0  0  0  0  0  0  0
   39.0040   23.3070   38.7390 N   0  0  0  0  0  0  0  0  0  0  0  0
   37.2790   24.4460   39.1420 H   0  0  0  0  0  0  0  0  0  0  0  0
   36.7230   24.7860   36.7730 H   0  0  0  0  0  0  0  0  0  0  0  0
   40.6880   22.1920   37.9570 H   0  0  0  0  0  0  0  0  0  0  0  0
   40.0060   25.0650   33.1670 O   0  0  0  0  0  0  0  0  0  0  0  0
   41.3650   25.1260   33.3470 C   0  0  2  0  0  0  0  0  0  0  0  0
   42.1700   24.0890   32.6040 C   0  0  0  0  0  0  0  0  0  0  0  0
   42.0740   24.0500   34.1160 C   0  0  1  0  0  0  0  0  0  0  0  0
   41.7400   26.1220   33.6310 H   0  0  0  0  0  0  0  0  0  0  0  0
   43.1660   24.4430   32.2080 H   0  0  0  0  0  0  0  0  0  0  0  0
   41.6600   23.3500   31.9810 H   0  0  0  0  0  0  0  0  0  0  0  0
   41.4430   23.2320   34.4960 H   0  0  0  0  0  0  0  0  0  0  0  0
   43.2680   24.4010   34.8570 N   0  0  0  0  0  0  0  0  0  0  0  0
   43.7590   25.5560   35.3460 C   0  0  0  0  0  3  0  0  0  0  0  0
   44.9210   25.2550   35.9510 N   0  0  0  0  0  0  0  0  0  0  0  0
   45.1750   23.9360   35.8540 C   0  0  0  0  0  0  0  0  0  0  0  0
   46.2380   23.1880   36.3200 C   0  0  0  0  0  0  0  0  0  0  0  0
   47.2070   23.6710   36.9580 O   0  0  0  0  0  0  0  0  0  0  0  0
   46.2810   21.8610   36.1020 N   0  0  0  0  0  0  0  0  0  0  0  0
   45.2470   21.3340   35.4200 C   0  0  0  0  0  0  0  0  0  0  0  0
   45.1400   19.9300   35.1020 N   0  0  0  0  0  0  0  0  0  0  0  0
   44.2040   22.0490   34.9590 N   0  0  0  0  0  0  0  0  0  0  0  0
   44.1170   23.3910   35.1550 C   0  0  0  0  0  0  0  0  0  0  0  0
   47.0150   21.1800   36.3940 H   0  0  0  0  0  0  0  0  0  0  0  0
   45.5620   19.5190   34.2390 H   0  0  0  0  0  0  0  0  0  0  0  0
   44.5980   19.3710   35.8250 H   0  0  0  0  0  0  0  0  0  0  0  0
  1 13  1  0  0  0  0
  2  6  1  0  0  0  0
  2  1  1  0  0  0  0
  3  2  1  0  0  0  0
  3  4  1  0  0  0  0
  4  5  1  0  0  0  0
  4 11  1  0  0  0  0
  5  1  1  0  0  0  0
  5 12  1  1  0  0  0
  7  2  1  0  0  0  0
  8  3  1  0  0  0  0
  9  3  1  0  0  0  0
 10  4  1  0  0  0  0
 13 18  1  0  0  0  0
 14 13  1  0  0  0  0
 15 13  1  0  0  0  0
 16 21  1  0  0  0  0
 16 22  1  0  0  0  0
 17 16  2  0  0  0  0
 18 19  2  0  0  0  0
 18 17  1  0  0  0  0
 19 20  1  0  0  0  0
 20 24  1  0  0  0  0
 20 21  2  0  0  0  0
 23 17  1  0  0  0  0
 25 26  1  0  0  0  0
 25  5  1  0  0  0  0
 26 29  1  1  0  0  0
 26 28  1  0  0  0  0
 27 26  1  0  0  0  0
 27 28  1  0  0  0  0
 28 32  1  1  0  0  0
 28 33  1  0  0  0  0
 30 27  1  0  0  0  0
 31 27  1  0  0  0  0
 33 43  1  0  0  0  0
 33 34  1  0  0  0  0
 34 35  2  0  0  0  0
 36 35  1  0  0  0  0
 36 37  1  0  0  0  0
 37 38  2  0  0  0  0
 39 37  1  0  0  0  0
 39 44  1  0  0  0  0
 40 39  1  0  0  0  0
 41 40  1  0  0  0  0
 41 46  1  0  0  0  0
 42 43  1  0  0  0  0
 42 40  2  0  0  0  0
 43 36  2  0  0  0  0
 45 41  1  0  0  0  0
M  END
>  <minimizedAffinity>
-4.56353521

>  <minimizedRMSD>
2.99621105

$$$$
