
 OpenBabel03262518193D

 38 41  0  0  1  0  0  0  0  0999 V2000
   38.7940   25.2810   34.1350 C   0  0  1  0  0  0  0  0  0  0  0  0
   38.1870   26.6670   34.1760 C   0  0  0  0  0  0  0  0  0  0  0  0
   38.4270   27.3860   35.4680 C   0  0  0  0  0  0  0  0  0  0  0  0
   38.3950   26.4820   36.6390 C   0  0  0  0  0  0  0  0  0  0  0  0
   37.6620   25.2320   36.3190 C   0  0  0  0  0  0  0  0  0  0  0  0
   38.4230   24.4110   35.3030 C   0  0  2  0  0  0  0  0  0  0  0  0
   39.8950   25.4170   34.0750 H   0  0  0  0  0  0  0  0  0  0  0  0
   37.1030   26.6110   33.9580 H   0  0  0  0  0  0  0  0  0  0  0  0
   38.6780   27.2430   33.3800 H   0  0  0  0  0  0  0  0  0  0  0  0
   39.3720   27.9840   35.4460 H   0  0  0  0  0  0  0  0  0  0  0  0
   37.6080   28.1320   35.5840 H   0  0  0  0  0  0  0  0  0  0  0  0
   37.9680   26.9850   37.5310 H   0  0  0  0  0  0  0  0  0  0  0  0
   39.4470   26.2060   36.9100 H   0  0  0  0  0  0  0  0  0  0  0  0
   36.6690   25.4490   35.9020 H   0  0  0  0  0  0  0  0  0  0  0  0
   37.5780   24.6100   37.2510 H   0  0  0  0  0  0  0  0  0  0  0  0
   37.6670   23.6220   35.0060 H   0  0  0  0  0  0  0  0  0  0  0  0
   38.0190   24.6490   30.6220 C   0  0  0  0  0  0  0  0  0  0  0  0
   37.3170   23.4550   30.6650 C   0  0  0  0  0  0  0  0  0  0  0  0
   37.0860   22.8430   31.8820 C   0  0  0  0  0  0  0  0  0  0  0  0
   37.5790   23.4680   32.9960 N   0  0  0  0  0  0  0  0  0  0  0  0
   38.2600   24.6310   32.9070 C   0  0  0  0  0  0  0  0  0  0  0  0
   38.4790   25.2140   31.7530 N   0  0  0  0  0  0  0  0  0  0  0  0
   38.2570   25.2180   29.7100 H   0  0  0  0  0  0  0  0  0  0  0  0
   37.0520   23.1920   29.6750 H   0  0  0  0  0  0  0  0  0  0  0  0
   36.3460   21.6020   31.9110 C   0  0  0  0  0  0  0  0  0  0  0  0
   35.0070   21.5160   32.3060 C   0  0  0  0  0  0  0  0  0  0  0  0
   34.6530   20.2060   32.2030 N   0  0  0  0  0  0  0  0  0  0  0  0
   35.7440   19.5660   31.7660 C   0  0  0  0  0  0  0  0  0  0  0  0
   36.7560   20.3670   31.5870 N   0  0  0  0  0  0  0  0  0  0  0  0
   34.3770   22.3490   32.6310 H   0  0  0  0  0  0  0  0  0  0  0  0
   35.6560   18.4850   31.6190 H   0  0  0  0  0  0  0  0  0  0  0  0
   38.0310   19.8870   31.1210 C   0  0  0  0  0  0  0  0  0  0  0  0
   38.2160   18.7150   30.2660 C   0  0  0  0  0  0  0  0  0  0  0  0
   38.2290   19.9970   29.5830 C   0  0  0  0  0  0  0  0  0  0  0  0
   39.6090   23.6900   35.9050 C   0  0  0  0  0  0  0  0  0  0  0  0
   39.6700   22.4640   35.2260 F   0  0  0  0  0  0  0  0  0  0  0  0
   40.8000   24.3210   35.6900 F   0  0  0  0  0  0  0  0  0  0  0  0
   39.3290   23.4420   37.2140 F   0  0  0  0  0  0  0  0  0  0  0  0
  1  7  1  6  0  0  0
  1  2  1  0  0  0  0
  1  6  1  0  0  0  0
  2  3  1  0  0  0  0
  3 11  1  0  0  0  0
  3  4  1  0  0  0  0
  4 13  1  0  0  0  0
  4 12  1  0  0  0  0
  5  4  1  0  0  0  0
  5 15  1  0  0  0  0
  6 16  1  6  0  0  0
  6 35  1  0  0  0  0
  6  5  1  0  0  0  0
  8  2  1  0  0  0  0
  9  2  1  0  0  0  0
 10  3  1  0  0  0  0
 14  5  1  0  0  0  0
 17 18  2  0  0  0  0
 17 22  1  0  0  0  0
 18 19  1  0  0  0  0
 19 25  1  0  0  0  0
 19 20  2  0  0  0  0
 21 20  1  0  0  0  0
 21  1  1  0  0  0  0
 22 21  2  0  0  0  0
 23 17  1  0  0  0  0
 24 18  1  0  0  0  0
 25 26  2  0  0  0  0
 26 30  1  0  0  0  0
 27 26  1  0  0  0  0
 28 27  2  0  0  0  0
 29 28  1  0  0  0  0
 29 25  1  0  0  0  0
 31 28  1  0  0  0  0
 32 29  1  0  0  0  0
 33 32  1  0  0  0  0
 34 33  1  0  0  0  0
 34 32  1  0  0  0  0
 35 38  1  0  0  0  0
 36 35  1  0  0  0  0
 37 35  1  0  0  0  0
M  END
>  <minimizedAffinity>
-4.93164492

>  <minimizedRMSD>
7.25285864

$$$$
