
 OpenBabel03262514503D

 33 35  0  0  1  0  0  0  0  0999 V2000
   38.5520   22.5990   33.6550 C   0  0  0  0  0  0  0  0  0  0  0  0
   39.5600   23.0550   33.8730 H   0  0  0  0  0  0  0  0  0  0  0  0
   38.7960   21.7310   32.9930 H   0  0  0  0  0  0  0  0  0  0  0  0
   37.7520   23.6150   33.0120 C   0  0  0  0  0  0  0  0  0  0  0  0
   36.9340   23.4770   31.9040 C   0  0  0  0  0  0  0  0  0  0  0  0
   36.2290   24.6040   31.4310 C   0  0  0  0  0  0  0  0  0  0  0  0
   36.3890   25.7860   32.0940 N   0  0  0  0  0  0  0  0  0  0  0  0
   37.1850   25.8810   33.1570 C   0  0  0  0  0  0  0  0  0  0  0  0
   37.8300   24.8190   33.5780 N   0  0  0  0  0  0  0  0  0  0  0  0
   35.6210   24.4230   30.5750 H   0  0  0  0  0  0  0  0  0  0  0  0
   37.2010   26.8840   33.5660 H   0  0  0  0  0  0  0  0  0  0  0  0
   36.8380   22.2030   31.3010 N   0  0  0  0  0  0  0  0  0  0  0  0
   35.8490   21.2880   31.1480 C   0  0  0  0  0  0  0  0  0  0  0  0
   36.2910   20.2180   30.4820 N   0  0  0  0  0  0  0  0  0  0  0  0
   37.6180   20.4700   30.2010 C   0  0  0  0  0  0  0  0  0  0  0  0
   37.8820   21.6780   30.7210 N   0  0  0  0  0  0  0  0  0  0  0  0
   34.8570   21.5030   31.5590 H   0  0  0  0  0  0  0  0  0  0  0  0
   38.3640   19.8680   29.6720 H   0  0  0  0  0  0  0  0  0  0  0  0
   37.8990   22.0220   34.8900 C   0  0  1  0  0  0  0  0  0  0  0  0
   38.5250   21.0060   34.8330 H   0  0  0  0  0  0  0  0  0  0  0  0
   38.1200   22.5590   36.1610 C   0  0  0  0  0  0  0  0  0  0  0  0
   39.4620   22.3540   36.5150 C   0  0  0  0  0  0  0  0  0  0  0  0
   39.9990   22.7950   37.7320 C   0  0  0  0  0  0  0  0  0  0  0  0
   39.1910   23.4590   38.6280 C   0  0  0  0  0  0  0  0  0  0  0  0
   39.4590   23.8550   39.5980 H   0  0  0  0  0  0  0  0  0  0  0  0
   37.8810   23.6420   38.2480 C   0  0  0  0  0  0  0  0  0  0  0  0
   37.4120   23.2150   37.0970 N   0  0  0  0  0  0  0  0  0  0  0  0
   36.5650   21.7430   34.6350 O   0  0  0  0  0  0  0  0  0  0  0  0
   35.8020   20.7270   35.0970 C   0  0  0  0  0  0  0  0  0  0  0  0
   35.4380   20.6580   36.4710 N   0  0  0  0  0  0  0  0  0  0  0  0
   35.4670   19.8830   34.1770 O   0  0  0  0  0  0  0  0  0  0  0  0
   35.8410   19.9400   37.1200 H   0  0  0  0  0  0  0  0  0  0  0  0
   34.7790   21.2460   37.0130 H   0  0  0  0  0  0  0  0  0  0  0  0
  1  2  1  0  0  0  0
  1 19  1  0  0  0  0
  3  1  1  0  0  0  0
  4  9  1  0  0  0  0
  4  1  1  0  0  0  0
  5  4  2  0  0  0  0
  6  5  1  0  0  0  0
  6  7  2  0  0  0  0
  7  8  1  0  0  0  0
  8 11  1  0  0  0  0
  8  9  2  0  0  0  0
 10  6  1  0  0  0  0
 12  5  1  0  0  0  0
 13 12  1  0  0  0  0
 13 17  1  0  0  0  0
 14 13  2  0  0  0  0
 15 14  1  0  0  0  0
 15 16  2  0  0  0  0
 16 12  1  0  0  0  0
 18 15  1  0  0  0  0
 19 20  1  1  0  0  0
 19 21  1  0  0  0  0
 21 22  2  0  0  0  0
 21 27  1  0  0  0  0
 22 23  1  0  0  0  0
 23 24  2  0  0  0  0
 24 25  1  0  0  0  0
 26 24  1  0  0  0  0
 27 26  2  0  0  0  0
 28 19  1  0  0  0  0
 28 29  1  0  0  0  0
 29 30  1  0  0  0  0
 30 33  1  0  0  0  0
 30 32  1  0  0  0  0
 31 29  2  0  0  0  0
M  END
>  <minimizedAffinity>
-5.29356146

>  <minimizedRMSD>
1.38997591

$$$$
