
 OpenBabel03262519593D

 33 36  0  0  1  0  0  0  0  0999 V2000
   39.0780   24.4930   36.0790 C   0  0  1  0  0  0  0  0  0  0  0  0
   37.7130   24.9150   36.2370 C   0  0  0  0  0  0  0  0  0  0  0  0
   38.2000   23.5770   36.8690 C   0  0  1  0  0  0  0  0  0  0  0  0
   39.8420   25.0920   36.6810 H   0  0  0  0  0  0  0  0  0  0  0  0
   37.4190   25.6930   36.9580 H   0  0  0  0  0  0  0  0  0  0  0  0
   36.9980   24.7940   35.4230 H   0  0  0  0  0  0  0  0  0  0  0  0
   39.4790   24.1430   33.6360 C   0  0  0  0  0  0  0  0  0  0  0  0
   40.2780   23.3160   32.8500 C   0  0  0  0  0  0  0  0  0  0  0  0
   40.9570   22.5620   33.7630 N   0  0  0  0  0  0  0  0  0  0  0  0
   40.5630   22.9430   34.9780 C   0  0  0  0  0  0  0  0  0  0  0  0
   39.6560   23.9130   34.9250 N   0  0  0  0  0  0  0  0  0  0  0  0
   40.2800   23.3480   31.7580 H   0  0  0  0  0  0  0  0  0  0  0  0
   41.0200   22.4290   35.8210 H   0  0  0  0  0  0  0  0  0  0  0  0
   38.5650   25.1480   33.1060 C   0  0  0  0  0  0  0  0  0  0  0  0
   38.9710   26.4990   33.0590 C   0  0  0  0  0  0  0  0  0  0  0  0
   38.0460   27.4320   32.5310 C   0  0  0  0  0  0  0  0  0  0  0  0
   36.8420   26.9650   32.1100 N   0  0  0  0  0  0  0  0  0  0  0  0
   36.4980   25.6590   32.1750 C   0  0  0  0  0  0  0  0  0  0  0  0
   37.3500   24.7490   32.6700 N   0  0  0  0  0  0  0  0  0  0  0  0
   39.9260   26.8100   33.4030 H   0  0  0  0  0  0  0  0  0  0  0  0
   38.2910   28.4770   32.4670 H   0  0  0  0  0  0  0  0  0  0  0  0
   35.5110   25.4620   31.8010 H   0  0  0  0  0  0  0  0  0  0  0  0
   37.3130   22.5300   36.3390 N   0  0  0  0  0  0  0  0  0  0  0  0
   37.6650   22.1850   35.1070 N   0  0  0  0  0  0  0  0  0  0  0  0
   36.8220   21.2150   34.6520 C   0  0  0  0  0  0  0  0  0  0  0  0
   36.7520   20.6650   33.7240 H   0  0  0  0  0  0  0  0  0  0  0  0
   35.9240   20.9800   35.6830 C   0  0  0  0  0  3  0  0  0  0  0  0
   36.2460   21.8120   36.7350 C   0  0  0  0  0  0  0  0  0  0  0  0
   35.8930   22.0340   37.7340 H   0  0  0  0  0  0  0  0  0  0  0  0
   38.2680   23.6880   38.3790 C   0  0  0  0  0  0  0  0  0  0  0  0
   37.4690   22.7240   38.9610 F   0  0  0  0  0  0  0  0  0  0  0  0
   39.6140   23.3170   38.7980 F   0  0  0  0  0  0  0  0  0  0  0  0
   38.0600   24.9270   38.8480 F   0  0  0  0  0  0  0  0  0  0  0  0
  1  2  1  0  0  0  0
  1  4  1  1  0  0  0
  1  3  1  0  0  0  0
  2  3  1  0  0  0  0
  2  5  1  0  0  0  0
  3 30  1  1  0  0  0
  6  2  1  0  0  0  0
  7 11  1  0  0  0  0
  8  7  2  0  0  0  0
  8  9  1  0  0  0  0
  9 10  2  0  0  0  0
 10 13  1  0  0  0  0
 11 10  1  0  0  0  0
 11  1  1  0  0  0  0
 12  8  1  0  0  0  0
 14  7  1  0  0  0  0
 15 14  1  0  0  0  0
 15 20  1  0  0  0  0
 16 15  2  0  0  0  0
 17 18  2  0  0  0  0
 17 16  1  0  0  0  0
 18 19  1  0  0  0  0
 19 14  2  0  0  0  0
 21 16  1  0  0  0  0
 22 18  1  0  0  0  0
 23 28  1  0  0  0  0
 23  3  1  0  0  0  0
 24 23  1  0  0  0  0
 25 24  2  0  0  0  0
 25 27  1  0  0  0  0
 26 25  1  0  0  0  0
 27 28  2  0  0  0  0
 28 29  1  0  0  0  0
 30 32  1  0  0  0  0
 30 33  1  0  0  0  0
 30 31  1  0  0  0  0
M  END
>  <minimizedAffinity>
-5.11165237

>  <minimizedRMSD>
2.09339643

$$$$
