
 OpenBabel03262519203D

 27 30  0  0  0  0  0  0  0  0999 V2000
   37.5510   25.2310   33.8730 C   0  0  0  0  0  0  0  0  0  0  0  0
   37.9340   25.5470   35.1870 C   0  0  0  0  0  0  0  0  0  0  0  0
   37.9050   26.8740   35.5630 C   0  0  0  0  0  0  0  0  0  0  0  0
   37.5110   27.8130   34.6570 N   0  0  0  0  0  0  0  0  0  0  0  0
   37.1470   27.4770   33.3970 C   0  0  0  0  0  0  0  0  0  0  0  0
   37.1660   26.1990   33.0100 N   0  0  0  0  0  0  0  0  0  0  0  0
   38.1960   27.1520   36.5720 H   0  0  0  0  0  0  0  0  0  0  0  0
   36.8690   28.3500   32.8330 H   0  0  0  0  0  0  0  0  0  0  0  0
   37.5480   23.8930   33.3910 N   0  0  0  0  0  0  0  0  0  0  0  0
   37.8470   22.8950   34.2260 N   0  0  0  0  0  0  0  0  0  0  0  0
   37.7840   21.7210   33.5660 C   0  0  0  0  0  0  0  0  0  0  0  0
   37.9650   20.7150   33.9320 H   0  0  0  0  0  0  0  0  0  0  0  0
   37.4300   21.9760   32.2520 C   0  0  0  0  0  0  0  0  0  0  0  0
   37.2920   23.3490   32.1880 C   0  0  0  0  0  0  0  0  0  0  0  0
   37.0270   23.9410   31.3440 H   0  0  0  0  0  0  0  0  0  0  0  0
   38.3260   24.5430   36.0630 N   0  0  0  0  0  0  0  0  0  0  0  0
   37.5320   23.9490   36.9850 C   0  0  0  0  0  0  0  0  0  0  0  0
   38.2060   23.0140   37.6820 N   0  0  0  0  0  0  0  0  0  0  0  0
   39.4610   23.0020   37.2000 C   0  0  0  0  0  0  0  0  0  0  0  0
   40.6040   22.2950   37.4780 C   0  0  0  0  0  0  0  0  0  0  0  0
   41.7770   22.4610   36.8470 N   0  0  0  0  0  0  0  0  0  0  0  0
   41.7890   23.4030   35.8760 C   0  0  0  0  0  0  0  0  0  0  0  0
   40.6860   24.0980   35.5950 N   0  0  0  0  0  0  0  0  0  0  0  0
   39.5160   23.9590   36.1970 C   0  0  0  0  0  0  0  0  0  0  0  0
   36.4860   24.1200   37.2210 H   0  0  0  0  0  0  0  0  0  0  0  0
   40.5140   21.5590   38.2690 H   0  0  0  0  0  0  0  0  0  0  0  0
   42.7390   23.5400   35.3630 H   0  0  0  0  0  0  0  0  0  0  0  0
  1  2  1  0  0  0  0
  2  3  2  0  0  0  0
  2 16  1  0  0  0  0
  3  7  1  0  0  0  0
  4  3  1  0  0  0  0
  5  4  2  0  0  0  0
  6  5  1  0  0  0  0
  6  1  2  0  0  0  0
  8  5  1  0  0  0  0
  9  1  1  0  0  0  0
  9 10  1  0  0  0  0
 11 12  1  0  0  0  0
 11 10  2  0  0  0  0
 13 11  1  0  0  0  0
 14 13  2  0  0  0  0
 14  9  1  0  0  0  0
 15 14  1  0  0  0  0
 16 24  1  0  0  0  0
 16 17  1  0  0  0  0
 17 25  1  0  0  0  0
 17 18  2  0  0  0  0
 19 20  1  0  0  0  0
 19 18  1  0  0  0  0
 20 26  1  0  0  0  0
 21 20  2  0  0  0  0
 22 21  1  0  0  0  0
 23 22  2  0  0  0  0
 23 24  1  0  0  0  0
 24 19  2  0  0  0  0
 27 22  1  0  0  0  0
M  END
>  <minimizedAffinity>
-4.94337368

>  <minimizedRMSD>
0.693733752

$$$$
