
 OpenBabel03262519593D

 33 36  0  0  1  0  0  0  0  0999 V2000
   39.0760   24.2480   36.2490 C   0  0  1  0  0  0  0  0  0  0  0  0
   37.7260   24.7360   36.3370 C   0  0  0  0  0  0  0  0  0  0  0  0
   38.1190   23.3840   37.0050 C   0  0  1  0  0  0  0  0  0  0  0  0
   39.8380   24.8180   36.8810 H   0  0  0  0  0  0  0  0  0  0  0  0
   37.4360   25.5350   37.0360 H   0  0  0  0  0  0  0  0  0  0  0  0
   37.0460   24.6380   35.4910 H   0  0  0  0  0  0  0  0  0  0  0  0
   39.5710   23.8460   33.8310 C   0  0  0  0  0  0  0  0  0  0  0  0
   40.3680   22.9750   33.0920 C   0  0  0  0  0  0  0  0  0  0  0  0
   40.9730   22.2070   34.0450 N   0  0  0  0  0  0  0  0  0  0  0  0
   40.5420   22.6220   35.2360 C   0  0  0  0  0  0  0  0  0  0  0  0
   39.6800   23.6280   35.1300 N   0  0  0  0  0  0  0  0  0  0  0  0
   40.4200   22.9910   32.0010 H   0  0  0  0  0  0  0  0  0  0  0  0
   40.9390   22.1020   36.1050 H   0  0  0  0  0  0  0  0  0  0  0  0
   38.7240   24.8810   33.2480 C   0  0  0  0  0  0  0  0  0  0  0  0
   39.2200   26.1960   33.1280 C   0  0  0  0  0  0  0  0  0  0  0  0
   38.3580   27.1600   32.5510 C   0  0  0  0  0  0  0  0  0  0  0  0
   37.1240   26.7530   32.1550 N   0  0  0  0  0  0  0  0  0  0  0  0
   36.6930   25.4790   32.2900 C   0  0  0  0  0  0  0  0  0  0  0  0
   37.4840   24.5410   32.8330 N   0  0  0  0  0  0  0  0  0  0  0  0
   40.1950   26.4610   33.4550 H   0  0  0  0  0  0  0  0  0  0  0  0
   38.6720   28.1810   32.4300 H   0  0  0  0  0  0  0  0  0  0  0  0
   35.6940   25.3280   31.9270 H   0  0  0  0  0  0  0  0  0  0  0  0
   37.2100   22.3730   36.4440 N   0  0  0  0  0  0  0  0  0  0  0  0
   36.2080   22.1160   37.2770 N   0  0  0  0  0  0  0  0  0  0  0  0
   35.3910   21.1780   36.7230 C   0  0  0  0  0  0  0  0  0  0  0  0
   34.4820   20.6930   37.0530 H   0  0  0  0  0  0  0  0  0  0  0  0
   35.9490   20.8680   35.4900 C   0  0  0  0  0  3  0  0  0  0  0  0
   37.0910   21.6260   35.3310 C   0  0  0  0  0  0  0  0  0  0  0  0
   37.8710   21.7760   34.5970 H   0  0  0  0  0  0  0  0  0  0  0  0
   38.1210   23.5100   38.5150 C   0  0  0  0  0  0  0  0  0  0  0  0
   37.6760   22.3350   39.0890 F   0  0  0  0  0  0  0  0  0  0  0  0
   39.5070   23.6050   38.9580 F   0  0  0  0  0  0  0  0  0  0  0  0
   37.5070   24.6100   38.9750 F   0  0  0  0  0  0  0  0  0  0  0  0
  1  2  1  0  0  0  0
  1  4  1  1  0  0  0
  1  3  1  0  0  0  0
  2  3  1  0  0  0  0
  2  5  1  0  0  0  0
  3 30  1  1  0  0  0
  6  2  1  0  0  0  0
  7 11  1  0  0  0  0
  8  7  2  0  0  0  0
  8  9  1  0  0  0  0
  9 10  2  0  0  0  0
 10 13  1  0  0  0  0
 11 10  1  0  0  0  0
 11  1  1  0  0  0  0
 12  8  1  0  0  0  0
 14  7  1  0  0  0  0
 15 14  1  0  0  0  0
 15 20  1  0  0  0  0
 16 15  2  0  0  0  0
 17 18  2  0  0  0  0
 17 16  1  0  0  0  0
 18 19  1  0  0  0  0
 19 14  2  0  0  0  0
 21 16  1  0  0  0  0
 22 18  1  0  0  0  0
 23  3  1  0  0  0  0
 23 24  1  0  0  0  0
 25 26  1  0  0  0  0
 25 24  2  0  0  0  0
 27 25  1  0  0  0  0
 28 27  2  0  0  0  0
 28 23  1  0  0  0  0
 29 28  1  0  0  0  0
 30 32  1  0  0  0  0
 30 33  1  0  0  0  0
 30 31  1  0  0  0  0
M  END
>  <minimizedAffinity>
-5.0522027

>  <minimizedRMSD>
2.09493828

$$$$
