
 OpenBabel03262519553D

 30 33  0  0  1  0  0  0  0  0999 V2000
   37.3760   22.3070   33.5820 C   0  0  0  0  0  0  0  0  0  0  0  0
   37.8410   22.1180   34.8770 C   0  0  0  0  0  0  0  0  0  0  0  0
   38.3220   23.3490   35.2350 N   0  0  0  0  0  0  0  0  0  0  0  0
   38.1420   24.1690   34.2160 C   0  0  0  0  0  0  0  0  0  0  0  0
   37.5530   23.5580   33.1600 N   0  0  0  0  0  0  0  0  0  0  0  0
   37.8310   21.2220   35.4710 H   0  0  0  0  0  0  0  0  0  0  0  0
   38.4410   25.2120   34.2460 H   0  0  0  0  0  0  0  0  0  0  0  0
   36.7660   21.2730   32.7610 C   0  0  0  0  0  0  0  0  0  0  0  0
   37.5350   20.4890   31.9070 C   0  0  0  0  0  0  0  0  0  0  0  0
   36.9090   19.5040   31.1340 C   0  0  0  0  0  0  0  0  0  0  0  0
   35.5830   19.3610   31.2550 N   0  0  0  0  0  0  0  0  0  0  0  0
   34.8380   20.1350   32.0950 C   0  0  0  0  0  0  0  0  0  0  0  0
   35.4370   21.0820   32.8380 N   0  0  0  0  0  0  0  0  0  0  0  0
   38.5990   20.6210   31.8270 H   0  0  0  0  0  0  0  0  0  0  0  0
   37.4940   18.8900   30.4690 H   0  0  0  0  0  0  0  0  0  0  0  0
   33.7590   20.0130   32.1870 H   0  0  0  0  0  0  0  0  0  0  0  0
   37.2380   24.2230   31.9120 C   0  0  1  0  0  0  0  0  0  0  0  0
   35.8460   24.4460   31.5000 C   0  0  0  0  0  0  0  0  0  0  0  0
   36.6260   25.5890   32.1380 C   0  0  2  0  0  0  0  0  0  0  0  0
   38.0490   24.1320   31.1600 H   0  0  0  0  0  0  0  0  0  0  0  0
   35.6050   24.4730   30.4290 H   0  0  0  0  0  0  0  0  0  0  0  0
   35.0300   23.9980   32.1050 H   0  0  0  0  0  0  0  0  0  0  0  0
   36.2800   25.8860   33.1480 H   0  0  0  0  0  0  0  0  0  0  0  0
   37.0380   26.6330   31.2180 N   0  0  0  0  0  0  0  0  0  0  0  0
   38.2200   26.7070   30.6160 N   0  0  0  0  0  0  0  0  0  0  0  0
   38.2720   27.7950   29.8320 C   0  0  0  0  0  0  0  0  0  0  0  0
   39.0290   28.2210   29.1820 H   0  0  0  0  0  0  0  0  0  0  0  0
   37.0570   28.4620   29.9320 C   0  0  0  0  0  3  0  0  0  0  0  0
   36.2890   27.7020   30.8200 C   0  0  0  0  0  0  0  0  0  0  0  0
   35.2730   27.9510   31.1180 H   0  0  0  0  0  0  0  0  0  0  0  0
  1  2  2  0  0  0  0
  2  3  1  0  0  0  0
  2  6  1  0  0  0  0
  4  7  1  0  0  0  0
  4  3  2  0  0  0  0
  5  1  1  0  0  0  0
  5  4  1  0  0  0  0
  8 13  1  0  0  0  0
  8  1  1  0  0  0  0
  9  8  2  0  0  0  0
 10 11  2  0  0  0  0
 10  9  1  0  0  0  0
 11 12  1  0  0  0  0
 12 16  1  0  0  0  0
 12 13  2  0  0  0  0
 14  9  1  0  0  0  0
 15 10  1  0  0  0  0
 17 20  1  6  0  0  0
 17 19  1  0  0  0  0
 17  5  1  0  0  0  0
 18 17  1  0  0  0  0
 18 22  1  0  0  0  0
 18 19  1  0  0  0  0
 19 23  1  1  0  0  0
 21 18  1  0  0  0  0
 24 19  1  0  0  0  0
 25 24  1  0  0  0  0
 26 28  1  0  0  0  0
 26 25  2  0  0  0  0
 27 26  1  0  0  0  0
 28 29  2  0  0  0  0
 29 30  1  0  0  0  0
 29 24  1  0  0  0  0
M  END
>  <minimizedAffinity>
-4.1644125

>  <minimizedRMSD>
6.73751307

$$$$
