
 OpenBabel03262517463D

 29 32  0  0  0  0  0  0  0  0999 V2000
   39.7400   22.7930   37.9050 C   0  0  0  0  0  0  0  0  0  0  0  0
   38.8130   23.5160   38.6920 C   0  0  0  0  0  0  0  0  0  0  0  0
   37.7950   24.2240   38.0130 C   0  0  0  0  0  0  0  0  0  0  0  0
   37.7870   24.1510   36.6420 N   0  0  0  0  0  0  0  0  0  0  0  0
   38.6990   23.4420   35.9340 C   0  0  0  0  0  0  0  0  0  0  0  0
   39.6710   22.7670   36.5670 N   0  0  0  0  0  0  0  0  0  0  0  0
   38.5340   23.4820   34.5220 N   0  0  0  0  0  0  0  0  0  0  0  0
   38.9190   22.4440   33.7150 C   0  0  0  0  0  0  0  0  0  0  0  0
   38.6460   22.7470   32.4260 N   0  0  0  0  0  0  0  0  0  0  0  0
   38.0870   23.9710   32.3770 C   0  0  0  0  0  0  0  0  0  0  0  0
   37.5870   24.8450   31.3990 C   0  0  0  0  0  0  0  0  0  0  0  0
   37.0780   26.0430   31.7200 N   0  0  0  0  0  0  0  0  0  0  0  0
   37.0460   26.4130   33.0080 C   0  0  0  0  0  0  0  0  0  0  0  0
   37.5110   25.6140   33.9860 N   0  0  0  0  0  0  0  0  0  0  0  0
   38.0270   24.4110   33.6990 C   0  0  0  0  0  0  0  0  0  0  0  0
   37.7050   24.2800   30.1000 N   0  0  0  0  0  0  0  0  0  0  0  0
   40.5010   22.2680   38.4710 H   0  0  0  0  0  0  0  0  0  0  0  0
   38.8160   23.5760   39.7520 H   0  0  0  0  0  0  0  0  0  0  0  0
   37.0330   24.8110   38.5060 H   0  0  0  0  0  0  0  0  0  0  0  0
   39.3810   21.5010   34.0400 H   0  0  0  0  0  0  0  0  0  0  0  0
   36.8670   23.9030   29.5960 H   0  0  0  0  0  0  0  0  0  0  0  0
   38.5680   24.1710   29.5170 H   0  0  0  0  0  0  0  0  0  0  0  0
   36.5130   27.6790   33.3830 N   0  0  0  0  0  0  0  0  0  0  0  0
   36.3210   28.2610   34.5630 N   0  0  0  0  0  0  0  0  0  0  0  0
   35.7800   29.4770   34.3970 C   0  0  0  0  0  0  0  0  0  0  0  0
   35.5000   30.2080   35.1440 H   0  0  0  0  0  0  0  0  0  0  0  0
   35.6190   29.6760   33.0210 C   0  0  0  0  0  0  0  0  0  0  0  0
   36.0930   28.5170   32.3950 C   0  0  0  0  0  0  0  0  0  0  0  0
   36.0900   28.3920   31.3170 H   0  0  0  0  0  0  0  0  0  0  0  0
  1 17  1  0  0  0  0
  1  2  1  0  0  0  0
  2 18  1  0  0  0  0
  3 19  1  0  0  0  0
  3  2  2  0  0  0  0
  4  3  1  0  0  0  0
  5  6  1  0  0  0  0
  5  4  2  0  0  0  0
  6  1  2  0  0  0  0
  7  5  1  0  0  0  0
  8 20  1  0  0  0  0
  8  7  1  0  0  0  0
  9  8  2  0  0  0  0
 10  9  1  0  0  0  0
 10 15  1  0  0  0  0
 11 12  1  0  0  0  0
 11 10  2  0  0  0  0
 12 13  2  0  0  0  0
 13 23  1  0  0  0  0
 13 14  1  0  0  0  0
 15 14  2  0  0  0  0
 15  7  1  0  0  0  0
 16 11  1  0  0  0  0
 21 16  1  0  0  0  0
 22 16  1  0  0  0  0
 23 24  1  0  0  0  0
 25 24  2  0  0  0  0
 25 26  1  0  0  0  0
 27 25  1  0  0  0  0
 28 27  2  0  0  0  0
 28 23  1  0  0  0  0
 29 28  1  0  0  0  0
M  END
>  <minimizedAffinity>
-5.9707284

>  <minimizedRMSD>
1.58493114

$$$$
