
 OpenBabel03262519403D

 39 42  0  0  1  0  0  0  0  0999 V2000
   38.1780   25.5220   34.4620 N   0  0  0  0  0  0  0  0  0  0  0  0
   37.2380   26.4810   35.0100 C   0  0  0  0  0  0  0  0  0  0  0  0
   37.2420   27.6240   34.0540 C   0  0  0  0  0  0  0  0  0  0  0  0
   38.1710   27.1830   32.9380 C   0  0  0  0  0  0  0  0  0  0  0  0
   37.9920   25.6410   33.0530 C   0  0  2  0  0  0  0  0  0  0  0  0
   37.4370   26.7420   36.0490 H   0  0  0  0  0  0  0  0  0  0  0  0
   36.2370   25.9980   34.9650 H   0  0  0  0  0  0  0  0  0  0  0  0
   36.2610   27.8700   33.6230 H   0  0  0  0  0  0  0  0  0  0  0  0
   37.7210   28.5390   34.4980 H   0  0  0  0  0  0  0  0  0  0  0  0
   39.2190   27.4190   33.1240 H   0  0  0  0  0  0  0  0  0  0  0  0
   37.7860   27.5190   31.9500 H   0  0  0  0  0  0  0  0  0  0  0  0
   38.7960   25.1920   32.4430 H   0  0  0  0  0  0  0  0  0  0  0  0
   37.8330   24.1780   34.8290 C   0  0  0  0  0  0  0  0  0  0  0  0
   36.7930   24.1670   35.2070 H   0  0  0  0  0  0  0  0  0  0  0  0
   37.8740   23.4520   33.9960 H   0  0  0  0  0  0  0  0  0  0  0  0
   39.0000   23.2030   38.3010 C   0  0  0  0  0  0  0  0  0  0  0  0
   38.1700   23.6760   37.2830 C   0  0  0  0  0  0  0  0  0  0  0  0
   38.6720   23.6850   35.9640 C   0  0  0  0  0  0  0  0  0  0  0  0
   39.9450   23.2270   35.7700 N   0  0  0  0  0  0  0  0  0  0  0  0
   40.6990   22.7820   36.7930 C   0  0  0  0  0  0  0  0  0  0  0  0
   40.2180   22.7760   38.0410 N   0  0  0  0  0  0  0  0  0  0  0  0
   38.6570   23.1780   39.3200 H   0  0  0  0  0  0  0  0  0  0  0  0
   37.1630   24.0300   37.4860 H   0  0  0  0  0  0  0  0  0  0  0  0
   41.6930   22.4410   36.5380 H   0  0  0  0  0  0  0  0  0  0  0  0
   36.7560   25.2450   32.6370 O   0  0  0  0  0  0  0  0  0  0  0  0
   36.7580   24.2260   31.7160 C   0  0  2  0  0  0  0  0  0  0  0  0
   35.4700   24.0430   30.9610 C   0  0  0  0  0  0  0  0  0  0  0  0
   35.9450   22.9930   31.9250 C   0  0  1  0  0  0  0  0  0  0  0  0
   37.7560   23.9960   31.3290 H   0  0  0  0  0  0  0  0  0  0  0  0
   35.5140   23.8620   29.8660 H   0  0  0  0  0  0  0  0  0  0  0  0
   34.5650   24.5950   31.3120 H   0  0  0  0  0  0  0  0  0  0  0  0
   35.4260   22.8450   32.8790 H   0  0  0  0  0  0  0  0  0  0  0  0
   36.4030   21.7910   31.2590 N   0  0  0  0  0  0  0  0  0  0  0  0
   35.7140   20.6860   30.9640 N   0  0  0  0  0  0  0  0  0  0  0  0
   36.4600   19.7780   30.3460 C   0  0  0  0  0  0  0  0  0  0  0  0
   35.9560   18.8570   30.0810 H   0  0  0  0  0  0  0  0  0  0  0  0
   37.7090   20.3020   30.2220 C   0  0  0  0  0  0  0  0  0  0  0  0
   37.6570   21.5590   30.7960 C   0  0  0  0  0  0  0  0  0  0  0  0
   38.5230   22.2020   30.8340 H   0  0  0  0  0  0  0  0  0  0  0  0
  1 13  1  0  0  0  0
  1  2  1  0  0  0  0
  2  6  1  0  0  0  0
  3  9  1  0  0  0  0
  3  2  1  0  0  0  0
  4  5  1  0  0  0  0
  4 10  1  0  0  0  0
  4  3  1  0  0  0  0
  5 12  1  6  0  0  0
  5  1  1  0  0  0  0
  7  2  1  0  0  0  0
  8  3  1  0  0  0  0
 11  4  1  0  0  0  0
 13 14  1  0  0  0  0
 13 18  1  0  0  0  0
 15 13  1  0  0  0  0
 16 22  1  0  0  0  0
 17 23  1  0  0  0  0
 17 16  2  0  0  0  0
 18 17  1  0  0  0  0
 19 18  2  0  0  0  0
 19 20  1  0  0  0  0
 20 21  2  0  0  0  0
 21 16  1  0  0  0  0
 24 20  1  0  0  0  0
 25  5  1  0  0  0  0
 26 29  1  6  0  0  0
 26 28  1  0  0  0  0
 26 25  1  0  0  0  0
 27 31  1  0  0  0  0
 27 26  1  0  0  0  0
 27 28  1  0  0  0  0
 28 32  1  1  0  0  0
 30 27  1  0  0  0  0
 33 28  1  0  0  0  0
 34 33  1  0  0  0  0
 35 34  2  0  0  0  0
 36 35  1  0  0  0  0
 37 35  1  0  0  0  0
 37 38  2  0  0  0  0
 38 39  1  0  0  0  0
 38 33  1  0  0  0  0
M  END
>  <minimizedAffinity>
-4.68758059

>  <minimizedRMSD>
6.0225625

$$$$
