
 OpenBabel03262519563D

 30 33  0  0  1  0  0  0  0  0999 V2000
   38.0660   23.7410   34.4870 C   0  0  0  0  0  0  0  0  0  0  0  0
   38.2120   24.9390   33.8010 C   0  0  0  0  0  0  0  0  0  0  0  0
   37.7540   24.6530   32.5420 N   0  0  0  0  0  0  0  0  0  0  0  0
   37.3800   23.3870   32.5220 C   0  0  0  0  0  0  0  0  0  0  0  0
   37.5590   22.7780   33.7190 N   0  0  0  0  0  0  0  0  0  0  0  0
   38.5920   25.8790   34.1610 H   0  0  0  0  0  0  0  0  0  0  0  0
   36.9780   22.9110   31.6340 H   0  0  0  0  0  0  0  0  0  0  0  0
   38.4220   23.5360   35.8830 C   0  0  0  0  0  0  0  0  0  0  0  0
   39.6300   22.9420   36.2330 C   0  0  0  0  0  0  0  0  0  0  0  0
   39.9360   22.7630   37.5890 C   0  0  0  0  0  0  0  0  0  0  0  0
   39.0390   23.1780   38.4930 N   0  0  0  0  0  0  0  0  0  0  0  0
   37.8580   23.7590   38.1380 C   0  0  0  0  0  0  0  0  0  0  0  0
   37.5630   23.9320   36.8370 N   0  0  0  0  0  0  0  0  0  0  0  0
   40.3350   22.6170   35.4900 H   0  0  0  0  0  0  0  0  0  0  0  0
   40.8690   22.3040   37.8730 H   0  0  0  0  0  0  0  0  0  0  0  0
   37.1340   24.0940   38.8800 H   0  0  0  0  0  0  0  0  0  0  0  0
   37.2320   21.3910   33.9780 C   0  0  1  0  0  0  0  0  0  0  0  0
   35.9630   21.0160   34.6170 C   0  0  0  0  0  0  0  0  0  0  0  0
   36.0960   20.9050   33.1030 C   0  0  2  0  0  0  0  0  0  0  0  0
   38.1310   20.7480   34.0720 H   0  0  0  0  0  0  0  0  0  0  0  0
   35.9260   20.1090   35.2350 H   0  0  0  0  0  0  0  0  0  0  0  0
   35.3000   21.8180   35.0040 H   0  0  0  0  0  0  0  0  0  0  0  0
   35.4870   21.6280   32.5250 H   0  0  0  0  0  0  0  0  0  0  0  0
   36.2140   19.5490   32.6000 N   0  0  0  0  0  0  0  0  0  0  0  0
   37.2550   19.0620   31.9330 N   0  0  0  0  0  0  0  0  0  0  0  0
   37.0380   17.7760   31.6150 C   0  0  0  0  0  0  0  0  0  0  0  0
   37.6140   17.0210   31.0880 H   0  0  0  0  0  0  0  0  0  0  0  0
   35.7900   17.4100   32.1050 C   0  0  0  0  0  3  0  0  0  0  0  0
   35.2850   18.5560   32.7280 C   0  0  0  0  0  0  0  0  0  0  0  0
   34.3170   18.6090   33.2180 H   0  0  0  0  0  0  0  0  0  0  0  0
  1  8  1  0  0  0  0
  2  6  1  0  0  0  0
  2  1  2  0  0  0  0
  3  2  1  0  0  0  0
  4  3  2  0  0  0  0
  4  5  1  0  0  0  0
  5 17  1  0  0  0  0
  5  1  1  0  0  0  0
  7  4  1  0  0  0  0
  8  9  2  0  0  0  0
  8 13  1  0  0  0  0
  9 10  1  0  0  0  0
 10 15  1  0  0  0  0
 10 11  2  0  0  0  0
 12 11  1  0  0  0  0
 12 16  1  0  0  0  0
 13 12  2  0  0  0  0
 14  9  1  0  0  0  0
 17 20  1  1  0  0  0
 17 18  1  0  0  0  0
 18 22  1  0  0  0  0
 18 21  1  0  0  0  0
 19 23  1  6  0  0  0
 19 17  1  0  0  0  0
 19 18  1  0  0  0  0
 24 29  1  0  0  0  0
 24 19  1  0  0  0  0
 25 24  1  0  0  0  0
 26 25  2  0  0  0  0
 26 28  1  0  0  0  0
 27 26  1  0  0  0  0
 28 29  2  0  0  0  0
 29 30  1  0  0  0  0
M  END
>  <minimizedAffinity>
-4.62402248

>  <minimizedRMSD>
0.725574255

$$$$
