
 OpenBabel03262519563D

 30 33  0  0  1  0  0  0  0  0999 V2000
   37.9120   23.6290   33.8010 C   0  0  0  0  0  0  0  0  0  0  0  0
   38.1270   23.2550   35.1210 C   0  0  0  0  0  0  0  0  0  0  0  0
   38.3410   24.4430   35.7670 N   0  0  0  0  0  0  0  0  0  0  0  0
   38.2540   25.4130   34.8760 C   0  0  0  0  0  0  0  0  0  0  0  0
   37.9870   24.9480   33.6320 N   0  0  0  0  0  0  0  0  0  0  0  0
   38.1260   22.2690   35.5490 H   0  0  0  0  0  0  0  0  0  0  0  0
   38.3870   26.4590   35.1370 H   0  0  0  0  0  0  0  0  0  0  0  0
   37.6360   22.7050   32.7120 C   0  0  0  0  0  0  0  0  0  0  0  0
   38.6730   22.0930   32.0140 C   0  0  0  0  0  0  0  0  0  0  0  0
   38.3650   21.2090   30.9720 C   0  0  0  0  0  0  0  0  0  0  0  0
   37.0730   20.9930   30.6940 N   0  0  0  0  0  0  0  0  0  0  0  0
   36.0660   21.5980   31.3850 C   0  0  0  0  0  0  0  0  0  0  0  0
   36.3580   22.4470   32.3860 N   0  0  0  0  0  0  0  0  0  0  0  0
   39.7030   22.2810   32.2550 H   0  0  0  0  0  0  0  0  0  0  0  0
   39.1590   20.7280   30.4240 H   0  0  0  0  0  0  0  0  0  0  0  0
   35.0160   21.4170   31.1520 H   0  0  0  0  0  0  0  0  0  0  0  0
   37.8390   25.7940   32.4660 C   0  0  1  0  0  0  0  0  0  0  0  0
   37.7050   27.2510   32.5960 C   0  0  0  0  0  0  0  0  0  0  0  0
   39.0610   26.6580   32.2350 C   0  0  2  0  0  0  0  0  0  0  0  0
   37.4090   25.2560   31.5960 H   0  0  0  0  0  0  0  0  0  0  0  0
   37.1260   27.8020   31.8430 H   0  0  0  0  0  0  0  0  0  0  0  0
   37.6040   27.6910   33.6110 H   0  0  0  0  0  0  0  0  0  0  0  0
   39.8370   26.7500   33.0210 H   0  0  0  0  0  0  0  0  0  0  0  0
   39.4580   26.8440   30.8520 N   0  0  0  0  0  0  0  0  0  0  0  0
   39.2250   25.9910   29.8610 N   0  0  0  0  0  0  0  0  0  0  0  0
   39.7250   26.4710   28.7120 C   0  0  0  0  0  0  0  0  0  0  0  0
   39.7550   26.1040   27.6910 H   0  0  0  0  0  0  0  0  0  0  0  0
   40.3140   27.7030   28.9730 C   0  0  0  0  0  3  0  0  0  0  0  0
   40.1300   27.9180   30.3420 C   0  0  0  0  0  0  0  0  0  0  0  0
   40.4770   28.8010   30.8740 H   0  0  0  0  0  0  0  0  0  0  0  0
  1  2  2  0  0  0  0
  2  6  1  0  0  0  0
  2  3  1  0  0  0  0
  4  7  1  0  0  0  0
  4  3  2  0  0  0  0
  5  1  1  0  0  0  0
  5  4  1  0  0  0  0
  8  1  1  0  0  0  0
  9 14  1  0  0  0  0
  9  8  2  0  0  0  0
 10  9  1  0  0  0  0
 11 10  2  0  0  0  0
 11 12  1  0  0  0  0
 12 13  2  0  0  0  0
 13  8  1  0  0  0  0
 15 10  1  0  0  0  0
 16 12  1  0  0  0  0
 17 20  1  6  0  0  0
 17 18  1  0  0  0  0
 17  5  1  0  0  0  0
 18 22  1  0  0  0  0
 19 17  1  0  0  0  0
 19 18  1  0  0  0  0
 19 23  1  1  0  0  0
 21 18  1  0  0  0  0
 24 19  1  0  0  0  0
 25 24  1  0  0  0  0
 26 28  1  0  0  0  0
 26 25  2  0  0  0  0
 27 26  1  0  0  0  0
 28 29  2  0  0  0  0
 29 24  1  0  0  0  0
 29 30  1  0  0  0  0
M  END
>  <minimizedAffinity>
-3.2936573

>  <minimizedRMSD>
7.01497746

$$$$
