
 OpenBabel03262519133D

 25 27  0  0  0  0  0  0  0  0999 V2000
   37.9550   25.2340   36.0360 C   0  0  0  0  0  0  0  0  0  0  0  0
   38.3270   25.7800   34.7960 C   0  0  0  0  0  0  0  0  0  0  0  0
   39.4870   25.3370   34.1950 C   0  0  0  0  0  0  0  0  0  0  0  0
   40.2060   24.3870   34.8500 N   0  0  0  0  0  0  0  0  0  0  0  0
   39.8200   23.8790   36.0490 C   0  0  0  0  0  0  0  0  0  0  0  0
   38.6910   24.3170   36.6240 N   0  0  0  0  0  0  0  0  0  0  0  0
   37.0430   25.6000   36.4830 H   0  0  0  0  0  0  0  0  0  0  0  0
   39.8010   25.7320   33.2470 H   0  0  0  0  0  0  0  0  0  0  0  0
   40.7350   22.9090   36.5180 N   0  0  0  0  0  0  0  0  0  0  0  0
   40.7090   21.7770   37.2450 C   0  0  0  0  0  0  0  0  0  0  0  0
   41.9580   21.2900   37.3520 N   0  0  0  0  0  0  0  0  0  0  0  0
   42.7670   22.1250   36.6870 C   0  0  0  0  0  0  0  0  0  0  0  0
   41.9980   23.1250   36.1740 N   0  0  0  0  0  0  0  0  0  0  0  0
   37.5710   26.7910   34.0920 C   0  0  0  0  0  0  0  0  0  0  0  0
   36.7480   27.7500   34.6460 C   0  0  0  0  0  0  0  0  0  0  0  0
   36.1250   28.6120   33.8170 C   0  0  0  0  0  0  0  0  0  0  0  0
   36.3490   28.4850   32.4440 C   0  0  0  0  0  0  0  0  0  0  0  0
   37.5150   27.0530   32.3270 S   0  0  0  0  0  0  0  0  0  0  0  0
   36.6040   27.8120   35.7170 H   0  0  0  0  0  0  0  0  0  0  0  0
   35.4520   29.4180   34.0670 H   0  0  0  0  0  0  0  0  0  0  0  0
   35.9040   29.1620   31.2920 C   0  0  0  0  0  0  0  0  0  0  0  0
   35.0620   30.0520   31.3610 O   0  0  0  0  0  0  0  0  0  0  0  0
   36.4220   28.8300   29.9890 N   0  0  0  0  0  0  0  0  0  0  0  0
   36.2700   27.8910   29.5440 H   0  0  0  0  0  0  0  0  0  0  0  0
   36.9470   29.6360   29.5810 H   0  0  0  0  0  0  0  0  0  0  0  0
  1  7  1  0  0  0  0
  1  6  1  0  0  0  0
  2  1  2  0  0  0  0
  3  2  1  0  0  0  0
  3  4  2  0  0  0  0
  4  5  1  0  0  0  0
  5  9  1  0  0  0  0
  5  6  2  0  0  0  0
  8  3  1  0  0  0  0
  9 10  1  0  0  0  0
 10 11  2  0  0  0  0
 12 11  1  0  0  0  0
 13  9  1  0  0  0  0
 13 12  2  0  0  0  0
 14 15  2  0  0  0  0
 14  2  1  0  0  0  0
 15 19  1  0  0  0  0
 16 20  1  0  0  0  0
 16 15  1  0  0  0  0
 17 16  2  0  0  0  0
 18 17  1  0  0  0  0
 18 14  1  0  0  0  0
 21 22  2  0  0  0  0
 21 17  1  0  0  0  0
 23 21  1  0  0  0  0
 24 23  1  0  0  0  0
 25 23  1  0  0  0  0
M  END
>  <minimizedAffinity>
-4.79026031

>  <minimizedRMSD>
2.16081786

$$$$
