
 OpenBabel03262519203D

 25 28  0  0  0  0  0  0  0  0999 V2000
   37.8000   25.1000   34.4200 C   0  0  0  0  0  0  0  0  0  0  0  0
   38.2840   25.3850   35.6960 C   0  0  0  0  0  0  0  0  0  0  0  0
   38.3100   26.7150   36.0980 C   0  0  0  0  0  0  0  0  0  0  0  0
   37.8720   27.6890   35.2540 N   0  0  0  0  0  0  0  0  0  0  0  0
   37.4080   27.3710   34.0220 C   0  0  0  0  0  0  0  0  0  0  0  0
   37.3740   26.0960   33.6120 N   0  0  0  0  0  0  0  0  0  0  0  0
   38.6840   26.9780   37.0940 H   0  0  0  0  0  0  0  0  0  0  0  0
   37.0860   28.2230   33.4400 H   0  0  0  0  0  0  0  0  0  0  0  0
   37.7380   23.7650   33.9270 N   0  0  0  0  0  0  0  0  0  0  0  0
   37.7070   23.5410   32.5800 C   0  0  0  0  0  0  0  0  0  0  0  0
   37.6490   22.2170   32.3300 N   0  0  0  0  0  0  0  0  0  0  0  0
   37.6450   21.6160   33.5240 C   0  0  0  0  0  0  0  0  0  0  0  0
   37.6980   22.5610   34.4810 N   0  0  0  0  0  0  0  0  0  0  0  0
   38.7280   24.3670   36.5430 N   0  0  0  0  0  0  0  0  0  0  0  0
   38.0940   23.8910   37.6190 C   0  0  0  0  0  0  0  0  0  0  0  0
   38.7980   22.9080   38.2130 N   0  0  0  0  0  0  0  0  0  0  0  0
   39.9210   22.7520   37.4900 C   0  0  0  0  0  0  0  0  0  0  0  0
   41.0100   21.9200   37.5940 C   0  0  0  0  0  0  0  0  0  0  0  0
   42.0430   21.9400   36.7350 N   0  0  0  0  0  0  0  0  0  0  0  0
   41.9610   22.8510   35.7240 C   0  0  0  0  0  0  0  0  0  0  0  0
   40.8950   23.6530   35.6350 N   0  0  0  0  0  0  0  0  0  0  0  0
   39.8640   23.6680   36.4520 C   0  0  0  0  0  0  0  0  0  0  0  0
   37.1490   24.1730   38.0490 H   0  0  0  0  0  0  0  0  0  0  0  0
   41.0960   21.1860   38.3950 H   0  0  0  0  0  0  0  0  0  0  0  0
   42.7120   22.9950   34.9460 H   0  0  0  0  0  0  0  0  0  0  0  0
  1  2  1  0  0  0  0
  2  3  2  0  0  0  0
  2 14  1  0  0  0  0
  3  7  1  0  0  0  0
  4  3  1  0  0  0  0
  5  4  2  0  0  0  0
  6  5  1  0  0  0  0
  6  1  2  0  0  0  0
  8  5  1  0  0  0  0
  9  1  1  0  0  0  0
  9 13  1  0  0  0  0
 10  9  1  0  0  0  0
 11 10  2  0  0  0  0
 11 12  1  0  0  0  0
 12 13  2  0  0  0  0
 14 15  1  0  0  0  0
 15 23  1  0  0  0  0
 15 16  2  0  0  0  0
 17 18  1  0  0  0  0
 17 16  1  0  0  0  0
 18 24  1  0  0  0  0
 19 18  2  0  0  0  0
 20 19  1  0  0  0  0
 21 20  2  0  0  0  0
 21 22  1  0  0  0  0
 22 14  1  0  0  0  0
 22 17  2  0  0  0  0
 25 20  1  0  0  0  0
M  END
>  <minimizedAffinity>
-4.95129156

>  <minimizedRMSD>
0.286675334

$$$$
