
 OpenBabel03262520003D

 31 34  0  0  1  0  0  0  0  0999 V2000
   37.7900   22.6100   34.4230 C   0  0  0  0  0  0  0  0  0  0  0  0
   37.2460   21.4250   33.9270 C   0  0  0  0  0  0  0  0  0  0  0  0
   36.7690   21.7780   32.6960 N   0  0  0  0  0  0  0  0  0  0  0  0
   37.0300   23.0700   32.5180 C   0  0  0  0  0  0  0  0  0  0  0  0
   37.6550   23.6040   33.5610 N   0  0  0  0  0  0  0  0  0  0  0  0
   37.2500   20.4850   34.4730 H   0  0  0  0  0  0  0  0  0  0  0  0
   36.6840   23.4590   31.5530 H   0  0  0  0  0  0  0  0  0  0  0  0
   38.4190   22.7460   35.7270 C   0  0  0  0  0  0  0  0  0  0  0  0
   37.6830   23.2990   36.7970 C   0  0  0  0  0  0  0  0  0  0  0  0
   38.3260   23.4070   38.0500 C   0  0  0  0  0  0  0  0  0  0  0  0
   39.6110   22.9710   38.1370 N   0  0  0  0  0  0  0  0  0  0  0  0
   40.2790   22.4470   37.0850 C   0  0  0  0  0  0  0  0  0  0  0  0
   39.6890   22.3350   35.8830 N   0  0  0  0  0  0  0  0  0  0  0  0
   36.6640   23.6300   36.6760 H   0  0  0  0  0  0  0  0  0  0  0  0
   37.7960   23.8270   38.8980 H   0  0  0  0  0  0  0  0  0  0  0  0
   41.2880   22.1510   37.3190 H   0  0  0  0  0  0  0  0  0  0  0  0
   38.0440   24.9630   33.6150 C   0  0  1  0  0  0  0  0  0  0  0  0
   39.3010   25.4810   34.0800 C   0  0  0  0  0  0  0  0  0  0  0  0
   39.0000   25.3890   32.5530 C   0  0  1  0  0  0  0  0  0  0  0  0
   37.1520   25.6570   33.7780 H   0  0  0  0  0  0  0  0  0  0  0  0
   40.1220   24.8330   34.4180 H   0  0  0  0  0  0  0  0  0  0  0  0
   39.3650   26.5110   34.5140 H   0  0  0  0  0  0  0  0  0  0  0  0
   40.0940   24.5840   31.9720 N   0  0  0  0  0  0  0  0  0  0  0  0
   40.1210   23.6500   31.0020 C   0  0  0  0  0  3  0  0  0  0  0  0
   41.3960   23.2400   30.8780 N   0  0  0  0  0  0  0  0  0  0  0  0
   42.1670   23.9030   31.7570 C   0  0  0  0  0  3  0  0  0  0  0  0
   41.3430   24.7400   32.4340 N   0  0  0  0  0  0  0  0  0  0  0  0
   38.8110   26.7690   31.9600 C   0  0  0  0  0  0  0  0  0  0  0  0
   38.4380   26.6650   30.6340 F   0  0  0  0  0  0  0  0  0  0  0  0
   37.6510   27.3760   32.5970 F   0  0  0  0  0  0  0  0  0  0  0  0
   39.8370   27.6070   32.1750 F   0  0  0  0  0  0  0  0  0  0  0  0
  1  8  1  0  0  0  0
  2  1  2  0  0  0  0
  2  6  1  0  0  0  0
  3  2  1  0  0  0  0
  4  3  2  0  0  0  0
  4  5  1  0  0  0  0
  5 17  1  0  0  0  0
  5  1  1  0  0  0  0
  7  4  1  0  0  0  0
  8 13  2  0  0  0  0
  8  9  1  0  0  0  0
  9 10  2  0  0  0  0
 10 11  1  0  0  0  0
 10 15  1  0  0  0  0
 12 16  1  0  0  0  0
 12 11  2  0  0  0  0
 13 12  1  0  0  0  0
 14  9  1  0  0  0  0
 17 20  1  1  0  0  0
 17 18  1  0  0  0  0
 18 21  1  0  0  0  0
 18 22  1  0  0  0  0
 19 28  1  6  0  0  0
 19 17  1  0  0  0  0
 19 18  1  0  0  0  0
 23 27  1  0  0  0  0
 23 19  1  0  0  0  0
 24 23  1  0  0  0  0
 25 24  2  0  0  0  0
 25 26  1  0  0  0  0
 26 27  2  0  0  0  0
 28 31  1  0  0  0  0
 28 30  1  0  0  0  0
 29 28  1  0  0  0  0
M  END
>  <minimizedAffinity>
-4.11130238

>  <minimizedRMSD>
6.11738729

$$$$
