
 OpenBabel03262519483D

 37 40  0  0  1  0  0  0  0  0999 V2000
   37.3860   25.8190   32.9030 N   0  0  0  0  0  0  0  0  0  0  0  0
   36.8900   24.7350   32.3070 C   0  0  0  0  0  0  0  0  0  0  0  0
   35.8560   24.9980   31.4380 C   0  0  0  0  0  0  0  0  0  0  0  0
   35.7080   26.3240   31.5040 N   0  0  0  0  0  0  0  0  0  0  0  0
   36.6250   26.8160   32.3820 C   0  0  0  0  0  0  0  0  0  0  0  0
   37.2930   23.7290   32.5130 H   0  0  0  0  0  0  0  0  0  0  0  0
   35.3020   24.2890   30.8460 H   0  0  0  0  0  0  0  0  0  0  0  0
   36.6870   28.3070   32.6140 C   0  0  1  0  0  0  0  0  0  0  0  0
   35.8980   29.1730   31.7120 C   0  0  0  0  0  0  0  0  0  0  0  0
   35.4030   28.9570   33.1220 C   0  0  2  0  0  0  0  0  0  0  0  0
   37.6330   28.6760   33.0060 H   0  0  0  0  0  0  0  0  0  0  0  0
   36.1870   30.2020   31.4740 H   0  0  0  0  0  0  0  0  0  0  0  0
   35.2540   28.6470   30.9490 H   0  0  0  0  0  0  0  0  0  0  0  0
   34.5940   28.2510   33.3360 H   0  0  0  0  0  0  0  0  0  0  0  0
   35.6520   30.0140   34.0820 N   0  0  0  0  0  0  0  0  0  0  0  0
   35.4750   31.2850   33.6270 C   0  0  0  0  0  0  0  0  0  0  0  0
   35.7450   32.1610   34.6380 N   0  0  0  0  0  0  0  0  0  0  0  0
   36.0900   31.4020   35.7140 C   0  0  0  0  0  0  0  0  0  0  0  0
   36.0240   30.1310   35.3500 N   0  0  0  0  0  0  0  0  0  0  0  0
   38.4040   26.0610   33.8500 C   0  0  0  0  0  0  0  0  0  0  0  0
   39.2150   25.2880   33.7330 H   0  0  0  0  0  0  0  0  0  0  0  0
   38.9290   27.0310   33.6220 H   0  0  0  0  0  0  0  0  0  0  0  0
   37.9340   26.0370   35.2570 C   0  0  1  0  0  0  0  0  0  0  0  0
   36.8300   25.9090   35.3110 H   0  0  0  0  0  0  0  0  0  0  0  0
   38.5320   23.4790   37.9830 C   0  0  0  0  0  0  0  0  0  0  0  0
   37.9270   24.5670   37.3250 C   0  0  0  0  0  0  0  0  0  0  0  0
   38.5030   24.9180   36.0490 C   0  0  0  0  0  0  0  0  0  0  0  0
   39.5790   24.2060   35.5440 N   0  0  0  0  0  0  0  0  0  0  0  0
   40.0900   23.1870   36.2390 C   0  0  0  0  0  0  0  0  0  0  0  0
   39.5690   22.8220   37.4600 N   0  0  0  0  0  0  0  0  0  0  0  0
   38.0470   23.2840   38.9220 H   0  0  0  0  0  0  0  0  0  0  0  0
   37.0990   25.1460   37.6690 H   0  0  0  0  0  0  0  0  0  0  0  0
   40.9300   22.6380   35.8340 H   0  0  0  0  0  0  0  0  0  0  0  0
   38.2350   27.3690   35.9310 C   0  0  0  0  0  0  0  0  0  0  0  0
   38.6520   27.1830   36.9610 H   0  0  0  0  0  0  0  0  0  0  0  0
   37.3120   27.9490   36.0880 H   0  0  0  0  0  0  0  0  0  0  0  0
   39.0400   27.8980   35.3980 H   0  0  0  0  0  0  0  0  0  0  0  0
  1 20  1  0  0  0  0
  2  6  1  0  0  0  0
  2  1  1  0  0  0  0
  3  4  1  0  0  0  0
  3  2  2  0  0  0  0
  4  5  2  0  0  0  0
  5  8  1  0  0  0  0
  5  1  1  0  0  0  0
  7  3  1  0  0  0  0
  8 11  1  1  0  0  0
  8 10  1  0  0  0  0
  9  8  1  0  0  0  0
  9 10  1  0  0  0  0
 10 14  1  1  0  0  0
 10 15  1  0  0  0  0
 12  9  1  0  0  0  0
 13  9  1  0  0  0  0
 15 19  1  0  0  0  0
 16 15  1  0  0  0  0
 16 17  2  0  0  0  0
 17 18  1  0  0  0  0
 19 18  2  0  0  0  0
 20 23  1  0  0  0  0
 21 20  1  0  0  0  0
 22 20  1  0  0  0  0
 23 24  1  6  0  0  0
 23 34  1  0  0  0  0
 23 27  1  0  0  0  0
 25 31  1  0  0  0  0
 26 32  1  0  0  0  0
 26 25  2  0  0  0  0
 27 26  1  0  0  0  0
 28 27  2  0  0  0  0
 28 29  1  0  0  0  0
 29 30  2  0  0  0  0
 30 25  1  0  0  0  0
 33 29  1  0  0  0  0
 34 36  1  0  0  0  0
 34 35  1  0  0  0  0
 37 34  1  0  0  0  0
M  END
>  <minimizedAffinity>
-5.22630835

>  <minimizedRMSD>
0.890750587

$$$$
