
 OpenBabel03262519563D

 28 31  0  0  1  0  0  0  0  0999 V2000
   38.3260   22.9890   33.8930 C   0  0  0  0  0  0  0  0  0  0  0  0
   38.0370   22.7730   35.2410 C   0  0  0  0  0  0  0  0  0  0  0  0
   39.2240   22.3580   35.7660 N   0  0  0  0  0  0  0  0  0  0  0  0
   40.1170   22.3370   34.7990 C   0  0  0  0  0  0  0  0  0  0  0  0
   39.6010   22.7230   33.6140 N   0  0  0  0  0  0  0  0  0  0  0  0
   37.0580   22.9320   35.6650 H   0  0  0  0  0  0  0  0  0  0  0  0
   41.1410   22.0270   35.0270 H   0  0  0  0  0  0  0  0  0  0  0  0
   37.3670   23.4470   32.9000 C   0  0  0  0  0  0  0  0  0  0  0  0
   36.6900   22.5120   32.0990 C   0  0  0  0  0  0  0  0  0  0  0  0
   35.7670   22.9930   31.1460 C   0  0  0  0  0  0  0  0  0  0  0  0
   35.5930   24.3290   31.0640 N   0  0  0  0  0  0  0  0  0  0  0  0
   36.2610   25.1990   31.8490 C   0  0  0  0  0  0  0  0  0  0  0  0
   37.1530   24.7790   32.7730 N   0  0  0  0  0  0  0  0  0  0  0  0
   36.9270   21.4580   32.2710 H   0  0  0  0  0  0  0  0  0  0  0  0
   35.2860   22.2360   30.5710 H   0  0  0  0  0  0  0  0  0  0  0  0
   36.0720   26.2610   31.7280 H   0  0  0  0  0  0  0  0  0  0  0  0
   40.3550   22.7920   32.4010 C   0  0  1  0  0  0  0  0  0  0  0  0
   40.0810   23.7290   31.3280 C   0  0  0  0  0  0  0  0  0  0  0  0
   41.1890   24.0590   32.2940 C   0  0  1  0  0  0  0  0  0  0  0  0
   40.9300   21.8560   32.1800 H   0  0  0  0  0  0  0  0  0  0  0  0
   40.4370   23.4640   30.3070 H   0  0  0  0  0  0  0  0  0  0  0  0
   39.1570   24.3210   31.2940 H   0  0  0  0  0  0  0  0  0  0  0  0
   42.2360   23.9590   31.9530 H   0  0  0  0  0  0  0  0  0  0  0  0
   40.8900   25.2040   33.1210 N   0  0  0  0  0  0  0  0  0  0  0  0
   40.0930   26.2510   32.7570 C   0  0  0  0  0  3  0  0  0  0  0  0
   40.0430   27.1300   33.7770 N   0  0  0  0  0  0  0  0  0  0  0  0
   40.8180   26.5970   34.7540 C   0  0  0  0  0  3  0  0  0  0  0  0
   41.3310   25.4240   34.3510 N   0  0  0  0  0  0  0  0  0  0  0  0
  1  2  2  0  0  0  0
  2  6  1  0  0  0  0
  2  3  1  0  0  0  0
  4  7  1  0  0  0  0
  4  3  2  0  0  0  0
  5  1  1  0  0  0  0
  5  4  1  0  0  0  0
  8  1  1  0  0  0  0
  9 14  1  0  0  0  0
  9  8  2  0  0  0  0
 10  9  1  0  0  0  0
 11 10  2  0  0  0  0
 11 12  1  0  0  0  0
 12 13  2  0  0  0  0
 13  8  1  0  0  0  0
 15 10  1  0  0  0  0
 16 12  1  0  0  0  0
 17 20  1  6  0  0  0
 17  5  1  0  0  0  0
 18 19  1  0  0  0  0
 18 17  1  0  0  0  0
 19 23  1  6  0  0  0
 19 17  1  0  0  0  0
 19 24  1  0  0  0  0
 21 18  1  0  0  0  0
 22 18  1  0  0  0  0
 24 28  1  0  0  0  0
 25 24  1  0  0  0  0
 25 26  2  0  0  0  0
 26 27  1  0  0  0  0
 28 27  2  0  0  0  0
M  END
>  <minimizedAffinity>
-3.38143349

>  <minimizedRMSD>
5.93607426

$$$$
