
 OpenBabel03262519593D

 31 34  0  0  1  0  0  0  0  0999 V2000
   38.1170   24.5670   33.0670 C   0  0  0  0  0  0  0  0  0  0  0  0
   37.3750   23.4670   32.6380 C   0  0  0  0  0  0  0  0  0  0  0  0
   38.2910   22.4530   32.5990 N   0  0  0  0  0  0  0  0  0  0  0  0
   39.4630   22.9540   32.9800 C   0  0  0  0  0  0  0  0  0  0  0  0
   39.3850   24.2470   33.2730 N   0  0  0  0  0  0  0  0  0  0  0  0
   36.3120   23.5080   32.4120 H   0  0  0  0  0  0  0  0  0  0  0  0
   40.2750   22.2170   32.9840 H   0  0  0  0  0  0  0  0  0  0  0  0
   37.5770   25.9030   33.2550 C   0  0  0  0  0  0  0  0  0  0  0  0
   37.4790   26.7750   32.1480 C   0  0  0  0  0  0  0  0  0  0  0  0
   36.9410   28.0610   32.3710 C   0  0  0  0  0  0  0  0  0  0  0  0
   36.5560   28.3720   33.6370 N   0  0  0  0  0  0  0  0  0  0  0  0
   36.6680   27.5060   34.6690 C   0  0  0  0  0  0  0  0  0  0  0  0
   37.1760   26.2770   34.4830 N   0  0  0  0  0  0  0  0  0  0  0  0
   37.7990   26.4790   31.1620 H   0  0  0  0  0  0  0  0  0  0  0  0
   36.8490   28.7610   31.5470 H   0  0  0  0  0  0  0  0  0  0  0  0
   36.3180   27.9050   35.6070 H   0  0  0  0  0  0  0  0  0  0  0  0
   40.4950   25.0090   33.7050 C   0  0  1  0  0  0  0  0  0  0  0  0
   40.5680   25.8350   34.8790 C   0  0  0  0  0  0  0  0  0  0  0  0
   41.2480   24.4320   34.8550 C   0  0  1  0  0  0  0  0  0  0  0  0
   41.1350   25.3660   32.8300 H   0  0  0  0  0  0  0  0  0  0  0  0
   39.7390   25.9230   35.5950 H   0  0  0  0  0  0  0  0  0  0  0  0
   41.2520   26.7200   34.9080 H   0  0  0  0  0  0  0  0  0  0  0  0
   40.6820   23.6890   36.0000 N   0  0  0  0  0  0  0  0  0  0  0  0
   41.1900   22.7380   36.8070 C   0  0  0  0  0  3  0  0  0  0  0  0
   40.2300   22.4110   37.6910 N   0  0  0  0  0  0  0  0  0  0  0  0
   39.1290   23.1410   37.4460 C   0  0  0  0  0  3  0  0  0  0  0  0
   39.4230   23.9360   36.3880 N   0  0  0  0  0  0  0  0  0  0  0  0
   42.7550   24.5680   34.8380 C   0  0  0  0  0  0  0  0  0  0  0  0
   43.3330   23.3620   34.4910 F   0  0  0  0  0  0  0  0  0  0  0  0
   43.1140   25.4500   33.7370 F   0  0  0  0  0  0  0  0  0  0  0  0
   43.2720   25.1230   35.9450 F   0  0  0  0  0  0  0  0  0  0  0  0
  1  8  1  0  0  0  0
  1  5  1  0  0  0  0
  2  1  2  0  0  0  0
  3  2  1  0  0  0  0
  3  4  2  0  0  0  0
  4  7  1  0  0  0  0
  4  5  1  0  0  0  0
  5 17  1  0  0  0  0
  6  2  1  0  0  0  0
  8 13  1  0  0  0  0
  9 10  1  0  0  0  0
  9  8  2  0  0  0  0
 10 11  2  0  0  0  0
 11 12  1  0  0  0  0
 12 16  1  0  0  0  0
 13 12  2  0  0  0  0
 14  9  1  0  0  0  0
 15 10  1  0  0  0  0
 17 20  1  6  0  0  0
 17 19  1  0  0  0  0
 17 18  1  0  0  0  0
 18 22  1  0  0  0  0
 18 21  1  0  0  0  0
 19 28  1  6  0  0  0
 19 18  1  0  0  0  0
 19 23  1  0  0  0  0
 23 27  1  0  0  0  0
 23 24  1  0  0  0  0
 24 25  2  0  0  0  0
 26 25  1  0  0  0  0
 27 26  2  0  0  0  0
 28 31  1  0  0  0  0
 29 28  1  0  0  0  0
 30 28  1  0  0  0  0
M  END
>  <minimizedAffinity>
-4.2879529

>  <minimizedRMSD>
4.11295366

$$$$
