
 OpenBabel03262519593D

 31 34  0  0  1  0  0  0  0  0999 V2000
   39.0810   25.5870   30.9510 C   0  0  0  0  0  0  0  0  0  0  0  0
   39.2630   26.2970   29.7650 C   0  0  0  0  0  0  0  0  0  0  0  0
   39.9650   27.4030   30.1540 N   0  0  0  0  0  0  0  0  0  0  0  0
   40.1620   27.3150   31.4670 C   0  0  0  0  0  0  0  0  0  0  0  0
   39.6300   26.2110   31.9810 N   0  0  0  0  0  0  0  0  0  0  0  0
   38.8930   25.9630   28.7990 H   0  0  0  0  0  0  0  0  0  0  0  0
   40.7200   28.1600   31.8860 H   0  0  0  0  0  0  0  0  0  0  0  0
   38.3690   24.3230   31.0540 C   0  0  0  0  0  0  0  0  0  0  0  0
   36.9570   24.3200   31.0570 C   0  0  0  0  0  0  0  0  0  0  0  0
   36.3030   23.0720   31.1500 C   0  0  0  0  0  0  0  0  0  0  0  0
   37.0790   21.9600   31.2330 N   0  0  0  0  0  0  0  0  0  0  0  0
   38.4310   22.0080   31.2280 C   0  0  0  0  0  0  0  0  0  0  0  0
   39.0760   23.1820   31.1400 N   0  0  0  0  0  0  0  0  0  0  0  0
   36.3870   25.2330   30.9890 H   0  0  0  0  0  0  0  0  0  0  0  0
   35.2190   23.0270   31.1550 H   0  0  0  0  0  0  0  0  0  0  0  0
   38.8960   21.0390   31.3000 H   0  0  0  0  0  0  0  0  0  0  0  0
   39.7050   25.8850   33.3550 C   0  0  1  0  0  0  0  0  0  0  0  0
   39.7480   26.8060   34.4570 C   0  0  0  0  0  0  0  0  0  0  0  0
   38.4310   26.0440   34.1120 C   0  0  1  0  0  0  0  0  0  0  0  0
   40.2610   24.9030   33.5320 H   0  0  0  0  0  0  0  0  0  0  0  0
   39.6880   27.8950   34.3230 H   0  0  0  0  0  0  0  0  0  0  0  0
   40.2520   26.5210   35.4150 H   0  0  0  0  0  0  0  0  0  0  0  0
   37.4030   27.0860   33.9070 N   0  0  0  0  0  0  0  0  0  0  0  0
   36.6190   27.3940   32.8570 C   0  0  0  0  0  3  0  0  0  0  0  0
   35.8600   28.4440   33.2200 N   0  0  0  0  0  0  0  0  0  0  0  0
   36.1600   28.7960   34.4810 C   0  0  0  0  0  3  0  0  0  0  0  0
   37.1250   27.9410   34.9010 N   0  0  0  0  0  0  0  0  0  0  0  0
   38.1180   25.0100   35.1720 C   0  0  0  0  0  0  0  0  0  0  0  0
   37.7860   23.8090   34.5740 F   0  0  0  0  0  0  0  0  0  0  0  0
   39.3520   24.7090   35.8840 F   0  0  0  0  0  0  0  0  0  0  0  0
   37.2400   25.4190   36.1010 F   0  0  0  0  0  0  0  0  0  0  0  0
  1  8  1  0  0  0  0
  1  5  1  0  0  0  0
  2  3  1  0  0  0  0
  2  1  2  0  0  0  0
  3  4  2  0  0  0  0
  4  7  1  0  0  0  0
  4  5  1  0  0  0  0
  5 17  1  0  0  0  0
  6  2  1  0  0  0  0
  8  9  2  0  0  0  0
  8 13  1  0  0  0  0
  9 10  1  0  0  0  0
 10 15  1  0  0  0  0
 10 11  2  0  0  0  0
 12 11  1  0  0  0  0
 12 16  1  0  0  0  0
 13 12  2  0  0  0  0
 14  9  1  0  0  0  0
 17 20  1  1  0  0  0
 17 19  1  0  0  0  0
 17 18  1  0  0  0  0
 18 22  1  0  0  0  0
 19 18  1  0  0  0  0
 19 28  1  1  0  0  0
 21 18  1  0  0  0  0
 23 19  1  0  0  0  0
 23 27  1  0  0  0  0
 24 25  2  0  0  0  0
 24 23  1  0  0  0  0
 25 26  1  0  0  0  0
 26 27  2  0  0  0  0
 28 30  1  0  0  0  0
 28 31  1  0  0  0  0
 29 28  1  0  0  0  0
M  END
>  <minimizedAffinity>
-4.19235897

>  <minimizedRMSD>
4.6369133

$$$$
