
 OpenBabel03262519593D

 31 34  0  0  1  0  0  0  0  0999 V2000
   39.5690   22.4330   33.7920 C   0  0  0  0  0  0  0  0  0  0  0  0
   40.8590   22.6920   33.3310 C   0  0  0  0  0  0  0  0  0  0  0  0
   41.0030   21.8400   32.2720 N   0  0  0  0  0  0  0  0  0  0  0  0
   39.8700   21.1530   32.1510 C   0  0  0  0  0  0  0  0  0  0  0  0
   38.9740   21.4960   33.0700 N   0  0  0  0  0  0  0  0  0  0  0  0
   41.5230   23.4270   33.7800 H   0  0  0  0  0  0  0  0  0  0  0  0
   39.8800   20.4330   31.3250 H   0  0  0  0  0  0  0  0  0  0  0  0
   38.9500   23.0950   34.9290 C   0  0  0  0  0  0  0  0  0  0  0  0
   38.9990   22.4820   36.2000 C   0  0  0  0  0  0  0  0  0  0  0  0
   38.3950   23.1610   37.2810 C   0  0  0  0  0  0  0  0  0  0  0  0
   37.8050   24.3580   37.0210 N   0  0  0  0  0  0  0  0  0  0  0  0
   37.7810   24.9090   35.7860 C   0  0  0  0  0  0  0  0  0  0  0  0
   38.3490   24.2830   34.7430 N   0  0  0  0  0  0  0  0  0  0  0  0
   39.4810   21.5290   36.3530 H   0  0  0  0  0  0  0  0  0  0  0  0
   38.4100   22.7230   38.2730 H   0  0  0  0  0  0  0  0  0  0  0  0
   37.2750   25.8600   35.7490 H   0  0  0  0  0  0  0  0  0  0  0  0
   37.6890   20.9110   33.1510 C   0  0  1  0  0  0  0  0  0  0  0  0
   36.4980   21.5200   33.6750 C   0  0  0  0  0  0  0  0  0  0  0  0
   36.7100   21.3930   32.1360 C   0  0  1  0  0  0  0  0  0  0  0  0
   37.7430   19.7780   33.2810 H   0  0  0  0  0  0  0  0  0  0  0  0
   36.4730   22.5550   34.0440 H   0  0  0  0  0  0  0  0  0  0  0  0
   35.6870   20.8900   34.1200 H   0  0  0  0  0  0  0  0  0  0  0  0
   36.5960   22.7640   31.5970 N   0  0  0  0  0  0  0  0  0  0  0  0
   37.4800   23.5810   30.9940 C   0  0  0  0  0  3  0  0  0  0  0  0
   36.8350   24.7270   30.7080 N   0  0  0  0  0  0  0  0  0  0  0  0
   35.5600   24.6370   31.1240 C   0  0  0  0  0  3  0  0  0  0  0  0
   35.4230   23.4070   31.6780 N   0  0  0  0  0  0  0  0  0  0  0  0
   35.7600   20.3730   31.5460 C   0  0  0  0  0  0  0  0  0  0  0  0
   35.8710   20.3660   30.1690 F   0  0  0  0  0  0  0  0  0  0  0  0
   36.2260   19.0490   31.9350 F   0  0  0  0  0  0  0  0  0  0  0  0
   34.4980   20.4710   31.9920 F   0  0  0  0  0  0  0  0  0  0  0  0
  1  8  1  0  0  0  0
  2  6  1  0  0  0  0
  2  1  2  0  0  0  0
  3  2  1  0  0  0  0
  4  3  2  0  0  0  0
  4  5  1  0  0  0  0
  5 17  1  0  0  0  0
  5  1  1  0  0  0  0
  7  4  1  0  0  0  0
  8  9  1  0  0  0  0
  9 14  1  0  0  0  0
  9 10  2  0  0  0  0
 10 15  1  0  0  0  0
 11 10  1  0  0  0  0
 12 11  2  0  0  0  0
 13  8  2  0  0  0  0
 13 12  1  0  0  0  0
 16 12  1  0  0  0  0
 17 20  1  1  0  0  0
 17 18  1  0  0  0  0
 18 21  1  0  0  0  0
 18 22  1  0  0  0  0
 19 28  1  6  0  0  0
 19 17  1  0  0  0  0
 19 18  1  0  0  0  0
 23 27  1  0  0  0  0
 23 19  1  0  0  0  0
 24 23  1  0  0  0  0
 25 24  2  0  0  0  0
 25 26  1  0  0  0  0
 26 27  2  0  0  0  0
 28 30  1  0  0  0  0
 28 31  1  0  0  0  0
 29 28  1  0  0  0  0
M  END
>  <minimizedAffinity>
-4.44432974

>  <minimizedRMSD>
5.63545275

$$$$
