
 OpenBabel03262519323D

 39 43  0  0  0  0  0  0  0  0999 V2000
   41.5220   22.0070   36.2110 O   0  0  0  0  0  0  0  0  0  0  0  0
   40.2010   22.2840   36.3990 C   0  0  0  0  0  0  0  0  0  0  0  0
   39.8420   22.9830   37.5490 C   0  0  0  0  0  0  0  0  0  0  0  0
   38.4720   23.2680   37.7390 C   0  0  0  0  0  0  0  0  0  0  0  0
   37.5900   22.8620   36.8210 N   0  0  0  0  0  0  0  0  0  0  0  0
   37.9820   22.1810   35.7110 C   0  0  0  0  0  0  0  0  0  0  0  0
   39.2670   21.9030   35.5120 N   0  0  0  0  0  0  0  0  0  0  0  0
   37.1010   21.7120   34.6830 N   0  0  0  0  0  0  0  0  0  0  0  0
   37.3310   22.0350   33.3780 C   0  0  0  0  0  0  0  0  0  0  0  0
   36.4300   21.5420   32.4290 C   0  0  0  0  0  0  0  0  0  0  0  0
   35.3430   20.7540   32.8010 C   0  0  0  0  0  0  0  0  0  0  0  0
   34.5310   20.3110   31.9370 O   0  0  0  0  0  0  0  0  0  0  0  0
   35.1630   20.4660   34.0970 N   0  0  0  0  0  0  0  0  0  0  0  0
   36.0310   20.9410   35.0230 C   0  0  0  0  0  0  0  0  0  0  0  0
   35.8790   20.6820   36.2390 O   0  0  0  0  0  0  0  0  0  0  0  0
   40.5910   23.3000   38.2770 H   0  0  0  0  0  0  0  0  0  0  0  0
   38.1600   23.8050   38.6130 H   0  0  0  0  0  0  0  0  0  0  0  0
   38.1710   22.6380   33.1340 H   0  0  0  0  0  0  0  0  0  0  0  0
   36.6110   21.7980   31.3960 H   0  0  0  0  0  0  0  0  0  0  0  0
   34.3700   19.8830   34.4330 H   0  0  0  0  0  0  0  0  0  0  0  0
   42.5260   22.9340   36.0360 C   0  0  0  0  0  0  0  0  0  0  0  0
   42.3820   24.2940   35.9240 C   0  0  0  0  0  0  0  0  0  0  0  0
   43.5890   24.8790   35.7620 N   0  0  0  0  0  0  0  0  0  0  0  0
   44.5620   23.9250   35.7620 C   0  0  0  0  0  0  0  0  0  0  0  0
   45.9240   23.9840   35.6340 C   0  0  0  0  0  0  0  0  0  0  0  0
   46.6770   22.8370   35.6720 C   0  0  0  0  0  0  0  0  0  0  0  0
   46.0230   21.6230   35.8420 C   0  0  0  0  0  0  0  0  0  0  0  0
   44.6330   21.5530   35.9730 C   0  0  0  0  0  0  0  0  0  0  0  0
   43.9100   22.7280   35.9300 C   0  0  0  0  0  0  0  0  0  0  0  0
   41.4420   24.8610   35.9560 H   0  0  0  0  0  0  0  0  0  0  0  0
   43.7430   25.8990   35.6540 H   0  0  0  0  0  0  0  0  0  0  0  0
   46.3750   24.9410   35.5060 H   0  0  0  0  0  0  0  0  0  0  0  0
   47.7520   22.9170   35.5690 H   0  0  0  0  0  0  0  0  0  0  0  0
   46.5970   20.7090   35.8750 H   0  0  0  0  0  0  0  0  0  0  0  0
   44.0110   20.2700   36.1480 N   0  0  0  0  0  0  0  0  0  0  0  0
   43.7480   19.5000   35.0500 C   0  0  0  0  0  0  0  0  0  0  0  0
   43.1700   18.3530   35.4460 N   0  0  0  0  0  0  0  0  0  0  0  0
   43.0990   18.4660   36.8040 C   0  0  0  0  0  0  0  0  0  0  0  0
   43.6100   19.6330   37.2350 N   0  0  0  0  0  0  0  0  0  0  0  0
  1  2  1  0  0  0  0
  2  3  1  0  0  0  0
  3  4  2  0  0  0  0
  3 16  1  0  0  0  0
  4 17  1  0  0  0  0
  5  4  1  0  0  0  0
  6  5  2  0  0  0  0
  7  6  1  0  0  0  0
  7  2  2  0  0  0  0
  8 14  1  0  0  0  0
  8  6  1  0  0  0  0
  9  8  1  0  0  0  0
 10 11  1  0  0  0  0
 10  9  2  0  0  0  0
 11 13  1  0  0  0  0
 12 11  2  0  0  0  0
 13 20  1  0  0  0  0
 13 14  1  0  0  0  0
 14 15  2  0  0  0  0
 18  9  1  0  0  0  0
 19 10  1  0  0  0  0
 21  1  1  0  0  0  0
 22 30  1  0  0  0  0
 22 21  2  0  0  0  0
 23 24  1  0  0  0  0
 23 22  1  0  0  0  0
 24 29  1  0  0  0  0
 25 26  1  0  0  0  0
 25 24  2  0  0  0  0
 26 27  2  0  0  0  0
 27 34  1  0  0  0  0
 27 28  1  0  0  0  0
 28 35  1  0  0  0  0
 29 28  2  0  0  0  0
 29 21  1  0  0  0  0
 31 23  1  0  0  0  0
 32 25  1  0  0  0  0
 33 26  1  0  0  0  0
 35 39  1  0  0  0  0
 36 37  2  0  0  0  0
 36 35  1  0  0  0  0
 37 38  1  0  0  0  0
 38 39  2  0  0  0  0
M  END
>  <minimizedAffinity>
-5.66076469

>  <minimizedRMSD>
2.29120684

$$$$
