
 OpenBabel03262519243D

 41 46  0  0  0  0  0  0  0  0999 V2000
   39.1410   23.5880   32.4200 C   0  0  0  0  0  0  0  0  0  0  0  0
   39.8750   22.4440   32.7190 C   0  0  0  0  0  0  0  0  0  0  0  0
   39.3360   21.1640   32.6110 C   0  0  0  0  0  0  0  0  0  0  0  0
   38.0220   21.0050   32.1930 C   0  0  0  0  0  0  0  0  0  0  0  0
   37.2800   22.1020   31.8940 C   0  0  0  0  0  0  0  0  0  0  0  0
   35.9760   21.9630   31.4810 C   0  0  0  0  0  0  0  0  0  0  0  0
   35.1780   23.0460   31.1650 C   0  0  0  0  0  0  0  0  0  0  0  0
   35.7430   24.3130   31.2800 C   0  0  0  0  0  0  0  0  0  0  0  0
   37.0620   24.4270   31.7000 C   0  0  0  0  0  0  0  0  0  0  0  0
   37.8520   23.3610   32.0130 C   0  0  0  0  0  0  0  0  0  0  0  0
   40.9050   22.6110   33.0440 H   0  0  0  0  0  0  0  0  0  0  0  0
   39.9320   20.2960   32.8500 H   0  0  0  0  0  0  0  0  0  0  0  0
   37.6000   20.0130   32.1080 H   0  0  0  0  0  0  0  0  0  0  0  0
   35.5970   20.9500   31.4120 H   0  0  0  0  0  0  0  0  0  0  0  0
   34.1740   22.7920   30.8550 H   0  0  0  0  0  0  0  0  0  0  0  0
   35.0110   25.0570   31.0040 H   0  0  0  0  0  0  0  0  0  0  0  0
   39.7330   24.8900   32.5540 C   0  0  0  0  0  0  0  0  0  0  0  0
   39.7560   25.5990   33.7670 C   0  0  0  0  0  0  0  0  0  0  0  0
   40.3640   26.8580   33.7700 C   0  0  0  0  0  0  0  0  0  0  0  0
   40.9080   27.3540   32.6280 N   0  0  0  0  0  0  0  0  0  0  0  0
   40.8710   26.6400   31.4740 C   0  0  0  0  0  0  0  0  0  0  0  0
   40.3020   25.4560   31.4630 N   0  0  0  0  0  0  0  0  0  0  0  0
   40.3930   27.4180   34.6820 H   0  0  0  0  0  0  0  0  0  0  0  0
   41.3080   27.0520   30.5870 H   0  0  0  0  0  0  0  0  0  0  0  0
   39.1950   25.0460   34.9080 N   0  0  0  0  0  0  0  0  0  0  0  0
   37.9550   25.2630   35.3750 C   0  0  0  0  0  0  0  0  0  0  0  0
   37.7120   24.5740   36.5070 N   0  0  0  0  0  0  0  0  0  0  0  0
   38.8510   23.8840   36.7750 C   0  0  0  0  0  0  0  0  0  0  0  0
   39.2220   23.0200   37.7710 C   0  0  0  0  0  0  0  0  0  0  0  0
   40.4390   22.4360   37.8390 N   0  0  0  0  0  0  0  0  0  0  0  0
   41.3060   22.7600   36.8380 C   0  0  0  0  0  0  0  0  0  0  0  0
   40.9330   23.5990   35.8770 N   0  0  0  0  0  0  0  0  0  0  0  0
   39.7600   24.1900   35.7710 C   0  0  0  0  0  0  0  0  0  0  0  0
   37.1720   25.8990   34.9610 H   0  0  0  0  0  0  0  0  0  0  0  0
   38.4680   22.8200   38.5270 H   0  0  0  0  0  0  0  0  0  0  0  0
   42.3150   22.3550   36.7810 H   0  0  0  0  0  0  0  0  0  0  0  0
   37.3100   25.8370   31.6890 N   0  0  0  0  0  0  0  0  0  0  0  0
   36.8210   26.5720   32.7710 C   0  0  0  0  0  0  0  0  0  0  0  0
   37.1520   27.9050   32.6880 N   0  0  0  0  0  0  0  0  0  0  0  0
   37.8580   27.9450   31.5170 C   0  0  0  0  0  0  0  0  0  0  0  0
   37.9410   26.7370   30.9510 N   0  0  0  0  0  0  0  0  0  0  0  0
  1 17  1  0  0  0  0
  1  2  1  0  0  0  0
  2 11  1  0  0  0  0
  3  2  2  0  0  0  0
  3 12  1  0  0  0  0
  4  3  1  0  0  0  0
  5 10  1  0  0  0  0
  5  4  2  0  0  0  0
  6  5  1  0  0  0  0
  7  8  1  0  0  0  0
  7  6  2  0  0  0  0
  8  9  2  0  0  0  0
  9 10  1  0  0  0  0
 10  1  2  0  0  0  0
 13  4  1  0  0  0  0
 14  6  1  0  0  0  0
 15  7  1  0  0  0  0
 16  8  1  0  0  0  0
 17 18  1  0  0  0  0
 18 19  2  0  0  0  0
 18 25  1  0  0  0  0
 19 23  1  0  0  0  0
 20 19  1  0  0  0  0
 21 20  2  0  0  0  0
 22 21  1  0  0  0  0
 22 17  2  0  0  0  0
 24 21  1  0  0  0  0
 25 26  1  0  0  0  0
 25 33  1  0  0  0  0
 26 27  2  0  0  0  0
 27 28  1  0  0  0  0
 28 29  1  0  0  0  0
 29 30  2  0  0  0  0
 29 35  1  0  0  0  0
 31 30  1  0  0  0  0
 32 31  2  0  0  0  0
 33 32  1  0  0  0  0
 33 28  2  0  0  0  0
 34 26  1  0  0  0  0
 36 31  1  0  0  0  0
 37  9  1  0  0  0  0
 37 38  1  0  0  0  0
 39 38  2  0  0  0  0
 40 39  1  0  0  0  0
 41 40  2  0  0  0  0
 41 37  1  0  0  0  0
M  END
>  <minimizedAffinity>
-5.97469759

>  <minimizedRMSD>
1.26848972

$$$$
