
 OpenBabel03262519563D

 28 31  0  0  1  0  0  0  0  0999 V2000
   38.3450   23.5370   33.8730 C   0  0  0  0  0  0  0  0  0  0  0  0
   38.1400   24.8530   34.2890 C   0  0  0  0  0  0  0  0  0  0  0  0
   39.3130   25.4770   33.9840 N   0  0  0  0  0  0  0  0  0  0  0  0
   40.1210   24.5920   33.4400 C   0  0  0  0  0  0  0  0  0  0  0  0
   39.5590   23.3690   33.3510 N   0  0  0  0  0  0  0  0  0  0  0  0
   37.2200   25.1920   34.7380 H   0  0  0  0  0  0  0  0  0  0  0  0
   41.1210   24.9070   33.1250 H   0  0  0  0  0  0  0  0  0  0  0  0
   37.3670   22.4670   33.9870 C   0  0  0  0  0  0  0  0  0  0  0  0
   37.1440   21.8540   35.2320 C   0  0  0  0  0  0  0  0  0  0  0  0
   36.1870   20.8190   35.3050 C   0  0  0  0  0  0  0  0  0  0  0  0
   35.5430   20.4830   34.1670 N   0  0  0  0  0  0  0  0  0  0  0  0
   35.7830   21.0920   32.9880 C   0  0  0  0  0  0  0  0  0  0  0  0
   36.6900   22.0870   32.8760 N   0  0  0  0  0  0  0  0  0  0  0  0
   37.7360   22.2260   36.0730 H   0  0  0  0  0  0  0  0  0  0  0  0
   36.0640   20.3950   36.2740 H   0  0  0  0  0  0  0  0  0  0  0  0
   35.2280   20.7700   32.1130 H   0  0  0  0  0  0  0  0  0  0  0  0
   40.2190   22.2270   32.7990 C   0  0  1  0  0  0  0  0  0  0  0  0
   41.6580   22.1070   32.6640 C   0  0  0  0  0  0  0  0  0  0  0  0
   40.9950   21.4330   33.8380 C   0  0  1  0  0  0  0  0  0  0  0  0
   39.5520   21.5940   32.1580 H   0  0  0  0  0  0  0  0  0  0  0  0
   42.0480   21.3980   31.8990 H   0  0  0  0  0  0  0  0  0  0  0  0
   42.3290   22.9650   32.8010 H   0  0  0  0  0  0  0  0  0  0  0  0
   40.8930   20.3320   33.8280 H   0  0  0  0  0  0  0  0  0  0  0  0
   41.3500   22.0340   35.1020 N   0  0  0  0  0  0  0  0  0  0  0  0
   40.6350   21.9160   36.2580 C   0  0  0  0  0  3  0  0  0  0  0  0
   41.2660   22.6070   37.2280 N   0  0  0  0  0  0  0  0  0  0  0  0
   42.3640   23.1390   36.6390 C   0  0  0  0  0  3  0  0  0  0  0  0
   42.4130   22.7880   35.3430 N   0  0  0  0  0  0  0  0  0  0  0  0
  1  8  1  0  0  0  0
  1  2  2  0  0  0  0
  2  6  1  0  0  0  0
  3  2  1  0  0  0  0
  4  3  2  0  0  0  0
  5  4  1  0  0  0  0
  5  1  1  0  0  0  0
  7  4  1  0  0  0  0
  8  9  1  0  0  0  0
  9 10  2  0  0  0  0
  9 14  1  0  0  0  0
 10 15  1  0  0  0  0
 11 10  1  0  0  0  0
 12 11  2  0  0  0  0
 13 12  1  0  0  0  0
 13  8  2  0  0  0  0
 16 12  1  0  0  0  0
 17 20  1  6  0  0  0
 17  5  1  0  0  0  0
 17 19  1  0  0  0  0
 18 17  1  0  0  0  0
 18 22  1  0  0  0  0
 18 19  1  0  0  0  0
 19 23  1  6  0  0  0
 19 24  1  0  0  0  0
 21 18  1  0  0  0  0
 24 28  1  0  0  0  0
 24 25  1  0  0  0  0
 25 26  2  0  0  0  0
 27 26  1  0  0  0  0
 28 27  2  0  0  0  0
M  END
>  <minimizedAffinity>
-3.01925874

>  <minimizedRMSD>
5.64022589

$$$$
