
 OpenBabel03262519503D

 20 21  0  0  0  0  0  0  0  0999 V2000
   40.4960   24.8250   35.1200 C   0  0  0  0  0  0  0  0  0  0  0  0
   40.5160   23.5940   35.8350 C   0  0  0  0  0  0  0  0  0  0  0  0
   41.7790   23.2450   36.2050 C   0  0  0  0  0  0  0  0  0  0  0  0
   42.8930   24.0120   35.9070 N   0  0  0  0  0  0  0  0  0  0  0  0
   42.7790   25.1600   35.2270 C   0  0  0  0  0  0  0  0  0  0  0  0
   41.5810   25.5650   34.8340 N   0  0  0  0  0  0  0  0  0  0  0  0
   39.5780   25.2910   34.7270 H   0  0  0  0  0  0  0  0  0  0  0  0
   43.7710   25.5690   35.1200 H   0  0  0  0  0  0  0  0  0  0  0  0
   39.2480   23.0590   35.9860 N   0  0  0  0  0  0  0  0  0  0  0  0
   38.5150   23.7040   36.9560 C   0  0  0  0  0  0  0  0  0  0  0  0
   37.2750   23.1340   37.0530 N   0  0  0  0  0  0  0  0  0  0  0  0
   37.2730   22.1320   36.1240 C   0  0  0  0  0  0  0  0  0  0  0  0
   38.4730   22.0990   35.4860 N   0  0  0  0  0  0  0  0  0  0  0  0
   41.8200   21.9990   36.9690 C   0  0  0  0  0  0  0  0  0  0  0  0
   41.8420   22.2810   38.0560 H   0  0  0  0  0  0  0  0  0  0  0  0
   40.8780   21.4020   36.8780 H   0  0  0  0  0  0  0  0  0  0  0  0
   42.9650   21.1540   36.5490 C   0  0  0  0  0  0  0  0  0  0  0  0
   43.2920   20.6890   37.5390 H   0  0  0  0  0  0  0  0  0  0  0  0
   43.8870   21.7130   36.3160 H   0  0  0  0  0  0  0  0  0  0  0  0
   42.7560   20.2560   35.9760 H   0  0  0  0  0  0  0  0  0  0  0  0
  1  2  1  0  0  0  0
  2  9  1  0  0  0  0
  2  3  2  0  0  0  0
  3 14  1  0  0  0  0
  4  3  1  0  0  0  0
  5  4  2  0  0  0  0
  6  1  2  0  0  0  0
  6  5  1  0  0  0  0
  7  1  1  0  0  0  0
  8  5  1  0  0  0  0
  9 10  1  0  0  0  0
 10 11  2  0  0  0  0
 12 11  1  0  0  0  0
 13  9  1  0  0  0  0
 13 12  2  0  0  0  0
 14 15  1  0  0  0  0
 16 14  1  0  0  0  0
 17 14  1  0  0  0  0
 17 18  1  0  0  0  0
 19 17  1  0  0  0  0
 20 17  1  0  0  0  0
M  END
>  <minimizedAffinity>
-3.14861083

>  <minimizedRMSD>
4.20941305

$$$$
