
 OpenBabel03262519563D

 28 31  0  0  1  0  0  0  0  0999 V2000
   38.3820   23.4930   30.8830 C   0  0  0  0  0  0  0  0  0  0  0  0
   38.7700   23.8250   29.5850 C   0  0  0  0  0  0  0  0  0  0  0  0
   39.5850   24.9040   29.7550 N   0  0  0  0  0  0  0  0  0  0  0  0
   39.6570   25.1680   31.0420 C   0  0  0  0  0  0  0  0  0  0  0  0
   38.9230   24.3130   31.7840 N   0  0  0  0  0  0  0  0  0  0  0  0
   38.4390   23.2800   28.7150 H   0  0  0  0  0  0  0  0  0  0  0  0
   40.2710   26.0080   31.3800 H   0  0  0  0  0  0  0  0  0  0  0  0
   37.4980   22.3920   31.2320 C   0  0  0  0  0  0  0  0  0  0  0  0
   36.1090   22.5980   31.2760 C   0  0  0  0  0  0  0  0  0  0  0  0
   35.2820   21.5070   31.6180 C   0  0  0  0  0  0  0  0  0  0  0  0
   35.8820   20.3280   31.8810 N   0  0  0  0  0  0  0  0  0  0  0  0
   37.2200   20.1640   31.8300 C   0  0  0  0  0  0  0  0  0  0  0  0
   38.0460   21.1830   31.5070 N   0  0  0  0  0  0  0  0  0  0  0  0
   35.7560   23.6070   31.0400 H   0  0  0  0  0  0  0  0  0  0  0  0
   34.2400   21.7270   31.6340 H   0  0  0  0  0  0  0  0  0  0  0  0
   37.6340   19.1870   32.0550 H   0  0  0  0  0  0  0  0  0  0  0  0
   38.8250   24.3750   33.2090 C   0  0  1  0  0  0  0  0  0  0  0  0
   39.1550   25.5480   33.9950 C   0  0  0  0  0  0  0  0  0  0  0  0
   37.7040   25.2850   33.6860 C   0  0  1  0  0  0  0  0  0  0  0  0
   38.8250   23.3670   33.6990 H   0  0  0  0  0  0  0  0  0  0  0  0
   39.4240   25.3960   35.0650 H   0  0  0  0  0  0  0  0  0  0  0  0
   39.6850   26.4080   33.5630 H   0  0  0  0  0  0  0  0  0  0  0  0
   37.0490   24.9140   34.4960 H   0  0  0  0  0  0  0  0  0  0  0  0
   37.1320   26.2690   32.7980 N   0  0  0  0  0  0  0  0  0  0  0  0
   37.5350   27.5700   32.6980 C   0  0  0  0  0  3  0  0  0  0  0  0
   36.7770   28.1860   31.7700 N   0  0  0  0  0  0  0  0  0  0  0  0
   35.9190   27.2410   31.3170 C   0  0  0  0  0  3  0  0  0  0  0  0
   36.1380   26.0740   31.9440 N   0  0  0  0  0  0  0  0  0  0  0  0
  1  8  1  0  0  0  0
  1  5  1  0  0  0  0
  2  3  1  0  0  0  0
  2  1  2  0  0  0  0
  3  4  2  0  0  0  0
  4  7  1  0  0  0  0
  4  5  1  0  0  0  0
  5 17  1  0  0  0  0
  6  2  1  0  0  0  0
  8  9  2  0  0  0  0
  8 13  1  0  0  0  0
  9 10  1  0  0  0  0
 10 15  1  0  0  0  0
 10 11  2  0  0  0  0
 12 11  1  0  0  0  0
 12 16  1  0  0  0  0
 13 12  2  0  0  0  0
 14  9  1  0  0  0  0
 17 19  1  0  0  0  0
 17 20  1  1  0  0  0
 17 18  1  0  0  0  0
 18 21  1  0  0  0  0
 19 18  1  0  0  0  0
 19 23  1  1  0  0  0
 22 18  1  0  0  0  0
 24 19  1  0  0  0  0
 25 24  1  0  0  0  0
 26 25  2  0  0  0  0
 27 26  1  0  0  0  0
 27 28  2  0  0  0  0
 28 24  1  0  0  0  0
M  END
>  <minimizedAffinity>
-3.52589917

>  <minimizedRMSD>
5.50051498

$$$$
