
 OpenBabel03262519523D

 30 32  0  0  1  0  0  0  0  0999 V2000
   39.6000   24.4150   35.2740 C   0  0  0  0  0  0  0  0  0  0  0  0
   38.8250   23.9200   35.7930 H   0  0  0  0  0  0  0  0  0  0  0  0
   39.5160   23.8660   34.2580 H   0  0  0  0  0  0  0  0  0  0  0  0
   42.7180   23.1870   36.5350 C   0  0  0  0  0  0  0  0  0  0  0  0
   41.3080   23.2590   36.3720 C   0  0  0  0  0  0  0  0  0  0  0  0
   40.9770   24.2560   35.5510 C   0  0  0  0  0  0  0  0  0  0  0  0
   41.9220   25.0880   34.9560 N   0  0  0  0  0  0  0  0  0  0  0  0
   43.2220   24.9640   35.1520 C   0  0  0  0  0  0  0  0  0  0  0  0
   43.6170   24.0030   35.9500 N   0  0  0  0  0  0  0  0  0  0  0  0
   43.2020   22.4280   37.1780 H   0  0  0  0  0  0  0  0  0  0  0  0
   43.8560   25.6470   34.6530 H   0  0  0  0  0  0  0  0  0  0  0  0
   40.5740   22.2800   37.0860 C   0  0  0  0  0  0  0  0  0  0  0  0
   39.7880   22.8400   38.1230 F   0  0  0  0  0  0  0  0  0  0  0  0
   41.1560   21.4470   37.9690 F   0  0  0  0  0  0  0  0  0  0  0  0
   39.4400   21.7330   36.4870 F   0  0  0  0  0  0  0  0  0  0  0  0
   39.2230   25.7670   34.9170 C   0  0  0  0  0  0  0  0  0  0  0  0
   38.4540   26.1340   35.6600 H   0  0  0  0  0  0  0  0  0  0  0  0
   39.9990   26.5600   34.9430 H   0  0  0  0  0  0  0  0  0  0  0  0
   38.4750   25.7160   33.5800 C   0  0  2  0  0  0  0  0  0  0  0  0
   38.7300   26.8750   32.6840 C   0  0  0  0  0  0  0  0  0  0  0  0
   37.3710   26.5510   33.2400 C   0  0  1  0  0  0  0  0  0  0  0  0
   38.6270   24.7370   33.1070 H   0  0  0  0  0  0  0  0  0  0  0  0
   38.9050   26.6620   31.5830 H   0  0  0  0  0  0  0  0  0  0  0  0
   39.4090   27.6260   33.0300 H   0  0  0  0  0  0  0  0  0  0  0  0
   36.8720   27.4220   33.4640 H   0  0  0  0  0  0  0  0  0  0  0  0
   36.4780   25.8820   32.2430 N   0  0  0  0  0  0  0  0  0  0  0  0
   35.5930   26.3870   31.3400 C   0  0  0  0  0  0  0  0  0  0  0  0
   35.0320   25.3890   30.6730 N   0  0  0  0  0  0  0  0  0  0  0  0
   35.5340   24.2520   31.1250 C   0  0  0  0  0  0  0  0  0  0  0  0
   36.4060   24.5500   32.0720 N   0  0  0  0  0  0  0  0  0  0  0  0
  1  6  1  0  0  0  0
  1  2  1  0  0  0  0
  3  1  1  0  0  0  0
  4 10  1  0  0  0  0
  5  4  1  0  0  0  0
  5 12  1  0  0  0  0
  6  5  2  0  0  0  0
  7  8  2  0  0  0  0
  7  6  1  0  0  0  0
  8  9  1  0  0  0  0
  9  4  2  0  0  0  0
 11  8  1  0  0  0  0
 12 14  1  0  0  0  0
 12 13  1  0  0  0  0
 15 12  1  0  0  0  0
 16 18  1  0  0  0  0
 16  1  1  0  0  0  0
 16 17  1  0  0  0  0
 19 22  1  6  0  0  0
 19 16  1  0  0  0  0
 20 24  1  0  0  0  0
 20 21  1  0  0  0  0
 20 19  1  0  0  0  0
 21 25  1  1  0  0  0
 21 19  1  0  0  0  0
 23 20  1  0  0  0  0
 26 21  1  0  0  0  0
 27 26  1  0  0  0  0
 28 29  1  0  0  0  0
 28 27  2  0  0  0  0
 29 30  2  0  0  0  0
 30 26  1  0  0  0  0
M  END
>  <minimizedAffinity>
-4.60154057

>  <minimizedRMSD>
3.74254823

$$$$
