
 OpenBabel03262519563D

 33 37  0  0  1  0  0  0  0  0999 V2000
   37.1440   21.4170   34.0020 C   0  0  1  0  0  0  0  0  0  0  0  0
   35.9400   21.0960   34.7660 C   0  0  0  0  0  0  0  0  0  0  0  0
   35.8740   21.0190   33.2660 C   0  0  2  0  0  0  0  0  0  0  0  0
   37.9860   20.6860   34.0130 H   0  0  0  0  0  0  0  0  0  0  0  0
   35.4060   21.9120   35.2720 H   0  0  0  0  0  0  0  0  0  0  0  0
   35.8760   20.1340   35.2850 H   0  0  0  0  0  0  0  0  0  0  0  0
   35.2560   21.7790   32.7820 H   0  0  0  0  0  0  0  0  0  0  0  0
   35.9380   19.7390   32.6020 N   0  0  0  0  0  0  0  0  0  0  0  0
   35.3790   18.5740   32.9680 C   0  0  0  0  0  3  0  0  0  0  0  0
   35.7050   17.6270   32.0400 N   0  0  0  0  0  0  0  0  0  0  0  0
   36.4700   18.1840   31.0830 C   0  0  0  0  0  0  0  0  0  0  0  0
   37.1010   17.7940   29.9190 C   0  0  0  0  0  0  0  0  0  0  0  0
   37.0020   16.7600   29.6190 H   0  0  0  0  0  0  0  0  0  0  0  0
   37.8140   18.6730   29.1840 N   0  0  0  0  0  0  0  0  0  0  0  0
   37.9450   19.9660   29.5480 C   0  0  0  0  0  3  0  0  0  0  0  0
   37.3280   20.3400   30.6810 N   0  0  0  0  0  0  0  0  0  0  0  0
   36.6100   19.5170   31.4470 C   0  0  0  0  0  0  0  0  0  0  0  0
   38.1190   23.7010   34.4730 C   0  0  0  0  0  0  0  0  0  0  0  0
   38.3450   24.8760   33.7670 C   0  0  0  0  0  0  0  0  0  0  0  0
   37.8790   24.5910   32.5160 N   0  0  0  0  0  0  0  0  0  0  0  0
   37.4260   23.3560   32.5170 C   0  0  0  0  0  0  0  0  0  0  0  0
   37.5530   22.7630   33.7090 N   0  0  0  0  0  0  0  0  0  0  0  0
   38.7950   25.7850   34.1690 H   0  0  0  0  0  0  0  0  0  0  0  0
   37.0260   23.0110   31.5720 H   0  0  0  0  0  0  0  0  0  0  0  0
   38.4520   23.4930   35.8890 C   0  0  0  0  0  0  0  0  0  0  0  0
   39.6630   22.9150   36.2550 C   0  0  0  0  0  0  0  0  0  0  0  0
   39.9200   22.7450   37.6280 C   0  0  0  0  0  0  0  0  0  0  0  0
   38.9820   23.1510   38.5100 N   0  0  0  0  0  0  0  0  0  0  0  0
   37.8180   23.7100   38.1260 C   0  0  0  0  0  0  0  0  0  0  0  0
   37.5340   23.8890   36.8140 N   0  0  0  0  0  0  0  0  0  0  0  0
   40.3780   22.6080   35.5060 H   0  0  0  0  0  0  0  0  0  0  0  0
   40.8540   22.2970   37.9380 H   0  0  0  0  0  0  0  0  0  0  0  0
   37.0420   24.0480   38.8010 H   0  0  0  0  0  0  0  0  0  0  0  0
  1  4  1  1  0  0  0
  1  2  1  0  0  0  0
  2  5  1  0  0  0  0
  2  6  1  0  0  0  0
  3  7  1  6  0  0  0
  3  1  1  0  0  0  0
  3  2  1  0  0  0  0
  8  9  1  0  0  0  0
  8  3  1  0  0  0  0
 10  9  2  0  0  0  0
 11 17  1  0  0  0  0
 11 10  1  0  0  0  0
 12 11  2  0  0  0  0
 13 12  1  0  0  0  0
 14 15  2  0  0  0  0
 14 12  1  0  0  0  0
 15 16  1  0  0  0  0
 16 17  2  0  0  0  0
 17  8  1  0  0  0  0
 18 25  1  0  0  0  0
 19 23  1  0  0  0  0
 19 18  2  0  0  0  0
 20 21  2  0  0  0  0
 20 19  1  0  0  0  0
 21 22  1  0  0  0  0
 22  1  1  0  0  0  0
 22 18  1  0  0  0  0
 24 21  1  0  0  0  0
 25 26  2  0  0  0  0
 25 30  1  0  0  0  0
 26 27  1  0  0  0  0
 27 32  1  0  0  0  0
 27 28  2  0  0  0  0
 29 28  1  0  0  0  0
 29 33  1  0  0  0  0
 30 29  2  0  0  0  0
 31 26  1  0  0  0  0
M  END
>  <minimizedAffinity>
-5.02761602

>  <minimizedRMSD>
0.750639856

$$$$
