
 OpenBabel03262519433D

 30 32  0  0  1  0  0  0  0  0999 V2000
   38.2420   24.3630   36.8290 C   0  0  1  0  0  0  0  0  0  0  0  0
   37.3860   24.0070   36.1730 H   0  0  0  0  0  0  0  0  0  0  0  0
   41.0400   21.9040   37.4170 C   0  0  0  0  0  0  0  0  0  0  0  0
   40.0040   22.8270   37.6540 C   0  0  0  0  0  0  0  0  0  0  0  0
   39.3300   23.4270   36.5630 C   0  0  0  0  0  0  0  0  0  0  0  0
   39.7070   23.0970   35.3010 N   0  0  0  0  0  0  0  0  0  0  0  0
   40.7200   22.1950   35.1080 C   0  0  0  0  0  0  0  0  0  0  0  0
   41.3770   21.6070   36.1610 N   0  0  0  0  0  0  0  0  0  0  0  0
   41.5050   21.4860   38.2870 H   0  0  0  0  0  0  0  0  0  0  0  0
   39.7360   23.0630   38.6720 H   0  0  0  0  0  0  0  0  0  0  0  0
   41.0610   21.8940   34.1240 H   0  0  0  0  0  0  0  0  0  0  0  0
   37.7120   24.2940   38.2510 C   0  0  0  0  0  0  0  0  0  0  0  0
   37.3170   23.2900   38.4980 H   0  0  0  0  0  0  0  0  0  0  0  0
   36.9470   25.1030   38.3470 H   0  0  0  0  0  0  0  0  0  0  0  0
   38.5770   24.4880   38.9490 H   0  0  0  0  0  0  0  0  0  0  0  0
   38.5890   25.7920   36.5150 C   0  0  0  0  0  0  0  0  0  0  0  0
   39.6120   25.9780   36.8970 H   0  0  0  0  0  0  0  0  0  0  0  0
   37.9410   26.4600   37.1360 H   0  0  0  0  0  0  0  0  0  0  0  0
   38.4650   26.1510   35.0830 C   0  0  0  0  0  0  0  0  0  0  0  0
   37.2170   26.0840   34.5430 N   0  0  0  0  0  0  0  0  0  0  0  0
   36.9270   26.3900   33.2790 C   0  0  0  0  0  3  0  0  0  0  0  0
   37.9250   26.7970   32.4650 N   0  0  0  0  0  0  0  0  0  0  0  0
   39.1800   26.8840   32.9390 C   0  0  0  0  0  0  0  0  0  0  0  0
   40.1990   27.2920   32.1050 C   0  0  0  0  0  3  0  0  0  0  0  0
   41.4920   27.3720   32.6070 C   0  0  0  0  0  0  0  0  0  0  0  0
   42.2110   27.6960   31.8920 H   0  0  0  0  0  0  0  0  0  0  0  0
   41.7520   27.0380   33.9410 C   0  0  0  0  0  0  0  0  0  0  0  0
   42.7840   27.1210   34.2690 H   0  0  0  0  0  0  0  0  0  0  0  0
   40.7330   26.6290   34.7770 C   0  0  0  0  0  3  0  0  0  0  0  0
   39.4770   26.5650   34.2480 C   0  0  0  0  0  0  0  0  0  0  0  0
  1  2  1  6  0  0  0
  1 12  1  0  0  0  0
  3  4  1  0  0  0  0
  3  9  1  0  0  0  0
  4 10  1  0  0  0  0
  5  1  1  0  0  0  0
  5  4  2  0  0  0  0
  6  5  1  0  0  0  0
  7  6  2  0  0  0  0
  7  8  1  0  0  0  0
  8  3  2  0  0  0  0
 11  7  1  0  0  0  0
 12 14  1  0  0  0  0
 12 13  1  0  0  0  0
 12 15  1  0  0  0  0
 16  1  1  0  0  0  0
 16 17  1  0  0  0  0
 16 18  1  0  0  0  0
 19 16  1  0  0  0  0
 20 19  1  0  0  0  0
 21 20  2  0  0  0  0
 22 23  2  0  0  0  0
 22 21  1  0  0  0  0
 23 30  1  0  0  0  0
 24 25  2  0  0  0  0
 24 23  1  0  0  0  0
 25 27  1  0  0  0  0
 26 25  1  0  0  0  0
 27 28  1  0  0  0  0
 27 29  2  0  0  0  0
 30 29  1  0  0  0  0
 30 19  2  0  0  0  0
M  END
>  <minimizedAffinity>
-4.91906691

>  <minimizedRMSD>
0.888172388

$$$$
