
 OpenBabel03262515243D

 43 48  0  0  0  0  0  0  0  0999 V2000
   37.5610   21.8320   34.9790 C   0  0  0  0  0  0  0  0  0  0  0  0
   36.3550   21.2750   34.9280 C   0  0  0  0  0  0  0  0  0  0  0  0
   35.9310   20.5590   33.8520 C   0  0  0  0  0  0  0  0  0  0  0  0
   36.8300   20.4500   32.8220 C   0  0  0  0  0  0  0  0  0  0  0  0
   38.3280   21.3890   33.3890 S   0  0  0  0  0  0  0  0  0  0  0  0
   35.7090   21.4260   35.8150 H   0  0  0  0  0  0  0  0  0  0  0  0
   34.9680   20.0800   33.7440 H   0  0  0  0  0  0  0  0  0  0  0  0
   36.6770   19.7430   31.5190 C   0  0  0  0  0  0  0  0  0  0  0  0
   36.3170   20.3640   30.3460 C   0  0  0  0  0  0  0  0  0  0  0  0
   36.3100   19.3400   29.4610 N   0  0  0  0  0  0  0  0  0  0  0  0
   36.6390   18.1580   30.0280 C   0  0  0  0  0  0  0  0  0  0  0  0
   36.7300   16.9060   29.4160 C   0  0  0  0  0  0  0  0  0  0  0  0
   37.0920   15.8450   30.2300 C   0  0  0  0  0  0  0  0  0  0  0  0
   37.3390   16.0570   31.5700 C   0  0  0  0  0  0  0  0  0  0  0  0
   37.2310   17.3250   32.1140 C   0  0  0  0  0  0  0  0  0  0  0  0
   36.8790   18.4040   31.3620 C   0  0  0  0  0  0  0  0  0  0  0  0
   36.0950   21.3870   30.1570 H   0  0  0  0  0  0  0  0  0  0  0  0
   36.0680   19.4730   28.4340 H   0  0  0  0  0  0  0  0  0  0  0  0
   36.5300   16.7700   28.3670 H   0  0  0  0  0  0  0  0  0  0  0  0
   37.1700   14.8680   29.7870 H   0  0  0  0  0  0  0  0  0  0  0  0
   37.6240   15.2280   32.2170 H   0  0  0  0  0  0  0  0  0  0  0  0
   37.4270   17.4970   33.1750 H   0  0  0  0  0  0  0  0  0  0  0  0
   38.2270   22.5810   35.9060 O   0  0  0  0  0  0  0  0  0  0  0  0
   37.9620   23.9110   36.1750 C   0  0  0  0  0  0  0  0  0  0  0  0
   37.2840   24.0360   37.1880 O   0  0  0  0  0  0  0  0  0  0  0  0
   40.3070   26.2410   34.7010 C   0  0  0  0  0  0  0  0  0  0  0  0
   39.5320   27.0300   33.8260 C   0  0  0  0  0  0  0  0  0  0  0  0
   38.1430   26.7260   33.7590 C   0  0  0  0  0  0  0  0  0  0  0  0
   37.6560   25.7240   34.5180 N   0  0  0  0  0  0  0  0  0  0  0  0
   38.4440   25.0000   35.3390 C   0  0  0  0  0  0  0  0  0  0  0  0
   39.7770   25.2620   35.4290 N   0  0  0  0  0  0  0  0  0  0  0  0
   41.3480   26.5010   34.7230 H   0  0  0  0  0  0  0  0  0  0  0  0
   39.8770   27.8260   33.2130 H   0  0  0  0  0  0  0  0  0  0  0  0
   37.2180   27.4200   32.9310 N   0  0  0  0  0  0  0  0  0  0  0  0
   37.1790   27.1570   31.5910 C   0  0  0  0  0  0  0  0  0  0  0  0
   36.2220   27.9350   31.0060 N   0  0  0  0  0  0  0  0  0  0  0  0
   35.6540   28.6900   31.9680 C   0  0  0  0  0  0  0  0  0  0  0  0
   34.6570   29.6620   32.0830 C   0  0  0  0  0  0  0  0  0  0  0  0
   34.1520   29.9330   31.1530 H   0  0  0  0  0  0  0  0  0  0  0  0
   34.3610   30.2090   33.2770 N   0  0  0  0  0  0  0  0  0  0  0  0
   34.9970   29.8600   34.4160 C   0  0  0  0  0  0  0  0  0  0  0  0
   35.9790   28.9160   34.3630 N   0  0  0  0  0  0  0  0  0  0  0  0
   36.2800   28.3600   33.1540 C   0  0  0  0  0  0  0  0  0  0  0  0
  1 23  1  0  0  0  0
  2  1  2  0  0  0  0
  2  6  1  0  0  0  0
  3  2  1  0  0  0  0
  4  5  1  0  0  0  0
  4  3  2  0  0  0  0
  5  1  1  0  0  0  0
  7  3  1  0  0  0  0
  8  4  1  0  0  0  0
  9  8  2  0  0  0  0
 10 11  1  0  0  0  0
 10  9  1  0  0  0  0
 11 16  1  0  0  0  0
 12 11  2  0  0  0  0
 12 13  1  0  0  0  0
 13 14  2  0  0  0  0
 14 15  1  0  0  0  0
 14 21  1  0  0  0  0
 15 22  1  0  0  0  0
 16  8  1  0  0  0  0
 16 15  2  0  0  0  0
 17  9  1  0  0  0  0
 18 10  1  0  0  0  0
 19 12  1  0  0  0  0
 20 13  1  0  0  0  0
 23 24  1  0  0  0  0
 24 25  2  0  0  0  0
 26 32  1  0  0  0  0
 26 31  1  0  0  0  0
 27 26  2  0  0  0  0
 28 27  1  0  0  0  0
 28 29  2  0  0  0  0
 29 30  1  0  0  0  0
 30 31  2  0  0  0  0
 30 24  1  0  0  0  0
 33 27  1  0  0  0  0
 34 43  1  0  0  0  0
 34 28  1  0  0  0  0
 35 34  1  0  0  0  0
 36 35  2  0  0  0  0
 36 37  1  0  0  0  0
 37 38  2  0  0  0  0
 37 43  1  0  0  0  0
 38 40  1  0  0  0  0
 39 38  1  0  0  0  0
 40 41  2  0  0  0  0
 42 41  1  0  0  0  0
 43 42  2  0  0  0  0
M  END
>  <minimizedAffinity>
-6.06756639

>  <minimizedRMSD>
5.78539419

$$$$
