
 OpenBabel03262519323D

 44 49  0  0  0  0  0  0  0  0999 V2000
   40.5130   22.1480   33.6880 C   0  0  0  0  0  0  0  0  0  0  0  0
   41.3020   21.3270   32.8940 C   0  0  0  0  0  0  0  0  0  0  0  0
   42.1870   20.6520   33.6530 N   0  0  0  0  0  0  0  0  0  0  0  0
   42.0320   20.9870   34.9620 C   0  0  0  0  0  0  0  0  0  0  0  0
   42.6540   20.6080   36.1210 C   0  0  0  0  0  0  0  0  0  0  0  0
   42.2680   21.1350   37.3290 C   0  0  0  0  0  0  0  0  0  0  0  0
   41.2210   22.0720   37.3600 C   0  0  0  0  0  0  0  0  0  0  0  0
   40.5880   22.4570   36.1800 C   0  0  0  0  0  0  0  0  0  0  0  0
   40.9930   21.9150   34.9740 C   0  0  0  0  0  0  0  0  0  0  0  0
   41.2620   21.2020   31.8260 H   0  0  0  0  0  0  0  0  0  0  0  0
   42.9140   19.9570   33.3340 H   0  0  0  0  0  0  0  0  0  0  0  0
   43.4660   19.8770   36.0720 H   0  0  0  0  0  0  0  0  0  0  0  0
   42.7520   20.8420   38.2490 H   0  0  0  0  0  0  0  0  0  0  0  0
   40.9270   22.4790   38.3230 H   0  0  0  0  0  0  0  0  0  0  0  0
   39.5270   23.4050   36.1980 N   0  0  0  0  0  0  0  0  0  0  0  0
   38.3120   23.0300   36.6910 C   0  0  0  0  0  0  0  0  0  0  0  0
   37.4300   24.0700   36.6240 N   0  0  0  0  0  0  0  0  0  0  0  0
   38.0820   25.1030   36.0900 C   0  0  0  0  0  0  0  0  0  0  0  0
   37.8390   26.4270   35.7370 C   0  0  0  0  0  0  0  0  0  0  0  0
   36.8200   26.7970   35.9290 H   0  0  0  0  0  0  0  0  0  0  0  0
   38.7910   27.2190   35.1900 N   0  0  0  0  0  0  0  0  0  0  0  0
   40.0330   26.7510   34.9600 C   0  0  0  0  0  0  0  0  0  0  0  0
   40.3440   25.4610   35.2830 N   0  0  0  0  0  0  0  0  0  0  0  0
   39.3730   24.6900   35.8290 C   0  0  0  0  0  0  0  0  0  0  0  0
   39.5080   22.9790   33.2590 O   0  0  0  0  0  0  0  0  0  0  0  0
   38.4290   22.6190   32.5090 C   0  0  0  0  0  0  0  0  0  0  0  0
   37.8350   23.6040   31.7230 C   0  0  0  0  0  0  0  0  0  0  0  0
   36.7200   23.2220   30.9510 C   0  0  0  0  0  0  0  0  0  0  0  0
   36.2890   21.9490   31.0050 N   0  0  0  0  0  0  0  0  0  0  0  0
   36.9040   21.0170   31.7900 C   0  0  0  0  0  0  0  0  0  0  0  0
   37.9570   21.3590   32.5260 N   0  0  0  0  0  0  0  0  0  0  0  0
   36.5110   19.6540   31.9040 N   0  0  0  0  0  0  0  0  0  0  0  0
   37.4130   18.6480   31.7050 C   0  0  0  0  0  0  0  0  0  0  0  0
   36.9470   17.3360   31.8340 C   0  0  0  0  0  0  0  0  0  0  0  0
   35.6200   17.0560   32.1540 C   0  0  0  0  0  0  0  0  0  0  0  0
   35.2080   15.8700   32.2690 O   0  0  0  0  0  0  0  0  0  0  0  0
   34.7720   18.0850   32.3400 N   0  0  0  0  0  0  0  0  0  0  0  0
   35.2290   19.3490   32.2130 C   0  0  0  0  0  0  0  0  0  0  0  0
   34.4390   20.3210   32.3860 O   0  0  0  0  0  0  0  0  0  0  0  0
   38.1560   24.6370   31.6570 H   0  0  0  0  0  0  0  0  0  0  0  0
   36.2150   23.9410   30.3210 H   0  0  0  0  0  0  0  0  0  0  0  0
   38.4370   18.8560   31.4570 H   0  0  0  0  0  0  0  0  0  0  0  0
   37.5990   16.4960   31.6920 H   0  0  0  0  0  0  0  0  0  0  0  0
   33.7730   17.9260   32.5800 H   0  0  0  0  0  0  0  0  0  0  0  0
  1  9  1  0  0  0  0
  2  3  1  0  0  0  0
  2  1  2  0  0  0  0
  3  4  1  0  0  0  0
  4  9  2  0  0  0  0
  4  5  1  0  0  0  0
  5  6  2  0  0  0  0
  6  7  1  0  0  0  0
  6 13  1  0  0  0  0
  7 14  1  0  0  0  0
  8 15  1  0  0  0  0
  8  7  2  0  0  0  0
  9  8  1  0  0  0  0
 10  2  1  0  0  0  0
 11  3  1  0  0  0  0
 12  5  1  0  0  0  0
 15 16  1  0  0  0  0
 17 16  2  0  0  0  0
 18 17  1  0  0  0  0
 19 20  1  0  0  0  0
 19 18  2  0  0  0  0
 21 19  1  0  0  0  0
 22 21  2  0  0  0  0
 22 23  1  0  0  0  0
 23 24  2  0  0  0  0
 24 18  1  0  0  0  0
 24 15  1  0  0  0  0
 25  1  1  0  0  0  0
 26 31  1  0  0  0  0
 26 25  1  0  0  0  0
 27 26  2  0  0  0  0
 28 29  2  0  0  0  0
 28 27  1  0  0  0  0
 29 30  1  0  0  0  0
 30 32  1  0  0  0  0
 30 31  2  0  0  0  0
 32 38  1  0  0  0  0
 33 34  2  0  0  0  0
 33 32  1  0  0  0  0
 34 35  1  0  0  0  0
 35 36  2  0  0  0  0
 35 37  1  0  0  0  0
 37 44  1  0  0  0  0
 38 37  1  0  0  0  0
 38 39  2  0  0  0  0
 40 27  1  0  0  0  0
 41 28  1  0  0  0  0
 42 33  1  0  0  0  0
 43 34  1  0  0  0  0
M  END
>  <minimizedAffinity>
-6.90638208

>  <minimizedRMSD>
5.75210047

$$$$
