
 OpenBabel03262518383D

 43 46  0  0  0  0  0  0  0  0999 V2000
   37.2670   26.6180   34.6190 C   0  0  0  0  0  0  0  0  0  0  0  0
   37.4070   25.7720   33.5100 C   0  0  0  0  0  0  0  0  0  0  0  0
   36.8660   26.1920   32.2840 C   0  0  0  0  0  0  0  0  0  0  0  0
   36.2430   27.3890   32.2490 N   0  0  0  0  0  0  0  0  0  0  0  0
   36.1200   28.1870   33.3280 C   0  0  0  0  0  0  0  0  0  0  0  0
   36.6350   27.7980   34.5160 N   0  0  0  0  0  0  0  0  0  0  0  0
   37.9180   24.8380   33.6300 H   0  0  0  0  0  0  0  0  0  0  0  0
   36.9750   25.5390   31.4320 H   0  0  0  0  0  0  0  0  0  0  0  0
   37.8330   26.1730   35.8930 C   0  0  0  0  0  0  0  0  0  0  0  0
   38.5590   26.9590   36.5450 O   0  0  0  0  0  0  0  0  0  0  0  0
   37.5500   24.8940   36.3370 O   0  0  0  0  0  0  0  0  0  0  0  0
   39.6230   22.6920   38.1650 N   0  0  0  0  0  0  0  0  0  0  0  0
   38.5320   23.4450   37.9960 N   0  0  0  0  0  0  0  0  0  0  0  0
   38.5950   24.0350   36.7690 C   0  0  0  0  0  0  0  0  0  0  0  0
   39.7470   23.6470   36.1520 C   0  0  0  0  0  0  0  0  0  0  0  0
   40.3640   22.8130   37.0440 C   0  0  0  0  0  0  0  0  0  0  0  0
   39.9330   22.0920   38.9680 H   0  0  0  0  0  0  0  0  0  0  0  0
   40.0390   23.9750   35.1630 H   0  0  0  0  0  0  0  0  0  0  0  0
   41.6700   22.1430   36.7970 C   0  0  0  0  0  0  0  0  0  0  0  0
   42.6920   22.8480   36.2020 C   0  0  0  0  0  0  0  0  0  0  0  0
   43.8510   22.1400   36.0190 C   0  0  0  0  0  0  0  0  0  0  0  0
   44.0640   20.8500   36.3640 N   0  0  0  0  0  0  0  0  0  0  0  0
   43.0120   20.1970   36.9530 C   0  0  0  0  0  0  0  0  0  0  0  0
   41.8540   20.8430   37.1550 N   0  0  0  0  0  0  0  0  0  0  0  0
   42.5990   23.8790   35.8980 H   0  0  0  0  0  0  0  0  0  0  0  0
   44.7180   22.5980   35.5590 H   0  0  0  0  0  0  0  0  0  0  0  0
   43.0170   19.1860   37.2810 H   0  0  0  0  0  0  0  0  0  0  0  0
   35.4200   29.4790   33.1860 C   0  0  0  0  0  0  0  0  0  0  0  0
   35.5200   30.1870   34.5310 C   0  0  0  0  0  0  0  0  0  0  0  0
   36.5560   30.0330   34.9420 H   0  0  0  0  0  0  0  0  0  0  0  0
   35.4440   31.2790   34.3690 H   0  0  0  0  0  0  0  0  0  0  0  0
   34.7750   29.7950   35.2300 H   0  0  0  0  0  0  0  0  0  0  0  0
   33.9780   29.1850   32.8840 C   0  0  0  0  0  0  0  0  0  0  0  0
   33.8260   28.2140   32.4110 H   0  0  0  0  0  0  0  0  0  0  0  0
   33.3740   29.2770   33.8330 H   0  0  0  0  0  0  0  0  0  0  0  0
   33.6050   30.0230   32.2350 H   0  0  0  0  0  0  0  0  0  0  0  0
   36.0360   30.3280   32.0890 C   0  0  0  0  0  0  0  0  0  0  0  0
   35.3920   30.3700   31.2090 H   0  0  0  0  0  0  0  0  0  0  0  0
   37.0520   29.9400   31.9020 H   0  0  0  0  0  0  0  0  0  0  0  0
   36.1960   31.6180   32.6330 O   0  0  0  0  0  0  0  0  0  0  0  0
   36.2440   32.5150   31.5650 C   0  0  0  0  0  0  0  0  0  0  0  0
   37.2080   33.6580   31.8320 C   0  0  0  0  0  0  0  0  0  0  0  0
   37.4260   32.6840   30.7130 C   0  0  0  0  0  0  0  0  0  0  0  0
  1  9  1  0  0  0  0
  2  7  1  0  0  0  0
  2  1  2  0  0  0  0
  3  2  1  0  0  0  0
  4  3  2  0  0  0  0
  4  5  1  0  0  0  0
  5  6  2  0  0  0  0
  6  1  1  0  0  0  0
  8  3  1  0  0  0  0
  9 11  1  0  0  0  0
  9 10  2  0  0  0  0
 11 14  1  0  0  0  0
 12 17  1  0  0  0  0
 13 12  1  0  0  0  0
 14 13  2  0  0  0  0
 15 14  1  0  0  0  0
 15 16  2  0  0  0  0
 16 12  1  0  0  0  0
 18 15  1  0  0  0  0
 19 16  1  0  0  0  0
 19 24  1  0  0  0  0
 20 19  2  0  0  0  0
 21 20  1  0  0  0  0
 21 22  2  0  0  0  0
 22 23  1  0  0  0  0
 23 24  2  0  0  0  0
 23 27  1  0  0  0  0
 25 20  1  0  0  0  0
 26 21  1  0  0  0  0
 28  5  1  0  0  0  0
 28 29  1  0  0  0  0
 29 30  1  0  0  0  0
 29 32  1  0  0  0  0
 31 29  1  0  0  0  0
 33 28  1  0  0  0  0
 33 35  1  0  0  0  0
 34 33  1  0  0  0  0
 36 33  1  0  0  0  0
 37 40  1  0  0  0  0
 37 28  1  0  0  0  0
 38 37  1  0  0  0  0
 39 37  1  0  0  0  0
 41 42  1  0  0  0  0
 41 40  1  0  0  0  0
 43 41  1  0  0  0  0
 43 42  1  0  0  0  0
M  END
>  <minimizedAffinity>
-5.48719358

>  <minimizedRMSD>
0.987386286

$$$$
