
 OpenBabel03262519483D

 42 46  0  0  1  0  0  0  0  0999 V2000
   37.4800   25.6870   33.0150 N   0  0  0  0  0  0  0  0  0  0  0  0
   36.9930   24.6200   32.3810 C   0  0  0  0  0  0  0  0  0  0  0  0
   35.9630   24.9050   31.5180 C   0  0  0  0  0  0  0  0  0  0  0  0
   35.8020   26.2250   31.6240 N   0  0  0  0  0  0  0  0  0  0  0  0
   36.7100   26.6960   32.5190 C   0  0  0  0  0  0  0  0  0  0  0  0
   37.4090   23.6160   32.5610 H   0  0  0  0  0  0  0  0  0  0  0  0
   35.4640   24.1390   30.9290 H   0  0  0  0  0  0  0  0  0  0  0  0
   36.7620   28.1740   32.8040 C   0  0  1  0  0  0  0  0  0  0  0  0
   36.1740   29.0910   31.8050 C   0  0  0  0  0  0  0  0  0  0  0  0
   35.4270   28.8490   33.0910 C   0  0  2  0  0  0  0  0  0  0  0  0
   37.6310   28.4960   33.3690 H   0  0  0  0  0  0  0  0  0  0  0  0
   35.6540   28.6370   30.9110 H   0  0  0  0  0  0  0  0  0  0  0  0
   36.5710   30.0910   31.6090 H   0  0  0  0  0  0  0  0  0  0  0  0
   34.5860   28.1560   33.1460 H   0  0  0  0  0  0  0  0  0  0  0  0
   35.5300   29.9350   34.0470 N   0  0  0  0  0  0  0  0  0  0  0  0
   36.1740   30.0720   35.2200 C   0  0  0  0  0  3  0  0  0  0  0  0
   35.9590   31.2900   35.7410 N   0  0  0  0  0  0  0  0  0  0  0  0
   35.1650   31.9640   34.9050 C   0  0  0  0  0  0  0  0  0  0  0  0
   34.6800   33.2370   35.0190 C   0  0  0  0  0  0  0  0  0  0  0  0
   34.9320   33.8590   35.8880 H   0  0  0  0  0  0  0  0  0  0  0  0
   33.8820   33.6790   34.0090 N   0  0  0  0  0  0  0  0  0  0  0  0
   33.6140   32.8610   32.9710 C   0  0  0  0  0  3  0  0  0  0  0  0
   34.1010   31.6120   32.8790 N   0  0  0  0  0  0  0  0  0  0  0  0
   34.8960   31.1180   33.8470 C   0  0  0  0  0  0  0  0  0  0  0  0
   38.4930   25.9140   33.9770 C   0  0  0  0  0  0  0  0  0  0  0  0
   39.0350   26.8790   33.7670 H   0  0  0  0  0  0  0  0  0  0  0  0
   39.2990   25.1350   33.8910 H   0  0  0  0  0  0  0  0  0  0  0  0
   37.9910   25.9070   35.3730 C   0  0  1  0  0  0  0  0  0  0  0  0
   36.8730   25.8300   35.3710 H   0  0  0  0  0  0  0  0  0  0  0  0
   38.5690   23.4310   38.1780 C   0  0  0  0  0  0  0  0  0  0  0  0
   37.9810   24.5140   37.4960 C   0  0  0  0  0  0  0  0  0  0  0  0
   38.5380   24.7980   36.1950 C   0  0  0  0  0  0  0  0  0  0  0  0
   39.5770   24.0330   35.6910 N   0  0  0  0  0  0  0  0  0  0  0  0
   40.0740   23.0240   36.4080 C   0  0  0  0  0  0  0  0  0  0  0  0
   39.5710   22.7170   37.6590 N   0  0  0  0  0  0  0  0  0  0  0  0
   38.1100   23.2720   39.1390 H   0  0  0  0  0  0  0  0  0  0  0  0
   37.1850   25.1290   37.8400 H   0  0  0  0  0  0  0  0  0  0  0  0
   40.8840   22.4170   36.0290 H   0  0  0  0  0  0  0  0  0  0  0  0
   38.2730   27.2480   36.0430 C   0  0  0  0  0  0  0  0  0  0  0  0
   38.5190   27.0200   37.1000 H   0  0  0  0  0  0  0  0  0  0  0  0
   37.3870   27.9050   36.0830 H   0  0  0  0  0  0  0  0  0  0  0  0
   39.1450   27.6980   35.5530 H   0  0  0  0  0  0  0  0  0  0  0  0
  1 25  1  0  0  0  0
  2  6  1  0  0  0  0
  2  1  1  0  0  0  0
  3  4  1  0  0  0  0
  3  2  2  0  0  0  0
  4  5  2  0  0  0  0
  5  8  1  0  0  0  0
  5  1  1  0  0  0  0
  7  3  1  0  0  0  0
  8 10  1  0  0  0  0
  8 11  1  1  0  0  0
  9  8  1  0  0  0  0
  9 10  1  0  0  0  0
 10 14  1  6  0  0  0
 10 15  1  0  0  0  0
 12  9  1  0  0  0  0
 13  9  1  0  0  0  0
 15 16  1  0  0  0  0
 16 17  2  0  0  0  0
 18 19  1  0  0  0  0
 18 17  1  0  0  0  0
 19 20  1  0  0  0  0
 21 19  2  0  0  0  0
 22 21  1  0  0  0  0
 23 22  2  0  0  0  0
 23 24  1  0  0  0  0
 24 15  1  0  0  0  0
 24 18  2  0  0  0  0
 25 28  1  0  0  0  0
 26 25  1  0  0  0  0
 27 25  1  0  0  0  0
 28 29  1  6  0  0  0
 28 39  1  0  0  0  0
 28 32  1  0  0  0  0
 30 36  1  0  0  0  0
 31 37  1  0  0  0  0
 31 30  2  0  0  0  0
 32 31  1  0  0  0  0
 33 32  2  0  0  0  0
 33 34  1  0  0  0  0
 34 35  2  0  0  0  0
 35 30  1  0  0  0  0
 38 34  1  0  0  0  0
 39 41  1  0  0  0  0
 39 40  1  0  0  0  0
 42 39  1  0  0  0  0
M  END
>  <minimizedAffinity>
-5.47807932

>  <minimizedRMSD>
2.09534049

$$$$
