
 OpenBabel03262519453D

 35 38  0  0  1  0  0  0  0  0999 V2000
   39.9180   26.8600   33.6220 C   0  0  0  0  0  0  0  0  0  0  0  0
   40.9610   27.1440   33.5950 H   0  0  0  0  0  0  0  0  0  0  0  0
   39.3520   27.7500   34.0090 H   0  0  0  0  0  0  0  0  0  0  0  0
   39.6580   25.7690   34.4870 N   0  0  0  0  0  0  0  0  0  0  0  0
   38.5710   25.2830   35.1180 C   0  0  0  0  0  0  0  0  0  0  0  0
   38.8120   24.1600   35.8710 C   0  0  0  0  0  0  0  0  0  0  0  0
   40.1240   23.9400   35.6970 N   0  0  0  0  0  0  0  0  0  0  0  0
   40.6230   24.8950   34.8770 C   0  0  0  0  0  0  0  0  0  0  0  0
   37.5980   25.7450   35.0290 H   0  0  0  0  0  0  0  0  0  0  0  0
   38.0800   23.6230   36.4460 H   0  0  0  0  0  0  0  0  0  0  0  0
   42.0020   24.9090   34.5160 N   0  0  0  0  0  0  0  0  0  0  0  0
   42.3400   25.1560   33.2340 C   0  0  0  0  0  0  0  0  0  0  0  0
   43.6800   25.1200   33.1250 N   0  0  0  0  0  0  0  0  0  0  0  0
   44.2140   24.8510   34.3300 C   0  0  0  0  0  0  0  0  0  0  0  0
   45.4670   24.6820   34.8950 C   0  0  0  0  0  0  0  0  0  0  0  0
   46.3080   24.7850   34.2120 H   0  0  0  0  0  0  0  0  0  0  0  0
   45.6460   24.4080   36.2020 N   0  0  0  0  0  0  0  0  0  0  0  0
   44.5460   24.2990   36.9730 C   0  0  0  0  0  0  0  0  0  0  0  0
   43.2720   24.4490   36.5080 N   0  0  0  0  0  0  0  0  0  0  0  0
   43.1480   24.7210   35.1980 C   0  0  0  0  0  0  0  0  0  0  0  0
   39.4330   26.6170   32.2220 C   0  0  1  0  0  0  0  0  0  0  0  0
   39.5350   25.5260   32.0540 H   0  0  0  0  0  0  0  0  0  0  0  0
   35.8240   26.4810   31.0840 C   0  0  0  0  0  0  0  0  0  0  0  0
   37.1750   26.1230   31.1820 C   0  0  0  0  0  0  0  0  0  0  0  0
   37.9830   26.9080   32.0620 C   0  0  0  0  0  0  0  0  0  0  0  0
   37.4050   27.9480   32.7500 N   0  0  0  0  0  0  0  0  0  0  0  0
   36.1200   28.2510   32.6260 C   0  0  0  0  0  0  0  0  0  0  0  0
   35.3160   27.5100   31.7840 N   0  0  0  0  0  0  0  0  0  0  0  0
   35.2460   25.8660   30.4100 H   0  0  0  0  0  0  0  0  0  0  0  0
   37.6130   25.3060   30.6360 H   0  0  0  0  0  0  0  0  0  0  0  0
   35.6680   29.0720   33.1700 H   0  0  0  0  0  0  0  0  0  0  0  0
   40.2600   27.4030   31.2370 C   0  0  0  0  0  0  0  0  0  0  0  0
   40.4390   28.4340   31.5500 H   0  0  0  0  0  0  0  0  0  0  0  0
   41.2320   26.8430   31.1120 H   0  0  0  0  0  0  0  0  0  0  0  0
   39.7710   27.3050   30.2300 H   0  0  0  0  0  0  0  0  0  0  0  0
  1  3  1  0  0  0  0
  1  4  1  0  0  0  0
  2  1  1  0  0  0  0
  4  8  1  0  0  0  0
  4  5  1  0  0  0  0
  5  6  2  0  0  0  0
  6 10  1  0  0  0  0
  7  6  1  0  0  0  0
  8  7  2  0  0  0  0
  9  5  1  0  0  0  0
 11  8  1  0  0  0  0
 11 20  1  0  0  0  0
 12 11  1  0  0  0  0
 13 12  2  0  0  0  0
 13 14  1  0  0  0  0
 14 15  2  0  0  0  0
 14 20  1  0  0  0  0
 15 17  1  0  0  0  0
 16 15  1  0  0  0  0
 17 18  2  0  0  0  0
 19 18  1  0  0  0  0
 20 19  2  0  0  0  0
 21 22  1  6  0  0  0
 21  1  1  0  0  0  0
 23 24  2  0  0  0  0
 23 28  1  0  0  0  0
 24 25  1  0  0  0  0
 25 21  1  0  0  0  0
 25 26  2  0  0  0  0
 27 26  1  0  0  0  0
 27 31  1  0  0  0  0
 28 27  2  0  0  0  0
 29 23  1  0  0  0  0
 30 24  1  0  0  0  0
 32 33  1  0  0  0  0
 32 21  1  0  0  0  0
 34 32  1  0  0  0  0
 35 32  1  0  0  0  0
M  END
>  <minimizedAffinity>
-4.0302124

>  <minimizedRMSD>
7.4568162

$$$$
