
 OpenBabel03262519553D

 33 37  0  0  1  0  0  0  0  0999 V2000
   38.8580   23.2380   33.3090 C   0  0  1  0  0  0  0  0  0  0  0  0
   37.6300   22.5030   33.6040 C   0  0  0  0  0  0  0  0  0  0  0  0
   37.7980   23.0840   32.2280 C   0  0  2  0  0  0  0  0  0  0  0  0
   39.8030   22.6610   33.1920 H   0  0  0  0  0  0  0  0  0  0  0  0
   36.8930   22.9610   34.2780 H   0  0  0  0  0  0  0  0  0  0  0  0
   37.6600   21.4100   33.6560 H   0  0  0  0  0  0  0  0  0  0  0  0
   37.1340   23.9160   31.9830 H   0  0  0  0  0  0  0  0  0  0  0  0
   38.1830   22.2360   31.1250 N   0  0  0  0  0  0  0  0  0  0  0  0
   39.1800   22.4070   30.2420 C   0  0  0  0  0  3  0  0  0  0  0  0
   39.1740   21.3560   29.3710 N   0  0  0  0  0  0  0  0  0  0  0  0
   38.1750   20.5140   29.6960 C   0  0  0  0  0  0  0  0  0  0  0  0
   37.6490   19.3210   29.2400 C   0  0  0  0  0  0  0  0  0  0  0  0
   38.1180   18.8670   28.3780 H   0  0  0  0  0  0  0  0  0  0  0  0
   36.5900   18.7470   29.8490 N   0  0  0  0  0  0  0  0  0  0  0  0
   35.9980   19.3060   30.9250 C   0  0  0  0  0  3  0  0  0  0  0  0
   36.5120   20.4660   31.3650 N   0  0  0  0  0  0  0  0  0  0  0  0
   37.5560   21.0790   30.8040 C   0  0  0  0  0  0  0  0  0  0  0  0
   39.1480   25.1920   34.8870 C   0  0  0  0  0  0  0  0  0  0  0  0
   39.3540   26.5620   34.7830 C   0  0  0  0  0  0  0  0  0  0  0  0
   39.3880   26.7780   33.4350 N   0  0  0  0  0  0  0  0  0  0  0  0
   39.2170   25.6230   32.8290 C   0  0  0  0  0  0  0  0  0  0  0  0
   39.0630   24.6090   33.6870 N   0  0  0  0  0  0  0  0  0  0  0  0
   39.4560   27.2570   35.6180 H   0  0  0  0  0  0  0  0  0  0  0  0
   39.2240   25.6650   31.7470 H   0  0  0  0  0  0  0  0  0  0  0  0
   39.0350   24.4520   36.1510 C   0  0  0  0  0  0  0  0  0  0  0  0
   39.9770   23.4880   36.4960 C   0  0  0  0  0  0  0  0  0  0  0  0
   39.8100   22.8160   37.7210 C   0  0  0  0  0  0  0  0  0  0  0  0
   38.7510   23.1440   38.4910 N   0  0  0  0  0  0  0  0  0  0  0  0
   37.8550   24.0840   38.1320 C   0  0  0  0  0  0  0  0  0  0  0  0
   37.9810   24.7510   36.9600 N   0  0  0  0  0  0  0  0  0  0  0  0
   40.8060   23.2650   35.8400 H   0  0  0  0  0  0  0  0  0  0  0  0
   40.5280   22.0620   38.0110 H   0  0  0  0  0  0  0  0  0  0  0  0
   36.9940   24.3750   38.7210 H   0  0  0  0  0  0  0  0  0  0  0  0
  1  4  1  6  0  0  0
  1  2  1  0  0  0  0
  1 22  1  0  0  0  0
  2  6  1  0  0  0  0
  2  5  1  0  0  0  0
  3  7  1  6  0  0  0
  3  1  1  0  0  0  0
  3  2  1  0  0  0  0
  8  3  1  0  0  0  0
  9  8  1  0  0  0  0
 10 11  1  0  0  0  0
 10  9  2  0  0  0  0
 11 17  1  0  0  0  0
 12 11  2  0  0  0  0
 12 14  1  0  0  0  0
 13 12  1  0  0  0  0
 14 15  2  0  0  0  0
 15 16  1  0  0  0  0
 17  8  1  0  0  0  0
 17 16  2  0  0  0  0
 18 25  1  0  0  0  0
 19 18  2  0  0  0  0
 19 23  1  0  0  0  0
 20 19  1  0  0  0  0
 21 20  2  0  0  0  0
 21 22  1  0  0  0  0
 22 18  1  0  0  0  0
 24 21  1  0  0  0  0
 25 26  2  0  0  0  0
 25 30  1  0  0  0  0
 26 27  1  0  0  0  0
 27 32  1  0  0  0  0
 27 28  2  0  0  0  0
 29 28  1  0  0  0  0
 29 33  1  0  0  0  0
 30 29  2  0  0  0  0
 31 26  1  0  0  0  0
M  END
>  <minimizedAffinity>
-4.49165726

>  <minimizedRMSD>
3.43023968

$$$$
