
 OpenBabel03262519523D

 35 38  0  0  1  0  0  0  0  0999 V2000
   42.0000   23.1710   36.1530 C   0  0  0  0  0  0  0  0  0  0  0  0
   41.7860   23.4690   37.2220 H   0  0  0  0  0  0  0  0  0  0  0  0
   41.9820   22.0660   36.1870 H   0  0  0  0  0  0  0  0  0  0  0  0
   43.4010   23.7290   35.8590 C   0  0  2  0  0  0  0  0  0  0  0  0
   44.5070   22.9420   36.4600 C   0  0  0  0  0  0  0  0  0  0  0  0
   44.2210   24.3760   36.8210 C   0  0  1  0  0  0  0  0  0  0  0  0
   43.5080   23.9050   34.7780 H   0  0  0  0  0  0  0  0  0  0  0  0
   44.2660   22.0750   37.0240 H   0  0  0  0  0  0  0  0  0  0  0  0
   45.4420   22.7870   35.8400 H   0  0  0  0  0  0  0  0  0  0  0  0
   44.4220   24.5220   37.8190 H   0  0  0  0  0  0  0  0  0  0  0  0
   45.1080   25.3870   36.1610 N   0  0  0  0  0  0  0  0  0  0  0  0
   46.3690   25.7090   36.4870 C   0  0  0  0  0  3  0  0  0  0  0  0
   46.7860   26.6640   35.6320 N   0  0  0  0  0  0  0  0  0  0  0  0
   45.8110   26.9530   34.7720 C   0  0  0  0  0  0  0  0  0  0  0  0
   45.5730   27.7860   33.6980 C   0  0  0  0  0  0  0  0  0  0  0  0
   46.4010   28.4440   33.4060 H   0  0  0  0  0  0  0  0  0  0  0  0
   44.4250   27.8400   33.0090 N   0  0  0  0  0  0  0  0  0  0  0  0
   43.4160   27.0390   33.3650 C   0  0  0  0  0  3  0  0  0  0  0  0
   43.5810   26.1930   34.4130 N   0  0  0  0  0  0  0  0  0  0  0  0
   44.7280   26.1350   35.1060 C   0  0  0  0  0  0  0  0  0  0  0  0
   41.0540   23.8580   35.2940 C   0  0  0  0  0  0  0  0  0  0  0  0
   40.8350   23.0560   34.4920 H   0  0  0  0  0  0  0  0  0  0  0  0
   41.5340   24.5790   34.6900 H   0  0  0  0  0  0  0  0  0  0  0  0
   37.8580   25.1830   36.2070 C   0  0  0  0  0  0  0  0  0  0  0  0
   39.1370   25.1590   35.5980 C   0  0  0  0  0  0  0  0  0  0  0  0
   39.7740   24.0220   35.8740 C   0  0  0  0  0  0  0  0  0  0  0  0
   39.2240   23.0160   36.6600 N   0  0  0  0  0  0  0  0  0  0  0  0
   38.0190   23.1060   37.2010 C   0  0  0  0  0  0  0  0  0  0  0  0
   37.3310   24.1990   36.9710 N   0  0  0  0  0  0  0  0  0  0  0  0
   37.1630   26.0370   36.1060 H   0  0  0  0  0  0  0  0  0  0  0  0
   37.6740   22.3020   37.7830 H   0  0  0  0  0  0  0  0  0  0  0  0
   39.4520   26.3120   34.8390 C   0  0  0  0  0  0  0  0  0  0  0  0
   40.6450   26.9390   35.2750 F   0  0  0  0  0  0  0  0  0  0  0  0
   38.7840   27.4700   34.9810 F   0  0  0  0  0  0  0  0  0  0  0  0
   39.9860   26.1410   33.5590 F   0  0  0  0  0  0  0  0  0  0  0  0
  1  3  1  0  0  0  0
  1  2  1  0  0  0  0
  4  7  1  6  0  0  0
  4  1  1  0  0  0  0
  4  5  1  0  0  0  0
  4  6  1  0  0  0  0
  5  6  1  0  0  0  0
  5  8  1  0  0  0  0
  6 10  1  1  0  0  0
  9  5  1  0  0  0  0
 11 12  1  0  0  0  0
 11  6  1  0  0  0  0
 13 12  2  0  0  0  0
 14 20  1  0  0  0  0
 14 13  1  0  0  0  0
 15 14  2  0  0  0  0
 16 15  1  0  0  0  0
 17 18  2  0  0  0  0
 17 15  1  0  0  0  0
 18 19  1  0  0  0  0
 19 20  2  0  0  0  0
 20 11  1  0  0  0  0
 21 26  1  0  0  0  0
 21  1  1  0  0  0  0
 22 21  1  0  0  0  0
 23 21  1  0  0  0  0
 24 29  1  0  0  0  0
 25 26  1  0  0  0  0
 25 24  2  0  0  0  0
 26 27  2  0  0  0  0
 27 28  1  0  0  0  0
 28 31  1  0  0  0  0
 29 28  2  0  0  0  0
 30 24  1  0  0  0  0
 32 34  1  0  0  0  0
 32 33  1  0  0  0  0
 32 25  1  0  0  0  0
 35 32  1  0  0  0  0
M  END
>  <minimizedAffinity>
-4.67165422

>  <minimizedRMSD>
8.16658592

$$$$
