
 OpenBabel03262519153D

 36 40  0  0  0  0  0  0  0  0999 V2000
   35.4790   23.4020   31.5190 C   0  0  0  0  0  0  0  0  0  0  0  0
   36.7260   22.7800   31.2730 C   0  0  0  0  0  0  0  0  0  0  0  0
   37.8450   23.5570   31.0190 C   0  0  0  0  0  0  0  0  0  0  0  0
   37.6710   24.9000   31.0220 N   0  0  0  0  0  0  0  0  0  0  0  0
   36.4340   25.4840   31.2660 C   0  0  0  0  0  0  0  0  0  0  0  0
   35.3750   24.7160   31.5080 N   0  0  0  0  0  0  0  0  0  0  0  0
   34.6390   22.7410   31.7130 H   0  0  0  0  0  0  0  0  0  0  0  0
   38.8270   23.1650   30.8230 H   0  0  0  0  0  0  0  0  0  0  0  0
   36.3840   26.9540   31.2280 C   0  0  0  0  0  0  0  0  0  0  0  0
   37.3230   27.5710   30.4500 C   0  0  0  0  0  0  0  0  0  0  0  0
   36.9170   29.3890   30.6760 S   0  0  0  0  0  0  0  0  0  0  0  0
   35.4810   28.9130   31.8420 C   0  0  0  0  0  0  0  0  0  0  0  0
   35.5760   27.7950   31.8260 N   0  0  0  0  0  0  0  0  0  0  0  0
   38.1630   27.3420   29.7950 H   0  0  0  0  0  0  0  0  0  0  0  0
   34.5140   29.7270   32.5680 N   0  0  0  0  0  0  0  0  0  0  0  0
   33.3480   29.3620   33.1060 C   0  0  0  0  0  0  0  0  0  0  0  0
   32.8610   30.4710   33.6460 N   0  0  0  0  0  0  0  0  0  0  0  0
   33.6730   31.5040   33.4670 C   0  0  0  0  0  0  0  0  0  0  0  0
   33.6450   32.8480   33.8180 C   0  0  0  0  0  0  0  0  0  0  0  0
   32.8010   33.2560   34.3750 H   0  0  0  0  0  0  0  0  0  0  0  0
   34.6690   33.6630   33.4700 N   0  0  0  0  0  0  0  0  0  0  0  0
   35.7310   33.1830   32.7760 C   0  0  0  0  0  0  0  0  0  0  0  0
   35.7850   31.8670   32.4180 N   0  0  0  0  0  0  0  0  0  0  0  0
   34.7720   31.0340   32.7560 C   0  0  0  0  0  0  0  0  0  0  0  0
   36.9340   21.3470   31.2540 C   0  0  0  0  0  0  0  0  0  0  0  0
   36.0990   20.4380   30.6140 C   0  0  0  0  0  0  0  0  0  0  0  0
   36.4430   19.1220   30.6960 C   0  0  0  0  0  0  0  0  0  0  0  0
   37.5890   18.7830   31.4020 C   0  0  0  0  0  0  0  0  0  0  0  0
   38.2280   20.4110   31.9920 S   0  0  0  0  0  0  0  0  0  0  0  0
   35.2120   20.7350   30.0700 H   0  0  0  0  0  0  0  0  0  0  0  0
   35.9250   18.2760   30.2690 H   0  0  0  0  0  0  0  0  0  0  0  0
   38.2510   17.5810   31.7020 C   0  0  0  0  0  0  0  0  0  0  0  0
   39.4790   17.4800   31.5790 O   0  0  0  0  0  0  0  0  0  0  0  0
   37.5190   16.4180   32.1630 N   0  0  0  0  0  0  0  0  0  0  0  0
   37.7090   15.4140   31.9680 H   0  0  0  0  0  0  0  0  0  0  0  0
   36.6870   16.6350   32.7790 H   0  0  0  0  0  0  0  0  0  0  0  0
  1  7  1  0  0  0  0
  2  1  2  0  0  0  0
  3  4  2  0  0  0  0
  3  2  1  0  0  0  0
  4  5  1  0  0  0  0
  5  6  2  0  0  0  0
  6  1  1  0  0  0  0
  8  3  1  0  0  0  0
  9  5  1  0  0  0  0
  9 13  1  0  0  0  0
 10 11  1  0  0  0  0
 10  9  2  0  0  0  0
 11 12  1  0  0  0  0
 12 15  1  0  0  0  0
 13 12  2  0  0  0  0
 14 10  1  0  0  0  0
 15 24  1  0  0  0  0
 15 16  1  0  0  0  0
 16 17  2  0  0  0  0
 18 17  1  0  0  0  0
 18 19  1  0  0  0  0
 19 20  1  0  0  0  0
 21 19  2  0  0  0  0
 22 21  1  0  0  0  0
 23 24  1  0  0  0  0
 23 22  2  0  0  0  0
 24 18  2  0  0  0  0
 25  2  1  0  0  0  0
 25 29  1  0  0  0  0
 26 27  1  0  0  0  0
 26 25  2  0  0  0  0
 27 28  2  0  0  0  0
 28 32  1  0  0  0  0
 28 29  1  0  0  0  0
 30 26  1  0  0  0  0
 31 27  1  0  0  0  0
 32 34  1  0  0  0  0
 33 32  2  0  0  0  0
 34 36  1  0  0  0  0
 35 34  1  0  0  0  0
M  END
>  <minimizedAffinity>
-5.20387983

>  <minimizedRMSD>
12.5665693

$$$$
