
 OpenBabel03262519413D

 42 46  0  0  1  0  0  0  0  0999 V2000
   37.7810   25.2700   34.4170 N   0  0  0  0  0  0  0  0  0  0  0  0
   37.2840   25.3830   33.0610 C   0  0  0  0  0  0  0  0  0  0  0  0
   37.3490   26.8360   32.7340 C   0  0  0  0  0  0  0  0  0  0  0  0
   37.9530   27.4730   33.9730 C   0  0  0  0  0  0  0  0  0  0  0  0
   38.7940   26.2650   34.4890 C   0  0  2  0  0  0  0  0  0  0  0  0
   37.8580   24.7770   32.3300 H   0  0  0  0  0  0  0  0  0  0  0  0
   36.2180   25.0490   33.0010 H   0  0  0  0  0  0  0  0  0  0  0  0
   38.0570   27.0300   31.8990 H   0  0  0  0  0  0  0  0  0  0  0  0
   36.3380   27.2580   32.5020 H   0  0  0  0  0  0  0  0  0  0  0  0
   38.6270   28.2990   33.7390 H   0  0  0  0  0  0  0  0  0  0  0  0
   37.2130   27.6780   34.7590 H   0  0  0  0  0  0  0  0  0  0  0  0
   39.0590   26.4980   35.5390 H   0  0  0  0  0  0  0  0  0  0  0  0
   38.4110   24.0000   34.6420 C   0  0  0  0  0  0  0  0  0  0  0  0
   39.3500   23.8950   34.0720 H   0  0  0  0  0  0  0  0  0  0  0  0
   37.7050   23.2240   34.2760 H   0  0  0  0  0  0  0  0  0  0  0  0
   37.9090   23.8740   38.4000 C   0  0  0  0  0  0  0  0  0  0  0  0
   37.6620   24.1460   37.0510 C   0  0  0  0  0  0  0  0  0  0  0  0
   38.6200   23.7390   36.0990 C   0  0  0  0  0  0  0  0  0  0  0  0
   39.7350   23.1000   36.5580 N   0  0  0  0  0  0  0  0  0  0  0  0
   39.9220   22.8640   37.8700 C   0  0  0  0  0  0  0  0  0  0  0  0
   39.0120   23.2510   38.7710 N   0  0  0  0  0  0  0  0  0  0  0  0
   37.0980   24.2400   39.0150 H   0  0  0  0  0  0  0  0  0  0  0  0
   36.7670   24.6590   36.6740 H   0  0  0  0  0  0  0  0  0  0  0  0
   40.8050   22.3570   38.2410 H   0  0  0  0  0  0  0  0  0  0  0  0
   39.8620   26.0280   33.6880 O   0  0  0  0  0  0  0  0  0  0  0  0
   41.0410   26.5970   34.0810 C   0  0  2  0  0  0  0  0  0  0  0  0
   41.6430   27.5790   33.1150 C   0  0  0  0  0  0  0  0  0  0  0  0
   42.3290   26.2710   33.3970 C   0  0  1  0  0  0  0  0  0  0  0  0
   41.1830   26.6500   35.1650 H   0  0  0  0  0  0  0  0  0  0  0  0
   41.2030   27.6430   32.0820 H   0  0  0  0  0  0  0  0  0  0  0  0
   42.0670   28.5310   33.5000 H   0  0  0  0  0  0  0  0  0  0  0  0
   42.3540   25.4910   32.6000 H   0  0  0  0  0  0  0  0  0  0  0  0
   43.5550   26.4380   34.1520 N   0  0  0  0  0  0  0  0  0  0  0  0
   44.5020   27.3600   33.9000 C   0  0  0  0  0  0  0  0  0  0  0  0
   45.5090   27.2300   34.8020 N   0  0  0  0  0  0  0  0  0  0  0  0
   45.1710   26.2160   35.6160 C   0  0  0  0  0  0  0  0  0  0  0  0
   45.8580   25.6860   36.6960 C   0  0  0  0  0  0  0  0  0  0  0  0
   46.8320   26.0580   37.0430 H   0  0  0  0  0  0  0  0  0  0  0  0
   45.2950   24.6420   37.3680 N   0  0  0  0  0  0  0  0  0  0  0  0
   44.0860   24.1580   36.9600 C   0  0  0  0  0  0  0  0  0  0  0  0
   43.4080   24.6790   35.8970 N   0  0  0  0  0  0  0  0  0  0  0  0
   43.9500   25.7080   35.2230 C   0  0  0  0  0  0  0  0  0  0  0  0
  1  5  1  0  0  0  0
  1 13  1  0  0  0  0
  2  1  1  0  0  0  0
  3  2  1  0  0  0  0
  3  4  1  0  0  0  0
  4  5  1  0  0  0  0
  4 11  1  0  0  0  0
  5 12  1  1  0  0  0
  6  2  1  0  0  0  0
  7  2  1  0  0  0  0
  8  3  1  0  0  0  0
  9  3  1  0  0  0  0
 10  4  1  0  0  0  0
 13 18  1  0  0  0  0
 14 13  1  0  0  0  0
 15 13  1  0  0  0  0
 16 21  1  0  0  0  0
 16 22  1  0  0  0  0
 17 16  2  0  0  0  0
 18 19  2  0  0  0  0
 18 17  1  0  0  0  0
 19 20  1  0  0  0  0
 20 24  1  0  0  0  0
 20 21  2  0  0  0  0
 23 17  1  0  0  0  0
 25 26  1  0  0  0  0
 25  5  1  0  0  0  0
 26 29  1  1  0  0  0
 27 28  1  0  0  0  0
 27 31  1  0  0  0  0
 27 26  1  0  0  0  0
 28 32  1  6  0  0  0
 28 26  1  0  0  0  0
 28 33  1  0  0  0  0
 30 27  1  0  0  0  0
 33 42  1  0  0  0  0
 34 33  1  0  0  0  0
 34 35  2  0  0  0  0
 35 36  1  0  0  0  0
 36 37  1  0  0  0  0
 37 38  1  0  0  0  0
 37 39  2  0  0  0  0
 40 39  1  0  0  0  0
 41 40  2  0  0  0  0
 42 36  2  0  0  0  0
 42 41  1  0  0  0  0
M  END
>  <minimizedAffinity>
-5.15092659

>  <minimizedRMSD>
0.91187644

$$$$
