
 OpenBabel03262519483D

 42 46  0  0  1  0  0  0  0  0999 V2000
   37.4840   25.6500   33.0040 N   0  0  0  0  0  0  0  0  0  0  0  0
   36.9840   24.5840   32.3780 C   0  0  0  0  0  0  0  0  0  0  0  0
   35.9600   24.8750   31.5100 C   0  0  0  0  0  0  0  0  0  0  0  0
   35.8160   26.1980   31.6050 N   0  0  0  0  0  0  0  0  0  0  0  0
   36.7290   26.6640   32.4980 C   0  0  0  0  0  0  0  0  0  0  0  0
   37.3870   23.5760   32.5670 H   0  0  0  0  0  0  0  0  0  0  0  0
   35.4520   24.1110   30.9270 H   0  0  0  0  0  0  0  0  0  0  0  0
   36.8000   28.1450   32.7700 C   0  0  1  0  0  0  0  0  0  0  0  0
   36.2370   29.0610   31.7560 C   0  0  0  0  0  0  0  0  0  0  0  0
   35.4720   28.8420   33.0360 C   0  0  2  0  0  0  0  0  0  0  0  0
   37.6680   28.4580   33.3420 H   0  0  0  0  0  0  0  0  0  0  0  0
   35.7200   28.6070   30.8610 H   0  0  0  0  0  0  0  0  0  0  0  0
   36.6510   30.0530   31.5560 H   0  0  0  0  0  0  0  0  0  0  0  0
   34.6200   28.1620   33.0880 H   0  0  0  0  0  0  0  0  0  0  0  0
   35.5810   29.9350   33.9840 N   0  0  0  0  0  0  0  0  0  0  0  0
   36.1470   30.0490   35.1990 C   0  0  0  0  0  3  0  0  0  0  0  0
   35.9790   31.2860   35.6870 N   0  0  0  0  0  0  0  0  0  0  0  0
   35.2950   31.9990   34.7870 C   0  0  0  0  0  0  0  0  0  0  0  0
   34.8940   33.3040   34.8490 C   0  0  0  0  0  0  0  0  0  0  0  0
   35.1240   33.9210   35.7270 H   0  0  0  0  0  0  0  0  0  0  0  0
   34.2030   33.7810   33.7780 N   0  0  0  0  0  0  0  0  0  0  0  0
   33.9540   32.9650   32.7340 C   0  0  0  0  0  3  0  0  0  0  0  0
   34.3590   31.6850   32.6940 N   0  0  0  0  0  0  0  0  0  0  0  0
   35.0460   31.1540   33.7230 C   0  0  0  0  0  0  0  0  0  0  0  0
   38.4980   25.8720   33.9670 C   0  0  0  0  0  0  0  0  0  0  0  0
   39.0510   26.8290   33.7510 H   0  0  0  0  0  0  0  0  0  0  0  0
   39.2950   25.0820   33.8880 H   0  0  0  0  0  0  0  0  0  0  0  0
   37.9920   25.8810   35.3610 C   0  0  1  0  0  0  0  0  0  0  0  0
   36.8750   25.8010   35.3590 H   0  0  0  0  0  0  0  0  0  0  0  0
   38.5660   23.4380   38.1960 C   0  0  0  0  0  0  0  0  0  0  0  0
   37.9770   24.5100   37.4990 C   0  0  0  0  0  0  0  0  0  0  0  0
   38.5400   24.7840   36.1990 C   0  0  0  0  0  0  0  0  0  0  0  0
   39.5870   24.0200   35.7090 N   0  0  0  0  0  0  0  0  0  0  0  0
   40.0860   23.0210   36.4400 C   0  0  0  0  0  0  0  0  0  0  0  0
   39.5760   22.7240   37.6910 N   0  0  0  0  0  0  0  0  0  0  0  0
   38.1030   23.2860   39.1560 H   0  0  0  0  0  0  0  0  0  0  0  0
   37.1750   25.1230   37.8310 H   0  0  0  0  0  0  0  0  0  0  0  0
   40.9020   22.4150   36.0730 H   0  0  0  0  0  0  0  0  0  0  0  0
   38.2700   27.2310   36.0150 C   0  0  0  0  0  0  0  0  0  0  0  0
   38.5140   27.0170   37.0760 H   0  0  0  0  0  0  0  0  0  0  0  0
   37.3810   27.8860   36.0450 H   0  0  0  0  0  0  0  0  0  0  0  0
   39.1410   27.6770   35.5220 H   0  0  0  0  0  0  0  0  0  0  0  0
  1 25  1  0  0  0  0
  2  6  1  0  0  0  0
  2  1  1  0  0  0  0
  3  4  1  0  0  0  0
  3  2  2  0  0  0  0
  4  5  2  0  0  0  0
  5  8  1  0  0  0  0
  5  1  1  0  0  0  0
  7  3  1  0  0  0  0
  8 10  1  0  0  0  0
  8 11  1  1  0  0  0
  9  8  1  0  0  0  0
  9 10  1  0  0  0  0
 10 14  1  6  0  0  0
 10 15  1  0  0  0  0
 12  9  1  0  0  0  0
 13  9  1  0  0  0  0
 15 16  1  0  0  0  0
 16 17  2  0  0  0  0
 18 19  1  0  0  0  0
 18 17  1  0  0  0  0
 19 20  1  0  0  0  0
 21 19  2  0  0  0  0
 22 21  1  0  0  0  0
 23 22  2  0  0  0  0
 23 24  1  0  0  0  0
 24 15  1  0  0  0  0
 24 18  2  0  0  0  0
 25 28  1  0  0  0  0
 26 25  1  0  0  0  0
 27 25  1  0  0  0  0
 28 29  1  6  0  0  0
 28 39  1  0  0  0  0
 28 32  1  0  0  0  0
 30 36  1  0  0  0  0
 31 37  1  0  0  0  0
 31 30  2  0  0  0  0
 32 31  1  0  0  0  0
 33 32  2  0  0  0  0
 33 34  1  0  0  0  0
 34 35  2  0  0  0  0
 35 30  1  0  0  0  0
 38 34  1  0  0  0  0
 39 41  1  0  0  0  0
 39 40  1  0  0  0  0
 42 39  1  0  0  0  0
M  END
>  <minimizedAffinity>
-5.48891973

>  <minimizedRMSD>
0.896484435

$$$$
