
 OpenBabel03262519563D

 33 37  0  0  1  0  0  0  0  0999 V2000
   37.1440   21.4160   34.0020 C   0  0  1  0  0  0  0  0  0  0  0  0
   35.9400   21.0960   34.7650 C   0  0  0  0  0  0  0  0  0  0  0  0
   35.8740   21.0180   33.2650 C   0  0  2  0  0  0  0  0  0  0  0  0
   37.9850   20.6860   34.0130 H   0  0  0  0  0  0  0  0  0  0  0  0
   35.4050   21.9110   35.2700 H   0  0  0  0  0  0  0  0  0  0  0  0
   35.8750   20.1340   35.2840 H   0  0  0  0  0  0  0  0  0  0  0  0
   35.2560   21.7780   32.7810 H   0  0  0  0  0  0  0  0  0  0  0  0
   35.9390   19.7380   32.6020 N   0  0  0  0  0  0  0  0  0  0  0  0
   35.3810   18.5720   32.9680 C   0  0  0  0  0  3  0  0  0  0  0  0
   35.7060   17.6260   32.0410 N   0  0  0  0  0  0  0  0  0  0  0  0
   36.4700   18.1830   31.0830 C   0  0  0  0  0  0  0  0  0  0  0  0
   37.1010   17.7920   29.9180 C   0  0  0  0  0  0  0  0  0  0  0  0
   37.0020   16.7590   29.6200 H   0  0  0  0  0  0  0  0  0  0  0  0
   37.8140   18.6720   29.1830 N   0  0  0  0  0  0  0  0  0  0  0  0
   37.9440   19.9650   29.5470 C   0  0  0  0  0  3  0  0  0  0  0  0
   37.3280   20.3390   30.6800 N   0  0  0  0  0  0  0  0  0  0  0  0
   36.6100   19.5150   31.4480 C   0  0  0  0  0  0  0  0  0  0  0  0
   38.1180   23.7000   34.4730 C   0  0  0  0  0  0  0  0  0  0  0  0
   38.3450   24.8760   33.7660 C   0  0  0  0  0  0  0  0  0  0  0  0
   37.8780   24.5900   32.5150 N   0  0  0  0  0  0  0  0  0  0  0  0
   37.4260   23.3550   32.5160 C   0  0  0  0  0  0  0  0  0  0  0  0
   37.5530   22.7620   33.7080 N   0  0  0  0  0  0  0  0  0  0  0  0
   38.7950   25.7850   34.1680 H   0  0  0  0  0  0  0  0  0  0  0  0
   37.0260   23.0100   31.5710 H   0  0  0  0  0  0  0  0  0  0  0  0
   38.4520   23.4930   35.8890 C   0  0  0  0  0  0  0  0  0  0  0  0
   39.6620   22.9140   36.2550 C   0  0  0  0  0  0  0  0  0  0  0  0
   39.9200   22.7440   37.6270 C   0  0  0  0  0  0  0  0  0  0  0  0
   38.9820   23.1510   38.5090 N   0  0  0  0  0  0  0  0  0  0  0  0
   37.8180   23.7100   38.1250 C   0  0  0  0  0  0  0  0  0  0  0  0
   37.5340   23.8900   36.8130 N   0  0  0  0  0  0  0  0  0  0  0  0
   40.3770   22.6060   35.5050 H   0  0  0  0  0  0  0  0  0  0  0  0
   40.8540   22.2960   37.9380 H   0  0  0  0  0  0  0  0  0  0  0  0
   37.0430   24.0490   38.8000 H   0  0  0  0  0  0  0  0  0  0  0  0
  1  4  1  1  0  0  0
  1  2  1  0  0  0  0
  2  5  1  0  0  0  0
  2  6  1  0  0  0  0
  3  7  1  6  0  0  0
  3  1  1  0  0  0  0
  3  2  1  0  0  0  0
  8  9  1  0  0  0  0
  8  3  1  0  0  0  0
 10  9  2  0  0  0  0
 11 17  1  0  0  0  0
 11 10  1  0  0  0  0
 12 11  2  0  0  0  0
 13 12  1  0  0  0  0
 14 15  2  0  0  0  0
 14 12  1  0  0  0  0
 15 16  1  0  0  0  0
 16 17  2  0  0  0  0
 17  8  1  0  0  0  0
 18 25  1  0  0  0  0
 19 23  1  0  0  0  0
 19 18  2  0  0  0  0
 20 21  2  0  0  0  0
 20 19  1  0  0  0  0
 21 22  1  0  0  0  0
 22  1  1  0  0  0  0
 22 18  1  0  0  0  0
 24 21  1  0  0  0  0
 25 26  2  0  0  0  0
 25 30  1  0  0  0  0
 26 27  1  0  0  0  0
 27 32  1  0  0  0  0
 27 28  2  0  0  0  0
 29 28  1  0  0  0  0
 29 33  1  0  0  0  0
 30 29  2  0  0  0  0
 31 26  1  0  0  0  0
M  END
>  <minimizedAffinity>
-5.02794504

>  <minimizedRMSD>
0.982126653

$$$$
