
 OpenBabel03262519393D

 28 30  0  0  1  0  0  0  0  0999 V2000
   37.6460   25.3530   34.3430 N   0  0  0  0  0  0  0  0  0  0  0  0
   37.1110   25.4070   33.0190 C   0  0  0  0  0  0  0  0  0  0  0  0
   36.8430   26.8540   32.7400 C   0  0  0  0  0  0  0  0  0  0  0  0
   37.3010   27.5750   34.0120 C   0  0  0  0  0  0  0  0  0  0  0  0
   38.3970   26.5880   34.4600 C   0  0  2  0  0  0  0  0  0  0  0  0
   36.2120   24.7620   32.8760 H   0  0  0  0  0  0  0  0  0  0  0  0
   37.8480   25.0550   32.2650 H   0  0  0  0  0  0  0  0  0  0  0  0
   37.4520   27.2580   31.8990 H   0  0  0  0  0  0  0  0  0  0  0  0
   35.7670   26.9940   32.5960 H   0  0  0  0  0  0  0  0  0  0  0  0
   36.5120   27.5770   34.7730 H   0  0  0  0  0  0  0  0  0  0  0  0
   37.7130   28.5600   33.7720 H   0  0  0  0  0  0  0  0  0  0  0  0
   38.5900   26.7530   35.5360 H   0  0  0  0  0  0  0  0  0  0  0  0
   38.5540   24.2780   34.5640 C   0  0  0  0  0  0  0  0  0  0  0  0
   39.5610   24.4540   34.1280 H   0  0  0  0  0  0  0  0  0  0  0  0
   38.1610   23.3610   34.0550 H   0  0  0  0  0  0  0  0  0  0  0  0
   37.8570   23.8960   38.2600 C   0  0  0  0  0  0  0  0  0  0  0  0
   37.6800   24.2700   36.9280 C   0  0  0  0  0  0  0  0  0  0  0  0
   38.6770   23.9120   36.0010 C   0  0  0  0  0  0  0  0  0  0  0  0
   39.7540   23.2200   36.4800 N   0  0  0  0  0  0  0  0  0  0  0  0
   39.8790   22.8830   37.7680 C   0  0  0  0  0  0  0  0  0  0  0  0
   38.9210   23.2270   38.6510 N   0  0  0  0  0  0  0  0  0  0  0  0
   37.0380   24.2130   38.9070 H   0  0  0  0  0  0  0  0  0  0  0  0
   36.8090   24.8180   36.5950 H   0  0  0  0  0  0  0  0  0  0  0  0
   40.7690   22.3340   38.0470 H   0  0  0  0  0  0  0  0  0  0  0  0
   39.4840   26.6260   33.6450 O   0  0  0  0  0  0  0  0  0  0  0  0
   40.6130   27.1670   34.1840 C   0  0  0  0  0  0  0  0  0  0  0  0
   41.7040   27.4830   33.1440 C   0  0  0  0  0  0  0  0  0  0  0  0
   41.9090   26.4690   34.2450 C   0  0  0  0  0  0  0  0  0  0  0  0
  1  5  1  0  0  0  0
  1 13  1  0  0  0  0
  2  1  1  0  0  0  0
  3  2  1  0  0  0  0
  3  4  1  0  0  0  0
  4  5  1  0  0  0  0
  4 10  1  0  0  0  0
  5 12  1  1  0  0  0
  6  2  1  0  0  0  0
  7  2  1  0  0  0  0
  8  3  1  0  0  0  0
  9  3  1  0  0  0  0
 11  4  1  0  0  0  0
 13 18  1  0  0  0  0
 14 13  1  0  0  0  0
 15 13  1  0  0  0  0
 16 21  1  0  0  0  0
 16 22  1  0  0  0  0
 17 16  2  0  0  0  0
 18 19  2  0  0  0  0
 18 17  1  0  0  0  0
 19 20  1  0  0  0  0
 20 24  1  0  0  0  0
 20 21  2  0  0  0  0
 23 17  1  0  0  0  0
 25 26  1  0  0  0  0
 25  5  1  0  0  0  0
 26 28  1  0  0  0  0
 27 26  1  0  0  0  0
 27 28  1  0  0  0  0
M  END
>  <minimizedAffinity>
-3.99216914

>  <minimizedRMSD>
0.528365433

$$$$
