
 OpenBabel03262520003D

 28 30  0  0  1  0  0  0  0  0999 V2000
   37.6430   23.6840   33.0170 C   0  0  0  0  0  0  0  0  0  0  0  0
   36.7400   22.8200   32.3990 C   0  0  0  0  0  0  0  0  0  0  0  0
   36.9660   21.6230   33.0140 N   0  0  0  0  0  0  0  0  0  0  0  0
   37.9300   21.8030   33.9150 C   0  0  0  0  0  0  0  0  0  0  0  0
   38.3610   23.0590   33.9370 N   0  0  0  0  0  0  0  0  0  0  0  0
   36.0320   23.0950   31.6050 H   0  0  0  0  0  0  0  0  0  0  0  0
   38.2790   20.9650   34.5350 H   0  0  0  0  0  0  0  0  0  0  0  0
   37.7900   25.0950   32.6900 C   0  0  0  0  0  0  0  0  0  0  0  0
   38.7560   25.4890   31.7390 C   0  0  0  0  0  0  0  0  0  0  0  0
   38.8620   26.8650   31.4440 C   0  0  0  0  0  0  0  0  0  0  0  0
   38.0270   27.7150   32.0990 N   0  0  0  0  0  0  0  0  0  0  0  0
   37.1150   27.2950   33.0040 C   0  0  0  0  0  0  0  0  0  0  0  0
   36.9950   25.9890   33.3010 N   0  0  0  0  0  0  0  0  0  0  0  0
   39.3880   24.7610   31.2550 H   0  0  0  0  0  0  0  0  0  0  0  0
   39.5930   27.1970   30.7200 H   0  0  0  0  0  0  0  0  0  0  0  0
   36.5300   28.0870   33.4350 H   0  0  0  0  0  0  0  0  0  0  0  0
   39.3830   23.5120   34.8080 C   0  0  1  0  0  0  0  0  0  0  0  0
   39.3300   24.6620   35.6690 C   0  0  0  0  0  0  0  0  0  0  0  0
   39.1350   23.2360   36.2580 C   0  0  2  0  0  0  0  0  0  0  0  0
   40.4110   23.1740   34.4280 H   0  0  0  0  0  0  0  0  0  0  0  0
   38.5110   25.3780   35.7110 H   0  0  0  0  0  0  0  0  0  0  0  0
   40.3110   25.1490   35.9130 H   0  0  0  0  0  0  0  0  0  0  0  0
   40.3300   22.8300   37.0980 C   0  0  0  0  0  0  0  0  0  0  0  0
   40.0690   23.0640   38.4330 F   0  0  0  0  0  0  0  0  0  0  0  0
   40.4610   21.3820   37.0180 F   0  0  0  0  0  0  0  0  0  0  0  0
   41.4980   23.3340   36.6710 F   0  0  0  0  0  0  0  0  0  0  0  0
   37.5200   23.2880   37.0920 S   0  0  0  0  0  0  0  0  0  0  0  0
   36.6600   24.0560   36.2840 H   0  0  0  0  0  0  0  0  0  0  0  0
  1  5  1  0  0  0  0
  2  3  1  0  0  0  0
  2  1  2  0  0  0  0
  3  4  2  0  0  0  0
  4  5  1  0  0  0  0
  4  7  1  0  0  0  0
  5 17  1  0  0  0  0
  6  2  1  0  0  0  0
  8  1  1  0  0  0  0
  8 13  1  0  0  0  0
  9  8  2  0  0  0  0
 10  9  1  0  0  0  0
 10 11  2  0  0  0  0
 11 12  1  0  0  0  0
 12 13  2  0  0  0  0
 12 16  1  0  0  0  0
 14  9  1  0  0  0  0
 15 10  1  0  0  0  0
 17 20  1  6  0  0  0
 17 18  1  0  0  0  0
 17 19  1  0  0  0  0
 18 21  1  0  0  0  0
 18 22  1  0  0  0  0
 18 19  1  0  0  0  0
 19 27  1  1  0  0  0
 19 23  1  0  0  0  0
 23 24  1  0  0  0  0
 25 23  1  0  0  0  0
 26 23  1  0  0  0  0
 28 27  1  0  0  0  0
M  END
>  <minimizedAffinity>
-4.38687372

>  <minimizedRMSD>
1.75314724

$$$$
