
 OpenBabel03262519343D

 18 19  0  0  0  0  0  0  0  0999 V2000
   40.7450   22.1060   37.5760 C   0  0  0  0  0  0  0  0  0  0  0  0
   39.6680   22.9590   37.8270 C   0  0  0  0  0  0  0  0  0  0  0  0
   38.9810   23.5090   36.7300 C   0  0  0  0  0  0  0  0  0  0  0  0
   39.4270   23.1610   35.4760 N   0  0  0  0  0  0  0  0  0  0  0  0
   40.4680   22.3370   35.2750 C   0  0  0  0  0  0  0  0  0  0  0  0
   41.1230   21.8130   36.3300 N   0  0  0  0  0  0  0  0  0  0  0  0
   41.2920   21.6680   38.4030 H   0  0  0  0  0  0  0  0  0  0  0  0
   39.3570   23.2000   38.8360 H   0  0  0  0  0  0  0  0  0  0  0  0
   40.6520   22.1960   34.2170 H   0  0  0  0  0  0  0  0  0  0  0  0
   37.8210   24.4270   36.9180 C   0  0  0  0  0  0  0  0  0  0  0  0
   37.8160   24.6830   38.0130 H   0  0  0  0  0  0  0  0  0  0  0  0
   36.9180   23.8240   36.7410 H   0  0  0  0  0  0  0  0  0  0  0  0
   37.8890   25.6420   36.0870 C   0  0  0  0  0  0  0  0  0  0  0  0
   37.5100   25.8370   34.7730 C   0  0  0  0  0  0  0  0  0  0  0  0
   37.7800   27.1410   34.4780 N   0  0  0  0  0  0  0  0  0  0  0  0
   38.3050   27.7090   35.5840 C   0  0  0  0  0  0  0  0  0  0  0  0
   38.3760   26.8010   36.5720 N   0  0  0  0  0  0  0  0  0  0  0  0
   38.7710   27.1180   37.4970 H   0  0  0  0  0  0  0  0  0  0  0  0
  1  2  1  0  0  0  0
  1  7  1  0  0  0  0
  2  8  1  0  0  0  0
  3 10  1  0  0  0  0
  3  2  2  0  0  0  0
  4  3  1  0  0  0  0
  5  4  2  0  0  0  0
  5  6  1  0  0  0  0
  6  1  2  0  0  0  0
  9  5  1  0  0  0  0
 10 11  1  0  0  0  0
 12 10  1  0  0  0  0
 13 17  1  0  0  0  0
 13 10  1  0  0  0  0
 14 13  2  0  0  0  0
 15 14  1  0  0  0  0
 15 16  2  0  0  0  0
 16 17  1  0  0  0  0
 17 18  1  0  0  0  0
M  END
>  <minimizedAffinity>
-3.42229152

>  <minimizedRMSD>
2.13864923

$$$$
