
 OpenBabel03262519593D

 28 30  0  0  1  0  0  0  0  0999 V2000
   37.6430   23.6850   33.0180 C   0  0  0  0  0  0  0  0  0  0  0  0
   36.7390   22.8210   32.4000 C   0  0  0  0  0  0  0  0  0  0  0  0
   36.9650   21.6240   33.0150 N   0  0  0  0  0  0  0  0  0  0  0  0
   37.9300   21.8040   33.9160 C   0  0  0  0  0  0  0  0  0  0  0  0
   38.3610   23.0590   33.9370 N   0  0  0  0  0  0  0  0  0  0  0  0
   36.0300   23.0960   31.6060 H   0  0  0  0  0  0  0  0  0  0  0  0
   38.2780   20.9650   34.5350 H   0  0  0  0  0  0  0  0  0  0  0  0
   37.7900   25.0950   32.6900 C   0  0  0  0  0  0  0  0  0  0  0  0
   38.7560   25.4890   31.7390 C   0  0  0  0  0  0  0  0  0  0  0  0
   38.8620   26.8650   31.4450 C   0  0  0  0  0  0  0  0  0  0  0  0
   38.0280   27.7160   32.0990 N   0  0  0  0  0  0  0  0  0  0  0  0
   37.1150   27.2960   33.0040 C   0  0  0  0  0  0  0  0  0  0  0  0
   36.9950   25.9900   33.3010 N   0  0  0  0  0  0  0  0  0  0  0  0
   39.3880   24.7610   31.2560 H   0  0  0  0  0  0  0  0  0  0  0  0
   39.5930   27.1960   30.7210 H   0  0  0  0  0  0  0  0  0  0  0  0
   36.5310   28.0880   33.4350 H   0  0  0  0  0  0  0  0  0  0  0  0
   39.3830   23.5120   34.8080 C   0  0  1  0  0  0  0  0  0  0  0  0
   39.3310   24.6620   35.6680 C   0  0  0  0  0  0  0  0  0  0  0  0
   39.1360   23.2370   36.2590 C   0  0  2  0  0  0  0  0  0  0  0  0
   40.4110   23.1730   34.4280 H   0  0  0  0  0  0  0  0  0  0  0  0
   38.5130   25.3780   35.7110 H   0  0  0  0  0  0  0  0  0  0  0  0
   40.3120   25.1490   35.9130 H   0  0  0  0  0  0  0  0  0  0  0  0
   40.3300   22.8300   37.0980 C   0  0  0  0  0  0  0  0  0  0  0  0
   40.0690   23.0650   38.4340 F   0  0  0  0  0  0  0  0  0  0  0  0
   40.4610   21.3830   37.0180 F   0  0  0  0  0  0  0  0  0  0  0  0
   41.4980   23.3340   36.6710 F   0  0  0  0  0  0  0  0  0  0  0  0
   37.5210   23.2900   37.0920 S   0  0  0  0  0  0  0  0  0  0  0  0
   37.5270   22.2830   38.0770 H   0  0  0  0  0  0  0  0  0  0  0  0
  1  5  1  0  0  0  0
  2  3  1  0  0  0  0
  2  1  2  0  0  0  0
  3  4  2  0  0  0  0
  4  5  1  0  0  0  0
  4  7  1  0  0  0  0
  5 17  1  0  0  0  0
  6  2  1  0  0  0  0
  8  1  1  0  0  0  0
  8 13  1  0  0  0  0
  9  8  2  0  0  0  0
 10  9  1  0  0  0  0
 10 11  2  0  0  0  0
 11 12  1  0  0  0  0
 12 13  2  0  0  0  0
 12 16  1  0  0  0  0
 14  9  1  0  0  0  0
 15 10  1  0  0  0  0
 17 20  1  6  0  0  0
 17 18  1  0  0  0  0
 17 19  1  0  0  0  0
 18 21  1  0  0  0  0
 18 22  1  0  0  0  0
 18 19  1  0  0  0  0
 19 27  1  1  0  0  0
 19 23  1  0  0  0  0
 23 24  1  0  0  0  0
 25 23  1  0  0  0  0
 26 23  1  0  0  0  0
 27 28  1  0  0  0  0
M  END
>  <minimizedAffinity>
-4.38658857

>  <minimizedRMSD>
1.75312364

$$$$
