
 OpenBabel03262519153D

 28 30  0  0  0  0  0  0  0  0999 V2000
   39.0080   23.3920   36.1360 C   0  0  0  0  0  0  0  0  0  0  0  0
   39.4270   24.5210   35.4310 C   0  0  0  0  0  0  0  0  0  0  0  0
   40.7280   24.5660   34.9100 C   0  0  0  0  0  0  0  0  0  0  0  0
   41.5060   23.4740   35.1390 N   0  0  0  0  0  0  0  0  0  0  0  0
   41.0480   22.3740   35.8440 C   0  0  0  0  0  0  0  0  0  0  0  0
   39.8130   22.3700   36.3200 N   0  0  0  0  0  0  0  0  0  0  0  0
   37.9840   23.4660   36.4920 H   0  0  0  0  0  0  0  0  0  0  0  0
   41.1400   25.3940   34.3530 H   0  0  0  0  0  0  0  0  0  0  0  0
   38.6180   25.6950   35.1780 C   0  0  0  0  0  0  0  0  0  0  0  0
   38.6040   26.8320   35.9790 C   0  0  0  0  0  0  0  0  0  0  0  0
   37.7840   27.8390   35.5860 C   0  0  0  0  0  0  0  0  0  0  0  0
   37.0240   27.6810   34.4350 C   0  0  0  0  0  0  0  0  0  0  0  0
   37.4880   25.9730   33.8330 S   0  0  0  0  0  0  0  0  0  0  0  0
   39.2030   26.9330   36.8720 H   0  0  0  0  0  0  0  0  0  0  0  0
   37.6290   28.7940   36.0660 H   0  0  0  0  0  0  0  0  0  0  0  0
   36.0950   28.4630   33.7280 C   0  0  0  0  0  0  0  0  0  0  0  0
   35.8660   28.2620   32.5270 O   0  0  0  0  0  0  0  0  0  0  0  0
   35.3760   29.5330   34.3940 N   0  0  0  0  0  0  0  0  0  0  0  0
   35.7790   30.0800   35.1850 H   0  0  0  0  0  0  0  0  0  0  0  0
   34.4030   29.8150   34.1100 H   0  0  0  0  0  0  0  0  0  0  0  0
   42.0080   21.2710   36.0050 C   0  0  0  0  0  0  0  0  0  0  0  0
   42.2490   20.8620   37.2890 C   0  0  0  0  0  0  0  0  0  0  0  0
   43.4970   19.4710   37.0470 S   0  0  0  0  0  0  0  0  0  0  0  0
   43.4230   19.7520   35.1720 C   0  0  0  0  0  0  0  0  0  0  0  0
   42.6870   20.5940   35.1110 N   0  0  0  0  0  0  0  0  0  0  0  0
   41.9640   21.0760   38.3300 H   0  0  0  0  0  0  0  0  0  0  0  0
   44.3110   18.8860   33.8330 S   0  0  0  0  0  0  0  0  0  0  0  0
   44.1080   17.5030   34.1180 H   0  0  0  0  0  0  0  0  0  0  0  0
  1  6  1  0  0  0  0
  1  7  1  0  0  0  0
  2  1  2  0  0  0  0
  3  4  2  0  0  0  0
  3  2  1  0  0  0  0
  4  5  1  0  0  0  0
  5 21  1  0  0  0  0
  5  6  2  0  0  0  0
  8  3  1  0  0  0  0
  9  2  1  0  0  0  0
  9 10  2  0  0  0  0
 10 14  1  0  0  0  0
 11 10  1  0  0  0  0
 11 15  1  0  0  0  0
 12 11  2  0  0  0  0
 13 12  1  0  0  0  0
 13  9  1  0  0  0  0
 16 18  1  0  0  0  0
 16 12  1  0  0  0  0
 17 16  2  0  0  0  0
 18 19  1  0  0  0  0
 20 18  1  0  0  0  0
 21 22  2  0  0  0  0
 22 26  1  0  0  0  0
 23 22  1  0  0  0  0
 24 23  1  0  0  0  0
 25 24  2  0  0  0  0
 25 21  1  0  0  0  0
 27 28  1  0  0  0  0
 27 24  1  0  0  0  0
M  END
>  <minimizedAffinity>
-4.30579901

>  <minimizedRMSD>
1.6865977

$$$$
