
 OpenBabel03262519593D

 28 30  0  0  1  0  0  0  0  0999 V2000
   38.1130   23.6400   33.3060 C   0  0  0  0  0  0  0  0  0  0  0  0
   37.2030   22.6950   32.8320 C   0  0  0  0  0  0  0  0  0  0  0  0
   37.8380   21.5050   33.0330 N   0  0  0  0  0  0  0  0  0  0  0  0
   39.0240   21.7630   33.5820 C   0  0  0  0  0  0  0  0  0  0  0  0
   39.2160   23.0640   33.7600 N   0  0  0  0  0  0  0  0  0  0  0  0
   36.2150   22.9170   32.4040 H   0  0  0  0  0  0  0  0  0  0  0  0
   39.7130   20.9440   33.8330 H   0  0  0  0  0  0  0  0  0  0  0  0
   37.8900   25.0780   33.2960 C   0  0  0  0  0  0  0  0  0  0  0  0
   38.2760   25.8310   32.1660 C   0  0  0  0  0  0  0  0  0  0  0  0
   38.0360   27.2210   32.1930 C   0  0  0  0  0  0  0  0  0  0  0  0
   37.4500   27.7380   33.3060 N   0  0  0  0  0  0  0  0  0  0  0  0
   37.0960   26.9790   34.3680 C   0  0  0  0  0  0  0  0  0  0  0  0
   37.3140   25.6530   34.3650 N   0  0  0  0  0  0  0  0  0  0  0  0
   38.7370   25.3570   31.3140 H   0  0  0  0  0  0  0  0  0  0  0  0
   38.3210   27.8250   31.3430 H   0  0  0  0  0  0  0  0  0  0  0  0
   36.6440   27.5340   35.1700 H   0  0  0  0  0  0  0  0  0  0  0  0
   40.3970   23.6020   34.3290 C   0  0  1  0  0  0  0  0  0  0  0  0
   40.4860   24.7230   35.2240 C   0  0  0  0  0  0  0  0  0  0  0  0
   40.6010   23.2740   35.7750 C   0  0  2  0  0  0  0  0  0  0  0  0
   41.3010   23.3790   33.6580 H   0  0  0  0  0  0  0  0  0  0  0  0
   39.6510   25.3500   35.5310 H   0  0  0  0  0  0  0  0  0  0  0  0
   41.4470   25.3040   35.2050 H   0  0  0  0  0  0  0  0  0  0  0  0
   42.0170   22.9750   36.2230 C   0  0  0  0  0  0  0  0  0  0  0  0
   42.0050   22.0340   37.2330 F   0  0  0  0  0  0  0  0  0  0  0  0
   42.7000   22.3010   35.1280 F   0  0  0  0  0  0  0  0  0  0  0  0
   42.7460   24.0670   36.5000 F   0  0  0  0  0  0  0  0  0  0  0  0
   39.2930   23.1430   37.0320 S   0  0  0  0  0  0  0  0  0  0  0  0
   39.9280   23.0520   38.2850 H   0  0  0  0  0  0  0  0  0  0  0  0
  1  5  1  0  0  0  0
  2  3  1  0  0  0  0
  2  1  2  0  0  0  0
  3  4  2  0  0  0  0
  4  5  1  0  0  0  0
  4  7  1  0  0  0  0
  5 17  1  0  0  0  0
  6  2  1  0  0  0  0
  8  1  1  0  0  0  0
  8 13  1  0  0  0  0
  9 10  1  0  0  0  0
  9  8  2  0  0  0  0
 10 11  2  0  0  0  0
 11 12  1  0  0  0  0
 12 16  1  0  0  0  0
 13 12  2  0  0  0  0
 14  9  1  0  0  0  0
 15 10  1  0  0  0  0
 17 20  1  6  0  0  0
 17 18  1  0  0  0  0
 17 19  1  0  0  0  0
 18 21  1  0  0  0  0
 18 19  1  0  0  0  0
 19 23  1  0  0  0  0
 19 27  1  1  0  0  0
 22 18  1  0  0  0  0
 23 26  1  0  0  0  0
 23 24  1  0  0  0  0
 25 23  1  0  0  0  0
 27 28  1  0  0  0  0
M  END
>  <minimizedAffinity>
-3.62862253

>  <minimizedRMSD>
2.79660869

$$$$
