
 OpenBabel03262516103D

 25 27  0  0  0  0  0  0  0  0999 V2000
   40.9870   22.4530   37.0860 C   0  0  0  0  0  0  0  0  0  0  0  0
   41.9030   23.4350   36.7430 C   0  0  0  0  0  0  0  0  0  0  0  0
   43.2330   23.0610   36.4680 C   0  0  0  0  0  0  0  0  0  0  0  0
   43.5260   21.7140   36.5630 N   0  0  0  0  0  0  0  0  0  0  0  0
   42.6050   20.7900   36.8990 C   0  0  0  0  0  0  0  0  0  0  0  0
   41.3340   21.1820   37.1580 N   0  0  0  0  0  0  0  0  0  0  0  0
   41.6720   24.5000   36.6680 H   0  0  0  0  0  0  0  0  0  0  0  0
   42.8670   19.7480   36.9640 H   0  0  0  0  0  0  0  0  0  0  0  0
   39.6220   22.8860   37.3630 C   0  0  0  0  0  0  0  0  0  0  0  0
   38.5890   22.9390   36.4430 C   0  0  0  0  0  0  0  0  0  0  0  0
   37.4990   23.3990   37.1350 C   0  0  0  0  0  0  0  0  0  0  0  0
   37.8790   23.6130   38.4340 C   0  0  0  0  0  0  0  0  0  0  0  0
   39.1620   23.2930   38.5300 O   0  0  0  0  0  0  0  0  0  0  0  0
   38.5740   22.6910   35.4110 H   0  0  0  0  0  0  0  0  0  0  0  0
   36.4820   23.6060   36.8650 H   0  0  0  0  0  0  0  0  0  0  0  0
   37.4450   23.9570   39.3690 H   0  0  0  0  0  0  0  0  0  0  0  0
   44.2540   24.0680   36.0990 C   0  0  0  0  0  0  0  0  0  0  0  0
   44.3800   24.7130   37.0160 H   0  0  0  0  0  0  0  0  0  0  0  0
   45.2530   23.6550   35.9090 H   0  0  0  0  0  0  0  0  0  0  0  0
   43.7850   25.0010   35.0410 C   0  0  0  0  0  0  0  0  0  0  0  0
   43.6730   24.6620   33.7200 C   0  0  0  0  0  0  0  0  0  0  0  0
   43.2210   25.7320   33.0290 N   0  0  0  0  0  0  0  0  0  0  0  0
   43.0460   26.7450   33.9120 C   0  0  0  0  0  0  0  0  0  0  0  0
   43.3910   26.2960   35.1410 N   0  0  0  0  0  0  0  0  0  0  0  0
   43.3760   26.8210   36.0580 H   0  0  0  0  0  0  0  0  0  0  0  0
  1  6  1  0  0  0  0
  1  9  1  0  0  0  0
  2  1  2  0  0  0  0
  3  4  2  0  0  0  0
  3  2  1  0  0  0  0
  4  5  1  0  0  0  0
  5  8  1  0  0  0  0
  5  6  2  0  0  0  0
  7  2  1  0  0  0  0
  9 13  1  0  0  0  0
 10 11  1  0  0  0  0
 10  9  2  0  0  0  0
 11 12  2  0  0  0  0
 12 13  1  0  0  0  0
 12 16  1  0  0  0  0
 14 10  1  0  0  0  0
 15 11  1  0  0  0  0
 17  3  1  0  0  0  0
 17 18  1  0  0  0  0
 19 17  1  0  0  0  0
 20 24  1  0  0  0  0
 20 17  1  0  0  0  0
 21 20  2  0  0  0  0
 22 21  1  0  0  0  0
 22 23  2  0  0  0  0
 23 24  1  0  0  0  0
 24 25  1  0  0  0  0
M  END
>  <minimizedAffinity>
-4.05544949

>  <minimizedRMSD>
1.71364224

$$$$
