
 OpenBabel03262519393D

 31 33  0  0  1  0  0  0  0  0999 V2000
   37.7970   25.4630   34.3030 N   0  0  0  0  0  0  0  0  0  0  0  0
   37.0930   25.3400   33.0520 C   0  0  0  0  0  0  0  0  0  0  0  0
   36.8220   26.7430   32.5930 C   0  0  0  0  0  0  0  0  0  0  0  0
   37.4530   27.6160   33.6620 C   0  0  0  0  0  0  0  0  0  0  0  0
   38.5830   26.6480   34.1280 C   0  0  2  0  0  0  0  0  0  0  0  0
   37.7640   24.8420   32.3180 H   0  0  0  0  0  0  0  0  0  0  0  0
   36.1820   24.7200   33.1000 H   0  0  0  0  0  0  0  0  0  0  0  0
   37.3120   26.9480   31.6110 H   0  0  0  0  0  0  0  0  0  0  0  0
   35.7200   26.8910   32.5370 H   0  0  0  0  0  0  0  0  0  0  0  0
   37.8930   28.5160   33.2130 H   0  0  0  0  0  0  0  0  0  0  0  0
   36.7830   27.7730   34.5080 H   0  0  0  0  0  0  0  0  0  0  0  0
   38.9060   27.0380   35.1170 H   0  0  0  0  0  0  0  0  0  0  0  0
   38.6940   24.3940   34.5570 C   0  0  0  0  0  0  0  0  0  0  0  0
   38.3270   23.4770   34.0140 H   0  0  0  0  0  0  0  0  0  0  0  0
   39.7370   24.5360   34.2380 H   0  0  0  0  0  0  0  0  0  0  0  0
   37.9300   24.1760   38.2680 C   0  0  0  0  0  0  0  0  0  0  0  0
   37.8350   24.5460   36.9210 C   0  0  0  0  0  0  0  0  0  0  0  0
   38.7490   24.0300   36.0100 C   0  0  0  0  0  0  0  0  0  0  0  0
   39.7180   23.1660   36.4850 N   0  0  0  0  0  0  0  0  0  0  0  0
   39.7780   22.8340   37.7800 C   0  0  0  0  0  0  0  0  0  0  0  0
   38.8900   23.3380   38.6560 N   0  0  0  0  0  0  0  0  0  0  0  0
   37.2140   24.5820   38.9690 H   0  0  0  0  0  0  0  0  0  0  0  0
   37.0830   25.2210   36.5350 H   0  0  0  0  0  0  0  0  0  0  0  0
   40.5860   22.1500   38.0130 H   0  0  0  0  0  0  0  0  0  0  0  0
   39.5540   26.5500   33.1910 O   0  0  0  0  0  0  0  0  0  0  0  0
   40.7530   27.1250   33.4110 C   0  0  0  0  0  0  0  0  0  0  0  0
   41.7970   26.3730   34.1450 C   0  0  0  0  0  0  0  0  0  0  0  0
   43.1250   27.0990   33.9220 C   0  0  0  0  0  0  0  0  0  0  0  0
   43.6710   26.7410   32.5380 C   0  0  0  0  0  0  0  0  0  0  0  0
   42.4570   26.4890   31.6680 C   0  0  0  0  0  0  0  0  0  0  0  0
   41.3390   27.4390   32.0200 C   0  0  0  0  0  0  0  0  0  0  0  0
  1 13  1  0  0  0  0
  2  7  1  0  0  0  0
  2  1  1  0  0  0  0
  3  2  1  0  0  0  0
  3  4  1  0  0  0  0
  4  5  1  0  0  0  0
  4 11  1  0  0  0  0
  5  1  1  0  0  0  0
  5 12  1  1  0  0  0
  6  2  1  0  0  0  0
  8  3  1  0  0  0  0
  9  3  1  0  0  0  0
 10  4  1  0  0  0  0
 13 18  1  0  0  0  0
 14 13  1  0  0  0  0
 15 13  1  0  0  0  0
 16 21  1  0  0  0  0
 16 22  1  0  0  0  0
 17 16  2  0  0  0  0
 18 19  2  0  0  0  0
 18 17  1  0  0  0  0
 19 20  1  0  0  0  0
 20 24  1  0  0  0  0
 20 21  2  0  0  0  0
 23 17  1  0  0  0  0
 25 26  1  0  0  0  0
 25  5  1  0  0  0  0
 26 27  1  0  0  0  0
 28 27  1  0  0  0  0
 29 28  1  0  0  0  0
 30 31  1  0  0  0  0
 30 29  1  0  0  0  0
 31 26  1  0  0  0  0
M  END
>  <minimizedAffinity>
-4.1145997

>  <minimizedRMSD>
0.818400145

$$$$
