
 OpenBabel03262516463D

 39 43  0  0  0  0  0  0  0  0999 V2000
   37.2000   22.0440   33.4720 C   0  0  0  0  0  0  0  0  0  0  0  0
   37.2070   23.1930   32.6840 C   0  0  0  0  0  0  0  0  0  0  0  0
   37.7030   24.3610   33.2310 C   0  0  0  0  0  0  0  0  0  0  0  0
   38.1610   24.3040   34.5350 N   0  0  0  0  0  0  0  0  0  0  0  0
   38.1400   23.1870   35.2630 C   0  0  0  0  0  0  0  0  0  0  0  0
   37.6650   22.0610   34.7430 N   0  0  0  0  0  0  0  0  0  0  0  0
   36.8170   23.1000   31.6690 H   0  0  0  0  0  0  0  0  0  0  0  0
   38.5240   23.2450   36.2820 H   0  0  0  0  0  0  0  0  0  0  0  0
   36.7150   20.7890   33.0120 N   0  0  0  0  0  0  0  0  0  0  0  0
   35.6190   20.2030   33.5640 C   0  0  0  0  0  0  0  0  0  0  0  0
   35.3420   19.0280   32.9770 N   0  0  0  0  0  0  0  0  0  0  0  0
   36.2590   18.8310   32.0270 C   0  0  0  0  0  0  0  0  0  0  0  0
   36.5260   17.8360   31.0870 C   0  0  0  0  0  0  0  0  0  0  0  0
   37.5780   17.9610   30.2470 N   0  0  0  0  0  0  0  0  0  0  0  0
   38.3690   19.0560   30.3250 C   0  0  0  0  0  0  0  0  0  0  0  0
   38.1380   20.0440   31.2280 N   0  0  0  0  0  0  0  0  0  0  0  0
   37.0950   19.9230   32.0630 C   0  0  0  0  0  0  0  0  0  0  0  0
   35.6210   16.7480   31.1150 N   0  0  0  0  0  0  0  0  0  0  0  0
   35.0120   20.6040   34.3850 H   0  0  0  0  0  0  0  0  0  0  0  0
   39.1790   19.0540   29.6080 H   0  0  0  0  0  0  0  0  0  0  0  0
   35.1610   16.2600   30.2960 H   0  0  0  0  0  0  0  0  0  0  0  0
   35.2710   16.2610   31.9520 H   0  0  0  0  0  0  0  0  0  0  0  0
   37.7120   25.5640   32.4120 C   0  0  0  0  0  0  0  0  0  0  0  0
   36.5500   26.0650   31.7850 C   0  0  0  0  0  0  0  0  0  0  0  0
   36.9690   27.1780   31.1300 N   0  0  0  0  0  0  0  0  0  0  0  0
   38.2890   27.3190   31.3610 C   0  0  0  0  0  0  0  0  0  0  0  0
   38.7490   26.3480   32.1360 N   0  0  0  0  0  0  0  0  0  0  0  0
   35.5750   25.6380   31.8330 H   0  0  0  0  0  0  0  0  0  0  0  0
   38.7800   28.1680   30.9050 H   0  0  0  0  0  0  0  0  0  0  0  0
   42.6410   26.2160   33.6870 C   0  0  0  0  0  0  0  0  0  0  0  0
   42.3360   25.4090   32.6110 C   0  0  0  0  0  0  0  0  0  0  0  0
   41.0700   25.3870   32.0310 C   0  0  0  0  0  0  0  0  0  0  0  0
   40.1000   26.2080   32.5650 C   0  0  0  0  0  0  0  0  0  0  0  0
   40.3780   27.0270   33.6420 C   0  0  0  0  0  0  0  0  0  0  0  0
   41.6540   27.0300   34.2040 C   0  0  0  0  0  0  0  0  0  0  0  0
   45.0800   25.4840   33.5580 H   0  0  0  0  0  0  0  0  0  0  0  0
   44.2570   26.2020   34.3790 S   0  0  0  0  0  0  0  0  0  0  0  0
   44.2660   25.5950   35.7410 O   0  0  0  0  0  0  0  0  0  0  0  0
   44.8110   27.6190   34.3930 O   0  0  0  0  0  0  0  0  0  0  0  0
  1  6  1  0  0  0  0
  2  3  1  0  0  0  0
  2  1  2  0  0  0  0
  3  4  2  0  0  0  0
  4  5  1  0  0  0  0
  5  8  1  0  0  0  0
  6  5  2  0  0  0  0
  7  2  1  0  0  0  0
  9  1  1  0  0  0  0
  9 10  1  0  0  0  0
 10 19  1  0  0  0  0
 11 10  2  0  0  0  0
 12 17  1  0  0  0  0
 12 11  1  0  0  0  0
 13 18  1  0  0  0  0
 13 12  2  0  0  0  0
 14 15  2  0  0  0  0
 14 13  1  0  0  0  0
 15 16  1  0  0  0  0
 16 17  2  0  0  0  0
 17  9  1  0  0  0  0
 18 22  1  0  0  0  0
 20 15  1  0  0  0  0
 21 18  1  0  0  0  0
 23  3  1  0  0  0  0
 24 28  1  0  0  0  0
 24 23  2  0  0  0  0
 25 26  2  0  0  0  0
 25 24  1  0  0  0  0
 26 27  1  0  0  0  0
 27 23  1  0  0  0  0
 27 33  1  0  0  0  0
 29 26  1  0  0  0  0
 30 35  1  0  0  0  0
 30 37  1  0  0  0  0
 31 30  2  0  0  0  0
 32 33  2  0  0  0  0
 32 31  1  0  0  0  0
 33 34  1  0  0  0  0
 34 35  2  0  0  0  0
 36 37  1  0  0  0  0
 37 39  2  0  0  0  0
 37 38  2  0  0  0  0
M  END
>  <minimizedAffinity>
-5.290658

>  <minimizedRMSD>
3.32539511

$$$$
