
 OpenBabel03262516563D

 34 36  0  0  1  0  0  0  0  0999 V2000
   37.2540   21.7550   34.9000 C   0  0  0  0  0  0  0  0  0  0  0  0
   36.2090   21.1520   35.2070 O   0  0  0  0  0  0  0  0  0  0  0  0
   37.5180   21.9040   33.5310 N   0  0  0  0  0  0  0  0  0  0  0  0
   36.9810   20.8290   32.6650 C   0  0  0  0  0  0  0  0  0  0  0  0
   37.0430   21.1700   31.2200 C   0  0  0  0  0  0  0  0  0  0  0  0
   36.7920   22.4860   30.9230 O   0  0  0  0  0  0  0  0  0  0  0  0
   37.2470   23.4190   31.7610 C   0  0  0  0  0  0  0  0  0  0  0  0
   38.2370   22.9250   32.7710 C   0  0  1  0  0  0  0  0  0  0  0  0
   35.9680   20.5290   32.9990 H   0  0  0  0  0  0  0  0  0  0  0  0
   37.6600   19.9650   32.8310 H   0  0  0  0  0  0  0  0  0  0  0  0
   38.0040   20.8570   30.7590 H   0  0  0  0  0  0  0  0  0  0  0  0
   36.2700   20.5580   30.6940 H   0  0  0  0  0  0  0  0  0  0  0  0
   36.3770   23.7970   32.3750 H   0  0  0  0  0  0  0  0  0  0  0  0
   37.5980   24.3310   31.2150 H   0  0  0  0  0  0  0  0  0  0  0  0
   39.1520   22.4730   32.3360 H   0  0  0  0  0  0  0  0  0  0  0  0
   40.0990   22.3330   37.1680 C   0  0  0  0  0  0  0  0  0  0  0  0
   39.5570   23.2200   38.1080 C   0  0  0  0  0  0  0  0  0  0  0  0
   38.2450   23.5980   37.9500 C   0  0  0  0  0  0  0  0  0  0  0  0
   37.5880   23.0740   36.8870 N   0  0  0  0  0  0  0  0  0  0  0  0
   38.0920   22.2420   36.0020 C   0  0  0  0  0  0  0  0  0  0  0  0
   39.3800   21.8650   36.1520 N   0  0  0  0  0  0  0  0  0  0  0  0
   41.1330   22.0530   37.3190 H   0  0  0  0  0  0  0  0  0  0  0  0
   40.0900   23.6250   38.9450 H   0  0  0  0  0  0  0  0  0  0  0  0
   37.6990   24.2720   38.5950 H   0  0  0  0  0  0  0  0  0  0  0  0
   38.6360   24.0940   33.6020 C   0  0  0  0  0  0  0  0  0  0  0  0
   39.7850   24.4630   34.1390 N   0  0  0  0  0  0  0  0  0  0  0  0
   39.6660   25.5780   34.7650 O   0  0  0  0  0  0  0  0  0  0  0  0
   38.4030   25.9810   34.6510 C   0  0  0  0  0  0  0  0  0  0  0  0
   37.7020   25.0700   33.9180 N   0  0  0  0  0  0  0  0  0  0  0  0
   37.7430   27.1980   35.1830 C   0  0  0  0  0  0  0  0  0  0  0  0
   36.6590   27.6260   34.7410 O   0  0  0  0  0  0  0  0  0  0  0  0
   38.4840   27.8040   36.2400 N   0  0  0  0  0  0  0  0  0  0  0  0
   38.1070   28.7840   36.1580 H   0  0  0  0  0  0  0  0  0  0  0  0
   38.7000   28.6640   36.7920 H   0  0  0  0  0  0  0  0  0  0  0  0
  1  2  2  0  0  0  0
  1 20  1  0  0  0  0
  3  1  1  0  0  0  0
  4 10  1  0  0  0  0
  4  9  1  0  0  0  0
  4  3  1  0  0  0  0
  5  4  1  0  0  0  0
  6  5  1  0  0  0  0
  6  7  1  0  0  0  0
  7 13  1  0  0  0  0
  7  8  1  0  0  0  0
  8 15  1  6  0  0  0
  8  3  1  0  0  0  0
  8 25  1  0  0  0  0
 11  5  1  0  0  0  0
 12  5  1  0  0  0  0
 14  7  1  0  0  0  0
 16 22  1  0  0  0  0
 16 17  1  0  0  0  0
 17 23  1  0  0  0  0
 18 17  2  0  0  0  0
 18 24  1  0  0  0  0
 19 18  1  0  0  0  0
 20 21  1  0  0  0  0
 20 19  2  0  0  0  0
 21 16  2  0  0  0  0
 25 29  1  0  0  0  0
 25 26  2  0  0  0  0
 26 27  1  0  0  0  0
 28 27  1  0  0  0  0
 28 30  1  0  0  0  0
 29 28  2  0  0  0  0
 30 32  1  0  0  0  0
 31 30  2  0  0  0  0
 32 34  1  0  0  0  0
 33 32  1  0  0  0  0
M  END
>  <minimizedAffinity>
-5.3644104

>  <minimizedRMSD>
0.42304492

$$$$
