
 OpenBabel03262517393D

 31 33  0  0  0  0  0  0  0  0999 V2000
   39.3970   24.0020   35.3250 C   0  0  0  0  0  0  0  0  0  0  0  0
   39.1850   24.6550   34.1210 C   0  0  0  0  0  0  0  0  0  0  0  0
   40.2660   25.0890   33.3950 C   0  0  0  0  0  0  0  0  0  0  0  0
   41.5070   24.8650   33.8810 N   0  0  0  0  0  0  0  0  0  0  0  0
   41.6990   24.2340   35.0450 C   0  0  0  0  0  0  0  0  0  0  0  0
   40.6700   23.8010   35.7700 N   0  0  0  0  0  0  0  0  0  0  0  0
   40.2460   25.7710   32.1490 N   0  0  0  0  0  0  0  0  0  0  0  0
   40.1820   27.2080   31.9700 C   0  0  0  0  0  0  0  0  0  0  0  0
   38.9200   27.5730   31.2210 C   0  0  0  0  0  0  0  0  0  0  0  0
   38.3490   26.4270   30.6490 O   0  0  0  0  0  0  0  0  0  0  0  0
   39.3210   25.7630   29.8910 C   0  0  0  0  0  0  0  0  0  0  0  0
   40.2870   25.1060   30.8500 C   0  0  0  0  0  0  0  0  0  0  0  0
   38.2250   24.8690   33.6690 H   0  0  0  0  0  0  0  0  0  0  0  0
   42.7220   24.0760   35.3990 H   0  0  0  0  0  0  0  0  0  0  0  0
   40.1550   27.6390   33.0090 H   0  0  0  0  0  0  0  0  0  0  0  0
   41.0550   27.5830   31.4050 H   0  0  0  0  0  0  0  0  0  0  0  0
   38.1500   27.9280   31.9580 H   0  0  0  0  0  0  0  0  0  0  0  0
   39.0570   28.3820   30.4910 H   0  0  0  0  0  0  0  0  0  0  0  0
   39.8870   26.5450   29.3390 H   0  0  0  0  0  0  0  0  0  0  0  0
   38.8590   25.0590   29.1940 H   0  0  0  0  0  0  0  0  0  0  0  0
   41.3400   25.2430   30.5040 H   0  0  0  0  0  0  0  0  0  0  0  0
   40.0990   24.0140   30.9480 H   0  0  0  0  0  0  0  0  0  0  0  0
   38.2350   23.5690   36.0410 C   0  0  0  0  0  0  0  0  0  0  0  0
   37.6840   24.2250   36.9830 O   0  0  0  0  0  0  0  0  0  0  0  0
   37.4070   22.4140   35.9590 N   0  0  0  0  0  0  0  0  0  0  0  0
   37.1170   22.1430   34.5620 C   0  0  0  0  0  0  0  0  0  0  0  0
   36.6130   20.7220   34.4180 C   0  0  0  0  0  0  0  0  0  0  0  0
   35.4050   20.4710   35.1740 N   0  0  0  0  0  0  0  0  0  0  0  0
   34.5350   20.6700   34.6350 H   0  0  0  0  0  0  0  0  0  0  0  0
   35.3600   21.2510   36.3970 C   0  0  0  0  0  0  0  0  0  0  0  0
   36.7950   21.4640   36.8980 C   0  0  0  0  0  0  0  0  0  0  0  0
  1  6  1  0  0  0  0
  1 23  1  0  0  0  0
  2  1  2  0  0  0  0
  3  4  2  0  0  0  0
  3  2  1  0  0  0  0
  4  5  1  0  0  0  0
  5 14  1  0  0  0  0
  5  6  2  0  0  0  0
  7  3  1  0  0  0  0
  8  7  1  0  0  0  0
  8 15  1  0  0  0  0
  9 17  1  0  0  0  0
  9  8  1  0  0  0  0
 10  9  1  0  0  0  0
 11 10  1  0  0  0  0
 11 12  1  0  0  0  0
 12 22  1  0  0  0  0
 12  7  1  0  0  0  0
 13  2  1  0  0  0  0
 16  8  1  0  0  0  0
 18  9  1  0  0  0  0
 19 11  1  0  0  0  0
 20 11  1  0  0  0  0
 21 12  1  0  0  0  0
 23 24  2  0  0  0  0
 25 23  1  0  0  0  0
 25 31  1  0  0  0  0
 26 25  1  0  0  0  0
 27 26  1  0  0  0  0
 27 28  1  0  0  0  0
 28 30  1  0  0  0  0
 29 28  1  0  0  0  0
 30 31  1  0  0  0  0
M  END
>  <minimizedAffinity>
-3.19735479

>  <minimizedRMSD>
3.67123699

$$$$
