
 OpenBabel03262515243D

 38 42  0  0  0  0  0  0  0  0999 V2000
   37.3140   20.1720   30.6460 C   0  0  0  0  0  0  0  0  0  0  0  0
   36.4840   19.2480   30.1710 C   0  0  0  0  0  0  0  0  0  0  0  0
   36.6690   18.6960   28.9430 C   0  0  0  0  0  0  0  0  0  0  0  0
   37.7510   19.1420   28.2310 C   0  0  0  0  0  0  0  0  0  0  0  0
   38.5620   20.4030   29.3270 S   0  0  0  0  0  0  0  0  0  0  0  0
   35.6430   18.9570   30.8230 H   0  0  0  0  0  0  0  0  0  0  0  0
   36.0430   17.9420   28.4850 H   0  0  0  0  0  0  0  0  0  0  0  0
   38.2180   18.7360   26.8690 C   0  0  0  0  0  0  0  0  0  0  0  0
   39.4420   18.1310   26.6360 C   0  0  0  0  0  0  0  0  0  0  0  0
   39.4190   17.9580   25.2960 N   0  0  0  0  0  0  0  0  0  0  0  0
   38.2950   18.4060   24.7310 C   0  0  0  0  0  0  0  0  0  0  0  0
   37.9280   18.3910   23.3740 C   0  0  0  0  0  0  0  0  0  0  0  0
   36.6980   18.9220   23.0550 C   0  0  0  0  0  0  0  0  0  0  0  0
   35.8860   19.4390   24.0470 C   0  0  0  0  0  0  0  0  0  0  0  0
   36.2920   19.4310   25.3660 C   0  0  0  0  0  0  0  0  0  0  0  0
   37.4960   18.9190   25.7380 C   0  0  0  0  0  0  0  0  0  0  0  0
   40.2370   17.8530   27.3140 H   0  0  0  0  0  0  0  0  0  0  0  0
   40.2240   17.5070   24.7670 H   0  0  0  0  0  0  0  0  0  0  0  0
   38.5660   17.9880   22.6250 H   0  0  0  0  0  0  0  0  0  0  0  0
   36.3190   18.9590   22.0360 H   0  0  0  0  0  0  0  0  0  0  0  0
   34.9110   19.8720   23.8760 H   0  0  0  0  0  0  0  0  0  0  0  0
   35.6740   19.8310   26.1690 H   0  0  0  0  0  0  0  0  0  0  0  0
   37.3810   20.8840   31.8050 O   0  0  0  0  0  0  0  0  0  0  0  0
   37.0360   22.2170   31.9320 C   0  0  0  0  0  0  0  0  0  0  0  0
   36.0120   22.4840   31.2830 O   0  0  0  0  0  0  0  0  0  0  0  0
   39.1600   25.0340   32.6700 C   0  0  0  0  0  0  0  0  0  0  0  0
   39.2660   25.0640   34.0640 C   0  0  0  0  0  0  0  0  0  0  0  0
   38.5620   24.0510   34.7750 C   0  0  0  0  0  0  0  0  0  0  0  0
   37.8480   23.1420   34.0700 N   0  0  0  0  0  0  0  0  0  0  0  0
   37.7880   23.1700   32.7280 C   0  0  0  0  0  0  0  0  0  0  0  0
   38.4500   24.1240   32.0290 N   0  0  0  0  0  0  0  0  0  0  0  0
   39.7290   25.8400   32.2080 H   0  0  0  0  0  0  0  0  0  0  0  0
   39.7910   25.7220   34.7100 H   0  0  0  0  0  0  0  0  0  0  0  0
   38.5580   23.9280   36.2160 C   0  0  0  0  0  0  0  0  0  0  0  0
   37.7960   24.5480   37.1190 C   0  0  0  0  0  0  0  0  0  0  0  0
   37.9540   24.2850   38.4590 C   0  0  0  0  0  0  0  0  0  0  0  0
   38.9380   23.3510   38.7860 C   0  0  0  0  0  0  0  0  0  0  0  0
   39.6340   22.8540   37.1840 S   0  0  0  0  0  0  0  0  0  0  0  0
  1 23  1  0  0  0  0
  2  1  2  0  0  0  0
  2  6  1  0  0  0  0
  3  2  1  0  0  0  0
  4  3  2  0  0  0  0
  4  5  1  0  0  0  0
  5  1  1  0  0  0  0
  7  3  1  0  0  0  0
  8  4  1  0  0  0  0
  9  8  2  0  0  0  0
  9 17  1  0  0  0  0
 10  9  1  0  0  0  0
 11 10  1  0  0  0  0
 11 16  1  0  0  0  0
 12 11  2  0  0  0  0
 13 12  1  0  0  0  0
 13 14  2  0  0  0  0
 14 15  1  0  0  0  0
 15 16  2  0  0  0  0
 15 22  1  0  0  0  0
 16  8  1  0  0  0  0
 18 10  1  0  0  0  0
 19 12  1  0  0  0  0
 20 13  1  0  0  0  0
 21 14  1  0  0  0  0
 23 24  1  0  0  0  0
 24 30  1  0  0  0  0
 25 24  2  0  0  0  0
 26 27  1  0  0  0  0
 27 33  1  0  0  0  0
 27 28  2  0  0  0  0
 28 34  1  0  0  0  0
 29 28  1  0  0  0  0
 30 29  2  0  0  0  0
 31 26  2  0  0  0  0
 31 30  1  0  0  0  0
 32 26  1  0  0  0  0
 34 35  2  0  0  0  0
 34 38  1  0  0  0  0
 35 36  1  0  0  0  0
 36 37  2  0  0  0  0
 38 37  1  0  0  0  0
M  END
>  <minimizedAffinity>
-4.99904299

>  <minimizedRMSD>
3.77501464

$$$$
