
 OpenBabel03262519563D

 28 31  0  0  1  0  0  0  0  0999 V2000
   38.0260   24.5590   34.7430 C   0  0  0  0  0  0  0  0  0  0  0  0
   37.8390   25.9100   34.4460 C   0  0  0  0  0  0  0  0  0  0  0  0
   37.4910   25.8990   33.1180 N   0  0  0  0  0  0  0  0  0  0  0  0
   37.4870   24.6430   32.7110 C   0  0  0  0  0  0  0  0  0  0  0  0
   37.8160   23.7780   33.6980 N   0  0  0  0  0  0  0  0  0  0  0  0
   37.9570   26.7120   35.1450 H   0  0  0  0  0  0  0  0  0  0  0  0
   37.2370   24.3980   31.6830 H   0  0  0  0  0  0  0  0  0  0  0  0
   38.4130   24.0470   36.0570 C   0  0  0  0  0  0  0  0  0  0  0  0
   39.6610   23.4430   36.2440 C   0  0  0  0  0  0  0  0  0  0  0  0
   39.9750   22.9690   37.5340 C   0  0  0  0  0  0  0  0  0  0  0  0
   39.0660   23.1220   38.5080 N   0  0  0  0  0  0  0  0  0  0  0  0
   37.8590   23.7120   38.3010 C   0  0  0  0  0  0  0  0  0  0  0  0
   37.5220   24.1770   37.0810 N   0  0  0  0  0  0  0  0  0  0  0  0
   40.3220   23.3700   35.3860 H   0  0  0  0  0  0  0  0  0  0  0  0
   40.9390   22.5090   37.6540 H   0  0  0  0  0  0  0  0  0  0  0  0
   37.2000   23.7840   39.1580 H   0  0  0  0  0  0  0  0  0  0  0  0
   37.8850   22.3600   33.5260 C   0  0  1  0  0  0  0  0  0  0  0  0
   36.9700   21.4250   34.1920 C   0  0  0  0  0  0  0  0  0  0  0  0
   36.6720   21.7970   32.7670 C   0  0  2  0  0  0  0  0  0  0  0  0
   38.8640   21.9760   33.1650 H   0  0  0  0  0  0  0  0  0  0  0  0
   37.3470   20.4160   34.4310 H   0  0  0  0  0  0  0  0  0  0  0  0
   36.3220   21.8250   35.0190 H   0  0  0  0  0  0  0  0  0  0  0  0
   35.8080   22.4400   32.6170 H   0  0  0  0  0  0  0  0  0  0  0  0
   36.8920   20.7810   31.7520 C   0  0  0  0  0  0  0  0  0  0  0  0
   36.1720   20.4250   30.6630 C   0  0  0  0  0  3  0  0  0  0  0  0
   36.5720   19.4180   29.8260 C   0  0  0  0  0  3  0  0  0  0  0  0
   37.8210   18.7850   30.2190 C   0  0  0  0  0  3  0  0  0  0  0  0
   38.2980   19.6780   31.7270 S   0  0  0  0  0  0  0  0  0  0  0  0
  1  8  1  0  0  0  0
  2  1  2  0  0  0  0
  2  6  1  0  0  0  0
  3  2  1  0  0  0  0
  4  3  2  0  0  0  0
  4  5  1  0  0  0  0
  5  1  1  0  0  0  0
  7  4  1  0  0  0  0
  8  9  2  0  0  0  0
  8 13  1  0  0  0  0
  9 10  1  0  0  0  0
 10 15  1  0  0  0  0
 10 11  2  0  0  0  0
 12 11  1  0  0  0  0
 12 16  1  0  0  0  0
 13 12  2  0  0  0  0
 14  9  1  0  0  0  0
 17 20  1  6  0  0  0
 17  5  1  0  0  0  0
 17 18  1  0  0  0  0
 18 21  1  0  0  0  0
 18 22  1  0  0  0  0
 19 23  1  6  0  0  0
 19 17  1  0  0  0  0
 19 18  1  0  0  0  0
 24 19  1  0  0  0  0
 25 24  2  0  0  0  0
 26 27  2  0  0  0  0
 26 25  1  0  0  0  0
 27 28  1  0  0  0  0
 28 24  1  0  0  0  0
M  END
>  <minimizedAffinity>
-4.50808144

>  <minimizedRMSD>
1.95146441

$$$$
