
 OpenBabel03262514303D

 40 42  0  0  1  0  0  0  0  0999 V2000
   39.9980   23.0380   33.9050 C   0  0  0  0  0  0  0  0  0  0  0  0
   39.6510   24.0400   33.5880 H   0  0  0  0  0  0  0  0  0  0  0  0
   40.8200   22.8000   33.1600 H   0  0  0  0  0  0  0  0  0  0  0  0
   40.5380   22.9880   35.2410 C   0  0  2  0  0  0  0  0  0  0  0  0
   40.9890   21.9850   35.4930 H   0  0  0  0  0  0  0  0  0  0  0  0
   38.7930   24.5270   36.1340 C   0  0  0  0  0  0  0  0  0  0  0  0
   39.7120   23.4350   36.3100 C   0  0  0  0  0  0  0  0  0  0  0  0
   39.6800   22.8190   37.5270 C   0  0  0  0  0  0  0  0  0  0  0  0
   38.8070   23.2350   38.5160 N   0  0  0  0  0  0  0  0  0  0  0  0
   37.9570   24.2760   38.2940 C   0  0  0  0  0  0  0  0  0  0  0  0
   37.9450   24.9330   37.0920 N   0  0  0  0  0  0  0  0  0  0  0  0
   40.5640   21.7380   37.8430 N   0  0  0  0  0  0  0  0  0  0  0  0
   38.7380   25.0850   35.2120 H   0  0  0  0  0  0  0  0  0  0  0  0
   37.2700   24.6120   39.0590 H   0  0  0  0  0  0  0  0  0  0  0  0
   40.0410   20.8910   38.1770 H   0  0  0  0  0  0  0  0  0  0  0  0
   41.5970   21.8370   37.7350 H   0  0  0  0  0  0  0  0  0  0  0  0
   41.8580   23.9170   35.3360 C   0  0  0  0  0  0  0  0  0  0  0  0
   42.1380   23.9850   36.3860 H   0  0  0  0  0  0  0  0  0  0  0  0
   42.6000   23.3640   34.7250 H   0  0  0  0  0  0  0  0  0  0  0  0
   41.5640   24.8620   34.8450 H   0  0  0  0  0  0  0  0  0  0  0  0
   38.7100   21.8420   33.6440 S   0  0  0  0  0  0  0  0  0  0  0  0
   35.5010   22.6050   31.5400 N   0  0  0  0  0  0  0  0  0  0  0  0
   36.3270   21.7960   32.2040 N   0  0  0  0  0  0  0  0  0  0  0  0
   37.3590   22.5160   32.6930 C   0  0  0  0  0  0  0  0  0  0  0  0
   37.1070   23.7960   32.2860 C   0  0  0  0  0  0  0  0  0  0  0  0
   35.9410   23.8690   31.5580 C   0  0  0  0  0  0  0  0  0  0  0  0
   34.6130   22.2970   31.0580 H   0  0  0  0  0  0  0  0  0  0  0  0
   37.8210   24.5660   32.5770 H   0  0  0  0  0  0  0  0  0  0  0  0
   35.3690   25.0880   30.9690 C   0  0  0  0  0  0  0  0  0  0  0  0
   34.2740   25.0590   30.9100 H   0  0  0  0  0  0  0  0  0  0  0  0
   35.7370   25.1530   29.9070 H   0  0  0  0  0  0  0  0  0  0  0  0
   35.7700   26.3460   31.6390 C   0  0  0  0  0  0  0  0  0  0  0  0
   36.4040   26.0470   32.5300 H   0  0  0  0  0  0  0  0  0  0  0  0
   34.8770   26.8120   32.1000 H   0  0  0  0  0  0  0  0  0  0  0  0
   36.5660   27.2800   30.8170 C   0  0  0  0  0  0  0  0  0  0  0  0
   37.8550   26.8920   30.5800 N   0  0  0  0  0  0  0  0  0  0  0  0
   38.4740   27.7500   29.8590 O   0  0  0  0  0  0  0  0  0  0  0  0
   37.6600   28.7390   29.5770 C   0  0  0  0  0  0  0  0  0  0  0  0
   37.8250   29.6360   28.9970 H   0  0  0  0  0  0  0  0  0  0  0  0
   36.4980   28.4480   30.1630 N   0  0  0  0  0  0  0  0  0  0  0  0
  1  4  1  0  0  0  0
  2  1  1  0  0  0  0
  3  1  1  0  0  0  0
  4 17  1  0  0  0  0
  4  5  1  1  0  0  0
  4  7  1  0  0  0  0
  6  7  2  0  0  0  0
  6 11  1  0  0  0  0
  7  8  1  0  0  0  0
  8 12  1  0  0  0  0
  8  9  2  0  0  0  0
 10  9  1  0  0  0  0
 10 14  1  0  0  0  0
 11 10  2  0  0  0  0
 12 15  1  0  0  0  0
 13  6  1  0  0  0  0
 16 12  1  0  0  0  0
 17 18  1  0  0  0  0
 19 17  1  0  0  0  0
 20 17  1  0  0  0  0
 21  1  1  0  0  0  0
 22 26  1  0  0  0  0
 22 23  1  0  0  0  0
 23 24  2  0  0  0  0
 24 21  1  0  0  0  0
 25 28  1  0  0  0  0
 25 24  1  0  0  0  0
 26 25  2  0  0  0  0
 27 22  1  0  0  0  0
 29 26  1  0  0  0  0
 29 32  1  0  0  0  0
 30 29  1  0  0  0  0
 31 29  1  0  0  0  0
 32 34  1  0  0  0  0
 32 33  1  0  0  0  0
 35 32  1  0  0  0  0
 36 35  2  0  0  0  0
 37 36  1  0  0  0  0
 38 37  1  0  0  0  0
 38 40  2  0  0  0  0
 39 38  1  0  0  0  0
 40 35  1  0  0  0  0
M  END
>  <minimizedAffinity>
-5.12241459

>  <minimizedRMSD>
0.867677987

$$$$
