
 OpenBabel03262519563D

 28 31  0  0  1  0  0  0  0  0999 V2000
   38.0940   23.7550   34.5430 C   0  0  0  0  0  0  0  0  0  0  0  0
   38.2760   24.9550   33.8530 C   0  0  0  0  0  0  0  0  0  0  0  0
   37.8200   24.6700   32.5900 N   0  0  0  0  0  0  0  0  0  0  0  0
   37.4180   23.4110   32.5800 C   0  0  0  0  0  0  0  0  0  0  0  0
   37.5730   22.8080   33.7810 N   0  0  0  0  0  0  0  0  0  0  0  0
   38.6820   25.8490   34.2790 H   0  0  0  0  0  0  0  0  0  0  0  0
   37.0160   22.9690   31.6730 H   0  0  0  0  0  0  0  0  0  0  0  0
   38.4350   23.5490   35.9500 C   0  0  0  0  0  0  0  0  0  0  0  0
   39.6420   22.9390   36.3050 C   0  0  0  0  0  0  0  0  0  0  0  0
   39.9130   22.7690   37.6770 C   0  0  0  0  0  0  0  0  0  0  0  0
   39.0050   23.1990   38.5650 N   0  0  0  0  0  0  0  0  0  0  0  0
   37.8370   23.7900   38.1940 C   0  0  0  0  0  0  0  0  0  0  0  0
   37.5430   23.9690   36.8910 N   0  0  0  0  0  0  0  0  0  0  0  0
   40.3070   22.6280   35.5050 H   0  0  0  0  0  0  0  0  0  0  0  0
   40.8470   22.2970   37.9270 H   0  0  0  0  0  0  0  0  0  0  0  0
   37.1750   24.1000   38.9940 H   0  0  0  0  0  0  0  0  0  0  0  0
   37.2160   21.4500   34.0440 C   0  0  1  0  0  0  0  0  0  0  0  0
   35.9750   21.0620   34.7240 C   0  0  0  0  0  0  0  0  0  0  0  0
   36.0000   20.9880   33.2230 C   0  0  2  0  0  0  0  0  0  0  0  0
   38.0650   20.7300   34.0390 H   0  0  0  0  0  0  0  0  0  0  0  0
   35.9810   20.1350   35.3210 H   0  0  0  0  0  0  0  0  0  0  0  0
   35.3810   21.8710   35.2310 H   0  0  0  0  0  0  0  0  0  0  0  0
   35.4100   21.7390   32.7030 H   0  0  0  0  0  0  0  0  0  0  0  0
   36.0230   19.6680   32.6200 C   0  0  0  0  0  0  0  0  0  0  0  0
   35.3460   18.5320   32.9110 C   0  0  0  0  0  3  0  0  0  0  0  0
   35.5270   17.3780   32.1980 C   0  0  0  0  0  3  0  0  0  0  0  0
   36.4970   17.4920   31.1220 C   0  0  0  0  0  3  0  0  0  0  0  0
   37.0520   19.2200   31.2300 S   0  0  0  0  0  0  0  0  0  0  0  0
  1  8  1  0  0  0  0
  2  6  1  0  0  0  0
  2  1  2  0  0  0  0
  3  2  1  0  0  0  0
  4  3  2  0  0  0  0
  4  5  1  0  0  0  0
  5 17  1  0  0  0  0
  5  1  1  0  0  0  0
  7  4  1  0  0  0  0
  8  9  2  0  0  0  0
  8 13  1  0  0  0  0
  9 10  1  0  0  0  0
 10 15  1  0  0  0  0
 10 11  2  0  0  0  0
 12 11  1  0  0  0  0
 12 16  1  0  0  0  0
 13 12  2  0  0  0  0
 14  9  1  0  0  0  0
 17 20  1  1  0  0  0
 17 18  1  0  0  0  0
 18 22  1  0  0  0  0
 18 21  1  0  0  0  0
 19 23  1  6  0  0  0
 19 17  1  0  0  0  0
 19 18  1  0  0  0  0
 24 25  2  0  0  0  0
 24 19  1  0  0  0  0
 26 25  1  0  0  0  0
 27 28  1  0  0  0  0
 27 26  2  0  0  0  0
 28 24  1  0  0  0  0
M  END
>  <minimizedAffinity>
-4.83177614

>  <minimizedRMSD>
0.91478169

$$$$
