
 OpenBabel03262519403D

 37 40  0  0  1  0  0  0  0  0999 V2000
   37.7620   25.2130   34.4450 N   0  0  0  0  0  0  0  0  0  0  0  0
   37.4210   25.4360   33.0570 C   0  0  0  0  0  0  0  0  0  0  0  0
   37.5830   26.9020   32.8330 C   0  0  0  0  0  0  0  0  0  0  0  0
   38.0510   27.4340   34.1790 C   0  0  0  0  0  0  0  0  0  0  0  0
   38.7920   26.1630   34.7000 C   0  0  2  0  0  0  0  0  0  0  0  0
   38.1560   24.9020   32.4100 H   0  0  0  0  0  0  0  0  0  0  0  0
   36.3840   25.1520   32.8440 H   0  0  0  0  0  0  0  0  0  0  0  0
   36.6420   27.4110   32.5550 H   0  0  0  0  0  0  0  0  0  0  0  0
   38.3990   27.1540   32.1110 H   0  0  0  0  0  0  0  0  0  0  0  0
   37.2110   27.6240   34.8700 H   0  0  0  0  0  0  0  0  0  0  0  0
   38.7630   28.2560   34.0920 H   0  0  0  0  0  0  0  0  0  0  0  0
   38.9170   26.3400   35.8040 H   0  0  0  0  0  0  0  0  0  0  0  0
   38.3200   23.9080   34.6560 C   0  0  0  0  0  0  0  0  0  0  0  0
   37.6110   23.1350   34.3000 H   0  0  0  0  0  0  0  0  0  0  0  0
   39.3140   23.8370   34.1590 H   0  0  0  0  0  0  0  0  0  0  0  0
   37.8760   23.6720   38.4150 C   0  0  0  0  0  0  0  0  0  0  0  0
   37.5850   23.9410   37.0770 C   0  0  0  0  0  0  0  0  0  0  0  0
   38.5690   23.6460   36.1100 C   0  0  0  0  0  0  0  0  0  0  0  0
   39.7470   23.1140   36.5520 N   0  0  0  0  0  0  0  0  0  0  0  0
   39.9720   22.8760   37.8510 C   0  0  0  0  0  0  0  0  0  0  0  0
   39.0350   23.1580   38.7690 N   0  0  0  0  0  0  0  0  0  0  0  0
   37.1360   23.8910   39.1740 H   0  0  0  0  0  0  0  0  0  0  0  0
   36.6510   24.3610   36.7470 H   0  0  0  0  0  0  0  0  0  0  0  0
   40.9790   22.4500   37.9770 H   0  0  0  0  0  0  0  0  0  0  0  0
   39.9360   25.9380   34.0110 O   0  0  0  0  0  0  0  0  0  0  0  0
   41.1030   26.1960   34.6790 C   0  0  2  0  0  0  0  0  0  0  0  0
   42.1550   26.9230   33.8790 C   0  0  0  0  0  0  0  0  0  0  0  0
   42.3730   25.4960   34.3140 C   0  0  1  0  0  0  0  0  0  0  0  0
   40.9870   26.2420   35.7720 H   0  0  0  0  0  0  0  0  0  0  0  0
   42.7310   27.7300   34.3790 H   0  0  0  0  0  0  0  0  0  0  0  0
   41.9780   27.1230   32.8110 H   0  0  0  0  0  0  0  0  0  0  0  0
   42.4050   24.7410   33.5260 H   0  0  0  0  0  0  0  0  0  0  0  0
   43.4120   25.3340   35.3380 C   0  0  0  0  0  0  0  0  0  0  0  0
   43.5920   24.5960   36.4590 C   0  0  0  0  0  0  0  0  0  0  0  0
   44.7400   24.7180   37.1920 C   0  0  0  0  0  0  0  0  0  0  0  0
   45.6990   25.6510   36.7030 C   0  0  0  0  0  0  0  0  0  0  0  0
   44.9500   26.3200   35.2310 S   0  0  0  0  0  0  0  0  0  0  0  0
  1 13  1  0  0  0  0
  1  5  1  0  0  0  0
  2  1  1  0  0  0  0
  3  2  1  0  0  0  0
  3  4  1  0  0  0  0
  4  5  1  0  0  0  0
  4 10  1  0  0  0  0
  5 12  1  1  0  0  0
  6  2  1  0  0  0  0
  7  2  1  0  0  0  0
  8  3  1  0  0  0  0
  9  3  1  0  0  0  0
 11  4  1  0  0  0  0
 13 18  1  0  0  0  0
 14 13  1  0  0  0  0
 15 13  1  0  0  0  0
 16 21  1  0  0  0  0
 16 22  1  0  0  0  0
 17 16  2  0  0  0  0
 18 19  2  0  0  0  0
 18 17  1  0  0  0  0
 19 20  1  0  0  0  0
 20 24  1  0  0  0  0
 20 21  2  0  0  0  0
 23 17  1  0  0  0  0
 25 26  1  0  0  0  0
 25  5  1  0  0  0  0
 26 29  1  1  0  0  0
 27 28  1  0  0  0  0
 27 30  1  0  0  0  0
 27 26  1  0  0  0  0
 28 32  1  6  0  0  0
 28 26  1  0  0  0  0
 28 33  1  0  0  0  0
 31 27  1  0  0  0  0
 33 34  2  0  0  0  0
 34 35  1  0  0  0  0
 36 35  2  0  0  0  0
 37 33  1  0  0  0  0
 37 36  1  0  0  0  0
M  END
>  <minimizedAffinity>
-4.74800301

>  <minimizedRMSD>
1.08239043

$$$$
