
 OpenBabel03262519593D

 31 34  0  0  1  0  0  0  0  0999 V2000
   38.7170   23.6550   32.1230 C   0  0  0  0  0  0  0  0  0  0  0  0
   38.5700   22.3260   31.7240 C   0  0  0  0  0  0  0  0  0  0  0  0
   37.8130   21.7730   32.7170 N   0  0  0  0  0  0  0  0  0  0  0  0
   37.5560   22.7270   33.6080 C   0  0  0  0  0  0  0  0  0  0  0  0
   38.0980   23.8900   33.2660 N   0  0  0  0  0  0  0  0  0  0  0  0
   38.9790   21.8810   30.8280 H   0  0  0  0  0  0  0  0  0  0  0  0
   36.9560   22.4230   34.4620 H   0  0  0  0  0  0  0  0  0  0  0  0
   39.4660   24.6570   31.3830 C   0  0  0  0  0  0  0  0  0  0  0  0
   40.8030   24.9290   31.7440 C   0  0  0  0  0  0  0  0  0  0  0  0
   41.4980   25.9070   30.9950 C   0  0  0  0  0  0  0  0  0  0  0  0
   40.8290   26.5160   29.9800 N   0  0  0  0  0  0  0  0  0  0  0  0
   39.5440   26.2230   29.6690 C   0  0  0  0  0  0  0  0  0  0  0  0
   38.8630   25.3010   30.3610 N   0  0  0  0  0  0  0  0  0  0  0  0
   41.2220   24.3790   32.5670 H   0  0  0  0  0  0  0  0  0  0  0  0
   42.5110   26.1130   31.2670 H   0  0  0  0  0  0  0  0  0  0  0  0
   39.1600   26.7950   28.8380 H   0  0  0  0  0  0  0  0  0  0  0  0
   37.9670   25.0680   34.0440 C   0  0  1  0  0  0  0  0  0  0  0  0
   37.5610   25.1400   35.4210 C   0  0  0  0  0  0  0  0  0  0  0  0
   39.0610   25.2790   35.0430 C   0  0  1  0  0  0  0  0  0  0  0  0
   37.6980   25.9820   33.4220 H   0  0  0  0  0  0  0  0  0  0  0  0
   37.2950   24.2420   35.9920 H   0  0  0  0  0  0  0  0  0  0  0  0
   37.0840   26.0620   35.8240 H   0  0  0  0  0  0  0  0  0  0  0  0
   39.7740   24.2170   35.8240 C   0  0  0  0  0  0  0  0  0  0  0  0
   41.1340   23.6840   35.6110 C   0  0  0  0  0  3  0  0  0  0  0  0
   41.4640   22.7270   36.5080 C   0  0  0  0  0  3  0  0  0  0  0  0
   40.6250   22.2790   37.5280 C   0  0  0  0  0  3  0  0  0  0  0  0
   39.1060   23.3280   37.2460 S   0  0  0  0  0  0  0  0  0  0  0  0
   39.5390   26.7030   35.2490 C   0  0  0  0  0  0  0  0  0  0  0  0
   40.9190   26.7490   35.1720 F   0  0  0  0  0  0  0  0  0  0  0  0
   39.1090   27.4910   34.1040 F   0  0  0  0  0  0  0  0  0  0  0  0
   39.0310   27.3050   36.3330 F   0  0  0  0  0  0  0  0  0  0  0  0
  1  5  1  0  0  0  0
  2  1  2  0  0  0  0
  2  3  1  0  0  0  0
  3  4  2  0  0  0  0
  4  7  1  0  0  0  0
  5  4  1  0  0  0  0
  5 17  1  0  0  0  0
  6  2  1  0  0  0  0
  8  9  1  0  0  0  0
  8  1  1  0  0  0  0
  9 14  1  0  0  0  0
 10 15  1  0  0  0  0
 10  9  2  0  0  0  0
 11 10  1  0  0  0  0
 12 11  2  0  0  0  0
 12 13  1  0  0  0  0
 13  8  2  0  0  0  0
 16 12  1  0  0  0  0
 17 20  1  6  0  0  0
 17 19  1  0  0  0  0
 17 18  1  0  0  0  0
 18 22  1  0  0  0  0
 18 21  1  0  0  0  0
 19 28  1  1  0  0  0
 19 18  1  0  0  0  0
 19 23  1  0  0  0  0
 23 27  1  0  0  0  0
 24 23  2  0  0  0  0
 24 25  1  0  0  0  0
 25 26  2  0  0  0  0
 27 26  1  0  0  0  0
 28 31  1  0  0  0  0
 29 28  1  0  0  0  0
 30 28  1  0  0  0  0
M  END
>  <minimizedAffinity>
-4.42805958

>  <minimizedRMSD>
4.10136414

$$$$
