
 OpenBabel03262519573D

 28 31  0  0  1  0  0  0  0  0999 V2000
   37.9330   24.5390   34.0030 C   0  0  0  0  0  0  0  0  0  0  0  0
   38.3560   24.0660   35.2460 C   0  0  0  0  0  0  0  0  0  0  0  0
   38.0800   25.1090   36.0960 N   0  0  0  0  0  0  0  0  0  0  0  0
   37.5470   26.0830   35.3800 C   0  0  0  0  0  0  0  0  0  0  0  0
   37.4390   25.7630   34.0700 N   0  0  0  0  0  0  0  0  0  0  0  0
   38.7860   23.1010   35.4200 H   0  0  0  0  0  0  0  0  0  0  0  0
   37.2490   27.0140   35.8530 H   0  0  0  0  0  0  0  0  0  0  0  0
   38.0190   23.7800   32.7560 C   0  0  0  0  0  0  0  0  0  0  0  0
   39.0410   24.0390   31.8370 C   0  0  0  0  0  0  0  0  0  0  0  0
   39.0700   23.2730   30.6540 C   0  0  0  0  0  0  0  0  0  0  0  0
   38.1220   22.3430   30.4730 N   0  0  0  0  0  0  0  0  0  0  0  0
   37.1380   22.1100   31.3830 C   0  0  0  0  0  0  0  0  0  0  0  0
   37.0770   22.8220   32.5260 N   0  0  0  0  0  0  0  0  0  0  0  0
   39.7580   24.8160   32.0830 H   0  0  0  0  0  0  0  0  0  0  0  0
   39.8640   23.4900   29.9620 H   0  0  0  0  0  0  0  0  0  0  0  0
   36.4220   21.3340   31.1360 H   0  0  0  0  0  0  0  0  0  0  0  0
   36.8960   26.6370   33.0770 C   0  0  1  0  0  0  0  0  0  0  0  0
   36.6270   28.0590   33.3200 C   0  0  0  0  0  0  0  0  0  0  0  0
   37.9030   27.7020   32.6110 C   0  0  2  0  0  0  0  0  0  0  0  0
   36.3560   26.1300   32.2470 H   0  0  0  0  0  0  0  0  0  0  0  0
   35.8010   28.5310   32.7620 H   0  0  0  0  0  0  0  0  0  0  0  0
   36.6650   28.4270   34.3820 H   0  0  0  0  0  0  0  0  0  0  0  0
   38.8170   27.8380   33.1840 H   0  0  0  0  0  0  0  0  0  0  0  0
   37.9890   28.0100   31.1950 C   0  0  0  0  0  0  0  0  0  0  0  0
   38.8770   27.6370   30.2430 C   0  0  0  0  0  3  0  0  0  0  0  0
   38.7670   28.0540   28.9440 C   0  0  0  0  0  3  0  0  0  0  0  0
   37.6250   28.9180   28.6960 C   0  0  0  0  0  3  0  0  0  0  0  0
   36.8280   29.0510   30.3230 S   0  0  0  0  0  0  0  0  0  0  0  0
  1  5  1  0  0  0  0
  1  2  2  0  0  0  0
  2  6  1  0  0  0  0
  2  3  1  0  0  0  0
  4  7  1  0  0  0  0
  4  3  2  0  0  0  0
  5  4  1  0  0  0  0
  8  1  1  0  0  0  0
  9 14  1  0  0  0  0
  9  8  2  0  0  0  0
 10  9  1  0  0  0  0
 11 10  2  0  0  0  0
 11 12  1  0  0  0  0
 12 13  2  0  0  0  0
 13  8  1  0  0  0  0
 15 10  1  0  0  0  0
 16 12  1  0  0  0  0
 17 20  1  6  0  0  0
 17 18  1  0  0  0  0
 17  5  1  0  0  0  0
 18 22  1  0  0  0  0
 19 17  1  0  0  0  0
 19 23  1  1  0  0  0
 19 18  1  0  0  0  0
 21 18  1  0  0  0  0
 24 19  1  0  0  0  0
 25 24  2  0  0  0  0
 26 25  1  0  0  0  0
 27 26  2  0  0  0  0
 27 28  1  0  0  0  0
 28 24  1  0  0  0  0
M  END
>  <minimizedAffinity>
-3.92889547

>  <minimizedRMSD>
7.36501122

$$$$
