
 OpenBabel03262519523D

 30 32  0  0  1  0  0  0  0  0999 V2000
   38.5230   23.4870   34.7560 C   0  0  0  0  0  0  0  0  0  0  0  0
   37.5660   23.9010   34.8930 H   0  0  0  0  0  0  0  0  0  0  0  0
   38.2080   22.4880   34.2610 H   0  0  0  0  0  0  0  0  0  0  0  0
   39.9560   22.8300   37.9730 C   0  0  0  0  0  0  0  0  0  0  0  0
   39.0560   23.4110   37.0310 C   0  0  0  0  0  0  0  0  0  0  0  0
   39.3590   23.0150   35.7890 C   0  0  0  0  0  0  0  0  0  0  0  0
   40.4190   22.1530   35.5090 N   0  0  0  0  0  0  0  0  0  0  0  0
   41.2030   21.6600   36.4400 C   0  0  0  0  0  0  0  0  0  0  0  0
   40.9770   21.9970   37.6890 N   0  0  0  0  0  0  0  0  0  0  0  0
   39.8690   23.0370   39.0570 H   0  0  0  0  0  0  0  0  0  0  0  0
   41.9810   21.0160   36.1540 H   0  0  0  0  0  0  0  0  0  0  0  0
   38.0590   24.2490   37.5850 C   0  0  0  0  0  0  0  0  0  0  0  0
   38.2370   25.6060   37.2030 F   0  0  0  0  0  0  0  0  0  0  0  0
   38.0740   24.6070   38.8830 F   0  0  0  0  0  0  0  0  0  0  0  0
   36.7920   24.2550   37.0230 F   0  0  0  0  0  0  0  0  0  0  0  0
   39.2310   24.1390   33.6680 C   0  0  0  0  0  0  0  0  0  0  0  0
   39.4730   23.5410   32.7610 H   0  0  0  0  0  0  0  0  0  0  0  0
   40.2520   24.4440   34.0520 H   0  0  0  0  0  0  0  0  0  0  0  0
   38.5320   25.4560   33.3330 C   0  0  2  0  0  0  0  0  0  0  0  0
   39.4760   26.5890   33.0360 C   0  0  0  0  0  0  0  0  0  0  0  0
   38.5610   26.6080   34.1820 C   0  0  1  0  0  0  0  0  0  0  0  0
   37.7850   25.2780   32.5270 H   0  0  0  0  0  0  0  0  0  0  0  0
   39.2770   27.1980   32.0940 H   0  0  0  0  0  0  0  0  0  0  0  0
   40.5360   26.3570   33.0350 H   0  0  0  0  0  0  0  0  0  0  0  0
   38.6880   26.8470   35.1630 H   0  0  0  0  0  0  0  0  0  0  0  0
   37.2750   27.5370   33.7850 C   0  0  0  0  0  0  0  0  0  0  0  0
   36.5850   28.2760   34.6380 C   0  0  0  0  0  0  0  0  0  0  0  0
   35.5560   28.9670   34.0740 C   0  0  0  0  0  0  0  0  0  0  0  0
   35.2720   28.8890   32.7130 C   0  0  0  0  0  0  0  0  0  0  0  0
   36.6570   27.6810   32.2380 S   0  0  0  0  0  0  0  0  0  0  0  0
  1  2  1  0  0  0  0
  1  6  1  0  0  0  0
  3  1  1  0  0  0  0
  4 10  1  0  0  0  0
  5 12  1  0  0  0  0
  5  4  2  0  0  0  0
  6  5  1  0  0  0  0
  7  6  2  0  0  0  0
  7  8  1  0  0  0  0
  8  9  2  0  0  0  0
  9  4  1  0  0  0  0
 11  8  1  0  0  0  0
 12 14  1  0  0  0  0
 13 12  1  0  0  0  0
 15 12  1  0  0  0  0
 16 18  1  0  0  0  0
 16  1  1  0  0  0  0
 17 16  1  0  0  0  0
 19 22  1  6  0  0  0
 19 16  1  0  0  0  0
 19 21  1  0  0  0  0
 20 19  1  0  0  0  0
 20 21  1  0  0  0  0
 21 25  1  1  0  0  0
 23 20  1  0  0  0  0
 24 20  1  0  0  0  0
 26 21  1  0  0  0  0
 26 27  2  0  0  0  0
 28 27  1  0  0  0  0
 29 28  2  0  0  0  0
 30 29  1  0  0  0  0
 30 26  1  0  0  0  0
M  END
>  <minimizedAffinity>
-4.81259871

>  <minimizedRMSD>
4.78983116

$$$$
