
 OpenBabel03262519593D

 31 34  0  0  1  0  0  0  0  0999 V2000
   38.4700   23.3900   32.3590 C   0  0  0  0  0  0  0  0  0  0  0  0
   39.0430   22.5080   31.4420 C   0  0  0  0  0  0  0  0  0  0  0  0
   39.2480   21.3730   32.1730 N   0  0  0  0  0  0  0  0  0  0  0  0
   38.8200   21.6050   33.4110 C   0  0  0  0  0  0  0  0  0  0  0  0
   38.3380   22.8360   33.5500 N   0  0  0  0  0  0  0  0  0  0  0  0
   39.2560   22.7180   30.4040 H   0  0  0  0  0  0  0  0  0  0  0  0
   38.9250   20.7790   34.1080 H   0  0  0  0  0  0  0  0  0  0  0  0
   38.0780   24.7560   32.0500 C   0  0  0  0  0  0  0  0  0  0  0  0
   38.9810   25.8110   32.3010 C   0  0  0  0  0  0  0  0  0  0  0  0
   38.5620   27.1230   31.9810 C   0  0  0  0  0  0  0  0  0  0  0  0
   37.3180   27.2760   31.4550 N   0  0  0  0  0  0  0  0  0  0  0  0
   36.4830   26.2340   31.2320 C   0  0  0  0  0  0  0  0  0  0  0  0
   36.8550   24.9800   31.5240 N   0  0  0  0  0  0  0  0  0  0  0  0
   39.9390   25.5610   32.7200 H   0  0  0  0  0  0  0  0  0  0  0  0
   39.2460   27.9220   32.1710 H   0  0  0  0  0  0  0  0  0  0  0  0
   35.5330   26.5240   30.8100 H   0  0  0  0  0  0  0  0  0  0  0  0
   37.8140   23.3320   34.7710 C   0  0  1  0  0  0  0  0  0  0  0  0
   38.0340   22.7810   36.0800 C   0  0  0  0  0  0  0  0  0  0  0  0
   38.8090   24.0490   35.6300 C   0  0  1  0  0  0  0  0  0  0  0  0
   36.8160   23.8630   34.6410 H   0  0  0  0  0  0  0  0  0  0  0  0
   38.6420   21.8800   36.2330 H   0  0  0  0  0  0  0  0  0  0  0  0
   37.2910   22.9410   36.8940 H   0  0  0  0  0  0  0  0  0  0  0  0
   40.2610   23.7110   35.7860 C   0  0  0  0  0  0  0  0  0  0  0  0
   40.9040   22.9200   36.8540 C   0  0  0  0  0  3  0  0  0  0  0  0
   42.2410   22.8070   36.6830 C   0  0  0  0  0  3  0  0  0  0  0  0
   42.9510   23.3680   35.6230 C   0  0  0  0  0  3  0  0  0  0  0  0
   41.5850   24.2080   34.6650 S   0  0  0  0  0  0  0  0  0  0  0  0
   38.3180   25.2740   36.3740 C   0  0  0  0  0  0  0  0  0  0  0  0
   39.1290   26.3550   36.0820 F   0  0  0  0  0  0  0  0  0  0  0  0
   37.0310   25.6550   35.8140 F   0  0  0  0  0  0  0  0  0  0  0  0
   38.1160   25.0800   37.6840 F   0  0  0  0  0  0  0  0  0  0  0  0
  1  5  1  0  0  0  0
  2  3  1  0  0  0  0
  2  1  2  0  0  0  0
  3  4  2  0  0  0  0
  4  5  1  0  0  0  0
  4  7  1  0  0  0  0
  5 17  1  0  0  0  0
  6  2  1  0  0  0  0
  8  9  1  0  0  0  0
  8  1  1  0  0  0  0
  9 14  1  0  0  0  0
 10 15  1  0  0  0  0
 10  9  2  0  0  0  0
 11 10  1  0  0  0  0
 12 11  2  0  0  0  0
 12 13  1  0  0  0  0
 13  8  2  0  0  0  0
 16 12  1  0  0  0  0
 17 20  1  6  0  0  0
 17 19  1  0  0  0  0
 17 18  1  0  0  0  0
 18 21  1  0  0  0  0
 18 22  1  0  0  0  0
 19 23  1  0  0  0  0
 19 18  1  0  0  0  0
 19 28  1  1  0  0  0
 23 24  2  0  0  0  0
 25 24  1  0  0  0  0
 26 25  2  0  0  0  0
 27 26  1  0  0  0  0
 27 23  1  0  0  0  0
 28 31  1  0  0  0  0
 29 28  1  0  0  0  0
 30 28  1  0  0  0  0
M  END
>  <minimizedAffinity>
-4.29901314

>  <minimizedRMSD>
3.98483372

$$$$
