
 OpenBabel03262519573D

 28 31  0  0  1  0  0  0  0  0999 V2000
   41.1160   25.1990   32.8460 C   0  0  0  0  0  0  0  0  0  0  0  0
   41.4260   25.1820   31.4860 C   0  0  0  0  0  0  0  0  0  0  0  0
   40.2920   25.6820   30.8930 N   0  0  0  0  0  0  0  0  0  0  0  0
   39.4220   25.9530   31.8500 C   0  0  0  0  0  0  0  0  0  0  0  0
   39.9010   25.6640   33.0820 N   0  0  0  0  0  0  0  0  0  0  0  0
   42.3550   24.8450   31.0740 H   0  0  0  0  0  0  0  0  0  0  0  0
   38.4460   26.3610   31.6060 H   0  0  0  0  0  0  0  0  0  0  0  0
   42.0190   24.7540   33.9070 C   0  0  0  0  0  0  0  0  0  0  0  0
   42.1320   23.3950   34.2190 C   0  0  0  0  0  0  0  0  0  0  0  0
   43.0200   23.0300   35.2500 C   0  0  0  0  0  0  0  0  0  0  0  0
   43.7060   23.9990   35.8740 N   0  0  0  0  0  0  0  0  0  0  0  0
   43.5780   25.3140   35.5530 C   0  0  0  0  0  0  0  0  0  0  0  0
   42.7380   25.7020   34.5720 N   0  0  0  0  0  0  0  0  0  0  0  0
   41.5300   22.6930   33.6510 H   0  0  0  0  0  0  0  0  0  0  0  0
   43.0910   21.9800   35.4730 H   0  0  0  0  0  0  0  0  0  0  0  0
   44.1800   26.0140   36.1210 H   0  0  0  0  0  0  0  0  0  0  0  0
   39.1640   25.8630   34.2910 C   0  0  1  0  0  0  0  0  0  0  0  0
   37.6980   25.8290   34.3520 C   0  0  0  0  0  0  0  0  0  0  0  0
   38.4420   24.5890   34.7600 C   0  0  2  0  0  0  0  0  0  0  0  0
   39.7160   26.3940   35.0980 H   0  0  0  0  0  0  0  0  0  0  0  0
   37.1990   26.4480   35.1170 H   0  0  0  0  0  0  0  0  0  0  0  0
   37.1320   25.8450   33.3810 H   0  0  0  0  0  0  0  0  0  0  0  0
   38.3730   23.7490   34.0730 H   0  0  0  0  0  0  0  0  0  0  0  0
   38.4600   24.2550   36.1730 C   0  0  0  0  0  0  0  0  0  0  0  0
   37.7680   24.7520   37.2260 C   0  0  0  0  0  3  0  0  0  0  0  0
   37.9490   24.2820   38.4990 C   0  0  0  0  0  3  0  0  0  0  0  0
   38.9350   23.2200   38.6030 C   0  0  0  0  0  3  0  0  0  0  0  0
   39.5040   22.9960   36.8920 S   0  0  0  0  0  0  0  0  0  0  0  0
  1  5  1  0  0  0  0
  1  8  1  0  0  0  0
  2  1  2  0  0  0  0
  3  2  1  0  0  0  0
  3  4  2  0  0  0  0
  4  5  1  0  0  0  0
  5 17  1  0  0  0  0
  6  2  1  0  0  0  0
  7  4  1  0  0  0  0
  8  9  2  0  0  0  0
  8 13  1  0  0  0  0
  9 10  1  0  0  0  0
 10 15  1  0  0  0  0
 10 11  2  0  0  0  0
 12 11  1  0  0  0  0
 12 16  1  0  0  0  0
 13 12  2  0  0  0  0
 14  9  1  0  0  0  0
 17 18  1  0  0  0  0
 17 19  1  0  0  0  0
 17 20  1  1  0  0  0
 18 19  1  0  0  0  0
 18 21  1  0  0  0  0
 19 23  1  6  0  0  0
 19 24  1  0  0  0  0
 22 18  1  0  0  0  0
 24 28  1  0  0  0  0
 24 25  2  0  0  0  0
 25 26  1  0  0  0  0
 26 27  2  0  0  0  0
 28 27  1  0  0  0  0
M  END
>  <minimizedAffinity>
-3.69561124

>  <minimizedRMSD>
5.88754129

$$$$
