
 OpenBabel03262519223D

 25 28  0  0  0  0  0  0  0  0999 V2000
   37.7160   25.0450   33.6950 C   0  0  0  0  0  0  0  0  0  0  0  0
   37.8470   25.4220   35.0220 C   0  0  0  0  0  0  0  0  0  0  0  0
   37.5870   26.7430   35.3380 C   0  0  0  0  0  0  0  0  0  0  0  0
   37.2220   27.6120   34.3640 N   0  0  0  0  0  0  0  0  0  0  0  0
   37.1050   27.2200   33.0810 C   0  0  0  0  0  0  0  0  0  0  0  0
   37.3490   25.9590   32.7550 N   0  0  0  0  0  0  0  0  0  0  0  0
   37.6990   26.9880   36.3820 H   0  0  0  0  0  0  0  0  0  0  0  0
   36.8090   28.0000   32.3900 H   0  0  0  0  0  0  0  0  0  0  0  0
   38.2660   24.4980   35.9650 N   0  0  0  0  0  0  0  0  0  0  0  0
   37.4950   23.9670   36.9450 C   0  0  0  0  0  0  0  0  0  0  0  0
   38.1810   23.1040   37.7150 N   0  0  0  0  0  0  0  0  0  0  0  0
   39.4310   23.0730   37.2220 C   0  0  0  0  0  0  0  0  0  0  0  0
   40.5900   22.4000   37.5430 C   0  0  0  0  0  0  0  0  0  0  0  0
   41.7510   22.5180   36.8940 N   0  0  0  0  0  0  0  0  0  0  0  0
   41.7480   23.3780   35.8400 C   0  0  0  0  0  0  0  0  0  0  0  0
   40.6360   24.0370   35.5170 N   0  0  0  0  0  0  0  0  0  0  0  0
   39.4800   23.9440   36.1340 C   0  0  0  0  0  0  0  0  0  0  0  0
   36.4500   24.1520   37.1610 H   0  0  0  0  0  0  0  0  0  0  0  0
   40.6050   21.7030   38.3920 H   0  0  0  0  0  0  0  0  0  0  0  0
   42.5770   23.6290   35.1730 H   0  0  0  0  0  0  0  0  0  0  0  0
   37.8350   23.6710   33.1370 C   0  0  0  0  0  0  0  0  0  0  0  0
   37.3110   22.4210   33.5370 C   0  0  0  0  0  0  0  0  0  0  0  0
   37.6020   21.3810   32.7180 C   0  0  0  0  0  0  0  0  0  0  0  0
   38.3560   21.5090   31.5680 C   0  0  0  0  0  0  0  0  0  0  0  0
   38.7150   23.2600   31.5960 S   0  0  0  0  0  0  0  0  0  0  0  0
  1  2  1  0  0  0  0
  2  3  2  0  0  0  0
  2  9  1  0  0  0  0
  3  7  1  0  0  0  0
  4  3  1  0  0  0  0
  5  4  2  0  0  0  0
  6  5  1  0  0  0  0
  6  1  2  0  0  0  0
  8  5  1  0  0  0  0
  9 17  1  0  0  0  0
  9 10  1  0  0  0  0
 10 18  1  0  0  0  0
 10 11  2  0  0  0  0
 12 13  1  0  0  0  0
 12 11  1  0  0  0  0
 13 19  1  0  0  0  0
 14 13  2  0  0  0  0
 15 14  1  0  0  0  0
 16 15  2  0  0  0  0
 16 17  1  0  0  0  0
 17 12  2  0  0  0  0
 20 15  1  0  0  0  0
 21 22  2  0  0  0  0
 21  1  1  0  0  0  0
 23 22  1  0  0  0  0
 24 25  1  0  0  0  0
 24 23  2  0  0  0  0
 25 21  1  0  0  0  0
M  END
>  <minimizedAffinity>
-4.63134432

>  <minimizedRMSD>
1.18214166

$$$$
