
 OpenBabel03262519563D

 28 31  0  0  1  0  0  0  0  0999 V2000
   38.0960   23.7460   34.5360 C   0  0  0  0  0  0  0  0  0  0  0  0
   38.2830   24.9420   33.8430 C   0  0  0  0  0  0  0  0  0  0  0  0
   37.8270   24.6530   32.5800 N   0  0  0  0  0  0  0  0  0  0  0  0
   37.4210   23.3960   32.5740 C   0  0  0  0  0  0  0  0  0  0  0  0
   37.5730   22.7970   33.7780 N   0  0  0  0  0  0  0  0  0  0  0  0
   38.6920   25.8370   34.2650 H   0  0  0  0  0  0  0  0  0  0  0  0
   37.0190   22.9520   31.6690 H   0  0  0  0  0  0  0  0  0  0  0  0
   38.4360   23.5440   35.9440 C   0  0  0  0  0  0  0  0  0  0  0  0
   39.6430   22.9340   36.3030 C   0  0  0  0  0  0  0  0  0  0  0  0
   39.9120   22.7690   37.6760 C   0  0  0  0  0  0  0  0  0  0  0  0
   39.0030   23.2020   38.5610 N   0  0  0  0  0  0  0  0  0  0  0  0
   37.8360   23.7920   38.1870 C   0  0  0  0  0  0  0  0  0  0  0  0
   37.5430   23.9670   36.8830 N   0  0  0  0  0  0  0  0  0  0  0  0
   40.3080   22.6200   35.5050 H   0  0  0  0  0  0  0  0  0  0  0  0
   40.8450   22.2970   37.9280 H   0  0  0  0  0  0  0  0  0  0  0  0
   37.1720   24.1050   38.9860 H   0  0  0  0  0  0  0  0  0  0  0  0
   37.2120   21.4410   34.0450 C   0  0  1  0  0  0  0  0  0  0  0  0
   35.9650   21.0600   34.7190 C   0  0  0  0  0  0  0  0  0  0  0  0
   36.0000   20.9770   33.2190 C   0  0  2  0  0  0  0  0  0  0  0  0
   38.0590   20.7190   34.0510 H   0  0  0  0  0  0  0  0  0  0  0  0
   35.9650   20.1350   35.3210 H   0  0  0  0  0  0  0  0  0  0  0  0
   35.3690   21.8720   35.2180 H   0  0  0  0  0  0  0  0  0  0  0  0
   35.4150   21.7270   32.6900 H   0  0  0  0  0  0  0  0  0  0  0  0
   36.0250   19.6530   32.6230 C   0  0  0  0  0  0  0  0  0  0  0  0
   35.3350   18.5240   32.9070 C   0  0  0  0  0  3  0  0  0  0  0  0
   35.5220   17.3650   32.2050 C   0  0  0  0  0  3  0  0  0  0  0  0
   36.5140   17.4660   31.1480 C   0  0  0  0  0  3  0  0  0  0  0  0
   37.0790   19.1900   31.2570 S   0  0  0  0  0  0  0  0  0  0  0  0
  1  8  1  0  0  0  0
  2  6  1  0  0  0  0
  2  1  2  0  0  0  0
  3  2  1  0  0  0  0
  4  3  2  0  0  0  0
  4  5  1  0  0  0  0
  5 17  1  0  0  0  0
  5  1  1  0  0  0  0
  7  4  1  0  0  0  0
  8  9  2  0  0  0  0
  8 13  1  0  0  0  0
  9 10  1  0  0  0  0
 10 15  1  0  0  0  0
 10 11  2  0  0  0  0
 12 11  1  0  0  0  0
 12 16  1  0  0  0  0
 13 12  2  0  0  0  0
 14  9  1  0  0  0  0
 17 20  1  1  0  0  0
 17 18  1  0  0  0  0
 18 22  1  0  0  0  0
 18 21  1  0  0  0  0
 19 23  1  6  0  0  0
 19 17  1  0  0  0  0
 19 18  1  0  0  0  0
 24 25  2  0  0  0  0
 24 19  1  0  0  0  0
 26 25  1  0  0  0  0
 27 28  1  0  0  0  0
 27 26  2  0  0  0  0
 28 24  1  0  0  0  0
M  END
>  <minimizedAffinity>
-4.83434725

>  <minimizedRMSD>
0.718571007

$$$$
