
 OpenBabel03262519253D

 41 46  0  0  0  0  0  0  0  0999 V2000
   38.3750   23.3280   32.4940 C   0  0  0  0  0  0  0  0  0  0  0  0
   38.1300   22.0450   32.9750 C   0  0  0  0  0  0  0  0  0  0  0  0
   36.8750   21.4470   32.9030 C   0  0  0  0  0  0  0  0  0  0  0  0
   35.8090   22.1420   32.3330 C   0  0  0  0  0  0  0  0  0  0  0  0
   36.0250   23.4190   31.8480 C   0  0  0  0  0  0  0  0  0  0  0  0
   34.9980   24.1110   31.2720 C   0  0  0  0  0  0  0  0  0  0  0  0
   35.1410   25.3660   30.7530 C   0  0  0  0  0  0  0  0  0  0  0  0
   36.4100   25.9290   30.8340 C   0  0  0  0  0  0  0  0  0  0  0  0
   37.4330   25.2060   31.4250 C   0  0  0  0  0  0  0  0  0  0  0  0
   37.2940   23.9580   31.9460 C   0  0  0  0  0  0  0  0  0  0  0  0
   38.9870   21.5280   33.4160 H   0  0  0  0  0  0  0  0  0  0  0  0
   36.7250   20.4570   33.2830 H   0  0  0  0  0  0  0  0  0  0  0  0
   34.8310   21.6810   32.2760 H   0  0  0  0  0  0  0  0  0  0  0  0
   34.0460   23.6050   31.2480 H   0  0  0  0  0  0  0  0  0  0  0  0
   34.2410   25.7960   30.3280 H   0  0  0  0  0  0  0  0  0  0  0  0
   36.3960   26.9210   30.3900 H   0  0  0  0  0  0  0  0  0  0  0  0
   39.6860   23.9140   32.5970 C   0  0  0  0  0  0  0  0  0  0  0  0
   40.0880   24.6610   33.7210 C   0  0  0  0  0  0  0  0  0  0  0  0
   41.3840   25.1870   33.7140 C   0  0  0  0  0  0  0  0  0  0  0  0
   42.2000   24.9640   32.6420 N   0  0  0  0  0  0  0  0  0  0  0  0
   41.7780   24.2390   31.5820 C   0  0  0  0  0  0  0  0  0  0  0  0
   40.5580   23.7370   31.5760 N   0  0  0  0  0  0  0  0  0  0  0  0
   41.7600   25.7730   34.5460 H   0  0  0  0  0  0  0  0  0  0  0  0
   42.3980   24.0450   30.7260 H   0  0  0  0  0  0  0  0  0  0  0  0
   39.2250   24.8560   34.7840 N   0  0  0  0  0  0  0  0  0  0  0  0
   38.2130   25.7470   34.8350 C   0  0  0  0  0  0  0  0  0  0  0  0
   37.5570   25.6910   36.0140 N   0  0  0  0  0  0  0  0  0  0  0  0
   38.1750   24.7280   36.7410 C   0  0  0  0  0  0  0  0  0  0  0  0
   37.9760   24.2100   37.9940 C   0  0  0  0  0  0  0  0  0  0  0  0
   38.7310   23.2240   38.5270 N   0  0  0  0  0  0  0  0  0  0  0  0
   39.7360   22.7510   37.7300 C   0  0  0  0  0  0  0  0  0  0  0  0
   39.9120   23.2660   36.5190 N   0  0  0  0  0  0  0  0  0  0  0  0
   39.1950   24.2320   35.9610 C   0  0  0  0  0  0  0  0  0  0  0  0
   37.7820   26.4910   34.1830 H   0  0  0  0  0  0  0  0  0  0  0  0
   37.1710   24.6060   38.6040 H   0  0  0  0  0  0  0  0  0  0  0  0
   40.4010   21.9630   38.0560 H   0  0  0  0  0  0  0  0  0  0  0  0
   38.6080   26.0450   31.2240 C   0  0  0  0  0  0  0  0  0  0  0  0
   39.3580   27.1130   31.8900 C   0  0  0  0  0  0  0  0  0  0  0  0
   40.3580   27.6090   31.1460 C   0  0  0  0  0  0  0  0  0  0  0  0
   40.6880   27.2120   29.9110 C   0  0  0  0  0  0  0  0  0  0  0  0
   39.4510   25.8460   29.5020 S   0  0  0  0  0  0  0  0  0  0  0  0
  1 17  1  0  0  0  0
  1  2  1  0  0  0  0
  2 11  1  0  0  0  0
  3  2  2  0  0  0  0
  3 12  1  0  0  0  0
  4  3  1  0  0  0  0
  5 10  1  0  0  0  0
  5  4  2  0  0  0  0
  6  5  1  0  0  0  0
  7  8  1  0  0  0  0
  7  6  2  0  0  0  0
  8  9  2  0  0  0  0
  9 10  1  0  0  0  0
 10  1  2  0  0  0  0
 13  4  1  0  0  0  0
 14  6  1  0  0  0  0
 15  7  1  0  0  0  0
 16  8  1  0  0  0  0
 17 18  1  0  0  0  0
 18 25  1  0  0  0  0
 19 18  2  0  0  0  0
 19 23  1  0  0  0  0
 20 19  1  0  0  0  0
 21 20  2  0  0  0  0
 22 21  1  0  0  0  0
 22 17  2  0  0  0  0
 24 21  1  0  0  0  0
 25 26  1  0  0  0  0
 25 33  1  0  0  0  0
 26 27  2  0  0  0  0
 27 28  1  0  0  0  0
 28 29  1  0  0  0  0
 29 30  2  0  0  0  0
 29 35  1  0  0  0  0
 31 36  1  0  0  0  0
 31 30  1  0  0  0  0
 32 31  2  0  0  0  0
 33 32  1  0  0  0  0
 33 28  2  0  0  0  0
 34 26  1  0  0  0  0
 37  9  1  0  0  0  0
 37 38  2  0  0  0  0
 39 38  1  0  0  0  0
 40 39  2  0  0  0  0
 41 40  1  0  0  0  0
 41 37  1  0  0  0  0
M  END
>  <minimizedAffinity>
-5.98276138

>  <minimizedRMSD>
1.87238932

$$$$
