
 OpenBabel03262519063D

 25 27  0  0  1  0  0  0  0  0999 V2000
   38.1250   23.3840   34.5600 C   0  0  2  0  0  0  0  0  0  0  0  0
   39.2370   23.8750   33.6730 C   0  0  0  0  0  0  0  0  0  0  0  0
   37.9780   24.6580   33.8180 C   0  0  2  0  0  0  0  0  0  0  0  0
   37.4520   22.5580   34.2560 H   0  0  0  0  0  0  0  0  0  0  0  0
   40.1810   24.1990   34.1380 H   0  0  0  0  0  0  0  0  0  0  0  0
   39.4030   23.2120   32.7840 H   0  0  0  0  0  0  0  0  0  0  0  0
   37.3440   24.6070   32.8850 H   0  0  0  0  0  0  0  0  0  0  0  0
   39.8320   22.8010   37.7720 C   0  0  0  0  0  0  0  0  0  0  0  0
   38.9600   23.3960   38.7300 C   0  0  0  0  0  0  0  0  0  0  0  0
   37.7800   23.9950   38.1970 C   0  0  0  0  0  0  0  0  0  0  0  0
   37.5690   23.9640   36.8700 N   0  0  0  0  0  0  0  0  0  0  0  0
   38.4400   23.3790   35.9930 C   0  0  0  0  0  0  0  0  0  0  0  0
   39.5610   22.8050   36.4580 N   0  0  0  0  0  0  0  0  0  0  0  0
   40.7220   22.3510   38.1840 H   0  0  0  0  0  0  0  0  0  0  0  0
   39.1850   23.3880   39.7850 H   0  0  0  0  0  0  0  0  0  0  0  0
   37.0870   24.4590   38.8880 H   0  0  0  0  0  0  0  0  0  0  0  0
   38.1270   26.0010   34.4330 C   0  0  0  0  0  0  0  0  0  0  0  0
   38.0020   25.9090   35.5320 H   0  0  0  0  0  0  0  0  0  0  0  0
   39.2020   26.2980   34.3020 H   0  0  0  0  0  0  0  0  0  0  0  0
   37.2100   27.0350   33.8910 C   0  0  0  0  0  0  0  0  0  0  0  0
   36.6920   28.0400   34.6210 N   0  0  0  0  0  0  0  0  0  0  0  0
   35.9190   28.7840   33.8510 O   0  0  0  0  0  0  0  0  0  0  0  0
   35.9250   28.2830   32.6390 C   0  0  0  0  0  0  0  0  0  0  0  0
   35.3270   28.8020   31.9050 H   0  0  0  0  0  0  0  0  0  0  0  0
   36.7110   27.2150   32.6550 N   0  0  0  0  0  0  0  0  0  0  0  0
  1  4  1  6  0  0  0
  1 12  1  0  0  0  0
  2  3  1  0  0  0  0
  2  5  1  0  0  0  0
  2  1  1  0  0  0  0
  3  7  1  6  0  0  0
  3 17  1  0  0  0  0
  3  1  1  0  0  0  0
  6  2  1  0  0  0  0
  8 14  1  0  0  0  0
  8  9  1  0  0  0  0
  9 15  1  0  0  0  0
 10  9  2  0  0  0  0
 10 16  1  0  0  0  0
 11 10  1  0  0  0  0
 12 13  1  0  0  0  0
 12 11  2  0  0  0  0
 13  8  2  0  0  0  0
 17 18  1  0  0  0  0
 19 17  1  0  0  0  0
 20 17  1  0  0  0  0
 20 21  2  0  0  0  0
 22 21  1  0  0  0  0
 23 25  2  0  0  0  0
 23 22  1  0  0  0  0
 24 23  1  0  0  0  0
 25 20  1  0  0  0  0
M  END
>  <minimizedAffinity>
-3.94205165

>  <minimizedRMSD>
3.52539968

$$$$
