
 OpenBabel03262519003D

 35 38  0  0  0  0  0  0  0  0999 V2000
   38.3770   25.7980   34.1190 C   0  0  0  0  0  0  0  0  0  0  0  0
   39.1120   26.4520   33.5320 H   0  0  0  0  0  0  0  0  0  0  0  0
   37.9540   26.5080   34.8190 H   0  0  0  0  0  0  0  0  0  0  0  0
   39.2620   24.7600   34.6450 C   0  0  0  0  0  0  0  0  0  0  0  0
   40.3020   24.2270   33.9090 C   0  0  0  0  0  0  0  0  0  0  0  0
   41.1270   23.2750   34.4200 C   0  0  0  0  0  0  0  0  0  0  0  0
   40.9550   22.7930   35.7220 C   0  0  0  0  0  0  0  0  0  0  0  0
   39.9130   23.3240   36.4680 C   0  0  0  0  0  0  0  0  0  0  0  0
   39.7370   22.8520   37.7590 C   0  0  0  0  0  0  0  0  0  0  0  0
   38.7090   23.3530   38.5430 C   0  0  0  0  0  0  0  0  0  0  0  0
   37.8670   24.3190   38.0310 C   0  0  0  0  0  0  0  0  0  0  0  0
   38.0750   24.7640   36.7400 C   0  0  0  0  0  0  0  0  0  0  0  0
   39.0860   24.2970   35.9160 C   0  0  0  0  0  0  0  0  0  0  0  0
   40.4320   24.5990   32.9070 H   0  0  0  0  0  0  0  0  0  0  0  0
   41.9500   22.8360   33.8670 H   0  0  0  0  0  0  0  0  0  0  0  0
   41.5950   22.0350   36.1570 H   0  0  0  0  0  0  0  0  0  0  0  0
   40.3760   22.0950   38.1960 H   0  0  0  0  0  0  0  0  0  0  0  0
   38.5860   22.9710   39.5530 H   0  0  0  0  0  0  0  0  0  0  0  0
   37.0710   24.6940   38.6620 H   0  0  0  0  0  0  0  0  0  0  0  0
   37.3700   25.5150   36.4180 H   0  0  0  0  0  0  0  0  0  0  0  0
   35.9280   25.8340   31.3890 C   0  0  0  0  0  0  0  0  0  0  0  0
   35.6680   24.4970   31.1310 C   0  0  0  0  0  0  0  0  0  0  0  0
   36.3460   23.5470   31.9150 C   0  0  0  0  0  0  0  0  0  0  0  0
   37.2150   23.9720   32.8800 N   0  0  0  0  0  0  0  0  0  0  0  0
   37.4260   25.2850   33.0860 C   0  0  0  0  0  0  0  0  0  0  0  0
   36.7910   26.2080   32.3510 N   0  0  0  0  0  0  0  0  0  0  0  0
   35.4060   26.5610   30.7860 H   0  0  0  0  0  0  0  0  0  0  0  0
   34.9760   24.1770   30.3600 H   0  0  0  0  0  0  0  0  0  0  0  0
   36.1160   22.1260   31.6930 C   0  0  0  0  0  0  0  0  0  0  0  0
   35.0660   21.5150   32.3340 C   0  0  0  0  0  0  0  0  0  0  0  0
   34.9300   20.1590   32.0570 C   0  0  0  0  0  0  0  0  0  0  0  0
   35.7850   19.5130   31.2110 N   0  0  0  0  0  0  0  0  0  0  0  0
   36.7860   20.1470   30.6150 C   0  0  0  0  0  0  0  0  0  0  0  0
   37.5120   19.7340   29.9350 H   0  0  0  0  0  0  0  0  0  0  0  0
   36.9500   21.4760   30.8630 N   0  0  0  0  0  0  0  0  0  0  0  0
  1  4  1  0  0  0  0
  1  3  1  0  0  0  0
  2  1  1  0  0  0  0
  4 13  1  0  0  0  0
  5  6  1  0  0  0  0
  5  4  2  0  0  0  0
  6  7  2  0  0  0  0
  7 16  1  0  0  0  0
  7  8  1  0  0  0  0
  8  9  1  0  0  0  0
  9 17  1  0  0  0  0
  9 10  2  0  0  0  0
 10 18  1  0  0  0  0
 11 10  1  0  0  0  0
 11 19  1  0  0  0  0
 12 11  2  0  0  0  0
 13  8  2  0  0  0  0
 13 12  1  0  0  0  0
 14  5  1  0  0  0  0
 15  6  1  0  0  0  0
 20 12  1  0  0  0  0
 21 26  1  0  0  0  0
 22 21  2  0  0  0  0
 22 23  1  0  0  0  0
 23 24  2  0  0  0  0
 24 25  1  0  0  0  0
 25  1  1  0  0  0  0
 26 25  2  0  0  0  0
 27 21  1  0  0  0  0
 28 22  1  0  0  0  0
 29 23  1  0  0  0  0
 29 30  1  0  0  0  0
 31 30  2  0  0  0  0
 32 31  1  0  0  0  0
 33 35  1  0  0  0  0
 33 32  2  0  0  0  0
 34 33  1  0  0  0  0
 35 29  2  0  0  0  0
M  END
>  <minimizedAffinity>
-6.29407597

>  <minimizedRMSD>
3.20098305

$$$$
