
 OpenBabel03262519323D

 41 45  0  0  0  0  0  0  0  0999 V2000
   42.6060   22.7630   36.2660 C   0  0  0  0  0  0  0  0  0  0  0  0
   42.4910   24.1460   36.2860 C   0  0  0  0  0  0  0  0  0  0  0  0
   43.7100   24.7160   36.1400 N   0  0  0  0  0  0  0  0  0  0  0  0
   44.6540   23.7480   36.0220 C   0  0  0  0  0  0  0  0  0  0  0  0
   46.0060   23.8060   35.8540 C   0  0  0  0  0  0  0  0  0  0  0  0
   46.7300   22.6230   35.7590 C   0  0  0  0  0  0  0  0  0  0  0  0
   46.0530   21.4140   35.8380 C   0  0  0  0  0  0  0  0  0  0  0  0
   44.6720   21.3520   36.0100 C   0  0  0  0  0  0  0  0  0  0  0  0
   43.9790   22.5290   36.1000 C   0  0  0  0  0  0  0  0  0  0  0  0
   41.5440   24.6790   36.4020 H   0  0  0  0  0  0  0  0  0  0  0  0
   43.8920   25.7560   36.1220 H   0  0  0  0  0  0  0  0  0  0  0  0
   46.4460   24.7840   35.8040 H   0  0  0  0  0  0  0  0  0  0  0  0
   47.7780   22.7680   35.6290 H   0  0  0  0  0  0  0  0  0  0  0  0
   46.7640   20.6180   35.7480 H   0  0  0  0  0  0  0  0  0  0  0  0
   44.0740   20.0310   36.0850 C   0  0  0  0  0  0  0  0  0  0  0  0
   43.7640   19.3440   34.9390 C   0  0  0  0  0  0  0  0  0  0  0  0
   43.1920   18.0980   34.8800 C   0  0  0  0  0  0  0  0  0  0  0  0
   42.8910   17.4590   36.0400 N   0  0  0  0  0  0  0  0  0  0  0  0
   43.1820   18.1100   37.1780 C   0  0  0  0  0  0  0  0  0  0  0  0
   43.0020   17.7320   38.1920 H   0  0  0  0  0  0  0  0  0  0  0  0
   43.7350   19.3110   37.1380 N   0  0  0  0  0  0  0  0  0  0  0  0
   41.5750   21.8760   36.3880 O   0  0  0  0  0  0  0  0  0  0  0  0
   40.2400   22.1990   36.5210 C   0  0  0  0  0  0  0  0  0  0  0  0
   39.8710   22.8780   37.6820 C   0  0  0  0  0  0  0  0  0  0  0  0
   38.5040   23.2080   37.8180 C   0  0  0  0  0  0  0  0  0  0  0  0
   37.6410   22.8610   36.8450 N   0  0  0  0  0  0  0  0  0  0  0  0
   38.0610   22.2000   35.7370 C   0  0  0  0  0  0  0  0  0  0  0  0
   39.3330   21.8770   35.5800 N   0  0  0  0  0  0  0  0  0  0  0  0
   37.2080   21.7960   34.6610 N   0  0  0  0  0  0  0  0  0  0  0  0
   37.5040   22.1440   33.3860 C   0  0  0  0  0  0  0  0  0  0  0  0
   36.6280   21.7160   32.3830 C   0  0  0  0  0  0  0  0  0  0  0  0
   35.5000   20.9650   32.6730 C   0  0  0  0  0  0  0  0  0  0  0  0
   34.7020   20.5710   31.7840 O   0  0  0  0  0  0  0  0  0  0  0  0
   35.2580   20.6500   33.9590 N   0  0  0  0  0  0  0  0  0  0  0  0
   36.0980   21.0590   34.9320 C   0  0  0  0  0  0  0  0  0  0  0  0
   35.8830   20.7700   36.1360 O   0  0  0  0  0  0  0  0  0  0  0  0
   40.5320   23.1660   38.4680 H   0  0  0  0  0  0  0  0  0  0  0  0
   38.1630   23.7320   38.6930 H   0  0  0  0  0  0  0  0  0  0  0  0
   38.3770   22.7250   33.1700 H   0  0  0  0  0  0  0  0  0  0  0  0
   36.8300   21.9730   31.3610 H   0  0  0  0  0  0  0  0  0  0  0  0
   34.4080   20.0810   34.1930 H   0  0  0  0  0  0  0  0  0  0  0  0
  1  2  2  0  0  0  0
  1 22  1  0  0  0  0
  2 10  1  0  0  0  0
  3  2  1  0  0  0  0
  4  9  1  0  0  0  0
  4  3  1  0  0  0  0
  5  4  2  0  0  0  0
  6  7  2  0  0  0  0
  6  5  1  0  0  0  0
  7  8  1  0  0  0  0
  8 15  1  0  0  0  0
  8  9  2  0  0  0  0
  9  1  1  0  0  0  0
 11  3  1  0  0  0  0
 12  5  1  0  0  0  0
 13  6  1  0  0  0  0
 14  7  1  0  0  0  0
 15 21  1  0  0  0  0
 16 15  2  0  0  0  0
 17 16  1  0  0  0  0
 17 18  2  0  0  0  0
 18 19  1  0  0  0  0
 19 20  1  0  0  0  0
 21 19  2  0  0  0  0
 22 23  1  0  0  0  0
 23 24  1  0  0  0  0
 24 25  2  0  0  0  0
 24 37  1  0  0  0  0
 25 38  1  0  0  0  0
 26 25  1  0  0  0  0
 27 26  2  0  0  0  0
 28 27  1  0  0  0  0
 28 23  2  0  0  0  0
 29 35  1  0  0  0  0
 29 27  1  0  0  0  0
 30 29  1  0  0  0  0
 31 32  1  0  0  0  0
 31 30  2  0  0  0  0
 32 34  1  0  0  0  0
 33 32  2  0  0  0  0
 34 41  1  0  0  0  0
 34 35  1  0  0  0  0
 35 36  2  0  0  0  0
 39 30  1  0  0  0  0
 40 31  1  0  0  0  0
M  END
>  <minimizedAffinity>
-5.81986141

>  <minimizedRMSD>
2.46834111

$$$$
