
 OpenBabel03262519593D

 33 36  0  0  1  0  0  0  0  0999 V2000
   39.6450   22.1890   34.4770 C   0  0  1  0  0  0  0  0  0  0  0  0
   40.7450   23.1040   34.3350 C   0  0  0  0  0  0  0  0  0  0  0  0
   39.7580   23.2390   35.5390 C   0  0  1  0  0  0  0  0  0  0  0  0
   39.9200   21.1290   34.7790 H   0  0  0  0  0  0  0  0  0  0  0  0
   41.7660   22.7590   34.5910 H   0  0  0  0  0  0  0  0  0  0  0  0
   40.7680   23.9410   33.6140 H   0  0  0  0  0  0  0  0  0  0  0  0
   38.0800   22.8040   32.6190 C   0  0  0  0  0  0  0  0  0  0  0  0
   36.7540   22.5540   32.2970 C   0  0  0  0  0  0  0  0  0  0  0  0
   36.3130   21.7690   33.3140 N   0  0  0  0  0  0  0  0  0  0  0  0
   37.3270   21.5870   34.1590 C   0  0  0  0  0  0  0  0  0  0  0  0
   38.4260   22.2160   33.7540 N   0  0  0  0  0  0  0  0  0  0  0  0
   36.2650   22.9510   31.3940 H   0  0  0  0  0  0  0  0  0  0  0  0
   37.0730   20.9670   35.0150 H   0  0  0  0  0  0  0  0  0  0  0  0
   38.9960   23.6000   31.8060 C   0  0  0  0  0  0  0  0  0  0  0  0
   39.8400   22.9550   30.8760 C   0  0  0  0  0  0  0  0  0  0  0  0
   40.7090   23.7640   30.1070 C   0  0  0  0  0  0  0  0  0  0  0  0
   40.6640   25.1060   30.3240 N   0  0  0  0  0  0  0  0  0  0  0  0
   39.8420   25.6820   31.2230 C   0  0  0  0  0  0  0  0  0  0  0  0
   39.0010   24.9350   31.9720 N   0  0  0  0  0  0  0  0  0  0  0  0
   39.8010   21.8800   30.7790 H   0  0  0  0  0  0  0  0  0  0  0  0
   41.3610   23.2930   29.3920 H   0  0  0  0  0  0  0  0  0  0  0  0
   39.9330   26.7510   31.2680 H   0  0  0  0  0  0  0  0  0  0  0  0
   39.2140   24.6320   35.5070 C   0  0  0  0  0  0  0  0  0  0  0  0
   37.9660   25.1030   35.7570 C   0  0  0  0  0  3  0  0  0  0  0  0
   37.7560   26.4610   35.6490 C   0  0  0  0  0  3  0  0  0  0  0  0
   38.7380   27.3090   35.3100 N   0  0  0  0  0  0  0  0  0  0  0  0
   39.9750   26.8320   35.0640 C   0  0  0  0  0  0  0  0  0  0  0  0
   40.7210   27.5610   34.7960 H   0  0  0  0  0  0  0  0  0  0  0  0
   40.2030   25.5070   35.1630 N   0  0  0  0  0  0  0  0  0  0  0  0
   40.4360   22.8490   36.8310 C   0  0  0  0  0  0  0  0  0  0  0  0
   39.6470   23.1980   37.9070 F   0  0  0  0  0  0  0  0  0  0  0  0
   40.4600   21.3870   36.8950 F   0  0  0  0  0  0  0  0  0  0  0  0
   41.7150   23.2390   36.9330 F   0  0  0  0  0  0  0  0  0  0  0  0
  1  4  1  1  0  0  0
  1  3  1  0  0  0  0
  2  1  1  0  0  0  0
  2  5  1  0  0  0  0
  2  3  1  0  0  0  0
  3 30  1  1  0  0  0
  6  2  1  0  0  0  0
  7 11  1  0  0  0  0
  8  7  2  0  0  0  0
  8  9  1  0  0  0  0
  9 10  2  0  0  0  0
 10 13  1  0  0  0  0
 11 10  1  0  0  0  0
 11  1  1  0  0  0  0
 12  8  1  0  0  0  0
 14 19  1  0  0  0  0
 14  7  1  0  0  0  0
 15 14  2  0  0  0  0
 16 17  2  0  0  0  0
 16 15  1  0  0  0  0
 17 18  1  0  0  0  0
 18 22  1  0  0  0  0
 18 19  2  0  0  0  0
 20 15  1  0  0  0  0
 21 16  1  0  0  0  0
 23  3  1  0  0  0  0
 23 24  1  0  0  0  0
 25 24  2  0  0  0  0
 26 25  1  0  0  0  0
 27 29  1  0  0  0  0
 27 26  2  0  0  0  0
 28 27  1  0  0  0  0
 29 23  2  0  0  0  0
 30 32  1  0  0  0  0
 30 33  1  0  0  0  0
 30 31  1  0  0  0  0
M  END
>  <minimizedAffinity>
-4.3504858

>  <minimizedRMSD>
3.54077601

$$$$
