
 OpenBabel03262519183D

 39 43  0  0  0  0  0  0  0  0999 V2000
   36.3470   28.3020   33.6880 C   0  0  0  0  0  0  0  0  0  0  0  0
   35.5950   29.1410   34.5330 C   0  0  0  0  0  0  0  0  0  0  0  0
   34.8220   30.0620   33.8960 C   0  0  0  0  0  0  0  0  0  0  0  0
   34.8320   30.0970   32.5190 C   0  0  0  0  0  0  0  0  0  0  0  0
   36.0130   28.7470   32.0350 S   0  0  0  0  0  0  0  0  0  0  0  0
   35.6230   29.0690   35.6200 H   0  0  0  0  0  0  0  0  0  0  0  0
   37.0520   26.5230   35.3520 C   0  0  0  0  0  0  0  0  0  0  0  0
   37.2410   27.2700   34.2040 C   0  0  0  0  0  0  0  0  0  0  0  0
   38.3990   27.0660   33.4180 C   0  0  0  0  0  0  0  0  0  0  0  0
   39.2740   26.1250   33.8550 N   0  0  0  0  0  0  0  0  0  0  0  0
   39.0560   25.4030   34.9980 C   0  0  0  0  0  0  0  0  0  0  0  0
   37.9540   25.6200   35.7150 N   0  0  0  0  0  0  0  0  0  0  0  0
   36.1400   26.7690   35.8590 H   0  0  0  0  0  0  0  0  0  0  0  0
   38.5880   27.6280   32.5110 H   0  0  0  0  0  0  0  0  0  0  0  0
   40.0690   24.4200   35.3810 C   0  0  0  0  0  0  0  0  0  0  0  0
   41.2910   24.5830   34.8070 C   0  0  0  0  0  0  0  0  0  0  0  0
   42.2970   23.1660   35.5150 S   0  0  0  0  0  0  0  0  0  0  0  0
   40.7390   22.6070   36.5150 C   0  0  0  0  0  0  0  0  0  0  0  0
   40.0390   23.3970   36.1710 N   0  0  0  0  0  0  0  0  0  0  0  0
   40.7560   21.4800   37.3620 N   0  0  0  0  0  0  0  0  0  0  0  0
   41.8660   25.2280   34.1040 H   0  0  0  0  0  0  0  0  0  0  0  0
   40.7100   21.5720   38.4060 H   0  0  0  0  0  0  0  0  0  0  0  0
   40.8150   20.5430   36.8840 H   0  0  0  0  0  0  0  0  0  0  0  0
   34.1840   30.8730   31.5220 C   0  0  0  0  0  0  0  0  0  0  0  0
   34.7880   31.6460   30.8070 O   0  0  0  0  0  0  0  0  0  0  0  0
   32.7450   30.7500   31.3380 N   0  0  0  0  0  0  0  0  0  0  0  0
   32.5260   30.3820   30.3770 H   0  0  0  0  0  0  0  0  0  0  0  0
   31.7800   30.8530   31.7070 H   0  0  0  0  0  0  0  0  0  0  0  0
   33.7620   31.2710   34.7010 S   0  0  0  0  0  0  0  0  0  0  0  0
   34.7890   32.6580   35.1410 C   0  0  0  0  0  0  0  0  0  0  0  0
   35.9990   32.6300   34.4370 C   0  0  0  0  0  0  0  0  0  0  0  0
   36.9610   33.6250   34.6260 C   0  0  0  0  0  0  0  0  0  0  0  0
   36.7050   34.6330   35.5140 C   0  0  0  0  0  0  0  0  0  0  0  0
   35.5250   34.6760   36.2150 C   0  0  0  0  0  0  0  0  0  0  0  0
   35.1730   35.6310   37.1340 C   0  0  0  0  0  0  0  0  0  0  0  0
   33.9660   35.6000   37.8110 C   0  0  0  0  0  0  0  0  0  0  0  0
   33.0370   34.5780   37.5850 C   0  0  0  0  0  0  0  0  0  0  0  0
   33.3680   33.6050   36.6640 C   0  0  0  0  0  0  0  0  0  0  0  0
   34.5810   33.6930   36.0240 C   0  0  0  0  0  0  0  0  0  0  0  0
  1  8  1  0  0  0  0
  1  2  2  0  0  0  0
  2  6  1  0  0  0  0
  3  2  1  0  0  0  0
  3 29  1  0  0  0  0
  4  3  2  0  0  0  0
  5  4  1  0  0  0  0
  5  1  1  0  0  0  0
  7 12  1  0  0  0  0
  7 13  1  0  0  0  0
  8  7  2  0  0  0  0
  9 10  2  0  0  0  0
  9  8  1  0  0  0  0
 10 11  1  0  0  0  0
 11 15  1  0  0  0  0
 11 12  2  0  0  0  0
 14  9  1  0  0  0  0
 15 19  1  0  0  0  0
 16 15  2  0  0  0  0
 16 17  1  0  0  0  0
 17 18  1  0  0  0  0
 18 20  1  0  0  0  0
 19 18  2  0  0  0  0
 20 22  1  0  0  0  0
 21 16  1  0  0  0  0
 23 20  1  0  0  0  0
 24  4  1  0  0  0  0
 25 24  2  0  0  0  0
 26 24  1  0  0  0  0
 26 28  1  0  0  0  0
 27 26  1  0  0  0  0
 29 30  1  0  0  0  0
 30 39  1  0  0  0  0
 31 32  1  0  0  0  0
 31 30  2  0  0  0  0
 32 33  2  0  0  0  0
 33 34  1  0  0  0  0
 34 35  1  0  0  0  0
 35 36  2  0  0  0  0
 37 36  1  0  0  0  0
 38 37  2  0  0  0  0
 39 34  2  0  0  0  0
 39 38  1  0  0  0  0
M  END
>  <minimizedAffinity>
-5.89582586

>  <minimizedRMSD>
2.4806459

$$$$
