
 OpenBabel03262519093D

 35 38  0  0  1  0  0  0  0  0999 V2000
   37.1940   26.8740   33.8970 C   0  0  0  0  0  0  0  0  0  0  0  0
   37.1180   25.8810   33.3670 H   0  0  0  0  0  0  0  0  0  0  0  0
   36.4340   26.8220   34.7050 H   0  0  0  0  0  0  0  0  0  0  0  0
   36.7140   27.8880   32.9360 C   0  0  0  0  0  0  0  0  0  0  0  0
   37.1550   28.2050   31.6720 C   0  0  0  0  0  0  0  0  0  0  0  0
   36.5940   29.1830   30.8830 C   0  0  0  0  0  0  0  0  0  0  0  0
   35.5230   29.8800   31.4100 C   0  0  0  0  0  0  0  0  0  0  0  0
   35.1030   29.5480   32.6680 C   0  0  0  0  0  0  0  0  0  0  0  0
   35.6610   28.5900   33.4250 N   0  0  0  0  0  0  0  0  0  0  0  0
   37.9960   27.5940   31.3690 H   0  0  0  0  0  0  0  0  0  0  0  0
   37.0690   29.3060   29.8980 H   0  0  0  0  0  0  0  0  0  0  0  0
   35.1200   30.6330   30.7540 H   0  0  0  0  0  0  0  0  0  0  0  0
   33.9680   30.2910   33.2210 C   0  0  0  0  0  0  0  0  0  0  0  0
   33.1210   29.8480   34.1790 C   0  0  0  0  0  0  0  0  0  0  0  0
   32.0590   30.5680   34.6840 C   0  0  0  0  0  0  0  0  0  0  0  0
   31.8390   31.8040   34.1900 N   0  0  0  0  0  0  0  0  0  0  0  0
   32.6600   32.2790   33.2370 C   0  0  0  0  0  0  0  0  0  0  0  0
   32.4770   33.2750   32.8450 H   0  0  0  0  0  0  0  0  0  0  0  0
   33.6830   31.5490   32.7710 N   0  0  0  0  0  0  0  0  0  0  0  0
   39.3450   26.1310   35.2320 C   0  0  2  0  0  0  0  0  0  0  0  0
   38.7250   27.3460   35.8210 C   0  0  0  0  0  0  0  0  0  0  0  0
   38.5810   27.0550   34.3580 C   0  0  2  0  0  0  0  0  0  0  0  0
   40.4190   26.1140   35.0360 H   0  0  0  0  0  0  0  0  0  0  0  0
   39.3830   28.2030   36.1380 H   0  0  0  0  0  0  0  0  0  0  0  0
   37.8660   27.2170   36.5090 H   0  0  0  0  0  0  0  0  0  0  0  0
   39.1820   27.7500   33.6980 H   0  0  0  0  0  0  0  0  0  0  0  0
   37.5510   23.5330   37.0970 C   0  0  0  0  0  0  0  0  0  0  0  0
   37.6360   22.3810   36.2820 C   0  0  0  0  0  0  0  0  0  0  0  0
   38.3390   22.5530   35.0630 C   0  0  0  0  0  0  0  0  0  0  0  0
   38.8650   23.7640   34.7640 N   0  0  0  0  0  0  0  0  0  0  0  0
   38.7420   24.8390   35.6020 C   0  0  0  0  0  0  0  0  0  0  0  0
   38.0740   24.7190   36.7880 N   0  0  0  0  0  0  0  0  0  0  0  0
   37.0100   23.3790   38.0220 H   0  0  0  0  0  0  0  0  0  0  0  0
   37.1900   21.4470   36.5850 H   0  0  0  0  0  0  0  0  0  0  0  0
   38.4190   21.6990   34.4300 H   0  0  0  0  0  0  0  0  0  0  0  0
  1 22  1  0  0  0  0
  1  3  1  0  0  0  0
  2  1  1  0  0  0  0
  4  9  1  0  0  0  0
  4  1  1  0  0  0  0
  5  4  2  0  0  0  0
  6  7  2  0  0  0  0
  6  5  1  0  0  0  0
  7  8  1  0  0  0  0
  8 13  1  0  0  0  0
  8  9  2  0  0  0  0
 10  5  1  0  0  0  0
 11  6  1  0  0  0  0
 12  7  1  0  0  0  0
 13 14  1  0  0  0  0
 14 15  2  0  0  0  0
 16 15  1  0  0  0  0
 17 16  2  0  0  0  0
 18 17  1  0  0  0  0
 19 13  2  0  0  0  0
 19 17  1  0  0  0  0
 20 23  1  6  0  0  0
 20 31  1  0  0  0  0
 20 21  1  0  0  0  0
 21 24  1  0  0  0  0
 21 25  1  0  0  0  0
 22 26  1  6  0  0  0
 22 20  1  0  0  0  0
 22 21  1  0  0  0  0
 27 33  1  0  0  0  0
 28 34  1  0  0  0  0
 28 27  2  0  0  0  0
 29 28  1  0  0  0  0
 30 29  2  0  0  0  0
 30 31  1  0  0  0  0
 31 32  2  0  0  0  0
 32 27  1  0  0  0  0
 35 29  1  0  0  0  0
M  END
>  <minimizedAffinity>
-5.02454758

>  <minimizedRMSD>
5.16349316

$$$$
