
 OpenBabel03262516303D

 41 43  0  0  0  0  0  0  0  0999 V2000
   37.7950   23.1170   33.9020 C   0  0  0  0  0  0  0  0  0  0  0  0
   38.1340   24.4570   33.8300 C   0  0  0  0  0  0  0  0  0  0  0  0
   38.9150   25.0460   34.7920 C   0  0  0  0  0  0  0  0  0  0  0  0
   39.3340   24.2560   35.8070 N   0  0  0  0  0  0  0  0  0  0  0  0
   39.0030   22.9420   35.8810 C   0  0  0  0  0  0  0  0  0  0  0  0
   38.2390   22.3670   34.9360 N   0  0  0  0  0  0  0  0  0  0  0  0
   37.7550   25.0130   32.9830 H   0  0  0  0  0  0  0  0  0  0  0  0
   39.3760   22.3720   36.7220 H   0  0  0  0  0  0  0  0  0  0  0  0
   36.9750   22.4220   32.9230 C   0  0  0  0  0  0  0  0  0  0  0  0
   36.3190   21.2330   33.2600 C   0  0  0  0  0  0  0  0  0  0  0  0
   35.6210   20.7910   32.1640 C   0  0  0  0  0  0  0  0  0  0  0  0
   35.8840   21.7380   31.2050 C   0  0  0  0  0  0  0  0  0  0  0  0
   36.6910   22.6870   31.6970 O   0  0  0  0  0  0  0  0  0  0  0  0
   36.3140   20.6810   34.2130 H   0  0  0  0  0  0  0  0  0  0  0  0
   35.5450   21.8040   30.1790 H   0  0  0  0  0  0  0  0  0  0  0  0
   34.7750   19.5950   31.9950 C   0  0  0  0  0  0  0  0  0  0  0  0
   34.7080   19.3200   30.9460 H   0  0  0  0  0  0  0  0  0  0  0  0
   33.7630   19.8200   32.4220 H   0  0  0  0  0  0  0  0  0  0  0  0
   35.2790   18.4180   32.8550 C   0  0  0  0  0  0  0  0  0  0  0  0
   36.1260   18.8380   33.4470 H   0  0  0  0  0  0  0  0  0  0  0  0
   34.4950   18.1280   33.5660 H   0  0  0  0  0  0  0  0  0  0  0  0
   35.7080   17.2940   31.9850 C   0  0  0  0  0  0  0  0  0  0  0  0
   36.6440   17.5020   30.9840 C   0  0  0  0  0  0  0  0  0  0  0  0
   37.0640   16.4660   30.1560 C   0  0  0  0  0  0  0  0  0  0  0  0
   37.7880   16.7510   29.4240 H   0  0  0  0  0  0  0  0  0  0  0  0
   36.5700   15.2220   30.3030 N   0  0  0  0  0  0  0  0  0  0  0  0
   35.6610   15.0370   31.2810 C   0  0  0  0  0  0  0  0  0  0  0  0
   35.2470   16.0340   32.0890 N   0  0  0  0  0  0  0  0  0  0  0  0
   39.2870   26.4660   34.7380 C   0  0  0  0  0  0  0  0  0  0  0  0
   38.6950   27.2620   35.8860 C   0  0  0  0  0  0  0  0  0  0  0  0
   39.4950   27.7640   36.4650 H   0  0  0  0  0  0  0  0  0  0  0  0
   38.0170   28.0590   35.5150 H   0  0  0  0  0  0  0  0  0  0  0  0
   38.0690   26.6110   36.5480 H   0  0  0  0  0  0  0  0  0  0  0  0
   38.8190   27.1130   33.4360 C   0  0  0  0  0  0  0  0  0  0  0  0
   39.3270   28.1040   33.3370 H   0  0  0  0  0  0  0  0  0  0  0  0
   37.7260   27.3000   33.4530 H   0  0  0  0  0  0  0  0  0  0  0  0
   39.1270   26.5210   32.5580 H   0  0  0  0  0  0  0  0  0  0  0  0
   40.7970   26.5540   34.7670 C   0  0  0  0  0  0  0  0  0  0  0  0
   41.2730   25.6120   34.4160 H   0  0  0  0  0  0  0  0  0  0  0  0
   41.1440   26.7150   35.8070 H   0  0  0  0  0  0  0  0  0  0  0  0
   41.1920   27.3980   34.1680 H   0  0  0  0  0  0  0  0  0  0  0  0
  1  6  1  0  0  0  0
  2  1  2  0  0  0  0
  2  3  1  0  0  0  0
  3  4  2  0  0  0  0
  4  5  1  0  0  0  0
  5  8  1  0  0  0  0
  6  5  2  0  0  0  0
  7  2  1  0  0  0  0
  9 10  2  0  0  0  0
  9  1  1  0  0  0  0
 10 14  1  0  0  0  0
 11 10  1  0  0  0  0
 12 13  1  0  0  0  0
 12 11  2  0  0  0  0
 13  9  1  0  0  0  0
 15 12  1  0  0  0  0
 16 11  1  0  0  0  0
 16 18  1  0  0  0  0
 16 19  1  0  0  0  0
 17 16  1  0  0  0  0
 19 20  1  0  0  0  0
 19 21  1  0  0  0  0
 22 28  1  0  0  0  0
 22 19  1  0  0  0  0
 23 22  2  0  0  0  0
 24 26  2  0  0  0  0
 24 23  1  0  0  0  0
 25 24  1  0  0  0  0
 26 27  1  0  0  0  0
 27 28  2  0  0  0  0
 29 38  1  0  0  0  0
 29  3  1  0  0  0  0
 29 30  1  0  0  0  0
 30 31  1  0  0  0  0
 30 33  1  0  0  0  0
 32 30  1  0  0  0  0
 34 36  1  0  0  0  0
 34 29  1  0  0  0  0
 35 34  1  0  0  0  0
 37 34  1  0  0  0  0
 38 40  1  0  0  0  0
 39 38  1  0  0  0  0
 41 38  1  0  0  0  0
M  END
>  <minimizedAffinity>
-5.15057468

>  <minimizedRMSD>
1.64626205

$$$$
