
 OpenBabel03262519593D

 33 36  0  0  1  0  0  0  0  0999 V2000
   39.3900   23.8050   34.5660 C   0  0  1  0  0  0  0  0  0  0  0  0
   38.4830   24.4650   35.4640 C   0  0  0  0  0  0  0  0  0  0  0  0
   38.8710   22.9690   35.6950 C   0  0  1  0  0  0  0  0  0  0  0  0
   40.4770   24.1300   34.6320 H   0  0  0  0  0  0  0  0  0  0  0  0
   38.8890   25.1830   36.2040 H   0  0  0  0  0  0  0  0  0  0  0  0
   37.4230   24.6750   35.2340 H   0  0  0  0  0  0  0  0  0  0  0  0
   38.5050   23.8560   32.2220 C   0  0  0  0  0  0  0  0  0  0  0  0
   38.4080   22.9630   31.1640 C   0  0  0  0  0  0  0  0  0  0  0  0
   38.9710   21.8250   31.6440 N   0  0  0  0  0  0  0  0  0  0  0  0
   39.3620   22.0580   32.8970 C   0  0  0  0  0  0  0  0  0  0  0  0
   39.0840   23.3020   33.2760 N   0  0  0  0  0  0  0  0  0  0  0  0
   37.9570   23.2220   30.1930 H   0  0  0  0  0  0  0  0  0  0  0  0
   39.8280   21.1990   33.3730 H   0  0  0  0  0  0  0  0  0  0  0  0
   38.0460   25.2420   32.1840 C   0  0  0  0  0  0  0  0  0  0  0  0
   38.9640   26.2700   31.8790 C   0  0  0  0  0  0  0  0  0  0  0  0
   38.4770   27.5980   31.8500 C   0  0  0  0  0  0  0  0  0  0  0  0
   37.1560   27.7820   32.1190 N   0  0  0  0  0  0  0  0  0  0  0  0
   36.3130   26.7700   32.4050 C   0  0  0  0  0  0  0  0  0  0  0  0
   36.7500   25.4920   32.4410 N   0  0  0  0  0  0  0  0  0  0  0  0
   39.9960   26.0200   31.6810 H   0  0  0  0  0  0  0  0  0  0  0  0
   39.1590   28.3980   31.6200 H   0  0  0  0  0  0  0  0  0  0  0  0
   35.3040   27.0880   32.5920 H   0  0  0  0  0  0  0  0  0  0  0  0
   37.5970   22.1870   35.7410 C   0  0  0  0  0  0  0  0  0  0  0  0
   36.9970   21.4140   34.8000 C   0  0  0  0  0  3  0  0  0  0  0  0
   35.8050   20.8030   35.1330 C   0  0  0  0  0  3  0  0  0  0  0  0
   35.2410   20.9530   36.3400 N   0  0  0  0  0  0  0  0  0  0  0  0
   35.8450   21.7220   37.2680 C   0  0  0  0  0  0  0  0  0  0  0  0
   35.3440   21.8050   38.2180 H   0  0  0  0  0  0  0  0  0  0  0  0
   37.0090   22.3300   36.9650 N   0  0  0  0  0  0  0  0  0  0  0  0
   39.7500   22.8270   36.9150 C   0  0  0  0  0  0  0  0  0  0  0  0
   40.1160   21.5090   37.0870 F   0  0  0  0  0  0  0  0  0  0  0  0
   41.0210   23.4920   36.6250 F   0  0  0  0  0  0  0  0  0  0  0  0
   39.2740   23.4180   38.0200 F   0  0  0  0  0  0  0  0  0  0  0  0
  1  4  1  1  0  0  0
  1  2  1  0  0  0  0
  1  3  1  0  0  0  0
  2  3  1  0  0  0  0
  2  5  1  0  0  0  0
  3 23  1  0  0  0  0
  3 30  1  1  0  0  0
  6  2  1  0  0  0  0
  7 11  1  0  0  0  0
  8  9  1  0  0  0  0
  8  7  2  0  0  0  0
  9 10  2  0  0  0  0
 10 11  1  0  0  0  0
 10 13  1  0  0  0  0
 11  1  1  0  0  0  0
 12  8  1  0  0  0  0
 14  7  1  0  0  0  0
 14 19  1  0  0  0  0
 15 14  2  0  0  0  0
 16 15  1  0  0  0  0
 16 17  2  0  0  0  0
 17 18  1  0  0  0  0
 18 19  2  0  0  0  0
 18 22  1  0  0  0  0
 20 15  1  0  0  0  0
 21 16  1  0  0  0  0
 23 29  1  0  0  0  0
 24 25  1  0  0  0  0
 24 23  2  0  0  0  0
 25 26  2  0  0  0  0
 26 27  1  0  0  0  0
 27 28  1  0  0  0  0
 29 27  2  0  0  0  0
 30 31  1  0  0  0  0
 30 33  1  0  0  0  0
 32 30  1  0  0  0  0
M  END
>  <minimizedAffinity>
-4.33287191

>  <minimizedRMSD>
2.38521028

$$$$
