
 OpenBabel03262518133D

 23 25  0  0  0  0  0  0  0  0999 V2000
   42.5420   20.8130   37.0610 C   0  0  0  0  0  0  0  0  0  0  0  0
   41.4510   21.4940   37.6060 C   0  0  0  0  0  0  0  0  0  0  0  0
   40.5920   22.1520   36.7160 C   0  0  0  0  0  0  0  0  0  0  0  0
   40.8730   22.0880   35.3820 N   0  0  0  0  0  0  0  0  0  0  0  0
   41.9290   21.4240   34.9080 C   0  0  0  0  0  0  0  0  0  0  0  0
   42.7540   20.7930   35.7400 N   0  0  0  0  0  0  0  0  0  0  0  0
   43.2180   20.2980   37.7180 H   0  0  0  0  0  0  0  0  0  0  0  0
   41.2860   21.5050   38.6780 H   0  0  0  0  0  0  0  0  0  0  0  0
   39.4370   22.8760   37.2670 C   0  0  0  0  0  0  0  0  0  0  0  0
   38.5970   23.6740   36.5030 C   0  0  0  0  0  0  0  0  0  0  0  0
   37.6740   24.1520   37.3710 N   0  0  0  0  0  0  0  0  0  0  0  0
   37.9590   23.6560   38.5940 C   0  0  0  0  0  0  0  0  0  0  0  0
   39.0310   22.8720   38.5650 N   0  0  0  0  0  0  0  0  0  0  0  0
   38.6980   23.8510   35.4270 H   0  0  0  0  0  0  0  0  0  0  0  0
   37.3690   23.8860   39.4720 H   0  0  0  0  0  0  0  0  0  0  0  0
   39.4930   22.3530   39.3200 H   0  0  0  0  0  0  0  0  0  0  0  0
   42.1350   21.4200   33.4710 C   0  0  0  0  0  0  0  0  0  0  0  0
   43.2260   22.0340   32.8730 C   0  0  0  0  0  0  0  0  0  0  0  0
   43.3860   22.0070   31.4890 C   0  0  0  0  0  0  0  0  0  0  0  0
   42.4670   21.3730   30.7030 N   0  0  0  0  0  0  0  0  0  0  0  0
   41.4190   20.7880   31.3240 C   0  0  0  0  0  0  0  0  0  0  0  0
   40.7280   20.3040   30.6530 H   0  0  0  0  0  0  0  0  0  0  0  0
   41.2450   20.8020   32.6660 N   0  0  0  0  0  0  0  0  0  0  0  0
  1  2  1  0  0  0  0
  1  7  1  0  0  0  0
  2  8  1  0  0  0  0
  3  9  1  0  0  0  0
  3  2  2  0  0  0  0
  4  3  1  0  0  0  0
  5  4  2  0  0  0  0
  5  6  1  0  0  0  0
  6  1  2  0  0  0  0
  9 13  1  0  0  0  0
 10  9  2  0  0  0  0
 10 11  1  0  0  0  0
 11 12  2  0  0  0  0
 12 15  1  0  0  0  0
 13 12  1  0  0  0  0
 13 16  1  0  0  0  0
 14 10  1  0  0  0  0
 17  5  1  0  0  0  0
 18 17  1  0  0  0  0
 19 18  2  0  0  0  0
 20 21  2  0  0  0  0
 20 19  1  0  0  0  0
 21 23  1  0  0  0  0
 22 21  1  0  0  0  0
 23 17  2  0  0  0  0
M  END
>  <minimizedAffinity>
-3.74467182

>  <minimizedRMSD>
0.146775752

$$$$
