
 OpenBabel03262519413D

 39 42  0  0  1  0  0  0  0  0999 V2000
   37.8190   25.2510   34.2630 N   0  0  0  0  0  0  0  0  0  0  0  0
   37.2040   25.1240   32.9550 C   0  0  0  0  0  0  0  0  0  0  0  0
   37.0480   26.5210   32.4540 C   0  0  0  0  0  0  0  0  0  0  0  0
   37.6600   27.3770   33.5520 C   0  0  0  0  0  0  0  0  0  0  0  0
   38.6990   26.3610   34.1120 C   0  0  2  0  0  0  0  0  0  0  0  0
   36.2010   24.6890   33.0900 H   0  0  0  0  0  0  0  0  0  0  0  0
   37.8250   24.5130   32.2840 H   0  0  0  0  0  0  0  0  0  0  0  0
   37.5470   26.7050   31.4830 H   0  0  0  0  0  0  0  0  0  0  0  0
   35.9750   26.8510   32.3850 H   0  0  0  0  0  0  0  0  0  0  0  0
   36.9580   27.6030   34.3550 H   0  0  0  0  0  0  0  0  0  0  0  0
   38.1930   28.2490   33.1390 H   0  0  0  0  0  0  0  0  0  0  0  0
   39.0490   26.7950   35.0520 H   0  0  0  0  0  0  0  0  0  0  0  0
   38.6180   24.1050   34.5750 C   0  0  0  0  0  0  0  0  0  0  0  0
   38.0570   23.2210   34.1540 H   0  0  0  0  0  0  0  0  0  0  0  0
   39.5530   24.1400   34.0490 H   0  0  0  0  0  0  0  0  0  0  0  0
   37.9140   24.1700   38.2800 C   0  0  0  0  0  0  0  0  0  0  0  0
   37.7860   24.4370   36.9180 C   0  0  0  0  0  0  0  0  0  0  0  0
   38.7220   23.8550   36.0250 C   0  0  0  0  0  0  0  0  0  0  0  0
   39.6920   23.0660   36.5750 N   0  0  0  0  0  0  0  0  0  0  0  0
   39.7650   22.8440   37.9060 C   0  0  0  0  0  0  0  0  0  0  0  0
   38.8750   23.3990   38.7370 N   0  0  0  0  0  0  0  0  0  0  0  0
   37.1930   24.6200   38.9450 H   0  0  0  0  0  0  0  0  0  0  0  0
   37.0090   25.0610   36.5380 H   0  0  0  0  0  0  0  0  0  0  0  0
   40.6050   22.1910   38.1380 H   0  0  0  0  0  0  0  0  0  0  0  0
   39.7140   26.1210   33.2210 O   0  0  0  0  0  0  0  0  0  0  0  0
   40.4750   27.2250   32.9520 C   0  0  2  0  0  0  0  0  0  0  0  0
   41.6030   27.0570   31.9870 C   0  0  0  0  0  0  0  0  0  0  0  0
   41.8590   27.3890   33.4290 C   0  0  2  0  0  0  0  0  0  0  0  0
   39.8960   28.1550   33.0470 H   0  0  0  0  0  0  0  0  0  0  0  0
   41.8990   26.0240   31.6730 H   0  0  0  0  0  0  0  0  0  0  0  0
   41.7880   27.8240   31.2060 H   0  0  0  0  0  0  0  0  0  0  0  0
   42.1920   28.4360   33.5960 H   0  0  0  0  0  0  0  0  0  0  0  0
   42.6480   26.4420   34.2110 C   0  0  0  0  0  0  0  0  0  0  0  0
   42.1520   25.3260   34.8970 C   0  0  0  0  0  0  0  0  0  0  0  0
   42.8990   24.4340   35.6350 C   0  0  0  0  0  0  0  0  0  0  0  0
   44.2240   24.6250   35.7230 N   0  0  0  0  0  0  0  0  0  0  0  0
   44.7330   25.6770   35.0820 C   0  0  0  0  0  0  0  0  0  0  0  0
   45.8110   25.8920   35.1120 H   0  0  0  0  0  0  0  0  0  0  0  0
   44.0010   26.5440   34.3640 N   0  0  0  0  0  0  0  0  0  0  0  0
  1 13  1  0  0  0  0
  2  6  1  0  0  0  0
  2  1  1  0  0  0  0
  3  2  1  0  0  0  0
  3  4  1  0  0  0  0
  4  5  1  0  0  0  0
  4 10  1  0  0  0  0
  5  1  1  0  0  0  0
  5 12  1  1  0  0  0
  7  2  1  0  0  0  0
  8  3  1  0  0  0  0
  9  3  1  0  0  0  0
 11  4  1  0  0  0  0
 13 18  1  0  0  0  0
 14 13  1  0  0  0  0
 15 13  1  0  0  0  0
 16 21  1  0  0  0  0
 16 22  1  0  0  0  0
 17 16  2  0  0  0  0
 18 19  2  0  0  0  0
 18 17  1  0  0  0  0
 19 20  1  0  0  0  0
 20 24  1  0  0  0  0
 20 21  2  0  0  0  0
 23 17  1  0  0  0  0
 25  5  1  0  0  0  0
 26 29  1  6  0  0  0
 26 25  1  0  0  0  0
 26 28  1  0  0  0  0
 27 26  1  0  0  0  0
 27 28  1  0  0  0  0
 28 32  1  1  0  0  0
 28 33  1  0  0  0  0
 30 27  1  0  0  0  0
 31 27  1  0  0  0  0
 33 39  2  0  0  0  0
 33 34  1  0  0  0  0
 34 35  2  0  0  0  0
 35 36  1  0  0  0  0
 37 38  1  0  0  0  0
 37 36  2  0  0  0  0
 39 37  1  0  0  0  0
M  END
>  <minimizedAffinity>
-4.55043173

>  <minimizedRMSD>
1.56137967

$$$$
