
 OpenBabel03262519563D

 30 33  0  0  1  0  0  0  0  0999 V2000
   37.8810   24.5890   33.9030 C   0  0  0  0  0  0  0  0  0  0  0  0
   38.2300   24.1600   35.1830 C   0  0  0  0  0  0  0  0  0  0  0  0
   37.9340   25.2460   35.9680 N   0  0  0  0  0  0  0  0  0  0  0  0
   37.4610   26.1960   35.1960 C   0  0  0  0  0  0  0  0  0  0  0  0
   37.4080   25.8320   33.8930 N   0  0  0  0  0  0  0  0  0  0  0  0
   38.6310   23.1880   35.4060 H   0  0  0  0  0  0  0  0  0  0  0  0
   37.1460   27.1720   35.5750 H   0  0  0  0  0  0  0  0  0  0  0  0
   38.0130   23.7750   32.7020 C   0  0  0  0  0  0  0  0  0  0  0  0
   39.0870   23.9770   31.8240 C   0  0  0  0  0  0  0  0  0  0  0  0
   39.1650   23.1630   30.6770 C   0  0  0  0  0  0  0  0  0  0  0  0
   38.2100   22.2360   30.4830 N   0  0  0  0  0  0  0  0  0  0  0  0
   37.1770   22.0630   31.3540 C   0  0  0  0  0  0  0  0  0  0  0  0
   37.0740   22.8210   32.4540 N   0  0  0  0  0  0  0  0  0  0  0  0
   39.8260   24.7370   32.0290 H   0  0  0  0  0  0  0  0  0  0  0  0
   39.9890   23.2960   29.9730 H   0  0  0  0  0  0  0  0  0  0  0  0
   36.4240   21.3080   31.1690 H   0  0  0  0  0  0  0  0  0  0  0  0
   36.9350   26.6680   32.8290 C   0  0  1  0  0  0  0  0  0  0  0  0
   36.6320   28.0760   33.0030 C   0  0  0  0  0  0  0  0  0  0  0  0
   37.9660   27.7110   32.4100 C   0  0  2  0  0  0  0  0  0  0  0  0
   36.4090   26.0900   32.0420 H   0  0  0  0  0  0  0  0  0  0  0  0
   35.8710   28.5710   32.3560 H   0  0  0  0  0  0  0  0  0  0  0  0
   36.6960   28.5650   33.9980 H   0  0  0  0  0  0  0  0  0  0  0  0
   38.8740   27.8570   33.0030 H   0  0  0  0  0  0  0  0  0  0  0  0
   38.0890   27.9950   30.9470 C   0  0  0  0  0  0  0  0  0  0  0  0
   37.2230   28.9340   30.4160 C   0  0  0  0  0  3  0  0  0  0  0  0
   37.3960   29.1450   29.0580 C   0  0  0  0  0  3  0  0  0  0  0  0
   38.3050   28.5080   28.3240 N   0  0  0  0  0  0  0  0  0  0  0  0
   39.1290   27.6010   28.8770 C   0  0  0  0  0  0  0  0  0  0  0  0
   39.9140   26.9970   28.4410 H   0  0  0  0  0  0  0  0  0  0  0  0
   39.0100   27.3470   30.2140 N   0  0  0  0  0  0  0  0  0  0  0  0
  1  2  2  0  0  0  0
  2  6  1  0  0  0  0
  2  3  1  0  0  0  0
  4  7  1  0  0  0  0
  4  3  2  0  0  0  0
  5  1  1  0  0  0  0
  5  4  1  0  0  0  0
  8  1  1  0  0  0  0
  9 14  1  0  0  0  0
  9  8  2  0  0  0  0
 10  9  1  0  0  0  0
 11 10  2  0  0  0  0
 11 12  1  0  0  0  0
 12 13  2  0  0  0  0
 13  8  1  0  0  0  0
 15 10  1  0  0  0  0
 16 12  1  0  0  0  0
 17 20  1  6  0  0  0
 17 18  1  0  0  0  0
 17  5  1  0  0  0  0
 18 22  1  0  0  0  0
 19 17  1  0  0  0  0
 19 18  1  0  0  0  0
 19 23  1  1  0  0  0
 21 18  1  0  0  0  0
 24 19  1  0  0  0  0
 25 24  1  0  0  0  0
 26 25  2  0  0  0  0
 27 28  2  0  0  0  0
 27 26  1  0  0  0  0
 28 30  1  0  0  0  0
 29 28  1  0  0  0  0
 30 24  2  0  0  0  0
M  END
>  <minimizedAffinity>
-4.01788712

>  <minimizedRMSD>
7.66203165

$$$$
