
 OpenBabel03262519563D

 30 33  0  0  1  0  0  0  0  0999 V2000
   37.8060   25.4040   32.9150 C   0  0  0  0  0  0  0  0  0  0  0  0
   37.1360   26.3290   33.7140 C   0  0  0  0  0  0  0  0  0  0  0  0
   37.6210   27.5340   33.2700 N   0  0  0  0  0  0  0  0  0  0  0  0
   38.4830   27.3030   32.3090 C   0  0  0  0  0  0  0  0  0  0  0  0
   38.6340   25.9830   32.0500 N   0  0  0  0  0  0  0  0  0  0  0  0
   36.4240   26.0670   34.4740 H   0  0  0  0  0  0  0  0  0  0  0  0
   39.0170   28.0980   31.7820 H   0  0  0  0  0  0  0  0  0  0  0  0
   37.6270   23.9620   33.0060 C   0  0  0  0  0  0  0  0  0  0  0  0
   38.4430   23.1980   33.8520 C   0  0  0  0  0  0  0  0  0  0  0  0
   38.2280   21.8070   33.9010 C   0  0  0  0  0  0  0  0  0  0  0  0
   37.2530   21.2830   33.1360 N   0  0  0  0  0  0  0  0  0  0  0  0
   36.4750   22.0500   32.3230 C   0  0  0  0  0  0  0  0  0  0  0  0
   36.6560   23.3750   32.2540 N   0  0  0  0  0  0  0  0  0  0  0  0
   39.2120   23.6720   34.4440 H   0  0  0  0  0  0  0  0  0  0  0  0
   38.8480   21.1850   34.5500 H   0  0  0  0  0  0  0  0  0  0  0  0
   35.7000   21.5970   31.7200 H   0  0  0  0  0  0  0  0  0  0  0  0
   39.5090   25.4400   31.0520 C   0  0  1  0  0  0  0  0  0  0  0  0
   39.0320   24.6860   29.9070 C   0  0  0  0  0  0  0  0  0  0  0  0
   39.3580   26.1420   29.7050 C   0  0  2  0  0  0  0  0  0  0  0  0
   40.5280   25.2490   31.4440 H   0  0  0  0  0  0  0  0  0  0  0  0
   39.6840   23.9170   29.4300 H   0  0  0  0  0  0  0  0  0  0  0  0
   37.9570   24.4390   29.7800 H   0  0  0  0  0  0  0  0  0  0  0  0
   38.5430   26.8550   29.5450 H   0  0  0  0  0  0  0  0  0  0  0  0
   40.6080   26.3920   28.9270 C   0  0  0  0  0  0  0  0  0  0  0  0
   40.8490   25.5640   27.8450 C   0  0  0  0  0  3  0  0  0  0  0  0
   42.0250   25.8550   27.1720 C   0  0  0  0  0  3  0  0  0  0  0  0
   42.8510   26.8360   27.5240 N   0  0  0  0  0  0  0  0  0  0  0  0
   42.5810   27.6210   28.5840 C   0  0  0  0  0  0  0  0  0  0  0  0
   43.1300   28.4500   29.0070 H   0  0  0  0  0  0  0  0  0  0  0  0
   41.4370   27.3860   29.2900 N   0  0  0  0  0  0  0  0  0  0  0  0
  1  8  1  0  0  0  0
  1  2  2  0  0  0  0
  2  6  1  0  0  0  0
  3  2  1  0  0  0  0
  4  3  2  0  0  0  0
  5  4  1  0  0  0  0
  5  1  1  0  0  0  0
  7  4  1  0  0  0  0
  8  9  1  0  0  0  0
  9 10  2  0  0  0  0
  9 14  1  0  0  0  0
 10 15  1  0  0  0  0
 11 10  1  0  0  0  0
 12 11  2  0  0  0  0
 13 12  1  0  0  0  0
 13  8  2  0  0  0  0
 16 12  1  0  0  0  0
 17 20  1  1  0  0  0
 17  5  1  0  0  0  0
 18 17  1  0  0  0  0
 19 23  1  6  0  0  0
 19 18  1  0  0  0  0
 19 17  1  0  0  0  0
 21 18  1  0  0  0  0
 22 18  1  0  0  0  0
 24 30  1  0  0  0  0
 24 19  1  0  0  0  0
 25 24  2  0  0  0  0
 26 27  2  0  0  0  0
 26 25  1  0  0  0  0
 27 28  1  0  0  0  0
 28 29  1  0  0  0  0
 28 30  2  0  0  0  0
M  END
>  <minimizedAffinity>
-2.96882224

>  <minimizedRMSD>
7.70456743

$$$$
