
 OpenBabel03262519573D

 30 33  0  0  1  0  0  0  0  0999 V2000
   39.8610   23.7860   31.7250 C   0  0  0  0  0  0  0  0  0  0  0  0
   38.5780   23.8360   32.2660 C   0  0  0  0  0  0  0  0  0  0  0  0
   38.3900   25.1750   32.5020 N   0  0  0  0  0  0  0  0  0  0  0  0
   39.4720   25.8150   32.1270 C   0  0  0  0  0  0  0  0  0  0  0  0
   40.4230   24.9880   31.6330 N   0  0  0  0  0  0  0  0  0  0  0  0
   37.9550   22.9750   32.4230 H   0  0  0  0  0  0  0  0  0  0  0  0
   39.5820   26.9000   32.2080 H   0  0  0  0  0  0  0  0  0  0  0  0
   40.5260   22.5600   31.3040 C   0  0  0  0  0  0  0  0  0  0  0  0
   41.3990   21.8920   32.1730 C   0  0  0  0  0  0  0  0  0  0  0  0
   42.0150   20.7110   31.7130 C   0  0  0  0  0  0  0  0  0  0  0  0
   41.7350   20.2860   30.4690 N   0  0  0  0  0  0  0  0  0  0  0  0
   40.8820   20.9570   29.6450 C   0  0  0  0  0  0  0  0  0  0  0  0
   40.2810   22.0820   30.0530 N   0  0  0  0  0  0  0  0  0  0  0  0
   41.5880   22.2800   33.1630 H   0  0  0  0  0  0  0  0  0  0  0  0
   42.7010   20.1690   32.3670 H   0  0  0  0  0  0  0  0  0  0  0  0
   40.6780   20.5880   28.6490 H   0  0  0  0  0  0  0  0  0  0  0  0
   41.7050   25.4120   31.1490 C   0  0  1  0  0  0  0  0  0  0  0  0
   42.3440   24.8250   29.9850 C   0  0  0  0  0  0  0  0  0  0  0  0
   41.6080   26.1260   29.8040 C   0  0  2  0  0  0  0  0  0  0  0  0
   42.3300   25.8590   31.9480 H   0  0  0  0  0  0  0  0  0  0  0  0
   43.4560   24.8190   29.8990 H   0  0  0  0  0  0  0  0  0  0  0  0
   41.8920   23.9680   29.4440 H   0  0  0  0  0  0  0  0  0  0  0  0
   40.6630   26.1330   29.2510 H   0  0  0  0  0  0  0  0  0  0  0  0
   42.4930   27.3130   29.6010 C   0  0  0  0  0  0  0  0  0  0  0  0
   43.5960   27.1390   28.7840 C   0  0  0  0  0  3  0  0  0  0  0  0
   44.3700   28.2800   28.6420 C   0  0  0  0  0  3  0  0  0  0  0  0
   44.0860   29.4390   29.2310 N   0  0  0  0  0  0  0  0  0  0  0  0
   43.0030   29.5680   30.0190 C   0  0  0  0  0  0  0  0  0  0  0  0
   42.6240   30.4190   30.5680 H   0  0  0  0  0  0  0  0  0  0  0  0
   42.1990   28.4790   30.1990 N   0  0  0  0  0  0  0  0  0  0  0  0
  1  2  2  0  0  0  0
  2  6  1  0  0  0  0
  2  3  1  0  0  0  0
  4  7  1  0  0  0  0
  4  3  2  0  0  0  0
  5  1  1  0  0  0  0
  5  4  1  0  0  0  0
  8  1  1  0  0  0  0
  8  9  1  0  0  0  0
  9 14  1  0  0  0  0
 10  9  2  0  0  0  0
 10 15  1  0  0  0  0
 11 10  1  0  0  0  0
 12 13  1  0  0  0  0
 12 11  2  0  0  0  0
 13  8  2  0  0  0  0
 16 12  1  0  0  0  0
 17  5  1  0  0  0  0
 17 20  1  1  0  0  0
 18 17  1  0  0  0  0
 19 23  1  6  0  0  0
 19 18  1  0  0  0  0
 19 17  1  0  0  0  0
 21 18  1  0  0  0  0
 22 18  1  0  0  0  0
 24 19  1  0  0  0  0
 24 30  1  0  0  0  0
 25 24  2  0  0  0  0
 26 25  1  0  0  0  0
 26 27  2  0  0  0  0
 27 28  1  0  0  0  0
 28 30  2  0  0  0  0
 28 29  1  0  0  0  0
M  END
>  <minimizedAffinity>
-1.34507203

>  <minimizedRMSD>
9.27719593

$$$$
