
 OpenBabel03262519363D

 31 33  0  0  1  0  0  0  0  0999 V2000
   37.7180   23.9030   33.6660 N   0  0  0  0  0  0  0  0  0  0  0  0
   37.9730   22.6390   33.0210 C   0  0  0  0  0  0  0  0  0  0  0  0
   37.1070   22.6620   31.7790 C   0  0  0  0  0  0  0  0  0  0  0  0
   36.4240   24.0220   31.8290 C   0  0  0  0  0  0  0  0  0  0  0  0
   37.5430   24.7880   32.5720 C   0  0  1  0  0  0  0  0  0  0  0  0
   37.7850   21.7640   33.6720 H   0  0  0  0  0  0  0  0  0  0  0  0
   39.0440   22.6260   32.7310 H   0  0  0  0  0  0  0  0  0  0  0  0
   36.3730   21.8390   31.7630 H   0  0  0  0  0  0  0  0  0  0  0  0
   37.7430   22.5850   30.8730 H   0  0  0  0  0  0  0  0  0  0  0  0
   35.4890   24.0050   32.3960 H   0  0  0  0  0  0  0  0  0  0  0  0
   36.3510   24.4090   30.8010 H   0  0  0  0  0  0  0  0  0  0  0  0
   38.4020   24.8230   31.8740 H   0  0  0  0  0  0  0  0  0  0  0  0
   36.9730   26.1180   32.8380 C   0  0  0  0  0  0  0  0  0  0  0  0
   37.0710   26.9410   33.9330 C   0  0  0  0  0  0  0  0  0  0  0  0
   36.4750   28.1780   34.0290 C   0  0  0  0  0  0  0  0  0  0  0  0
   35.7330   28.6560   33.0050 N   0  0  0  0  0  0  0  0  0  0  0  0
   35.6450   27.8390   31.9390 C   0  0  0  0  0  0  0  0  0  0  0  0
   35.0510   28.2100   31.1060 H   0  0  0  0  0  0  0  0  0  0  0  0
   36.2160   26.6320   31.8220 N   0  0  0  0  0  0  0  0  0  0  0  0
   38.8980   24.3610   34.3890 C   0  0  0  0  0  0  0  0  0  0  0  0
   39.0990   25.4320   34.2080 H   0  0  0  0  0  0  0  0  0  0  0  0
   39.7830   23.8300   33.9340 H   0  0  0  0  0  0  0  0  0  0  0  0
   37.8640   24.0950   38.0080 C   0  0  0  0  0  0  0  0  0  0  0  0
   37.8920   24.4460   36.6580 C   0  0  0  0  0  0  0  0  0  0  0  0
   38.8860   23.9710   35.8120 C   0  0  0  0  0  0  0  0  0  0  0  0
   39.8240   23.1500   36.3660 N   0  0  0  0  0  0  0  0  0  0  0  0
   39.7920   22.8130   37.6780 C   0  0  0  0  0  0  0  0  0  0  0  0
   38.8260   23.2800   38.4830 N   0  0  0  0  0  0  0  0  0  0  0  0
   37.1050   24.4470   38.7030 H   0  0  0  0  0  0  0  0  0  0  0  0
   37.1010   25.0800   36.3510 H   0  0  0  0  0  0  0  0  0  0  0  0
   40.5270   22.1650   38.1300 H   0  0  0  0  0  0  0  0  0  0  0  0
  1 20  1  0  0  0  0
  2  1  1  0  0  0  0
  2  6  1  0  0  0  0
  3  4  1  0  0  0  0
  3  2  1  0  0  0  0
  4 10  1  0  0  0  0
  4  5  1  0  0  0  0
  5 12  1  6  0  0  0
  5 13  1  0  0  0  0
  5  1  1  0  0  0  0
  7  2  1  0  0  0  0
  8  3  1  0  0  0  0
  9  3  1  0  0  0  0
 11  4  1  0  0  0  0
 13 14  1  0  0  0  0
 14 15  2  0  0  0  0
 16 15  1  0  0  0  0
 17 16  2  0  0  0  0
 18 17  1  0  0  0  0
 19 17  1  0  0  0  0
 19 13  2  0  0  0  0
 20 25  1  0  0  0  0
 21 20  1  0  0  0  0
 22 20  1  0  0  0  0
 23 28  1  0  0  0  0
 23 29  1  0  0  0  0
 24 23  2  0  0  0  0
 25 26  2  0  0  0  0
 25 24  1  0  0  0  0
 26 27  1  0  0  0  0
 27 31  1  0  0  0  0
 27 28  2  0  0  0  0
 30 24  1  0  0  0  0
M  END
>  <minimizedAffinity>
-4.59461927

>  <minimizedRMSD>
3.22785902

$$$$
