
 OpenBabel03262519593D

 33 36  0  0  1  0  0  0  0  0999 V2000
   39.1460   24.6600   36.1780 C   0  0  1  0  0  0  0  0  0  0  0  0
   37.7600   25.0290   36.2680 C   0  0  0  0  0  0  0  0  0  0  0  0
   38.2480   23.6610   36.8380 C   0  0  1  0  0  0  0  0  0  0  0  0
   39.8410   25.2480   36.8730 H   0  0  0  0  0  0  0  0  0  0  0  0
   37.0730   24.9600   35.4110 H   0  0  0  0  0  0  0  0  0  0  0  0
   37.4250   25.7950   37.0050 H   0  0  0  0  0  0  0  0  0  0  0  0
   39.6420   24.4150   33.7410 C   0  0  0  0  0  0  0  0  0  0  0  0
   40.5540   23.7050   32.9590 C   0  0  0  0  0  0  0  0  0  0  0  0
   41.2960   23.0220   33.8700 N   0  0  0  0  0  0  0  0  0  0  0  0
   40.8340   23.3260   35.0860 C   0  0  0  0  0  0  0  0  0  0  0  0
   39.8180   24.1790   35.0270 N   0  0  0  0  0  0  0  0  0  0  0  0
   40.5780   23.7590   31.8710 H   0  0  0  0  0  0  0  0  0  0  0  0
   41.3700   22.8220   35.8850 H   0  0  0  0  0  0  0  0  0  0  0  0
   38.6290   25.3130   33.2080 C   0  0  0  0  0  0  0  0  0  0  0  0
   38.8690   26.7030   33.1910 C   0  0  0  0  0  0  0  0  0  0  0  0
   37.8580   27.5350   32.6610 C   0  0  0  0  0  0  0  0  0  0  0  0
   36.7240   26.9390   32.2060 N   0  0  0  0  0  0  0  0  0  0  0  0
   36.5360   25.5990   32.2420 C   0  0  0  0  0  0  0  0  0  0  0  0
   37.4770   24.7810   32.7380 N   0  0  0  0  0  0  0  0  0  0  0  0
   39.8110   27.0530   33.5830 H   0  0  0  0  0  0  0  0  0  0  0  0
   38.0420   28.5880   32.6500 H   0  0  0  0  0  0  0  0  0  0  0  0
   35.5820   25.2870   31.8410 H   0  0  0  0  0  0  0  0  0  0  0  0
   37.4290   22.5920   36.1800 C   0  0  0  0  0  0  0  0  0  0  0  0
   37.5670   21.9780   34.9510 C   0  0  0  0  0  3  0  0  0  0  0  0
   36.6560   21.0160   34.6060 C   0  0  0  0  0  3  0  0  0  0  0  0
   35.6220   20.6550   35.4540 C   0  0  0  0  0  0  0  0  0  0  0  0
   34.9420   19.8910   35.1180 H   0  0  0  0  0  0  0  0  0  0  0  0
   35.5090   21.2850   36.6760 C   0  0  0  0  0  3  0  0  0  0  0  0
   36.4080   22.2300   37.0080 N   0  0  0  0  0  0  0  0  0  0  0  0
   38.2010   23.6630   38.3490 C   0  0  0  0  0  0  0  0  0  0  0  0
   37.5050   22.5630   38.8040 F   0  0  0  0  0  0  0  0  0  0  0  0
   39.5600   23.4230   38.8370 F   0  0  0  0  0  0  0  0  0  0  0  0
   37.8200   24.8260   38.8960 F   0  0  0  0  0  0  0  0  0  0  0  0
  1  2  1  0  0  0  0
  1  3  1  0  0  0  0
  1  4  1  1  0  0  0
  2  3  1  0  0  0  0
  2  6  1  0  0  0  0
  3 30  1  1  0  0  0
  5  2  1  0  0  0  0
  7 11  1  0  0  0  0
  8  7  2  0  0  0  0
  8  9  1  0  0  0  0
  9 10  2  0  0  0  0
 10 13  1  0  0  0  0
 11 10  1  0  0  0  0
 11  1  1  0  0  0  0
 12  8  1  0  0  0  0
 14  7  1  0  0  0  0
 15 14  1  0  0  0  0
 15 20  1  0  0  0  0
 16 15  2  0  0  0  0
 17 18  2  0  0  0  0
 17 16  1  0  0  0  0
 18 19  1  0  0  0  0
 19 14  2  0  0  0  0
 21 16  1  0  0  0  0
 22 18  1  0  0  0  0
 23  3  1  0  0  0  0
 23 29  1  0  0  0  0
 24 23  2  0  0  0  0
 25 24  1  0  0  0  0
 25 26  2  0  0  0  0
 26 28  1  0  0  0  0
 27 26  1  0  0  0  0
 28 29  2  0  0  0  0
 30 31  1  0  0  0  0
 30 32  1  0  0  0  0
 30 33  1  0  0  0  0
M  END
>  <minimizedAffinity>
-5.43843269

>  <minimizedRMSD>
2.42847562

$$$$
