
 OpenBabel03262520003D

 33 36  0  0  1  0  0  0  0  0999 V2000
   39.5870   22.4740   35.8920 C   0  0  1  0  0  0  0  0  0  0  0  0
   40.2620   23.4610   36.6880 C   0  0  0  0  0  0  0  0  0  0  0  0
   38.7630   23.6540   36.3020 C   0  0  1  0  0  0  0  0  0  0  0  0
   39.3660   21.4910   36.4370 H   0  0  0  0  0  0  0  0  0  0  0  0
   40.9540   24.1980   36.2540 H   0  0  0  0  0  0  0  0  0  0  0  0
   40.4880   23.2640   37.7610 H   0  0  0  0  0  0  0  0  0  0  0  0
   40.6480   22.6370   33.6350 C   0  0  0  0  0  0  0  0  0  0  0  0
   40.3250   22.2520   32.3330 C   0  0  0  0  0  0  0  0  0  0  0  0
   39.1130   21.6500   32.4670 N   0  0  0  0  0  0  0  0  0  0  0  0
   38.7740   21.6930   33.7570 C   0  0  0  0  0  0  0  0  0  0  0  0
   39.7040   22.2950   34.4910 N   0  0  0  0  0  0  0  0  0  0  0  0
   40.9710   22.4400   31.4770 H   0  0  0  0  0  0  0  0  0  0  0  0
   37.8120   21.2320   33.9620 H   0  0  0  0  0  0  0  0  0  0  0  0
   41.8770   23.3200   34.0070 C   0  0  0  0  0  0  0  0  0  0  0  0
   42.9790   22.5710   34.4710 C   0  0  0  0  0  0  0  0  0  0  0  0
   44.1520   23.2780   34.8170 C   0  0  0  0  0  0  0  0  0  0  0  0
   44.1370   24.6310   34.6810 N   0  0  0  0  0  0  0  0  0  0  0  0
   43.0560   25.3100   34.2320 C   0  0  0  0  0  0  0  0  0  0  0  0
   41.9260   24.6680   33.8940 N   0  0  0  0  0  0  0  0  0  0  0  0
   42.8640   21.5000   34.5350 H   0  0  0  0  0  0  0  0  0  0  0  0
   44.9850   22.7070   35.1690 H   0  0  0  0  0  0  0  0  0  0  0  0
   43.2090   26.3780   34.1820 H   0  0  0  0  0  0  0  0  0  0  0  0
   38.6520   24.9780   35.6100 C   0  0  0  0  0  0  0  0  0  0  0  0
   39.3070   26.1720   35.8340 C   0  0  0  0  0  3  0  0  0  0  0  0
   39.0000   27.2360   35.0300 C   0  0  0  0  0  3  0  0  0  0  0  0
   38.0620   27.1360   34.0160 C   0  0  0  0  0  0  0  0  0  0  0  0
   37.8710   28.0140   33.4210 H   0  0  0  0  0  0  0  0  0  0  0  0
   37.4220   25.9300   33.8140 C   0  0  0  0  0  3  0  0  0  0  0  0
   37.7300   24.8890   34.6090 N   0  0  0  0  0  0  0  0  0  0  0  0
   37.8730   23.4900   37.5140 C   0  0  0  0  0  0  0  0  0  0  0  0
   36.8390   22.6230   37.2300 F   0  0  0  0  0  0  0  0  0  0  0  0
   38.6380   22.7730   38.5350 F   0  0  0  0  0  0  0  0  0  0  0  0
   37.4920   24.6400   38.0880 F   0  0  0  0  0  0  0  0  0  0  0  0
  1  3  1  0  0  0  0
  1  4  1  1  0  0  0
  1  2  1  0  0  0  0
  2  6  1  0  0  0  0
  3  2  1  0  0  0  0
  3 30  1  1  0  0  0
  5  2  1  0  0  0  0
  7 14  1  0  0  0  0
  7 11  1  0  0  0  0
  8  9  1  0  0  0  0
  8  7  2  0  0  0  0
  9 10  2  0  0  0  0
 10 13  1  0  0  0  0
 10 11  1  0  0  0  0
 11  1  1  0  0  0  0
 12  8  1  0  0  0  0
 14 15  1  0  0  0  0
 15 20  1  0  0  0  0
 15 16  2  0  0  0  0
 16 21  1  0  0  0  0
 17 16  1  0  0  0  0
 18 17  2  0  0  0  0
 19 14  2  0  0  0  0
 19 18  1  0  0  0  0
 22 18  1  0  0  0  0
 23 24  1  0  0  0  0
 23  3  1  0  0  0  0
 25 24  2  0  0  0  0
 26 25  1  0  0  0  0
 27 26  1  0  0  0  0
 28 26  2  0  0  0  0
 28 29  1  0  0  0  0
 29 23  2  0  0  0  0
 30 33  1  0  0  0  0
 30 32  1  0  0  0  0
 31 30  1  0  0  0  0
M  END
>  <minimizedAffinity>
-4.37683535

>  <minimizedRMSD>
4.1406312

$$$$
