
 OpenBabel03262519523D

 32 34  0  0  1  0  0  0  0  0999 V2000
   40.2190   25.0390   35.2640 C   0  0  0  0  0  0  0  0  0  0  0  0
   40.0810   26.0970   34.9630 H   0  0  0  0  0  0  0  0  0  0  0  0
   40.4220   25.1170   36.3740 H   0  0  0  0  0  0  0  0  0  0  0  0
   38.9210   24.2170   35.1490 C   0  0  2  0  0  0  0  0  0  0  0  0
   38.0260   24.3520   36.3530 C   0  0  0  0  0  0  0  0  0  0  0  0
   38.6450   23.0590   35.9130 C   0  0  1  0  0  0  0  0  0  0  0  0
   38.4620   24.4330   34.1490 H   0  0  0  0  0  0  0  0  0  0  0  0
   36.9570   24.6000   36.0830 H   0  0  0  0  0  0  0  0  0  0  0  0
   38.3530   24.9890   37.1510 H   0  0  0  0  0  0  0  0  0  0  0  0
   39.0440   22.3990   36.6160 H   0  0  0  0  0  0  0  0  0  0  0  0
   37.5600   22.1770   35.2860 C   0  0  0  0  0  0  0  0  0  0  0  0
   36.6160   21.5560   36.0500 C   0  0  0  0  0  0  0  0  0  0  0  0
   35.6340   20.7400   35.5660 C   0  0  0  0  0  0  0  0  0  0  0  0
   35.5730   20.5160   34.2040 C   0  0  0  0  0  0  0  0  0  0  0  0
   34.8460   19.8980   33.7230 H   0  0  0  0  0  0  0  0  0  0  0  0
   36.5280   21.1490   33.4590 C   0  0  0  0  0  0  0  0  0  0  0  0
   37.4830   21.9450   33.9560 N   0  0  0  0  0  0  0  0  0  0  0  0
   41.2920   24.2750   34.6580 C   0  0  0  0  0  0  0  0  0  0  0  0
   41.4820   24.8670   33.6830 H   0  0  0  0  0  0  0  0  0  0  0  0
   40.9520   23.3770   34.2250 H   0  0  0  0  0  0  0  0  0  0  0  0
   44.1920   23.7120   36.6840 C   0  0  0  0  0  0  0  0  0  0  0  0
   42.9160   23.4430   36.1210 C   0  0  0  0  0  0  0  0  0  0  0  0
   42.5350   24.4360   35.3120 C   0  0  0  0  0  0  0  0  0  0  0  0
   43.3220   25.5630   35.0860 N   0  0  0  0  0  0  0  0  0  0  0  0
   44.5030   25.7460   35.6460 C   0  0  0  0  0  0  0  0  0  0  0  0
   44.9360   24.8080   36.4520 N   0  0  0  0  0  0  0  0  0  0  0  0
   44.6850   23.0100   37.3830 H   0  0  0  0  0  0  0  0  0  0  0  0
   44.9990   26.6630   35.3800 H   0  0  0  0  0  0  0  0  0  0  0  0
   42.3360   22.2090   36.5160 C   0  0  0  0  0  0  0  0  0  0  0  0
   41.3130   22.3790   37.4830 F   0  0  0  0  0  0  0  0  0  0  0  0
   42.9750   21.3480   37.3290 F   0  0  0  0  0  0  0  0  0  0  0  0
   41.4350   21.5930   35.6570 F   0  0  0  0  0  0  0  0  0  0  0  0
  1  3  1  0  0  0  0
  2  1  1  0  0  0  0
  4  7  1  6  0  0  0
  4  1  1  0  0  0  0
  4  6  1  0  0  0  0
  4  5  1  0  0  0  0
  5  9  1  0  0  0  0
  6  5  1  0  0  0  0
  6 10  1  1  0  0  0
  8  5  1  0  0  0  0
 11  6  1  0  0  0  0
 11 12  1  0  0  0  0
 13 12  2  0  0  0  0
 14 13  1  0  0  0  0
 15 14  1  0  0  0  0
 16 17  1  0  0  0  0
 16 14  2  0  0  0  0
 17 11  2  0  0  0  0
 18  1  1  0  0  0  0
 18 23  1  0  0  0  0
 19 18  1  0  0  0  0
 20 18  1  0  0  0  0
 21 27  1  0  0  0  0
 22 29  1  0  0  0  0
 22 21  2  0  0  0  0
 23 22  1  0  0  0  0
 24 23  2  0  0  0  0
 24 25  1  0  0  0  0
 25 26  2  0  0  0  0
 26 21  1  0  0  0  0
 28 25  1  0  0  0  0
 29 31  1  0  0  0  0
 29 30  1  0  0  0  0
 32 29  1  0  0  0  0
M  END
>  <minimizedAffinity>
-4.56120825

>  <minimizedRMSD>
2.33583546

$$$$
