
 OpenBabel03262519573D

 30 33  0  0  1  0  0  0  0  0999 V2000
   38.1630   23.9460   34.5360 C   0  0  0  0  0  0  0  0  0  0  0  0
   38.3370   25.1950   33.9320 C   0  0  0  0  0  0  0  0  0  0  0  0
   37.9270   24.9880   32.6500 N   0  0  0  0  0  0  0  0  0  0  0  0
   37.5510   23.7240   32.5380 C   0  0  0  0  0  0  0  0  0  0  0  0
   37.6840   23.0490   33.6880 N   0  0  0  0  0  0  0  0  0  0  0  0
   38.7040   26.1270   34.3420 H   0  0  0  0  0  0  0  0  0  0  0  0
   37.1760   23.3100   31.5890 H   0  0  0  0  0  0  0  0  0  0  0  0
   38.4690   23.6600   35.9290 C   0  0  0  0  0  0  0  0  0  0  0  0
   39.6820   23.0740   36.2870 C   0  0  0  0  0  0  0  0  0  0  0  0
   39.9270   22.8190   37.6550 C   0  0  0  0  0  0  0  0  0  0  0  0
   38.9700   23.1580   38.5330 N   0  0  0  0  0  0  0  0  0  0  0  0
   37.8010   23.7240   38.1680 C   0  0  0  0  0  0  0  0  0  0  0  0
   37.5450   23.9780   36.8700 N   0  0  0  0  0  0  0  0  0  0  0  0
   40.4270   22.8150   35.5560 H   0  0  0  0  0  0  0  0  0  0  0  0
   40.8320   22.3740   38.0010 H   0  0  0  0  0  0  0  0  0  0  0  0
   37.0080   24.0110   38.8440 H   0  0  0  0  0  0  0  0  0  0  0  0
   37.3520   21.6600   33.8550 C   0  0  1  0  0  0  0  0  0  0  0  0
   36.2160   21.1900   34.6220 C   0  0  0  0  0  0  0  0  0  0  0  0
   36.0830   21.2740   33.1080 C   0  0  2  0  0  0  0  0  0  0  0  0
   38.2260   20.9740   33.7470 H   0  0  0  0  0  0  0  0  0  0  0  0
   36.2530   20.1880   35.1030 H   0  0  0  0  0  0  0  0  0  0  0  0
   35.5260   21.8680   35.1890 H   0  0  0  0  0  0  0  0  0  0  0  0
   35.4230   22.0640   32.7070 H   0  0  0  0  0  0  0  0  0  0  0  0
   36.0880   19.9460   32.4370 C   0  0  0  0  0  0  0  0  0  0  0  0
   36.6800   19.8520   31.1940 C   0  0  0  0  0  3  0  0  0  0  0  0
   36.6850   18.6080   30.5620 C   0  0  0  0  0  3  0  0  0  0  0  0
   36.0840   17.5430   31.2430 C   0  0  0  0  0  0  0  0  0  0  0  0
   36.0510   16.5530   30.8140 H   0  0  0  0  0  0  0  0  0  0  0  0
   35.5010   17.6570   32.4770 C   0  0  0  0  0  3  0  0  0  0  0  0
   35.5280   18.9000   33.0420 N   0  0  0  0  0  0  0  0  0  0  0  0
  1  8  1  0  0  0  0
  2  6  1  0  0  0  0
  2  1  2  0  0  0  0
  3  2  1  0  0  0  0
  4  3  2  0  0  0  0
  4  5  1  0  0  0  0
  5 17  1  0  0  0  0
  5  1  1  0  0  0  0
  7  4  1  0  0  0  0
  8  9  2  0  0  0  0
  8 13  1  0  0  0  0
  9 10  1  0  0  0  0
 10 15  1  0  0  0  0
 10 11  2  0  0  0  0
 12 11  1  0  0  0  0
 12 16  1  0  0  0  0
 13 12  2  0  0  0  0
 14  9  1  0  0  0  0
 17 20  1  6  0  0  0
 17 18  1  0  0  0  0
 18 21  1  0  0  0  0
 18 22  1  0  0  0  0
 19 23  1  6  0  0  0
 19 17  1  0  0  0  0
 19 18  1  0  0  0  0
 24 30  1  0  0  0  0
 24 19  1  0  0  0  0
 25 24  2  0  0  0  0
 26 25  1  0  0  0  0
 26 27  2  0  0  0  0
 27 29  1  0  0  0  0
 28 27  1  0  0  0  0
 29 30  2  0  0  0  0
M  END
>  <minimizedAffinity>
-4.83193302

>  <minimizedRMSD>
1.01148438

$$$$
