
 OpenBabel03262519223D

 27 30  0  0  0  0  0  0  0  0999 V2000
   37.7480   24.9960   33.7050 C   0  0  0  0  0  0  0  0  0  0  0  0
   37.8840   25.3850   35.0280 C   0  0  0  0  0  0  0  0  0  0  0  0
   37.6190   26.7220   35.3540 C   0  0  0  0  0  0  0  0  0  0  0  0
   37.2390   27.5890   34.3810 N   0  0  0  0  0  0  0  0  0  0  0  0
   37.1140   27.1830   33.0990 C   0  0  0  0  0  0  0  0  0  0  0  0
   37.3630   25.9210   32.7790 N   0  0  0  0  0  0  0  0  0  0  0  0
   37.7190   27.0410   36.3720 H   0  0  0  0  0  0  0  0  0  0  0  0
   36.8100   27.9250   32.3840 H   0  0  0  0  0  0  0  0  0  0  0  0
   38.2820   24.4740   36.0000 N   0  0  0  0  0  0  0  0  0  0  0  0
   37.5070   23.9590   36.9740 C   0  0  0  0  0  0  0  0  0  0  0  0
   38.1930   23.0980   37.7480 N   0  0  0  0  0  0  0  0  0  0  0  0
   39.4430   23.0610   37.2570 C   0  0  0  0  0  0  0  0  0  0  0  0
   40.5930   22.3810   37.5970 C   0  0  0  0  0  0  0  0  0  0  0  0
   41.7590   22.4980   36.9450 N   0  0  0  0  0  0  0  0  0  0  0  0
   41.7620   23.3530   35.8840 C   0  0  0  0  0  0  0  0  0  0  0  0
   40.6570   24.0050   35.5590 N   0  0  0  0  0  0  0  0  0  0  0  0
   39.4900   23.9200   36.1700 C   0  0  0  0  0  0  0  0  0  0  0  0
   36.4630   24.1580   37.1770 H   0  0  0  0  0  0  0  0  0  0  0  0
   40.5420   21.7100   38.4510 H   0  0  0  0  0  0  0  0  0  0  0  0
   42.6160   23.5650   35.2490 H   0  0  0  0  0  0  0  0  0  0  0  0
   37.9450   23.6380   33.2230 C   0  0  0  0  0  0  0  0  0  0  0  0
   39.0200   23.3440   32.4140 C   0  0  0  0  0  0  0  0  0  0  0  0
   39.3410   22.1220   31.8820 C   0  0  0  0  0  0  0  0  0  0  0  0
   38.5210   21.0560   32.1700 C   0  0  0  0  0  0  0  0  0  0  0  0
   38.6630   20.0460   31.8140 H   0  0  0  0  0  0  0  0  0  0  0  0
   37.4420   21.3260   32.9760 C   0  0  0  0  0  0  0  0  0  0  0  0
   37.2020   22.5510   33.4520 N   0  0  0  0  0  0  0  0  0  0  0  0
  1  2  1  0  0  0  0
  2  3  2  0  0  0  0
  2  9  1  0  0  0  0
  3  7  1  0  0  0  0
  4  3  1  0  0  0  0
  5  4  2  0  0  0  0
  6  5  1  0  0  0  0
  6  1  2  0  0  0  0
  8  5  1  0  0  0  0
  9 17  1  0  0  0  0
  9 10  1  0  0  0  0
 10 18  1  0  0  0  0
 10 11  2  0  0  0  0
 12 13  1  0  0  0  0
 12 11  1  0  0  0  0
 13 19  1  0  0  0  0
 14 13  2  0  0  0  0
 15 14  1  0  0  0  0
 16 15  2  0  0  0  0
 16 17  1  0  0  0  0
 17 12  2  0  0  0  0
 20 15  1  0  0  0  0
 21 27  1  0  0  0  0
 21  1  1  0  0  0  0
 22 21  2  0  0  0  0
 23 24  2  0  0  0  0
 23 22  1  0  0  0  0
 24 26  1  0  0  0  0
 25 24  1  0  0  0  0
 26 27  2  0  0  0  0
M  END
>  <minimizedAffinity>
-4.73883533

>  <minimizedRMSD>
0.986797988

$$$$
