
 OpenBabel03262518573D

 19 20  0  0  0  0  0  0  0  0999 V2000
   38.2390   22.8110   34.5970 C   0  0  0  0  0  0  0  0  0  0  0  0
   39.1600   22.3950   34.1500 H   0  0  0  0  0  0  0  0  0  0  0  0
   37.9710   23.7570   34.0860 H   0  0  0  0  0  0  0  0  0  0  0  0
   39.8060   22.7320   37.9170 C   0  0  0  0  0  0  0  0  0  0  0  0
   38.9770   23.5420   38.7090 C   0  0  0  0  0  0  0  0  0  0  0  0
   37.8520   24.1270   38.0770 C   0  0  0  0  0  0  0  0  0  0  0  0
   37.6350   23.8750   36.7420 N   0  0  0  0  0  0  0  0  0  0  0  0
   38.4740   23.0840   36.0410 C   0  0  0  0  0  0  0  0  0  0  0  0
   39.5550   22.5100   36.6090 N   0  0  0  0  0  0  0  0  0  0  0  0
   40.6710   22.2750   38.3800 H   0  0  0  0  0  0  0  0  0  0  0  0
   39.1500   23.7370   39.7470 H   0  0  0  0  0  0  0  0  0  0  0  0
   37.1690   24.7620   38.6190 H   0  0  0  0  0  0  0  0  0  0  0  0
   37.1180   21.8190   34.5570 C   0  0  0  0  0  0  0  0  0  0  0  0
   36.5440   21.2750   33.4220 C   0  0  0  0  0  0  0  0  0  0  0  0
   35.5540   20.4140   33.8290 C   0  0  0  0  0  0  0  0  0  0  0  0
   34.9300   19.8410   33.1540 H   0  0  0  0  0  0  0  0  0  0  0  0
   35.5340   20.4390   35.1510 N   0  0  0  0  0  0  0  0  0  0  0  0
   36.4660   21.2750   35.6040 N   0  0  0  0  0  0  0  0  0  0  0  0
   34.8640   19.8650   35.7350 H   0  0  0  0  0  0  0  0  0  0  0  0
  1  8  1  0  0  0  0
  2  1  1  0  0  0  0
  3  1  1  0  0  0  0
  4 10  1  0  0  0  0
  4  5  1  0  0  0  0
  5 11  1  0  0  0  0
  6 12  1  0  0  0  0
  6  5  2  0  0  0  0
  7  6  1  0  0  0  0
  8  9  1  0  0  0  0
  8  7  2  0  0  0  0
  9  4  2  0  0  0  0
 13  1  1  0  0  0  0
 13 18  2  0  0  0  0
 14 15  2  0  0  0  0
 14 13  1  0  0  0  0
 15 17  1  0  0  0  0
 16 15  1  0  0  0  0
 17 18  1  0  0  0  0
 17 19  1  0  0  0  0
M  END
>  <minimizedAffinity>
-3.88498044

>  <minimizedRMSD>
1.26431942

$$$$
