
 OpenBabel03262519343D

 19 20  0  0  0  0  0  0  0  0999 V2000
   38.8340   26.9280   35.7110 C   0  0  0  0  0  0  0  0  0  0  0  0
   39.8900   27.1760   35.4010 H   0  0  0  0  0  0  0  0  0  0  0  0
   38.5980   27.3700   36.7020 H   0  0  0  0  0  0  0  0  0  0  0  0
   37.7760   23.4390   36.7180 C   0  0  0  0  0  0  0  0  0  0  0  0
   37.7580   24.8270   36.5770 C   0  0  0  0  0  0  0  0  0  0  0  0
   38.8110   25.4480   35.8870 C   0  0  0  0  0  0  0  0  0  0  0  0
   39.8020   24.6590   35.3860 N   0  0  0  0  0  0  0  0  0  0  0  0
   39.7880   23.3170   35.5410 C   0  0  0  0  0  0  0  0  0  0  0  0
   38.7840   22.7080   36.2010 N   0  0  0  0  0  0  0  0  0  0  0  0
   36.9030   23.1170   37.2680 H   0  0  0  0  0  0  0  0  0  0  0  0
   37.0010   25.5010   36.9500 H   0  0  0  0  0  0  0  0  0  0  0  0
   40.5860   22.6840   35.1390 H   0  0  0  0  0  0  0  0  0  0  0  0
   37.9070   27.3790   34.6550 C   0  0  0  0  0  0  0  0  0  0  0  0
   38.1570   27.1300   33.3080 C   0  0  0  0  0  0  0  0  0  0  0  0
   37.0710   27.7040   32.6500 C   0  0  0  0  0  0  0  0  0  0  0  0
   36.9760   27.6740   31.5570 H   0  0  0  0  0  0  0  0  0  0  0  0
   36.2240   28.2620   33.5630 N   0  0  0  0  0  0  0  0  0  0  0  0
   36.7470   28.0540   34.7730 N   0  0  0  0  0  0  0  0  0  0  0  0
   35.3430   28.7470   33.2930 H   0  0  0  0  0  0  0  0  0  0  0  0
  1  6  1  0  0  0  0
  1  3  1  0  0  0  0
  2  1  1  0  0  0  0
  4 10  1  0  0  0  0
  5  4  1  0  0  0  0
  5 11  1  0  0  0  0
  6  5  2  0  0  0  0
  7  8  2  0  0  0  0
  7  6  1  0  0  0  0
  8  9  1  0  0  0  0
  9  4  2  0  0  0  0
 12  8  1  0  0  0  0
 13 18  2  0  0  0  0
 13  1  1  0  0  0  0
 14 13  1  0  0  0  0
 15 14  2  0  0  0  0
 15 17  1  0  0  0  0
 16 15  1  0  0  0  0
 17 18  1  0  0  0  0
 19 17  1  0  0  0  0
M  END
>  <minimizedAffinity>
-3.38323617

>  <minimizedRMSD>
5.68830299

$$$$
