
 OpenBabel03262517353D

 34 37  0  0  0  0  0  0  0  0999 V2000
   38.6570   21.5440   30.4760 N   0  0  0  0  0  0  0  0  0  0  0  0
   39.5930   22.1940   29.5430 C   0  0  0  0  0  0  0  0  0  0  0  0
   40.1870   21.0500   28.8090 C   0  0  0  0  0  0  0  0  0  0  0  0
   39.1320   20.5520   28.0180 O   0  0  0  0  0  0  0  0  0  0  0  0
   38.2210   19.8480   28.8060 C   0  0  0  0  0  0  0  0  0  0  0  0
   37.9320   20.3370   30.1880 C   0  0  0  0  0  0  0  0  0  0  0  0
   39.0380   22.8700   28.8740 H   0  0  0  0  0  0  0  0  0  0  0  0
   40.3560   22.7500   30.1380 H   0  0  0  0  0  0  0  0  0  0  0  0
   40.5600   20.2940   29.5040 H   0  0  0  0  0  0  0  0  0  0  0  0
   41.0610   21.3510   28.1810 H   0  0  0  0  0  0  0  0  0  0  0  0
   37.6580   18.9310   28.5680 H   0  0  0  0  0  0  0  0  0  0  0  0
   38.5630   22.5640   34.3960 C   0  0  0  0  0  0  0  0  0  0  0  0
   37.6990   23.2390   33.6570 C   0  0  0  0  0  0  0  0  0  0  0  0
   37.4870   23.1490   32.3540 C   0  0  0  0  0  0  0  0  0  0  0  0
   38.3880   22.1310   31.7900 C   0  0  0  0  0  0  0  0  0  0  0  0
   39.4020   21.4690   33.2140 S   0  0  0  0  0  0  0  0  0  0  0  0
   36.9800   24.0210   34.0130 H   0  0  0  0  0  0  0  0  0  0  0  0
   36.9180   23.5710   31.5900 H   0  0  0  0  0  0  0  0  0  0  0  0
   39.9510   22.7120   37.7270 C   0  0  0  0  0  0  0  0  0  0  0  0
   38.9510   23.3070   38.4780 C   0  0  0  0  0  0  0  0  0  0  0  0
   37.7880   23.6620   37.8570 C   0  0  0  0  0  0  0  0  0  0  0  0
   37.6350   23.4240   36.5190 N   0  0  0  0  0  0  0  0  0  0  0  0
   38.6530   22.8310   35.8080 C   0  0  0  0  0  0  0  0  0  0  0  0
   39.7870   22.4860   36.4120 N   0  0  0  0  0  0  0  0  0  0  0  0
   40.8720   22.4300   38.2120 H   0  0  0  0  0  0  0  0  0  0  0  0
   39.1330   23.4650   39.5160 H   0  0  0  0  0  0  0  0  0  0  0  0
   37.0020   24.1270   38.4400 H   0  0  0  0  0  0  0  0  0  0  0  0
   37.0510   19.4890   30.9220 C   0  0  0  0  0  0  0  0  0  0  0  0
   37.1710   18.2630   31.5100 C   0  0  0  0  0  0  0  0  0  0  0  0
   36.3140   17.5500   32.2990 C   0  0  0  0  0  0  0  0  0  0  0  0
   35.1280   18.2090   32.5190 C   0  0  0  0  0  0  0  0  0  0  0  0
   34.3730   17.7380   33.1320 H   0  0  0  0  0  0  0  0  0  0  0  0
   34.9060   19.4470   31.9700 C   0  0  0  0  0  0  0  0  0  0  0  0
   35.8530   20.0080   31.2190 N   0  0  0  0  0  0  0  0  0  0  0  0
  1 15  1  0  0  0  0
  2  8  1  0  0  0  0
  2  1  1  0  0  0  0
  3  9  1  0  0  0  0
  3  2  1  0  0  0  0
  4  5  1  0  0  0  0
  4  3  1  0  0  0  0
  5  6  2  0  0  0  0
  6  1  1  0  0  0  0
  6 28  1  0  0  0  0
  7  2  1  0  0  0  0
 10  3  1  0  0  0  0
 11  5  1  0  0  0  0
 12 23  1  0  0  0  0
 13 17  1  0  0  0  0
 13 12  2  0  0  0  0
 14 13  1  0  0  0  0
 15 14  2  0  0  0  0
 15 16  1  0  0  0  0
 16 12  1  0  0  0  0
 18 14  1  0  0  0  0
 19 25  1  0  0  0  0
 19 20  1  0  0  0  0
 20 26  1  0  0  0  0
 21 27  1  0  0  0  0
 21 20  2  0  0  0  0
 22 21  1  0  0  0  0
 23 24  1  0  0  0  0
 23 22  2  0  0  0  0
 24 19  2  0  0  0  0
 28 34  2  0  0  0  0
 28 29  1  0  0  0  0
 29 30  2  0  0  0  0
 30 31  1  0  0  0  0
 31 32  1  0  0  0  0
 33 31  2  0  0  0  0
 34 33  1  0  0  0  0
M  END
>  <minimizedAffinity>
-4.83610344

>  <minimizedRMSD>
1.68221831

$$$$
