
 OpenBabel03262519573D

 30 33  0  0  1  0  0  0  0  0999 V2000
   38.9420   25.6700   34.0720 C   0  0  0  0  0  0  0  0  0  0  0  0
   39.9430   26.6470   34.0380 C   0  0  0  0  0  0  0  0  0  0  0  0
   39.7350   27.2710   32.8450 N   0  0  0  0  0  0  0  0  0  0  0  0
   38.7020   26.6940   32.2530 C   0  0  0  0  0  0  0  0  0  0  0  0
   38.1860   25.6970   32.9850 N   0  0  0  0  0  0  0  0  0  0  0  0
   40.7140   26.8860   34.7590 H   0  0  0  0  0  0  0  0  0  0  0  0
   38.3370   27.0240   31.2680 H   0  0  0  0  0  0  0  0  0  0  0  0
   38.7500   24.7330   35.1670 C   0  0  0  0  0  0  0  0  0  0  0  0
   39.4820   23.5480   35.2300 C   0  0  0  0  0  0  0  0  0  0  0  0
   39.2560   22.6740   36.3170 C   0  0  0  0  0  0  0  0  0  0  0  0
   38.3430   23.0400   37.2290 N   0  0  0  0  0  0  0  0  0  0  0  0
   37.6430   24.1910   37.1530 C   0  0  0  0  0  0  0  0  0  0  0  0
   37.8420   25.0410   36.1270 N   0  0  0  0  0  0  0  0  0  0  0  0
   40.2070   23.2860   34.4780 H   0  0  0  0  0  0  0  0  0  0  0  0
   39.7790   21.7520   36.4270 H   0  0  0  0  0  0  0  0  0  0  0  0
   36.9020   24.5190   37.8680 H   0  0  0  0  0  0  0  0  0  0  0  0
   37.0600   24.8980   32.5860 C   0  0  1  0  0  0  0  0  0  0  0  0
   36.7120   24.6290   31.2050 C   0  0  0  0  0  0  0  0  0  0  0  0
   37.4810   23.5670   31.9780 C   0  0  2  0  0  0  0  0  0  0  0  0
   36.2420   24.8670   33.3440 H   0  0  0  0  0  0  0  0  0  0  0  0
   35.6520   24.4310   30.9330 H   0  0  0  0  0  0  0  0  0  0  0  0
   37.2640   25.0600   30.3300 H   0  0  0  0  0  0  0  0  0  0  0  0
   38.5360   23.4060   31.6920 H   0  0  0  0  0  0  0  0  0  0  0  0
   36.6570   22.3830   32.3420 C   0  0  0  0  0  0  0  0  0  0  0  0
   35.7760   21.8950   31.3990 C   0  0  0  0  0  3  0  0  0  0  0  0
   35.0030   20.7830   31.7390 C   0  0  0  0  0  3  0  0  0  0  0  0
   35.1810   20.2460   33.0170 C   0  0  0  0  0  0  0  0  0  0  0  0
   34.6150   19.3880   33.3460 H   0  0  0  0  0  0  0  0  0  0  0  0
   36.0610   20.7460   33.9400 C   0  0  0  0  0  3  0  0  0  0  0  0
   36.7890   21.8340   33.5470 N   0  0  0  0  0  0  0  0  0  0  0  0
  1  8  1  0  0  0  0
  2  1  2  0  0  0  0
  2  6  1  0  0  0  0
  3  2  1  0  0  0  0
  4  3  2  0  0  0  0
  4  5  1  0  0  0  0
  5  1  1  0  0  0  0
  7  4  1  0  0  0  0
  8  9  2  0  0  0  0
  8 13  1  0  0  0  0
  9 10  1  0  0  0  0
 10 15  1  0  0  0  0
 10 11  2  0  0  0  0
 12 11  1  0  0  0  0
 12 16  1  0  0  0  0
 13 12  2  0  0  0  0
 14  9  1  0  0  0  0
 17  5  1  0  0  0  0
 17 20  1  1  0  0  0
 18 19  1  0  0  0  0
 18 17  1  0  0  0  0
 19 23  1  6  0  0  0
 19 24  1  0  0  0  0
 19 17  1  0  0  0  0
 21 18  1  0  0  0  0
 22 18  1  0  0  0  0
 24 30  1  0  0  0  0
 25 26  1  0  0  0  0
 25 24  2  0  0  0  0
 26 27  2  0  0  0  0
 27 28  1  0  0  0  0
 27 29  1  0  0  0  0
 30 29  2  0  0  0  0
M  END
>  <minimizedAffinity>
-4.74916506

>  <minimizedRMSD>
3.3027935

$$$$
