
 OpenBabel03262519573D

 30 33  0  0  1  0  0  0  0  0999 V2000
   38.3420   23.9790   34.5460 C   0  0  0  0  0  0  0  0  0  0  0  0
   38.9560   23.1960   35.5290 C   0  0  0  0  0  0  0  0  0  0  0  0
   38.8500   23.9590   36.6530 N   0  0  0  0  0  0  0  0  0  0  0  0
   38.2270   25.0810   36.3320 C   0  0  0  0  0  0  0  0  0  0  0  0
   37.8980   25.1270   35.0330 N   0  0  0  0  0  0  0  0  0  0  0  0
   39.4160   22.2190   35.4610 H   0  0  0  0  0  0  0  0  0  0  0  0
   38.0200   25.8650   37.0750 H   0  0  0  0  0  0  0  0  0  0  0  0
   38.2060   23.5840   33.1530 C   0  0  0  0  0  0  0  0  0  0  0  0
   39.1980   23.8920   32.2230 C   0  0  0  0  0  0  0  0  0  0  0  0
   39.0130   23.4840   30.8830 C   0  0  0  0  0  0  0  0  0  0  0  0
   37.8850   22.8210   30.5840 N   0  0  0  0  0  0  0  0  0  0  0  0
   36.9350   22.5310   31.4980 C   0  0  0  0  0  0  0  0  0  0  0  0
   37.0890   22.9090   32.7810 N   0  0  0  0  0  0  0  0  0  0  0  0
   40.0900   24.4270   32.4990 H   0  0  0  0  0  0  0  0  0  0  0  0
   39.7290   23.6860   30.1200 H   0  0  0  0  0  0  0  0  0  0  0  0
   36.0170   22.0000   31.2950 H   0  0  0  0  0  0  0  0  0  0  0  0
   37.2150   26.2270   34.4100 C   0  0  1  0  0  0  0  0  0  0  0  0
   37.2850   27.5940   34.8870 C   0  0  0  0  0  0  0  0  0  0  0  0
   38.1740   27.1890   33.7200 C   0  0  2  0  0  0  0  0  0  0  0  0
   36.3090   25.9240   33.8340 H   0  0  0  0  0  0  0  0  0  0  0  0
   36.4350   28.2870   34.6990 H   0  0  0  0  0  0  0  0  0  0  0  0
   37.8390   27.9020   35.8110 H   0  0  0  0  0  0  0  0  0  0  0  0
   39.2580   27.1160   33.9200 H   0  0  0  0  0  0  0  0  0  0  0  0
   37.7290   27.7440   32.4130 C   0  0  0  0  0  0  0  0  0  0  0  0
   38.4450   27.3920   31.2850 C   0  0  0  0  0  3  0  0  0  0  0  0
   38.0280   27.9120   30.0590 C   0  0  0  0  0  3  0  0  0  0  0  0
   36.9130   28.7540   30.0660 C   0  0  0  0  0  0  0  0  0  0  0  0
   36.5360   29.1910   29.1530 H   0  0  0  0  0  0  0  0  0  0  0  0
   36.2160   29.0900   31.1970 C   0  0  0  0  0  3  0  0  0  0  0  0
   36.6720   28.5500   32.3660 N   0  0  0  0  0  0  0  0  0  0  0  0
  1  5  1  0  0  0  0
  1  2  2  0  0  0  0
  2  3  1  0  0  0  0
  4  3  2  0  0  0  0
  4  7  1  0  0  0  0
  5  4  1  0  0  0  0
  6  2  1  0  0  0  0
  8  1  1  0  0  0  0
  9 14  1  0  0  0  0
  9  8  2  0  0  0  0
 10  9  1  0  0  0  0
 11 10  2  0  0  0  0
 11 12  1  0  0  0  0
 12 13  2  0  0  0  0
 13  8  1  0  0  0  0
 15 10  1  0  0  0  0
 16 12  1  0  0  0  0
 17 20  1  6  0  0  0
 17 18  1  0  0  0  0
 17  5  1  0  0  0  0
 18 22  1  0  0  0  0
 19 23  1  1  0  0  0
 19 17  1  0  0  0  0
 19 18  1  0  0  0  0
 21 18  1  0  0  0  0
 24 19  1  0  0  0  0
 25 24  2  0  0  0  0
 26 27  2  0  0  0  0
 26 25  1  0  0  0  0
 27 29  1  0  0  0  0
 28 27  1  0  0  0  0
 29 30  2  0  0  0  0
 30 24  1  0  0  0  0
M  END
>  <minimizedAffinity>
-4.27908373

>  <minimizedRMSD>
7.31296682

$$$$
