
 OpenBabel03262519563D

 30 33  0  0  1  0  0  0  0  0999 V2000
   38.1580   23.9330   34.5760 C   0  0  0  0  0  0  0  0  0  0  0  0
   38.3240   25.1800   33.9660 C   0  0  0  0  0  0  0  0  0  0  0  0
   37.9130   24.9640   32.6850 N   0  0  0  0  0  0  0  0  0  0  0  0
   37.5440   23.6970   32.5800 C   0  0  0  0  0  0  0  0  0  0  0  0
   37.6830   23.0290   33.7330 N   0  0  0  0  0  0  0  0  0  0  0  0
   38.6850   26.1160   34.3710 H   0  0  0  0  0  0  0  0  0  0  0  0
   37.1710   23.2760   31.6340 H   0  0  0  0  0  0  0  0  0  0  0  0
   38.4670   23.6560   35.9700 C   0  0  0  0  0  0  0  0  0  0  0  0
   39.6740   23.0550   36.3270 C   0  0  0  0  0  0  0  0  0  0  0  0
   39.9220   22.8100   37.6960 C   0  0  0  0  0  0  0  0  0  0  0  0
   38.9760   23.1720   38.5760 N   0  0  0  0  0  0  0  0  0  0  0  0
   37.8140   23.7520   38.2120 C   0  0  0  0  0  0  0  0  0  0  0  0
   37.5540   23.9970   36.9130 N   0  0  0  0  0  0  0  0  0  0  0  0
   40.4100   22.7770   35.5940 H   0  0  0  0  0  0  0  0  0  0  0  0
   40.8220   22.3540   38.0410 H   0  0  0  0  0  0  0  0  0  0  0  0
   37.0290   24.0580   38.8900 H   0  0  0  0  0  0  0  0  0  0  0  0
   37.3600   21.6390   33.9080 C   0  0  1  0  0  0  0  0  0  0  0  0
   36.1910   21.1680   34.6240 C   0  0  0  0  0  0  0  0  0  0  0  0
   36.1350   21.2230   33.1040 C   0  0  2  0  0  0  0  0  0  0  0  0
   38.2460   20.9630   33.8570 H   0  0  0  0  0  0  0  0  0  0  0  0
   36.2150   20.1740   35.1240 H   0  0  0  0  0  0  0  0  0  0  0  0
   35.4660   21.8460   35.1440 H   0  0  0  0  0  0  0  0  0  0  0  0
   35.4870   21.9990   32.6570 H   0  0  0  0  0  0  0  0  0  0  0  0
   36.1900   19.8850   32.4580 C   0  0  0  0  0  0  0  0  0  0  0  0
   35.4130   18.8770   32.9940 C   0  0  0  0  0  3  0  0  0  0  0  0
   35.4630   17.6200   32.3880 C   0  0  0  0  0  3  0  0  0  0  0  0
   36.3000   17.4780   31.2790 C   0  0  0  0  0  0  0  0  0  0  0  0
   36.3880   16.5340   30.7620 H   0  0  0  0  0  0  0  0  0  0  0  0
   37.0650   18.4920   30.7620 C   0  0  0  0  0  3  0  0  0  0  0  0
   36.9720   19.6970   31.3990 N   0  0  0  0  0  0  0  0  0  0  0  0
  1  8  1  0  0  0  0
  2  6  1  0  0  0  0
  2  1  2  0  0  0  0
  3  2  1  0  0  0  0
  4  3  2  0  0  0  0
  4  5  1  0  0  0  0
  5 17  1  0  0  0  0
  5  1  1  0  0  0  0
  7  4  1  0  0  0  0
  8  9  2  0  0  0  0
  8 13  1  0  0  0  0
  9 10  1  0  0  0  0
 10 15  1  0  0  0  0
 10 11  2  0  0  0  0
 12 11  1  0  0  0  0
 12 16  1  0  0  0  0
 13 12  2  0  0  0  0
 14  9  1  0  0  0  0
 17 20  1  6  0  0  0
 17 18  1  0  0  0  0
 18 21  1  0  0  0  0
 18 22  1  0  0  0  0
 19 23  1  6  0  0  0
 19 17  1  0  0  0  0
 19 18  1  0  0  0  0
 24 25  1  0  0  0  0
 24 19  1  0  0  0  0
 26 25  2  0  0  0  0
 27 26  1  0  0  0  0
 28 27  1  0  0  0  0
 29 27  2  0  0  0  0
 29 30  1  0  0  0  0
 30 24  2  0  0  0  0
M  END
>  <minimizedAffinity>
-4.98870039

>  <minimizedRMSD>
1.01407707

$$$$
