
 OpenBabel03262519453D

 32 34  0  0  1  0  0  0  0  0999 V2000
   38.7280   25.3820   34.2780 C   0  0  0  0  0  0  0  0  0  0  0  0
   39.7810   25.1290   33.9880 H   0  0  0  0  0  0  0  0  0  0  0  0
   38.7070   26.4560   34.4080 H   0  0  0  0  0  0  0  0  0  0  0  0
   37.8570   24.9220   33.2630 N   0  0  0  0  0  0  0  0  0  0  0  0
   37.6620   23.7670   32.6080 C   0  0  0  0  0  0  0  0  0  0  0  0
   36.6550   23.7990   31.6690 C   0  0  0  0  0  0  0  0  0  0  0  0
   36.1990   25.0580   31.7510 N   0  0  0  0  0  0  0  0  0  0  0  0
   36.9130   25.7190   32.6930 C   0  0  0  0  0  0  0  0  0  0  0  0
   38.2580   22.8820   32.8120 H   0  0  0  0  0  0  0  0  0  0  0  0
   36.3610   22.9630   31.0510 H   0  0  0  0  0  0  0  0  0  0  0  0
   36.5890   27.1190   32.9570 C   0  0  0  0  0  0  0  0  0  0  0  0
   36.5870   27.9700   31.8510 C   0  0  0  0  0  0  0  0  0  0  0  0
   36.2940   29.3230   31.9760 C   0  0  0  0  0  0  0  0  0  0  0  0
   36.0030   29.7930   33.2490 C   0  0  0  0  0  0  0  0  0  0  0  0
   35.7760   30.8510   33.3390 H   0  0  0  0  0  0  0  0  0  0  0  0
   36.0080   28.9320   34.3470 C   0  0  0  0  0  0  0  0  0  0  0  0
   36.3010   27.6130   34.1850 N   0  0  0  0  0  0  0  0  0  0  0  0
   38.4700   24.7190   35.5970 C   0  0  1  0  0  0  0  0  0  0  0  0
   37.6240   24.0140   35.4560 H   0  0  0  0  0  0  0  0  0  0  0  0
   40.6010   22.2610   37.5360 C   0  0  0  0  0  0  0  0  0  0  0  0
   39.4610   22.9890   37.1620 C   0  0  0  0  0  0  0  0  0  0  0  0
   39.6110   23.8880   36.0610 C   0  0  0  0  0  0  0  0  0  0  0  0
   40.8380   23.9880   35.4440 N   0  0  0  0  0  0  0  0  0  0  0  0
   41.8870   23.2800   35.8330 C   0  0  0  0  0  0  0  0  0  0  0  0
   41.7710   22.4030   36.8940 N   0  0  0  0  0  0  0  0  0  0  0  0
   40.4930   21.5790   38.3670 H   0  0  0  0  0  0  0  0  0  0  0  0
   38.4980   22.9100   37.6460 H   0  0  0  0  0  0  0  0  0  0  0  0
   42.8200   23.4100   35.3000 H   0  0  0  0  0  0  0  0  0  0  0  0
   38.0790   25.7380   36.6340 C   0  0  0  0  0  0  0  0  0  0  0  0
   38.6930   26.6610   36.5990 H   0  0  0  0  0  0  0  0  0  0  0  0
   38.0090   25.2780   37.6380 H   0  0  0  0  0  0  0  0  0  0  0  0
   37.0310   26.0930   36.4090 H   0  0  0  0  0  0  0  0  0  0  0  0
  1  3  1  0  0  0  0
  1 18  1  0  0  0  0
  2  1  1  0  0  0  0
  4  1  1  0  0  0  0
  5  9  1  0  0  0  0
  5  4  1  0  0  0  0
  6  7  1  0  0  0  0
  6  5  2  0  0  0  0
  7  8  2  0  0  0  0
  8 11  1  0  0  0  0
  8  4  1  0  0  0  0
 10  6  1  0  0  0  0
 11 17  1  0  0  0  0
 12 13  1  0  0  0  0
 12 11  2  0  0  0  0
 13 14  2  0  0  0  0
 14 15  1  0  0  0  0
 14 16  1  0  0  0  0
 17 16  2  0  0  0  0
 18 19  1  6  0  0  0
 18 22  1  0  0  0  0
 18 29  1  0  0  0  0
 20 26  1  0  0  0  0
 21 20  1  0  0  0  0
 21 27  1  0  0  0  0
 22 21  2  0  0  0  0
 23 24  2  0  0  0  0
 23 22  1  0  0  0  0
 24 25  1  0  0  0  0
 25 20  2  0  0  0  0
 28 24  1  0  0  0  0
 29 31  1  0  0  0  0
 30 29  1  0  0  0  0
 32 29  1  0  0  0  0
M  END
>  <minimizedAffinity>
-4.34049559

>  <minimizedRMSD>
2.72218275

$$$$
