
 OpenBabel03262519573D

 30 33  0  0  1  0  0  0  0  0999 V2000
   38.1560   23.9150   34.5720 C   0  0  0  0  0  0  0  0  0  0  0  0
   38.3290   25.1590   33.9570 C   0  0  0  0  0  0  0  0  0  0  0  0
   37.9140   24.9400   32.6780 N   0  0  0  0  0  0  0  0  0  0  0  0
   37.5370   23.6760   32.5790 C   0  0  0  0  0  0  0  0  0  0  0  0
   37.6740   23.0110   33.7340 N   0  0  0  0  0  0  0  0  0  0  0  0
   38.6990   26.0940   34.3570 H   0  0  0  0  0  0  0  0  0  0  0  0
   37.1580   23.2540   31.6350 H   0  0  0  0  0  0  0  0  0  0  0  0
   38.4670   23.6420   35.9670 C   0  0  0  0  0  0  0  0  0  0  0  0
   39.6750   23.0430   36.3250 C   0  0  0  0  0  0  0  0  0  0  0  0
   39.9240   22.8010   37.6940 C   0  0  0  0  0  0  0  0  0  0  0  0
   38.9780   23.1630   38.5730 N   0  0  0  0  0  0  0  0  0  0  0  0
   37.8150   23.7420   38.2080 C   0  0  0  0  0  0  0  0  0  0  0  0
   37.5530   23.9830   36.9100 N   0  0  0  0  0  0  0  0  0  0  0  0
   40.4110   22.7660   35.5910 H   0  0  0  0  0  0  0  0  0  0  0  0
   40.8250   22.3470   38.0390 H   0  0  0  0  0  0  0  0  0  0  0  0
   37.0300   24.0470   38.8860 H   0  0  0  0  0  0  0  0  0  0  0  0
   37.3410   21.6250   33.9150 C   0  0  1  0  0  0  0  0  0  0  0  0
   36.1810   21.1640   34.6510 C   0  0  0  0  0  0  0  0  0  0  0  0
   36.0990   21.2200   33.1330 C   0  0  2  0  0  0  0  0  0  0  0  0
   38.2200   20.9400   33.8490 H   0  0  0  0  0  0  0  0  0  0  0  0
   36.2040   20.1700   35.1510 H   0  0  0  0  0  0  0  0  0  0  0  0
   35.4700   21.8490   35.1830 H   0  0  0  0  0  0  0  0  0  0  0  0
   35.4500   22.0000   32.6960 H   0  0  0  0  0  0  0  0  0  0  0  0
   36.1300   19.8810   32.4860 C   0  0  0  0  0  0  0  0  0  0  0  0
   36.8600   19.7420   31.3220 C   0  0  0  0  0  3  0  0  0  0  0  0
   36.8900   18.4860   30.7140 C   0  0  0  0  0  3  0  0  0  0  0  0
   36.1740   17.4570   31.3350 C   0  0  0  0  0  0  0  0  0  0  0  0
   36.1540   16.4610   30.9190 H   0  0  0  0  0  0  0  0  0  0  0  0
   35.4560   17.6150   32.4910 C   0  0  0  0  0  3  0  0  0  0  0  0
   35.4650   18.8670   33.0360 N   0  0  0  0  0  0  0  0  0  0  0  0
  1  8  1  0  0  0  0
  2  6  1  0  0  0  0
  2  1  2  0  0  0  0
  3  2  1  0  0  0  0
  4  3  2  0  0  0  0
  4  5  1  0  0  0  0
  5 17  1  0  0  0  0
  5  1  1  0  0  0  0
  7  4  1  0  0  0  0
  8  9  2  0  0  0  0
  8 13  1  0  0  0  0
  9 10  1  0  0  0  0
 10 15  1  0  0  0  0
 10 11  2  0  0  0  0
 12 11  1  0  0  0  0
 12 16  1  0  0  0  0
 13 12  2  0  0  0  0
 14  9  1  0  0  0  0
 17 20  1  6  0  0  0
 17 18  1  0  0  0  0
 18 21  1  0  0  0  0
 18 22  1  0  0  0  0
 19 23  1  6  0  0  0
 19 17  1  0  0  0  0
 19 18  1  0  0  0  0
 24 30  1  0  0  0  0
 24 19  1  0  0  0  0
 25 24  2  0  0  0  0
 26 25  1  0  0  0  0
 26 27  2  0  0  0  0
 27 29  1  0  0  0  0
 28 27  1  0  0  0  0
 29 30  2  0  0  0  0
M  END
>  <minimizedAffinity>
-4.85446119

>  <minimizedRMSD>
0.92569679

$$$$
