
 OpenBabel03262519593D

 32 35  0  0  1  0  0  0  0  0999 V2000
   37.9330   23.1240   32.6980 C   0  0  0  0  0  0  0  0  0  0  0  0
   37.9460   21.9370   31.9700 C   0  0  0  0  0  0  0  0  0  0  0  0
   37.0880   22.1850   30.9380 N   0  0  0  0  0  0  0  0  0  0  0  0
   36.6270   23.4250   31.0810 C   0  0  0  0  0  0  0  0  0  0  0  0
   37.1320   24.0240   32.1560 N   0  0  0  0  0  0  0  0  0  0  0  0
   38.5240   21.0610   32.2170 H   0  0  0  0  0  0  0  0  0  0  0  0
   35.9320   23.7190   30.3050 H   0  0  0  0  0  0  0  0  0  0  0  0
   38.7010   23.3480   33.9190 C   0  0  0  0  0  0  0  0  0  0  0  0
   38.0930   23.1210   35.1720 C   0  0  0  0  0  0  0  0  0  0  0  0
   38.8710   23.3490   36.3310 C   0  0  0  0  0  0  0  0  0  0  0  0
   40.1500   23.7710   36.1500 N   0  0  0  0  0  0  0  0  0  0  0  0
   40.6940   23.9770   34.9340 C   0  0  0  0  0  0  0  0  0  0  0  0
   39.9760   23.7670   33.8150 N   0  0  0  0  0  0  0  0  0  0  0  0
   37.0680   22.7860   35.1690 H   0  0  0  0  0  0  0  0  0  0  0  0
   38.4010   23.1740   37.2730 H   0  0  0  0  0  0  0  0  0  0  0  0
   41.7210   24.3120   34.9530 H   0  0  0  0  0  0  0  0  0  0  0  0
   36.8050   25.3490   32.5260 C   0  0  1  0  0  0  0  0  0  0  0  0
   37.6690   26.3020   33.1680 C   0  0  0  0  0  0  0  0  0  0  0  0
   37.3670   26.4120   31.6500 C   0  0  1  0  0  0  0  0  0  0  0  0
   35.6960   25.4490   32.7780 H   0  0  0  0  0  0  0  0  0  0  0  0
   37.2720   27.1280   33.7800 H   0  0  0  0  0  0  0  0  0  0  0  0
   38.6870   26.0320   33.4210 H   0  0  0  0  0  0  0  0  0  0  0  0
   38.7150   26.3930   30.9580 C   0  0  0  0  0  0  0  0  0  0  0  0
   39.1920   27.7750   30.7560 C   0  0  0  0  0  3  0  0  0  0  0  0
   40.7800   27.5290   29.9350 S   0  0  0  0  0  0  0  0  0  0  0  0
   40.5740   25.6180   29.9820 C   0  0  0  0  0  0  0  0  0  0  0  0
   41.2990   24.9040   29.5890 H   0  0  0  0  0  0  0  0  0  0  0  0
   39.5690   25.4750   30.4920 N   0  0  0  0  0  0  0  0  0  0  0  0
   36.4940   27.6090   31.3480 C   0  0  0  0  0  0  0  0  0  0  0  0
   36.3980   27.7990   29.9840 F   0  0  0  0  0  0  0  0  0  0  0  0
   35.1320   27.2780   31.7460 F   0  0  0  0  0  0  0  0  0  0  0  0
   36.8260   28.7140   32.0330 F   0  0  0  0  0  0  0  0  0  0  0  0
  1  8  1  0  0  0  0
  2  6  1  0  0  0  0
  2  1  2  0  0  0  0
  3  4  2  0  0  0  0
  3  2  1  0  0  0  0
  4  5  1  0  0  0  0
  5 17  1  0  0  0  0
  5  1  1  0  0  0  0
  7  4  1  0  0  0  0
  8  9  1  0  0  0  0
  9 10  2  0  0  0  0
 10 15  1  0  0  0  0
 11 10  1  0  0  0  0
 12 16  1  0  0  0  0
 12 11  2  0  0  0  0
 13  8  2  0  0  0  0
 13 12  1  0  0  0  0
 14  9  1  0  0  0  0
 17 20  1  1  0  0  0
 17 18  1  0  0  0  0
 18 22  1  0  0  0  0
 18 21  1  0  0  0  0
 19 29  1  6  0  0  0
 19 17  1  0  0  0  0
 19 18  1  0  0  0  0
 23 19  1  0  0  0  0
 24 23  2  0  0  0  0
 25 26  1  0  0  0  0
 25 24  1  0  0  0  0
 26 28  2  0  0  0  0
 27 26  1  0  0  0  0
 28 23  1  0  0  0  0
 29 31  1  0  0  0  0
 29 32  1  0  0  0  0
 30 29  1  0  0  0  0
M  END
>  <minimizedAffinity>
-4.01160479

>  <minimizedRMSD>
6.29260826

$$$$
