
 OpenBabel03262519263D

 42 47  0  0  0  0  0  0  0  0999 V2000
   39.2870   23.4640   32.3930 C   0  0  0  0  0  0  0  0  0  0  0  0
   40.0860   22.3720   32.7280 C   0  0  0  0  0  0  0  0  0  0  0  0
   39.6270   21.0610   32.6550 C   0  0  0  0  0  0  0  0  0  0  0  0
   38.3280   20.8110   32.2340 C   0  0  0  0  0  0  0  0  0  0  0  0
   37.5140   21.8710   31.8940 C   0  0  0  0  0  0  0  0  0  0  0  0
   36.2380   21.6280   31.4650 C   0  0  0  0  0  0  0  0  0  0  0  0
   35.3840   22.6380   31.0970 C   0  0  0  0  0  0  0  0  0  0  0  0
   35.8730   23.9400   31.1790 C   0  0  0  0  0  0  0  0  0  0  0  0
   37.1740   24.1570   31.6210 C   0  0  0  0  0  0  0  0  0  0  0  0
   38.0190   23.1580   31.9840 C   0  0  0  0  0  0  0  0  0  0  0  0
   41.1020   22.6170   33.0560 H   0  0  0  0  0  0  0  0  0  0  0  0
   40.3470   20.3090   32.9450 H   0  0  0  0  0  0  0  0  0  0  0  0
   38.0010   19.7800   32.1880 H   0  0  0  0  0  0  0  0  0  0  0  0
   35.9260   20.5930   31.4280 H   0  0  0  0  0  0  0  0  0  0  0  0
   34.3990   22.3180   30.7750 H   0  0  0  0  0  0  0  0  0  0  0  0
   35.1010   24.6300   30.8600 H   0  0  0  0  0  0  0  0  0  0  0  0
   39.8020   24.8050   32.4820 C   0  0  0  0  0  0  0  0  0  0  0  0
   39.7540   25.5500   33.6720 C   0  0  0  0  0  0  0  0  0  0  0  0
   40.2900   26.8410   33.6480 C   0  0  0  0  0  0  0  0  0  0  0  0
   40.8340   27.3260   32.4940 N   0  0  0  0  0  0  0  0  0  0  0  0
   40.8640   26.5780   31.3690 C   0  0  0  0  0  0  0  0  0  0  0  0
   40.3620   25.3610   31.3760 N   0  0  0  0  0  0  0  0  0  0  0  0
   40.2790   27.4600   34.5360 H   0  0  0  0  0  0  0  0  0  0  0  0
   41.2870   26.9320   30.4430 H   0  0  0  0  0  0  0  0  0  0  0  0
   39.1940   25.0090   34.8170 N   0  0  0  0  0  0  0  0  0  0  0  0
   37.9410   25.2180   35.2670 C   0  0  0  0  0  0  0  0  0  0  0  0
   37.7100   24.5400   36.4160 N   0  0  0  0  0  0  0  0  0  0  0  0
   38.8550   23.8780   36.7050 C   0  0  0  0  0  0  0  0  0  0  0  0
   39.2360   23.0390   37.7180 C   0  0  0  0  0  0  0  0  0  0  0  0
   40.4650   22.4770   37.8040 N   0  0  0  0  0  0  0  0  0  0  0  0
   41.3380   22.7970   36.7980 C   0  0  0  0  0  0  0  0  0  0  0  0
   40.9560   23.6120   35.8210 N   0  0  0  0  0  0  0  0  0  0  0  0
   39.7650   24.1800   35.7020 C   0  0  0  0  0  0  0  0  0  0  0  0
   37.1920   25.8420   34.7950 H   0  0  0  0  0  0  0  0  0  0  0  0
   38.4940   22.8300   38.4790 H   0  0  0  0  0  0  0  0  0  0  0  0
   42.3600   22.4260   36.7280 H   0  0  0  0  0  0  0  0  0  0  0  0
   37.3380   25.5990   31.5440 C   0  0  0  0  0  0  0  0  0  0  0  0
   36.6380   26.3370   32.8010 C   0  0  0  0  0  0  0  0  0  0  0  0
   36.9170   28.0880   32.5120 S   0  0  0  0  0  0  0  0  0  0  0  0
   37.8500   27.7170   30.9020 C   0  0  0  0  0  0  0  0  0  0  0  0
   38.3400   28.3130   30.1390 H   0  0  0  0  0  0  0  0  0  0  0  0
   37.8380   26.5500   30.8000 N   0  0  0  0  0  0  0  0  0  0  0  0
  1 17  1  0  0  0  0
  1  2  1  0  0  0  0
  2 11  1  0  0  0  0
  3  2  2  0  0  0  0
  3 12  1  0  0  0  0
  4  3  1  0  0  0  0
  5 10  1  0  0  0  0
  5  4  2  0  0  0  0
  6  5  1  0  0  0  0
  7  8  1  0  0  0  0
  7  6  2  0  0  0  0
  8  9  2  0  0  0  0
  9 10  1  0  0  0  0
 10  1  2  0  0  0  0
 13  4  1  0  0  0  0
 14  6  1  0  0  0  0
 15  7  1  0  0  0  0
 16  8  1  0  0  0  0
 17 18  1  0  0  0  0
 18 25  1  0  0  0  0
 19 18  2  0  0  0  0
 19 23  1  0  0  0  0
 20 19  1  0  0  0  0
 21 22  1  0  0  0  0
 21 20  2  0  0  0  0
 22 17  2  0  0  0  0
 24 21  1  0  0  0  0
 25 26  1  0  0  0  0
 25 33  1  0  0  0  0
 26 27  2  0  0  0  0
 27 28  1  0  0  0  0
 28 29  1  0  0  0  0
 29 30  2  0  0  0  0
 29 35  1  0  0  0  0
 31 30  1  0  0  0  0
 32 31  2  0  0  0  0
 33 32  1  0  0  0  0
 33 28  2  0  0  0  0
 34 26  1  0  0  0  0
 36 31  1  0  0  0  0
 37  9  1  0  0  0  0
 37 38  2  0  0  0  0
 39 38  1  0  0  0  0
 40 39  1  0  0  0  0
 41 40  1  0  0  0  0
 42 40  2  0  0  0  0
 42 37  1  0  0  0  0
M  END
>  <minimizedAffinity>
-5.89587164

>  <minimizedRMSD>
1.43402839

$$$$
