
 OpenBabel03262519393D

 35 38  0  0  1  0  0  0  0  0999 V2000
   37.9670   25.0830   34.2860 N   0  0  0  0  0  0  0  0  0  0  0  0
   37.5880   25.1690   32.9030 C   0  0  0  0  0  0  0  0  0  0  0  0
   37.8950   26.5790   32.4890 C   0  0  0  0  0  0  0  0  0  0  0  0
   38.4800   27.2250   33.7310 C   0  0  0  0  0  0  0  0  0  0  0  0
   39.1060   25.9570   34.3650 C   0  0  2  0  0  0  0  0  0  0  0  0
   36.5120   24.8930   32.7410 H   0  0  0  0  0  0  0  0  0  0  0  0
   38.2050   24.4750   32.3000 H   0  0  0  0  0  0  0  0  0  0  0  0
   36.9260   27.0420   32.1900 H   0  0  0  0  0  0  0  0  0  0  0  0
   38.6140   26.6470   31.6540 H   0  0  0  0  0  0  0  0  0  0  0  0
   39.2730   27.9330   33.4290 H   0  0  0  0  0  0  0  0  0  0  0  0
   37.7290   27.6480   34.4100 H   0  0  0  0  0  0  0  0  0  0  0  0
   39.2890   26.2330   35.4390 H   0  0  0  0  0  0  0  0  0  0  0  0
   38.4330   23.7800   34.6770 C   0  0  0  0  0  0  0  0  0  0  0  0
   37.5820   23.0810   34.4220 H   0  0  0  0  0  0  0  0  0  0  0  0
   39.2940   23.4070   34.1180 H   0  0  0  0  0  0  0  0  0  0  0  0
   37.8520   24.1200   38.4030 C   0  0  0  0  0  0  0  0  0  0  0  0
   37.6770   24.2640   37.0260 C   0  0  0  0  0  0  0  0  0  0  0  0
   38.5830   23.6520   36.1510 C   0  0  0  0  0  0  0  0  0  0  0  0
   39.6130   22.9280   36.7050 N   0  0  0  0  0  0  0  0  0  0  0  0
   39.7360   22.8200   38.0480 C   0  0  0  0  0  0  0  0  0  0  0  0
   38.8600   23.4130   38.8800 N   0  0  0  0  0  0  0  0  0  0  0  0
   37.0830   24.6430   38.9640 H   0  0  0  0  0  0  0  0  0  0  0  0
   36.8580   24.8380   36.5770 H   0  0  0  0  0  0  0  0  0  0  0  0
   40.5330   22.2600   38.5150 H   0  0  0  0  0  0  0  0  0  0  0  0
   40.2070   25.5330   33.6870 O   0  0  0  0  0  0  0  0  0  0  0  0
   41.4650   26.0190   34.0200 C   0  0  0  0  0  0  0  0  0  0  0  0
   42.1100   27.1860   33.6550 C   0  0  0  0  0  0  0  0  0  0  0  0
   43.3290   27.2620   34.2070 N   0  0  0  0  0  0  0  0  0  0  0  0
   43.5260   26.1520   34.9500 C   0  0  0  0  0  0  0  0  0  0  0  0
   44.6420   25.8180   35.6910 C   0  0  0  0  0  0  0  0  0  0  0  0
   44.6140   24.6070   36.3830 C   0  0  0  0  0  0  0  0  0  0  0  0
   43.4990   23.7980   36.3100 C   0  0  0  0  0  0  0  0  0  0  0  0
   42.3990   24.1820   35.5480 C   0  0  0  0  0  0  0  0  0  0  0  0
   42.3920   25.3800   34.8450 C   0  0  0  0  0  0  0  0  0  0  0  0
   43.9960   28.0720   34.0610 H   0  0  0  0  0  0  0  0  0  0  0  0
  1  5  1  0  0  0  0
  1 13  1  0  0  0  0
  2  1  1  0  0  0  0
  3  2  1  0  0  0  0
  3  4  1  0  0  0  0
  4  5  1  0  0  0  0
  4 11  1  0  0  0  0
  5 12  1  1  0  0  0
  6  2  1  0  0  0  0
  7  2  1  0  0  0  0
  8  3  1  0  0  0  0
  9  3  1  0  0  0  0
 10  4  1  0  0  0  0
 13 18  1  0  0  0  0
 14 13  1  0  0  0  0
 15 13  1  0  0  0  0
 16 21  1  0  0  0  0
 16 22  1  0  0  0  0
 17 16  2  0  0  0  0
 18 19  2  0  0  0  0
 18 17  1  0  0  0  0
 19 20  1  0  0  0  0
 20 24  1  0  0  0  0
 20 21  2  0  0  0  0
 23 17  1  0  0  0  0
 25 26  1  0  0  0  0
 25  5  1  0  0  0  0
 26 34  1  0  0  0  0
 27 26  2  0  0  0  0
 27 28  1  0  0  0  0
 28 29  1  0  0  0  0
 29 30  1  0  0  0  0
 30 31  2  0  0  0  0
 32 31  1  0  0  0  0
 33 32  2  0  0  0  0
 34 29  2  0  0  0  0
 34 33  1  0  0  0  0
 35 28  1  0  0  0  0
M  END
>  <minimizedAffinity>
-5.20305157

>  <minimizedRMSD>
3.08733416

$$$$
