
 OpenBabel03262519363D

 30 32  0  0  1  0  0  0  0  0999 V2000
   37.7380   25.4590   34.3600 N   0  0  0  0  0  0  0  0  0  0  0  0
   37.1380   25.4280   33.0670 C   0  0  0  0  0  0  0  0  0  0  0  0
   36.8320   26.8590   32.7200 C   0  0  0  0  0  0  0  0  0  0  0  0
   37.2120   27.6470   33.9750 C   0  0  0  0  0  0  0  0  0  0  0  0
   38.3250   26.7500   34.4690 C   0  0  2  0  0  0  0  0  0  0  0  0
   36.1800   24.8460   33.1340 H   0  0  0  0  0  0  0  0  0  0  0  0
   37.7760   24.8990   32.3410 H   0  0  0  0  0  0  0  0  0  0  0  0
   35.7210   26.9820   32.5750 H   0  0  0  0  0  0  0  0  0  0  0  0
   37.3920   27.1930   31.8370 H   0  0  0  0  0  0  0  0  0  0  0  0
   36.4170   27.7080   34.7070 H   0  0  0  0  0  0  0  0  0  0  0  0
   37.6190   28.6270   33.6500 H   0  0  0  0  0  0  0  0  0  0  0  0
   38.4510   26.9840   35.5450 H   0  0  0  0  0  0  0  0  0  0  0  0
   39.6030   26.9440   33.7470 C   0  0  0  0  0  0  0  0  0  0  0  0
   39.6910   27.1560   32.2490 C   0  0  0  0  0  0  0  0  0  0  0  0
   41.4120   27.3110   32.0290 S   0  0  0  0  0  0  0  0  0  0  0  0
   41.8340   27.0900   33.8530 C   0  0  0  0  0  0  0  0  0  0  0  0
   42.8370   27.0850   34.4240 H   0  0  0  0  0  0  0  0  0  0  0  0
   40.6300   26.9060   34.5640 N   0  0  0  0  0  0  0  0  0  0  0  0
   38.7190   24.4550   34.6160 C   0  0  0  0  0  0  0  0  0  0  0  0
   39.7270   24.6880   34.2160 H   0  0  0  0  0  0  0  0  0  0  0  0
   38.4120   23.5300   34.0700 H   0  0  0  0  0  0  0  0  0  0  0  0
   37.9370   24.1320   38.3130 C   0  0  0  0  0  0  0  0  0  0  0  0
   37.8390   24.5350   36.9790 C   0  0  0  0  0  0  0  0  0  0  0  0
   38.7710   24.0590   36.0600 C   0  0  0  0  0  0  0  0  0  0  0  0
   39.7530   23.2080   36.5130 N   0  0  0  0  0  0  0  0  0  0  0  0
   39.8080   22.8430   37.8200 C   0  0  0  0  0  0  0  0  0  0  0  0
   38.9010   23.3080   38.7070 N   0  0  0  0  0  0  0  0  0  0  0  0
   37.2150   24.4970   39.0360 H   0  0  0  0  0  0  0  0  0  0  0  0
   37.0640   25.1980   36.6610 H   0  0  0  0  0  0  0  0  0  0  0  0
   40.5500   22.1850   38.2180 H   0  0  0  0  0  0  0  0  0  0  0  0
  1  5  1  0  0  0  0
  1 19  1  0  0  0  0
  2  6  1  0  0  0  0
  2  1  1  0  0  0  0
  3  2  1  0  0  0  0
  3  4  1  0  0  0  0
  4  5  1  0  0  0  0
  4 10  1  0  0  0  0
  5 12  1  1  0  0  0
  7  2  1  0  0  0  0
  8  3  1  0  0  0  0
  9  3  1  0  0  0  0
 11  4  1  0  0  0  0
 13  5  1  0  0  0  0
 13 18  1  0  0  0  0
 14 13  2  0  0  0  0
 15 14  1  0  0  0  0
 15 16  1  0  0  0  0
 16 17  1  0  0  0  0
 16 18  2  0  0  0  0
 19 24  1  0  0  0  0
 20 19  1  0  0  0  0
 21 19  1  0  0  0  0
 22 27  1  0  0  0  0
 22 28  1  0  0  0  0
 23 22  2  0  0  0  0
 24 25  2  0  0  0  0
 24 23  1  0  0  0  0
 25 26  1  0  0  0  0
 26 30  1  0  0  0  0
 26 27  2  0  0  0  0
 29 23  1  0  0  0  0
M  END
>  <minimizedAffinity>
-4.36964655

>  <minimizedRMSD>
0.624500751

$$$$
