
 OpenBabel03262520003D

 32 35  0  0  1  0  0  0  0  0999 V2000
   38.5420   23.9350   34.2700 C   0  0  0  0  0  0  0  0  0  0  0  0
   37.9250   22.7970   34.7800 C   0  0  0  0  0  0  0  0  0  0  0  0
   38.5540   21.7730   34.1330 N   0  0  0  0  0  0  0  0  0  0  0  0
   39.4600   22.3040   33.3160 C   0  0  0  0  0  0  0  0  0  0  0  0
   39.4730   23.6320   33.3830 N   0  0  0  0  0  0  0  0  0  0  0  0
   37.1370   22.7920   35.5170 H   0  0  0  0  0  0  0  0  0  0  0  0
   40.0170   21.5670   32.7520 H   0  0  0  0  0  0  0  0  0  0  0  0
   38.2000   25.3010   34.6570 C   0  0  0  0  0  0  0  0  0  0  0  0
   37.3010   26.0420   33.8610 C   0  0  0  0  0  0  0  0  0  0  0  0
   36.9950   27.3600   34.2710 C   0  0  0  0  0  0  0  0  0  0  0  0
   37.5910   27.8160   35.4040 N   0  0  0  0  0  0  0  0  0  0  0  0
   38.4460   27.0740   36.1370 C   0  0  0  0  0  0  0  0  0  0  0  0
   38.7550   25.8170   35.7700 N   0  0  0  0  0  0  0  0  0  0  0  0
   36.9020   25.5550   32.9860 H   0  0  0  0  0  0  0  0  0  0  0  0
   36.3140   27.9110   33.6620 H   0  0  0  0  0  0  0  0  0  0  0  0
   38.8370   27.5740   37.0110 H   0  0  0  0  0  0  0  0  0  0  0  0
   40.3510   24.4350   32.6160 C   0  0  1  0  0  0  0  0  0  0  0  0
   40.9790   25.6600   33.0290 C   0  0  0  0  0  0  0  0  0  0  0  0
   41.7880   24.3370   32.9870 C   0  0  1  0  0  0  0  0  0  0  0  0
   40.1200   24.3570   31.5010 H   0  0  0  0  0  0  0  0  0  0  0  0
   41.3000   26.4240   32.3030 H   0  0  0  0  0  0  0  0  0  0  0  0
   40.7960   26.0610   34.0190 H   0  0  0  0  0  0  0  0  0  0  0  0
   42.3520   24.1520   34.3810 C   0  0  0  0  0  0  0  0  0  0  0  0
   43.4080   25.1520   34.6300 C   0  0  0  0  0  3  0  0  0  0  0  0
   43.9330   24.7620   36.3130 S   0  0  0  0  0  0  0  0  0  0  0  0
   42.6650   23.3220   36.4370 C   0  0  0  0  0  0  0  0  0  0  0  0
   42.5330   22.6820   37.3110 H   0  0  0  0  0  0  0  0  0  0  0  0
   42.1490   23.3390   35.4250 N   0  0  0  0  0  0  0  0  0  0  0  0
   42.8060   24.3510   31.8670 C   0  0  0  0  0  0  0  0  0  0  0  0
   43.7520   23.3660   32.0700 F   0  0  0  0  0  0  0  0  0  0  0  0
   42.1290   23.9310   30.6470 F   0  0  0  0  0  0  0  0  0  0  0  0
   43.3210   25.5620   31.6120 F   0  0  0  0  0  0  0  0  0  0  0  0
  1  8  1  0  0  0  0
  1  2  2  0  0  0  0
  2  6  1  0  0  0  0
  3  2  1  0  0  0  0
  4  5  1  0  0  0  0
  4  3  2  0  0  0  0
  5  1  1  0  0  0  0
  7  4  1  0  0  0  0
  8 13  1  0  0  0  0
  9 10  1  0  0  0  0
  9  8  2  0  0  0  0
 10 11  2  0  0  0  0
 11 12  1  0  0  0  0
 12 16  1  0  0  0  0
 13 12  2  0  0  0  0
 14  9  1  0  0  0  0
 15 10  1  0  0  0  0
 17 20  1  6  0  0  0
 17 19  1  0  0  0  0
 17 18  1  0  0  0  0
 17  5  1  0  0  0  0
 18 22  1  0  0  0  0
 19 29  1  6  0  0  0
 19 18  1  0  0  0  0
 19 23  1  0  0  0  0
 21 18  1  0  0  0  0
 23 24  2  0  0  0  0
 23 28  1  0  0  0  0
 24 25  1  0  0  0  0
 25 26  1  0  0  0  0
 26 27  1  0  0  0  0
 28 26  2  0  0  0  0
 29 30  1  0  0  0  0
 31 29  1  0  0  0  0
 32 29  1  0  0  0  0
M  END
>  <minimizedAffinity>
-3.44736767

>  <minimizedRMSD>
5.83909369

$$$$
