
 OpenBabel03262517283D

 45 48  0  0  0  0  0  0  0  0999 V2000
   38.8350   24.3080   33.7980 N   0  0  0  0  0  0  0  0  0  0  0  0
   38.9710   23.6310   32.6580 N   0  0  0  0  0  0  0  0  0  0  0  0
   38.6190   24.3840   31.6090 C   0  0  0  0  0  0  0  0  0  0  0  0
   38.2400   25.6120   32.1490 C   0  0  0  0  0  0  0  0  0  0  0  0
   38.3730   25.5750   33.5430 C   0  0  0  0  0  0  0  0  0  0  0  0
   38.6360   24.0780   30.5720 H   0  0  0  0  0  0  0  0  0  0  0  0
   38.0790   23.5620   35.9780 C   0  0  0  0  0  0  0  0  0  0  0  0
   39.1230   23.8000   35.0870 C   0  0  0  0  0  0  0  0  0  0  0  0
   40.4260   23.5400   35.4650 C   0  0  0  0  0  0  0  0  0  0  0  0
   40.6070   23.0500   36.7300 N   0  0  0  0  0  0  0  0  0  0  0  0
   39.6020   22.8250   37.5780 C   0  0  0  0  0  0  0  0  0  0  0  0
   38.3260   23.0810   37.2020 N   0  0  0  0  0  0  0  0  0  0  0  0
   37.0290   23.7490   35.7300 H   0  0  0  0  0  0  0  0  0  0  0  0
   41.2470   23.7180   34.7880 H   0  0  0  0  0  0  0  0  0  0  0  0
   39.9780   22.4380   38.5200 H   0  0  0  0  0  0  0  0  0  0  0  0
   38.0820   26.6370   34.4090 N   0  0  0  0  0  0  0  0  0  0  0  0
   39.0390   27.1160   35.3740 C   0  0  0  0  0  0  0  0  0  0  0  0
   40.3000   27.1100   34.9750 N   0  0  0  0  0  0  0  0  0  0  0  0
   38.5320   27.5390   36.6430 N   0  0  0  0  0  0  0  0  0  0  0  0
   40.9600   27.4820   35.6860 H   0  0  0  0  0  0  0  0  0  0  0  0
   37.1360   27.0790   34.3340 H   0  0  0  0  0  0  0  0  0  0  0  0
   37.8120   28.3070   36.7410 H   0  0  0  0  0  0  0  0  0  0  0  0
   39.0180   26.9410   37.3570 H   0  0  0  0  0  0  0  0  0  0  0  0
   37.8040   26.6520   31.3150 N   0  0  0  0  0  0  0  0  0  0  0  0
   36.5560   27.1510   31.0470 C   0  0  0  0  0  0  0  0  0  0  0  0
   36.7410   28.1930   30.1320 C   0  0  0  0  0  0  0  0  0  0  0  0
   38.0550   28.2960   29.8740 N   0  0  0  0  0  0  0  0  0  0  0  0
   38.7290   27.3450   30.6010 C   0  0  0  0  0  0  0  0  0  0  0  0
   35.7330   26.6910   31.5470 H   0  0  0  0  0  0  0  0  0  0  0  0
   35.8500   28.7050   29.8070 H   0  0  0  0  0  0  0  0  0  0  0  0
   40.2080   27.3200   30.4340 C   0  0  0  0  0  0  0  0  0  0  0  0
   40.6400   26.1600   29.5200 C   0  0  0  0  0  0  0  0  0  0  0  0
   41.1240   25.3460   30.0940 H   0  0  0  0  0  0  0  0  0  0  0  0
   41.3180   26.4390   28.7260 H   0  0  0  0  0  0  0  0  0  0  0  0
   39.7000   25.7690   29.0570 H   0  0  0  0  0  0  0  0  0  0  0  0
   40.9990   27.1850   31.6630 C   0  0  0  0  0  0  0  0  0  0  0  0
   40.8720   28.0280   32.3400 H   0  0  0  0  0  0  0  0  0  0  0  0
   40.8060   26.1870   32.1050 H   0  0  0  0  0  0  0  0  0  0  0  0
   42.0670   27.1510   31.3650 H   0  0  0  0  0  0  0  0  0  0  0  0
   40.5560   28.5570   29.6130 C   0  0  0  0  0  0  0  0  0  0  0  0
   40.4020   28.3570   28.5300 H   0  0  0  0  0  0  0  0  0  0  0  0
   39.7790   29.3450   29.8510 H   0  0  0  0  0  0  0  0  0  0  0  0
   41.8780   29.1530   29.9110 C   0  0  0  0  0  0  0  0  0  0  0  0
   42.3210   30.1670   28.8070 C   0  0  0  0  0  0  0  0  0  0  0  0
   43.1070   28.9560   29.1420 C   0  0  0  0  0  0  0  0  0  0  0  0
  1  8  1  0  0  0  0
  2  1  1  0  0  0  0
  3  4  1  0  0  0  0
  3  2  2  0  0  0  0
  4  5  2  0  0  0  0
  5  1  1  0  0  0  0
  5 16  1  0  0  0  0
  6  3  1  0  0  0  0
  7 12  1  0  0  0  0
  8  9  1  0  0  0  0
  8  7  2  0  0  0  0
  9 10  2  0  0  0  0
 10 11  1  0  0  0  0
 11 15  1  0  0  0  0
 12 11  2  0  0  0  0
 13  7  1  0  0  0  0
 14  9  1  0  0  0  0
 16 17  1  0  0  0  0
 17 19  1  0  0  0  0
 18 17  2  0  0  0  0
 18 20  1  0  0  0  0
 19 22  1  0  0  0  0
 19 23  1  0  0  0  0
 21 16  1  0  0  0  0
 24  4  1  0  0  0  0
 25 24  1  0  0  0  0
 25 29  1  0  0  0  0
 26 25  2  0  0  0  0
 27 26  1  0  0  0  0
 27 28  2  0  0  0  0
 28 24  1  0  0  0  0
 30 26  1  0  0  0  0
 31 28  1  0  0  0  0
 31 36  1  0  0  0  0
 32 33  1  0  0  0  0
 32 31  1  0  0  0  0
 34 32  1  0  0  0  0
 35 32  1  0  0  0  0
 36 38  1  0  0  0  0
 36 37  1  0  0  0  0
 39 36  1  0  0  0  0
 40 42  1  0  0  0  0
 40 43  1  0  0  0  0
 40 31  1  0  0  0  0
 41 40  1  0  0  0  0
 44 45  1  0  0  0  0
 44 43  1  0  0  0  0
 45 43  1  0  0  0  0
M  END
>  <minimizedAffinity>
-4.75107908

>  <minimizedRMSD>
0.498189837

$$$$
