
 OpenBabel03262514363D

 26 27  0  0  0  0  0  0  0  0999 V2000
   38.3970   25.9220   34.1820 C   0  0  0  0  0  0  0  0  0  0  0  0
   37.9220   24.3940   37.4880 C   0  0  0  0  0  0  0  0  0  0  0  0
   38.8890   23.3950   37.5370 C   0  0  0  0  0  0  0  0  0  0  0  0
   39.7000   23.2640   36.4210 C   0  0  0  0  0  0  0  0  0  0  0  0
   39.5030   24.1030   35.3660 N   0  0  0  0  0  0  0  0  0  0  0  0
   38.5530   25.0520   35.3650 C   0  0  0  0  0  0  0  0  0  0  0  0
   37.7440   25.2000   36.4520 N   0  0  0  0  0  0  0  0  0  0  0  0
   37.2280   24.5930   38.3010 H   0  0  0  0  0  0  0  0  0  0  0  0
   40.4610   22.4970   36.4300 H   0  0  0  0  0  0  0  0  0  0  0  0
   38.9900   22.5790   38.7020 N   0  0  0  0  0  0  0  0  0  0  0  0
   39.4010   22.9820   39.5960 H   0  0  0  0  0  0  0  0  0  0  0  0
   38.6890   21.5840   38.7710 H   0  0  0  0  0  0  0  0  0  0  0  0
   37.1530   26.7870   34.3040 C   0  0  0  0  0  0  0  0  0  0  0  0
   37.4680   27.8580   34.3100 H   0  0  0  0  0  0  0  0  0  0  0  0
   36.6730   26.6260   35.3000 H   0  0  0  0  0  0  0  0  0  0  0  0
   36.4420   26.6700   33.4880 H   0  0  0  0  0  0  0  0  0  0  0  0
   39.6350   26.7850   34.0040 C   0  0  0  0  0  0  0  0  0  0  0  0
   39.9310   27.1620   35.0090 H   0  0  0  0  0  0  0  0  0  0  0  0
   39.3900   27.6100   33.3220 H   0  0  0  0  0  0  0  0  0  0  0  0
   40.4530   26.1390   33.5970 H   0  0  0  0  0  0  0  0  0  0  0  0
   38.3220   25.0280   32.9610 C   0  0  0  0  0  0  0  0  0  0  0  0
   38.8050   24.0830   33.1990 H   0  0  0  0  0  0  0  0  0  0  0  0
   38.9330   25.5290   32.1710 H   0  0  0  0  0  0  0  0  0  0  0  0
   36.9420   24.8880   32.3920 C   0  0  0  0  0  0  0  0  0  0  0  0
   36.8940   24.4480   30.9080 C   0  0  0  0  0  0  0  0  0  0  0  0
   36.5470   23.4520   31.9990 C   0  0  0  0  0  0  0  0  0  0  0  0
  1 13  1  0  0  0  0
  1  6  1  0  0  0  0
  2  3  1  0  0  0  0
  2  8  1  0  0  0  0
  3 10  1  0  0  0  0
  4  9  1  0  0  0  0
  4  3  2  0  0  0  0
  5  4  1  0  0  0  0
  6  5  2  0  0  0  0
  6  7  1  0  0  0  0
  7  2  2  0  0  0  0
 10 12  1  0  0  0  0
 10 11  1  0  0  0  0
 13 14  1  0  0  0  0
 13 15  1  0  0  0  0
 16 13  1  0  0  0  0
 17  1  1  0  0  0  0
 17 18  1  0  0  0  0
 19 17  1  0  0  0  0
 20 17  1  0  0  0  0
 21 22  1  0  0  0  0
 21  1  1  0  0  0  0
 23 21  1  0  0  0  0
 24 21  1  0  0  0  0
 25 26  1  0  0  0  0
 25 24  1  0  0  0  0
 26 24  1  0  0  0  0
M  END
>  <minimizedAffinity>
-3.94733

>  <minimizedRMSD>
3.92582607

$$$$
