
 OpenBabel03262518073D

 30 33  0  0  0  0  0  0  0  0999 V2000
   43.6170   19.7300   37.0880 C   0  0  0  0  0  0  0  0  0  0  0  0
   42.4740   20.5080   37.3000 C   0  0  0  0  0  0  0  0  0  0  0  0
   41.9460   21.2230   36.2350 C   0  0  0  0  0  0  0  0  0  0  0  0
   42.5900   21.1170   35.0210 N   0  0  0  0  0  0  0  0  0  0  0  0
   43.6740   20.3710   34.8470 C   0  0  0  0  0  0  0  0  0  0  0  0
   44.2010   19.6630   35.8910 N   0  0  0  0  0  0  0  0  0  0  0  0
   44.0080   19.1840   37.9310 H   0  0  0  0  0  0  0  0  0  0  0  0
   42.0160   20.5530   38.2630 H   0  0  0  0  0  0  0  0  0  0  0  0
   44.3310   20.3020   33.5180 C   0  0  0  0  0  0  0  0  0  0  0  0
   45.7060   20.0830   33.3550 C   0  0  0  0  0  0  0  0  0  0  0  0
   46.2150   20.0430   32.0990 C   0  0  0  0  0  0  0  0  0  0  0  0
   45.3860   20.2150   31.0020 C   0  0  0  0  0  0  0  0  0  0  0  0
   43.7380   20.4570   31.8130 S   0  0  0  0  0  0  0  0  0  0  0  0
   46.3640   19.9470   34.2040 H   0  0  0  0  0  0  0  0  0  0  0  0
   47.2460   19.8840   31.8330 H   0  0  0  0  0  0  0  0  0  0  0  0
   45.4860   20.2500   29.5320 C   0  0  0  0  0  0  0  0  0  0  0  0
   44.4600   19.9010   28.7250 C   0  0  0  0  0  0  0  0  0  0  0  0
   45.2610   20.1750   27.0940 S   0  0  0  0  0  0  0  0  0  0  0  0
   46.8710   20.7230   27.8470 C   0  0  0  0  0  0  0  0  0  0  0  0
   47.6870   21.0020   27.2060 H   0  0  0  0  0  0  0  0  0  0  0  0
   46.6560   20.6490   29.0860 N   0  0  0  0  0  0  0  0  0  0  0  0
   40.7560   22.0590   36.3730 C   0  0  0  0  0  0  0  0  0  0  0  0
   39.9100   22.6590   35.4960 N   0  0  0  0  0  0  0  0  0  0  0  0
   38.9970   23.3000   36.1640 O   0  0  0  0  0  0  0  0  0  0  0  0
   39.2150   23.1430   37.4740 C   0  0  0  0  0  0  0  0  0  0  0  0
   40.3000   22.3770   37.5980 N   0  0  0  0  0  0  0  0  0  0  0  0
   38.4120   23.7060   38.5700 C   0  0  0  0  0  0  0  0  0  0  0  0
   39.2470   23.8820   39.6860 F   0  0  0  0  0  0  0  0  0  0  0  0
   37.3820   22.8800   38.9250 F   0  0  0  0  0  0  0  0  0  0  0  0
   37.9510   24.9740   38.2330 F   0  0  0  0  0  0  0  0  0  0  0  0
  1  2  1  0  0  0  0
  1  7  1  0  0  0  0
  2  8  1  0  0  0  0
  3 22  1  0  0  0  0
  3  2  2  0  0  0  0
  4  3  1  0  0  0  0
  5  4  2  0  0  0  0
  5  6  1  0  0  0  0
  6  1  2  0  0  0  0
  9  5  1  0  0  0  0
 10  9  2  0  0  0  0
 10 14  1  0  0  0  0
 11 10  1  0  0  0  0
 12 13  1  0  0  0  0
 12 11  2  0  0  0  0
 13  9  1  0  0  0  0
 15 11  1  0  0  0  0
 16 12  1  0  0  0  0
 17 16  2  0  0  0  0
 18 19  1  0  0  0  0
 18 17  1  0  0  0  0
 19 21  2  0  0  0  0
 20 19  1  0  0  0  0
 21 16  1  0  0  0  0
 22 26  1  0  0  0  0
 23 24  1  0  0  0  0
 23 22  2  0  0  0  0
 24 25  1  0  0  0  0
 25 26  2  0  0  0  0
 25 27  1  0  0  0  0
 27 29  1  0  0  0  0
 27 28  1  0  0  0  0
 30 27  1  0  0  0  0
M  END
>  <minimizedAffinity>
-3.88805079

>  <minimizedRMSD>
0.0297781285

$$$$
