
 OpenBabel03262519293D

 30 33  0  0  0  0  0  0  0  0999 V2000
   40.5670   21.9530   37.3210 O   0  0  0  0  0  0  0  0  0  0  0  0
   41.8340   22.0990   36.8010 C   0  0  0  0  0  0  0  0  0  0  0  0
   42.3810   23.2380   36.2250 C   0  0  0  0  0  0  0  0  0  0  0  0
   43.6410   23.0110   35.8280 N   0  0  0  0  0  0  0  0  0  0  0  0
   43.9840   21.7280   36.1190 C   0  0  0  0  0  0  0  0  0  0  0  0
   45.1380   21.0010   35.9250 C   0  0  0  0  0  0  0  0  0  0  0  0
   45.1830   19.6710   36.3420 C   0  0  0  0  0  0  0  0  0  0  0  0
   44.0740   19.0980   36.9440 C   0  0  0  0  0  0  0  0  0  0  0  0
   42.9220   19.8480   37.1290 C   0  0  0  0  0  0  0  0  0  0  0  0
   42.8670   21.1760   36.7170 C   0  0  0  0  0  0  0  0  0  0  0  0
   41.8430   24.1800   36.1190 H   0  0  0  0  0  0  0  0  0  0  0  0
   44.2320   23.7400   35.3700 H   0  0  0  0  0  0  0  0  0  0  0  0
   45.9740   21.5070   35.4480 H   0  0  0  0  0  0  0  0  0  0  0  0
   46.1330   19.1910   36.1440 H   0  0  0  0  0  0  0  0  0  0  0  0
   44.1740   18.0580   37.2450 H   0  0  0  0  0  0  0  0  0  0  0  0
   42.0800   19.3610   37.6020 H   0  0  0  0  0  0  0  0  0  0  0  0
   39.6090   22.9230   37.3490 C   0  0  0  0  0  0  0  0  0  0  0  0
   39.0380   23.2260   38.5850 C   0  0  0  0  0  0  0  0  0  0  0  0
   38.0530   24.2160   38.6420 C   0  0  0  0  0  0  0  0  0  0  0  0
   37.7060   24.8260   37.4930 N   0  0  0  0  0  0  0  0  0  0  0  0
   38.2690   24.5180   36.3050 C   0  0  0  0  0  0  0  0  0  0  0  0
   39.2150   23.5690   36.2420 N   0  0  0  0  0  0  0  0  0  0  0  0
   39.3440   22.7120   39.4960 H   0  0  0  0  0  0  0  0  0  0  0  0
   37.5990   24.4670   39.5860 H   0  0  0  0  0  0  0  0  0  0  0  0
   37.8680   25.2050   35.0540 C   0  0  0  0  0  0  0  0  0  0  0  0
   37.9800   24.6540   33.7370 C   0  0  0  0  0  0  0  0  0  0  0  0
   37.3110   26.0410   32.7570 S   0  0  0  0  0  0  0  0  0  0  0  0
   37.0010   27.1150   34.2830 C   0  0  0  0  0  0  0  0  0  0  0  0
   36.5790   28.0920   34.1390 H   0  0  0  0  0  0  0  0  0  0  0  0
   37.3700   26.4360   35.2280 N   0  0  0  0  0  0  0  0  0  0  0  0
  1 17  1  0  0  0  0
  2  1  1  0  0  0  0
  3  2  2  0  0  0  0
  4  5  1  0  0  0  0
  4  3  1  0  0  0  0
  5 10  1  0  0  0  0
  6  5  2  0  0  0  0
  6  7  1  0  0  0  0
  7  8  2  0  0  0  0
  8  9  1  0  0  0  0
  8 15  1  0  0  0  0
  9 16  1  0  0  0  0
 10  2  1  0  0  0  0
 10  9  2  0  0  0  0
 11  3  1  0  0  0  0
 12  4  1  0  0  0  0
 13  6  1  0  0  0  0
 14  7  1  0  0  0  0
 17 18  1  0  0  0  0
 18 19  2  0  0  0  0
 18 23  1  0  0  0  0
 19 24  1  0  0  0  0
 20 19  1  0  0  0  0
 21 20  2  0  0  0  0
 22 21  1  0  0  0  0
 22 17  2  0  0  0  0
 25 30  1  0  0  0  0
 25 21  1  0  0  0  0
 26 25  2  0  0  0  0
 27 26  1  0  0  0  0
 27 28  1  0  0  0  0
 28 30  2  0  0  0  0
 29 28  1  0  0  0  0
M  END
>  <minimizedAffinity>
-5.06791258

>  <minimizedRMSD>
1.29542148

$$$$
