
 OpenBabel03262519573D

 29 32  0  0  1  0  0  0  0  0999 V2000
   38.1390   23.8490   34.5730 C   0  0  0  0  0  0  0  0  0  0  0  0
   38.3190   25.0640   33.9140 C   0  0  0  0  0  0  0  0  0  0  0  0
   37.9000   24.8100   32.6400 N   0  0  0  0  0  0  0  0  0  0  0  0
   37.5110   23.5480   32.5820 C   0  0  0  0  0  0  0  0  0  0  0  0
   37.6440   22.9120   33.7660 N   0  0  0  0  0  0  0  0  0  0  0  0
   38.7100   25.9810   34.3610 H   0  0  0  0  0  0  0  0  0  0  0  0
   37.1350   23.1210   31.6530 H   0  0  0  0  0  0  0  0  0  0  0  0
   38.4480   23.6090   35.9740 C   0  0  0  0  0  0  0  0  0  0  0  0
   39.6630   23.0080   36.3400 C   0  0  0  0  0  0  0  0  0  0  0  0
   39.9250   22.7930   37.7050 C   0  0  0  0  0  0  0  0  0  0  0  0
   38.9810   23.1820   38.5930 N   0  0  0  0  0  0  0  0  0  0  0  0
   37.8240   23.7560   38.2090 C   0  0  0  0  0  0  0  0  0  0  0  0
   37.5370   23.9780   36.9100 N   0  0  0  0  0  0  0  0  0  0  0  0
   40.3220   22.7500   35.5230 H   0  0  0  0  0  0  0  0  0  0  0  0
   40.8570   22.3350   37.9460 H   0  0  0  0  0  0  0  0  0  0  0  0
   37.1600   24.0180   39.0050 H   0  0  0  0  0  0  0  0  0  0  0  0
   37.3010   21.5430   33.9890 C   0  0  1  0  0  0  0  0  0  0  0  0
   36.1010   21.1380   34.7320 C   0  0  0  0  0  0  0  0  0  0  0  0
   36.0380   21.1130   33.2290 C   0  0  2  0  0  0  0  0  0  0  0  0
   38.1730   20.8530   33.9180 H   0  0  0  0  0  0  0  0  0  0  0  0
   35.5730   21.9520   35.2800 H   0  0  0  0  0  0  0  0  0  0  0  0
   36.1170   20.1880   35.2940 H   0  0  0  0  0  0  0  0  0  0  0  0
   35.4210   21.8800   32.7690 H   0  0  0  0  0  0  0  0  0  0  0  0
   36.0900   19.7720   32.5500 C   0  0  0  0  0  0  0  0  0  0  0  0
   36.9080   19.6440   31.3750 C   0  0  0  0  0  3  0  0  0  0  0  0
   36.6210   17.8500   30.9530 S   0  0  0  0  0  0  0  0  0  0  0  0
   35.4570   17.6240   32.4400 C   0  0  0  0  0  0  0  0  0  0  0  0
   34.9670   16.6900   32.6830 H   0  0  0  0  0  0  0  0  0  0  0  0
   35.4320   18.7080   32.9640 N   0  0  0  0  0  0  0  0  0  0  0  0
  1  8  1  0  0  0  0
  2  6  1  0  0  0  0
  2  1  2  0  0  0  0
  3  2  1  0  0  0  0
  4  3  2  0  0  0  0
  4  5  1  0  0  0  0
  5 17  1  0  0  0  0
  5  1  1  0  0  0  0
  7  4  1  0  0  0  0
  8  9  2  0  0  0  0
  8 13  1  0  0  0  0
  9 10  1  0  0  0  0
 10 15  1  0  0  0  0
 10 11  2  0  0  0  0
 12 11  1  0  0  0  0
 12 16  1  0  0  0  0
 13 12  2  0  0  0  0
 14  9  1  0  0  0  0
 17 20  1  6  0  0  0
 17 18  1  0  0  0  0
 18 21  1  0  0  0  0
 18 22  1  0  0  0  0
 19 23  1  6  0  0  0
 19 17  1  0  0  0  0
 19 18  1  0  0  0  0
 24 29  1  0  0  0  0
 24 19  1  0  0  0  0
 25 24  2  0  0  0  0
 26 25  1  0  0  0  0
 26 27  1  0  0  0  0
 27 28  1  0  0  0  0
 27 29  2  0  0  0  0
M  END
>  <minimizedAffinity>
-4.66713667

>  <minimizedRMSD>
0.918284655

$$$$
