
 OpenBabel03262518273D

 25 27  0  0  0  0  0  0  0  0999 V2000
   39.4740   22.6680   38.2040 N   0  0  0  0  0  0  0  0  0  0  0  0
   38.5010   23.5490   38.1160 N   0  0  0  0  0  0  0  0  0  0  0  0
   38.4670   24.0870   36.8740 C   0  0  0  0  0  0  0  0  0  0  0  0
   39.4780   23.5010   36.1600 C   0  0  0  0  0  0  0  0  0  0  0  0
   40.0970   22.6180   37.0050 C   0  0  0  0  0  0  0  0  0  0  0  0
   39.7370   22.0930   39.0510 H   0  0  0  0  0  0  0  0  0  0  0  0
   39.7010   23.7210   35.1470 H   0  0  0  0  0  0  0  0  0  0  0  0
   41.2520   21.7440   36.6850 C   0  0  0  0  0  0  0  0  0  0  0  0
   41.7680   21.6600   35.3530 C   0  0  0  0  0  0  0  0  0  0  0  0
   43.1420   20.4910   35.4860 S   0  0  0  0  0  0  0  0  0  0  0  0
   42.8250   20.2780   37.3370 C   0  0  0  0  0  0  0  0  0  0  0  0
   43.3770   19.6400   38.0400 H   0  0  0  0  0  0  0  0  0  0  0  0
   41.9480   20.9650   37.4810 N   0  0  0  0  0  0  0  0  0  0  0  0
   37.5200   25.0630   36.5050 O   0  0  0  0  0  0  0  0  0  0  0  0
   37.9350   26.2290   35.8590 C   0  0  0  0  0  0  0  0  0  0  0  0
   38.7740   27.0210   36.3510 O   0  0  0  0  0  0  0  0  0  0  0  0
   37.3660   26.5390   34.5510 C   0  0  0  0  0  0  0  0  0  0  0  0
   37.4370   25.5470   33.5580 C   0  0  0  0  0  0  0  0  0  0  0  0
   36.9020   25.8120   32.2940 C   0  0  0  0  0  0  0  0  0  0  0  0
   36.3410   27.0260   32.1080 N   0  0  0  0  0  0  0  0  0  0  0  0
   36.2820   27.9520   33.0580 C   0  0  0  0  0  0  0  0  0  0  0  0
   36.7910   27.7320   34.2960 N   0  0  0  0  0  0  0  0  0  0  0  0
   37.8890   24.6000   33.7450 H   0  0  0  0  0  0  0  0  0  0  0  0
   36.9520   25.0520   31.5220 H   0  0  0  0  0  0  0  0  0  0  0  0
   35.8220   28.9230   32.8730 H   0  0  0  0  0  0  0  0  0  0  0  0
  1  6  1  0  0  0  0
  2  1  1  0  0  0  0
  3  2  2  0  0  0  0
  4  3  1  0  0  0  0
  4  5  2  0  0  0  0
  5  1  1  0  0  0  0
  7  4  1  0  0  0  0
  8  5  1  0  0  0  0
  8 13  1  0  0  0  0
  9 10  1  0  0  0  0
  9  8  2  0  0  0  0
 10 11  1  0  0  0  0
 11 13  2  0  0  0  0
 11 12  1  0  0  0  0
 14  3  1  0  0  0  0
 15 16  2  0  0  0  0
 15 14  1  0  0  0  0
 17 15  1  0  0  0  0
 18 23  1  0  0  0  0
 18 17  2  0  0  0  0
 19 18  1  0  0  0  0
 20 19  2  0  0  0  0
 20 21  1  0  0  0  0
 21 22  2  0  0  0  0
 22 17  1  0  0  0  0
 24 19  1  0  0  0  0
 25 21  1  0  0  0  0
M  END
>  <minimizedAffinity>
-4.82037067

>  <minimizedRMSD>
1.24657655

$$$$
