
 OpenBabel03262519563D

 29 32  0  0  1  0  0  0  0  0999 V2000
   38.0920   23.8220   34.5590 C   0  0  0  0  0  0  0  0  0  0  0  0
   38.2450   25.0400   33.8970 C   0  0  0  0  0  0  0  0  0  0  0  0
   37.8080   24.7790   32.6300 N   0  0  0  0  0  0  0  0  0  0  0  0
   37.4350   23.5130   32.5790 C   0  0  0  0  0  0  0  0  0  0  0  0
   37.5960   22.8790   33.7600 N   0  0  0  0  0  0  0  0  0  0  0  0
   38.6330   25.9610   34.3370 H   0  0  0  0  0  0  0  0  0  0  0  0
   37.0480   23.0800   31.6570 H   0  0  0  0  0  0  0  0  0  0  0  0
   38.4280   23.5860   35.9540 C   0  0  0  0  0  0  0  0  0  0  0  0
   39.6540   22.9970   36.3000 C   0  0  0  0  0  0  0  0  0  0  0  0
   39.9420   22.7860   37.6600 C   0  0  0  0  0  0  0  0  0  0  0  0
   39.0110   23.1670   38.5640 N   0  0  0  0  0  0  0  0  0  0  0  0
   37.8420   23.7300   38.2000 C   0  0  0  0  0  0  0  0  0  0  0  0
   37.5300   23.9490   36.9060 N   0  0  0  0  0  0  0  0  0  0  0  0
   40.3020   22.7440   35.4720 H   0  0  0  0  0  0  0  0  0  0  0  0
   40.8830   22.3370   37.8850 H   0  0  0  0  0  0  0  0  0  0  0  0
   37.1890   23.9870   39.0070 H   0  0  0  0  0  0  0  0  0  0  0  0
   37.2740   21.5060   33.9890 C   0  0  1  0  0  0  0  0  0  0  0  0
   36.0170   21.0800   34.6180 C   0  0  0  0  0  0  0  0  0  0  0  0
   36.1100   21.0120   33.1180 C   0  0  2  0  0  0  0  0  0  0  0  0
   38.1700   20.8430   34.0300 H   0  0  0  0  0  0  0  0  0  0  0  0
   35.4100   21.8910   35.0840 H   0  0  0  0  0  0  0  0  0  0  0  0
   36.0050   20.1470   35.2080 H   0  0  0  0  0  0  0  0  0  0  0  0
   35.5200   21.7450   32.5740 H   0  0  0  0  0  0  0  0  0  0  0  0
   36.2730   19.6550   32.4900 C   0  0  0  0  0  0  0  0  0  0  0  0
   35.3830   18.6070   32.9110 C   0  0  0  0  0  3  0  0  0  0  0  0
   35.9990   17.1930   31.8610 S   0  0  0  0  0  0  0  0  0  0  0  0
   37.3320   18.2890   31.0620 C   0  0  0  0  0  0  0  0  0  0  0  0
   38.0310   17.9370   30.3150 H   0  0  0  0  0  0  0  0  0  0  0  0
   37.1800   19.3660   31.5790 N   0  0  0  0  0  0  0  0  0  0  0  0
  1  8  1  0  0  0  0
  2  6  1  0  0  0  0
  2  1  2  0  0  0  0
  3  2  1  0  0  0  0
  4  3  2  0  0  0  0
  4  5  1  0  0  0  0
  5 17  1  0  0  0  0
  5  1  1  0  0  0  0
  7  4  1  0  0  0  0
  8  9  2  0  0  0  0
  8 13  1  0  0  0  0
  9 10  1  0  0  0  0
 10 15  1  0  0  0  0
 10 11  2  0  0  0  0
 12 11  1  0  0  0  0
 12 16  1  0  0  0  0
 13 12  2  0  0  0  0
 14  9  1  0  0  0  0
 17 20  1  1  0  0  0
 17 18  1  0  0  0  0
 18 21  1  0  0  0  0
 18 22  1  0  0  0  0
 19 23  1  6  0  0  0
 19 17  1  0  0  0  0
 19 18  1  0  0  0  0
 24 25  2  0  0  0  0
 24 19  1  0  0  0  0
 26 25  1  0  0  0  0
 27 29  2  0  0  0  0
 27 26  1  0  0  0  0
 28 27  1  0  0  0  0
 29 24  1  0  0  0  0
M  END
>  <minimizedAffinity>
-4.53324699

>  <minimizedRMSD>
0.870436609

$$$$
