
 OpenBabel03262519563D

 29 32  0  0  1  0  0  0  0  0999 V2000
   37.3550   25.6200   32.8070 C   0  0  0  0  0  0  0  0  0  0  0  0
   37.2130   25.9690   34.1490 C   0  0  0  0  0  0  0  0  0  0  0  0
   37.5090   27.3020   34.1720 N   0  0  0  0  0  0  0  0  0  0  0  0
   37.7940   27.6790   32.9380 C   0  0  0  0  0  0  0  0  0  0  0  0
   37.7110   26.6600   32.0550 N   0  0  0  0  0  0  0  0  0  0  0  0
   36.9300   25.2930   34.9590 H   0  0  0  0  0  0  0  0  0  0  0  0
   38.0620   28.7100   32.7150 H   0  0  0  0  0  0  0  0  0  0  0  0
   37.1440   24.2850   32.2700 C   0  0  0  0  0  0  0  0  0  0  0  0
   38.1820   23.3390   32.2920 C   0  0  0  0  0  0  0  0  0  0  0  0
   37.9390   22.0580   31.7630 C   0  0  0  0  0  0  0  0  0  0  0  0
   36.7090   21.8120   31.2590 N   0  0  0  0  0  0  0  0  0  0  0  0
   35.7340   22.7420   31.2520 C   0  0  0  0  0  0  0  0  0  0  0  0
   35.9280   23.9800   31.7490 N   0  0  0  0  0  0  0  0  0  0  0  0
   39.1130   23.6760   32.7270 H   0  0  0  0  0  0  0  0  0  0  0  0
   38.7500   21.3660   31.7980 H   0  0  0  0  0  0  0  0  0  0  0  0
   34.8050   22.4260   30.8250 H   0  0  0  0  0  0  0  0  0  0  0  0
   37.9670   26.7820   30.6550 C   0  0  1  0  0  0  0  0  0  0  0  0
   38.8400   27.8220   30.0970 C   0  0  0  0  0  0  0  0  0  0  0  0
   39.4180   26.4460   30.2820 C   0  0  2  0  0  0  0  0  0  0  0  0
   37.1790   26.3160   30.0200 H   0  0  0  0  0  0  0  0  0  0  0  0
   39.1400   28.6320   30.8020 H   0  0  0  0  0  0  0  0  0  0  0  0
   38.6390   28.1980   29.0780 H   0  0  0  0  0  0  0  0  0  0  0  0
   40.1500   26.3440   31.0790 H   0  0  0  0  0  0  0  0  0  0  0  0
   39.6140   25.6000   29.0540 C   0  0  0  0  0  0  0  0  0  0  0  0
   40.0550   26.2530   27.8510 C   0  0  0  0  0  3  0  0  0  0  0  0
   40.1320   24.8010   26.6830 S   0  0  0  0  0  0  0  0  0  0  0  0
   39.5560   23.6010   28.0420 C   0  0  0  0  0  0  0  0  0  0  0  0
   39.4190   22.5390   27.8870 H   0  0  0  0  0  0  0  0  0  0  0  0
   39.4070   24.3000   29.0110 N   0  0  0  0  0  0  0  0  0  0  0  0
  1  2  2  0  0  0  0
  2  3  1  0  0  0  0
  2  6  1  0  0  0  0
  4  3  2  0  0  0  0
  5  1  1  0  0  0  0
  5  4  1  0  0  0  0
  7  4  1  0  0  0  0
  8  9  1  0  0  0  0
  8  1  1  0  0  0  0
  9 14  1  0  0  0  0
 10 15  1  0  0  0  0
 10  9  2  0  0  0  0
 11 10  1  0  0  0  0
 12 11  2  0  0  0  0
 12 13  1  0  0  0  0
 13  8  2  0  0  0  0
 16 12  1  0  0  0  0
 17 20  1  6  0  0  0
 17  5  1  0  0  0  0
 18 19  1  0  0  0  0
 18 17  1  0  0  0  0
 18 21  1  0  0  0  0
 19 17  1  0  0  0  0
 19 23  1  1  0  0  0
 22 18  1  0  0  0  0
 24 19  1  0  0  0  0
 25 24  2  0  0  0  0
 26 25  1  0  0  0  0
 26 27  1  0  0  0  0
 27 29  2  0  0  0  0
 28 27  1  0  0  0  0
 29 24  1  0  0  0  0
M  END
>  <minimizedAffinity>
-3.3122716

>  <minimizedRMSD>
6.95314741

$$$$
