
 OpenBabel03262519473D

 38 41  0  0  1  0  0  0  0  0999 V2000
   37.3590   25.7760   32.8760 N   0  0  0  0  0  0  0  0  0  0  0  0
   36.8590   24.6500   32.3670 C   0  0  0  0  0  0  0  0  0  0  0  0
   35.8420   24.8480   31.4580 C   0  0  0  0  0  0  0  0  0  0  0  0
   35.7120   26.1770   31.4060 N   0  0  0  0  0  0  0  0  0  0  0  0
   36.6210   26.7350   32.2550 C   0  0  0  0  0  0  0  0  0  0  0  0
   37.2430   23.6610   32.6650 H   0  0  0  0  0  0  0  0  0  0  0  0
   35.3300   24.0360   30.9560 H   0  0  0  0  0  0  0  0  0  0  0  0
   36.7040   28.2350   32.3600 C   0  0  1  0  0  0  0  0  0  0  0  0
   35.9570   29.0240   31.3540 C   0  0  0  0  0  0  0  0  0  0  0  0
   35.4190   28.9500   32.7620 C   0  0  2  0  0  0  0  0  0  0  0  0
   37.6230   28.5830   32.8290 H   0  0  0  0  0  0  0  0  0  0  0  0
   36.4190   29.9710   30.9970 H   0  0  0  0  0  0  0  0  0  0  0  0
   35.3940   28.5260   30.5390 H   0  0  0  0  0  0  0  0  0  0  0  0
   34.5240   28.3450   32.8800 H   0  0  0  0  0  0  0  0  0  0  0  0
   35.6210   30.1490   33.6140 C   0  0  0  0  0  0  0  0  0  0  0  0
   35.6550   31.4590   33.0720 C   0  0  0  0  0  0  0  0  0  0  0  0
   35.9330   32.5420   34.5870 S   0  0  0  0  0  0  0  0  0  0  0  0
   35.9480   30.9820   35.6650 C   0  0  0  0  0  0  0  0  0  0  0  0
   36.0960   31.1140   36.7510 H   0  0  0  0  0  0  0  0  0  0  0  0
   35.7850   30.1150   34.9150 N   0  0  0  0  0  0  0  0  0  0  0  0
   38.3640   26.0850   33.8150 C   0  0  0  0  0  0  0  0  0  0  0  0
   38.8320   27.0840   33.5810 H   0  0  0  0  0  0  0  0  0  0  0  0
   39.2300   25.3710   33.7110 H   0  0  0  0  0  0  0  0  0  0  0  0
   37.8910   26.0860   35.2200 C   0  0  1  0  0  0  0  0  0  0  0  0
   36.7670   25.9870   35.2290 H   0  0  0  0  0  0  0  0  0  0  0  0
   38.4740   23.5640   37.9840 C   0  0  0  0  0  0  0  0  0  0  0  0
   37.8720   24.6480   37.3130 C   0  0  0  0  0  0  0  0  0  0  0  0
   38.4450   24.9850   36.0330 C   0  0  0  0  0  0  0  0  0  0  0  0
   39.5180   24.2520   35.5500 N   0  0  0  0  0  0  0  0  0  0  0  0
   40.0420   23.2400   36.2300 C   0  0  0  0  0  0  0  0  0  0  0  0
   39.5200   22.8850   37.4640 N   0  0  0  0  0  0  0  0  0  0  0  0
   38.0680   23.2890   38.9420 H   0  0  0  0  0  0  0  0  0  0  0  0
   37.0520   25.2080   37.6820 H   0  0  0  0  0  0  0  0  0  0  0  0
   40.8680   22.7500   35.7540 H   0  0  0  0  0  0  0  0  0  0  0  0
   38.1840   27.4260   35.8880 C   0  0  0  0  0  0  0  0  0  0  0  0
   39.0860   27.2640   36.5450 H   0  0  0  0  0  0  0  0  0  0  0  0
   38.4670   28.2090   35.1610 H   0  0  0  0  0  0  0  0  0  0  0  0
   37.3600   27.7000   36.5680 H   0  0  0  0  0  0  0  0  0  0  0  0
  1 21  1  0  0  0  0
  2  6  1  0  0  0  0
  2  1  1  0  0  0  0
  3  2  2  0  0  0  0
  4  3  1  0  0  0  0
  4  5  2  0  0  0  0
  5  8  1  0  0  0  0
  5  1  1  0  0  0  0
  7  3  1  0  0  0  0
  8 10  1  0  0  0  0
  8 11  1  1  0  0  0
  9  8  1  0  0  0  0
  9 10  1  0  0  0  0
 10 14  1  1  0  0  0
 10 15  1  0  0  0  0
 12  9  1  0  0  0  0
 13  9  1  0  0  0  0
 15 20  1  0  0  0  0
 16 15  2  0  0  0  0
 16 17  1  0  0  0  0
 17 18  1  0  0  0  0
 18 19  1  0  0  0  0
 20 18  2  0  0  0  0
 21 24  1  0  0  0  0
 22 21  1  0  0  0  0
 23 21  1  0  0  0  0
 24 25  1  6  0  0  0
 24 35  1  0  0  0  0
 24 28  1  0  0  0  0
 26 32  1  0  0  0  0
 27 33  1  0  0  0  0
 27 26  2  0  0  0  0
 28 27  1  0  0  0  0
 29 28  2  0  0  0  0
 29 30  1  0  0  0  0
 30 31  2  0  0  0  0
 31 26  1  0  0  0  0
 34 30  1  0  0  0  0
 35 36  1  0  0  0  0
 35 38  1  0  0  0  0
 37 35  1  0  0  0  0
M  END
>  <minimizedAffinity>
-5.23005152

>  <minimizedRMSD>
0.943786085

$$$$
