
 OpenBabel03262517553D

 28 31  0  0  0  0  0  0  0  0999 V2000
   37.2950   23.0390   36.9320 C   0  0  0  0  0  0  0  0  0  0  0  0
   38.2900   22.8100   35.9650 C   0  0  0  0  0  0  0  0  0  0  0  0
   39.5970   22.8480   36.3860 C   0  0  0  0  0  0  0  0  0  0  0  0
   39.8760   23.1000   37.6960 N   0  0  0  0  0  0  0  0  0  0  0  0
   38.9000   23.3140   38.5840 C   0  0  0  0  0  0  0  0  0  0  0  0
   37.6110   23.2840   38.2020 N   0  0  0  0  0  0  0  0  0  0  0  0
   36.2440   23.0230   36.6610 H   0  0  0  0  0  0  0  0  0  0  0  0
   39.2040   23.5100   39.6140 H   0  0  0  0  0  0  0  0  0  0  0  0
   37.8490   22.5600   34.6570 N   0  0  0  0  0  0  0  0  0  0  0  0
   37.7040   23.3860   33.5790 C   0  0  0  0  0  0  0  0  0  0  0  0
   37.2380   22.6570   32.5330 N   0  0  0  0  0  0  0  0  0  0  0  0
   37.0960   21.3760   32.9730 C   0  0  0  0  0  0  0  0  0  0  0  0
   37.4770   21.3480   34.2760 N   0  0  0  0  0  0  0  0  0  0  0  0
   37.9700   24.4250   33.7300 H   0  0  0  0  0  0  0  0  0  0  0  0
   36.7400   20.5660   32.3560 H   0  0  0  0  0  0  0  0  0  0  0  0
   40.6110   22.6190   35.3990 N   0  0  0  0  0  0  0  0  0  0  0  0
   41.2530   21.5130   35.0010 N   0  0  0  0  0  0  0  0  0  0  0  0
   42.1220   21.7890   34.0410 C   0  0  0  0  0  0  0  0  0  0  0  0
   42.0540   23.1210   33.7980 C   0  0  0  0  0  0  0  0  0  0  0  0
   41.0940   23.6330   34.6630 C   0  0  0  0  0  0  0  0  0  0  0  0
   42.7490   21.0430   33.5740 H   0  0  0  0  0  0  0  0  0  0  0  0
   42.6500   23.6460   33.0610 H   0  0  0  0  0  0  0  0  0  0  0  0
   40.7020   25.0480   34.7320 C   0  0  0  0  0  0  0  0  0  0  0  0
   41.3430   26.1000   34.1140 C   0  0  0  0  0  0  0  0  0  0  0  0
   40.6350   27.2460   34.4500 C   0  0  0  0  0  0  0  0  0  0  0  0
   39.5990   26.8320   35.2580 C   0  0  0  0  0  0  0  0  0  0  0  0
   38.8350   27.4800   35.7090 H   0  0  0  0  0  0  0  0  0  0  0  0
   39.6780   25.5300   35.3970 O   0  0  0  0  0  0  0  0  0  0  0  0
  1  6  1  0  0  0  0
  2  3  1  0  0  0  0
  2  1  2  0  0  0  0
  3  4  2  0  0  0  0
  4  5  1  0  0  0  0
  5  8  1  0  0  0  0
  6  5  2  0  0  0  0
  7  1  1  0  0  0  0
  9  2  1  0  0  0  0
 10 14  1  0  0  0  0
 10  9  1  0  0  0  0
 11 12  1  0  0  0  0
 11 10  2  0  0  0  0
 12 13  2  0  0  0  0
 13  9  1  0  0  0  0
 15 12  1  0  0  0  0
 16  3  1  0  0  0  0
 17 16  1  0  0  0  0
 18 17  2  0  0  0  0
 19 18  1  0  0  0  0
 19 20  2  0  0  0  0
 20 23  1  0  0  0  0
 20 16  1  0  0  0  0
 21 18  1  0  0  0  0
 22 19  1  0  0  0  0
 23 28  1  0  0  0  0
 24 25  1  0  0  0  0
 24 23  2  0  0  0  0
 25 26  2  0  0  0  0
 26 28  1  0  0  0  0
 26 27  1  0  0  0  0
M  END
>  <minimizedAffinity>
-4.22473288

>  <minimizedRMSD>
0.882087409

$$$$
