
 OpenBabel03262520003D

 32 35  0  0  1  0  0  0  0  0999 V2000
   37.8410   23.2790   31.8410 C   0  0  0  0  0  0  0  0  0  0  0  0
   36.9580   22.7140   30.9260 C   0  0  0  0  0  0  0  0  0  0  0  0
   35.8370   23.4940   31.0380 N   0  0  0  0  0  0  0  0  0  0  0  0
   36.0860   24.4270   31.9520 C   0  0  0  0  0  0  0  0  0  0  0  0
   37.3090   24.3180   32.4600 N   0  0  0  0  0  0  0  0  0  0  0  0
   37.1880   21.8530   30.3090 H   0  0  0  0  0  0  0  0  0  0  0  0
   35.2550   25.1060   32.1200 H   0  0  0  0  0  0  0  0  0  0  0  0
   39.1880   22.7880   32.0940 C   0  0  0  0  0  0  0  0  0  0  0  0
   39.4050   21.8300   33.1030 C   0  0  0  0  0  0  0  0  0  0  0  0
   40.7310   21.3750   33.3010 C   0  0  0  0  0  0  0  0  0  0  0  0
   41.7000   21.8950   32.5020 N   0  0  0  0  0  0  0  0  0  0  0  0
   41.4440   22.8150   31.5440 C   0  0  0  0  0  0  0  0  0  0  0  0
   40.1980   23.2680   31.3300 N   0  0  0  0  0  0  0  0  0  0  0  0
   38.5480   21.5160   33.6510 H   0  0  0  0  0  0  0  0  0  0  0  0
   40.8790   20.6530   34.0680 H   0  0  0  0  0  0  0  0  0  0  0  0
   42.3270   23.1210   31.0010 H   0  0  0  0  0  0  0  0  0  0  0  0
   37.8160   25.1910   33.4500 C   0  0  1  0  0  0  0  0  0  0  0  0
   38.9700   26.0420   33.3360 C   0  0  0  0  0  0  0  0  0  0  0  0
   37.5360   26.6400   33.2140 C   0  0  1  0  0  0  0  0  0  0  0  0
   37.5710   24.8050   34.5030 H   0  0  0  0  0  0  0  0  0  0  0  0
   39.5410   26.3670   34.2210 H   0  0  0  0  0  0  0  0  0  0  0  0
   39.5500   26.0790   32.4100 H   0  0  0  0  0  0  0  0  0  0  0  0
   37.4820   27.3440   31.8810 C   0  0  0  0  0  0  0  0  0  0  0  0
   38.6470   27.7800   31.2480 C   0  0  0  0  0  3  0  0  0  0  0  0
   38.2390   28.3790   30.0530 C   0  0  0  0  0  3  0  0  0  0  0  0
   36.8480   28.2670   30.0430 C   0  0  0  0  0  0  0  0  0  0  0  0
   36.1750   28.6170   29.2760 H   0  0  0  0  0  0  0  0  0  0  0  0
   36.4420   27.6650   31.1120 O   0  0  0  0  0  0  0  0  0  0  0  0
   37.2050   27.4860   34.4260 C   0  0  0  0  0  0  0  0  0  0  0  0
   36.3260   28.4880   34.0750 F   0  0  0  0  0  0  0  0  0  0  0  0
   36.4290   26.6630   35.3470 F   0  0  0  0  0  0  0  0  0  0  0  0
   38.2740   27.9070   35.1160 F   0  0  0  0  0  0  0  0  0  0  0  0
  1  8  1  0  0  0  0
  1  5  1  0  0  0  0
  2  3  1  0  0  0  0
  2  1  2  0  0  0  0
  3  4  2  0  0  0  0
  4  7  1  0  0  0  0
  4  5  1  0  0  0  0
  5 17  1  0  0  0  0
  6  2  1  0  0  0  0
  8  9  1  0  0  0  0
  9 10  2  0  0  0  0
  9 14  1  0  0  0  0
 10 15  1  0  0  0  0
 11 10  1  0  0  0  0
 12 11  2  0  0  0  0
 13 12  1  0  0  0  0
 13  8  2  0  0  0  0
 16 12  1  0  0  0  0
 17 20  1  1  0  0  0
 18 17  1  0  0  0  0
 18 21  1  0  0  0  0
 19 18  1  0  0  0  0
 19 17  1  0  0  0  0
 19 29  1  1  0  0  0
 22 18  1  0  0  0  0
 23 19  1  0  0  0  0
 24 23  2  0  0  0  0
 25 24  1  0  0  0  0
 26 25  2  0  0  0  0
 26 28  1  0  0  0  0
 27 26  1  0  0  0  0
 28 23  1  0  0  0  0
 29 32  1  0  0  0  0
 29 31  1  0  0  0  0
 30 29  1  0  0  0  0
M  END
>  <minimizedAffinity>
-3.91913152

>  <minimizedRMSD>
5.48256493

$$$$
