
 OpenBabel03262518313D

 33 36  0  0  0  0  0  0  0  0999 V2000
   37.6020   24.8540   36.4640 O   0  0  0  0  0  0  0  0  0  0  0  0
   39.6700   22.6200   38.2480 N   0  0  0  0  0  0  0  0  0  0  0  0
   38.5870   23.3870   38.0920 N   0  0  0  0  0  0  0  0  0  0  0  0
   38.6410   23.9850   36.8700 C   0  0  0  0  0  0  0  0  0  0  0  0
   39.7910   23.5860   36.2350 C   0  0  0  0  0  0  0  0  0  0  0  0
   40.4060   22.7420   37.1120 C   0  0  0  0  0  0  0  0  0  0  0  0
   39.8690   22.0480   39.1090 H   0  0  0  0  0  0  0  0  0  0  0  0
   40.0680   23.9200   35.2520 H   0  0  0  0  0  0  0  0  0  0  0  0
   41.6900   22.0580   36.8630 C   0  0  0  0  0  0  0  0  0  0  0  0
   42.6990   22.7420   36.2350 C   0  0  0  0  0  0  0  0  0  0  0  0
   43.8650   22.0470   36.0340 C   0  0  0  0  0  0  0  0  0  0  0  0
   44.0780   20.7620   36.4060 N   0  0  0  0  0  0  0  0  0  0  0  0
   43.0570   20.1270   37.0210 C   0  0  0  0  0  0  0  0  0  0  0  0
   41.9070   20.7900   37.2270 N   0  0  0  0  0  0  0  0  0  0  0  0
   42.5950   23.7680   35.9120 H   0  0  0  0  0  0  0  0  0  0  0  0
   44.7100   22.5220   35.5420 H   0  0  0  0  0  0  0  0  0  0  0  0
   43.0290   19.1030   37.3930 H   0  0  0  0  0  0  0  0  0  0  0  0
   37.8780   26.0170   35.7610 C   0  0  0  0  0  0  0  0  0  0  0  0
   38.4910   26.9700   36.2960 O   0  0  0  0  0  0  0  0  0  0  0  0
   37.4390   26.1340   34.3620 C   0  0  0  0  0  0  0  0  0  0  0  0
   37.6350   25.0510   33.5320 C   0  0  0  0  0  0  0  0  0  0  0  0
   37.2200   25.1470   32.1870 C   0  0  0  0  0  0  0  0  0  0  0  0
   36.6570   26.3160   31.8240 N   0  0  0  0  0  0  0  0  0  0  0  0
   36.4800   27.3450   32.6480 C   0  0  0  0  0  0  0  0  0  0  0  0
   36.8660   27.2810   33.9370 N   0  0  0  0  0  0  0  0  0  0  0  0
   38.0830   24.1210   33.8180 H   0  0  0  0  0  0  0  0  0  0  0  0
   37.3720   24.2960   31.5300 H   0  0  0  0  0  0  0  0  0  0  0  0
   35.8590   28.5770   32.1740 C   0  0  0  0  0  0  0  0  0  0  0  0
   36.5440   29.2940   31.1860 C   0  0  0  0  0  0  0  0  0  0  0  0
   35.7690   30.4000   30.9090 C   0  0  0  0  0  0  0  0  0  0  0  0
   34.6540   30.3080   31.7350 C   0  0  0  0  0  0  0  0  0  0  0  0
   33.8470   31.0030   31.7780 H   0  0  0  0  0  0  0  0  0  0  0  0
   34.7590   29.2270   32.4490 O   0  0  0  0  0  0  0  0  0  0  0  0
  1  4  1  0  0  0  0
  2  7  1  0  0  0  0
  3  2  1  0  0  0  0
  4  3  2  0  0  0  0
  5  4  1  0  0  0  0
  5  6  2  0  0  0  0
  6  2  1  0  0  0  0
  8  5  1  0  0  0  0
  9  6  1  0  0  0  0
  9 14  1  0  0  0  0
 10  9  2  0  0  0  0
 11 10  1  0  0  0  0
 11 12  2  0  0  0  0
 12 13  1  0  0  0  0
 13 14  2  0  0  0  0
 13 17  1  0  0  0  0
 15 10  1  0  0  0  0
 16 11  1  0  0  0  0
 18 19  2  0  0  0  0
 18  1  1  0  0  0  0
 20 18  1  0  0  0  0
 21 26  1  0  0  0  0
 21 20  2  0  0  0  0
 22 21  1  0  0  0  0
 23 22  2  0  0  0  0
 23 24  1  0  0  0  0
 24 25  2  0  0  0  0
 25 20  1  0  0  0  0
 27 22  1  0  0  0  0
 28 33  1  0  0  0  0
 28 24  1  0  0  0  0
 29 28  2  0  0  0  0
 30 29  1  0  0  0  0
 30 31  2  0  0  0  0
 31 32  1  0  0  0  0
 31 33  1  0  0  0  0
M  END
>  <minimizedAffinity>
-5.73742676

>  <minimizedRMSD>
0.876663923

$$$$
