
 OpenBabel03262519413D

 38 41  0  0  1  0  0  0  0  0999 V2000
   38.3760   25.9960   34.5050 N   0  0  0  0  0  0  0  0  0  0  0  0
   37.7710   27.2050   33.9820 C   0  0  0  0  0  0  0  0  0  0  0  0
   38.2580   27.3160   32.5770 C   0  0  0  0  0  0  0  0  0  0  0  0
   39.1090   26.0760   32.3760 C   0  0  0  0  0  0  0  0  0  0  0  0
   38.4010   25.1200   33.3820 C   0  0  2  0  0  0  0  0  0  0  0  0
   36.6620   27.1550   34.0100 H   0  0  0  0  0  0  0  0  0  0  0  0
   38.0730   28.0950   34.5740 H   0  0  0  0  0  0  0  0  0  0  0  0
   37.4460   27.2810   31.8350 H   0  0  0  0  0  0  0  0  0  0  0  0
   38.9060   28.2090   32.4170 H   0  0  0  0  0  0  0  0  0  0  0  0
   40.1330   26.1840   32.7440 H   0  0  0  0  0  0  0  0  0  0  0  0
   39.0110   25.6540   31.3590 H   0  0  0  0  0  0  0  0  0  0  0  0
   39.0520   24.2320   33.4850 H   0  0  0  0  0  0  0  0  0  0  0  0
   37.5480   25.3860   35.5050 C   0  0  0  0  0  0  0  0  0  0  0  0
   37.1690   26.2100   36.1500 H   0  0  0  0  0  0  0  0  0  0  0  0
   36.7120   24.8650   35.0180 H   0  0  0  0  0  0  0  0  0  0  0  0
   38.7340   23.4130   38.5180 C   0  0  0  0  0  0  0  0  0  0  0  0
   37.9540   24.2650   37.7380 C   0  0  0  0  0  0  0  0  0  0  0  0
   38.3410   24.4850   36.4000 C   0  0  0  0  0  0  0  0  0  0  0  0
   39.4610   23.8430   35.9530 N   0  0  0  0  0  0  0  0  0  0  0  0
   40.1740   23.0300   36.7570 C   0  0  0  0  0  0  0  0  0  0  0  0
   39.8030   22.8250   38.0280 N   0  0  0  0  0  0  0  0  0  0  0  0
   38.3430   23.3210   39.5230 H   0  0  0  0  0  0  0  0  0  0  0  0
   37.0650   24.7720   38.0970 H   0  0  0  0  0  0  0  0  0  0  0  0
   41.0640   22.5120   36.4240 H   0  0  0  0  0  0  0  0  0  0  0  0
   37.1570   24.7600   32.9490 O   0  0  0  0  0  0  0  0  0  0  0  0
   37.1050   23.5420   32.3260 C   0  0  2  0  0  0  0  0  0  0  0  0
   36.5820   23.5380   30.9210 C   0  0  0  0  0  0  0  0  0  0  0  0
   35.7930   22.8880   32.0240 C   0  0  1  0  0  0  0  0  0  0  0  0
   37.8540   22.8330   32.6910 H   0  0  0  0  0  0  0  0  0  0  0  0
   36.0910   24.4800   30.5360 H   0  0  0  0  0  0  0  0  0  0  0  0
   37.0450   22.8790   30.1590 H   0  0  0  0  0  0  0  0  0  0  0  0
   34.8620   23.3470   32.3860 H   0  0  0  0  0  0  0  0  0  0  0  0
   35.8020   21.4050   32.0060 C   0  0  0  0  0  0  0  0  0  0  0  0
   34.6150   20.6690   32.1030 C   0  0  0  0  0  0  0  0  0  0  0  0
   35.0190   19.3300   32.0510 C   0  0  0  0  0  0  0  0  0  0  0  0
   36.4090   19.3170   31.9270 C   0  0  0  0  0  0  0  0  0  0  0  0
   37.0410   18.4290   31.8600 H   0  0  0  0  0  0  0  0  0  0  0  0
   36.8080   20.5820   31.9060 O   0  0  0  0  0  0  0  0  0  0  0  0
  1 13  1  0  0  0  0
  2  6  1  0  0  0  0
  2  1  1  0  0  0  0
  2  7  1  0  0  0  0
  3  2  1  0  0  0  0
  4  3  1  0  0  0  0
  4 10  1  0  0  0  0
  4  5  1  0  0  0  0
  5 12  1  1  0  0  0
  5  1  1  0  0  0  0
  8  3  1  0  0  0  0
  9  3  1  0  0  0  0
 11  4  1  0  0  0  0
 13 14  1  0  0  0  0
 13 18  1  0  0  0  0
 15 13  1  0  0  0  0
 16 22  1  0  0  0  0
 17 23  1  0  0  0  0
 17 16  2  0  0  0  0
 18 17  1  0  0  0  0
 19 18  2  0  0  0  0
 19 20  1  0  0  0  0
 20 21  2  0  0  0  0
 21 16  1  0  0  0  0
 24 20  1  0  0  0  0
 25  5  1  0  0  0  0
 26 29  1  1  0  0  0
 26 25  1  0  0  0  0
 27 28  1  0  0  0  0
 27 26  1  0  0  0  0
 28 26  1  0  0  0  0
 28 32  1  1  0  0  0
 30 27  1  0  0  0  0
 31 27  1  0  0  0  0
 33 28  1  0  0  0  0
 33 34  2  0  0  0  0
 35 34  1  0  0  0  0
 36 35  2  0  0  0  0
 37 36  1  0  0  0  0
 38 36  1  0  0  0  0
 38 33  1  0  0  0  0
M  END
>  <minimizedAffinity>
-4.92846203

>  <minimizedRMSD>
6.21142244

$$$$
