
 OpenBabel03262519573D

 29 32  0  0  1  0  0  0  0  0999 V2000
   38.0740   23.7630   34.4850 C   0  0  0  0  0  0  0  0  0  0  0  0
   38.2280   24.9780   33.8190 C   0  0  0  0  0  0  0  0  0  0  0  0
   37.7770   24.7030   32.5520 N   0  0  0  0  0  0  0  0  0  0  0  0
   37.4020   23.4410   32.5140 C   0  0  0  0  0  0  0  0  0  0  0  0
   37.5720   22.8250   33.6970 N   0  0  0  0  0  0  0  0  0  0  0  0
   38.6070   25.9130   34.1910 H   0  0  0  0  0  0  0  0  0  0  0  0
   37.0000   22.9660   31.6100 H   0  0  0  0  0  0  0  0  0  0  0  0
   38.4200   23.5460   35.8780 C   0  0  0  0  0  0  0  0  0  0  0  0
   39.6250   22.9480   36.2310 C   0  0  0  0  0  0  0  0  0  0  0  0
   39.9310   22.7500   37.5950 C   0  0  0  0  0  0  0  0  0  0  0  0
   39.0210   23.1610   38.4870 N   0  0  0  0  0  0  0  0  0  0  0  0
   37.8470   23.7450   38.1310 C   0  0  0  0  0  0  0  0  0  0  0  0
   37.5380   23.9410   36.8330 N   0  0  0  0  0  0  0  0  0  0  0  0
   40.3240   22.6350   35.4960 H   0  0  0  0  0  0  0  0  0  0  0  0
   40.8500   22.2920   37.9250 H   0  0  0  0  0  0  0  0  0  0  0  0
   37.0940   24.0860   38.8270 H   0  0  0  0  0  0  0  0  0  0  0  0
   37.2430   21.4360   33.9420 C   0  0  1  0  0  0  0  0  0  0  0  0
   36.0110   21.0270   34.5930 C   0  0  0  0  0  0  0  0  0  0  0  0
   36.0860   20.9620   33.0750 C   0  0  2  0  0  0  0  0  0  0  0  0
   38.1340   20.7860   33.8290 H   0  0  0  0  0  0  0  0  0  0  0  0
   36.0400   20.1030   35.1920 H   0  0  0  0  0  0  0  0  0  0  0  0
   35.3720   21.8130   35.0320 H   0  0  0  0  0  0  0  0  0  0  0  0
   35.4940   21.6960   32.4960 H   0  0  0  0  0  0  0  0  0  0  0  0
   36.1180   19.5620   32.5700 C   0  0  0  0  0  0  0  0  0  0  0  0
   35.2510   18.5100   32.8860 C   0  0  0  0  0  0  0  0  0  0  0  0
   35.7010   17.4150   32.1590 C   0  0  0  0  0  0  0  0  0  0  0  0
   36.8010   17.8530   31.4500 C   0  0  0  0  0  0  0  0  0  0  0  0
   37.4040   17.2440   30.7700 H   0  0  0  0  0  0  0  0  0  0  0  0
   37.0150   19.0980   31.7090 O   0  0  0  0  0  0  0  0  0  0  0  0
  1  8  1  0  0  0  0
  2  6  1  0  0  0  0
  2  1  2  0  0  0  0
  3  2  1  0  0  0  0
  4  3  2  0  0  0  0
  4  5  1  0  0  0  0
  5 17  1  0  0  0  0
  5  1  1  0  0  0  0
  7  4  1  0  0  0  0
  8  9  2  0  0  0  0
  8 13  1  0  0  0  0
  9 10  1  0  0  0  0
 10 15  1  0  0  0  0
 10 11  2  0  0  0  0
 12 11  1  0  0  0  0
 12 16  1  0  0  0  0
 13 12  2  0  0  0  0
 14  9  1  0  0  0  0
 17 20  1  1  0  0  0
 17 18  1  0  0  0  0
 18 22  1  0  0  0  0
 18 21  1  0  0  0  0
 19 23  1  6  0  0  0
 19 17  1  0  0  0  0
 19 18  1  0  0  0  0
 24 25  2  0  0  0  0
 24 19  1  0  0  0  0
 26 25  1  0  0  0  0
 27 29  1  0  0  0  0
 27 26  2  0  0  0  0
 28 27  1  0  0  0  0
 29 24  1  0  0  0  0
M  END
>  <minimizedAffinity>
-4.79509115

>  <minimizedRMSD>
0.769789577

$$$$
