
 OpenBabel03262520003D

 32 35  0  0  1  0  0  0  0  0999 V2000
   39.7430   22.8040   33.1620 C   0  0  0  0  0  0  0  0  0  0  0  0
   39.4370   21.4510   33.0500 C   0  0  0  0  0  0  0  0  0  0  0  0
   38.0970   21.4010   33.3310 N   0  0  0  0  0  0  0  0  0  0  0  0
   37.6910   22.6420   33.5810 C   0  0  0  0  0  0  0  0  0  0  0  0
   38.6810   23.5220   33.4830 N   0  0  0  0  0  0  0  0  0  0  0  0
   40.1570   20.6820   32.7940 H   0  0  0  0  0  0  0  0  0  0  0  0
   36.6340   22.7170   33.8180 H   0  0  0  0  0  0  0  0  0  0  0  0
   41.0700   23.3660   32.9560 C   0  0  0  0  0  0  0  0  0  0  0  0
   41.9460   23.5090   34.0490 C   0  0  0  0  0  0  0  0  0  0  0  0
   43.2300   24.0490   33.7950 C   0  0  0  0  0  0  0  0  0  0  0  0
   43.5250   24.3900   32.5120 N   0  0  0  0  0  0  0  0  0  0  0  0
   42.6500   24.2340   31.4920 C   0  0  0  0  0  0  0  0  0  0  0  0
   41.4250   23.7250   31.6990 N   0  0  0  0  0  0  0  0  0  0  0  0
   41.5760   23.2000   34.9980 H   0  0  0  0  0  0  0  0  0  0  0  0
   43.8800   24.1520   34.6300 H   0  0  0  0  0  0  0  0  0  0  0  0
   43.0450   24.5550   30.5390 H   0  0  0  0  0  0  0  0  0  0  0  0
   38.5090   24.9090   33.7020 C   0  0  1  0  0  0  0  0  0  0  0  0
   37.4450   25.5370   34.4380 C   0  0  0  0  0  0  0  0  0  0  0  0
   38.8580   25.3770   35.0780 C   0  0  1  0  0  0  0  0  0  0  0  0
   38.9620   25.5200   32.8410 H   0  0  0  0  0  0  0  0  0  0  0  0
   37.1350   26.5760   34.2380 H   0  0  0  0  0  0  0  0  0  0  0  0
   36.6660   24.9400   34.9190 H   0  0  0  0  0  0  0  0  0  0  0  0
   38.6570   24.6200   36.3660 C   0  0  0  0  0  0  0  0  0  0  0  0
   39.5350   23.6030   36.7490 C   0  0  0  0  0  3  0  0  0  0  0  0
   39.0620   23.1220   37.9720 C   0  0  0  0  0  3  0  0  0  0  0  0
   37.9250   23.8800   38.2500 C   0  0  0  0  0  0  0  0  0  0  0  0
   37.2860   23.7980   39.1150 H   0  0  0  0  0  0  0  0  0  0  0  0
   37.7180   24.7360   37.3040 O   0  0  0  0  0  0  0  0  0  0  0  0
   39.5460   26.7210   35.1960 C   0  0  0  0  0  0  0  0  0  0  0  0
   40.9120   26.5450   35.2720 F   0  0  0  0  0  0  0  0  0  0  0  0
   39.3660   27.4280   33.9330 F   0  0  0  0  0  0  0  0  0  0  0  0
   39.0400   27.5210   36.1440 F   0  0  0  0  0  0  0  0  0  0  0  0
  1  5  1  0  0  0  0
  2  1  2  0  0  0  0
  2  3  1  0  0  0  0
  3  4  2  0  0  0  0
  4  7  1  0  0  0  0
  5  4  1  0  0  0  0
  5 17  1  0  0  0  0
  6  2  1  0  0  0  0
  8  1  1  0  0  0  0
  8  9  1  0  0  0  0
  9 14  1  0  0  0  0
 10  9  2  0  0  0  0
 10 15  1  0  0  0  0
 11 10  1  0  0  0  0
 12 13  1  0  0  0  0
 12 11  2  0  0  0  0
 13  8  2  0  0  0  0
 16 12  1  0  0  0  0
 17 20  1  6  0  0  0
 17 18  1  0  0  0  0
 17 19  1  0  0  0  0
 18 22  1  0  0  0  0
 18 19  1  0  0  0  0
 19 29  1  1  0  0  0
 19 23  1  0  0  0  0
 21 18  1  0  0  0  0
 23 24  2  0  0  0  0
 23 28  1  0  0  0  0
 24 25  1  0  0  0  0
 25 26  2  0  0  0  0
 26 27  1  0  0  0  0
 28 26  1  0  0  0  0
 29 30  1  0  0  0  0
 29 32  1  0  0  0  0
 31 29  1  0  0  0  0
M  END
>  <minimizedAffinity>
-4.45203447

>  <minimizedRMSD>
4.07115316

$$$$
