
 OpenBabel03262519453D

 31 33  0  0  1  0  0  0  0  0999 V2000
   38.2950   26.4880   33.6790 C   0  0  0  0  0  0  0  0  0  0  0  0
   38.5650   25.4640   33.3000 H   0  0  0  0  0  0  0  0  0  0  0  0
   39.1760   27.1180   33.6430 H   0  0  0  0  0  0  0  0  0  0  0  0
   37.2380   26.9750   32.8630 N   0  0  0  0  0  0  0  0  0  0  0  0
   36.6140   28.1520   32.6950 C   0  0  0  0  0  0  0  0  0  0  0  0
   35.6190   28.1580   31.7390 C   0  0  0  0  0  0  0  0  0  0  0  0
   35.6480   26.8780   31.2950 N   0  0  0  0  0  0  0  0  0  0  0  0
   36.5960   26.1890   31.9560 C   0  0  0  0  0  0  0  0  0  0  0  0
   36.8810   29.0300   33.2750 H   0  0  0  0  0  0  0  0  0  0  0  0
   35.0200   29.0170   31.4790 H   0  0  0  0  0  0  0  0  0  0  0  0
   36.8040   24.7760   31.6370 C   0  0  0  0  0  0  0  0  0  0  0  0
   37.8220   24.4020   30.7820 C   0  0  0  0  0  0  0  0  0  0  0  0
   37.7660   23.0120   30.6760 C   0  0  0  0  0  0  0  0  0  0  0  0
   36.6940   22.6240   31.4900 C   0  0  0  0  0  0  0  0  0  0  0  0
   36.3400   21.6050   31.6640 H   0  0  0  0  0  0  0  0  0  0  0  0
   36.1680   23.6980   32.0280 O   0  0  0  0  0  0  0  0  0  0  0  0
   37.8700   26.3280   35.1080 C   0  0  1  0  0  0  0  0  0  0  0  0
   36.7720   26.5140   35.1200 H   0  0  0  0  0  0  0  0  0  0  0  0
   38.2000   23.3280   37.3900 C   0  0  0  0  0  0  0  0  0  0  0  0
   38.0220   24.6660   37.0110 C   0  0  0  0  0  0  0  0  0  0  0  0
   38.0370   24.9400   35.6090 C   0  0  0  0  0  0  0  0  0  0  0  0
   38.2200   23.9010   34.7310 N   0  0  0  0  0  0  0  0  0  0  0  0
   38.3840   22.6500   35.1320 C   0  0  0  0  0  0  0  0  0  0  0  0
   38.3750   22.3540   36.4820 N   0  0  0  0  0  0  0  0  0  0  0  0
   38.1880   23.1220   38.4500 H   0  0  0  0  0  0  0  0  0  0  0  0
   37.8820   25.4610   37.7130 H   0  0  0  0  0  0  0  0  0  0  0  0
   38.5220   21.8980   34.3660 H   0  0  0  0  0  0  0  0  0  0  0  0
   38.5860   27.3190   35.9910 C   0  0  0  0  0  0  0  0  0  0  0  0
   38.3500   27.0850   37.0560 H   0  0  0  0  0  0  0  0  0  0  0  0
   38.0620   28.3040   35.8170 H   0  0  0  0  0  0  0  0  0  0  0  0
   39.6480   27.4110   35.7620 H   0  0  0  0  0  0  0  0  0  0  0  0
  1 17  1  0  0  0  0
  2  1  1  0  0  0  0
  3  1  1  0  0  0  0
  4  1  1  0  0  0  0
  5  4  1  0  0  0  0
  5  9  1  0  0  0  0
  6  5  2  0  0  0  0
  7  6  1  0  0  0  0
  7  8  2  0  0  0  0
  8  4  1  0  0  0  0
 10  6  1  0  0  0  0
 11  8  1  0  0  0  0
 11 16  1  0  0  0  0
 12 11  2  0  0  0  0
 13 12  1  0  0  0  0
 13 14  2  0  0  0  0
 14 15  1  0  0  0  0
 14 16  1  0  0  0  0
 17 18  1  1  0  0  0
 17 21  1  0  0  0  0
 17 28  1  0  0  0  0
 19 25  1  0  0  0  0
 20 19  1  0  0  0  0
 20 26  1  0  0  0  0
 21 20  2  0  0  0  0
 22 23  2  0  0  0  0
 22 21  1  0  0  0  0
 23 24  1  0  0  0  0
 24 19  2  0  0  0  0
 27 23  1  0  0  0  0
 28 29  1  0  0  0  0
 30 28  1  0  0  0  0
 31 28  1  0  0  0  0
M  END
>  <minimizedAffinity>
-4.54757452

>  <minimizedRMSD>
4.78999662

$$$$
