
 OpenBabel03262519573D

 29 32  0  0  1  0  0  0  0  0999 V2000
   38.0750   23.7630   34.4870 C   0  0  0  0  0  0  0  0  0  0  0  0
   38.2290   24.9780   33.8210 C   0  0  0  0  0  0  0  0  0  0  0  0
   37.7780   24.7040   32.5540 N   0  0  0  0  0  0  0  0  0  0  0  0
   37.4020   23.4420   32.5160 C   0  0  0  0  0  0  0  0  0  0  0  0
   37.5720   22.8260   33.6990 N   0  0  0  0  0  0  0  0  0  0  0  0
   38.6080   25.9130   34.1930 H   0  0  0  0  0  0  0  0  0  0  0  0
   37.0000   22.9680   31.6110 H   0  0  0  0  0  0  0  0  0  0  0  0
   38.4210   23.5460   35.8790 C   0  0  0  0  0  0  0  0  0  0  0  0
   39.6250   22.9490   36.2320 C   0  0  0  0  0  0  0  0  0  0  0  0
   39.9320   22.7510   37.5960 C   0  0  0  0  0  0  0  0  0  0  0  0
   39.0220   23.1600   38.4880 N   0  0  0  0  0  0  0  0  0  0  0  0
   37.8470   23.7440   38.1320 C   0  0  0  0  0  0  0  0  0  0  0  0
   37.5380   23.9400   36.8340 N   0  0  0  0  0  0  0  0  0  0  0  0
   40.3250   22.6360   35.4980 H   0  0  0  0  0  0  0  0  0  0  0  0
   40.8510   22.2930   37.9260 H   0  0  0  0  0  0  0  0  0  0  0  0
   37.0940   24.0840   38.8290 H   0  0  0  0  0  0  0  0  0  0  0  0
   37.2430   21.4370   33.9430 C   0  0  1  0  0  0  0  0  0  0  0  0
   36.0100   21.0280   34.5940 C   0  0  0  0  0  0  0  0  0  0  0  0
   36.0860   20.9630   33.0750 C   0  0  2  0  0  0  0  0  0  0  0  0
   38.1340   20.7870   33.8300 H   0  0  0  0  0  0  0  0  0  0  0  0
   36.0390   20.1040   35.1920 H   0  0  0  0  0  0  0  0  0  0  0  0
   35.3720   21.8140   35.0320 H   0  0  0  0  0  0  0  0  0  0  0  0
   35.4950   21.6960   32.4960 H   0  0  0  0  0  0  0  0  0  0  0  0
   36.1180   19.5630   32.5700 C   0  0  0  0  0  0  0  0  0  0  0  0
   35.2510   18.5100   32.8870 C   0  0  0  0  0  3  0  0  0  0  0  0
   35.7020   17.4160   32.1590 C   0  0  0  0  0  3  0  0  0  0  0  0
   36.8010   17.8540   31.4500 C   0  0  0  0  0  0  0  0  0  0  0  0
   37.4060   17.2450   30.7700 H   0  0  0  0  0  0  0  0  0  0  0  0
   37.0160   19.0990   31.7090 O   0  0  0  0  0  0  0  0  0  0  0  0
  1  8  1  0  0  0  0
  2  6  1  0  0  0  0
  2  1  2  0  0  0  0
  3  2  1  0  0  0  0
  4  3  2  0  0  0  0
  4  5  1  0  0  0  0
  5 17  1  0  0  0  0
  5  1  1  0  0  0  0
  7  4  1  0  0  0  0
  8  9  2  0  0  0  0
  8 13  1  0  0  0  0
  9 10  1  0  0  0  0
 10 15  1  0  0  0  0
 10 11  2  0  0  0  0
 12 11  1  0  0  0  0
 12 16  1  0  0  0  0
 13 12  2  0  0  0  0
 14  9  1  0  0  0  0
 17 20  1  1  0  0  0
 17 18  1  0  0  0  0
 18 22  1  0  0  0  0
 18 21  1  0  0  0  0
 19 23  1  6  0  0  0
 19 17  1  0  0  0  0
 19 18  1  0  0  0  0
 24 25  2  0  0  0  0
 24 19  1  0  0  0  0
 26 25  1  0  0  0  0
 27 29  1  0  0  0  0
 27 26  2  0  0  0  0
 28 27  1  0  0  0  0
 29 24  1  0  0  0  0
M  END
>  <minimizedAffinity>
-4.79473066

>  <minimizedRMSD>
0.789042354

$$$$
