
 OpenBabel03262520003D

 32 35  0  0  1  0  0  0  0  0999 V2000
   40.3340   25.0730   32.7070 C   0  0  0  0  0  0  0  0  0  0  0  0
   41.1340   24.9060   31.5810 C   0  0  0  0  0  0  0  0  0  0  0  0
   42.2580   24.2970   32.0730 N   0  0  0  0  0  0  0  0  0  0  0  0
   42.0900   24.1380   33.3820 C   0  0  0  0  0  0  0  0  0  0  0  0
   40.9170   24.6050   33.7970 N   0  0  0  0  0  0  0  0  0  0  0  0
   40.8520   25.2180   30.5820 H   0  0  0  0  0  0  0  0  0  0  0  0
   42.9300   23.6600   33.8760 H   0  0  0  0  0  0  0  0  0  0  0  0
   39.0160   25.6910   32.6950 C   0  0  0  0  0  0  0  0  0  0  0  0
   38.8840   27.0640   32.9800 C   0  0  0  0  0  0  0  0  0  0  0  0
   37.5830   27.6200   32.9430 C   0  0  0  0  0  0  0  0  0  0  0  0
   36.5530   26.7880   32.6330 N   0  0  0  0  0  0  0  0  0  0  0  0
   36.7270   25.4740   32.3660 C   0  0  0  0  0  0  0  0  0  0  0  0
   37.9480   24.9140   32.3920 N   0  0  0  0  0  0  0  0  0  0  0  0
   39.7820   27.5890   33.2080 H   0  0  0  0  0  0  0  0  0  0  0  0
   37.4990   28.6570   33.1610 H   0  0  0  0  0  0  0  0  0  0  0  0
   35.8050   24.9590   32.1390 H   0  0  0  0  0  0  0  0  0  0  0  0
   40.4970   24.5540   35.1460 C   0  0  1  0  0  0  0  0  0  0  0  0
   39.1520   24.6960   35.6340 C   0  0  0  0  0  0  0  0  0  0  0  0
   39.8120   23.2870   35.5450 C   0  0  1  0  0  0  0  0  0  0  0  0
   41.3330   24.9070   35.8500 H   0  0  0  0  0  0  0  0  0  0  0  0
   38.9380   25.0520   36.6560 H   0  0  0  0  0  0  0  0  0  0  0  0
   38.3170   24.8430   34.9430 H   0  0  0  0  0  0  0  0  0  0  0  0
   38.9020   22.4450   34.6870 C   0  0  0  0  0  0  0  0  0  0  0  0
   37.6060   22.1320   35.1010 C   0  0  0  0  0  3  0  0  0  0  0  0
   37.0500   21.3520   34.0850 C   0  0  0  0  0  3  0  0  0  0  0  0
   38.0510   21.2430   33.1180 C   0  0  0  0  0  0  0  0  0  0  0  0
   37.9920   20.7110   32.1810 H   0  0  0  0  0  0  0  0  0  0  0  0
   39.1070   21.8850   33.4950 O   0  0  0  0  0  0  0  0  0  0  0  0
   40.1080   22.7480   36.9290 C   0  0  0  0  0  0  0  0  0  0  0  0
   40.2710   21.3790   36.8750 F   0  0  0  0  0  0  0  0  0  0  0  0
   41.4270   23.2300   37.3240 F   0  0  0  0  0  0  0  0  0  0  0  0
   39.2600   23.1650   37.8790 F   0  0  0  0  0  0  0  0  0  0  0  0
  1  5  1  0  0  0  0
  2  3  1  0  0  0  0
  2  1  2  0  0  0  0
  3  4  2  0  0  0  0
  4  5  1  0  0  0  0
  4  7  1  0  0  0  0
  5 17  1  0  0  0  0
  6  2  1  0  0  0  0
  8  1  1  0  0  0  0
  8  9  1  0  0  0  0
  9 14  1  0  0  0  0
 10  9  2  0  0  0  0
 10 15  1  0  0  0  0
 11 10  1  0  0  0  0
 12 13  1  0  0  0  0
 12 11  2  0  0  0  0
 13  8  2  0  0  0  0
 16 12  1  0  0  0  0
 17 19  1  0  0  0  0
 17 18  1  0  0  0  0
 17 20  1  1  0  0  0
 18 21  1  0  0  0  0
 19 18  1  0  0  0  0
 19 29  1  1  0  0  0
 22 18  1  0  0  0  0
 23 24  2  0  0  0  0
 23 19  1  0  0  0  0
 25 24  1  0  0  0  0
 26 28  1  0  0  0  0
 26 25  2  0  0  0  0
 27 26  1  0  0  0  0
 28 23  1  0  0  0  0
 29 31  1  0  0  0  0
 29 32  1  0  0  0  0
 30 29  1  0  0  0  0
M  END
>  <minimizedAffinity>
-4.22775984

>  <minimizedRMSD>
3.51486087

$$$$
