
 OpenBabel03262519563D

 29 32  0  0  1  0  0  0  0  0999 V2000
   38.1360   23.8510   34.5680 C   0  0  0  0  0  0  0  0  0  0  0  0
   38.3050   25.0770   33.9260 C   0  0  0  0  0  0  0  0  0  0  0  0
   37.8790   24.8250   32.6460 N   0  0  0  0  0  0  0  0  0  0  0  0
   37.5020   23.5650   32.5790 C   0  0  0  0  0  0  0  0  0  0  0  0
   37.6470   22.9290   33.7540 N   0  0  0  0  0  0  0  0  0  0  0  0
   38.6790   26.0040   34.3210 H   0  0  0  0  0  0  0  0  0  0  0  0
   37.1160   23.1070   31.6580 H   0  0  0  0  0  0  0  0  0  0  0  0
   38.4530   23.6090   35.9630 C   0  0  0  0  0  0  0  0  0  0  0  0
   39.6580   23.0210   36.3300 C   0  0  0  0  0  0  0  0  0  0  0  0
   39.9370   22.7980   37.6970 C   0  0  0  0  0  0  0  0  0  0  0  0
   39.0010   23.1770   38.5760 N   0  0  0  0  0  0  0  0  0  0  0  0
   37.8270   23.7520   38.2060 C   0  0  0  0  0  0  0  0  0  0  0  0
   37.5440   23.9720   36.9060 N   0  0  0  0  0  0  0  0  0  0  0  0
   40.3780   22.7330   35.6060 H   0  0  0  0  0  0  0  0  0  0  0  0
   40.8550   22.3460   38.0370 H   0  0  0  0  0  0  0  0  0  0  0  0
   37.0540   24.0680   38.8920 H   0  0  0  0  0  0  0  0  0  0  0  0
   37.3100   21.5360   33.9680 C   0  0  1  0  0  0  0  0  0  0  0  0
   36.1370   21.1220   34.7170 C   0  0  0  0  0  0  0  0  0  0  0  0
   36.0640   21.1250   33.1970 C   0  0  2  0  0  0  0  0  0  0  0  0
   38.1700   20.8750   33.7410 H   0  0  0  0  0  0  0  0  0  0  0  0
   36.2010   20.1710   35.2690 H   0  0  0  0  0  0  0  0  0  0  0  0
   35.5620   21.8990   35.2500 H   0  0  0  0  0  0  0  0  0  0  0  0
   35.4370   21.8960   32.7110 H   0  0  0  0  0  0  0  0  0  0  0  0
   36.0140   19.7500   32.6300 C   0  0  0  0  0  0  0  0  0  0  0  0
   36.6390   19.2690   31.4730 C   0  0  0  0  0  3  0  0  0  0  0  0
   36.2830   17.9290   31.3790 C   0  0  0  0  0  3  0  0  0  0  0  0
   35.4740   17.6700   32.4670 C   0  0  0  0  0  0  0  0  0  0  0  0
   35.0130   16.7070   32.7040 H   0  0  0  0  0  0  0  0  0  0  0  0
   35.3370   18.7430   33.1700 O   0  0  0  0  0  0  0  0  0  0  0  0
  1  8  1  0  0  0  0
  2  6  1  0  0  0  0
  2  1  2  0  0  0  0
  3  2  1  0  0  0  0
  4  3  2  0  0  0  0
  4  5  1  0  0  0  0
  5 17  1  0  0  0  0
  5  1  1  0  0  0  0
  7  4  1  0  0  0  0
  8  9  2  0  0  0  0
  8 13  1  0  0  0  0
  9 10  1  0  0  0  0
 10 15  1  0  0  0  0
 10 11  2  0  0  0  0
 12 11  1  0  0  0  0
 12 16  1  0  0  0  0
 13 12  2  0  0  0  0
 14  9  1  0  0  0  0
 17 20  1  6  0  0  0
 17 18  1  0  0  0  0
 18 22  1  0  0  0  0
 18 21  1  0  0  0  0
 19 23  1  6  0  0  0
 19 17  1  0  0  0  0
 19 18  1  0  0  0  0
 24 29  1  0  0  0  0
 24 19  1  0  0  0  0
 25 24  2  0  0  0  0
 26 25  1  0  0  0  0
 26 27  2  0  0  0  0
 27 28  1  0  0  0  0
 27 29  1  0  0  0  0
M  END
>  <minimizedAffinity>
-4.76462126

>  <minimizedRMSD>
0.759648979

$$$$
