
 OpenBabel03262520003D

 32 35  0  0  1  0  0  0  0  0999 V2000
   40.8150   24.0530   32.7090 C   0  0  0  0  0  0  0  0  0  0  0  0
   40.7500   23.0020   31.7990 C   0  0  0  0  0  0  0  0  0  0  0  0
   40.1210   22.0080   32.5000 N   0  0  0  0  0  0  0  0  0  0  0  0
   39.8560   22.4790   33.7160 C   0  0  0  0  0  0  0  0  0  0  0  0
   40.2710   23.7310   33.8700 N   0  0  0  0  0  0  0  0  0  0  0  0
   41.1360   23.0470   30.7870 H   0  0  0  0  0  0  0  0  0  0  0  0
   39.3520   21.7650   34.3610 H   0  0  0  0  0  0  0  0  0  0  0  0
   41.4130   25.3490   32.4260 C   0  0  0  0  0  0  0  0  0  0  0  0
   42.7580   25.5890   32.7680 C   0  0  0  0  0  0  0  0  0  0  0  0
   43.2970   26.8620   32.4600 C   0  0  0  0  0  0  0  0  0  0  0  0
   42.4770   27.7620   31.8550 N   0  0  0  0  0  0  0  0  0  0  0  0
   41.1890   27.4860   31.5450 C   0  0  0  0  0  0  0  0  0  0  0  0
   40.6470   26.2890   31.8230 N   0  0  0  0  0  0  0  0  0  0  0  0
   43.2780   24.7890   33.2400 H   0  0  0  0  0  0  0  0  0  0  0  0
   44.3130   27.0280   32.7250 H   0  0  0  0  0  0  0  0  0  0  0  0
   40.6790   28.3120   31.0680 H   0  0  0  0  0  0  0  0  0  0  0  0
   40.1080   24.4590   35.0710 C   0  0  1  0  0  0  0  0  0  0  0  0
   40.1160   25.8890   35.2180 C   0  0  0  0  0  0  0  0  0  0  0  0
   38.7700   25.1030   35.2400 C   0  0  1  0  0  0  0  0  0  0  0  0
   40.4830   23.8530   35.9720 H   0  0  0  0  0  0  0  0  0  0  0  0
   40.3920   26.3750   36.1680 H   0  0  0  0  0  0  0  0  0  0  0  0
   40.2380   26.5420   34.3490 H   0  0  0  0  0  0  0  0  0  0  0  0
   37.9120   25.6990   34.1520 C   0  0  0  0  0  0  0  0  0  0  0  0
   37.4440   27.0120   34.2390 C   0  0  0  0  0  3  0  0  0  0  0  0
   36.6950   27.2350   33.0820 C   0  0  0  0  0  3  0  0  0  0  0  0
   36.7580   26.0380   32.3670 C   0  0  0  0  0  0  0  0  0  0  0  0
   36.2960   25.8270   31.4160 H   0  0  0  0  0  0  0  0  0  0  0  0
   37.4670   25.1710   33.0110 O   0  0  0  0  0  0  0  0  0  0  0  0
   38.1740   25.1030   36.6320 C   0  0  0  0  0  0  0  0  0  0  0  0
   36.9030   24.5670   36.5990 F   0  0  0  0  0  0  0  0  0  0  0  0
   38.9230   24.1470   37.4400 F   0  0  0  0  0  0  0  0  0  0  0  0
   38.2600   26.2780   37.2720 F   0  0  0  0  0  0  0  0  0  0  0  0
  1  5  1  0  0  0  0
  2  3  1  0  0  0  0
  2  1  2  0  0  0  0
  3  4  2  0  0  0  0
  4  5  1  0  0  0  0
  4  7  1  0  0  0  0
  5 17  1  0  0  0  0
  6  2  1  0  0  0  0
  8  1  1  0  0  0  0
  8  9  1  0  0  0  0
  9 14  1  0  0  0  0
 10 15  1  0  0  0  0
 10  9  2  0  0  0  0
 11 10  1  0  0  0  0
 12 13  1  0  0  0  0
 12 11  2  0  0  0  0
 13  8  2  0  0  0  0
 16 12  1  0  0  0  0
 17 18  1  0  0  0  0
 17 19  1  0  0  0  0
 17 20  1  1  0  0  0
 18 19  1  0  0  0  0
 18 21  1  0  0  0  0
 19 29  1  1  0  0  0
 22 18  1  0  0  0  0
 23 24  2  0  0  0  0
 23 19  1  0  0  0  0
 25 24  1  0  0  0  0
 26 28  1  0  0  0  0
 26 25  2  0  0  0  0
 27 26  1  0  0  0  0
 28 23  1  0  0  0  0
 29 32  1  0  0  0  0
 29 31  1  0  0  0  0
 30 29  1  0  0  0  0
M  END
>  <minimizedAffinity>
-3.75957727

>  <minimizedRMSD>
3.51571631

$$$$
