
 OpenBabel03262519593D

 32 35  0  0  1  0  0  0  0  0999 V2000
   39.9850   24.0580   32.3550 C   0  0  0  0  0  0  0  0  0  0  0  0
   40.3090   23.4020   31.1710 C   0  0  0  0  0  0  0  0  0  0  0  0
   41.2310   22.4670   31.5630 N   0  0  0  0  0  0  0  0  0  0  0  0
   41.4030   22.5980   32.8750 C   0  0  0  0  0  0  0  0  0  0  0  0
   40.6500   23.5670   33.3850 N   0  0  0  0  0  0  0  0  0  0  0  0
   39.8810   23.6420   30.2040 H   0  0  0  0  0  0  0  0  0  0  0  0
   42.1210   21.8990   33.2940 H   0  0  0  0  0  0  0  0  0  0  0  0
   39.0340   25.1550   32.4520 C   0  0  0  0  0  0  0  0  0  0  0  0
   39.4760   26.4820   32.2860 C   0  0  0  0  0  0  0  0  0  0  0  0
   38.5100   27.5120   32.3770 C   0  0  0  0  0  0  0  0  0  0  0  0
   37.2230   27.1470   32.6180 N   0  0  0  0  0  0  0  0  0  0  0  0
   36.8430   25.8580   32.7710 C   0  0  0  0  0  0  0  0  0  0  0  0
   37.7340   24.8560   32.6900 N   0  0  0  0  0  0  0  0  0  0  0  0
   40.5160   26.6150   32.1030 H   0  0  0  0  0  0  0  0  0  0  0  0
   38.8590   28.5080   32.2500 H   0  0  0  0  0  0  0  0  0  0  0  0
   35.7850   25.7440   32.9570 H   0  0  0  0  0  0  0  0  0  0  0  0
   40.6500   23.9050   34.7580 C   0  0  1  0  0  0  0  0  0  0  0  0
   39.5770   24.5200   35.4930 C   0  0  0  0  0  0  0  0  0  0  0  0
   39.8530   22.9920   35.6320 C   0  0  1  0  0  0  0  0  0  0  0  0
   41.7140   24.1360   35.1240 H   0  0  0  0  0  0  0  0  0  0  0  0
   39.7610   25.1150   36.4020 H   0  0  0  0  0  0  0  0  0  0  0  0
   38.6290   24.7600   35.0040 H   0  0  0  0  0  0  0  0  0  0  0  0
   38.5660   22.2930   35.2700 C   0  0  0  0  0  0  0  0  0  0  0  0
   37.5690   22.0810   36.2250 C   0  0  0  0  0  3  0  0  0  0  0  0
   36.5310   21.4190   35.5630 C   0  0  0  0  0  3  0  0  0  0  0  0
   36.9720   21.2740   34.2450 C   0  0  0  0  0  0  0  0  0  0  0  0
   36.4380   20.8080   33.4320 H   0  0  0  0  0  0  0  0  0  0  0  0
   38.1490   21.7890   34.1100 O   0  0  0  0  0  0  0  0  0  0  0  0
   40.4200   22.6740   37.0000 C   0  0  0  0  0  0  0  0  0  0  0  0
   40.6460   21.3180   37.1110 F   0  0  0  0  0  0  0  0  0  0  0  0
   41.7600   23.2470   37.0720 F   0  0  0  0  0  0  0  0  0  0  0  0
   39.7340   23.2050   38.0210 F   0  0  0  0  0  0  0  0  0  0  0  0
  1  8  1  0  0  0  0
  1  5  1  0  0  0  0
  2  3  1  0  0  0  0
  2  1  2  0  0  0  0
  3  4  2  0  0  0  0
  4  7  1  0  0  0  0
  4  5  1  0  0  0  0
  5 17  1  0  0  0  0
  6  2  1  0  0  0  0
  8 13  1  0  0  0  0
  9 10  1  0  0  0  0
  9  8  2  0  0  0  0
 10 11  2  0  0  0  0
 11 12  1  0  0  0  0
 12 16  1  0  0  0  0
 13 12  2  0  0  0  0
 14  9  1  0  0  0  0
 15 10  1  0  0  0  0
 17 20  1  1  0  0  0
 17 18  1  0  0  0  0
 17 19  1  0  0  0  0
 18 19  1  0  0  0  0
 18 21  1  0  0  0  0
 19 29  1  1  0  0  0
 22 18  1  0  0  0  0
 23 19  1  0  0  0  0
 23 24  2  0  0  0  0
 25 24  1  0  0  0  0
 26 25  2  0  0  0  0
 27 26  1  0  0  0  0
 28 26  1  0  0  0  0
 28 23  1  0  0  0  0
 29 31  1  0  0  0  0
 29 30  1  0  0  0  0
 29 32  1  0  0  0  0
M  END
>  <minimizedAffinity>
-4.02058983

>  <minimizedRMSD>
3.00217319

$$$$
