
 OpenBabel03262518363D

 45 48  0  0  0  0  0  0  0  0999 V2000
   37.2680   26.5770   34.6770 C   0  0  0  0  0  0  0  0  0  0  0  0
   37.3870   25.7390   33.5820 C   0  0  0  0  0  0  0  0  0  0  0  0
   36.8630   26.1750   32.3380 C   0  0  0  0  0  0  0  0  0  0  0  0
   36.2810   27.3870   32.3110 N   0  0  0  0  0  0  0  0  0  0  0  0
   36.1790   28.1710   33.3730 C   0  0  0  0  0  0  0  0  0  0  0  0
   36.6740   27.7770   34.5840 N   0  0  0  0  0  0  0  0  0  0  0  0
   37.8640   24.7710   33.6460 H   0  0  0  0  0  0  0  0  0  0  0  0
   36.9350   25.5530   31.4610 H   0  0  0  0  0  0  0  0  0  0  0  0
   37.8160   26.1090   35.9530 C   0  0  0  0  0  0  0  0  0  0  0  0
   38.5030   26.8850   36.6470 O   0  0  0  0  0  0  0  0  0  0  0  0
   37.5740   24.8350   36.3710 O   0  0  0  0  0  0  0  0  0  0  0  0
   39.6550   22.6400   38.1950 N   0  0  0  0  0  0  0  0  0  0  0  0
   38.5670   23.3910   38.0220 N   0  0  0  0  0  0  0  0  0  0  0  0
   38.6200   23.9830   36.7940 C   0  0  0  0  0  0  0  0  0  0  0  0
   39.7710   23.5930   36.1770 C   0  0  0  0  0  0  0  0  0  0  0  0
   40.3890   22.7630   37.0680 C   0  0  0  0  0  0  0  0  0  0  0  0
   39.9350   22.0550   39.0090 H   0  0  0  0  0  0  0  0  0  0  0  0
   40.0540   23.9230   35.1860 H   0  0  0  0  0  0  0  0  0  0  0  0
   41.6890   22.0960   36.8200 C   0  0  0  0  0  0  0  0  0  0  0  0
   42.6990   22.7930   36.2100 C   0  0  0  0  0  0  0  0  0  0  0  0
   43.8720   22.0820   36.0230 C   0  0  0  0  0  0  0  0  0  0  0  0
   44.0820   20.7980   36.3860 N   0  0  0  0  0  0  0  0  0  0  0  0
   43.0510   20.1550   36.9830 C   0  0  0  0  0  0  0  0  0  0  0  0
   41.8950   20.8100   37.1850 N   0  0  0  0  0  0  0  0  0  0  0  0
   42.6020   23.8160   35.8960 H   0  0  0  0  0  0  0  0  0  0  0  0
   44.7300   22.5450   35.5500 H   0  0  0  0  0  0  0  0  0  0  0  0
   43.1060   19.1270   37.3150 H   0  0  0  0  0  0  0  0  0  0  0  0
   35.5090   29.5110   33.2400 C   0  0  0  0  0  0  0  0  0  0  0  0
   35.4850   30.1270   34.6450 C   0  0  0  0  0  0  0  0  0  0  0  0
   34.7180   30.9260   34.6200 H   0  0  0  0  0  0  0  0  0  0  0  0
   36.4910   30.4690   34.9370 H   0  0  0  0  0  0  0  0  0  0  0  0
   35.0930   29.3360   35.3470 H   0  0  0  0  0  0  0  0  0  0  0  0
   34.0840   29.2420   32.8270 C   0  0  0  0  0  0  0  0  0  0  0  0
   33.3360   29.7730   33.4500 H   0  0  0  0  0  0  0  0  0  0  0  0
   33.9990   29.3470   31.7530 H   0  0  0  0  0  0  0  0  0  0  0  0
   33.8580   28.1360   33.0200 H   0  0  0  0  0  0  0  0  0  0  0  0
   36.2420   30.4010   32.2870 C   0  0  0  0  0  0  0  0  0  0  0  0
   36.4270   29.7500   31.3710 H   0  0  0  0  0  0  0  0  0  0  0  0
   37.2750   30.5500   32.7220 H   0  0  0  0  0  0  0  0  0  0  0  0
   35.6380   31.6920   31.9540 C   0  0  0  0  0  0  0  0  0  0  0  0
   35.2610   32.0270   30.5650 C   0  0  0  0  0  0  0  0  0  0  0  0
   36.3760   32.2530   29.5890 C   0  0  0  0  0  0  0  0  0  0  0  0
   37.6330   32.6740   30.2710 C   0  0  0  0  0  0  0  0  0  0  0  0
   37.3750   33.4850   31.5070 C   0  0  0  0  0  0  0  0  0  0  0  0
   36.5350   32.7980   32.5140 C   0  0  0  0  0  0  0  0  0  0  0  0
  1  9  1  0  0  0  0
  2  7  1  0  0  0  0
  2  1  2  0  0  0  0
  3  2  1  0  0  0  0
  4  3  2  0  0  0  0
  4  5  1  0  0  0  0
  5  6  2  0  0  0  0
  6  1  1  0  0  0  0
  8  3  1  0  0  0  0
  9 11  1  0  0  0  0
  9 10  2  0  0  0  0
 11 14  1  0  0  0  0
 12 17  1  0  0  0  0
 13 12  1  0  0  0  0
 14 13  2  0  0  0  0
 15 14  1  0  0  0  0
 15 16  2  0  0  0  0
 16 12  1  0  0  0  0
 18 15  1  0  0  0  0
 19 16  1  0  0  0  0
 19 24  1  0  0  0  0
 20 19  2  0  0  0  0
 21 20  1  0  0  0  0
 21 22  2  0  0  0  0
 22 23  1  0  0  0  0
 23 24  2  0  0  0  0
 23 27  1  0  0  0  0
 25 20  1  0  0  0  0
 26 21  1  0  0  0  0
 28  5  1  0  0  0  0
 28 29  1  0  0  0  0
 29 31  1  0  0  0  0
 29 32  1  0  0  0  0
 30 29  1  0  0  0  0
 33 36  1  0  0  0  0
 33 28  1  0  0  0  0
 33 34  1  0  0  0  0
 35 33  1  0  0  0  0
 37 39  1  0  0  0  0
 37 28  1  0  0  0  0
 38 37  1  0  0  0  0
 40 37  1  0  0  0  0
 40 45  1  0  0  0  0
 41 40  1  0  0  0  0
 42 43  1  0  0  0  0
 42 41  1  0  0  0  0
 43 44  1  0  0  0  0
 44 45  1  0  0  0  0
M  END
>  <minimizedAffinity>
-6.03582144

>  <minimizedRMSD>
0.145490721

$$$$
