
 OpenBabel03262519223D

 26 29  0  0  0  0  0  0  0  0999 V2000
   37.7120   25.0490   33.6920 C   0  0  0  0  0  0  0  0  0  0  0  0
   37.8600   25.4260   35.0300 C   0  0  0  0  0  0  0  0  0  0  0  0
   37.6160   26.7610   35.3680 C   0  0  0  0  0  0  0  0  0  0  0  0
   37.2470   27.6440   34.4070 N   0  0  0  0  0  0  0  0  0  0  0  0
   37.1110   27.2480   33.1140 C   0  0  0  0  0  0  0  0  0  0  0  0
   37.3410   25.9810   32.7800 N   0  0  0  0  0  0  0  0  0  0  0  0
   37.7430   27.0030   36.4130 H   0  0  0  0  0  0  0  0  0  0  0  0
   36.8140   28.0320   32.4290 H   0  0  0  0  0  0  0  0  0  0  0  0
   38.2560   24.5020   35.9960 N   0  0  0  0  0  0  0  0  0  0  0  0
   37.4930   23.9710   36.9540 C   0  0  0  0  0  0  0  0  0  0  0  0
   38.1770   23.1010   37.7090 N   0  0  0  0  0  0  0  0  0  0  0  0
   39.4360   23.0730   37.2130 C   0  0  0  0  0  0  0  0  0  0  0  0
   40.5770   22.3940   37.5490 C   0  0  0  0  0  0  0  0  0  0  0  0
   41.7430   22.5250   36.9080 N   0  0  0  0  0  0  0  0  0  0  0  0
   41.7480   23.3940   35.8720 C   0  0  0  0  0  0  0  0  0  0  0  0
   40.6440   24.0500   35.5450 N   0  0  0  0  0  0  0  0  0  0  0  0
   39.4600   23.9510   36.1520 C   0  0  0  0  0  0  0  0  0  0  0  0
   36.4330   24.2290   37.0900 H   0  0  0  0  0  0  0  0  0  0  0  0
   40.5920   21.6870   38.3850 H   0  0  0  0  0  0  0  0  0  0  0  0
   42.5740   23.6750   35.1980 H   0  0  0  0  0  0  0  0  0  0  0  0
   37.9050   23.6740   33.2410 C   0  0  0  0  0  0  0  0  0  0  0  0
   38.9370   23.2460   32.4330 C   0  0  0  0  0  0  0  0  0  0  0  0
   38.8630   21.9140   32.1750 C   0  0  0  0  0  0  0  0  0  0  0  0
   37.7310   21.5410   32.8650 C   0  0  0  0  0  0  0  0  0  0  0  0
   37.2490   20.5610   32.9700 H   0  0  0  0  0  0  0  0  0  0  0  0
   37.2250   22.5910   33.4570 O   0  0  0  0  0  0  0  0  0  0  0  0
  1  2  1  0  0  0  0
  2  3  2  0  0  0  0
  2  9  1  0  0  0  0
  3  7  1  0  0  0  0
  4  3  1  0  0  0  0
  5  4  2  0  0  0  0
  6  5  1  0  0  0  0
  6  1  2  0  0  0  0
  8  5  1  0  0  0  0
  9 17  1  0  0  0  0
  9 10  1  0  0  0  0
 10 18  1  0  0  0  0
 10 11  2  0  0  0  0
 12 13  1  0  0  0  0
 12 11  1  0  0  0  0
 13 19  1  0  0  0  0
 14 13  2  0  0  0  0
 15 14  1  0  0  0  0
 16 15  2  0  0  0  0
 16 17  1  0  0  0  0
 17 12  2  0  0  0  0
 20 15  1  0  0  0  0
 21 26  1  0  0  0  0
 21  1  1  0  0  0  0
 22 21  2  0  0  0  0
 23 22  1  0  0  0  0
 23 24  2  0  0  0  0
 24 25  1  0  0  0  0
 24 26  1  0  0  0  0
M  END
>  <minimizedAffinity>
-4.62719393

>  <minimizedRMSD>
1.09135652

$$$$
