
 OpenBabel03262519533D

 31 33  0  0  1  0  0  0  0  0999 V2000
   39.8460   24.9470   35.2190 C   0  0  0  0  0  0  0  0  0  0  0  0
   40.1650   25.3510   36.2270 H   0  0  0  0  0  0  0  0  0  0  0  0
   39.6690   25.8750   34.6260 H   0  0  0  0  0  0  0  0  0  0  0  0
   38.5600   24.1700   35.4910 C   0  0  2  0  0  0  0  0  0  0  0  0
   37.8220   24.6290   36.7340 C   0  0  0  0  0  0  0  0  0  0  0  0
   38.3650   23.2660   36.5930 C   0  0  1  0  0  0  0  0  0  0  0  0
   37.9380   24.1450   34.5730 H   0  0  0  0  0  0  0  0  0  0  0  0
   36.7120   24.8450   36.6040 H   0  0  0  0  0  0  0  0  0  0  0  0
   38.2560   25.4700   37.2700 H   0  0  0  0  0  0  0  0  0  0  0  0
   38.9480   22.6960   37.2230 H   0  0  0  0  0  0  0  0  0  0  0  0
   37.2360   22.2750   36.2840 C   0  0  0  0  0  0  0  0  0  0  0  0
   36.2220   21.8250   37.1030 C   0  0  0  0  0  0  0  0  0  0  0  0
   35.4060   20.9230   36.4090 C   0  0  0  0  0  0  0  0  0  0  0  0
   36.0090   20.8980   35.1840 C   0  0  0  0  0  0  0  0  0  0  0  0
   35.6820   20.3070   34.3300 H   0  0  0  0  0  0  0  0  0  0  0  0
   37.0450   21.6720   35.1350 O   0  0  0  0  0  0  0  0  0  0  0  0
   40.8620   24.0190   34.7680 C   0  0  0  0  0  0  0  0  0  0  0  0
   40.4640   23.0820   34.5100 H   0  0  0  0  0  0  0  0  0  0  0  0
   41.0680   24.4040   33.6950 H   0  0  0  0  0  0  0  0  0  0  0  0
   43.8460   23.5970   36.7020 C   0  0  0  0  0  0  0  0  0  0  0  0
   42.5490   23.2880   36.2120 C   0  0  0  0  0  0  0  0  0  0  0  0
   42.1320   24.2250   35.3570 C   0  0  0  0  0  0  0  0  0  0  0  0
   42.9020   25.3350   35.0220 N   0  0  0  0  0  0  0  0  0  0  0  0
   44.1060   25.5590   35.5180 C   0  0  0  0  0  0  0  0  0  0  0  0
   44.5770   24.6790   36.3660 N   0  0  0  0  0  0  0  0  0  0  0  0
   44.3750   22.9470   37.4250 H   0  0  0  0  0  0  0  0  0  0  0  0
   44.6040   26.4350   35.1930 H   0  0  0  0  0  0  0  0  0  0  0  0
   41.9940   22.0830   36.7120 C   0  0  0  0  0  0  0  0  0  0  0  0
   41.1200   22.3110   37.8060 F   0  0  0  0  0  0  0  0  0  0  0  0
   42.7150   21.2160   37.4470 F   0  0  0  0  0  0  0  0  0  0  0  0
   40.9630   21.4760   36.0040 F   0  0  0  0  0  0  0  0  0  0  0  0
  1  4  1  0  0  0  0
  1  2  1  0  0  0  0
  3  1  1  0  0  0  0
  4  7  1  6  0  0  0
  4  6  1  0  0  0  0
  4  5  1  0  0  0  0
  5  9  1  0  0  0  0
  6  5  1  0  0  0  0
  6 10  1  1  0  0  0
  8  5  1  0  0  0  0
 11  6  1  0  0  0  0
 11 12  2  0  0  0  0
 13 12  1  0  0  0  0
 14 13  2  0  0  0  0
 15 14  1  0  0  0  0
 16 14  1  0  0  0  0
 16 11  1  0  0  0  0
 17  1  1  0  0  0  0
 17 22  1  0  0  0  0
 18 17  1  0  0  0  0
 19 17  1  0  0  0  0
 20 26  1  0  0  0  0
 21 20  2  0  0  0  0
 21 28  1  0  0  0  0
 22 21  1  0  0  0  0
 23 22  2  0  0  0  0
 23 24  1  0  0  0  0
 24 25  2  0  0  0  0
 25 20  1  0  0  0  0
 27 24  1  0  0  0  0
 28 30  1  0  0  0  0
 28 29  1  0  0  0  0
 31 28  1  0  0  0  0
M  END
>  <minimizedAffinity>
-4.17008352

>  <minimizedRMSD>
1.55583322

$$$$
