
 OpenBabel03262519573D

 29 32  0  0  1  0  0  0  0  0999 V2000
   38.0750   23.7620   34.4850 C   0  0  0  0  0  0  0  0  0  0  0  0
   38.2300   24.9760   33.8180 C   0  0  0  0  0  0  0  0  0  0  0  0
   37.7790   24.7020   32.5510 N   0  0  0  0  0  0  0  0  0  0  0  0
   37.4020   23.4400   32.5140 C   0  0  0  0  0  0  0  0  0  0  0  0
   37.5720   22.8240   33.6970 N   0  0  0  0  0  0  0  0  0  0  0  0
   38.6100   25.9110   34.1900 H   0  0  0  0  0  0  0  0  0  0  0  0
   37.0000   22.9660   31.6100 H   0  0  0  0  0  0  0  0  0  0  0  0
   38.4210   23.5450   35.8770 C   0  0  0  0  0  0  0  0  0  0  0  0
   39.6260   22.9480   36.2300 C   0  0  0  0  0  0  0  0  0  0  0  0
   39.9330   22.7500   37.5940 C   0  0  0  0  0  0  0  0  0  0  0  0
   39.0220   23.1600   38.4860 N   0  0  0  0  0  0  0  0  0  0  0  0
   37.8480   23.7430   38.1300 C   0  0  0  0  0  0  0  0  0  0  0  0
   37.5380   23.9390   36.8320 N   0  0  0  0  0  0  0  0  0  0  0  0
   40.3250   22.6350   35.4960 H   0  0  0  0  0  0  0  0  0  0  0  0
   40.8520   22.2930   37.9240 H   0  0  0  0  0  0  0  0  0  0  0  0
   37.0940   24.0830   38.8270 H   0  0  0  0  0  0  0  0  0  0  0  0
   37.2430   21.4350   33.9420 C   0  0  1  0  0  0  0  0  0  0  0  0
   36.0100   21.0270   34.5920 C   0  0  0  0  0  0  0  0  0  0  0  0
   36.0860   20.9620   33.0740 C   0  0  2  0  0  0  0  0  0  0  0  0
   38.1330   20.7850   33.8300 H   0  0  0  0  0  0  0  0  0  0  0  0
   36.0380   20.1040   35.1920 H   0  0  0  0  0  0  0  0  0  0  0  0
   35.3710   21.8130   35.0300 H   0  0  0  0  0  0  0  0  0  0  0  0
   35.4950   21.6950   32.4940 H   0  0  0  0  0  0  0  0  0  0  0  0
   36.1180   19.5610   32.5690 C   0  0  0  0  0  0  0  0  0  0  0  0
   35.2510   18.5080   32.8870 C   0  0  0  0  0  3  0  0  0  0  0  0
   35.7010   17.4150   32.1600 C   0  0  0  0  0  3  0  0  0  0  0  0
   36.8010   17.8510   31.4500 C   0  0  0  0  0  0  0  0  0  0  0  0
   37.4040   17.2430   30.7700 H   0  0  0  0  0  0  0  0  0  0  0  0
   37.0150   19.0970   31.7090 O   0  0  0  0  0  0  0  0  0  0  0  0
  1  8  1  0  0  0  0
  2  6  1  0  0  0  0
  2  1  2  0  0  0  0
  3  2  1  0  0  0  0
  4  3  2  0  0  0  0
  4  5  1  0  0  0  0
  5 17  1  0  0  0  0
  5  1  1  0  0  0  0
  7  4  1  0  0  0  0
  8  9  2  0  0  0  0
  8 13  1  0  0  0  0
  9 10  1  0  0  0  0
 10 15  1  0  0  0  0
 10 11  2  0  0  0  0
 12 11  1  0  0  0  0
 12 16  1  0  0  0  0
 13 12  2  0  0  0  0
 14  9  1  0  0  0  0
 17 20  1  1  0  0  0
 17 18  1  0  0  0  0
 18 22  1  0  0  0  0
 18 21  1  0  0  0  0
 19 23  1  6  0  0  0
 19 17  1  0  0  0  0
 19 18  1  0  0  0  0
 24 25  2  0  0  0  0
 24 19  1  0  0  0  0
 26 25  1  0  0  0  0
 27 29  1  0  0  0  0
 27 26  2  0  0  0  0
 28 27  1  0  0  0  0
 29 24  1  0  0  0  0
M  END
>  <minimizedAffinity>
-4.7949419

>  <minimizedRMSD>
0.766886413

$$$$
