
 OpenBabel03262517113D

 29 31  0  0  1  0  0  0  0  0999 V2000
   37.9300   26.3530   35.9320 C   0  0  1  0  0  0  0  0  0  0  0  0
   38.7160   27.3000   35.0870 C   0  0  0  0  0  0  0  0  0  0  0  0
   37.4810   26.6550   34.5680 C   0  0  1  0  0  0  0  0  0  0  0  0
   37.3080   26.7950   36.7270 H   0  0  0  0  0  0  0  0  0  0  0  0
   38.7520   28.3830   35.3160 H   0  0  0  0  0  0  0  0  0  0  0  0
   39.7110   26.8950   34.7600 H   0  0  0  0  0  0  0  0  0  0  0  0
   36.6330   27.3800   34.4560 H   0  0  0  0  0  0  0  0  0  0  0  0
   37.6620   25.8800   33.3930 N   0  0  0  0  0  0  0  0  0  0  0  0
   37.4640   24.5490   33.2140 C   0  0  0  0  0  0  0  0  0  0  0  0
   37.6690   23.8800   32.0490 C   0  0  0  0  0  0  0  0  0  0  0  0
   38.1140   24.5930   30.9380 C   0  0  0  0  0  0  0  0  0  0  0  0
   38.3190   24.0250   29.8390 O   0  0  0  0  0  0  0  0  0  0  0  0
   38.3330   25.9270   31.0380 N   0  0  0  0  0  0  0  0  0  0  0  0
   38.0990   26.4910   32.2430 C   0  0  0  0  0  0  0  0  0  0  0  0
   38.3120   27.7490   32.3200 O   0  0  0  0  0  0  0  0  0  0  0  0
   37.1010   23.9820   34.0470 H   0  0  0  0  0  0  0  0  0  0  0  0
   37.4940   22.8150   31.9700 H   0  0  0  0  0  0  0  0  0  0  0  0
   38.7970   26.7450   29.9330 C   0  0  0  0  0  0  0  0  0  0  0  0
   40.3070   26.7710   29.8080 C   0  0  0  0  0  0  0  0  0  0  0  0
   40.7140   25.9190   29.2260 H   0  0  0  0  0  0  0  0  0  0  0  0
   38.5240   25.0560   36.3500 C   0  0  0  0  0  0  0  0  0  0  0  0
   37.8890   24.4030   37.4060 C   0  0  0  0  0  0  0  0  0  0  0  0
   38.3990   23.1890   37.8450 C   0  0  0  0  0  0  0  0  0  0  0  0
   39.5070   22.7040   37.2030 N   0  0  0  0  0  0  0  0  0  0  0  0
   40.0850   23.3740   36.1880 C   0  0  0  0  0  0  0  0  0  0  0  0
   39.6100   24.5410   35.7520 N   0  0  0  0  0  0  0  0  0  0  0  0
   37.0130   24.8240   37.8840 H   0  0  0  0  0  0  0  0  0  0  0  0
   37.9150   22.6700   38.6660 H   0  0  0  0  0  0  0  0  0  0  0  0
   40.9570   22.9300   35.7280 H   0  0  0  0  0  0  0  0  0  0  0  0
  1 21  1  0  0  0  0
  1  4  1  1  0  0  0
  2  5  1  0  0  0  0
  2  1  1  0  0  0  0
  3  7  1  6  0  0  0
  3  2  1  0  0  0  0
  3  1  1  0  0  0  0
  6  2  1  0  0  0  0
  8  3  1  0  0  0  0
  9  8  1  0  0  0  0
  9 16  1  0  0  0  0
 10  9  2  0  0  0  0
 11 13  1  0  0  0  0
 11 10  1  0  0  0  0
 12 11  2  0  0  0  0
 13 14  1  0  0  0  0
 14 15  2  0  0  0  0
 14  8  1  0  0  0  0
 17 10  1  0  0  0  0
 18 13  1  0  0  0  0
 19 18  1  0  0  0  0
 20 19  1  0  0  0  0
 21 22  1  0  0  0  0
 22 23  2  0  0  0  0
 22 27  1  0  0  0  0
 23 28  1  0  0  0  0
 24 23  1  0  0  0  0
 25 24  2  0  0  0  0
 26 25  1  0  0  0  0
 26 21  2  0  0  0  0
 29 25  1  0  0  0  0
M  END
>  <minimizedAffinity>
-4.23966551

>  <minimizedRMSD>
0.852359951

$$$$
