
 OpenBabel03262519583D

 29 31  0  0  1  0  0  0  0  0999 V2000
   38.9400   23.7120   33.5990 C   0  0  0  0  0  0  0  0  0  0  0  0
   39.2880   22.6640   32.7500 C   0  0  0  0  0  0  0  0  0  0  0  0
   39.6520   21.6670   33.6050 N   0  0  0  0  0  0  0  0  0  0  0  0
   39.5180   22.1270   34.8550 C   0  0  0  0  0  0  0  0  0  0  0  0
   39.0810   23.3810   34.8690 N   0  0  0  0  0  0  0  0  0  0  0  0
   39.2620   22.6730   31.6530 H   0  0  0  0  0  0  0  0  0  0  0  0
   39.7600   21.4780   35.6980 H   0  0  0  0  0  0  0  0  0  0  0  0
   38.4830   25.0230   33.1460 C   0  0  0  0  0  0  0  0  0  0  0  0
   39.4240   26.0540   32.9510 C   0  0  0  0  0  0  0  0  0  0  0  0
   38.9280   27.3050   32.5040 C   0  0  0  0  0  0  0  0  0  0  0  0
   37.5880   27.4170   32.2990 N   0  0  0  0  0  0  0  0  0  0  0  0
   36.7260   26.4000   32.5020 C   0  0  0  0  0  0  0  0  0  0  0  0
   37.1560   25.2010   32.9240 N   0  0  0  0  0  0  0  0  0  0  0  0
   40.4540   25.8340   33.1490 H   0  0  0  0  0  0  0  0  0  0  0  0
   39.6430   28.0850   32.3550 H   0  0  0  0  0  0  0  0  0  0  0  0
   35.7200   26.6710   32.2900 H   0  0  0  0  0  0  0  0  0  0  0  0
   38.8560   24.1020   36.0670 C   0  0  1  0  0  0  0  0  0  0  0  0
   37.6300   24.7410   36.4650 C   0  0  0  0  0  0  0  0  0  0  0  0
   38.0480   23.3740   37.0920 C   0  0  2  0  0  0  0  0  0  0  0  0
   39.7980   24.6360   36.4520 H   0  0  0  0  0  0  0  0  0  0  0  0
   37.6220   25.6230   37.1450 H   0  0  0  0  0  0  0  0  0  0  0  0
   36.7200   24.6670   35.8530 H   0  0  0  0  0  0  0  0  0  0  0  0
   38.4480   23.5500   38.5410 C   0  0  0  0  0  0  0  0  0  0  0  0
   37.8860   22.5540   39.3130 F   0  0  0  0  0  0  0  0  0  0  0  0
   39.8820   23.2830   38.6440 F   0  0  0  0  0  0  0  0  0  0  0  0
   38.2720   24.7880   39.0220 F   0  0  0  0  0  0  0  0  0  0  0  0
   36.9480   22.4410   36.8710 N   0  0  0  0  0  0  0  0  0  0  0  0
   36.1520   23.0180   36.5270 H   0  0  0  0  0  0  0  0  0  0  0  0
   37.2410   21.8070   36.0930 H   0  0  0  0  0  0  0  0  0  0  0  0
  1  5  1  0  0  0  0
  2  1  2  0  0  0  0
  2  3  1  0  0  0  0
  3  4  2  0  0  0  0
  4  5  1  0  0  0  0
  4  7  1  0  0  0  0
  5 17  1  0  0  0  0
  6  2  1  0  0  0  0
  8  1  1  0  0  0  0
  9  8  1  0  0  0  0
  9 14  1  0  0  0  0
 10  9  2  0  0  0  0
 11 12  2  0  0  0  0
 11 10  1  0  0  0  0
 12 13  1  0  0  0  0
 13  8  2  0  0  0  0
 15 10  1  0  0  0  0
 16 12  1  0  0  0  0
 17 20  1  1  0  0  0
 17 18  1  0  0  0  0
 17 19  1  0  0  0  0
 18 19  1  0  0  0  0
 18 21  1  0  0  0  0
 19 27  1  6  0  0  0
 19 23  1  0  0  0  0
 22 18  1  0  0  0  0
 23 25  1  0  0  0  0
 23 26  1  0  0  0  0
 23 24  1  0  0  0  0
 28 27  1  0  0  0  0
 29 27  1  0  0  0  0
M  END
>  <minimizedAffinity>
-4.76856709

>  <minimizedRMSD>
1.03118694

$$$$
