
 OpenBabel03262516473D

 16 17  0  0  0  0  0  0  0  0999 V2000
   39.9010   22.7250   37.7300 C   0  0  0  0  0  0  0  0  0  0  0  0
   39.0520   23.3480   38.6700 C   0  0  0  0  0  0  0  0  0  0  0  0
   37.8070   23.7610   38.2230 C   0  0  0  0  0  0  0  0  0  0  0  0
   37.4950   23.5350   36.9060 N   0  0  0  0  0  0  0  0  0  0  0  0
   38.3320   22.9380   36.0440 C   0  0  0  0  0  0  0  0  0  0  0  0
   39.5480   22.5260   36.4500 N   0  0  0  0  0  0  0  0  0  0  0  0
   40.8890   22.3820   38.0340 H   0  0  0  0  0  0  0  0  0  0  0  0
   39.3570   23.4930   39.6760 H   0  0  0  0  0  0  0  0  0  0  0  0
   37.0960   24.2470   38.8780 H   0  0  0  0  0  0  0  0  0  0  0  0
   37.8890   22.7500   34.6640 C   0  0  0  0  0  0  0  0  0  0  0  0
   37.4110   21.6230   34.3710 O   0  0  0  0  0  0  0  0  0  0  0  0
   37.9910   23.7750   33.7150 C   0  0  0  0  0  0  0  0  0  0  0  0
   38.7360   24.9360   33.7430 C   0  0  0  0  0  0  0  0  0  0  0  0
   38.6590   25.7880   32.6680 C   0  0  0  0  0  0  0  0  0  0  0  0
   37.8510   25.4670   31.6050 C   0  0  0  0  0  0  0  0  0  0  0  0
   37.1390   23.8080   32.1820 S   0  0  0  0  0  0  0  0  0  0  0  0
  1  7  1  0  0  0  0
  1  2  1  0  0  0  0
  2  8  1  0  0  0  0
  3  2  2  0  0  0  0
  3  9  1  0  0  0  0
  4  3  1  0  0  0  0
  5  6  1  0  0  0  0
  5  4  2  0  0  0  0
  6  1  2  0  0  0  0
 10  5  1  0  0  0  0
 11 10  2  0  0  0  0
 12 13  2  0  0  0  0
 12 10  1  0  0  0  0
 14 13  1  0  0  0  0
 15 16  1  0  0  0  0
 15 14  2  0  0  0  0
 16 12  1  0  0  0  0
M  END
>  <minimizedAffinity>
-3.47847533

>  <minimizedRMSD>
1.63411283

$$$$
