
 OpenBabel03262519513D

 21 21  0  0  0  0  0  0  0  0999 V2000
   40.0940   25.3990   34.9190 C   0  0  0  0  0  0  0  0  0  0  0  0
   39.3840   24.4030   35.6420 C   0  0  0  0  0  0  0  0  0  0  0  0
   38.4110   25.0090   36.3700 C   0  0  0  0  0  0  0  0  0  0  0  0
   38.1770   26.3740   36.3830 N   0  0  0  0  0  0  0  0  0  0  0  0
   38.8990   27.2180   35.6720 C   0  0  0  0  0  0  0  0  0  0  0  0
   39.8660   26.7300   34.9320 N   0  0  0  0  0  0  0  0  0  0  0  0
   40.9460   25.1600   34.2410 H   0  0  0  0  0  0  0  0  0  0  0  0
   38.6000   28.2430   35.7850 H   0  0  0  0  0  0  0  0  0  0  0  0
   39.8170   23.0660   35.4650 C   0  0  0  0  0  0  0  0  0  0  0  0
   40.6130   22.6240   36.5860 F   0  0  0  0  0  0  0  0  0  0  0  0
   40.8180   22.7590   34.6150 F   0  0  0  0  0  0  0  0  0  0  0  0
   38.8980   22.0360   35.7060 F   0  0  0  0  0  0  0  0  0  0  0  0
   37.6270   24.1000   37.1300 C   0  0  0  0  0  0  0  0  0  0  0  0
   36.5680   24.5170   37.1200 H   0  0  0  0  0  0  0  0  0  0  0  0
   37.4530   23.0950   36.6960 H   0  0  0  0  0  0  0  0  0  0  0  0
   38.0000   23.9950   38.5300 C   0  0  0  0  0  0  0  0  0  0  0  0
   38.8130   24.7050   38.7890 H   0  0  0  0  0  0  0  0  0  0  0  0
   37.1500   24.2220   39.2360 H   0  0  0  0  0  0  0  0  0  0  0  0
   38.4720   22.6730   38.9250 N   0  0  0  0  0  0  0  0  0  0  0  0
   39.0460   22.2250   38.1660 H   0  0  0  0  0  0  0  0  0  0  0  0
   39.0250   22.7420   39.7860 H   0  0  0  0  0  0  0  0  0  0  0  0
  1  6  2  0  0  0  0
  1  2  1  0  0  0  0
  2  3  2  0  0  0  0
  3  4  1  0  0  0  0
  3 13  1  0  0  0  0
  5  8  1  0  0  0  0
  5  4  2  0  0  0  0
  6  5  1  0  0  0  0
  7  1  1  0  0  0  0
  9  2  1  0  0  0  0
  9 12  1  0  0  0  0
  9 10  1  0  0  0  0
 11  9  1  0  0  0  0
 13 16  1  0  0  0  0
 14 13  1  0  0  0  0
 15 13  1  0  0  0  0
 16 17  1  0  0  0  0
 16 19  1  0  0  0  0
 16 18  1  0  0  0  0
 19 21  1  0  0  0  0
 20 19  1  0  0  0  0
M  END
>  <minimizedAffinity>
-3.95829487

>  <minimizedRMSD>
1.59466994

$$$$
