
 OpenBabel03262514553D

 38 40  0  0  1  0  0  0  0  0999 V2000
   36.2600   21.8220   31.9170 C   0  0  1  0  0  0  0  0  0  0  0  0
   35.5500   21.2260   32.5050 H   0  0  0  0  0  0  0  0  0  0  0  0
   39.9610   22.7190   37.8430 C   0  0  0  0  0  0  0  0  0  0  0  0
   38.9780   23.3200   38.6500 C   0  0  0  0  0  0  0  0  0  0  0  0
   37.8190   23.7790   38.0580 C   0  0  0  0  0  0  0  0  0  0  0  0
   37.6700   23.6290   36.7020 N   0  0  0  0  0  0  0  0  0  0  0  0
   38.6440   23.0430   35.9620 C   0  0  0  0  0  0  0  0  0  0  0  0
   39.7870   22.5880   36.5230 N   0  0  0  0  0  0  0  0  0  0  0  0
   38.5240   22.8650   34.5500 N   0  0  0  0  0  0  0  0  0  0  0  0
   39.2990   23.0310   33.4530 C   0  0  0  0  0  0  0  0  0  0  0  0
   38.5900   22.6790   32.3690 N   0  0  0  0  0  0  0  0  0  0  0  0
   37.3550   22.2860   32.8050 C   0  0  0  0  0  0  0  0  0  0  0  0
   37.3470   22.4110   34.1240 N   0  0  0  0  0  0  0  0  0  0  0  0
   40.8370   22.3870   38.3830 H   0  0  0  0  0  0  0  0  0  0  0  0
   39.0400   23.4650   39.7200 H   0  0  0  0  0  0  0  0  0  0  0  0
   36.9710   24.2580   38.5160 H   0  0  0  0  0  0  0  0  0  0  0  0
   40.3060   23.4020   33.6420 H   0  0  0  0  0  0  0  0  0  0  0  0
   35.5510   22.9850   31.2710 C   0  0  0  0  0  0  0  0  0  0  0  0
   34.5870   22.6770   30.8500 H   0  0  0  0  0  0  0  0  0  0  0  0
   36.2270   23.3590   30.4750 H   0  0  0  0  0  0  0  0  0  0  0  0
   35.4530   23.8010   32.0280 H   0  0  0  0  0  0  0  0  0  0  0  0
   36.8330   20.9790   30.8200 C   0  0  0  0  0  0  0  0  0  0  0  0
   37.9470   21.0230   30.8330 H   0  0  0  0  0  0  0  0  0  0  0  0
   36.5560   21.3510   29.7990 H   0  0  0  0  0  0  0  0  0  0  0  0
   36.4600   19.5340   30.8850 C   0  0  1  0  0  0  0  0  0  0  0  0
   36.7740   18.5540   29.8330 C   0  0  0  0  0  0  0  0  0  0  0  0
   37.4290   18.5120   31.2340 C   0  0  2  0  0  0  0  0  0  0  0  0
   35.3970   19.4240   31.2650 H   0  0  0  0  0  0  0  0  0  0  0  0
   37.4280   18.9040   29.0110 H   0  0  0  0  0  0  0  0  0  0  0  0
   36.0840   17.7510   29.5460 H   0  0  0  0  0  0  0  0  0  0  0  0
   38.5330   18.5500   31.1640 H   0  0  0  0  0  0  0  0  0  0  0  0
   36.8900   17.3650   32.0400 C   0  0  0  0  0  0  0  0  0  0  0  0
   37.6060   16.3700   32.3480 O   0  0  0  0  0  0  0  0  0  0  0  0
   35.6290   17.1970   32.5590 O   0  0  0  0  0  0  0  0  0  0  0  0
   34.9020   16.0460   32.5640 C   0  0  0  0  0  0  0  0  0  0  0  0
   34.8670   15.3520   31.5150 O   0  0  0  0  0  0  0  0  0  0  0  0
   34.2170   15.6800   33.7410 O   0  0  0  0  0  0  0  0  0  0  0  0
   33.9760   14.6870   33.8240 H   0  0  0  0  0  0  0  0  0  0  0  0
  1  2  1  1  0  0  0
  1 12  1  0  0  0  0
  3 14  1  0  0  0  0
  3  4  1  0  0  0  0
  4 15  1  0  0  0  0
  5 16  1  0  0  0  0
  5  4  2  0  0  0  0
  6  5  1  0  0  0  0
  7  8  1  0  0  0  0
  7  6  2  0  0  0  0
  8  3  2  0  0  0  0
  9  7  1  0  0  0  0
 10 17  1  0  0  0  0
 10  9  1  0  0  0  0
 11 12  1  0  0  0  0
 11 10  2  0  0  0  0
 12 13  2  0  0  0  0
 13  9  1  0  0  0  0
 18  1  1  0  0  0  0
 18 21  1  0  0  0  0
 19 18  1  0  0  0  0
 20 18  1  0  0  0  0
 22 23  1  0  0  0  0
 22 25  1  0  0  0  0
 22  1  1  0  0  0  0
 24 22  1  0  0  0  0
 25 27  1  0  0  0  0
 25 28  1  1  0  0  0
 26 25  1  0  0  0  0
 26 27  1  0  0  0  0
 27 31  1  1  0  0  0
 27 32  1  0  0  0  0
 29 26  1  0  0  0  0
 30 26  1  0  0  0  0
 32 33  2  0  0  0  0
 32 34  1  0  0  0  0
 34 35  1  0  0  0  0
 35 37  1  0  0  0  0
 36 35  2  0  0  0  0
 37 38  1  0  0  0  0
M  END
>  <minimizedAffinity>
-4.80837536

>  <minimizedRMSD>
0.817871392

$$$$
