
 OpenBabel03262519583D

 29 31  0  0  1  0  0  0  0  0999 V2000
   38.9400   23.7120   33.5990 C   0  0  0  0  0  0  0  0  0  0  0  0
   39.2870   22.6640   32.7500 C   0  0  0  0  0  0  0  0  0  0  0  0
   39.6520   21.6670   33.6040 N   0  0  0  0  0  0  0  0  0  0  0  0
   39.5180   22.1270   34.8550 C   0  0  0  0  0  0  0  0  0  0  0  0
   39.0810   23.3810   34.8690 N   0  0  0  0  0  0  0  0  0  0  0  0
   39.2610   22.6730   31.6530 H   0  0  0  0  0  0  0  0  0  0  0  0
   39.7600   21.4770   35.6970 H   0  0  0  0  0  0  0  0  0  0  0  0
   38.4830   25.0230   33.1460 C   0  0  0  0  0  0  0  0  0  0  0  0
   39.4250   26.0540   32.9510 C   0  0  0  0  0  0  0  0  0  0  0  0
   38.9290   27.3040   32.5040 C   0  0  0  0  0  0  0  0  0  0  0  0
   37.5880   27.4170   32.2990 N   0  0  0  0  0  0  0  0  0  0  0  0
   36.7260   26.4000   32.5020 C   0  0  0  0  0  0  0  0  0  0  0  0
   37.1560   25.2000   32.9240 N   0  0  0  0  0  0  0  0  0  0  0  0
   40.4540   25.8340   33.1490 H   0  0  0  0  0  0  0  0  0  0  0  0
   39.6440   28.0850   32.3550 H   0  0  0  0  0  0  0  0  0  0  0  0
   35.7200   26.6710   32.2910 H   0  0  0  0  0  0  0  0  0  0  0  0
   38.8560   24.1020   36.0670 C   0  0  1  0  0  0  0  0  0  0  0  0
   37.6300   24.7410   36.4650 C   0  0  0  0  0  0  0  0  0  0  0  0
   38.0490   23.3730   37.0920 C   0  0  2  0  0  0  0  0  0  0  0  0
   39.7990   24.6360   36.4520 H   0  0  0  0  0  0  0  0  0  0  0  0
   37.6230   25.6230   37.1450 H   0  0  0  0  0  0  0  0  0  0  0  0
   36.7200   24.6670   35.8530 H   0  0  0  0  0  0  0  0  0  0  0  0
   38.4480   23.5490   38.5410 C   0  0  0  0  0  0  0  0  0  0  0  0
   37.8870   22.5530   39.3130 F   0  0  0  0  0  0  0  0  0  0  0  0
   39.8830   23.2830   38.6430 F   0  0  0  0  0  0  0  0  0  0  0  0
   38.2730   24.7870   39.0220 F   0  0  0  0  0  0  0  0  0  0  0  0
   36.9490   22.4410   36.8720 N   0  0  0  0  0  0  0  0  0  0  0  0
   37.3650   21.6250   36.3730 H   0  0  0  0  0  0  0  0  0  0  0  0
   36.6380   22.1130   37.8130 H   0  0  0  0  0  0  0  0  0  0  0  0
  1  5  1  0  0  0  0
  2  1  2  0  0  0  0
  2  3  1  0  0  0  0
  3  4  2  0  0  0  0
  4  5  1  0  0  0  0
  4  7  1  0  0  0  0
  5 17  1  0  0  0  0
  6  2  1  0  0  0  0
  8  1  1  0  0  0  0
  9  8  1  0  0  0  0
  9 14  1  0  0  0  0
 10  9  2  0  0  0  0
 11 12  2  0  0  0  0
 11 10  1  0  0  0  0
 12 13  1  0  0  0  0
 13  8  2  0  0  0  0
 15 10  1  0  0  0  0
 16 12  1  0  0  0  0
 17 20  1  1  0  0  0
 17 18  1  0  0  0  0
 17 19  1  0  0  0  0
 18 19  1  0  0  0  0
 18 21  1  0  0  0  0
 19 27  1  6  0  0  0
 19 23  1  0  0  0  0
 22 18  1  0  0  0  0
 23 25  1  0  0  0  0
 23 26  1  0  0  0  0
 23 24  1  0  0  0  0
 27 29  1  0  0  0  0
 28 27  1  0  0  0  0
M  END
>  <minimizedAffinity>
-4.76858282

>  <minimizedRMSD>
1.03124261

$$$$
