
 OpenBabel03262519013D

 35 38  0  0  0  0  0  0  0  0999 V2000
   37.7500   27.2110   34.9060 C   0  0  0  0  0  0  0  0  0  0  0  0
   37.0460   27.0410   35.7210 H   0  0  0  0  0  0  0  0  0  0  0  0
   38.0890   28.2850   35.0830 H   0  0  0  0  0  0  0  0  0  0  0  0
   38.9990   26.4480   34.9340 C   0  0  0  0  0  0  0  0  0  0  0  0
   40.1500   26.9520   34.3290 C   0  0  0  0  0  0  0  0  0  0  0  0
   41.3220   26.2530   34.3600 C   0  0  0  0  0  0  0  0  0  0  0  0
   41.4090   25.0130   35.0000 C   0  0  0  0  0  0  0  0  0  0  0  0
   40.2610   24.5100   35.6040 C   0  0  0  0  0  0  0  0  0  0  0  0
   40.3210   23.2890   36.2420 C   0  0  0  0  0  0  0  0  0  0  0  0
   39.2130   22.7470   36.8550 C   0  0  0  0  0  0  0  0  0  0  0  0
   38.0150   23.4580   36.8240 C   0  0  0  0  0  0  0  0  0  0  0  0
   37.9910   24.6890   36.1710 C   0  0  0  0  0  0  0  0  0  0  0  0
   39.0840   25.2510   35.5510 C   0  0  0  0  0  0  0  0  0  0  0  0
   40.1750   27.8950   33.8160 H   0  0  0  0  0  0  0  0  0  0  0  0
   42.2610   26.5470   33.9280 H   0  0  0  0  0  0  0  0  0  0  0  0
   42.3040   24.4050   35.0630 H   0  0  0  0  0  0  0  0  0  0  0  0
   41.2150   22.6800   36.3060 H   0  0  0  0  0  0  0  0  0  0  0  0
   39.2330   21.7990   37.3580 H   0  0  0  0  0  0  0  0  0  0  0  0
   37.1480   23.0290   37.3060 H   0  0  0  0  0  0  0  0  0  0  0  0
   37.0180   25.1560   36.2010 H   0  0  0  0  0  0  0  0  0  0  0  0
   36.5720   28.6330   31.7520 C   0  0  0  0  0  0  0  0  0  0  0  0
   36.0320   27.5530   31.0590 C   0  0  0  0  0  0  0  0  0  0  0  0
   36.0670   26.2900   31.6940 C   0  0  0  0  0  0  0  0  0  0  0  0
   36.6260   26.2030   32.9440 N   0  0  0  0  0  0  0  0  0  0  0  0
   37.1240   27.2690   33.5530 C   0  0  0  0  0  0  0  0  0  0  0  0
   37.1010   28.4830   32.9670 N   0  0  0  0  0  0  0  0  0  0  0  0
   36.5430   29.5970   31.2650 H   0  0  0  0  0  0  0  0  0  0  0  0
   35.5930   27.6590   30.0600 H   0  0  0  0  0  0  0  0  0  0  0  0
   35.5290   25.1320   31.0300 C   0  0  0  0  0  0  0  0  0  0  0  0
   34.4210   25.2190   30.4510 O   0  0  0  0  0  0  0  0  0  0  0  0
   36.2310   23.9240   31.0300 C   0  0  0  0  0  0  0  0  0  0  0  0
   35.7830   22.6220   31.4120 C   0  0  0  0  0  0  0  0  0  0  0  0
   36.6310   21.5590   31.3390 C   0  0  0  0  0  0  0  0  0  0  0  0
   38.0310   21.8800   30.8360 C   0  0  0  0  0  0  0  0  0  0  0  0
   37.9200   23.7400   30.5290 S   0  0  0  0  0  0  0  0  0  0  0  0
  1  4  1  0  0  0  0
  1  3  1  0  0  0  0
  1  2  1  0  0  0  0
  4 13  1  0  0  0  0
  5  6  1  0  0  0  0
  5  4  2  0  0  0  0
  6  7  2  0  0  0  0
  7 16  1  0  0  0  0
  7  8  1  0  0  0  0
  8  9  1  0  0  0  0
  9 17  1  0  0  0  0
  9 10  2  0  0  0  0
 10 18  1  0  0  0  0
 11 10  1  0  0  0  0
 11 19  1  0  0  0  0
 12 20  1  0  0  0  0
 12 11  2  0  0  0  0
 13  8  2  0  0  0  0
 13 12  1  0  0  0  0
 14  5  1  0  0  0  0
 15  6  1  0  0  0  0
 21 26  1  0  0  0  0
 22 23  1  0  0  0  0
 22 21  2  0  0  0  0
 23 24  2  0  0  0  0
 24 25  1  0  0  0  0
 25  1  1  0  0  0  0
 26 25  2  0  0  0  0
 27 21  1  0  0  0  0
 28 22  1  0  0  0  0
 29 31  1  0  0  0  0
 29 23  1  0  0  0  0
 30 29  2  0  0  0  0
 31 32  2  0  0  0  0
 33 32  1  0  0  0  0
 34 33  2  0  0  0  0
 35 34  1  0  0  0  0
 35 31  1  0  0  0  0
M  END
>  <minimizedAffinity>
-5.92951107

>  <minimizedRMSD>
2.10284281

$$$$
