
 OpenBabel03262519073D

 31 33  0  0  1  0  0  0  0  0999 V2000
   37.3540   23.5490   30.8000 C   0  0  2  0  0  0  0  0  0  0  0  0
   38.5390   24.3210   31.2570 C   0  0  0  0  0  0  0  0  0  0  0  0
   37.2180   25.0040   31.0540 C   0  0  2  0  0  0  0  0  0  0  0  0
   37.2770   23.2600   29.7530 H   0  0  0  0  0  0  0  0  0  0  0  0
   39.3390   24.6090   30.5420 H   0  0  0  0  0  0  0  0  0  0  0  0
   38.9340   24.1490   32.2790 H   0  0  0  0  0  0  0  0  0  0  0  0
   37.1190   25.6700   30.1480 H   0  0  0  0  0  0  0  0  0  0  0  0
   36.9240   21.4160   33.7540 C   0  0  0  0  0  0  0  0  0  0  0  0
   35.6750   20.7840   33.5620 C   0  0  0  0  0  0  0  0  0  0  0  0
   34.9820   21.1360   32.3560 C   0  0  0  0  0  0  0  0  0  0  0  0
   35.5520   22.0200   31.5100 N   0  0  0  0  0  0  0  0  0  0  0  0
   36.7710   22.5970   31.7600 C   0  0  0  0  0  0  0  0  0  0  0  0
   37.4630   22.2860   32.9000 N   0  0  0  0  0  0  0  0  0  0  0  0
   37.5040   21.2000   34.6390 H   0  0  0  0  0  0  0  0  0  0  0  0
   35.2700   20.0950   34.2590 H   0  0  0  0  0  0  0  0  0  0  0  0
   34.0210   20.6860   32.1510 H   0  0  0  0  0  0  0  0  0  0  0  0
   36.6860   25.6300   32.2770 C   0  0  0  0  0  0  0  0  0  0  0  0
   37.2520   25.3950   33.2060 H   0  0  0  0  0  0  0  0  0  0  0  0
   35.6670   25.1830   32.4620 H   0  0  0  0  0  0  0  0  0  0  0  0
   36.4790   27.0920   32.1990 C   0  0  0  0  0  0  0  0  0  0  0  0
   36.1690   28.0100   33.1500 C   0  0  0  0  0  0  0  0  0  0  0  0
   35.9960   29.3470   32.9620 C   0  0  0  0  0  0  0  0  0  0  0  0
   36.1580   29.7970   31.6580 C   0  0  0  0  0  0  0  0  0  0  0  0
   36.4750   28.8620   30.6820 C   0  0  0  0  0  0  0  0  0  0  0  0
   36.6340   27.5550   30.9250 N   0  0  0  0  0  0  0  0  0  0  0  0
   36.0630   27.5520   34.1440 H   0  0  0  0  0  0  0  0  0  0  0  0
   35.7500   29.9690   33.8010 H   0  0  0  0  0  0  0  0  0  0  0  0
   36.0310   30.8520   31.4590 H   0  0  0  0  0  0  0  0  0  0  0  0
   36.6230   29.4130   29.3750 N   0  0  0  0  0  0  0  0  0  0  0  0
   35.8740   29.4430   28.6350 H   0  0  0  0  0  0  0  0  0  0  0  0
   37.5280   29.8360   29.0710 H   0  0  0  0  0  0  0  0  0  0  0  0
  1  4  1  6  0  0  0
  1  3  1  0  0  0  0
  1  2  1  0  0  0  0
  1 12  1  0  0  0  0
  2  6  1  0  0  0  0
  3  7  1  6  0  0  0
  3  2  1  0  0  0  0
  3 17  1  0  0  0  0
  5  2  1  0  0  0  0
  8 14  1  0  0  0  0
  9  8  1  0  0  0  0
  9 15  1  0  0  0  0
 10  9  2  0  0  0  0
 11 12  2  0  0  0  0
 11 10  1  0  0  0  0
 12 13  1  0  0  0  0
 13  8  2  0  0  0  0
 16 10  1  0  0  0  0
 17 19  1  0  0  0  0
 17 18  1  0  0  0  0
 20 17  1  0  0  0  0
 20 21  1  0  0  0  0
 21 26  1  0  0  0  0
 22 21  2  0  0  0  0
 22 27  1  0  0  0  0
 23 22  1  0  0  0  0
 24 25  1  0  0  0  0
 24 23  2  0  0  0  0
 25 20  2  0  0  0  0
 28 23  1  0  0  0  0
 29 24  1  0  0  0  0
 30 29  1  0  0  0  0
 31 29  1  0  0  0  0
M  END
>  <minimizedAffinity>
-4.11138582

>  <minimizedRMSD>
0.249483511

$$$$
