
 OpenBabel03262519103D

 23 25  0  0  0  0  0  0  0  0999 V2000
   37.7970   25.5130   34.8200 C   0  0  0  0  0  0  0  0  0  0  0  0
   37.3960   26.8360   35.0030 C   0  0  0  0  0  0  0  0  0  0  0  0
   36.8640   27.4960   33.9510 C   0  0  0  0  0  0  0  0  0  0  0  0
   36.7440   26.8050   32.7250 C   0  0  0  0  0  0  0  0  0  0  0  0
   37.4330   25.1270   33.1140 S   0  0  0  0  0  0  0  0  0  0  0  0
   37.5080   27.3210   35.9620 H   0  0  0  0  0  0  0  0  0  0  0  0
   36.5050   28.5110   33.9170 H   0  0  0  0  0  0  0  0  0  0  0  0
   37.7970   24.3310   37.0340 C   0  0  0  0  0  0  0  0  0  0  0  0
   38.3820   24.6450   35.7970 C   0  0  0  0  0  0  0  0  0  0  0  0
   39.6160   24.0920   35.4750 C   0  0  0  0  0  0  0  0  0  0  0  0
   40.1770   23.2680   36.4070 N   0  0  0  0  0  0  0  0  0  0  0  0
   39.5950   22.9830   37.5860 C   0  0  0  0  0  0  0  0  0  0  0  0
   38.4010   23.5230   37.8880 N   0  0  0  0  0  0  0  0  0  0  0  0
   36.8300   24.7770   37.2640 H   0  0  0  0  0  0  0  0  0  0  0  0
   40.1240   24.2910   34.5420 H   0  0  0  0  0  0  0  0  0  0  0  0
   40.2090   22.3110   38.1720 H   0  0  0  0  0  0  0  0  0  0  0  0
   36.2620   27.1410   31.4600 C   0  0  0  0  0  0  0  0  0  0  0  0
   35.6330   26.3210   30.7800 O   0  0  0  0  0  0  0  0  0  0  0  0
   36.4710   28.4620   30.8790 C   0  0  0  0  0  0  0  0  0  0  0  0
   36.0070   29.6650   31.2420 C   0  0  0  0  0  0  0  0  0  0  0  0
   36.3350   30.7740   30.5470 C   0  0  0  0  0  0  0  0  0  0  0  0
   37.1730   30.5810   29.4450 C   0  0  0  0  0  0  0  0  0  0  0  0
   37.4900   28.7240   29.4290 S   0  0  0  0  0  0  0  0  0  0  0  0
  1  2  2  0  0  0  0
  1  9  1  0  0  0  0
  2  6  1  0  0  0  0
  3  2  1  0  0  0  0
  4  5  1  0  0  0  0
  4  3  2  0  0  0  0
  5  1  1  0  0  0  0
  7  3  1  0  0  0  0
  8 14  1  0  0  0  0
  8 13  1  0  0  0  0
  9  8  2  0  0  0  0
 10  9  1  0  0  0  0
 10 11  2  0  0  0  0
 11 12  1  0  0  0  0
 12 13  2  0  0  0  0
 12 16  1  0  0  0  0
 15 10  1  0  0  0  0
 17  4  1  0  0  0  0
 18 17  2  0  0  0  0
 19 20  2  0  0  0  0
 19 17  1  0  0  0  0
 21 20  1  0  0  0  0
 22 21  2  0  0  0  0
 23 22  1  0  0  0  0
 23 19  1  0  0  0  0
M  END
>  <minimizedAffinity>
-4.69053268

>  <minimizedRMSD>
0.878095448

$$$$
