
 OpenBabel03262519383D

 33 35  0  0  1  0  0  0  0  0999 V2000
   38.3660   25.2730   34.3350 N   0  0  0  0  0  0  0  0  0  0  0  0
   37.3310   26.2620   34.4300 C   0  0  0  0  0  0  0  0  0  0  0  0
   37.2940   26.9420   33.0920 C   0  0  0  0  0  0  0  0  0  0  0  0
   38.3220   26.2060   32.2570 C   0  0  0  0  0  0  0  0  0  0  0  0
   38.2630   24.8250   32.9530 C   0  0  2  0  0  0  0  0  0  0  0  0
   37.4600   26.9560   35.2790 H   0  0  0  0  0  0  0  0  0  0  0  0
   36.3720   25.7050   34.5520 H   0  0  0  0  0  0  0  0  0  0  0  0
   37.6980   27.9610   33.2410 H   0  0  0  0  0  0  0  0  0  0  0  0
   36.2950   26.9160   32.6150 H   0  0  0  0  0  0  0  0  0  0  0  0
   37.9280   26.0500   31.2360 H   0  0  0  0  0  0  0  0  0  0  0  0
   39.3250   26.6240   32.2950 H   0  0  0  0  0  0  0  0  0  0  0  0
   39.1860   24.3170   32.6320 H   0  0  0  0  0  0  0  0  0  0  0  0
   38.1480   24.1210   35.1550 C   0  0  0  0  0  0  0  0  0  0  0  0
   37.4970   24.4510   36.0140 H   0  0  0  0  0  0  0  0  0  0  0  0
   37.5790   23.3150   34.6740 H   0  0  0  0  0  0  0  0  0  0  0  0
   41.8000   23.5030   35.9240 C   0  0  0  0  0  0  0  0  0  0  0  0
   40.6610   23.9820   35.2790 C   0  0  0  0  0  0  0  0  0  0  0  0
   39.4010   23.6410   35.7980 C   0  0  0  0  0  0  0  0  0  0  0  0
   39.3790   22.8530   36.9140 N   0  0  0  0  0  0  0  0  0  0  0  0
   40.4960   22.4120   37.5070 C   0  0  0  0  0  0  0  0  0  0  0  0
   41.7080   22.7410   37.0050 N   0  0  0  0  0  0  0  0  0  0  0  0
   42.7670   23.7660   35.5230 H   0  0  0  0  0  0  0  0  0  0  0  0
   40.7270   24.5970   34.4060 H   0  0  0  0  0  0  0  0  0  0  0  0
   40.4220   21.7920   38.3880 H   0  0  0  0  0  0  0  0  0  0  0  0
   37.1010   24.1740   32.6800 O   0  0  0  0  0  0  0  0  0  0  0  0
   37.0010   22.9810   32.0020 C   0  0  0  0  0  0  0  0  0  0  0  0
   37.9680   22.2300   31.3660 C   0  0  0  0  0  0  0  0  0  0  0  0
   37.6740   21.0560   30.7380 C   0  0  0  0  0  0  0  0  0  0  0  0
   38.4640   20.5040   30.2550 H   0  0  0  0  0  0  0  0  0  0  0  0
   36.3540   20.6070   30.7420 C   0  0  0  0  0  0  0  0  0  0  0  0
   35.3490   21.3210   31.3640 C   0  0  0  0  0  0  0  0  0  0  0  0
   34.3390   20.9280   31.3390 H   0  0  0  0  0  0  0  0  0  0  0  0
   35.6870   22.5070   31.9900 C   0  0  0  0  0  0  0  0  0  0  0  0
  1  2  1  0  0  0  0
  1 13  1  0  0  0  0
  2  7  1  0  0  0  0
  2  6  1  0  0  0  0
  3  8  1  0  0  0  0
  3  2  1  0  0  0  0
  4 11  1  0  0  0  0
  4  5  1  0  0  0  0
  4  3  1  0  0  0  0
  5 12  1  6  0  0  0
  5  1  1  0  0  0  0
  9  3  1  0  0  0  0
 10  4  1  0  0  0  0
 13 18  1  0  0  0  0
 13 14  1  0  0  0  0
 15 13  1  0  0  0  0
 16 21  1  0  0  0  0
 17 18  1  0  0  0  0
 17 16  2  0  0  0  0
 18 19  2  0  0  0  0
 19 20  1  0  0  0  0
 20 24  1  0  0  0  0
 21 20  2  0  0  0  0
 22 16  1  0  0  0  0
 23 17  1  0  0  0  0
 25  5  1  0  0  0  0
 26 25  1  0  0  0  0
 27 26  2  0  0  0  0
 28 30  2  0  0  0  0
 28 27  1  0  0  0  0
 29 28  1  0  0  0  0
 30 31  1  0  0  0  0
 31 33  2  0  0  0  0
 32 31  1  0  0  0  0
 33 26  1  0  0  0  0
M  END
>  <minimizedAffinity>
-4.28764439

>  <minimizedRMSD>
5.49087095

$$$$
