
 OpenBabel03262519003D

 40 44  0  0  0  0  0  0  0  0999 V2000
   38.4550   25.7340   34.1950 C   0  0  0  0  0  0  0  0  0  0  0  0
   39.1330   26.5060   33.6760 H   0  0  0  0  0  0  0  0  0  0  0  0
   37.8580   26.3790   34.8340 H   0  0  0  0  0  0  0  0  0  0  0  0
   39.4440   24.8700   34.8420 C   0  0  0  0  0  0  0  0  0  0  0  0
   40.6720   24.6030   34.2690 C   0  0  0  0  0  0  0  0  0  0  0  0
   41.5880   23.7980   34.8990 C   0  0  0  0  0  0  0  0  0  0  0  0
   41.3100   23.2310   36.1260 C   0  0  0  0  0  0  0  0  0  0  0  0
   40.0710   23.4940   36.7160 C   0  0  0  0  0  0  0  0  0  0  0  0
   39.7840   22.9400   37.9440 C   0  0  0  0  0  0  0  0  0  0  0  0
   38.5850   23.1730   38.5650 C   0  0  0  0  0  0  0  0  0  0  0  0
   37.6550   23.9810   37.9380 C   0  0  0  0  0  0  0  0  0  0  0  0
   37.9680   24.5290   36.7020 C   0  0  0  0  0  0  0  0  0  0  0  0
   39.1720   24.3090   36.0530 C   0  0  0  0  0  0  0  0  0  0  0  0
   40.9190   25.0330   33.3050 H   0  0  0  0  0  0  0  0  0  0  0  0
   42.5500   23.5860   34.4520 H   0  0  0  0  0  0  0  0  0  0  0  0
   42.0060   22.5800   36.6740 H   0  0  0  0  0  0  0  0  0  0  0  0
   40.5160   22.3070   38.4270 H   0  0  0  0  0  0  0  0  0  0  0  0
   38.4180   22.7060   39.5330 H   0  0  0  0  0  0  0  0  0  0  0  0
   36.7130   24.1570   38.4380 H   0  0  0  0  0  0  0  0  0  0  0  0
   37.1760   25.1390   36.2960 H   0  0  0  0  0  0  0  0  0  0  0  0
   36.0220   25.2790   31.5000 C   0  0  0  0  0  0  0  0  0  0  0  0
   36.2320   23.9740   31.0780 C   0  0  0  0  0  0  0  0  0  0  0  0
   37.2400   23.1950   31.7330 C   0  0  0  0  0  0  0  0  0  0  0  0
   37.9150   23.8360   32.7410 N   0  0  0  0  0  0  0  0  0  0  0  0
   37.6910   25.0790   33.1160 C   0  0  0  0  0  0  0  0  0  0  0  0
   36.7490   25.8040   32.5040 N   0  0  0  0  0  0  0  0  0  0  0  0
   35.2690   25.8720   31.0160 H   0  0  0  0  0  0  0  0  0  0  0  0
   35.6380   23.5770   30.2730 H   0  0  0  0  0  0  0  0  0  0  0  0
   37.3660   21.8610   31.2120 C   0  0  0  0  0  0  0  0  0  0  0  0
   38.1510   21.5880   30.1560 N   0  0  0  0  0  0  0  0  0  0  0  0
   38.2960   20.3650   29.6420 C   0  0  0  0  0  0  0  0  0  0  0  0
   37.6730   19.2770   30.1230 N   0  0  0  0  0  0  0  0  0  0  0  0
   36.8650   19.4590   31.1830 C   0  0  0  0  0  0  0  0  0  0  0  0
   36.2090   18.3720   31.7050 C   0  0  0  0  0  0  0  0  0  0  0  0
   35.3710   18.5140   32.7900 C   0  0  0  0  0  0  0  0  0  0  0  0
   34.9050   17.5970   33.1220 H   0  0  0  0  0  0  0  0  0  0  0  0
   35.2260   19.8010   33.3220 C   0  0  0  0  0  0  0  0  0  0  0  0
   34.5670   19.8650   34.1610 H   0  0  0  0  0  0  0  0  0  0  0  0
   35.9020   20.8340   32.7600 C   0  0  0  0  0  0  0  0  0  0  0  0
   36.7450   20.7390   31.6810 C   0  0  0  0  0  0  0  0  0  0  0  0
  1  3  1  0  0  0  0
  1  4  1  0  0  0  0
  2  1  1  0  0  0  0
  4 13  1  0  0  0  0
  5  4  2  0  0  0  0
  5  6  1  0  0  0  0
  6  7  2  0  0  0  0
  7 16  1  0  0  0  0
  7  8  1  0  0  0  0
  8  9  1  0  0  0  0
  9 17  1  0  0  0  0
  9 10  2  0  0  0  0
 10 18  1  0  0  0  0
 11 19  1  0  0  0  0
 11 10  1  0  0  0  0
 12 11  2  0  0  0  0
 13 12  1  0  0  0  0
 13  8  2  0  0  0  0
 14  5  1  0  0  0  0
 15  6  1  0  0  0  0
 20 12  1  0  0  0  0
 21 26  1  0  0  0  0
 22 21  2  0  0  0  0
 22 23  1  0  0  0  0
 23 24  2  0  0  0  0
 24 25  1  0  0  0  0
 25  1  1  0  0  0  0
 26 25  2  0  0  0  0
 27 21  1  0  0  0  0
 28 22  1  0  0  0  0
 29 40  1  0  0  0  0
 29 23  1  0  0  0  0
 30 29  2  0  0  0  0
 31 32  2  0  0  0  0
 31 30  1  0  0  0  0
 32 33  1  0  0  0  0
 33 40  2  0  0  0  0
 33 34  1  0  0  0  0
 34 35  2  0  0  0  0
 35 36  1  0  0  0  0
 35 37  1  0  0  0  0
 37 38  1  0  0  0  0
 39 37  2  0  0  0  0
 40 39  1  0  0  0  0
M  END
>  <minimizedAffinity>
-6.65007544

>  <minimizedRMSD>
3.8923614

$$$$
