
 OpenBabel03262517583D

 36 39  0  0  1  0  0  0  0  0999 V2000
   37.6960   25.3340   33.9420 N   0  0  0  0  0  0  0  0  0  0  0  0
   37.4050   26.6330   33.9960 N   0  0  0  0  0  0  0  0  0  0  0  0
   36.7520   27.0120   32.8980 C   0  0  0  0  0  0  0  0  0  0  0  0
   36.6140   25.9130   32.0990 C   0  0  0  0  0  0  0  0  0  0  0  0
   37.2160   24.8510   32.7670 C   0  0  0  0  0  0  0  0  0  0  0  0
   36.4130   28.0420   32.7270 H   0  0  0  0  0  0  0  0  0  0  0  0
   36.1200   25.9660   31.1540 H   0  0  0  0  0  0  0  0  0  0  0  0
   40.3980   23.6430   35.7840 C   0  0  0  0  0  0  0  0  0  0  0  0
   39.7340   24.5100   34.9060 C   0  0  0  0  0  0  0  0  0  0  0  0
   38.3670   24.4460   34.8390 C   0  0  0  0  0  0  0  0  0  0  0  0
   37.7150   23.5390   35.6350 N   0  0  0  0  0  0  0  0  0  0  0  0
   38.3730   22.7230   36.4640 C   0  0  0  0  0  0  0  0  0  0  0  0
   39.7180   22.7780   36.5370 N   0  0  0  0  0  0  0  0  0  0  0  0
   41.4680   23.6390   35.8870 H   0  0  0  0  0  0  0  0  0  0  0  0
   37.8320   22.0220   37.0750 H   0  0  0  0  0  0  0  0  0  0  0  0
   40.5470   25.3890   34.1530 N   0  0  0  0  0  0  0  0  0  0  0  0
   41.1040   25.2650   32.9090 C   0  0  0  0  0  0  0  0  0  0  0  0
   41.8030   26.4000   32.6430 N   0  0  0  0  0  0  0  0  0  0  0  0
   41.6750   27.2140   33.7150 C   0  0  0  0  0  0  0  0  0  0  0  0
   40.9020   26.5710   34.6250 N   0  0  0  0  0  0  0  0  0  0  0  0
   40.9530   24.3580   32.3030 H   0  0  0  0  0  0  0  0  0  0  0  0
   42.0950   28.2080   33.8710 H   0  0  0  0  0  0  0  0  0  0  0  0
   37.2710   23.4810   32.1950 C   0  0  2  0  0  0  0  0  0  0  0  0
   37.2320   22.7670   33.0610 H   0  0  0  0  0  0  0  0  0  0  0  0
   38.4660   23.2340   31.3470 C   0  0  0  0  0  0  0  0  0  0  0  0
   38.9400   22.2440   31.5000 H   0  0  0  0  0  0  0  0  0  0  0  0
   39.2530   24.0060   31.5440 H   0  0  0  0  0  0  0  0  0  0  0  0
   38.1810   23.3350   30.2680 H   0  0  0  0  0  0  0  0  0  0  0  0
   35.9540   23.2440   31.4600 C   0  0  0  0  0  0  0  0  0  0  0  0
   36.1790   23.0850   30.4010 H   0  0  0  0  0  0  0  0  0  0  0  0
   35.3120   24.1140   31.6070 H   0  0  0  0  0  0  0  0  0  0  0  0
   35.3930   21.9590   32.0010 C   0  0  0  0  0  0  0  0  0  0  0  0
   35.6130   20.8010   31.0280 C   0  0  0  0  0  0  0  0  0  0  0  0
   35.3480   19.5910   31.8970 C   0  0  0  0  0  0  0  0  0  0  0  0
   35.5730   20.0480   33.3250 C   0  0  0  0  0  0  0  0  0  0  0  0
   36.1570   21.4480   33.2000 C   0  0  0  0  0  0  0  0  0  0  0  0
  1  2  1  0  0  0  0
  1 10  1  0  0  0  0
  3  2  2  0  0  0  0
  4  5  2  0  0  0  0
  4  3  1  0  0  0  0
  5  1  1  0  0  0  0
  6  3  1  0  0  0  0
  7  4  1  0  0  0  0
  8 14  1  0  0  0  0
  8 13  1  0  0  0  0
  9  8  2  0  0  0  0
 10  9  1  0  0  0  0
 10 11  2  0  0  0  0
 11 12  1  0  0  0  0
 12 13  2  0  0  0  0
 12 15  1  0  0  0  0
 16 20  1  0  0  0  0
 16  9  1  0  0  0  0
 17 16  1  0  0  0  0
 18 17  2  0  0  0  0
 18 19  1  0  0  0  0
 19 22  1  0  0  0  0
 19 20  2  0  0  0  0
 21 17  1  0  0  0  0
 23  5  1  0  0  0  0
 23 24  1  1  0  0  0
 25 26  1  0  0  0  0
 25 27  1  0  0  0  0
 25 23  1  0  0  0  0
 28 25  1  0  0  0  0
 29 31  1  0  0  0  0
 29 32  1  0  0  0  0
 29 23  1  0  0  0  0
 30 29  1  0  0  0  0
 32 36  1  0  0  0  0
 33 34  1  0  0  0  0
 33 32  1  0  0  0  0
 34 35  1  0  0  0  0
 36 35  1  0  0  0  0
M  END
>  <minimizedAffinity>
-5.00118256

>  <minimizedRMSD>
4.700562

$$$$
