
 OpenBabel03262518163D

 44 48  0  0  1  0  0  0  0  0999 V2000
   40.4660   22.3820   33.2240 C   0  0  1  0  0  0  0  0  0  0  0  0
   40.5990   20.9280   32.7790 C   0  0  0  0  0  0  0  0  0  0  0  0
   39.7260   20.5550   31.6280 C   0  0  0  0  0  0  0  0  0  0  0  0
   38.3940   21.2280   31.6930 C   0  0  0  0  0  0  0  0  0  0  0  0
   38.0850   21.6670   33.0970 C   0  0  0  0  0  0  0  0  0  0  0  0
   39.0650   22.7940   33.4430 C   0  0  1  0  0  0  0  0  0  0  0  0
   40.9650   22.9820   32.4190 H   0  0  0  0  0  0  0  0  0  0  0  0
   41.6790   20.8130   32.5010 H   0  0  0  0  0  0  0  0  0  0  0  0
   40.3510   20.2950   33.6470 H   0  0  0  0  0  0  0  0  0  0  0  0
   39.5940   19.4650   31.6290 H   0  0  0  0  0  0  0  0  0  0  0  0
   40.2630   20.8180   30.6950 H   0  0  0  0  0  0  0  0  0  0  0  0
   38.4180   22.1390   31.0610 H   0  0  0  0  0  0  0  0  0  0  0  0
   37.5580   20.5800   31.3570 H   0  0  0  0  0  0  0  0  0  0  0  0
   38.3330   20.8320   33.7820 H   0  0  0  0  0  0  0  0  0  0  0  0
   37.0590   21.9950   33.2510 H   0  0  0  0  0  0  0  0  0  0  0  0
   38.8310   23.5220   32.5880 H   0  0  0  0  0  0  0  0  0  0  0  0
   38.6400   23.3230   34.7260 C   0  0  0  0  0  0  0  0  0  0  0  0
   38.1280   22.5910   35.7230 N   0  0  0  0  0  0  0  0  0  0  0  0
   37.6870   23.0640   36.8920 C   0  0  0  0  0  0  0  0  0  0  0  0
   37.7110   24.3720   37.2070 N   0  0  0  0  0  0  0  0  0  0  0  0
   38.2150   25.1910   36.2570 C   0  0  0  0  0  0  0  0  0  0  0  0
   38.2400   26.5300   36.5870 C   0  0  0  0  0  0  0  0  0  0  0  0
   38.7410   27.4380   35.6790 C   0  0  0  0  0  0  0  0  0  0  0  0
   38.7530   28.4720   35.9520 H   0  0  0  0  0  0  0  0  0  0  0  0
   39.2060   26.9480   34.4510 C   0  0  0  0  0  0  0  0  0  0  0  0
   39.5790   27.7150   33.8030 H   0  0  0  0  0  0  0  0  0  0  0  0
   39.1470   25.6070   34.1970 C   0  0  0  0  0  0  0  0  0  0  0  0
   38.6580   24.6610   35.0640 C   0  0  0  0  0  0  0  0  0  0  0  0
   41.6540   21.5690   36.5660 C   0  0  0  0  0  0  0  0  0  0  0  0
   42.5760   22.5780   36.8360 C   0  0  0  0  0  0  0  0  0  0  0  0
   42.7920   23.5480   35.8760 C   0  0  0  0  0  0  0  0  0  0  0  0
   42.0780   23.4470   34.7190 N   0  0  0  0  0  0  0  0  0  0  0  0
   41.2100   22.4780   34.4900 C   0  0  0  0  0  0  0  0  0  0  0  0
   40.9960   21.5450   35.3990 N   0  0  0  0  0  0  0  0  0  0  0  0
   41.4680   20.7960   37.3060 H   0  0  0  0  0  0  0  0  0  0  0  0
   43.0840   22.5540   37.7930 H   0  0  0  0  0  0  0  0  0  0  0  0
   43.7690   24.5920   36.1570 C   0  0  0  0  0  0  0  0  0  0  0  0
   44.2140   25.5200   35.2170 C   0  0  0  0  0  0  0  0  0  0  0  0
   45.1160   26.3100   35.8570 N   0  0  0  0  0  0  0  0  0  0  0  0
   45.1910   25.8620   37.1180 C   0  0  0  0  0  0  0  0  0  0  0  0
   44.4010   24.8420   37.3260 N   0  0  0  0  0  0  0  0  0  0  0  0
   43.8950   25.5820   34.1830 H   0  0  0  0  0  0  0  0  0  0  0  0
   45.7970   26.2200   37.9600 H   0  0  0  0  0  0  0  0  0  0  0  0
   44.2050   24.2480   38.1790 H   0  0  0  0  0  0  0  0  0  0  0  0
  1  7  1  6  0  0  0
  1  6  1  0  0  0  0
  1 33  1  0  0  0  0
  2  1  1  0  0  0  0
  2  9  1  0  0  0  0
  3 10  1  0  0  0  0
  3  4  1  0  0  0  0
  3  2  1  0  0  0  0
  4  5  1  0  0  0  0
  5 15  1  0  0  0  0
  5  6  1  0  0  0  0
  5 14  1  0  0  0  0
  6 16  1  6  0  0  0
  6 17  1  0  0  0  0
  8  2  1  0  0  0  0
 11  3  1  0  0  0  0
 12  4  1  0  0  0  0
 13  4  1  0  0  0  0
 17 28  2  0  0  0  0
 17 18  1  0  0  0  0
 18 19  2  0  0  0  0
 19 20  1  0  0  0  0
 21 22  1  0  0  0  0
 21 20  2  0  0  0  0
 23 24  1  0  0  0  0
 23 22  2  0  0  0  0
 25 23  1  0  0  0  0
 26 25  1  0  0  0  0
 27 25  2  0  0  0  0
 27 28  1  0  0  0  0
 28 21  1  0  0  0  0
 29 30  1  0  0  0  0
 29 35  1  0  0  0  0
 30 36  1  0  0  0  0
 31 37  1  0  0  0  0
 31 30  2  0  0  0  0
 32 31  1  0  0  0  0
 33 32  2  0  0  0  0
 33 34  1  0  0  0  0
 34 29  2  0  0  0  0
 37 41  1  0  0  0  0
 38 39  1  0  0  0  0
 38 37  2  0  0  0  0
 39 40  2  0  0  0  0
 40 41  1  0  0  0  0
 40 43  1  0  0  0  0
 41 44  1  0  0  0  0
 42 38  1  0  0  0  0
M  END
>  <minimizedAffinity>
-5.49048758

>  <minimizedRMSD>
4.83608198

$$$$
