
 OpenBabel03262519573D

 35 39  0  0  1  0  0  0  0  0999 V2000
   37.3810   21.6760   33.8360 C   0  0  1  0  0  0  0  0  0  0  0  0
   36.2050   21.2080   34.5370 C   0  0  0  0  0  0  0  0  0  0  0  0
   36.1530   21.2760   33.0130 C   0  0  2  0  0  0  0  0  0  0  0  0
   38.2560   20.9970   33.7390 H   0  0  0  0  0  0  0  0  0  0  0  0
   35.5630   21.9410   35.0310 H   0  0  0  0  0  0  0  0  0  0  0  0
   36.2440   20.2190   35.0500 H   0  0  0  0  0  0  0  0  0  0  0  0
   35.5370   22.0490   32.5400 H   0  0  0  0  0  0  0  0  0  0  0  0
   36.1820   19.9230   32.4040 C   0  0  0  0  0  0  0  0  0  0  0  0
   35.4460   19.0430   33.1450 N   0  0  0  0  0  0  0  0  0  0  0  0
   35.3260   17.7560   32.7030 C   0  0  0  0  0  3  0  0  0  0  0  0
   35.9110   17.3170   31.5510 N   0  0  0  0  0  0  0  0  0  0  0  0
   36.6370   18.1830   30.8220 C   0  0  0  0  0  0  0  0  0  0  0  0
   37.2870   17.8610   29.6480 C   0  0  0  0  0  3  0  0  0  0  0  0
   38.0240   18.8090   28.9650 C   0  0  0  0  0  0  0  0  0  0  0  0
   38.5350   18.5450   28.0360 H   0  0  0  0  0  0  0  0  0  0  0  0
   38.1490   20.1260   29.4180 C   0  0  0  0  0  0  0  0  0  0  0  0
   38.7400   20.8110   28.8340 H   0  0  0  0  0  0  0  0  0  0  0  0
   37.4970   20.4450   30.5920 C   0  0  0  0  0  3  0  0  0  0  0  0
   36.7750   19.4870   31.2430 C   0  0  0  0  0  0  0  0  0  0  0  0
   38.1770   23.9680   34.5200 C   0  0  0  0  0  0  0  0  0  0  0  0
   38.3550   25.2080   33.9180 C   0  0  0  0  0  0  0  0  0  0  0  0
   37.9650   25.0070   32.6360 N   0  0  0  0  0  0  0  0  0  0  0  0
   37.5930   23.7420   32.5140 C   0  0  0  0  0  0  0  0  0  0  0  0
   37.7130   23.0650   33.6690 N   0  0  0  0  0  0  0  0  0  0  0  0
   38.7190   26.1010   34.3930 H   0  0  0  0  0  0  0  0  0  0  0  0
   37.2470   23.4060   31.5380 H   0  0  0  0  0  0  0  0  0  0  0  0
   38.4650   23.6760   35.9210 C   0  0  0  0  0  0  0  0  0  0  0  0
   39.6720   23.0690   36.2860 C   0  0  0  0  0  0  0  0  0  0  0  0
   39.9210   22.8010   37.6380 C   0  0  0  0  0  0  0  0  0  0  0  0
   38.9700   23.1500   38.5170 N   0  0  0  0  0  0  0  0  0  0  0  0
   37.8060   23.7370   38.1520 C   0  0  0  0  0  0  0  0  0  0  0  0
   37.5530   24.0000   36.8600 N   0  0  0  0  0  0  0  0  0  0  0  0
   40.4170   22.8000   35.5500 H   0  0  0  0  0  0  0  0  0  0  0  0
   40.8510   22.3280   37.9630 H   0  0  0  0  0  0  0  0  0  0  0  0
   37.0650   24.0030   38.8910 H   0  0  0  0  0  0  0  0  0  0  0  0
  1  4  1  6  0  0  0
  1  2  1  0  0  0  0
  2  5  1  0  0  0  0
  2  6  1  0  0  0  0
  3  7  1  6  0  0  0
  3  1  1  0  0  0  0
  3  2  1  0  0  0  0
  8  3  1  0  0  0  0
  8  9  1  0  0  0  0
 10  9  2  0  0  0  0
 11 10  1  0  0  0  0
 12 19  1  0  0  0  0
 12 11  2  0  0  0  0
 13 12  1  0  0  0  0
 14 16  1  0  0  0  0
 14 13  2  0  0  0  0
 15 14  1  0  0  0  0
 16 18  2  0  0  0  0
 17 16  1  0  0  0  0
 18 19  1  0  0  0  0
 19  8  2  0  0  0  0
 20 27  1  0  0  0  0
 21 25  1  0  0  0  0
 21 20  2  0  0  0  0
 22 21  1  0  0  0  0
 23 22  2  0  0  0  0
 23 24  1  0  0  0  0
 24  1  1  0  0  0  0
 24 20  1  0  0  0  0
 26 23  1  0  0  0  0
 27 28  2  0  0  0  0
 27 32  1  0  0  0  0
 28 29  1  0  0  0  0
 29 34  1  0  0  0  0
 29 30  2  0  0  0  0
 31 30  1  0  0  0  0
 31 35  1  0  0  0  0
 32 31  2  0  0  0  0
 33 28  1  0  0  0  0
M  END
>  <minimizedAffinity>
-5.35473728

>  <minimizedRMSD>
1.67040479

$$$$
