
 OpenBabel03262517043D

 38 42  0  0  0  0  0  0  0  0999 V2000
   39.1550   24.1960   35.1370 C   0  0  0  0  0  0  0  0  0  0  0  0
   40.0740   25.2130   34.9170 C   0  0  0  0  0  0  0  0  0  0  0  0
   40.3090   25.6790   33.6430 C   0  0  0  0  0  0  0  0  0  0  0  0
   39.6320   25.1380   32.5600 C   0  0  0  0  0  0  0  0  0  0  0  0
   38.7250   24.1290   32.8060 C   0  0  0  0  0  0  0  0  0  0  0  0
   38.4740   23.6490   34.0690 C   0  0  0  0  0  0  0  0  0  0  0  0
   40.6490   25.6930   35.7080 H   0  0  0  0  0  0  0  0  0  0  0  0
   41.0360   26.4840   33.4610 H   0  0  0  0  0  0  0  0  0  0  0  0
   39.8560   25.5410   31.5910 H   0  0  0  0  0  0  0  0  0  0  0  0
   38.1820   23.6920   31.9630 H   0  0  0  0  0  0  0  0  0  0  0  0
   37.5190   22.5810   34.3490 C   0  0  0  0  0  0  0  0  0  0  0  0
   37.2890   22.3000   35.6580 N   0  0  0  0  0  0  0  0  0  0  0  0
   36.4330   21.3380   36.0380 C   0  0  0  0  0  0  0  0  0  0  0  0
   35.7650   20.6080   35.1020 N   0  0  0  0  0  0  0  0  0  0  0  0
   35.9650   20.8560   33.8010 C   0  0  0  0  0  0  0  0  0  0  0  0
   35.3240   20.1600   32.7900 C   0  0  0  0  0  0  0  0  0  0  0  0
   35.5360   20.4200   31.4380 C   0  0  0  0  0  0  0  0  0  0  0  0
   34.9910   19.8260   30.7220 H   0  0  0  0  0  0  0  0  0  0  0  0
   36.4380   21.4340   31.1120 C   0  0  0  0  0  0  0  0  0  0  0  0
   36.5670   21.5970   30.0430 H   0  0  0  0  0  0  0  0  0  0  0  0
   37.1070   22.1620   32.0720 C   0  0  0  0  0  0  0  0  0  0  0  0
   36.8380   21.8380   33.3760 C   0  0  0  0  0  0  0  0  0  0  0  0
   39.6820   22.8540   37.2540 C   0  0  0  0  0  0  0  0  0  0  0  0
   38.9960   23.7940   36.5200 C   0  0  0  0  0  0  0  0  0  0  0  0
   38.0810   24.3080   37.3900 N   0  0  0  0  0  0  0  0  0  0  0  0
   38.2320   23.6950   38.5730 C   0  0  0  0  0  0  0  0  0  0  0  0
   39.2060   22.7980   38.5210 N   0  0  0  0  0  0  0  0  0  0  0  0
   37.6600   23.8650   39.4990 H   0  0  0  0  0  0  0  0  0  0  0  0
   39.5720   22.1560   39.2650 H   0  0  0  0  0  0  0  0  0  0  0  0
   42.6230   20.5750   37.0480 C   0  0  0  0  0  0  0  0  0  0  0  0
   41.5980   21.3390   37.6120 C   0  0  0  0  0  0  0  0  0  0  0  0
   40.7790   22.0310   36.7240 C   0  0  0  0  0  0  0  0  0  0  0  0
   41.0170   21.9270   35.3630 N   0  0  0  0  0  0  0  0  0  0  0  0
   42.0350   21.1600   34.8950 C   0  0  0  0  0  0  0  0  0  0  0  0
   42.8300   20.4920   35.7250 N   0  0  0  0  0  0  0  0  0  0  0  0
   43.2170   20.0660   37.8040 H   0  0  0  0  0  0  0  0  0  0  0  0
   41.4200   21.4160   38.6690 H   0  0  0  0  0  0  0  0  0  0  0  0
   42.1430   21.1400   33.8180 H   0  0  0  0  0  0  0  0  0  0  0  0
  1 24  1  0  0  0  0
  2  1  1  0  0  0  0
  2  7  1  0  0  0  0
  3  2  2  0  0  0  0
  4  5  2  0  0  0  0
  4  3  1  0  0  0  0
  5  6  1  0  0  0  0
  6 11  1  0  0  0  0
  6  1  2  0  0  0  0
  8  3  1  0  0  0  0
  9  4  1  0  0  0  0
 10  5  1  0  0  0  0
 11 12  1  0  0  0  0
 12 13  2  0  0  0  0
 14 13  1  0  0  0  0
 15 14  2  0  0  0  0
 16 15  1  0  0  0  0
 17 16  2  0  0  0  0
 18 17  1  0  0  0  0
 19 17  1  0  0  0  0
 19 21  2  0  0  0  0
 20 19  1  0  0  0  0
 21 22  1  0  0  0  0
 22 15  1  0  0  0  0
 22 11  2  0  0  0  0
 23 27  1  0  0  0  0
 24 23  2  0  0  0  0
 24 25  1  0  0  0  0
 25 26  2  0  0  0  0
 26 28  1  0  0  0  0
 27 26  1  0  0  0  0
 27 29  1  0  0  0  0
 30 31  1  0  0  0  0
 30 36  1  0  0  0  0
 31 37  1  0  0  0  0
 32 23  1  0  0  0  0
 32 31  2  0  0  0  0
 33 32  1  0  0  0  0
 34 33  2  0  0  0  0
 34 35  1  0  0  0  0
 35 30  2  0  0  0  0
 38 34  1  0  0  0  0
M  END
>  <minimizedAffinity>
-6.57970572

>  <minimizedRMSD>
0.727372289

$$$$
