
 OpenBabel03262518403D

 48 51  0  0  0  0  0  0  0  0999 V2000
   37.1290   26.7380   34.3420 C   0  0  0  0  0  0  0  0  0  0  0  0
   37.1840   25.8380   33.2930 C   0  0  0  0  0  0  0  0  0  0  0  0
   36.5450   26.1790   32.0880 C   0  0  0  0  0  0  0  0  0  0  0  0
   35.9170   27.3720   32.0360 N   0  0  0  0  0  0  0  0  0  0  0  0
   35.8760   28.2300   33.0620 C   0  0  0  0  0  0  0  0  0  0  0  0
   36.4860   27.9270   34.2450 N   0  0  0  0  0  0  0  0  0  0  0  0
   37.7010   24.8810   33.3690 H   0  0  0  0  0  0  0  0  0  0  0  0
   36.5650   25.5010   31.2420 H   0  0  0  0  0  0  0  0  0  0  0  0
   37.8000   26.3770   35.6030 C   0  0  0  0  0  0  0  0  0  0  0  0
   38.6820   27.1410   36.0660 O   0  0  0  0  0  0  0  0  0  0  0  0
   37.4350   25.2040   36.2400 O   0  0  0  0  0  0  0  0  0  0  0  0
   39.3520   22.9130   38.1320 N   0  0  0  0  0  0  0  0  0  0  0  0
   38.2970   23.7120   37.9190 N   0  0  0  0  0  0  0  0  0  0  0  0
   38.4350   24.3070   36.6920 C   0  0  0  0  0  0  0  0  0  0  0  0
   39.5900   23.8740   36.1330 C   0  0  0  0  0  0  0  0  0  0  0  0
   40.1360   23.0120   37.0460 C   0  0  0  0  0  0  0  0  0  0  0  0
   39.5770   22.3140   38.9460 H   0  0  0  0  0  0  0  0  0  0  0  0
   39.9320   24.1960   35.1600 H   0  0  0  0  0  0  0  0  0  0  0  0
   41.4240   22.2940   36.8460 C   0  0  0  0  0  0  0  0  0  0  0  0
   42.4630   22.9220   36.2020 C   0  0  0  0  0  0  0  0  0  0  0  0
   43.6130   22.1850   36.0600 C   0  0  0  0  0  0  0  0  0  0  0  0
   43.7830   20.9060   36.5050 N   0  0  0  0  0  0  0  0  0  0  0  0
   42.7220   20.3370   37.1340 C   0  0  0  0  0  0  0  0  0  0  0  0
   41.5870   21.0300   37.2870 N   0  0  0  0  0  0  0  0  0  0  0  0
   42.3970   23.9330   35.8250 H   0  0  0  0  0  0  0  0  0  0  0  0
   44.4730   22.6160   35.5640 H   0  0  0  0  0  0  0  0  0  0  0  0
   42.8670   19.3250   37.4820 H   0  0  0  0  0  0  0  0  0  0  0  0
   35.1590   29.5200   32.9080 C   0  0  0  0  0  0  0  0  0  0  0  0
   35.8350   30.5230   33.8030 C   0  0  0  0  0  0  0  0  0  0  0  0
   35.4840   30.3030   34.8440 H   0  0  0  0  0  0  0  0  0  0  0  0
   35.5620   31.5740   33.5930 H   0  0  0  0  0  0  0  0  0  0  0  0
   36.9330   30.4170   33.8370 H   0  0  0  0  0  0  0  0  0  0  0  0
   33.7380   29.3060   33.3560 C   0  0  0  0  0  0  0  0  0  0  0  0
   33.2310   30.2320   33.6600 H   0  0  0  0  0  0  0  0  0  0  0  0
   33.1640   28.8410   32.5300 H   0  0  0  0  0  0  0  0  0  0  0  0
   33.6950   28.5540   34.1890 H   0  0  0  0  0  0  0  0  0  0  0  0
   35.1960   29.9890   31.4550 C   0  0  0  0  0  0  0  0  0  0  0  0
   34.4680   30.8130   31.3250 H   0  0  0  0  0  0  0  0  0  0  0  0
   34.9610   29.1420   30.7860 H   0  0  0  0  0  0  0  0  0  0  0  0
   36.4910   30.4130   31.2050 O   0  0  0  0  0  0  0  0  0  0  0  0
   37.2520   30.2390   30.0820 C   0  0  0  0  0  0  0  0  0  0  0  0
   37.9330   31.4070   29.7190 C   0  0  0  0  0  0  0  0  0  0  0  0
   38.7580   31.4020   28.5890 C   0  0  0  0  0  0  0  0  0  0  0  0
   39.3040   32.3060   28.2820 H   0  0  0  0  0  0  0  0  0  0  0  0
   38.9000   30.2550   27.8380 C   0  0  0  0  0  0  0  0  0  0  0  0
   38.2160   29.1250   28.2220 C   0  0  0  0  0  0  0  0  0  0  0  0
   38.3170   28.2240   27.6460 H   0  0  0  0  0  0  0  0  0  0  0  0
   37.3840   29.0850   29.3400 C   0  0  0  0  0  0  0  0  0  0  0  0
  1  9  1  0  0  0  0
  2  7  1  0  0  0  0
  2  1  2  0  0  0  0
  3  2  1  0  0  0  0
  4  3  2  0  0  0  0
  4  5  1  0  0  0  0
  5  6  2  0  0  0  0
  6  1  1  0  0  0  0
  8  3  1  0  0  0  0
  9 10  2  0  0  0  0
  9 11  1  0  0  0  0
 11 14  1  0  0  0  0
 12 17  1  0  0  0  0
 13 12  1  0  0  0  0
 14 13  2  0  0  0  0
 15 14  1  0  0  0  0
 15 16  2  0  0  0  0
 16 12  1  0  0  0  0
 18 15  1  0  0  0  0
 19 16  1  0  0  0  0
 19 24  1  0  0  0  0
 20 19  2  0  0  0  0
 21 20  1  0  0  0  0
 21 22  2  0  0  0  0
 22 23  1  0  0  0  0
 23 24  2  0  0  0  0
 23 27  1  0  0  0  0
 25 20  1  0  0  0  0
 26 21  1  0  0  0  0
 28  5  1  0  0  0  0
 28 33  1  0  0  0  0
 28 29  1  0  0  0  0
 29 32  1  0  0  0  0
 29 30  1  0  0  0  0
 31 29  1  0  0  0  0
 33 34  1  0  0  0  0
 33 36  1  0  0  0  0
 35 33  1  0  0  0  0
 37 28  1  0  0  0  0
 38 37  1  0  0  0  0
 39 37  1  0  0  0  0
 40 37  1  0  0  0  0
 41 40  1  0  0  0  0
 42 41  1  0  0  0  0
 43 42  2  0  0  0  0
 44 43  1  0  0  0  0
 45 46  2  0  0  0  0
 45 43  1  0  0  0  0
 46 48  1  0  0  0  0
 47 46  1  0  0  0  0
 48 41  2  0  0  0  0
M  END
>  <minimizedAffinity>
-5.73401833

>  <minimizedRMSD>
0.597071946

$$$$
