
 OpenBabel03262518463D

 41 45  0  0  1  0  0  0  0  0999 V2000
   40.4140   26.8260   32.4750 C   0  0  0  0  0  0  0  0  0  0  0  0
   39.8440   27.3740   33.5550 N   0  0  0  0  0  0  0  0  0  0  0  0
   40.2080   26.7270   34.6190 O   0  0  0  0  0  0  0  0  0  0  0  0
   41.0320   25.7440   34.1900 C   0  0  0  0  0  0  0  0  0  0  0  0
   41.1940   25.7600   32.8670 N   0  0  0  0  0  0  0  0  0  0  0  0
   36.8220   24.1100   31.0380 C   0  0  0  0  0  0  0  0  0  0  0  0
   35.6640   24.8740   31.3490 C   0  0  0  0  0  0  0  0  0  0  0  0
   35.7470   26.2490   31.3290 C   0  0  0  0  0  0  0  0  0  0  0  0
   36.9590   26.7960   31.0050 N   0  0  0  0  0  0  0  0  0  0  0  0
   38.0390   26.0290   30.7140 C   0  0  0  0  0  0  0  0  0  0  0  0
   37.9830   24.7130   30.7270 N   0  0  0  0  0  0  0  0  0  0  0  0
   39.2370   26.7430   30.3940 N   0  0  0  0  0  0  0  0  0  0  0  0
   39.3200   27.1110   29.1440 N   0  0  0  0  0  0  0  0  0  0  0  0
   40.4840   27.7740   28.9590 C   0  0  0  0  0  0  0  0  0  0  0  0
   41.1430   27.8140   30.1470 C   0  0  0  0  0  0  0  0  0  0  0  0
   40.3410   27.1550   31.0570 C   0  0  0  0  0  0  0  0  0  0  0  0
   36.7400   22.6860   31.0580 N   0  0  0  0  0  0  0  0  0  0  0  0
   34.7280   24.4100   31.6000 H   0  0  0  0  0  0  0  0  0  0  0  0
   34.9170   26.9060   31.5520 H   0  0  0  0  0  0  0  0  0  0  0  0
   40.8840   28.2180   28.0590 H   0  0  0  0  0  0  0  0  0  0  0  0
   42.0860   28.2220   30.4880 H   0  0  0  0  0  0  0  0  0  0  0  0
   36.6240   22.4450   32.0810 H   0  0  0  0  0  0  0  0  0  0  0  0
   36.7820   22.0330   30.2500 H   0  0  0  0  0  0  0  0  0  0  0  0
   41.6880   24.7500   35.1030 C   0  0  2  0  0  0  0  0  0  0  0  0
   42.4900   23.6270   34.4900 C   0  0  0  0  0  0  0  0  0  0  0  0
   41.1790   23.3690   35.2120 C   0  0  1  0  0  0  0  0  0  0  0  0
   42.1650   25.1980   35.9930 H   0  0  0  0  0  0  0  0  0  0  0  0
   42.4430   23.5610   33.3850 H   0  0  0  0  0  0  0  0  0  0  0  0
   43.4290   23.3110   34.9860 H   0  0  0  0  0  0  0  0  0  0  0  0
   40.2870   23.1450   34.5610 H   0  0  0  0  0  0  0  0  0  0  0  0
   41.2910   22.5600   36.4470 C   0  0  0  0  0  0  0  0  0  0  0  0
   42.0520   22.9750   37.1490 H   0  0  0  0  0  0  0  0  0  0  0  0
   41.6530   21.5370   36.2130 H   0  0  0  0  0  0  0  0  0  0  0  0
   39.9820   22.4320   37.1990 C   0  0  0  0  0  0  0  0  0  0  0  0
   40.2540   22.1240   38.2360 H   0  0  0  0  0  0  0  0  0  0  0  0
   39.3380   21.6490   36.7770 H   0  0  0  0  0  0  0  0  0  0  0  0
   39.2370   23.7200   37.3030 C   0  0  0  0  0  0  0  0  0  0  0  0
   38.0280   23.7760   36.4240 C   0  0  0  0  0  0  0  0  0  0  0  0
   37.1510   22.6800   37.0200 C   0  0  0  0  0  0  0  0  0  0  0  0
   37.4040   22.7790   38.5090 C   0  0  0  0  0  0  0  0  0  0  0  0
   38.5820   23.7240   38.6900 C   0  0  0  0  0  0  0  0  0  0  0  0
  1  5  1  0  0  0  0
  1  2  2  0  0  0  0
  2  3  1  0  0  0  0
  4  3  1  0  0  0  0
  4 24  1  0  0  0  0
  5  4  2  0  0  0  0
  6 17  1  0  0  0  0
  6  7  1  0  0  0  0
  7 18  1  0  0  0  0
  8  7  2  0  0  0  0
  8 19  1  0  0  0  0
  9  8  1  0  0  0  0
 10 11  1  0  0  0  0
 10  9  2  0  0  0  0
 11  6  2  0  0  0  0
 12 10  1  0  0  0  0
 12 16  1  0  0  0  0
 13 12  1  0  0  0  0
 14 13  2  0  0  0  0
 14 15  1  0  0  0  0
 15 21  1  0  0  0  0
 15 16  2  0  0  0  0
 16  1  1  0  0  0  0
 17 22  1  0  0  0  0
 20 14  1  0  0  0  0
 23 17  1  0  0  0  0
 24 26  1  0  0  0  0
 24 27  1  1  0  0  0
 25 29  1  0  0  0  0
 25 24  1  0  0  0  0
 25 26  1  0  0  0  0
 26 30  1  6  0  0  0
 26 31  1  0  0  0  0
 28 25  1  0  0  0  0
 31 32  1  0  0  0  0
 31 34  1  0  0  0  0
 33 31  1  0  0  0  0
 34 37  1  0  0  0  0
 34 35  1  0  0  0  0
 36 34  1  0  0  0  0
 37 41  1  0  0  0  0
 38 39  1  0  0  0  0
 38 37  1  0  0  0  0
 39 40  1  0  0  0  0
 40 41  1  0  0  0  0
M  END
>  <minimizedAffinity>
-4.89845943

>  <minimizedRMSD>
2.27922153

$$$$
