
 OpenBabel03262520003D

 38 42  0  0  1  0  0  0  0  0999 V2000
   39.1340   25.3750   35.7050 C   0  0  1  0  0  0  0  0  0  0  0  0
   38.4670   24.4180   36.5490 C   0  0  0  0  0  0  0  0  0  0  0  0
   39.3510   23.9090   35.3800 C   0  0  1  0  0  0  0  0  0  0  0  0
   40.0540   25.8850   36.1330 H   0  0  0  0  0  0  0  0  0  0  0  0
   38.8740   24.2370   37.5640 H   0  0  0  0  0  0  0  0  0  0  0  0
   37.3890   24.2620   36.5060 H   0  0  0  0  0  0  0  0  0  0  0  0
   38.4610   23.1800   34.4120 C   0  0  0  0  0  0  0  0  0  0  0  0
   38.8330   23.5160   33.1220 N   0  0  0  0  0  0  0  0  0  0  0  0
   38.3400   23.0110   32.0160 C   0  0  0  0  0  3  0  0  0  0  0  0
   37.3810   22.0750   32.0320 N   0  0  0  0  0  0  0  0  0  0  0  0
   36.9420   21.6780   33.2300 C   0  0  0  0  0  0  0  0  0  0  0  0
   35.9490   20.7580   33.4820 C   0  0  0  0  0  3  0  0  0  0  0  0
   35.5120   20.4100   34.7520 C   0  0  0  0  0  0  0  0  0  0  0  0
   34.7270   19.6750   34.7860 H   0  0  0  0  0  0  0  0  0  0  0  0
   36.1040   21.0190   35.8730 C   0  0  0  0  0  0  0  0  0  0  0  0
   35.7260   20.7120   36.8320 H   0  0  0  0  0  0  0  0  0  0  0  0
   37.0950   21.9320   35.6100 C   0  0  0  0  0  3  0  0  0  0  0  0
   37.4910   22.2380   34.3430 C   0  0  0  0  0  0  0  0  0  0  0  0
   39.0160   26.7280   33.5990 C   0  0  0  0  0  0  0  0  0  0  0  0
   38.0180   27.3730   32.8710 C   0  0  0  0  0  0  0  0  0  0  0  0
   36.8860   27.1250   33.5890 N   0  0  0  0  0  0  0  0  0  0  0  0
   37.2200   26.3940   34.6410 C   0  0  0  0  0  0  0  0  0  0  0  0
   38.5350   26.1320   34.6760 N   0  0  0  0  0  0  0  0  0  0  0  0
   38.1140   27.9420   31.9500 H   0  0  0  0  0  0  0  0  0  0  0  0
   36.4500   26.0800   35.3560 H   0  0  0  0  0  0  0  0  0  0  0  0
   40.4180   26.6920   33.2190 C   0  0  0  0  0  0  0  0  0  0  0  0
   40.7830   26.1940   31.9470 C   0  0  0  0  0  0  0  0  0  0  0  0
   42.1540   26.1800   31.6130 C   0  0  0  0  0  0  0  0  0  0  0  0
   43.0280   26.6490   32.5410 N   0  0  0  0  0  0  0  0  0  0  0  0
   42.6380   27.1180   33.7480 C   0  0  0  0  0  0  0  0  0  0  0  0
   41.3430   27.1450   34.0960 N   0  0  0  0  0  0  0  0  0  0  0  0
   40.0500   25.8310   31.2420 H   0  0  0  0  0  0  0  0  0  0  0  0
   42.5020   25.8130   30.6590 H   0  0  0  0  0  0  0  0  0  0  0  0
   43.4560   27.4530   34.3700 H   0  0  0  0  0  0  0  0  0  0  0  0
   40.6180   23.2850   35.8750 C   0  0  0  0  0  0  0  0  0  0  0  0
   41.0840   22.2960   35.0640 F   0  0  0  0  0  0  0  0  0  0  0  0
   41.7200   24.3030   35.6650 F   0  0  0  0  0  0  0  0  0  0  0  0
   40.7400   23.1150   37.1980 F   0  0  0  0  0  0  0  0  0  0  0  0
  1  4  1  1  0  0  0
  1  2  1  0  0  0  0
  2  5  1  0  0  0  0
  3  1  1  0  0  0  0
  3 35  1  1  0  0  0
  3  2  1  0  0  0  0
  6  2  1  0  0  0  0
  7  3  1  0  0  0  0
  8  7  2  0  0  0  0
  9 10  2  0  0  0  0
  9  8  1  0  0  0  0
 10 11  1  0  0  0  0
 11 12  2  0  0  0  0
 11 18  1  0  0  0  0
 12 13  1  0  0  0  0
 13 14  1  0  0  0  0
 13 15  2  0  0  0  0
 15 16  1  0  0  0  0
 17 15  1  0  0  0  0
 18  7  1  0  0  0  0
 18 17  2  0  0  0  0
 19 23  1  0  0  0  0
 20 21  1  0  0  0  0
 20 19  2  0  0  0  0
 21 22  2  0  0  0  0
 22 23  1  0  0  0  0
 22 25  1  0  0  0  0
 23  1  1  0  0  0  0
 24 20  1  0  0  0  0
 26 19  1  0  0  0  0
 26 31  1  0  0  0  0
 27 26  2  0  0  0  0
 28 27  1  0  0  0  0
 28 29  2  0  0  0  0
 29 30  1  0  0  0  0
 30 31  2  0  0  0  0
 30 34  1  0  0  0  0
 32 27  1  0  0  0  0
 33 28  1  0  0  0  0
 35 38  1  0  0  0  0
 36 35  1  0  0  0  0
 37 35  1  0  0  0  0
M  END
>  <minimizedAffinity>
-5.33224964

>  <minimizedRMSD>
4.51315355

$$$$
