
 OpenBabel03262515413D

 43 47  0  0  0  0  0  0  0  0999 V2000
   38.1050   25.4130   34.9750 C   0  0  0  0  0  0  0  0  0  0  0  0
   37.4960   24.8440   34.2610 H   0  0  0  0  0  0  0  0  0  0  0  0
   39.1020   25.6240   34.4910 H   0  0  0  0  0  0  0  0  0  0  0  0
   38.0580   24.1060   38.4620 C   0  0  0  0  0  0  0  0  0  0  0  0
   39.0590   23.1470   38.4120 C   0  0  0  0  0  0  0  0  0  0  0  0
   39.7330   22.9600   37.1970 C   0  0  0  0  0  0  0  0  0  0  0  0
   39.3750   23.7200   36.1380 N   0  0  0  0  0  0  0  0  0  0  0  0
   38.3800   24.6600   36.2230 C   0  0  0  0  0  0  0  0  0  0  0  0
   37.7310   24.8500   37.3700 N   0  0  0  0  0  0  0  0  0  0  0  0
   37.5360   24.2520   39.4020 H   0  0  0  0  0  0  0  0  0  0  0  0
   39.3450   22.5380   39.2600 H   0  0  0  0  0  0  0  0  0  0  0  0
   40.7860   21.9510   37.1410 C   0  0  0  0  0  0  0  0  0  0  0  0
   40.5140   21.2420   36.3160 H   0  0  0  0  0  0  0  0  0  0  0  0
   40.8140   21.3430   38.0550 H   0  0  0  0  0  0  0  0  0  0  0  0
   42.1190   22.5340   36.7820 C   0  0  0  0  0  0  0  0  0  0  0  0
   42.6730   22.4620   35.4310 C   0  0  0  0  0  0  0  0  0  0  0  0
   43.1720   21.4690   36.4420 C   0  0  0  0  0  0  0  0  0  0  0  0
   42.4680   23.3190   37.5120 H   0  0  0  0  0  0  0  0  0  0  0  0
   43.3570   23.3130   35.1520 H   0  0  0  0  0  0  0  0  0  0  0  0
   42.0610   22.1520   34.5740 H   0  0  0  0  0  0  0  0  0  0  0  0
   42.8310   20.4330   36.2420 H   0  0  0  0  0  0  0  0  0  0  0  0
   44.2090   21.6370   36.7890 H   0  0  0  0  0  0  0  0  0  0  0  0
   37.5020   26.7410   35.2850 C   0  0  0  0  0  0  0  0  0  0  0  0
   36.5730   26.6510   35.8840 H   0  0  0  0  0  0  0  0  0  0  0  0
   38.2540   27.3360   35.8460 H   0  0  0  0  0  0  0  0  0  0  0  0
   37.1910   27.5020   34.0290 C   0  0  0  0  0  0  0  0  0  0  0  0
   36.1660   28.3490   33.8980 N   0  0  0  0  0  0  0  0  0  0  0  0
   36.1620   28.8500   32.6930 O   0  0  0  0  0  0  0  0  0  0  0  0
   37.1450   28.3710   32.0120 C   0  0  0  0  0  0  0  0  0  0  0  0
   37.8100   27.5150   32.8360 N   0  0  0  0  0  0  0  0  0  0  0  0
   37.5910   28.5900   30.6450 C   0  0  0  0  0  0  0  0  0  0  0  0
   38.3420   27.8010   29.7910 C   0  0  0  0  0  0  0  0  0  0  0  0
   38.4630   28.5180   28.5980 C   0  0  0  0  0  0  0  0  0  0  0  0
   37.7720   29.7070   28.8070 C   0  0  0  0  0  0  0  0  0  0  0  0
   37.2740   29.7210   30.0100 O   0  0  0  0  0  0  0  0  0  0  0  0
   38.7150   26.8320   30.0850 H   0  0  0  0  0  0  0  0  0  0  0  0
   38.9990   28.1420   27.7520 H   0  0  0  0  0  0  0  0  0  0  0  0
   37.6560   30.7600   27.7770 C   0  0  0  0  0  0  0  0  0  0  0  0
   36.9960   31.9620   27.9310 C   0  0  0  0  0  0  0  0  0  0  0  0
   37.1260   32.6380   26.7550 N   0  0  0  0  0  0  0  0  0  0  0  0
   37.8520   31.8260   25.9440 C   0  0  0  0  0  0  0  0  0  0  0  0
   38.1930   30.6610   26.5470 N   0  0  0  0  0  0  0  0  0  0  0  0
   38.7480   29.9070   26.0960 H   0  0  0  0  0  0  0  0  0  0  0  0
  1 23  1  0  0  0  0
  1  8  1  0  0  0  0
  2  1  1  0  0  0  0
  3  1  1  0  0  0  0
  4 10  1  0  0  0  0
  5  4  1  0  0  0  0
  5 11  1  0  0  0  0
  6  5  2  0  0  0  0
  7  8  2  0  0  0  0
  7  6  1  0  0  0  0
  8  9  1  0  0  0  0
  9  4  2  0  0  0  0
 12  6  1  0  0  0  0
 12 14  1  0  0  0  0
 13 12  1  0  0  0  0
 15 12  1  0  0  0  0
 15 18  1  0  0  0  0
 16 17  1  0  0  0  0
 16 15  1  0  0  0  0
 17 15  1  0  0  0  0
 17 22  1  0  0  0  0
 19 16  1  0  0  0  0
 20 16  1  0  0  0  0
 21 17  1  0  0  0  0
 23 25  1  0  0  0  0
 23 24  1  0  0  0  0
 26 23  1  0  0  0  0
 27 26  2  0  0  0  0
 28 27  1  0  0  0  0
 29 28  1  0  0  0  0
 29 30  2  0  0  0  0
 30 26  1  0  0  0  0
 31 29  1  0  0  0  0
 32 36  1  0  0  0  0
 32 31  2  0  0  0  0
 33 34  2  0  0  0  0
 33 32  1  0  0  0  0
 34 35  1  0  0  0  0
 35 31  1  0  0  0  0
 37 33  1  0  0  0  0
 38 39  2  0  0  0  0
 38 34  1  0  0  0  0
 40 39  1  0  0  0  0
 41 42  1  0  0  0  0
 41 40  2  0  0  0  0
 42 38  1  0  0  0  0
 43 42  1  0  0  0  0
M  END
>  <minimizedAffinity>
-5.37128592

>  <minimizedRMSD>
1.03775144

$$$$
