
 OpenBabel03262519573D

 29 32  0  0  1  0  0  0  0  0999 V2000
   38.0090   23.5610   34.4010 C   0  0  0  0  0  0  0  0  0  0  0  0
   38.1790   24.7320   33.6840 C   0  0  0  0  0  0  0  0  0  0  0  0
   37.6460   24.4420   32.4520 N   0  0  0  0  0  0  0  0  0  0  0  0
   37.2060   23.1890   32.4790 C   0  0  0  0  0  0  0  0  0  0  0  0
   37.4150   22.6070   33.6780 N   0  0  0  0  0  0  0  0  0  0  0  0
   38.6410   25.6540   34.0640 H   0  0  0  0  0  0  0  0  0  0  0  0
   36.7480   22.7910   31.5700 H   0  0  0  0  0  0  0  0  0  0  0  0
   38.4200   23.3720   35.7810 C   0  0  0  0  0  0  0  0  0  0  0  0
   39.6800   22.8410   36.0840 C   0  0  0  0  0  0  0  0  0  0  0  0
   40.0300   22.6780   37.4440 C   0  0  0  0  0  0  0  0  0  0  0  0
   39.1230   23.0450   38.3700 N   0  0  0  0  0  0  0  0  0  0  0  0
   37.9170   23.5530   38.0510 C   0  0  0  0  0  0  0  0  0  0  0  0
   37.5570   23.7210   36.7630 N   0  0  0  0  0  0  0  0  0  0  0  0
   40.3680   22.5640   35.2860 H   0  0  0  0  0  0  0  0  0  0  0  0
   41.0010   22.2690   37.6440 H   0  0  0  0  0  0  0  0  0  0  0  0
   37.2900   23.8050   38.8830 H   0  0  0  0  0  0  0  0  0  0  0  0
   37.0400   21.2540   33.9940 C   0  0  1  0  0  0  0  0  0  0  0  0
   35.8860   20.9400   34.8420 C   0  0  0  0  0  0  0  0  0  0  0  0
   35.7180   20.8470   33.3490 C   0  0  2  0  0  0  0  0  0  0  0  0
   37.8800   20.5590   33.9980 H   0  0  0  0  0  0  0  0  0  0  0  0
   35.8790   20.0030   35.4190 H   0  0  0  0  0  0  0  0  0  0  0  0
   35.2710   21.7280   35.3510 H   0  0  0  0  0  0  0  0  0  0  0  0
   35.1020   21.6040   32.8500 H   0  0  0  0  0  0  0  0  0  0  0  0
   35.7790   19.4760   32.7340 C   0  0  0  0  0  0  0  0  0  0  0  0
   36.5880   19.0960   31.6640 C   0  0  0  0  0  3  0  0  0  0  0  0
   36.3370   17.7980   31.4340 N   0  0  0  0  0  0  0  0  0  0  0  0
   35.4090   17.4170   32.3410 C   0  0  0  0  0  3  0  0  0  0  0  0
   35.0490   18.4270   33.1500 N   0  0  0  0  0  0  0  0  0  0  0  0
   34.3450   18.3440   33.9200 H   0  0  0  0  0  0  0  0  0  0  0  0
  1  8  1  0  0  0  0
  2  6  1  0  0  0  0
  2  1  2  0  0  0  0
  3  4  2  0  0  0  0
  3  2  1  0  0  0  0
  4  5  1  0  0  0  0
  5 17  1  0  0  0  0
  5  1  1  0  0  0  0
  7  4  1  0  0  0  0
  8  9  2  0  0  0  0
  8 13  1  0  0  0  0
  9 10  1  0  0  0  0
 10 15  1  0  0  0  0
 10 11  2  0  0  0  0
 12 11  1  0  0  0  0
 12 16  1  0  0  0  0
 13 12  2  0  0  0  0
 14  9  1  0  0  0  0
 17 20  1  6  0  0  0
 17 18  1  0  0  0  0
 18 22  1  0  0  0  0
 18 21  1  0  0  0  0
 19 23  1  6  0  0  0
 19 17  1  0  0  0  0
 19 18  1  0  0  0  0
 24 28  1  0  0  0  0
 24 19  1  0  0  0  0
 25 24  2  0  0  0  0
 26 25  1  0  0  0  0
 26 27  2  0  0  0  0
 27 28  1  0  0  0  0
 28 29  1  0  0  0  0
M  END
>  <minimizedAffinity>
-4.77301979

>  <minimizedRMSD>
0.491432518

$$$$
