
 OpenBabel03262519523D

 31 33  0  0  1  0  0  0  0  0999 V2000
   39.8330   24.9690   35.2040 C   0  0  0  0  0  0  0  0  0  0  0  0
   40.1820   25.4330   36.1750 H   0  0  0  0  0  0  0  0  0  0  0  0
   39.6830   25.8430   34.5430 H   0  0  0  0  0  0  0  0  0  0  0  0
   38.5150   24.2450   35.5280 C   0  0  2  0  0  0  0  0  0  0  0  0
   37.9530   24.6020   36.8530 C   0  0  0  0  0  0  0  0  0  0  0  0
   38.3940   23.1960   36.4920 C   0  0  1  0  0  0  0  0  0  0  0  0
   37.8230   24.3310   34.6890 H   0  0  0  0  0  0  0  0  0  0  0  0
   36.8290   24.7300   36.9170 H   0  0  0  0  0  0  0  0  0  0  0  0
   38.4690   25.2950   37.4660 H   0  0  0  0  0  0  0  0  0  0  0  0
   38.8170   22.7830   37.3350 H   0  0  0  0  0  0  0  0  0  0  0  0
   37.2700   22.2210   36.1570 C   0  0  0  0  0  0  0  0  0  0  0  0
   36.9620   21.6580   34.9110 C   0  0  0  0  0  0  0  0  0  0  0  0
   35.8770   20.8350   35.0350 N   0  0  0  0  0  0  0  0  0  0  0  0
   35.5120   20.8780   36.3260 C   0  0  0  0  0  0  0  0  0  0  0  0
   36.3540   21.7050   36.9600 N   0  0  0  0  0  0  0  0  0  0  0  0
   36.2500   21.8860   37.9800 H   0  0  0  0  0  0  0  0  0  0  0  0
   40.8120   23.9660   34.8140 C   0  0  0  0  0  0  0  0  0  0  0  0
   40.3620   23.0170   34.6880 H   0  0  0  0  0  0  0  0  0  0  0  0
   40.9980   24.2350   33.7060 H   0  0  0  0  0  0  0  0  0  0  0  0
   43.8420   23.5680   36.6810 C   0  0  0  0  0  0  0  0  0  0  0  0
   42.5350   23.2410   36.2150 C   0  0  0  0  0  0  0  0  0  0  0  0
   42.0910   24.1800   35.3750 C   0  0  0  0  0  0  0  0  0  0  0  0
   42.8330   25.3040   35.0330 N   0  0  0  0  0  0  0  0  0  0  0  0
   44.0380   25.5380   35.5080 C   0  0  0  0  0  0  0  0  0  0  0  0
   44.5470   24.6540   36.3440 N   0  0  0  0  0  0  0  0  0  0  0  0
   44.3920   22.9170   37.3880 H   0  0  0  0  0  0  0  0  0  0  0  0
   44.5300   26.4250   35.1900 H   0  0  0  0  0  0  0  0  0  0  0  0
   41.9980   22.0250   36.7200 C   0  0  0  0  0  0  0  0  0  0  0  0
   41.1080   22.2440   37.8030 F   0  0  0  0  0  0  0  0  0  0  0  0
   42.7280   21.1920   37.4850 F   0  0  0  0  0  0  0  0  0  0  0  0
   41.0090   21.3870   35.9900 F   0  0  0  0  0  0  0  0  0  0  0  0
  1  4  1  0  0  0  0
  1  2  1  0  0  0  0
  3  1  1  0  0  0  0
  4  7  1  6  0  0  0
  4  6  1  0  0  0  0
  4  5  1  0  0  0  0
  5  8  1  0  0  0  0
  5  9  1  0  0  0  0
  6  5  1  0  0  0  0
  6 10  1  1  0  0  0
 11  6  1  0  0  0  0
 11 15  1  0  0  0  0
 12 13  1  0  0  0  0
 12 11  2  0  0  0  0
 13 14  2  0  0  0  0
 14 15  1  0  0  0  0
 15 16  1  0  0  0  0
 17  1  1  0  0  0  0
 17 22  1  0  0  0  0
 18 17  1  0  0  0  0
 19 17  1  0  0  0  0
 20 26  1  0  0  0  0
 21 20  2  0  0  0  0
 21 28  1  0  0  0  0
 22 21  1  0  0  0  0
 23 22  2  0  0  0  0
 23 24  1  0  0  0  0
 24 25  2  0  0  0  0
 25 20  1  0  0  0  0
 27 24  1  0  0  0  0
 28 30  1  0  0  0  0
 28 29  1  0  0  0  0
 31 28  1  0  0  0  0
M  END
>  <minimizedAffinity>
-4.50023746

>  <minimizedRMSD>
1.48913729

$$$$
