
 OpenBabel03262515573D

 21 22  0  0  0  0  0  0  0  0999 V2000
   39.6150   23.4360   36.3230 C   0  0  0  0  0  0  0  0  0  0  0  0
   38.5990   24.0430   37.0820 C   0  0  0  0  0  0  0  0  0  0  0  0
   37.7110   24.9080   36.4340 C   0  0  0  0  0  0  0  0  0  0  0  0
   37.8670   25.1290   35.0940 N   0  0  0  0  0  0  0  0  0  0  0  0
   38.8630   24.5210   34.4050 C   0  0  0  0  0  0  0  0  0  0  0  0
   39.7060   23.7030   35.0000 N   0  0  0  0  0  0  0  0  0  0  0  0
   36.9360   25.3650   37.0360 H   0  0  0  0  0  0  0  0  0  0  0  0
   38.9500   24.8200   32.9710 C   0  0  0  0  0  0  0  0  0  0  0  0
   37.8580   25.0910   32.1490 C   0  0  0  0  0  0  0  0  0  0  0  0
   38.3790   25.3100   30.9160 N   0  0  0  0  0  0  0  0  0  0  0  0
   39.7260   25.1790   30.9810 C   0  0  0  0  0  0  0  0  0  0  0  0
   40.0900   24.8730   32.2600 N   0  0  0  0  0  0  0  0  0  0  0  0
   41.0640   24.7120   32.6170 H   0  0  0  0  0  0  0  0  0  0  0  0
   38.4450   23.7930   38.5260 C   0  0  0  0  0  0  0  0  0  0  0  0
   39.6840   23.8590   39.1050 F   0  0  0  0  0  0  0  0  0  0  0  0
   37.8820   22.6160   38.8370 F   0  0  0  0  0  0  0  0  0  0  0  0
   37.7570   24.8830   39.1270 F   0  0  0  0  0  0  0  0  0  0  0  0
   40.6460   22.5000   36.8160 C   0  0  0  0  0  0  0  0  0  0  0  0
   41.0450   21.6340   35.8180 F   0  0  0  0  0  0  0  0  0  0  0  0
   41.7380   23.1920   37.3310 F   0  0  0  0  0  0  0  0  0  0  0  0
   40.2220   21.7210   37.8530 F   0  0  0  0  0  0  0  0  0  0  0  0
  1 18  1  0  0  0  0
  1  2  1  0  0  0  0
  2 14  1  0  0  0  0
  3  7  1  0  0  0  0
  3  2  2  0  0  0  0
  4  3  1  0  0  0  0
  5  6  1  0  0  0  0
  5  4  2  0  0  0  0
  6  1  2  0  0  0  0
  8  5  1  0  0  0  0
  9  8  2  0  0  0  0
 10 11  2  0  0  0  0
 10  9  1  0  0  0  0
 11 12  1  0  0  0  0
 12 13  1  0  0  0  0
 12  8  1  0  0  0  0
 14 16  1  0  0  0  0
 14 15  1  0  0  0  0
 14 17  1  0  0  0  0
 18 20  1  0  0  0  0
 18 21  1  0  0  0  0
 19 18  1  0  0  0  0
M  END
>  <minimizedAffinity>
-4.57723045

>  <minimizedRMSD>
0.14651002

$$$$
