
 OpenBabel03262520003D

 32 35  0  0  1  0  0  0  0  0999 V2000
   40.7930   23.3950   33.5950 C   0  0  0  0  0  0  0  0  0  0  0  0
   40.4980   22.1060   33.1550 C   0  0  0  0  0  0  0  0  0  0  0  0
   39.4010   21.7570   33.8930 N   0  0  0  0  0  0  0  0  0  0  0  0
   39.1060   22.7810   34.6890 C   0  0  0  0  0  0  0  0  0  0  0  0
   39.9460   23.7990   34.5250 N   0  0  0  0  0  0  0  0  0  0  0  0
   41.0580   21.5730   32.3990 H   0  0  0  0  0  0  0  0  0  0  0  0
   38.2310   22.5990   35.3290 H   0  0  0  0  0  0  0  0  0  0  0  0
   41.9030   24.1980   33.1020 C   0  0  0  0  0  0  0  0  0  0  0  0
   43.1600   24.1120   33.7380 C   0  0  0  0  0  0  0  0  0  0  0  0
   44.2100   24.9050   33.2260 C   0  0  0  0  0  0  0  0  0  0  0  0
   43.9350   25.6950   32.1550 N   0  0  0  0  0  0  0  0  0  0  0  0
   42.7170   25.7480   31.5750 C   0  0  0  0  0  0  0  0  0  0  0  0
   41.6990   25.0040   32.0410 N   0  0  0  0  0  0  0  0  0  0  0  0
   43.2900   23.4580   34.5850 H   0  0  0  0  0  0  0  0  0  0  0  0
   45.1850   24.8610   33.6920 H   0  0  0  0  0  0  0  0  0  0  0  0
   42.6580   26.4230   30.7330 H   0  0  0  0  0  0  0  0  0  0  0  0
   39.8420   25.0080   35.2510 C   0  0  1  0  0  0  0  0  0  0  0  0
   40.4170   26.2770   34.9010 C   0  0  0  0  0  0  0  0  0  0  0  0
   38.8970   26.0120   34.6810 C   0  0  1  0  0  0  0  0  0  0  0  0
   39.7290   24.8170   36.3760 H   0  0  0  0  0  0  0  0  0  0  0  0
   40.9870   26.3970   33.9710 H   0  0  0  0  0  0  0  0  0  0  0  0
   40.6790   27.0430   35.6510 H   0  0  0  0  0  0  0  0  0  0  0  0
   38.6220   26.2830   33.2220 C   0  0  0  0  0  0  0  0  0  0  0  0
   37.7840   25.7120   32.2820 C   0  0  0  0  0  3  0  0  0  0  0  0
   37.9950   26.4030   31.1450 N   0  0  0  0  0  0  0  0  0  0  0  0
   38.9200   27.3540   31.3790 C   0  0  0  0  0  3  0  0  0  0  0  0
   39.3180   27.2840   32.6800 N   0  0  0  0  0  0  0  0  0  0  0  0
   40.0410   27.9590   33.0350 H   0  0  0  0  0  0  0  0  0  0  0  0
   38.0640   26.8140   35.6590 C   0  0  0  0  0  0  0  0  0  0  0  0
   36.7240   26.7000   35.3400 F   0  0  0  0  0  0  0  0  0  0  0  0
   38.1610   26.1710   36.9630 F   0  0  0  0  0  0  0  0  0  0  0  0
   38.4820   28.0770   35.8320 F   0  0  0  0  0  0  0  0  0  0  0  0
  1  5  1  0  0  0  0
  2  1  2  0  0  0  0
  2  3  1  0  0  0  0
  3  4  2  0  0  0  0
  4  7  1  0  0  0  0
  5  4  1  0  0  0  0
  5 17  1  0  0  0  0
  6  2  1  0  0  0  0
  8  1  1  0  0  0  0
  8  9  1  0  0  0  0
  9 14  1  0  0  0  0
 10 15  1  0  0  0  0
 10  9  2  0  0  0  0
 11 10  1  0  0  0  0
 12 13  1  0  0  0  0
 12 11  2  0  0  0  0
 13  8  2  0  0  0  0
 16 12  1  0  0  0  0
 17 20  1  1  0  0  0
 18 17  1  0  0  0  0
 18 22  1  0  0  0  0
 19 18  1  0  0  0  0
 19 17  1  0  0  0  0
 19 29  1  1  0  0  0
 21 18  1  0  0  0  0
 23 19  1  0  0  0  0
 24 23  2  0  0  0  0
 25 26  2  0  0  0  0
 25 24  1  0  0  0  0
 26 27  1  0  0  0  0
 27 28  1  0  0  0  0
 27 23  1  0  0  0  0
 29 32  1  0  0  0  0
 29 31  1  0  0  0  0
 30 29  1  0  0  0  0
M  END
>  <minimizedAffinity>
-3.87615728

>  <minimizedRMSD>
4.68871212

$$$$
