
 OpenBabel03262519593D

 32 35  0  0  1  0  0  0  0  0999 V2000
   38.6700   23.9590   34.2580 C   0  0  0  0  0  0  0  0  0  0  0  0
   38.0020   22.7980   34.6430 C   0  0  0  0  0  0  0  0  0  0  0  0
   38.7120   21.8010   34.0320 N   0  0  0  0  0  0  0  0  0  0  0  0
   39.7050   22.3680   33.3530 C   0  0  0  0  0  0  0  0  0  0  0  0
   39.7020   23.6920   33.4760 N   0  0  0  0  0  0  0  0  0  0  0  0
   37.1300   22.7740   35.2820 H   0  0  0  0  0  0  0  0  0  0  0  0
   40.3390   21.6450   32.8220 H   0  0  0  0  0  0  0  0  0  0  0  0
   38.2780   25.3030   34.6570 C   0  0  0  0  0  0  0  0  0  0  0  0
   37.4040   26.0460   33.8340 C   0  0  0  0  0  0  0  0  0  0  0  0
   37.0470   27.3430   34.2600 C   0  0  0  0  0  0  0  0  0  0  0  0
   37.5700   27.7860   35.4340 N   0  0  0  0  0  0  0  0  0  0  0  0
   38.4040   27.0420   36.1920 C   0  0  0  0  0  0  0  0  0  0  0  0
   38.7610   25.8030   35.8120 N   0  0  0  0  0  0  0  0  0  0  0  0
   37.0360   25.6160   32.9170 H   0  0  0  0  0  0  0  0  0  0  0  0
   36.3790   27.9370   33.6510 H   0  0  0  0  0  0  0  0  0  0  0  0
   38.7340   27.5340   37.0960 H   0  0  0  0  0  0  0  0  0  0  0  0
   40.6590   24.5260   32.8550 C   0  0  1  0  0  0  0  0  0  0  0  0
   41.2620   25.7080   33.4060 C   0  0  0  0  0  0  0  0  0  0  0  0
   42.0570   24.3680   33.3520 C   0  0  1  0  0  0  0  0  0  0  0  0
   40.5460   24.5220   31.7140 H   0  0  0  0  0  0  0  0  0  0  0  0
   41.0180   26.0390   34.4230 H   0  0  0  0  0  0  0  0  0  0  0  0
   41.6460   26.5320   32.7800 H   0  0  0  0  0  0  0  0  0  0  0  0
   42.4960   24.0740   34.7660 C   0  0  0  0  0  0  0  0  0  0  0  0
   42.0850   23.1720   35.7290 C   0  0  0  0  0  3  0  0  0  0  0  0
   42.8750   23.4020   36.7980 N   0  0  0  0  0  0  0  0  0  0  0  0
   43.7290   24.4000   36.5010 C   0  0  0  0  0  3  0  0  0  0  0  0
   43.4970   24.8260   35.2270 N   0  0  0  0  0  0  0  0  0  0  0  0
   44.0800   25.6060   34.8320 H   0  0  0  0  0  0  0  0  0  0  0  0
   43.1710   24.4440   32.3290 C   0  0  0  0  0  0  0  0  0  0  0  0
   44.0330   23.3770   32.4910 F   0  0  0  0  0  0  0  0  0  0  0  0
   42.5870   24.2150   31.0140 F   0  0  0  0  0  0  0  0  0  0  0  0
   43.7800   25.6370   32.2650 F   0  0  0  0  0  0  0  0  0  0  0  0
  1  2  2  0  0  0  0
  1  8  1  0  0  0  0
  2  6  1  0  0  0  0
  3  2  1  0  0  0  0
  4  5  1  0  0  0  0
  4  3  2  0  0  0  0
  5  1  1  0  0  0  0
  7  4  1  0  0  0  0
  8 13  1  0  0  0  0
  9 10  1  0  0  0  0
  9  8  2  0  0  0  0
 10 11  2  0  0  0  0
 11 12  1  0  0  0  0
 12 16  1  0  0  0  0
 13 12  2  0  0  0  0
 14  9  1  0  0  0  0
 15 10  1  0  0  0  0
 17 20  1  6  0  0  0
 17 19  1  0  0  0  0
 17 18  1  0  0  0  0
 17  5  1  0  0  0  0
 18 21  1  0  0  0  0
 19 29  1  6  0  0  0
 19 18  1  0  0  0  0
 19 23  1  0  0  0  0
 22 18  1  0  0  0  0
 23 27  1  0  0  0  0
 23 24  2  0  0  0  0
 24 25  1  0  0  0  0
 26 25  2  0  0  0  0
 27 26  1  0  0  0  0
 28 27  1  0  0  0  0
 29 30  1  0  0  0  0
 31 29  1  0  0  0  0
 32 29  1  0  0  0  0
M  END
>  <minimizedAffinity>
-3.50728536

>  <minimizedRMSD>
5.77133751

$$$$
