
 OpenBabel03262520003D

 32 35  0  0  1  0  0  0  0  0999 V2000
   40.2760   25.3180   32.9400 C   0  0  0  0  0  0  0  0  0  0  0  0
   40.8850   25.8880   31.8240 C   0  0  0  0  0  0  0  0  0  0  0  0
   41.7210   24.9030   31.3760 N   0  0  0  0  0  0  0  0  0  0  0  0
   41.5860   23.8570   32.1870 C   0  0  0  0  0  0  0  0  0  0  0  0
   40.7040   24.0870   33.1550 N   0  0  0  0  0  0  0  0  0  0  0  0
   40.6890   26.8870   31.4600 H   0  0  0  0  0  0  0  0  0  0  0  0
   42.2210   23.0040   31.9090 H   0  0  0  0  0  0  0  0  0  0  0  0
   39.2950   25.9950   33.7760 C   0  0  0  0  0  0  0  0  0  0  0  0
   39.7270   26.7330   34.8990 C   0  0  0  0  0  0  0  0  0  0  0  0
   38.7440   27.3760   35.6800 C   0  0  0  0  0  0  0  0  0  0  0  0
   37.4470   27.2410   35.2940 N   0  0  0  0  0  0  0  0  0  0  0  0
   37.0750   26.5250   34.2110 C   0  0  0  0  0  0  0  0  0  0  0  0
   37.9900   25.9020   33.4490 N   0  0  0  0  0  0  0  0  0  0  0  0
   40.7780   26.7870   35.1320 H   0  0  0  0  0  0  0  0  0  0  0  0
   39.0440   27.9490   36.5470 H   0  0  0  0  0  0  0  0  0  0  0  0
   36.0080   26.5130   34.0370 H   0  0  0  0  0  0  0  0  0  0  0  0
   40.3780   23.1290   34.1430 C   0  0  1  0  0  0  0  0  0  0  0  0
   41.2190   22.0710   34.6290 C   0  0  0  0  0  0  0  0  0  0  0  0
   40.9990   23.3590   35.4800 C   0  0  1  0  0  0  0  0  0  0  0  0
   39.2530   22.9070   34.1610 H   0  0  0  0  0  0  0  0  0  0  0  0
   42.2440   21.9530   34.2560 H   0  0  0  0  0  0  0  0  0  0  0  0
   40.8180   21.1320   35.0480 H   0  0  0  0  0  0  0  0  0  0  0  0
   42.3710   23.9220   35.7650 C   0  0  0  0  0  0  0  0  0  0  0  0
   42.9980   25.1170   35.4680 C   0  0  0  0  0  3  0  0  0  0  0  0
   44.2300   25.0190   36.0010 N   0  0  0  0  0  0  0  0  0  0  0  0
   44.3530   23.8170   36.5980 C   0  0  0  0  0  3  0  0  0  0  0  0
   43.1880   23.1230   36.4540 N   0  0  0  0  0  0  0  0  0  0  0  0
   43.1110   22.1590   36.8630 H   0  0  0  0  0  0  0  0  0  0  0  0
   40.1520   23.0610   36.6990 C   0  0  0  0  0  0  0  0  0  0  0  0
   39.1660   24.0190   36.8320 F   0  0  0  0  0  0  0  0  0  0  0  0
   39.4070   21.8370   36.4380 F   0  0  0  0  0  0  0  0  0  0  0  0
   40.8570   22.8390   37.8180 F   0  0  0  0  0  0  0  0  0  0  0  0
  1  5  1  0  0  0  0
  1  8  1  0  0  0  0
  2  1  2  0  0  0  0
  3  2  1  0  0  0  0
  3  4  2  0  0  0  0
  4  5  1  0  0  0  0
  5 17  1  0  0  0  0
  6  2  1  0  0  0  0
  7  4  1  0  0  0  0
  8  9  1  0  0  0  0
  9 14  1  0  0  0  0
  9 10  2  0  0  0  0
 10 15  1  0  0  0  0
 11 10  1  0  0  0  0
 12 11  2  0  0  0  0
 13  8  2  0  0  0  0
 13 12  1  0  0  0  0
 16 12  1  0  0  0  0
 17 20  1  1  0  0  0
 17 18  1  0  0  0  0
 17 19  1  0  0  0  0
 18 22  1  0  0  0  0
 18 19  1  0  0  0  0
 19 23  1  0  0  0  0
 19 29  1  1  0  0  0
 21 18  1  0  0  0  0
 23 27  1  0  0  0  0
 24 23  2  0  0  0  0
 24 25  1  0  0  0  0
 25 26  2  0  0  0  0
 27 26  1  0  0  0  0
 27 28  1  0  0  0  0
 29 30  1  0  0  0  0
 29 32  1  0  0  0  0
 31 29  1  0  0  0  0
M  END
>  <minimizedAffinity>
-4.41487932

>  <minimizedRMSD>
5.11289549

$$$$
