
 OpenBabel03262518223D

 22 23  0  0  0  0  0  0  0  0999 V2000
   39.7790   23.0800   37.3900 C   0  0  0  0  0  0  0  0  0  0  0  0
   39.4360   23.8220   36.2340 C   0  0  0  0  0  0  0  0  0  0  0  0
   38.2930   24.6580   36.3300 C   0  0  0  0  0  0  0  0  0  0  0  0
   37.6080   24.7030   37.4910 N   0  0  0  0  0  0  0  0  0  0  0  0
   37.9820   23.9710   38.5670 C   0  0  0  0  0  0  0  0  0  0  0  0
   39.0490   23.1760   38.5100 N   0  0  0  0  0  0  0  0  0  0  0  0
   39.9880   23.7750   35.3230 H   0  0  0  0  0  0  0  0  0  0  0  0
   37.4510   23.9890   39.5060 H   0  0  0  0  0  0  0  0  0  0  0  0
   37.8870   25.4370   35.2040 N   0  0  0  0  0  0  0  0  0  0  0  0
   38.3050   26.7950   35.0900 C   0  0  0  0  0  0  0  0  0  0  0  0
   38.6830   27.4670   36.1170 N   0  0  0  0  0  0  0  0  0  0  0  0
   38.2780   27.3540   33.7830 N   0  0  0  0  0  0  0  0  0  0  0  0
   39.0320   28.4430   36.0850 H   0  0  0  0  0  0  0  0  0  0  0  0
   37.2900   24.9230   34.5250 H   0  0  0  0  0  0  0  0  0  0  0  0
   37.4510   27.6960   33.2550 H   0  0  0  0  0  0  0  0  0  0  0  0
   39.2070   27.4280   33.2940 H   0  0  0  0  0  0  0  0  0  0  0  0
   40.9570   22.2280   37.2650 C   0  0  0  0  0  0  0  0  0  0  0  0
   42.0320   22.5480   36.4600 C   0  0  0  0  0  0  0  0  0  0  0  0
   42.9710   21.5720   36.5470 N   0  0  0  0  0  0  0  0  0  0  0  0
   42.4690   20.6620   37.4010 C   0  0  0  0  0  0  0  0  0  0  0  0
   41.2460   21.0480   37.8450 N   0  0  0  0  0  0  0  0  0  0  0  0
   40.5890   20.5780   38.5090 H   0  0  0  0  0  0  0  0  0  0  0  0
  1  6  1  0  0  0  0
  2  3  1  0  0  0  0
  2  1  2  0  0  0  0
  3  4  2  0  0  0  0
  4  5  1  0  0  0  0
  5  8  1  0  0  0  0
  6  5  2  0  0  0  0
  7  2  1  0  0  0  0
  9  3  1  0  0  0  0
 10  9  1  0  0  0  0
 10 11  2  0  0  0  0
 12 10  1  0  0  0  0
 13 11  1  0  0  0  0
 14  9  1  0  0  0  0
 15 12  1  0  0  0  0
 16 12  1  0  0  0  0
 17  1  1  0  0  0  0
 17 21  1  0  0  0  0
 18 19  1  0  0  0  0
 18 17  2  0  0  0  0
 19 20  2  0  0  0  0
 20 21  1  0  0  0  0
 21 22  1  0  0  0  0
M  END
>  <minimizedAffinity>
-4.81674194

>  <minimizedRMSD>
1.25035679

$$$$
