
 OpenBabel03262519093D

 34 37  0  0  1  0  0  0  0  0999 V2000
   37.7860   26.1880   34.5230 C   0  0  0  0  0  0  0  0  0  0  0  0
   38.7940   26.6000   34.7980 H   0  0  0  0  0  0  0  0  0  0  0  0
   37.2690   26.0790   35.5050 H   0  0  0  0  0  0  0  0  0  0  0  0
   37.0820   27.2580   33.7840 C   0  0  0  0  0  0  0  0  0  0  0  0
   36.8620   27.4480   32.4560 C   0  0  0  0  0  0  0  0  0  0  0  0
   36.1920   28.4860   31.8820 C   0  0  0  0  0  0  0  0  0  0  0  0
   35.6950   29.4240   32.7480 C   0  0  0  0  0  0  0  0  0  0  0  0
   35.9110   29.2450   34.1110 C   0  0  0  0  0  0  0  0  0  0  0  0
   36.5780   28.2050   34.6250 N   0  0  0  0  0  0  0  0  0  0  0  0
   37.3010   26.6380   31.8530 H   0  0  0  0  0  0  0  0  0  0  0  0
   36.0930   28.5090   30.8060 H   0  0  0  0  0  0  0  0  0  0  0  0
   35.1500   30.2750   32.3390 H   0  0  0  0  0  0  0  0  0  0  0  0
   35.3680   30.2660   35.0290 C   0  0  0  0  0  0  0  0  0  0  0  0
   36.0890   31.1700   35.7790 C   0  0  0  0  0  0  0  0  0  0  0  0
   35.2260   31.9430   36.4980 N   0  0  0  0  0  0  0  0  0  0  0  0
   33.9930   31.4890   36.1670 C   0  0  0  0  0  0  0  0  0  0  0  0
   34.0620   30.4750   35.2790 N   0  0  0  0  0  0  0  0  0  0  0  0
   33.2260   29.9850   34.8960 H   0  0  0  0  0  0  0  0  0  0  0  0
   38.2060   23.5840   34.4590 C   0  0  2  0  0  0  0  0  0  0  0  0
   39.2070   24.3330   33.6530 C   0  0  0  0  0  0  0  0  0  0  0  0
   37.8260   24.8820   33.8460 C   0  0  2  0  0  0  0  0  0  0  0  0
   37.5990   22.7420   34.0910 H   0  0  0  0  0  0  0  0  0  0  0  0
   39.4810   23.8090   32.7030 H   0  0  0  0  0  0  0  0  0  0  0  0
   40.0840   24.7520   34.1750 H   0  0  0  0  0  0  0  0  0  0  0  0
   37.2350   24.8570   32.8830 H   0  0  0  0  0  0  0  0  0  0  0  0
   39.7850   22.9140   37.7070 C   0  0  0  0  0  0  0  0  0  0  0  0
   38.8790   23.4410   38.6560 C   0  0  0  0  0  0  0  0  0  0  0  0
   37.7000   24.0400   38.1130 C   0  0  0  0  0  0  0  0  0  0  0  0
   37.5340   24.0630   36.7730 N   0  0  0  0  0  0  0  0  0  0  0  0
   38.4640   23.5280   35.9130 C   0  0  0  0  0  0  0  0  0  0  0  0
   39.6070   22.9450   36.3870 N   0  0  0  0  0  0  0  0  0  0  0  0
   40.6610   22.4710   38.1620 H   0  0  0  0  0  0  0  0  0  0  0  0
   39.0760   23.3880   39.7140 H   0  0  0  0  0  0  0  0  0  0  0  0
   36.9830   24.4540   38.7970 H   0  0  0  0  0  0  0  0  0  0  0  0
  1  2  1  0  0  0  0
  1  3  1  0  0  0  0
  4  1  1  0  0  0  0
  4  9  1  0  0  0  0
  5  4  2  0  0  0  0
  6  5  1  0  0  0  0
  6  7  2  0  0  0  0
  7  8  1  0  0  0  0
  8  9  2  0  0  0  0
  8 13  1  0  0  0  0
 10  5  1  0  0  0  0
 11  6  1  0  0  0  0
 12  7  1  0  0  0  0
 13 17  1  0  0  0  0
 13 14  2  0  0  0  0
 14 15  1  0  0  0  0
 16 15  2  0  0  0  0
 17 16  1  0  0  0  0
 18 17  1  0  0  0  0
 19 22  1  6  0  0  0
 19 30  1  0  0  0  0
 20 21  1  0  0  0  0
 20 24  1  0  0  0  0
 20 19  1  0  0  0  0
 21 25  1  6  0  0  0
 21 19  1  0  0  0  0
 21  1  1  0  0  0  0
 23 20  1  0  0  0  0
 26 32  1  0  0  0  0
 26 27  1  0  0  0  0
 27 33  1  0  0  0  0
 28 27  2  0  0  0  0
 28 34  1  0  0  0  0
 29 28  1  0  0  0  0
 30 31  1  0  0  0  0
 30 29  2  0  0  0  0
 31 26  2  0  0  0  0
M  END
>  <minimizedAffinity>
-5.20301867

>  <minimizedRMSD>
5.49999094

$$$$
