
 OpenBabel03262516333D

 45 47  0  0  0  0  0  0  0  0999 V2000
   37.8380   23.0540   33.7990 C   0  0  0  0  0  0  0  0  0  0  0  0
   37.9430   24.4080   33.9520 C   0  0  0  0  0  0  0  0  0  0  0  0
   38.7730   25.0040   34.8420 C   0  0  0  0  0  0  0  0  0  0  0  0
   39.5320   24.1610   35.6130 N   0  0  0  0  0  0  0  0  0  0  0  0
   39.4560   22.8160   35.4910 C   0  0  0  0  0  0  0  0  0  0  0  0
   38.6210   22.2450   34.5960 N   0  0  0  0  0  0  0  0  0  0  0  0
   37.3080   24.9940   33.3020 H   0  0  0  0  0  0  0  0  0  0  0  0
   40.0710   22.1690   36.1180 H   0  0  0  0  0  0  0  0  0  0  0  0
   36.9870   22.3410   32.8820 C   0  0  0  0  0  0  0  0  0  0  0  0
   36.2950   21.1920   33.2430 C   0  0  0  0  0  0  0  0  0  0  0  0
   35.5720   20.7450   32.1560 C   0  0  0  0  0  0  0  0  0  0  0  0
   35.8650   21.6630   31.1660 C   0  0  0  0  0  0  0  0  0  0  0  0
   36.7050   22.5850   31.6460 O   0  0  0  0  0  0  0  0  0  0  0  0
   36.2770   20.6740   34.2010 H   0  0  0  0  0  0  0  0  0  0  0  0
   35.4410   21.5910   30.1590 H   0  0  0  0  0  0  0  0  0  0  0  0
   34.6900   19.5810   32.0340 C   0  0  0  0  0  0  0  0  0  0  0  0
   34.5480   19.3410   30.9550 H   0  0  0  0  0  0  0  0  0  0  0  0
   33.6890   19.7300   32.5260 H   0  0  0  0  0  0  0  0  0  0  0  0
   35.2730   18.3170   32.6580 C   0  0  0  0  0  0  0  0  0  0  0  0
   34.4350   17.5690   32.6240 H   0  0  0  0  0  0  0  0  0  0  0  0
   35.5270   18.4900   33.7370 H   0  0  0  0  0  0  0  0  0  0  0  0
   36.3670   17.7940   31.8980 N   0  0  0  0  0  0  0  0  0  0  0  0
   36.3000   16.7690   31.7920 H   0  0  0  0  0  0  0  0  0  0  0  0
   36.4500   18.3330   31.0260 H   0  0  0  0  0  0  0  0  0  0  0  0
   38.8960   26.4380   35.0170 C   0  0  0  0  0  0  0  0  0  0  0  0
   38.3760   26.9090   36.3520 C   0  0  0  0  0  0  0  0  0  0  0  0
   38.6630   27.9810   36.4510 H   0  0  0  0  0  0  0  0  0  0  0  0
   37.2600   26.9160   36.3160 H   0  0  0  0  0  0  0  0  0  0  0  0
   38.7660   26.2730   37.1670 H   0  0  0  0  0  0  0  0  0  0  0  0
   38.1050   27.1690   33.9190 C   0  0  0  0  0  0  0  0  0  0  0  0
   38.3650   28.2480   33.9270 H   0  0  0  0  0  0  0  0  0  0  0  0
   37.0160   27.0180   34.0560 H   0  0  0  0  0  0  0  0  0  0  0  0
   38.4730   26.7540   32.9590 H   0  0  0  0  0  0  0  0  0  0  0  0
   40.3420   26.8390   34.8470 C   0  0  0  0  0  0  0  0  0  0  0  0
   40.9670   25.9830   35.1820 H   0  0  0  0  0  0  0  0  0  0  0  0
   40.6480   27.6890   35.4880 H   0  0  0  0  0  0  0  0  0  0  0  0
   40.6800   27.1700   33.4420 C   0  0  0  0  0  0  0  0  0  0  0  0
   41.8990   27.6400   33.0000 C   0  0  0  0  0  0  0  0  0  0  0  0
   42.6760   27.7830   33.7380 H   0  0  0  0  0  0  0  0  0  0  0  0
   42.1940   27.9390   31.7060 C   0  0  0  0  0  0  0  0  0  0  0  0
   41.2470   27.7780   30.7360 C   0  0  0  0  0  0  0  0  0  0  0  0
   41.5310   28.0290   29.7230 H   0  0  0  0  0  0  0  0  0  0  0  0
   40.0130   27.3140   31.0930 C   0  0  0  0  0  0  0  0  0  0  0  0
   39.2430   27.1780   30.3280 H   0  0  0  0  0  0  0  0  0  0  0  0
   39.7450   27.0200   32.4130 C   0  0  0  0  0  0  0  0  0  0  0  0
  1  2  2  0  0  0  0
  1  6  1  0  0  0  0
  2  3  1  0  0  0  0
  3 25  1  0  0  0  0
  3  4  2  0  0  0  0
  5  4  1  0  0  0  0
  5  8  1  0  0  0  0
  6  5  2  0  0  0  0
  7  2  1  0  0  0  0
  9 10  2  0  0  0  0
  9  1  1  0  0  0  0
 10 14  1  0  0  0  0
 11 10  1  0  0  0  0
 12 13  1  0  0  0  0
 12 11  2  0  0  0  0
 13  9  1  0  0  0  0
 15 12  1  0  0  0  0
 16 11  1  0  0  0  0
 16 18  1  0  0  0  0
 16 19  1  0  0  0  0
 17 16  1  0  0  0  0
 19 21  1  0  0  0  0
 20 19  1  0  0  0  0
 22 19  1  0  0  0  0
 23 22  1  0  0  0  0
 24 22  1  0  0  0  0
 25 26  1  0  0  0  0
 26 27  1  0  0  0  0
 26 29  1  0  0  0  0
 28 26  1  0  0  0  0
 30 31  1  0  0  0  0
 30 32  1  0  0  0  0
 30 25  1  0  0  0  0
 33 30  1  0  0  0  0
 34 25  1  0  0  0  0
 34 35  1  0  0  0  0
 34 36  1  0  0  0  0
 37 34  1  0  0  0  0
 38 37  1  0  0  0  0
 38 39  1  0  0  0  0
 40 38  2  0  0  0  0
 41 43  2  0  0  0  0
 41 40  1  0  0  0  0
 42 41  1  0  0  0  0
 43 45  1  0  0  0  0
 44 43  1  0  0  0  0
 45 37  2  0  0  0  0
M  END
>  <minimizedAffinity>
-5.3088398

>  <minimizedRMSD>
1.31926203

$$$$
