
 OpenBabel03262519573D

 29 32  0  0  1  0  0  0  0  0999 V2000
   38.0770   23.7550   34.4590 C   0  0  0  0  0  0  0  0  0  0  0  0
   38.2460   24.9540   33.7920 C   0  0  0  0  0  0  0  0  0  0  0  0
   37.7810   24.6930   32.5260 N   0  0  0  0  0  0  0  0  0  0  0  0
   37.3780   23.4270   32.4890 C   0  0  0  0  0  0  0  0  0  0  0  0
   37.5470   22.8100   33.6780 N   0  0  0  0  0  0  0  0  0  0  0  0
   38.6610   25.8750   34.2250 H   0  0  0  0  0  0  0  0  0  0  0  0
   36.9770   23.0480   31.5460 H   0  0  0  0  0  0  0  0  0  0  0  0
   38.4270   23.5290   35.8510 C   0  0  0  0  0  0  0  0  0  0  0  0
   39.6540   22.9460   36.1920 C   0  0  0  0  0  0  0  0  0  0  0  0
   39.9440   22.7500   37.5620 C   0  0  0  0  0  0  0  0  0  0  0  0
   39.0170   23.1370   38.4590 N   0  0  0  0  0  0  0  0  0  0  0  0
   37.8440   23.6950   38.1030 C   0  0  0  0  0  0  0  0  0  0  0  0
   37.5400   23.8960   36.8060 N   0  0  0  0  0  0  0  0  0  0  0  0
   40.3610   22.6560   35.4170 H   0  0  0  0  0  0  0  0  0  0  0  0
   40.8910   22.3010   37.7920 H   0  0  0  0  0  0  0  0  0  0  0  0
   37.1950   23.9580   38.9150 H   0  0  0  0  0  0  0  0  0  0  0  0
   37.1980   21.4360   33.9290 C   0  0  1  0  0  0  0  0  0  0  0  0
   36.0230   21.0610   34.7200 C   0  0  0  0  0  0  0  0  0  0  0  0
   35.9120   21.0190   33.2190 C   0  0  2  0  0  0  0  0  0  0  0  0
   38.0560   20.7640   33.9400 H   0  0  0  0  0  0  0  0  0  0  0  0
   36.0210   20.1030   35.2620 H   0  0  0  0  0  0  0  0  0  0  0  0
   35.3670   21.8120   35.2340 H   0  0  0  0  0  0  0  0  0  0  0  0
   35.2950   21.7780   32.7260 H   0  0  0  0  0  0  0  0  0  0  0  0
   36.0350   19.6740   32.5580 C   0  0  0  0  0  0  0  0  0  0  0  0
   35.3250   18.5240   32.9040 C   0  0  0  0  0  3  0  0  0  0  0  0
   35.7320   17.5550   32.0710 N   0  0  0  0  0  0  0  0  0  0  0  0
   36.6570   18.1110   31.2550 C   0  0  0  0  0  3  0  0  0  0  0  0
   36.8620   19.4090   31.5320 N   0  0  0  0  0  0  0  0  0  0  0  0
   37.5360   20.0230   31.0170 H   0  0  0  0  0  0  0  0  0  0  0  0
  1  8  1  0  0  0  0
  2  6  1  0  0  0  0
  2  1  2  0  0  0  0
  3  2  1  0  0  0  0
  4  3  2  0  0  0  0
  4  5  1  0  0  0  0
  5 17  1  0  0  0  0
  5  1  1  0  0  0  0
  7  4  1  0  0  0  0
  8  9  2  0  0  0  0
  8 13  1  0  0  0  0
  9 10  1  0  0  0  0
 10 15  1  0  0  0  0
 10 11  2  0  0  0  0
 12 11  1  0  0  0  0
 12 16  1  0  0  0  0
 13 12  2  0  0  0  0
 14  9  1  0  0  0  0
 17 20  1  6  0  0  0
 17 18  1  0  0  0  0
 18 22  1  0  0  0  0
 18 21  1  0  0  0  0
 19 23  1  6  0  0  0
 19 17  1  0  0  0  0
 19 18  1  0  0  0  0
 24 25  2  0  0  0  0
 24 19  1  0  0  0  0
 26 25  1  0  0  0  0
 27 28  1  0  0  0  0
 27 26  2  0  0  0  0
 28 24  1  0  0  0  0
 29 28  1  0  0  0  0
M  END
>  <minimizedAffinity>
-4.59055901

>  <minimizedRMSD>
0.63993752

$$$$
