
 OpenBabel03262519573D

 29 32  0  0  1  0  0  0  0  0999 V2000
   38.1520   23.8740   34.4990 C   0  0  0  0  0  0  0  0  0  0  0  0
   38.3280   25.0930   33.8700 C   0  0  0  0  0  0  0  0  0  0  0  0
   37.9070   24.8620   32.5830 N   0  0  0  0  0  0  0  0  0  0  0  0
   37.5200   23.5940   32.4990 C   0  0  0  0  0  0  0  0  0  0  0  0
   37.6580   22.9450   33.6740 N   0  0  0  0  0  0  0  0  0  0  0  0
   38.7180   26.0060   34.3410 H   0  0  0  0  0  0  0  0  0  0  0  0
   37.1530   23.2360   31.5330 H   0  0  0  0  0  0  0  0  0  0  0  0
   38.4610   23.6130   35.8940 C   0  0  0  0  0  0  0  0  0  0  0  0
   39.6740   23.0150   36.2560 C   0  0  0  0  0  0  0  0  0  0  0  0
   39.9240   22.7840   37.6280 C   0  0  0  0  0  0  0  0  0  0  0  0
   38.9740   23.1560   38.5080 N   0  0  0  0  0  0  0  0  0  0  0  0
   37.8150   23.7300   38.1320 C   0  0  0  0  0  0  0  0  0  0  0  0
   37.5490   23.9620   36.8310 N   0  0  0  0  0  0  0  0  0  0  0  0
   40.4020   22.7380   35.4940 H   0  0  0  0  0  0  0  0  0  0  0  0
   40.8620   22.3250   37.8750 H   0  0  0  0  0  0  0  0  0  0  0  0
   37.1440   23.9770   38.9300 H   0  0  0  0  0  0  0  0  0  0  0  0
   37.3180   21.5610   33.8770 C   0  0  1  0  0  0  0  0  0  0  0  0
   36.2080   21.1470   34.7380 C   0  0  0  0  0  0  0  0  0  0  0  0
   35.9760   21.1900   33.2510 C   0  0  2  0  0  0  0  0  0  0  0  0
   38.1690   20.8860   33.7810 H   0  0  0  0  0  0  0  0  0  0  0  0
   36.2400   20.1610   35.2240 H   0  0  0  0  0  0  0  0  0  0  0  0
   35.6020   21.8720   35.3430 H   0  0  0  0  0  0  0  0  0  0  0  0
   35.3280   21.9780   32.8510 H   0  0  0  0  0  0  0  0  0  0  0  0
   36.0330   19.8840   32.5080 C   0  0  0  0  0  0  0  0  0  0  0  0
   35.4130   18.6960   32.8940 C   0  0  0  0  0  3  0  0  0  0  0  0
   35.7160   17.7820   31.9610 N   0  0  0  0  0  0  0  0  0  0  0  0
   36.4940   18.4080   31.0460 C   0  0  0  0  0  3  0  0  0  0  0  0
   36.7040   19.6970   31.3590 N   0  0  0  0  0  0  0  0  0  0  0  0
   37.2780   20.3570   30.7830 H   0  0  0  0  0  0  0  0  0  0  0  0
  1  8  1  0  0  0  0
  2  6  1  0  0  0  0
  2  1  2  0  0  0  0
  3  2  1  0  0  0  0
  4  3  2  0  0  0  0
  4  5  1  0  0  0  0
  5 17  1  0  0  0  0
  5  1  1  0  0  0  0
  7  4  1  0  0  0  0
  8  9  2  0  0  0  0
  8 13  1  0  0  0  0
  9 10  1  0  0  0  0
 10 15  1  0  0  0  0
 10 11  2  0  0  0  0
 12 11  1  0  0  0  0
 12 16  1  0  0  0  0
 13 12  2  0  0  0  0
 14  9  1  0  0  0  0
 17 20  1  6  0  0  0
 17 18  1  0  0  0  0
 18 21  1  0  0  0  0
 18 22  1  0  0  0  0
 19 23  1  6  0  0  0
 19 17  1  0  0  0  0
 19 18  1  0  0  0  0
 24 25  2  0  0  0  0
 24 19  1  0  0  0  0
 26 25  1  0  0  0  0
 27 28  1  0  0  0  0
 27 26  2  0  0  0  0
 28 24  1  0  0  0  0
 29 28  1  0  0  0  0
M  END
>  <minimizedAffinity>
-4.5757556

>  <minimizedRMSD>
0.767375052

$$$$
