
 OpenBabel03262520003D

 32 35  0  0  1  0  0  0  0  0999 V2000
   37.5330   23.3250   32.6700 C   0  0  0  0  0  0  0  0  0  0  0  0
   37.6570   22.0760   32.0620 C   0  0  0  0  0  0  0  0  0  0  0  0
   38.1380   21.2780   33.0630 N   0  0  0  0  0  0  0  0  0  0  0  0
   38.2720   22.0300   34.1520 C   0  0  0  0  0  0  0  0  0  0  0  0
   37.9070   23.2900   33.9360 N   0  0  0  0  0  0  0  0  0  0  0  0
   37.4090   21.8690   31.0300 H   0  0  0  0  0  0  0  0  0  0  0  0
   38.6550   21.4760   35.0200 H   0  0  0  0  0  0  0  0  0  0  0  0
   37.0600   24.5240   31.9930 C   0  0  0  0  0  0  0  0  0  0  0  0
   37.9850   25.5190   31.6130 C   0  0  0  0  0  0  0  0  0  0  0  0
   37.4850   26.6640   30.9570 C   0  0  0  0  0  0  0  0  0  0  0  0
   36.1450   26.7270   30.7370 N   0  0  0  0  0  0  0  0  0  0  0  0
   35.2920   25.7520   31.1180 C   0  0  0  0  0  0  0  0  0  0  0  0
   35.7410   24.6500   31.7440 N   0  0  0  0  0  0  0  0  0  0  0  0
   39.0330   25.3870   31.8270 H   0  0  0  0  0  0  0  0  0  0  0  0
   38.1690   27.4440   30.6530 H   0  0  0  0  0  0  0  0  0  0  0  0
   34.2580   25.9490   30.8730 H   0  0  0  0  0  0  0  0  0  0  0  0
   37.9510   24.2870   34.9380 C   0  0  1  0  0  0  0  0  0  0  0  0
   38.6610   24.2250   36.1860 C   0  0  0  0  0  0  0  0  0  0  0  0
   39.2210   25.0690   35.0000 C   0  0  1  0  0  0  0  0  0  0  0  0
   36.9920   24.9150   34.9530 H   0  0  0  0  0  0  0  0  0  0  0  0
   39.2750   23.3510   36.4390 H   0  0  0  0  0  0  0  0  0  0  0  0
   38.3460   24.7860   37.0830 H   0  0  0  0  0  0  0  0  0  0  0  0
   40.6190   24.5640   34.7380 C   0  0  0  0  0  0  0  0  0  0  0  0
   41.5930   23.9870   35.5290 C   0  0  0  0  0  3  0  0  0  0  0  0
   42.6350   23.7560   34.7070 N   0  0  0  0  0  0  0  0  0  0  0  0
   42.3120   24.1720   33.4670 C   0  0  0  0  0  3  0  0  0  0  0  0
   41.0470   24.6810   33.4790 N   0  0  0  0  0  0  0  0  0  0  0  0
   40.6340   25.0530   32.5880 H   0  0  0  0  0  0  0  0  0  0  0  0
   39.1090   26.5500   35.2950 C   0  0  0  0  0  0  0  0  0  0  0  0
   38.1860   27.1300   34.4460 F   0  0  0  0  0  0  0  0  0  0  0  0
   38.5050   26.7010   36.6120 F   0  0  0  0  0  0  0  0  0  0  0  0
   40.2860   27.1910   35.3470 F   0  0  0  0  0  0  0  0  0  0  0  0
  1  5  1  0  0  0  0
  2  1  2  0  0  0  0
  2  3  1  0  0  0  0
  3  4  2  0  0  0  0
  4  7  1  0  0  0  0
  5  4  1  0  0  0  0
  5 17  1  0  0  0  0
  6  2  1  0  0  0  0
  8  1  1  0  0  0  0
  9 14  1  0  0  0  0
  9  8  2  0  0  0  0
 10  9  1  0  0  0  0
 11 10  2  0  0  0  0
 11 12  1  0  0  0  0
 12 13  2  0  0  0  0
 13  8  1  0  0  0  0
 15 10  1  0  0  0  0
 16 12  1  0  0  0  0
 17 20  1  1  0  0  0
 17 19  1  0  0  0  0
 17 18  1  0  0  0  0
 18 21  1  0  0  0  0
 18 22  1  0  0  0  0
 19 29  1  1  0  0  0
 19 18  1  0  0  0  0
 23 19  1  0  0  0  0
 23 24  2  0  0  0  0
 25 24  1  0  0  0  0
 26 27  1  0  0  0  0
 26 25  2  0  0  0  0
 27 23  1  0  0  0  0
 28 27  1  0  0  0  0
 29 32  1  0  0  0  0
 29 31  1  0  0  0  0
 30 29  1  0  0  0  0
M  END
>  <minimizedAffinity>
-4.57162714

>  <minimizedRMSD>
4.26570034

$$$$
