
 OpenBabel03262519593D

 32 35  0  0  1  0  0  0  0  0999 V2000
   38.7960   23.5840   32.0380 C   0  0  0  0  0  0  0  0  0  0  0  0
   38.5800   22.2310   31.7800 C   0  0  0  0  0  0  0  0  0  0  0  0
   37.7400   21.8420   32.7870 N   0  0  0  0  0  0  0  0  0  0  0  0
   37.5050   22.9050   33.5510 C   0  0  0  0  0  0  0  0  0  0  0  0
   38.1410   23.9870   33.1130 N   0  0  0  0  0  0  0  0  0  0  0  0
   39.0140   21.6870   30.9530 H   0  0  0  0  0  0  0  0  0  0  0  0
   36.8350   22.6950   34.3970 H   0  0  0  0  0  0  0  0  0  0  0  0
   39.6450   24.4490   31.2310 C   0  0  0  0  0  0  0  0  0  0  0  0
   40.9860   24.6620   31.6150 C   0  0  0  0  0  0  0  0  0  0  0  0
   41.7740   25.5050   30.8030 C   0  0  0  0  0  0  0  0  0  0  0  0
   41.1860   26.0520   29.7060 N   0  0  0  0  0  0  0  0  0  0  0  0
   39.8970   25.8220   29.3730 C   0  0  0  0  0  0  0  0  0  0  0  0
   39.1230   25.0230   30.1280 N   0  0  0  0  0  0  0  0  0  0  0  0
   41.3710   24.1880   32.5020 H   0  0  0  0  0  0  0  0  0  0  0  0
   42.8060   25.6880   31.0710 H   0  0  0  0  0  0  0  0  0  0  0  0
   39.5770   26.3280   28.4740 H   0  0  0  0  0  0  0  0  0  0  0  0
   38.0500   25.2450   33.7500 C   0  0  1  0  0  0  0  0  0  0  0  0
   37.3400   25.5500   34.9620 C   0  0  0  0  0  0  0  0  0  0  0  0
   38.8920   25.4020   34.9710 C   0  0  1  0  0  0  0  0  0  0  0  0
   38.1210   26.1070   32.9960 H   0  0  0  0  0  0  0  0  0  0  0  0
   36.8150   24.7620   35.5160 H   0  0  0  0  0  0  0  0  0  0  0  0
   36.9410   26.5540   35.1850 H   0  0  0  0  0  0  0  0  0  0  0  0
   39.2150   24.3460   36.0000 C   0  0  0  0  0  0  0  0  0  0  0  0
   38.6190   23.9430   37.1800 C   0  0  0  0  0  3  0  0  0  0  0  0
   39.3890   22.9420   37.6480 N   0  0  0  0  0  0  0  0  0  0  0  0
   40.4100   22.7400   36.7940 C   0  0  0  0  0  3  0  0  0  0  0  0
   40.3070   23.6190   35.7570 N   0  0  0  0  0  0  0  0  0  0  0  0
   41.0280   23.5980   34.9920 H   0  0  0  0  0  0  0  0  0  0  0  0
   39.5590   26.7450   35.1870 C   0  0  0  0  0  0  0  0  0  0  0  0
   40.9310   26.5880   35.2180 F   0  0  0  0  0  0  0  0  0  0  0  0
   39.3340   27.5530   33.9950 F   0  0  0  0  0  0  0  0  0  0  0  0
   39.0620   27.4470   36.2150 F   0  0  0  0  0  0  0  0  0  0  0  0
  1  5  1  0  0  0  0
  2  1  2  0  0  0  0
  2  3  1  0  0  0  0
  3  4  2  0  0  0  0
  4  7  1  0  0  0  0
  5  4  1  0  0  0  0
  5 17  1  0  0  0  0
  6  2  1  0  0  0  0
  8  9  1  0  0  0  0
  8  1  1  0  0  0  0
  9 14  1  0  0  0  0
 10 15  1  0  0  0  0
 10  9  2  0  0  0  0
 11 10  1  0  0  0  0
 12 11  2  0  0  0  0
 12 13  1  0  0  0  0
 13  8  2  0  0  0  0
 16 12  1  0  0  0  0
 17 20  1  6  0  0  0
 17 18  1  0  0  0  0
 17 19  1  0  0  0  0
 18 19  1  0  0  0  0
 18 22  1  0  0  0  0
 18 21  1  0  0  0  0
 19 29  1  1  0  0  0
 19 23  1  0  0  0  0
 23 24  2  0  0  0  0
 24 25  1  0  0  0  0
 26 25  2  0  0  0  0
 27 23  1  0  0  0  0
 27 26  1  0  0  0  0
 28 27  1  0  0  0  0
 29 30  1  0  0  0  0
 29 32  1  0  0  0  0
 31 29  1  0  0  0  0
M  END
>  <minimizedAffinity>
-4.2012167

>  <minimizedRMSD>
3.85891056

$$$$
