
 OpenBabel03262519343D

 21 22  0  0  0  0  0  0  0  0999 V2000
   37.6390   23.9710   36.8090 C   0  0  0  0  0  0  0  0  0  0  0  0
   36.7880   23.4220   36.4120 H   0  0  0  0  0  0  0  0  0  0  0  0
   37.5080   24.2400   37.8840 H   0  0  0  0  0  0  0  0  0  0  0  0
   40.8680   22.1670   37.6120 C   0  0  0  0  0  0  0  0  0  0  0  0
   39.6900   22.8910   37.8170 C   0  0  0  0  0  0  0  0  0  0  0  0
   38.9230   23.1970   36.6940 C   0  0  0  0  0  0  0  0  0  0  0  0
   39.3590   22.7780   35.4790 N   0  0  0  0  0  0  0  0  0  0  0  0
   40.5030   22.0810   35.3200 C   0  0  0  0  0  0  0  0  0  0  0  0
   41.2530   21.7790   36.3950 N   0  0  0  0  0  0  0  0  0  0  0  0
   41.4330   21.9510   38.5100 H   0  0  0  0  0  0  0  0  0  0  0  0
   39.3470   23.2200   38.7810 H   0  0  0  0  0  0  0  0  0  0  0  0
   40.8030   21.7720   34.3260 H   0  0  0  0  0  0  0  0  0  0  0  0
   37.8460   25.2170   36.0070 C   0  0  0  0  0  0  0  0  0  0  0  0
   37.4330   25.1920   34.6900 C   0  0  0  0  0  0  0  0  0  0  0  0
   36.9770   24.2810   34.2870 H   0  0  0  0  0  0  0  0  0  0  0  0
   37.5500   26.2610   33.8070 C   0  0  0  0  0  0  0  0  0  0  0  0
   38.1290   27.4350   34.2990 C   0  0  0  0  0  0  0  0  0  0  0  0
   38.2260   28.2690   33.6270 H   0  0  0  0  0  0  0  0  0  0  0  0
   38.5420   27.4580   35.6150 C   0  0  0  0  0  0  0  0  0  0  0  0
   38.9900   28.3810   35.9790 H   0  0  0  0  0  0  0  0  0  0  0  0
   38.4220   26.3970   36.4830 C   0  0  0  0  0  0  0  0  0  0  0  0
  1  3  1  0  0  0  0
  2  1  1  0  0  0  0
  4  5  1  0  0  0  0
  4 10  1  0  0  0  0
  5 11  1  0  0  0  0
  6  1  1  0  0  0  0
  6  5  2  0  0  0  0
  7  6  1  0  0  0  0
  8  7  2  0  0  0  0
  8  9  1  0  0  0  0
  9  4  2  0  0  0  0
 12  8  1  0  0  0  0
 13 21  1  0  0  0  0
 13  1  1  0  0  0  0
 14 13  2  0  0  0  0
 15 14  1  0  0  0  0
 16 17  2  0  0  0  0
 16 14  1  0  0  0  0
 17 19  1  0  0  0  0
 18 17  1  0  0  0  0
 19 20  1  0  0  0  0
 19 21  2  0  0  0  0
M  END
>  <minimizedAffinity>
-3.74746871

>  <minimizedRMSD>
2.20135188

$$$$
