
 OpenBabel03262519563D

 29 32  0  0  1  0  0  0  0  0999 V2000
   38.0960   23.7070   34.4970 C   0  0  0  0  0  0  0  0  0  0  0  0
   38.3030   24.8840   33.8000 C   0  0  0  0  0  0  0  0  0  0  0  0
   37.8420   24.6020   32.5380 N   0  0  0  0  0  0  0  0  0  0  0  0
   37.4040   23.3480   32.5300 C   0  0  0  0  0  0  0  0  0  0  0  0
   37.5460   22.7570   33.7360 N   0  0  0  0  0  0  0  0  0  0  0  0
   38.7400   25.8040   34.2120 H   0  0  0  0  0  0  0  0  0  0  0  0
   37.0000   22.9550   31.5940 H   0  0  0  0  0  0  0  0  0  0  0  0
   38.4290   23.5090   35.8970 C   0  0  0  0  0  0  0  0  0  0  0  0
   39.6470   22.9220   36.2650 C   0  0  0  0  0  0  0  0  0  0  0  0
   39.9200   22.7530   37.6410 C   0  0  0  0  0  0  0  0  0  0  0  0
   38.9870   23.1680   38.5190 N   0  0  0  0  0  0  0  0  0  0  0  0
   37.8230   23.7290   38.1380 C   0  0  0  0  0  0  0  0  0  0  0  0
   37.5350   23.9040   36.8340 N   0  0  0  0  0  0  0  0  0  0  0  0
   40.3590   22.6090   35.5030 H   0  0  0  0  0  0  0  0  0  0  0  0
   40.8610   22.3010   37.8910 H   0  0  0  0  0  0  0  0  0  0  0  0
   37.1680   24.0150   38.9370 H   0  0  0  0  0  0  0  0  0  0  0  0
   37.1580   21.4000   34.0200 C   0  0  1  0  0  0  0  0  0  0  0  0
   36.0230   21.0790   34.8900 C   0  0  0  0  0  0  0  0  0  0  0  0
   35.8120   21.0350   33.3990 C   0  0  2  0  0  0  0  0  0  0  0  0
   37.9860   20.6930   33.9790 H   0  0  0  0  0  0  0  0  0  0  0  0
   36.0170   20.1240   35.4380 H   0  0  0  0  0  0  0  0  0  0  0  0
   35.4350   21.8600   35.4400 H   0  0  0  0  0  0  0  0  0  0  0  0
   35.1950   21.8170   32.9420 H   0  0  0  0  0  0  0  0  0  0  0  0
   35.8340   19.6830   32.7420 C   0  0  0  0  0  0  0  0  0  0  0  0
   36.4430   19.3750   31.5250 C   0  0  0  0  0  3  0  0  0  0  0  0
   36.2280   18.0690   31.3070 N   0  0  0  0  0  0  0  0  0  0  0  0
   35.5150   17.6130   32.3620 C   0  0  0  0  0  3  0  0  0  0  0  0
   35.2590   18.5830   33.2560 N   0  0  0  0  0  0  0  0  0  0  0  0
   34.7210   18.4400   34.1430 H   0  0  0  0  0  0  0  0  0  0  0  0
  1  8  1  0  0  0  0
  2  6  1  0  0  0  0
  2  1  2  0  0  0  0
  3  2  1  0  0  0  0
  4  3  2  0  0  0  0
  4  5  1  0  0  0  0
  5 17  1  0  0  0  0
  5  1  1  0  0  0  0
  7  4  1  0  0  0  0
  8  9  2  0  0  0  0
  8 13  1  0  0  0  0
  9 10  1  0  0  0  0
 10 15  1  0  0  0  0
 10 11  2  0  0  0  0
 12 11  1  0  0  0  0
 12 16  1  0  0  0  0
 13 12  2  0  0  0  0
 14  9  1  0  0  0  0
 17 20  1  6  0  0  0
 17 18  1  0  0  0  0
 18 21  1  0  0  0  0
 18 22  1  0  0  0  0
 19 23  1  6  0  0  0
 19 17  1  0  0  0  0
 19 18  1  0  0  0  0
 24 28  1  0  0  0  0
 24 19  1  0  0  0  0
 25 24  2  0  0  0  0
 26 25  1  0  0  0  0
 26 27  2  0  0  0  0
 27 28  1  0  0  0  0
 28 29  1  0  0  0  0
M  END
>  <minimizedAffinity>
-4.76308107

>  <minimizedRMSD>
0.4981139

$$$$
