
 OpenBabel03262518313D

 33 36  0  0  0  0  0  0  0  0999 V2000
   37.5970   24.8500   36.4590 O   0  0  0  0  0  0  0  0  0  0  0  0
   39.6700   22.6230   38.2490 N   0  0  0  0  0  0  0  0  0  0  0  0
   38.5890   23.3820   38.0950 N   0  0  0  0  0  0  0  0  0  0  0  0
   38.6400   23.9850   36.8660 C   0  0  0  0  0  0  0  0  0  0  0  0
   39.7990   23.5870   36.2280 C   0  0  0  0  0  0  0  0  0  0  0  0
   40.4030   22.7420   37.1300 C   0  0  0  0  0  0  0  0  0  0  0  0
   39.8720   22.0560   39.1010 H   0  0  0  0  0  0  0  0  0  0  0  0
   40.0680   23.9230   35.2530 H   0  0  0  0  0  0  0  0  0  0  0  0
   41.6960   22.0670   36.8660 C   0  0  0  0  0  0  0  0  0  0  0  0
   42.7110   22.7450   36.2360 C   0  0  0  0  0  0  0  0  0  0  0  0
   43.8680   22.0380   36.0350 C   0  0  0  0  0  0  0  0  0  0  0  0
   44.0670   20.7530   36.4090 N   0  0  0  0  0  0  0  0  0  0  0  0
   43.0530   20.1150   37.0250 C   0  0  0  0  0  0  0  0  0  0  0  0
   41.9090   20.7990   37.2280 N   0  0  0  0  0  0  0  0  0  0  0  0
   42.6120   23.7820   35.9110 H   0  0  0  0  0  0  0  0  0  0  0  0
   44.7380   22.4790   35.5440 H   0  0  0  0  0  0  0  0  0  0  0  0
   42.9820   19.0920   37.4110 H   0  0  0  0  0  0  0  0  0  0  0  0
   37.8800   26.0050   35.7500 C   0  0  0  0  0  0  0  0  0  0  0  0
   38.5150   26.9640   36.2710 O   0  0  0  0  0  0  0  0  0  0  0  0
   37.4390   26.1290   34.3610 C   0  0  0  0  0  0  0  0  0  0  0  0
   37.6730   25.0550   33.5170 C   0  0  0  0  0  0  0  0  0  0  0  0
   37.2540   25.1610   32.1830 C   0  0  0  0  0  0  0  0  0  0  0  0
   36.6470   26.3150   31.8160 N   0  0  0  0  0  0  0  0  0  0  0  0
   36.4410   27.3150   32.6480 C   0  0  0  0  0  0  0  0  0  0  0  0
   36.8270   27.2520   33.9340 N   0  0  0  0  0  0  0  0  0  0  0  0
   38.1620   24.1320   33.8240 H   0  0  0  0  0  0  0  0  0  0  0  0
   37.4180   24.3380   31.4760 H   0  0  0  0  0  0  0  0  0  0  0  0
   35.7810   28.5360   32.1990 C   0  0  0  0  0  0  0  0  0  0  0  0
   36.1110   29.3510   31.1360 C   0  0  0  0  0  0  0  0  0  0  0  0
   35.2320   30.3740   31.0830 N   0  0  0  0  0  0  0  0  0  0  0  0
   34.3330   30.2370   32.0970 C   0  0  0  0  0  0  0  0  0  0  0  0
   34.7100   29.1190   32.7350 N   0  0  0  0  0  0  0  0  0  0  0  0
   34.1430   28.8110   33.5750 H   0  0  0  0  0  0  0  0  0  0  0  0
  1  4  1  0  0  0  0
  2  7  1  0  0  0  0
  3  2  1  0  0  0  0
  4  3  2  0  0  0  0
  5  4  1  0  0  0  0
  5  6  2  0  0  0  0
  6  2  1  0  0  0  0
  8  5  1  0  0  0  0
  9  6  1  0  0  0  0
  9 14  1  0  0  0  0
 10  9  2  0  0  0  0
 11 10  1  0  0  0  0
 11 12  2  0  0  0  0
 12 13  1  0  0  0  0
 13 14  2  0  0  0  0
 13 17  1  0  0  0  0
 15 10  1  0  0  0  0
 16 11  1  0  0  0  0
 18 19  2  0  0  0  0
 18  1  1  0  0  0  0
 20 18  1  0  0  0  0
 21 26  1  0  0  0  0
 21 20  2  0  0  0  0
 22 21  1  0  0  0  0
 23 22  2  0  0  0  0
 23 24  1  0  0  0  0
 24 25  2  0  0  0  0
 25 20  1  0  0  0  0
 27 22  1  0  0  0  0
 28 24  1  0  0  0  0
 28 32  1  0  0  0  0
 29 28  2  0  0  0  0
 30 29  1  0  0  0  0
 30 31  2  0  0  0  0
 31 32  1  0  0  0  0
 32 33  1  0  0  0  0
M  END
>  <minimizedAffinity>
-5.68385553

>  <minimizedRMSD>
0.842696071

$$$$
