
 OpenBabel03262519573D

 29 32  0  0  1  0  0  0  0  0999 V2000
   37.9300   23.4160   34.1750 C   0  0  0  0  0  0  0  0  0  0  0  0
   38.0530   24.5810   33.4400 C   0  0  0  0  0  0  0  0  0  0  0  0
   37.4320   24.2860   32.2510 N   0  0  0  0  0  0  0  0  0  0  0  0
   36.9910   23.0350   32.3180 C   0  0  0  0  0  0  0  0  0  0  0  0
   37.2820   22.4600   33.5030 N   0  0  0  0  0  0  0  0  0  0  0  0
   38.5440   25.5040   33.7800 H   0  0  0  0  0  0  0  0  0  0  0  0
   36.4670   22.6320   31.4470 H   0  0  0  0  0  0  0  0  0  0  0  0
   38.4380   23.2350   35.5230 C   0  0  0  0  0  0  0  0  0  0  0  0
   39.6950   22.6560   35.7400 C   0  0  0  0  0  0  0  0  0  0  0  0
   40.1410   22.5020   37.0730 C   0  0  0  0  0  0  0  0  0  0  0  0
   39.3250   22.9240   38.0580 N   0  0  0  0  0  0  0  0  0  0  0  0
   38.1200   23.4770   37.8210 C   0  0  0  0  0  0  0  0  0  0  0  0
   37.6680   23.6370   36.5610 N   0  0  0  0  0  0  0  0  0  0  0  0
   40.3070   22.3360   34.8980 H   0  0  0  0  0  0  0  0  0  0  0  0
   41.1080   22.0570   37.2070 H   0  0  0  0  0  0  0  0  0  0  0  0
   37.5690   23.7700   38.6930 H   0  0  0  0  0  0  0  0  0  0  0  0
   36.9260   21.1100   33.8550 C   0  0  1  0  0  0  0  0  0  0  0  0
   35.7610   20.8010   34.6880 C   0  0  0  0  0  0  0  0  0  0  0  0
   35.6250   20.6580   33.1950 C   0  0  2  0  0  0  0  0  0  0  0  0
   37.7780   20.4320   33.8980 H   0  0  0  0  0  0  0  0  0  0  0  0
   35.7590   19.8830   35.2950 H   0  0  0  0  0  0  0  0  0  0  0  0
   35.1200   21.5930   35.1590 H   0  0  0  0  0  0  0  0  0  0  0  0
   35.0060   21.3870   32.6600 H   0  0  0  0  0  0  0  0  0  0  0  0
   35.7250   19.2700   32.6260 C   0  0  0  0  0  0  0  0  0  0  0  0
   36.5030   18.8880   31.5340 C   0  0  0  0  0  3  0  0  0  0  0  0
   36.3050   17.5730   31.3610 N   0  0  0  0  0  0  0  0  0  0  0  0
   35.4370   17.1830   32.3220 C   0  0  0  0  0  3  0  0  0  0  0  0
   35.0660   18.2050   33.1120 N   0  0  0  0  0  0  0  0  0  0  0  0
   34.4000   18.1160   33.9160 H   0  0  0  0  0  0  0  0  0  0  0  0
  1  8  1  0  0  0  0
  2  6  1  0  0  0  0
  2  1  2  0  0  0  0
  3  4  2  0  0  0  0
  3  2  1  0  0  0  0
  4  5  1  0  0  0  0
  5 17  1  0  0  0  0
  5  1  1  0  0  0  0
  7  4  1  0  0  0  0
  8  9  2  0  0  0  0
  8 13  1  0  0  0  0
  9 10  1  0  0  0  0
 10 15  1  0  0  0  0
 10 11  2  0  0  0  0
 12 11  1  0  0  0  0
 12 16  1  0  0  0  0
 13 12  2  0  0  0  0
 14  9  1  0  0  0  0
 17 20  1  1  0  0  0
 17 18  1  0  0  0  0
 18 22  1  0  0  0  0
 18 21  1  0  0  0  0
 19 23  1  6  0  0  0
 19 17  1  0  0  0  0
 19 18  1  0  0  0  0
 24 28  1  0  0  0  0
 24 19  1  0  0  0  0
 25 24  2  0  0  0  0
 26 25  1  0  0  0  0
 26 27  2  0  0  0  0
 27 28  1  0  0  0  0
 28 29  1  0  0  0  0
M  END
>  <minimizedAffinity>
-4.75937462

>  <minimizedRMSD>
0.621704042

$$$$
