
 OpenBabel03262519363D

 30 32  0  0  1  0  0  0  0  0999 V2000
   37.5950   25.4650   34.5580 N   0  0  0  0  0  0  0  0  0  0  0  0
   37.2210   25.7580   33.2220 C   0  0  0  0  0  0  0  0  0  0  0  0
   36.9950   27.2540   33.1770 C   0  0  0  0  0  0  0  0  0  0  0  0
   37.2870   27.7260   34.5980 C   0  0  0  0  0  0  0  0  0  0  0  0
   38.2880   26.6570   34.9970 C   0  0  2  0  0  0  0  0  0  0  0  0
   36.3200   25.2040   32.8740 H   0  0  0  0  0  0  0  0  0  0  0  0
   38.0310   25.4670   32.5280 H   0  0  0  0  0  0  0  0  0  0  0  0
   37.5990   27.7820   32.4330 H   0  0  0  0  0  0  0  0  0  0  0  0
   35.8910   27.4150   33.0210 H   0  0  0  0  0  0  0  0  0  0  0  0
   37.7340   28.7300   34.5120 H   0  0  0  0  0  0  0  0  0  0  0  0
   36.4040   27.6580   35.2460 H   0  0  0  0  0  0  0  0  0  0  0  0
   38.3780   26.6680   36.0870 H   0  0  0  0  0  0  0  0  0  0  0  0
   39.6020   26.8620   34.3590 C   0  0  0  0  0  0  0  0  0  0  0  0
   40.8290   26.7050   34.8570 N   0  0  0  0  0  0  0  0  0  0  0  0
   41.7080   26.9870   33.9730 O   0  0  0  0  0  0  0  0  0  0  0  0
   41.1130   27.3440   32.8500 C   0  0  0  0  0  0  0  0  0  0  0  0
   41.4630   27.6540   31.8790 H   0  0  0  0  0  0  0  0  0  0  0  0
   39.7930   27.2720   33.0720 N   0  0  0  0  0  0  0  0  0  0  0  0
   38.4960   24.3600   34.7050 C   0  0  0  0  0  0  0  0  0  0  0  0
   39.4930   24.5570   34.2300 H   0  0  0  0  0  0  0  0  0  0  0  0
   38.0460   23.4870   34.1620 H   0  0  0  0  0  0  0  0  0  0  0  0
   37.8320   23.7190   38.3730 C   0  0  0  0  0  0  0  0  0  0  0  0
   37.6220   24.1490   37.0670 C   0  0  0  0  0  0  0  0  0  0  0  0
   38.6460   23.9290   36.1220 C   0  0  0  0  0  0  0  0  0  0  0  0
   39.7900   23.3030   36.5500 N   0  0  0  0  0  0  0  0  0  0  0  0
   39.9400   22.9060   37.8360 C   0  0  0  0  0  0  0  0  0  0  0  0
   38.9630   23.1160   38.7320 N   0  0  0  0  0  0  0  0  0  0  0  0
   36.9840   23.9300   39.0420 H   0  0  0  0  0  0  0  0  0  0  0  0
   36.7450   24.6420   36.6860 H   0  0  0  0  0  0  0  0  0  0  0  0
   40.8520   22.4200   38.1260 H   0  0  0  0  0  0  0  0  0  0  0  0
  1 19  1  0  0  0  0
  1  5  1  0  0  0  0
  2  1  1  0  0  0  0
  3  2  1  0  0  0  0
  3  4  1  0  0  0  0
  4  5  1  0  0  0  0
  4 11  1  0  0  0  0
  5 12  1  1  0  0  0
  6  2  1  0  0  0  0
  7  2  1  0  0  0  0
  8  3  1  0  0  0  0
  9  3  1  0  0  0  0
 10  4  1  0  0  0  0
 13 14  2  0  0  0  0
 13  5  1  0  0  0  0
 15 14  1  0  0  0  0
 16 18  2  0  0  0  0
 16 15  1  0  0  0  0
 17 16  1  0  0  0  0
 18 13  1  0  0  0  0
 19 24  1  0  0  0  0
 20 19  1  0  0  0  0
 21 19  1  0  0  0  0
 22 27  1  0  0  0  0
 22 28  1  0  0  0  0
 23 22  2  0  0  0  0
 24 25  2  0  0  0  0
 24 23  1  0  0  0  0
 25 26  1  0  0  0  0
 26 30  1  0  0  0  0
 26 27  2  0  0  0  0
 29 23  1  0  0  0  0
M  END
>  <minimizedAffinity>
-4.39547157

>  <minimizedRMSD>
1.05003035

$$$$
