
 OpenBabel03262518073D

 30 33  0  0  0  0  0  0  0  0999 V2000
   43.6220   19.7290   37.0870 C   0  0  0  0  0  0  0  0  0  0  0  0
   42.4770   20.5070   37.3000 C   0  0  0  0  0  0  0  0  0  0  0  0
   41.9500   21.2210   36.2320 C   0  0  0  0  0  0  0  0  0  0  0  0
   42.5920   21.1190   35.0130 N   0  0  0  0  0  0  0  0  0  0  0  0
   43.6770   20.3730   34.8420 C   0  0  0  0  0  0  0  0  0  0  0  0
   44.2030   19.6670   35.8880 N   0  0  0  0  0  0  0  0  0  0  0  0
   44.0200   19.1800   37.9270 H   0  0  0  0  0  0  0  0  0  0  0  0
   42.0070   20.5600   38.2640 H   0  0  0  0  0  0  0  0  0  0  0  0
   44.3210   20.3090   33.5060 C   0  0  0  0  0  0  0  0  0  0  0  0
   45.6940   20.0730   33.3480 C   0  0  0  0  0  0  0  0  0  0  0  0
   46.2310   20.0260   32.1050 C   0  0  0  0  0  0  0  0  0  0  0  0
   45.3940   20.2130   31.0020 C   0  0  0  0  0  0  0  0  0  0  0  0
   43.7310   20.4750   31.8160 S   0  0  0  0  0  0  0  0  0  0  0  0
   46.3680   19.9230   34.2090 H   0  0  0  0  0  0  0  0  0  0  0  0
   47.2430   19.8590   31.8130 H   0  0  0  0  0  0  0  0  0  0  0  0
   45.6000   20.2320   29.5550 C   0  0  0  0  0  0  0  0  0  0  0  0
   44.9560   19.6600   28.5230 N   0  0  0  0  0  0  0  0  0  0  0  0
   45.5260   19.9770   27.4070 O   0  0  0  0  0  0  0  0  0  0  0  0
   46.5540   20.7570   27.6390 C   0  0  0  0  0  0  0  0  0  0  0  0
   47.3280   21.2750   27.0650 H   0  0  0  0  0  0  0  0  0  0  0  0
   46.6170   20.9300   28.9920 N   0  0  0  0  0  0  0  0  0  0  0  0
   40.7550   22.0610   36.3620 C   0  0  0  0  0  0  0  0  0  0  0  0
   39.9120   22.6580   35.5000 N   0  0  0  0  0  0  0  0  0  0  0  0
   38.9980   23.3000   36.1660 O   0  0  0  0  0  0  0  0  0  0  0  0
   39.2160   23.1440   37.4710 C   0  0  0  0  0  0  0  0  0  0  0  0
   40.3000   22.3790   37.5940 N   0  0  0  0  0  0  0  0  0  0  0  0
   38.4110   23.7070   38.5750 C   0  0  0  0  0  0  0  0  0  0  0  0
   39.2440   23.8860   39.6890 F   0  0  0  0  0  0  0  0  0  0  0  0
   37.3840   22.8760   38.9200 F   0  0  0  0  0  0  0  0  0  0  0  0
   37.9560   24.9790   38.2380 F   0  0  0  0  0  0  0  0  0  0  0  0
  1  2  1  0  0  0  0
  1  7  1  0  0  0  0
  2  8  1  0  0  0  0
  3 22  1  0  0  0  0
  3  2  2  0  0  0  0
  4  3  1  0  0  0  0
  5  4  2  0  0  0  0
  5  6  1  0  0  0  0
  6  1  2  0  0  0  0
  9  5  1  0  0  0  0
 10  9  2  0  0  0  0
 10 14  1  0  0  0  0
 11 10  1  0  0  0  0
 12 13  1  0  0  0  0
 12 11  2  0  0  0  0
 13  9  1  0  0  0  0
 15 11  1  0  0  0  0
 16 12  1  0  0  0  0
 17 16  2  0  0  0  0
 18 19  1  0  0  0  0
 18 17  1  0  0  0  0
 19 21  2  0  0  0  0
 20 19  1  0  0  0  0
 21 16  1  0  0  0  0
 22 26  1  0  0  0  0
 23 24  1  0  0  0  0
 23 22  2  0  0  0  0
 24 25  1  0  0  0  0
 25 26  2  0  0  0  0
 25 27  1  0  0  0  0
 27 29  1  0  0  0  0
 27 28  1  0  0  0  0
 30 27  1  0  0  0  0
M  END
>  <minimizedAffinity>
-3.88825989

>  <minimizedRMSD>
0.0186845176

$$$$
