
 OpenBabel03262520003D

 32 35  0  0  1  0  0  0  0  0999 V2000
   38.3470   22.8540   34.5800 C   0  0  0  0  0  0  0  0  0  0  0  0
   37.3910   21.9690   34.0890 C   0  0  0  0  0  0  0  0  0  0  0  0
   37.5430   22.0530   32.7320 N   0  0  0  0  0  0  0  0  0  0  0  0
   38.5190   22.9270   32.4880 C   0  0  0  0  0  0  0  0  0  0  0  0
   39.0280   23.4320   33.6060 N   0  0  0  0  0  0  0  0  0  0  0  0
   36.6970   21.3620   34.6610 H   0  0  0  0  0  0  0  0  0  0  0  0
   38.7330   23.0800   31.4240 H   0  0  0  0  0  0  0  0  0  0  0  0
   38.5700   23.1200   35.9930 C   0  0  0  0  0  0  0  0  0  0  0  0
   37.7200   24.0160   36.6760 C   0  0  0  0  0  0  0  0  0  0  0  0
   37.9710   24.2380   38.0510 C   0  0  0  0  0  0  0  0  0  0  0  0
   39.0130   23.5710   38.6160 N   0  0  0  0  0  0  0  0  0  0  0  0
   39.8020   22.7210   37.9230 C   0  0  0  0  0  0  0  0  0  0  0  0
   39.5900   22.4880   36.6180 N   0  0  0  0  0  0  0  0  0  0  0  0
   36.9220   24.4940   36.1330 H   0  0  0  0  0  0  0  0  0  0  0  0
   37.3320   24.9180   38.5850 H   0  0  0  0  0  0  0  0  0  0  0  0
   40.5800   22.2760   38.5210 H   0  0  0  0  0  0  0  0  0  0  0  0
   40.0780   24.3810   33.6170 C   0  0  1  0  0  0  0  0  0  0  0  0
   40.4400   25.2690   32.5460 C   0  0  0  0  0  0  0  0  0  0  0  0
   39.6370   25.8020   33.7680 C   0  0  1  0  0  0  0  0  0  0  0  0
   40.9470   24.0630   34.2990 H   0  0  0  0  0  0  0  0  0  0  0  0
   41.4550   25.6820   32.4370 H   0  0  0  0  0  0  0  0  0  0  0  0
   39.8770   25.2680   31.6120 H   0  0  0  0  0  0  0  0  0  0  0  0
   38.3930   26.4310   33.2220 C   0  0  0  0  0  0  0  0  0  0  0  0
   37.0760   26.1240   33.4100 N   0  0  0  0  0  0  0  0  0  0  0  0
   36.3510   26.9410   32.7390 O   0  0  0  0  0  0  0  0  0  0  0  0
   37.0870   27.8100   32.0870 C   0  0  0  0  0  0  0  0  0  0  0  0
   36.9460   28.6500   31.4200 H   0  0  0  0  0  0  0  0  0  0  0  0
   38.3790   27.5020   32.3800 N   0  0  0  0  0  0  0  0  0  0  0  0
   40.4970   26.7070   34.6260 C   0  0  0  0  0  0  0  0  0  0  0  0
   39.7450   27.2360   35.6540 F   0  0  0  0  0  0  0  0  0  0  0  0
   41.4740   25.8720   35.3160 F   0  0  0  0  0  0  0  0  0  0  0  0
   41.2030   27.6140   33.9360 F   0  0  0  0  0  0  0  0  0  0  0  0
  1  8  1  0  0  0  0
  2  1  2  0  0  0  0
  2  6  1  0  0  0  0
  3  2  1  0  0  0  0
  4  3  2  0  0  0  0
  4  5  1  0  0  0  0
  5 17  1  0  0  0  0
  5  1  1  0  0  0  0
  7  4  1  0  0  0  0
  8 13  2  0  0  0  0
  8  9  1  0  0  0  0
  9 10  2  0  0  0  0
 10 15  1  0  0  0  0
 10 11  1  0  0  0  0
 12 16  1  0  0  0  0
 12 11  2  0  0  0  0
 13 12  1  0  0  0  0
 14  9  1  0  0  0  0
 17 19  1  0  0  0  0
 17 20  1  1  0  0  0
 18 17  1  0  0  0  0
 18 19  1  0  0  0  0
 19 29  1  1  0  0  0
 21 18  1  0  0  0  0
 22 18  1  0  0  0  0
 23 24  2  0  0  0  0
 23 19  1  0  0  0  0
 25 24  1  0  0  0  0
 26 28  2  0  0  0  0
 26 25  1  0  0  0  0
 27 26  1  0  0  0  0
 28 23  1  0  0  0  0
 29 31  1  0  0  0  0
 29 30  1  0  0  0  0
 32 29  1  0  0  0  0
M  END
>  <minimizedAffinity>
-5.09564447

>  <minimizedRMSD>
4.98929262

$$$$
