
 OpenBabel03262519573D

 29 32  0  0  1  0  0  0  0  0999 V2000
   38.1490   23.9330   34.6280 C   0  0  0  0  0  0  0  0  0  0  0  0
   38.2870   25.1820   34.0100 C   0  0  0  0  0  0  0  0  0  0  0  0
   37.8900   24.9470   32.7270 N   0  0  0  0  0  0  0  0  0  0  0  0
   37.5550   23.6800   32.6190 C   0  0  0  0  0  0  0  0  0  0  0  0
   37.7030   23.0130   33.7850 N   0  0  0  0  0  0  0  0  0  0  0  0
   38.6360   26.1030   34.4840 H   0  0  0  0  0  0  0  0  0  0  0  0
   37.2020   23.2750   31.6610 H   0  0  0  0  0  0  0  0  0  0  0  0
   38.4550   23.6650   36.0200 C   0  0  0  0  0  0  0  0  0  0  0  0
   39.6830   23.0780   36.3700 C   0  0  0  0  0  0  0  0  0  0  0  0
   39.9390   22.8360   37.7350 C   0  0  0  0  0  0  0  0  0  0  0  0
   38.9950   23.1790   38.6270 N   0  0  0  0  0  0  0  0  0  0  0  0
   37.8160   23.7460   38.2560 C   0  0  0  0  0  0  0  0  0  0  0  0
   37.5410   23.9900   36.9630 N   0  0  0  0  0  0  0  0  0  0  0  0
   40.4230   22.8120   35.6370 H   0  0  0  0  0  0  0  0  0  0  0  0
   40.8870   22.3810   38.0190 H   0  0  0  0  0  0  0  0  0  0  0  0
   37.0720   24.0130   39.0040 H   0  0  0  0  0  0  0  0  0  0  0  0
   37.4080   21.6050   33.9580 C   0  0  1  0  0  0  0  0  0  0  0  0
   36.2330   21.1540   34.6860 C   0  0  0  0  0  0  0  0  0  0  0  0
   36.1800   21.1840   33.1710 C   0  0  2  0  0  0  0  0  0  0  0  0
   38.3020   20.9570   33.8370 H   0  0  0  0  0  0  0  0  0  0  0  0
   35.6430   21.9220   35.2460 H   0  0  0  0  0  0  0  0  0  0  0  0
   36.3070   20.1810   35.2170 H   0  0  0  0  0  0  0  0  0  0  0  0
   35.5030   21.9440   32.7530 H   0  0  0  0  0  0  0  0  0  0  0  0
   36.1100   19.8500   32.5710 C   0  0  0  0  0  0  0  0  0  0  0  0
   35.3710   18.8500   33.0990 N   0  0  0  0  0  0  0  0  0  0  0  0
   35.4880   17.7840   32.3720 O   0  0  0  0  0  0  0  0  0  0  0  0
   36.2930   18.0880   31.3820 C   0  0  0  0  0  0  0  0  0  0  0  0
   36.6310   17.4460   30.5620 H   0  0  0  0  0  0  0  0  0  0  0  0
   36.7130   19.3840   31.4640 N   0  0  0  0  0  0  0  0  0  0  0  0
  1  8  1  0  0  0  0
  2  6  1  0  0  0  0
  2  1  2  0  0  0  0
  3  2  1  0  0  0  0
  4  3  2  0  0  0  0
  4  5  1  0  0  0  0
  5 17  1  0  0  0  0
  5  1  1  0  0  0  0
  7  4  1  0  0  0  0
  8  9  2  0  0  0  0
  8 13  1  0  0  0  0
  9 10  1  0  0  0  0
 10 15  1  0  0  0  0
 10 11  2  0  0  0  0
 12 11  1  0  0  0  0
 12 16  1  0  0  0  0
 13 12  2  0  0  0  0
 14  9  1  0  0  0  0
 17 20  1  6  0  0  0
 17 18  1  0  0  0  0
 18 22  1  0  0  0  0
 18 21  1  0  0  0  0
 19 23  1  6  0  0  0
 19 17  1  0  0  0  0
 19 18  1  0  0  0  0
 24 25  2  0  0  0  0
 24 19  1  0  0  0  0
 26 25  1  0  0  0  0
 27 29  2  0  0  0  0
 27 26  1  0  0  0  0
 28 27  1  0  0  0  0
 29 24  1  0  0  0  0
M  END
>  <minimizedAffinity>
-4.58905315

>  <minimizedRMSD>
0.879909098

$$$$
