
 OpenBabel03262518413D

 24 26  0  0  0  0  0  0  0  0999 V2000
   39.0160   22.5390   30.5340 C   0  0  0  0  0  0  0  0  0  0  0  0
   38.3800   23.6680   30.0060 C   0  0  0  0  0  0  0  0  0  0  0  0
   37.4370   24.3200   30.7900 C   0  0  0  0  0  0  0  0  0  0  0  0
   37.1890   23.8100   32.0400 N   0  0  0  0  0  0  0  0  0  0  0  0
   37.8230   22.7240   32.5090 C   0  0  0  0  0  0  0  0  0  0  0  0
   38.7360   22.0780   31.7710 N   0  0  0  0  0  0  0  0  0  0  0  0
   37.4750   22.2950   33.8240 N   0  0  0  0  0  0  0  0  0  0  0  0
   38.1230   22.9130   34.7580 N   0  0  0  0  0  0  0  0  0  0  0  0
   37.7200   22.4330   35.9660 C   0  0  0  0  0  0  0  0  0  0  0  0
   36.7790   21.4750   35.7440 C   0  0  0  0  0  0  0  0  0  0  0  0
   36.6310   21.3950   34.3780 C   0  0  0  0  0  0  0  0  0  0  0  0
   39.9880   21.8640   29.7310 N   0  0  0  0  0  0  0  0  0  0  0  0
   38.5980   24.0430   29.0170 H   0  0  0  0  0  0  0  0  0  0  0  0
   36.9060   25.1980   30.4470 H   0  0  0  0  0  0  0  0  0  0  0  0
   38.0400   22.7100   36.9630 H   0  0  0  0  0  0  0  0  0  0  0  0
   36.1850   20.8300   36.3590 H   0  0  0  0  0  0  0  0  0  0  0  0
   40.4840   22.3860   28.9700 H   0  0  0  0  0  0  0  0  0  0  0  0
   40.1820   20.8500   29.9280 H   0  0  0  0  0  0  0  0  0  0  0  0
   35.8180   20.6070   33.4440 C   0  0  0  0  0  0  0  0  0  0  0  0
   35.7600   19.3130   33.1710 N   0  0  0  0  0  0  0  0  0  0  0  0
   34.8690   19.0760   32.2510 O   0  0  0  0  0  0  0  0  0  0  0  0
   34.3480   20.2480   31.9310 C   0  0  0  0  0  0  0  0  0  0  0  0
   33.5630   20.4160   31.1820 H   0  0  0  0  0  0  0  0  0  0  0  0
   34.9150   21.2510   32.6570 N   0  0  0  0  0  0  0  0  0  0  0  0
  1  6  1  0  0  0  0
  2  1  2  0  0  0  0
  2  3  1  0  0  0  0
  3  4  2  0  0  0  0
  4  5  1  0  0  0  0
  5  7  1  0  0  0  0
  6  5  2  0  0  0  0
  7 11  1  0  0  0  0
  7  8  1  0  0  0  0
  8  9  2  0  0  0  0
  9 15  1  0  0  0  0
 10  9  1  0  0  0  0
 10 16  1  0  0  0  0
 11 10  2  0  0  0  0
 12 18  1  0  0  0  0
 12  1  1  0  0  0  0
 13  2  1  0  0  0  0
 14  3  1  0  0  0  0
 17 12  1  0  0  0  0
 19 11  1  0  0  0  0
 20 19  2  0  0  0  0
 21 20  1  0  0  0  0
 22 21  1  0  0  0  0
 22 24  2  0  0  0  0
 23 22  1  0  0  0  0
 24 19  1  0  0  0  0
M  END
>  <minimizedAffinity>
-3.69456816

>  <minimizedRMSD>
4.66209793

$$$$
