
 OpenBabel03262518363D

 49 52  0  0  0  0  0  0  0  0999 V2000
   37.2460   26.6920   34.6500 C   0  0  0  0  0  0  0  0  0  0  0  0
   37.3460   25.9140   33.5150 C   0  0  0  0  0  0  0  0  0  0  0  0
   36.7830   26.3860   32.3100 C   0  0  0  0  0  0  0  0  0  0  0  0
   36.1760   27.5850   32.3580 N   0  0  0  0  0  0  0  0  0  0  0  0
   36.0910   28.3270   33.4710 C   0  0  0  0  0  0  0  0  0  0  0  0
   36.6210   27.8980   34.6360 N   0  0  0  0  0  0  0  0  0  0  0  0
   37.8510   24.9600   33.5650 H   0  0  0  0  0  0  0  0  0  0  0  0
   36.8450   25.8080   31.4200 H   0  0  0  0  0  0  0  0  0  0  0  0
   37.8340   26.1880   35.8830 C   0  0  0  0  0  0  0  0  0  0  0  0
   38.5780   26.9440   36.5640 O   0  0  0  0  0  0  0  0  0  0  0  0
   37.5720   24.9060   36.2860 O   0  0  0  0  0  0  0  0  0  0  0  0
   39.6100   22.6960   38.1360 N   0  0  0  0  0  0  0  0  0  0  0  0
   38.5320   23.4580   37.9460 N   0  0  0  0  0  0  0  0  0  0  0  0
   38.6030   24.0440   36.7270 C   0  0  0  0  0  0  0  0  0  0  0  0
   39.7620   23.6420   36.1250 C   0  0  0  0  0  0  0  0  0  0  0  0
   40.3670   22.8110   37.0120 C   0  0  0  0  0  0  0  0  0  0  0  0
   39.8530   22.1110   38.9780 H   0  0  0  0  0  0  0  0  0  0  0  0
   40.0610   23.9710   35.1320 H   0  0  0  0  0  0  0  0  0  0  0  0
   41.6620   22.1310   36.7860 C   0  0  0  0  0  0  0  0  0  0  0  0
   42.6850   22.8200   36.1820 C   0  0  0  0  0  0  0  0  0  0  0  0
   43.8590   22.1050   36.0120 C   0  0  0  0  0  0  0  0  0  0  0  0
   44.0520   20.8270   36.3860 N   0  0  0  0  0  0  0  0  0  0  0  0
   43.0100   20.1810   36.9810 C   0  0  0  0  0  0  0  0  0  0  0  0
   41.8500   20.8460   37.1640 N   0  0  0  0  0  0  0  0  0  0  0  0
   42.5740   23.8390   35.8680 H   0  0  0  0  0  0  0  0  0  0  0  0
   44.7060   22.6010   35.5380 H   0  0  0  0  0  0  0  0  0  0  0  0
   43.0860   19.1440   37.3130 H   0  0  0  0  0  0  0  0  0  0  0  0
   35.3920   29.6450   33.3990 C   0  0  0  0  0  0  0  0  0  0  0  0
   35.6030   30.3280   34.7330 C   0  0  0  0  0  0  0  0  0  0  0  0
   34.8600   31.1200   34.9300 H   0  0  0  0  0  0  0  0  0  0  0  0
   35.4580   29.5600   35.5310 H   0  0  0  0  0  0  0  0  0  0  0  0
   36.6540   30.6520   34.8250 H   0  0  0  0  0  0  0  0  0  0  0  0
   33.9100   29.3670   33.2320 C   0  0  0  0  0  0  0  0  0  0  0  0
   33.3340   30.3000   33.3940 H   0  0  0  0  0  0  0  0  0  0  0  0
   33.6880   28.9430   32.2330 H   0  0  0  0  0  0  0  0  0  0  0  0
   33.6040   28.6150   33.9960 H   0  0  0  0  0  0  0  0  0  0  0  0
   35.8780   30.4860   32.2450 C   0  0  0  0  0  0  0  0  0  0  0  0
   36.9440   30.3570   32.0600 H   0  0  0  0  0  0  0  0  0  0  0  0
   35.2420   30.2350   31.3750 H   0  0  0  0  0  0  0  0  0  0  0  0
   35.2810   34.5520   33.2600 C   0  0  0  0  0  0  0  0  0  0  0  0
   34.1590   33.8120   32.9370 C   0  0  0  0  0  0  0  0  0  0  0  0
   34.3470   32.4850   32.6050 C   0  0  0  0  0  0  0  0  0  0  0  0
   35.6210   31.9120   32.5950 C   0  0  0  0  0  0  0  0  0  0  0  0
   36.7020   32.7300   32.9350 C   0  0  0  0  0  0  0  0  0  0  0  0
   36.5710   34.0620   33.2740 C   0  0  0  0  0  0  0  0  0  0  0  0
   34.2500   36.9000   32.8070 H   0  0  0  0  0  0  0  0  0  0  0  0
   35.0690   36.2390   33.6850 S   0  0  0  0  0  0  0  0  0  0  0  0
   36.3850   36.9680   33.7020 O   0  0  0  0  0  0  0  0  0  0  0  0
   34.5130   36.3380   35.0970 O   0  0  0  0  0  0  0  0  0  0  0  0
  1  9  1  0  0  0  0
  2  7  1  0  0  0  0
  2  1  2  0  0  0  0
  3  4  2  0  0  0  0
  3  2  1  0  0  0  0
  4  5  1  0  0  0  0
  5  6  2  0  0  0  0
  6  1  1  0  0  0  0
  8  3  1  0  0  0  0
  9 11  1  0  0  0  0
  9 10  2  0  0  0  0
 11 14  1  0  0  0  0
 12 17  1  0  0  0  0
 13 12  1  0  0  0  0
 14 13  2  0  0  0  0
 15 14  1  0  0  0  0
 15 16  2  0  0  0  0
 16 12  1  0  0  0  0
 18 15  1  0  0  0  0
 19 16  1  0  0  0  0
 19 24  1  0  0  0  0
 20 19  2  0  0  0  0
 21 20  1  0  0  0  0
 21 22  2  0  0  0  0
 22 23  1  0  0  0  0
 23 24  2  0  0  0  0
 23 27  1  0  0  0  0
 25 20  1  0  0  0  0
 26 21  1  0  0  0  0
 28  5  1  0  0  0  0
 28 29  1  0  0  0  0
 29 32  1  0  0  0  0
 29 30  1  0  0  0  0
 29 31  1  0  0  0  0
 33 34  1  0  0  0  0
 33 28  1  0  0  0  0
 33 36  1  0  0  0  0
 35 33  1  0  0  0  0
 37 43  1  0  0  0  0
 37 28  1  0  0  0  0
 38 37  1  0  0  0  0
 39 37  1  0  0  0  0
 40 45  1  0  0  0  0
 40 47  1  0  0  0  0
 41 40  2  0  0  0  0
 42 41  1  0  0  0  0
 43 42  2  0  0  0  0
 43 44  1  0  0  0  0
 44 45  2  0  0  0  0
 46 47  1  0  0  0  0
 47 48  2  0  0  0  0
 47 49  2  0  0  0  0
M  END
>  <minimizedAffinity>
-5.69265509

>  <minimizedRMSD>
1.21478307

$$$$
