
 OpenBabel03262519563D

 29 32  0  0  1  0  0  0  0  0999 V2000
   38.1500   23.9340   34.6290 C   0  0  0  0  0  0  0  0  0  0  0  0
   38.2870   25.1840   34.0120 C   0  0  0  0  0  0  0  0  0  0  0  0
   37.8900   24.9490   32.7290 N   0  0  0  0  0  0  0  0  0  0  0  0
   37.5560   23.6810   32.6210 C   0  0  0  0  0  0  0  0  0  0  0  0
   37.7040   23.0140   33.7860 N   0  0  0  0  0  0  0  0  0  0  0  0
   38.6350   26.1050   34.4870 H   0  0  0  0  0  0  0  0  0  0  0  0
   37.2030   23.2770   31.6630 H   0  0  0  0  0  0  0  0  0  0  0  0
   38.4550   23.6660   36.0220 C   0  0  0  0  0  0  0  0  0  0  0  0
   39.6830   23.0790   36.3720 C   0  0  0  0  0  0  0  0  0  0  0  0
   39.9380   22.8360   37.7370 C   0  0  0  0  0  0  0  0  0  0  0  0
   38.9940   23.1800   38.6280 N   0  0  0  0  0  0  0  0  0  0  0  0
   37.8160   23.7470   38.2580 C   0  0  0  0  0  0  0  0  0  0  0  0
   37.5410   23.9920   36.9650 N   0  0  0  0  0  0  0  0  0  0  0  0
   40.4230   22.8120   35.6390 H   0  0  0  0  0  0  0  0  0  0  0  0
   40.8870   22.3810   38.0210 H   0  0  0  0  0  0  0  0  0  0  0  0
   37.0720   24.0140   39.0060 H   0  0  0  0  0  0  0  0  0  0  0  0
   37.4100   21.6060   33.9590 C   0  0  1  0  0  0  0  0  0  0  0  0
   36.2350   21.1540   34.6870 C   0  0  0  0  0  0  0  0  0  0  0  0
   36.1810   21.1850   33.1720 C   0  0  2  0  0  0  0  0  0  0  0  0
   38.3030   20.9590   33.8370 H   0  0  0  0  0  0  0  0  0  0  0  0
   35.6450   21.9220   35.2480 H   0  0  0  0  0  0  0  0  0  0  0  0
   36.3090   20.1820   35.2180 H   0  0  0  0  0  0  0  0  0  0  0  0
   35.5040   21.9460   32.7550 H   0  0  0  0  0  0  0  0  0  0  0  0
   36.1110   19.8520   32.5720 C   0  0  0  0  0  0  0  0  0  0  0  0
   35.3720   18.8510   33.0990 N   0  0  0  0  0  0  0  0  0  0  0  0
   35.4880   17.7850   32.3720 O   0  0  0  0  0  0  0  0  0  0  0  0
   36.2930   18.0900   31.3820 C   0  0  0  0  0  0  0  0  0  0  0  0
   36.6320   17.4480   30.5620 H   0  0  0  0  0  0  0  0  0  0  0  0
   36.7140   19.3860   31.4650 N   0  0  0  0  0  0  0  0  0  0  0  0
  1  8  1  0  0  0  0
  2  6  1  0  0  0  0
  2  1  2  0  0  0  0
  3  2  1  0  0  0  0
  4  3  2  0  0  0  0
  4  5  1  0  0  0  0
  5 17  1  0  0  0  0
  5  1  1  0  0  0  0
  7  4  1  0  0  0  0
  8  9  2  0  0  0  0
  8 13  1  0  0  0  0
  9 10  1  0  0  0  0
 10 15  1  0  0  0  0
 10 11  2  0  0  0  0
 12 11  1  0  0  0  0
 12 16  1  0  0  0  0
 13 12  2  0  0  0  0
 14  9  1  0  0  0  0
 17 20  1  6  0  0  0
 17 18  1  0  0  0  0
 18 22  1  0  0  0  0
 18 21  1  0  0  0  0
 19 23  1  6  0  0  0
 19 17  1  0  0  0  0
 19 18  1  0  0  0  0
 24 25  2  0  0  0  0
 24 19  1  0  0  0  0
 26 25  1  0  0  0  0
 27 29  2  0  0  0  0
 27 26  1  0  0  0  0
 28 27  1  0  0  0  0
 29 24  1  0  0  0  0
M  END
>  <minimizedAffinity>
-4.5887351

>  <minimizedRMSD>
0.888384461

$$$$
