
 OpenBabel03262517213D

 29 31  0  0  0  0  0  0  0  0999 V2000
   38.0550   23.6740   34.7410 N   0  0  0  0  0  0  0  0  0  0  0  0
   38.0140   22.7470   33.7980 N   0  0  0  0  0  0  0  0  0  0  0  0
   37.5920   23.2420   32.6320 C   0  0  0  0  0  0  0  0  0  0  0  0
   37.3600   24.5770   32.8910 C   0  0  0  0  0  0  0  0  0  0  0  0
   37.6490   24.8560   34.2190 C   0  0  0  0  0  0  0  0  0  0  0  0
   37.4440   22.7690   31.6690 H   0  0  0  0  0  0  0  0  0  0  0  0
   37.5520   23.6400   37.1180 C   0  0  0  0  0  0  0  0  0  0  0  0
   38.4570   23.4630   36.0760 C   0  0  0  0  0  0  0  0  0  0  0  0
   39.7770   23.0740   36.3530 C   0  0  0  0  0  0  0  0  0  0  0  0
   40.0980   22.8870   37.6700 N   0  0  0  0  0  0  0  0  0  0  0  0
   39.2100   23.0610   38.6680 C   0  0  0  0  0  0  0  0  0  0  0  0
   37.9450   23.4360   38.3850 N   0  0  0  0  0  0  0  0  0  0  0  0
   36.5250   23.9380   36.9590 H   0  0  0  0  0  0  0  0  0  0  0  0
   40.4740   22.9380   35.5440 H   0  0  0  0  0  0  0  0  0  0  0  0
   39.6410   22.8690   39.6380 H   0  0  0  0  0  0  0  0  0  0  0  0
   37.5310   26.1250   34.8520 N   0  0  0  0  0  0  0  0  0  0  0  0
   38.6440   26.9810   35.0850 C   0  0  0  0  0  0  0  0  0  0  0  0
   39.5660   26.9800   34.1420 N   0  0  0  0  0  0  0  0  0  0  0  0
   38.6550   27.7470   36.2980 N   0  0  0  0  0  0  0  0  0  0  0  0
   40.3710   27.6110   34.3310 H   0  0  0  0  0  0  0  0  0  0  0  0
   36.5560   26.4220   35.1560 H   0  0  0  0  0  0  0  0  0  0  0  0
   39.5280   27.9000   36.8790 H   0  0  0  0  0  0  0  0  0  0  0  0
   37.7790   28.1690   36.6230 H   0  0  0  0  0  0  0  0  0  0  0  0
   36.8820   25.5780   31.9450 C   0  0  0  0  0  0  0  0  0  0  0  0
   35.7840   25.4880   31.1840 N   0  0  0  0  0  0  0  0  0  0  0  0
   35.6720   26.5760   30.4590 O   0  0  0  0  0  0  0  0  0  0  0  0
   36.6780   27.4030   30.7180 C   0  0  0  0  0  0  0  0  0  0  0  0
   36.7840   28.3650   30.2300 H   0  0  0  0  0  0  0  0  0  0  0  0
   37.4230   26.7690   31.6430 N   0  0  0  0  0  0  0  0  0  0  0  0
  1  8  1  0  0  0  0
  2  1  1  0  0  0  0
  3  4  1  0  0  0  0
  3  2  2  0  0  0  0
  4  5  2  0  0  0  0
  5  1  1  0  0  0  0
  5 16  1  0  0  0  0
  6  3  1  0  0  0  0
  7 12  1  0  0  0  0
  8  9  1  0  0  0  0
  8  7  2  0  0  0  0
  9 10  2  0  0  0  0
 10 11  1  0  0  0  0
 11 15  1  0  0  0  0
 12 11  2  0  0  0  0
 13  7  1  0  0  0  0
 14  9  1  0  0  0  0
 16 17  1  0  0  0  0
 16 21  1  0  0  0  0
 17 19  1  0  0  0  0
 18 20  1  0  0  0  0
 18 17  2  0  0  0  0
 19 23  1  0  0  0  0
 19 22  1  0  0  0  0
 24  4  1  0  0  0  0
 25 24  2  0  0  0  0
 26 27  1  0  0  0  0
 26 25  1  0  0  0  0
 27 29  2  0  0  0  0
 28 27  1  0  0  0  0
 29 24  1  0  0  0  0
M  END
>  <minimizedAffinity>
-4.9188714

>  <minimizedRMSD>
0.515709639

$$$$
