
 OpenBabel03262520003D

 32 35  0  0  1  0  0  0  0  0999 V2000
   38.5960   23.6520   32.1580 C   0  0  0  0  0  0  0  0  0  0  0  0
   38.4840   22.3590   31.6540 C   0  0  0  0  0  0  0  0  0  0  0  0
   37.8480   21.6780   32.6560 N   0  0  0  0  0  0  0  0  0  0  0  0
   37.6240   22.5370   33.6490 C   0  0  0  0  0  0  0  0  0  0  0  0
   38.0730   23.7550   33.3670 N   0  0  0  0  0  0  0  0  0  0  0  0
   38.8250   21.9930   30.6910 H   0  0  0  0  0  0  0  0  0  0  0  0
   37.1160   22.1030   34.5180 H   0  0  0  0  0  0  0  0  0  0  0  0
   39.2180   24.7580   31.4460 C   0  0  0  0  0  0  0  0  0  0  0  0
   40.6060   24.9770   31.5760 C   0  0  0  0  0  0  0  0  0  0  0  0
   41.1680   26.0610   30.8600 C   0  0  0  0  0  0  0  0  0  0  0  0
   40.3300   26.8140   30.0980 N   0  0  0  0  0  0  0  0  0  0  0  0
   39.0050   26.5680   30.0040 C   0  0  0  0  0  0  0  0  0  0  0  0
   38.4410   25.5470   30.6690 N   0  0  0  0  0  0  0  0  0  0  0  0
   41.1810   24.3210   32.2070 H   0  0  0  0  0  0  0  0  0  0  0  0
   42.2240   26.2410   30.9490 H   0  0  0  0  0  0  0  0  0  0  0  0
   38.4870   27.2570   29.3580 H   0  0  0  0  0  0  0  0  0  0  0  0
   37.9550   24.8490   34.2590 C   0  0  1  0  0  0  0  0  0  0  0  0
   37.8680   24.7780   35.6920 C   0  0  0  0  0  0  0  0  0  0  0  0
   39.2050   25.1850   35.0070 C   0  0  1  0  0  0  0  0  0  0  0  0
   37.4130   25.7430   33.7820 H   0  0  0  0  0  0  0  0  0  0  0  0
   37.3920   25.5670   36.2960 H   0  0  0  0  0  0  0  0  0  0  0  0
   37.9060   23.8150   36.2030 H   0  0  0  0  0  0  0  0  0  0  0  0
   40.2490   24.2360   35.5070 C   0  0  0  0  0  0  0  0  0  0  0  0
   41.4830   23.9210   35.0170 N   0  0  0  0  0  0  0  0  0  0  0  0
   42.0330   23.0500   35.7800 O   0  0  0  0  0  0  0  0  0  0  0  0
   41.2510   22.7330   36.7850 C   0  0  0  0  0  0  0  0  0  0  0  0
   41.2680   22.0810   37.6480 H   0  0  0  0  0  0  0  0  0  0  0  0
   40.1190   23.4730   36.6280 N   0  0  0  0  0  0  0  0  0  0  0  0
   39.5020   26.6530   35.2330 C   0  0  0  0  0  0  0  0  0  0  0  0
   40.8580   26.8830   35.1170 F   0  0  0  0  0  0  0  0  0  0  0  0
   38.9340   27.4010   34.1180 F   0  0  0  0  0  0  0  0  0  0  0  0
   38.9500   27.1630   36.3440 F   0  0  0  0  0  0  0  0  0  0  0  0
  1  5  1  0  0  0  0
  2  1  2  0  0  0  0
  2  3  1  0  0  0  0
  3  4  2  0  0  0  0
  4  7  1  0  0  0  0
  5  4  1  0  0  0  0
  5 17  1  0  0  0  0
  6  2  1  0  0  0  0
  8  9  1  0  0  0  0
  8  1  1  0  0  0  0
  9 14  1  0  0  0  0
 10 15  1  0  0  0  0
 10  9  2  0  0  0  0
 11 10  1  0  0  0  0
 12 11  2  0  0  0  0
 12 13  1  0  0  0  0
 13  8  2  0  0  0  0
 16 12  1  0  0  0  0
 17 20  1  6  0  0  0
 17 19  1  0  0  0  0
 17 18  1  0  0  0  0
 18 22  1  0  0  0  0
 18 21  1  0  0  0  0
 19 29  1  1  0  0  0
 19 23  1  0  0  0  0
 19 18  1  0  0  0  0
 23 28  1  0  0  0  0
 24 23  2  0  0  0  0
 24 25  1  0  0  0  0
 25 26  1  0  0  0  0
 26 27  1  0  0  0  0
 28 26  2  0  0  0  0
 29 32  1  0  0  0  0
 30 29  1  0  0  0  0
 31 29  1  0  0  0  0
M  END
>  <minimizedAffinity>
-4.12293053

>  <minimizedRMSD>
4.12528038

$$$$
