
 OpenBabel03262519573D

 29 32  0  0  1  0  0  0  0  0999 V2000
   38.1500   23.9320   34.6260 C   0  0  0  0  0  0  0  0  0  0  0  0
   38.2880   25.1820   34.0080 C   0  0  0  0  0  0  0  0  0  0  0  0
   37.8910   24.9470   32.7250 N   0  0  0  0  0  0  0  0  0  0  0  0
   37.5550   23.6790   32.6180 C   0  0  0  0  0  0  0  0  0  0  0  0
   37.7030   23.0120   33.7830 N   0  0  0  0  0  0  0  0  0  0  0  0
   38.6360   26.1030   34.4820 H   0  0  0  0  0  0  0  0  0  0  0  0
   37.2020   23.2740   31.6600 H   0  0  0  0  0  0  0  0  0  0  0  0
   38.4550   23.6650   36.0180 C   0  0  0  0  0  0  0  0  0  0  0  0
   39.6830   23.0780   36.3680 C   0  0  0  0  0  0  0  0  0  0  0  0
   39.9390   22.8350   37.7340 C   0  0  0  0  0  0  0  0  0  0  0  0
   38.9950   23.1800   38.6250 N   0  0  0  0  0  0  0  0  0  0  0  0
   37.8170   23.7480   38.2550 C   0  0  0  0  0  0  0  0  0  0  0  0
   37.5420   23.9910   36.9610 N   0  0  0  0  0  0  0  0  0  0  0  0
   40.4220   22.8100   35.6350 H   0  0  0  0  0  0  0  0  0  0  0  0
   40.8870   22.3800   38.0180 H   0  0  0  0  0  0  0  0  0  0  0  0
   37.0730   24.0150   39.0030 H   0  0  0  0  0  0  0  0  0  0  0  0
   37.4090   21.6040   33.9570 C   0  0  1  0  0  0  0  0  0  0  0  0
   36.2330   21.1530   34.6850 C   0  0  0  0  0  0  0  0  0  0  0  0
   36.1800   21.1840   33.1700 C   0  0  2  0  0  0  0  0  0  0  0  0
   38.3020   20.9570   33.8350 H   0  0  0  0  0  0  0  0  0  0  0  0
   35.6440   21.9220   35.2460 H   0  0  0  0  0  0  0  0  0  0  0  0
   36.3070   20.1810   35.2170 H   0  0  0  0  0  0  0  0  0  0  0  0
   35.5030   21.9440   32.7520 H   0  0  0  0  0  0  0  0  0  0  0  0
   36.1090   19.8500   32.5710 C   0  0  0  0  0  0  0  0  0  0  0  0
   35.3710   18.8490   33.0980 N   0  0  0  0  0  0  0  0  0  0  0  0
   35.4870   17.7830   32.3710 O   0  0  0  0  0  0  0  0  0  0  0  0
   36.2930   18.0870   31.3820 C   0  0  0  0  0  0  0  0  0  0  0  0
   36.6300   17.4460   30.5620 H   0  0  0  0  0  0  0  0  0  0  0  0
   36.7120   19.3840   31.4640 N   0  0  0  0  0  0  0  0  0  0  0  0
  1  8  1  0  0  0  0
  2  6  1  0  0  0  0
  2  1  2  0  0  0  0
  3  2  1  0  0  0  0
  4  3  2  0  0  0  0
  4  5  1  0  0  0  0
  5 17  1  0  0  0  0
  5  1  1  0  0  0  0
  7  4  1  0  0  0  0
  8  9  2  0  0  0  0
  8 13  1  0  0  0  0
  9 10  1  0  0  0  0
 10 15  1  0  0  0  0
 10 11  2  0  0  0  0
 12 11  1  0  0  0  0
 12 16  1  0  0  0  0
 13 12  2  0  0  0  0
 14  9  1  0  0  0  0
 17 20  1  6  0  0  0
 17 18  1  0  0  0  0
 18 22  1  0  0  0  0
 18 21  1  0  0  0  0
 19 23  1  6  0  0  0
 19 17  1  0  0  0  0
 19 18  1  0  0  0  0
 24 25  2  0  0  0  0
 24 19  1  0  0  0  0
 26 25  1  0  0  0  0
 27 29  2  0  0  0  0
 27 26  1  0  0  0  0
 28 27  1  0  0  0  0
 29 24  1  0  0  0  0
M  END
>  <minimizedAffinity>
-4.58641577

>  <minimizedRMSD>
0.891232252

$$$$
