
 OpenBabel03262517093D

 44 47  0  0  0  0  0  0  0  0999 V2000
   38.1130   23.3690   35.1780 C   0  0  0  0  0  0  0  0  0  0  0  0
   37.6330   22.2050   34.6690 C   0  0  0  0  0  0  0  0  0  0  0  0
   37.3370   22.0490   33.3330 C   0  0  0  0  0  0  0  0  0  0  0  0
   37.5290   23.1000   32.4630 C   0  0  0  0  0  0  0  0  0  0  0  0
   38.0170   24.2640   33.0070 C   0  0  0  0  0  0  0  0  0  0  0  0
   38.3370   24.4850   34.3610 C   0  0  0  0  0  0  0  0  0  0  0  0
   37.4370   21.3010   35.2530 H   0  0  0  0  0  0  0  0  0  0  0  0
   36.9500   21.1250   32.9070 H   0  0  0  0  0  0  0  0  0  0  0  0
   37.3170   23.0470   31.4050 H   0  0  0  0  0  0  0  0  0  0  0  0
   38.1670   25.0930   32.3150 H   0  0  0  0  0  0  0  0  0  0  0  0
   39.4190   22.8130   37.2970 C   0  0  0  0  0  0  0  0  0  0  0  0
   38.3580   23.3340   36.6030 C   0  0  0  0  0  0  0  0  0  0  0  0
   37.5360   23.8390   37.5480 N   0  0  0  0  0  0  0  0  0  0  0  0
   38.0740   23.6330   38.7530 C   0  0  0  0  0  0  0  0  0  0  0  0
   39.2400   23.0010   38.6400 N   0  0  0  0  0  0  0  0  0  0  0  0
   37.6840   23.9100   39.7450 H   0  0  0  0  0  0  0  0  0  0  0  0
   39.8910   22.7070   39.4260 H   0  0  0  0  0  0  0  0  0  0  0  0
   42.5790   20.8910   36.8690 C   0  0  0  0  0  0  0  0  0  0  0  0
   41.4910   21.4940   37.4990 C   0  0  0  0  0  0  0  0  0  0  0  0
   40.5680   22.1620   36.7010 C   0  0  0  0  0  0  0  0  0  0  0  0
   40.7930   22.1830   35.3250 N   0  0  0  0  0  0  0  0  0  0  0  0
   41.8590   21.5860   34.7720 C   0  0  0  0  0  0  0  0  0  0  0  0
   42.7480   20.9430   35.5280 N   0  0  0  0  0  0  0  0  0  0  0  0
   43.2460   20.3930   37.5720 H   0  0  0  0  0  0  0  0  0  0  0  0
   41.3430   21.4580   38.5770 H   0  0  0  0  0  0  0  0  0  0  0  0
   42.0380   21.6460   33.3220 C   0  0  0  0  0  0  0  0  0  0  0  0
   41.2500   22.1640   32.3610 N   0  0  0  0  0  0  0  0  0  0  0  0
   41.7850   22.0070   31.1860 O   0  0  0  0  0  0  0  0  0  0  0  0
   42.9280   21.3860   31.3260 C   0  0  0  0  0  0  0  0  0  0  0  0
   43.5000   21.1800   30.4210 H   0  0  0  0  0  0  0  0  0  0  0  0
   43.1200   21.1440   32.6560 N   0  0  0  0  0  0  0  0  0  0  0  0
   38.8470   25.7150   34.8860 C   0  0  0  0  0  0  0  0  0  0  0  0
   38.6200   26.7230   33.7270 C   0  0  0  0  0  0  0  0  0  0  0  0
   37.5710   26.7530   33.4190 H   0  0  0  0  0  0  0  0  0  0  0  0
   39.3630   26.5950   32.9300 H   0  0  0  0  0  0  0  0  0  0  0  0
   38.8250   27.7590   34.1340 H   0  0  0  0  0  0  0  0  0  0  0  0
   38.3590   26.3890   36.0710 C   0  0  0  0  0  0  0  0  0  0  0  0
   39.0230   26.1310   36.9510 H   0  0  0  0  0  0  0  0  0  0  0  0
   38.4900   27.4940   36.0020 H   0  0  0  0  0  0  0  0  0  0  0  0
   37.2840   26.2540   36.3000 H   0  0  0  0  0  0  0  0  0  0  0  0
   40.3630   25.5970   35.0070 C   0  0  0  0  0  0  0  0  0  0  0  0
   40.8140   26.6090   34.7830 H   0  0  0  0  0  0  0  0  0  0  0  0
   40.6990   24.9560   34.1640 H   0  0  0  0  0  0  0  0  0  0  0  0
   40.6950   25.2340   35.9860 H   0  0  0  0  0  0  0  0  0  0  0  0
  1 12  1  0  0  0  0
  2  1  1  0  0  0  0
  2  7  1  0  0  0  0
  3  2  2  0  0  0  0
  4  5  2  0  0  0  0
  4  3  1  0  0  0  0
  5  6  1  0  0  0  0
  6 32  1  0  0  0  0
  6  1  2  0  0  0  0
  8  3  1  0  0  0  0
  9  4  1  0  0  0  0
 10  5  1  0  0  0  0
 11 15  1  0  0  0  0
 12 11  2  0  0  0  0
 12 13  1  0  0  0  0
 13 14  2  0  0  0  0
 14 16  1  0  0  0  0
 15 14  1  0  0  0  0
 15 17  1  0  0  0  0
 18 19  1  0  0  0  0
 18 24  1  0  0  0  0
 19 25  1  0  0  0  0
 20 11  1  0  0  0  0
 20 19  2  0  0  0  0
 21 20  1  0  0  0  0
 22 21  2  0  0  0  0
 22 23  1  0  0  0  0
 23 18  2  0  0  0  0
 26 22  1  0  0  0  0
 27 26  2  0  0  0  0
 28 29  1  0  0  0  0
 28 27  1  0  0  0  0
 29 31  2  0  0  0  0
 30 29  1  0  0  0  0
 31 26  1  0  0  0  0
 32 41  1  0  0  0  0
 32 37  1  0  0  0  0
 33 36  1  0  0  0  0
 33 32  1  0  0  0  0
 34 33  1  0  0  0  0
 35 33  1  0  0  0  0
 37 40  1  0  0  0  0
 37 38  1  0  0  0  0
 39 37  1  0  0  0  0
 41 44  1  0  0  0  0
 42 41  1  0  0  0  0
 43 41  1  0  0  0  0
M  END
>  <minimizedAffinity>
-5.42825174

>  <minimizedRMSD>
0.399968207

$$$$
