
 OpenBabel03262519323D

 40 44  0  0  0  0  0  0  0  0999 V2000
   41.5110   21.9950   36.7030 O   0  0  0  0  0  0  0  0  0  0  0  0
   40.1690   22.2900   36.8050 C   0  0  0  0  0  0  0  0  0  0  0  0
   39.7660   23.0090   37.9300 C   0  0  0  0  0  0  0  0  0  0  0  0
   38.3950   23.3140   38.0410 C   0  0  0  0  0  0  0  0  0  0  0  0
   37.5560   22.9090   37.0820 N   0  0  0  0  0  0  0  0  0  0  0  0
   37.9980   22.2090   36.0030 C   0  0  0  0  0  0  0  0  0  0  0  0
   39.2850   21.9110   35.8790 N   0  0  0  0  0  0  0  0  0  0  0  0
   37.1670   21.7400   34.9390 N   0  0  0  0  0  0  0  0  0  0  0  0
   37.4660   22.0330   33.6470 C   0  0  0  0  0  0  0  0  0  0  0  0
   36.6190   21.5480   32.6550 C   0  0  0  0  0  0  0  0  0  0  0  0
   35.5020   20.7880   32.9680 C   0  0  0  0  0  0  0  0  0  0  0  0
   34.7180   20.3370   32.0830 O   0  0  0  0  0  0  0  0  0  0  0  0
   35.2430   20.5220   34.2630 N   0  0  0  0  0  0  0  0  0  0  0  0
   36.0700   20.9960   35.2210 C   0  0  0  0  0  0  0  0  0  0  0  0
   35.8430   20.7570   36.4290 O   0  0  0  0  0  0  0  0  0  0  0  0
   40.4310   23.3420   38.7090 H   0  0  0  0  0  0  0  0  0  0  0  0
   38.0290   23.8640   38.8830 H   0  0  0  0  0  0  0  0  0  0  0  0
   38.3420   22.6280   33.3980 H   0  0  0  0  0  0  0  0  0  0  0  0
   36.8080   21.7490   31.6060 H   0  0  0  0  0  0  0  0  0  0  0  0
   34.4120   19.9500   34.5850 H   0  0  0  0  0  0  0  0  0  0  0  0
   42.4840   22.8470   36.2420 C   0  0  0  0  0  0  0  0  0  0  0  0
   42.3660   24.2260   36.0940 C   0  0  0  0  0  0  0  0  0  0  0  0
   43.5160   24.7350   35.6180 N   0  0  0  0  0  0  0  0  0  0  0  0
   44.4270   23.7320   35.4320 C   0  0  0  0  0  0  0  0  0  0  0  0
   45.7110   23.7340   34.9760 C   0  0  0  0  0  0  0  0  0  0  0  0
   46.4120   22.5580   34.8870 C   0  0  0  0  0  0  0  0  0  0  0  0
   45.7750   21.3720   35.2750 C   0  0  0  0  0  0  0  0  0  0  0  0
   44.4610   21.3790   35.7410 C   0  0  0  0  0  0  0  0  0  0  0  0
   43.7750   22.5640   35.8220 C   0  0  0  0  0  0  0  0  0  0  0  0
   41.4920   24.8220   36.3230 H   0  0  0  0  0  0  0  0  0  0  0  0
   43.7220   25.7400   35.4070 H   0  0  0  0  0  0  0  0  0  0  0  0
   46.1540   24.6770   34.6890 H   0  0  0  0  0  0  0  0  0  0  0  0
   47.4140   22.5750   34.5280 H   0  0  0  0  0  0  0  0  0  0  0  0
   46.4000   20.4980   35.1720 H   0  0  0  0  0  0  0  0  0  0  0  0
   43.8960   20.0910   36.1220 C   0  0  0  0  0  0  0  0  0  0  0  0
   43.4050   19.2220   35.2170 N   0  0  0  0  0  0  0  0  0  0  0  0
   42.9600   18.1490   35.7930 O   0  0  0  0  0  0  0  0  0  0  0  0
   43.1250   18.2390   37.0880 C   0  0  0  0  0  0  0  0  0  0  0  0
   42.9470   17.6680   37.9890 H   0  0  0  0  0  0  0  0  0  0  0  0
   43.7000   19.4350   37.2700 N   0  0  0  0  0  0  0  0  0  0  0  0
  1  2  1  0  0  0  0
  2  3  1  0  0  0  0
  3  4  2  0  0  0  0
  3 16  1  0  0  0  0
  4 17  1  0  0  0  0
  5  4  1  0  0  0  0
  6  5  2  0  0  0  0
  7  6  1  0  0  0  0
  7  2  2  0  0  0  0
  8 14  1  0  0  0  0
  8  6  1  0  0  0  0
  9  8  1  0  0  0  0
 10 11  1  0  0  0  0
 10  9  2  0  0  0  0
 11 13  1  0  0  0  0
 12 11  2  0  0  0  0
 13 20  1  0  0  0  0
 13 14  1  0  0  0  0
 14 15  2  0  0  0  0
 18  9  1  0  0  0  0
 19 10  1  0  0  0  0
 21  1  1  0  0  0  0
 22 21  2  0  0  0  0
 22 30  1  0  0  0  0
 23 22  1  0  0  0  0
 24 23  1  0  0  0  0
 24 29  1  0  0  0  0
 25 24  2  0  0  0  0
 26 25  1  0  0  0  0
 26 27  2  0  0  0  0
 27 28  1  0  0  0  0
 28 29  2  0  0  0  0
 28 35  1  0  0  0  0
 29 21  1  0  0  0  0
 31 23  1  0  0  0  0
 32 25  1  0  0  0  0
 33 26  1  0  0  0  0
 34 27  1  0  0  0  0
 35 40  1  0  0  0  0
 36 37  1  0  0  0  0
 36 35  2  0  0  0  0
 37 38  1  0  0  0  0
 38 40  2  0  0  0  0
 38 39  1  0  0  0  0
M  END
>  <minimizedAffinity>
-5.71245098

>  <minimizedRMSD>
2.08143568

$$$$
