
 OpenBabel03262512063D

 40 44  0  0  1  0  0  0  0  0999 V2000
   38.0710   25.1050   33.6390 C   0  0  0  0  0  0  0  0  0  0  0  0
   37.9100   25.4670   34.9830 C   0  0  0  0  0  0  0  0  0  0  0  0
   37.2420   26.6510   35.2850 C   0  0  0  0  0  0  0  0  0  0  0  0
   36.7740   27.4040   34.2390 N   0  0  0  0  0  0  0  0  0  0  0  0
   36.9480   27.0250   32.9630 C   0  0  0  0  0  0  0  0  0  0  0  0
   37.5890   25.8870   32.6700 N   0  0  0  0  0  0  0  0  0  0  0  0
   36.4290   27.8680   31.9460 N   0  0  0  0  0  0  0  0  0  0  0  0
   35.2660   28.7150   32.0850 C   0  0  0  0  0  0  0  0  0  0  0  0
   35.7160   29.9630   31.3420 C   0  0  0  0  0  0  0  0  0  0  0  0
   36.9720   29.6080   30.6030 C   0  0  0  0  0  0  0  0  0  0  0  0
   36.9040   28.0820   30.5960 C   0  0  1  0  0  0  0  0  0  0  0  0
   38.5870   24.1890   33.3810 H   0  0  0  0  0  0  0  0  0  0  0  0
   37.1010   26.9600   36.3100 H   0  0  0  0  0  0  0  0  0  0  0  0
   34.4060   28.2300   31.6010 H   0  0  0  0  0  0  0  0  0  0  0  0
   35.0730   28.9720   33.1480 H   0  0  0  0  0  0  0  0  0  0  0  0
   35.8390   30.8170   32.0280 H   0  0  0  0  0  0  0  0  0  0  0  0
   34.9420   30.2030   30.5830 H   0  0  0  0  0  0  0  0  0  0  0  0
   37.0100   30.0350   29.5850 H   0  0  0  0  0  0  0  0  0  0  0  0
   37.8530   29.9220   31.2000 H   0  0  0  0  0  0  0  0  0  0  0  0
   36.1840   27.7390   29.8220 H   0  0  0  0  0  0  0  0  0  0  0  0
   38.4400   24.6070   36.0380 C   0  0  0  0  0  0  0  0  0  0  0  0
   37.7240   24.4020   37.2400 C   0  0  0  0  0  0  0  0  0  0  0  0
   38.7410   23.2880   38.2360 S   0  0  0  0  0  0  0  0  0  0  0  0
   40.0320   23.2520   36.8490 C   0  0  0  0  0  0  0  0  0  0  0  0
   39.5520   23.9240   36.0970 N   0  0  0  0  0  0  0  0  0  0  0  0
   41.2970   22.5250   36.8180 N   0  0  0  0  0  0  0  0  0  0  0  0
   41.3660   21.2530   37.2600 C   0  0  0  0  0  0  0  0  0  0  0  0
   42.7090   20.8640   37.0900 C   0  0  0  0  0  0  0  0  0  0  0  0
   43.3500   21.9170   36.5620 N   0  0  0  0  0  0  0  0  0  0  0  0
   42.4920   22.9470   36.3890 C   0  0  0  0  0  0  0  0  0  0  0  0
   36.7130   24.8480   37.5230 H   0  0  0  0  0  0  0  0  0  0  0  0
   40.5670   20.6580   37.6610 H   0  0  0  0  0  0  0  0  0  0  0  0
   43.0780   19.8870   37.3570 H   0  0  0  0  0  0  0  0  0  0  0  0
   42.6880   23.9220   35.9910 H   0  0  0  0  0  0  0  0  0  0  0  0
   38.2300   27.4700   30.3360 C   0  0  0  0  0  0  0  0  0  0  0  0
   39.4230   27.9920   30.6230 N   0  0  0  0  0  0  0  0  0  0  0  0
   40.3620   27.1670   30.2500 O   0  0  0  0  0  0  0  0  0  0  0  0
   39.8270   26.1010   29.7200 C   0  0  0  0  0  0  0  0  0  0  0  0
   40.1190   25.1600   29.2730 H   0  0  0  0  0  0  0  0  0  0  0  0
   38.4930   26.2810   29.7690 N   0  0  0  0  0  0  0  0  0  0  0  0
  1  2  1  0  0  0  0
  2  3  2  0  0  0  0
  2 21  1  0  0  0  0
  3 13  1  0  0  0  0
  4  3  1  0  0  0  0
  5  4  2  0  0  0  0
  6  5  1  0  0  0  0
  6  1  2  0  0  0  0
  7  8  1  0  0  0  0
  7  5  1  0  0  0  0
  8 15  1  0  0  0  0
  9 16  1  0  0  0  0
  9  8  1  0  0  0  0
 10 19  1  0  0  0  0
 10  9  1  0  0  0  0
 11 20  1  6  0  0  0
 11 10  1  0  0  0  0
 11  7  1  0  0  0  0
 12  1  1  0  0  0  0
 14  8  1  0  0  0  0
 17  9  1  0  0  0  0
 18 10  1  0  0  0  0
 21 25  1  0  0  0  0
 21 22  2  0  0  0  0
 22 31  1  0  0  0  0
 22 23  1  0  0  0  0
 24 23  1  0  0  0  0
 25 24  2  0  0  0  0
 26 24  1  0  0  0  0
 26 27  1  0  0  0  0
 27 32  1  0  0  0  0
 28 27  2  0  0  0  0
 28 33  1  0  0  0  0
 29 28  1  0  0  0  0
 30 29  2  0  0  0  0
 30 26  1  0  0  0  0
 34 30  1  0  0  0  0
 35 11  1  0  0  0  0
 35 36  2  0  0  0  0
 37 36  1  0  0  0  0
 38 40  2  0  0  0  0
 38 37  1  0  0  0  0
 39 38  1  0  0  0  0
 40 35  1  0  0  0  0
M  END
>  <minimizedAffinity>
-5.50714588

>  <minimizedRMSD>
0.436556965

$$$$
