
 OpenBabel03262519143D

 26 28  0  0  0  0  0  0  0  0999 V2000
   37.0660   26.0010   32.7280 C   0  0  0  0  0  0  0  0  0  0  0  0
   37.4020   26.1920   34.0880 C   0  0  0  0  0  0  0  0  0  0  0  0
   37.0340   27.3690   34.7170 C   0  0  0  0  0  0  0  0  0  0  0  0
   36.3560   28.2830   33.9650 N   0  0  0  0  0  0  0  0  0  0  0  0
   36.0430   28.0630   32.6420 C   0  0  0  0  0  0  0  0  0  0  0  0
   36.4060   26.9270   32.0560 N   0  0  0  0  0  0  0  0  0  0  0  0
   37.3690   25.0690   32.2690 H   0  0  0  0  0  0  0  0  0  0  0  0
   37.2540   27.5810   35.7390 H   0  0  0  0  0  0  0  0  0  0  0  0
   38.1280   25.2330   34.8830 C   0  0  0  0  0  0  0  0  0  0  0  0
   39.1530   24.4180   34.4350 C   0  0  0  0  0  0  0  0  0  0  0  0
   39.7270   23.5720   35.3300 C   0  0  0  0  0  0  0  0  0  0  0  0
   39.2400   23.5820   36.6440 C   0  0  0  0  0  0  0  0  0  0  0  0
   37.9050   24.8560   36.6000 S   0  0  0  0  0  0  0  0  0  0  0  0
   39.5010   24.4400   33.4090 H   0  0  0  0  0  0  0  0  0  0  0  0
   40.5290   22.8700   35.1640 H   0  0  0  0  0  0  0  0  0  0  0  0
   39.5600   22.8810   37.8130 C   0  0  0  0  0  0  0  0  0  0  0  0
   39.0420   23.1620   38.8900 O   0  0  0  0  0  0  0  0  0  0  0  0
   40.5110   21.7990   37.8140 N   0  0  0  0  0  0  0  0  0  0  0  0
   40.1860   20.8630   37.4460 H   0  0  0  0  0  0  0  0  0  0  0  0
   41.5000   21.7650   38.1230 H   0  0  0  0  0  0  0  0  0  0  0  0
   35.3180   29.1910   32.0670 C   0  0  0  0  0  0  0  0  0  0  0  0
   35.4950   30.0050   31.0280 N   0  0  0  0  0  0  0  0  0  0  0  0
   34.4860   30.8510   31.0100 O   0  0  0  0  0  0  0  0  0  0  0  0
   33.6660   30.6050   32.0050 C   0  0  0  0  0  0  0  0  0  0  0  0
   32.7500   31.1880   32.1890 H   0  0  0  0  0  0  0  0  0  0  0  0
   34.1640   29.5560   32.6970 N   0  0  0  0  0  0  0  0  0  0  0  0
  1  2  1  0  0  0  0
  2  3  2  0  0  0  0
  2  9  1  0  0  0  0
  3  8  1  0  0  0  0
  4  3  1  0  0  0  0
  5  4  2  0  0  0  0
  6  5  1  0  0  0  0
  6  1  2  0  0  0  0
  7  1  1  0  0  0  0
  9 13  1  0  0  0  0
 10  9  2  0  0  0  0
 10 11  1  0  0  0  0
 11 12  2  0  0  0  0
 12 16  1  0  0  0  0
 13 12  1  0  0  0  0
 14 10  1  0  0  0  0
 15 11  1  0  0  0  0
 16 18  1  0  0  0  0
 16 17  2  0  0  0  0
 18 20  1  0  0  0  0
 19 18  1  0  0  0  0
 21  5  1  0  0  0  0
 21 26  1  0  0  0  0
 22 21  2  0  0  0  0
 23 22  1  0  0  0  0
 23 24  1  0  0  0  0
 24 25  1  0  0  0  0
 24 26  2  0  0  0  0
M  END
>  <minimizedAffinity>
-5.03260231

>  <minimizedRMSD>
8.77044678

$$$$
