
 OpenBabel03262519483D

 38 41  0  0  1  0  0  0  0  0999 V2000
   37.4130   25.8060   32.9100 N   0  0  0  0  0  0  0  0  0  0  0  0
   36.9480   24.6970   32.3290 C   0  0  0  0  0  0  0  0  0  0  0  0
   35.9140   24.9120   31.4540 C   0  0  0  0  0  0  0  0  0  0  0  0
   35.7250   26.2320   31.4920 N   0  0  0  0  0  0  0  0  0  0  0  0
   36.6250   26.7680   32.3660 C   0  0  0  0  0  0  0  0  0  0  0  0
   37.3830   23.7100   32.5580 H   0  0  0  0  0  0  0  0  0  0  0  0
   35.3810   24.1840   30.8740 H   0  0  0  0  0  0  0  0  0  0  0  0
   36.6520   28.2680   32.5740 C   0  0  1  0  0  0  0  0  0  0  0  0
   35.7620   29.0810   31.7140 C   0  0  0  0  0  0  0  0  0  0  0  0
   35.3830   28.8730   33.1630 C   0  0  2  0  0  0  0  0  0  0  0  0
   37.6040   28.6280   32.9770 H   0  0  0  0  0  0  0  0  0  0  0  0
   36.1700   30.0390   31.3620 H   0  0  0  0  0  0  0  0  0  0  0  0
   35.1150   28.5650   30.9630 H   0  0  0  0  0  0  0  0  0  0  0  0
   34.5190   28.2390   33.3920 H   0  0  0  0  0  0  0  0  0  0  0  0
   35.6340   30.0940   33.9750 C   0  0  0  0  0  0  0  0  0  0  0  0
   35.6450   31.3820   33.5820 N   0  0  0  0  0  0  0  0  0  0  0  0
   35.9040   32.1080   34.6130 O   0  0  0  0  0  0  0  0  0  0  0  0
   36.0730   31.3830   35.6990 C   0  0  0  0  0  0  0  0  0  0  0  0
   36.3000   31.6700   36.7150 H   0  0  0  0  0  0  0  0  0  0  0  0
   35.9030   30.1080   35.3020 N   0  0  0  0  0  0  0  0  0  0  0  0
   38.4200   26.0980   33.8570 C   0  0  0  0  0  0  0  0  0  0  0  0
   38.8960   27.0880   33.6370 H   0  0  0  0  0  0  0  0  0  0  0  0
   39.2840   25.3760   33.7910 H   0  0  0  0  0  0  0  0  0  0  0  0
   37.9410   26.0680   35.2610 C   0  0  1  0  0  0  0  0  0  0  0  0
   36.8290   25.9700   35.2930 H   0  0  0  0  0  0  0  0  0  0  0  0
   38.5120   23.5000   37.9840 C   0  0  0  0  0  0  0  0  0  0  0  0
   37.9180   24.5870   37.3200 C   0  0  0  0  0  0  0  0  0  0  0  0
   38.4990   24.9470   36.0540 C   0  0  0  0  0  0  0  0  0  0  0  0
   39.5790   24.2370   35.5570 N   0  0  0  0  0  0  0  0  0  0  0  0
   40.0970   23.2150   36.2380 C   0  0  0  0  0  0  0  0  0  0  0  0
   39.5640   22.8400   37.4570 N   0  0  0  0  0  0  0  0  0  0  0  0
   38.0600   23.2520   38.9250 H   0  0  0  0  0  0  0  0  0  0  0  0
   37.0870   25.1540   37.6730 H   0  0  0  0  0  0  0  0  0  0  0  0
   40.9370   22.6250   35.9000 H   0  0  0  0  0  0  0  0  0  0  0  0
   38.2280   27.3970   35.9520 C   0  0  0  0  0  0  0  0  0  0  0  0
   37.3360   28.0420   36.0160 H   0  0  0  0  0  0  0  0  0  0  0  0
   39.0870   27.8540   35.4570 H   0  0  0  0  0  0  0  0  0  0  0  0
   38.4900   27.1510   37.0010 H   0  0  0  0  0  0  0  0  0  0  0  0
  1 21  1  0  0  0  0
  2  6  1  0  0  0  0
  2  1  1  0  0  0  0
  3  4  1  0  0  0  0
  3  2  2  0  0  0  0
  4  5  2  0  0  0  0
  5  8  1  0  0  0  0
  5  1  1  0  0  0  0
  7  3  1  0  0  0  0
  8 11  1  1  0  0  0
  8 10  1  0  0  0  0
  9  8  1  0  0  0  0
  9 10  1  0  0  0  0
 10 14  1  1  0  0  0
 10 15  1  0  0  0  0
 12  9  1  0  0  0  0
 13  9  1  0  0  0  0
 15 20  1  0  0  0  0
 16 15  2  0  0  0  0
 16 17  1  0  0  0  0
 17 18  1  0  0  0  0
 18 19  1  0  0  0  0
 20 18  2  0  0  0  0
 21 24  1  0  0  0  0
 22 21  1  0  0  0  0
 23 21  1  0  0  0  0
 24 25  1  6  0  0  0
 24 35  1  0  0  0  0
 24 28  1  0  0  0  0
 26 32  1  0  0  0  0
 27 33  1  0  0  0  0
 27 26  2  0  0  0  0
 28 27  1  0  0  0  0
 29 28  2  0  0  0  0
 29 30  1  0  0  0  0
 30 31  2  0  0  0  0
 31 26  1  0  0  0  0
 34 30  1  0  0  0  0
 35 36  1  0  0  0  0
 35 38  1  0  0  0  0
 37 35  1  0  0  0  0
M  END
>  <minimizedAffinity>
-5.21853399

>  <minimizedRMSD>
0.71522814

$$$$
