
 OpenBabel03262519573D

 29 32  0  0  1  0  0  0  0  0999 V2000
   38.1510   23.9150   34.5830 C   0  0  0  0  0  0  0  0  0  0  0  0
   38.3060   25.1600   33.9610 C   0  0  0  0  0  0  0  0  0  0  0  0
   37.9010   24.9270   32.6800 N   0  0  0  0  0  0  0  0  0  0  0  0
   37.5470   23.6640   32.5770 C   0  0  0  0  0  0  0  0  0  0  0  0
   37.6890   22.9990   33.7440 N   0  0  0  0  0  0  0  0  0  0  0  0
   38.6690   26.0770   34.4310 H   0  0  0  0  0  0  0  0  0  0  0  0
   37.1850   23.2610   31.6220 H   0  0  0  0  0  0  0  0  0  0  0  0
   38.4570   23.6470   35.9750 C   0  0  0  0  0  0  0  0  0  0  0  0
   39.6810   23.0500   36.3230 C   0  0  0  0  0  0  0  0  0  0  0  0
   39.9370   22.8080   37.6890 C   0  0  0  0  0  0  0  0  0  0  0  0
   38.9980   23.1620   38.5820 N   0  0  0  0  0  0  0  0  0  0  0  0
   37.8240   23.7380   38.2130 C   0  0  0  0  0  0  0  0  0  0  0  0
   37.5480   23.9820   36.9190 N   0  0  0  0  0  0  0  0  0  0  0  0
   40.4170   22.7760   35.5900 H   0  0  0  0  0  0  0  0  0  0  0  0
   40.8820   22.3460   37.9720 H   0  0  0  0  0  0  0  0  0  0  0  0
   37.0840   24.0130   38.9620 H   0  0  0  0  0  0  0  0  0  0  0  0
   37.3740   21.5960   33.9230 C   0  0  1  0  0  0  0  0  0  0  0  0
   36.2190   21.1640   34.6930 C   0  0  0  0  0  0  0  0  0  0  0  0
   36.1090   21.2020   33.1810 C   0  0  2  0  0  0  0  0  0  0  0  0
   38.2500   20.9320   33.7650 H   0  0  0  0  0  0  0  0  0  0  0  0
   35.6650   21.9400   35.2790 H   0  0  0  0  0  0  0  0  0  0  0  0
   36.2940   20.1880   35.2180 H   0  0  0  0  0  0  0  0  0  0  0  0
   35.4310   21.9770   32.7930 H   0  0  0  0  0  0  0  0  0  0  0  0
   35.9910   19.8730   32.5800 C   0  0  0  0  0  0  0  0  0  0  0  0
   36.4620   19.5840   31.3470 N   0  0  0  0  0  0  0  0  0  0  0  0
   36.2240   18.3420   31.0630 O   0  0  0  0  0  0  0  0  0  0  0  0
   35.6050   17.8290   32.0990 C   0  0  0  0  0  0  0  0  0  0  0  0
   35.2430   16.8060   32.2340 H   0  0  0  0  0  0  0  0  0  0  0  0
   35.4340   18.7590   33.0850 N   0  0  0  0  0  0  0  0  0  0  0  0
  1  8  1  0  0  0  0
  2  6  1  0  0  0  0
  2  1  2  0  0  0  0
  3  2  1  0  0  0  0
  4  3  2  0  0  0  0
  4  5  1  0  0  0  0
  5 17  1  0  0  0  0
  5  1  1  0  0  0  0
  7  4  1  0  0  0  0
  8  9  2  0  0  0  0
  8 13  1  0  0  0  0
  9 10  1  0  0  0  0
 10 15  1  0  0  0  0
 10 11  2  0  0  0  0
 12 11  1  0  0  0  0
 12 16  1  0  0  0  0
 13 12  2  0  0  0  0
 14  9  1  0  0  0  0
 17 20  1  6  0  0  0
 17 18  1  0  0  0  0
 18 22  1  0  0  0  0
 18 21  1  0  0  0  0
 19 23  1  6  0  0  0
 19 17  1  0  0  0  0
 19 18  1  0  0  0  0
 24 29  1  0  0  0  0
 24 19  1  0  0  0  0
 25 24  2  0  0  0  0
 26 25  1  0  0  0  0
 26 27  1  0  0  0  0
 27 28  1  0  0  0  0
 27 29  2  0  0  0  0
M  END
>  <minimizedAffinity>
-4.59889221

>  <minimizedRMSD>
0.848503292

$$$$
