
 OpenBabel03262518073D

 31 34  0  0  0  0  0  0  0  0999 V2000
   43.6260   19.7230   37.0900 C   0  0  0  0  0  0  0  0  0  0  0  0
   42.4840   20.4980   37.3100 C   0  0  0  0  0  0  0  0  0  0  0  0
   41.9570   21.2120   36.2420 C   0  0  0  0  0  0  0  0  0  0  0  0
   42.6040   21.1070   35.0250 N   0  0  0  0  0  0  0  0  0  0  0  0
   43.6860   20.3580   34.8630 C   0  0  0  0  0  0  0  0  0  0  0  0
   44.2090   19.6600   35.8930 N   0  0  0  0  0  0  0  0  0  0  0  0
   44.0370   19.1680   37.9190 H   0  0  0  0  0  0  0  0  0  0  0  0
   41.9810   20.5770   38.2680 H   0  0  0  0  0  0  0  0  0  0  0  0
   44.3440   20.2850   33.5260 C   0  0  0  0  0  0  0  0  0  0  0  0
   45.7190   20.0280   33.3660 C   0  0  0  0  0  0  0  0  0  0  0  0
   46.2010   19.9880   32.0960 C   0  0  0  0  0  0  0  0  0  0  0  0
   45.3700   20.1940   30.9980 C   0  0  0  0  0  0  0  0  0  0  0  0
   43.7430   20.4720   31.8200 S   0  0  0  0  0  0  0  0  0  0  0  0
   46.3770   19.8650   34.2090 H   0  0  0  0  0  0  0  0  0  0  0  0
   47.2190   19.8050   31.7970 H   0  0  0  0  0  0  0  0  0  0  0  0
   45.4920   20.2290   29.6150 C   0  0  0  0  0  0  0  0  0  0  0  0
   44.3820   20.4740   28.8320 C   0  0  0  0  0  0  0  0  0  0  0  0
   44.5660   20.4970   27.4450 C   0  0  0  0  0  0  0  0  0  0  0  0
   43.7540   20.6820   26.7620 H   0  0  0  0  0  0  0  0  0  0  0  0
   45.7700   20.2880   26.9120 N   0  0  0  0  0  0  0  0  0  0  0  0
   46.8300   20.0520   27.7140 C   0  0  0  0  0  0  0  0  0  0  0  0
   46.6890   20.0220   29.0720 N   0  0  0  0  0  0  0  0  0  0  0  0
   40.7620   22.0560   36.3680 C   0  0  0  0  0  0  0  0  0  0  0  0
   39.9220   22.6520   35.4960 N   0  0  0  0  0  0  0  0  0  0  0  0
   39.0110   23.2950   36.1650 O   0  0  0  0  0  0  0  0  0  0  0  0
   39.2230   23.1400   37.4760 C   0  0  0  0  0  0  0  0  0  0  0  0
   40.3010   22.3780   37.5940 N   0  0  0  0  0  0  0  0  0  0  0  0
   38.4180   23.7060   38.5700 C   0  0  0  0  0  0  0  0  0  0  0  0
   39.2410   23.8820   39.6850 F   0  0  0  0  0  0  0  0  0  0  0  0
   37.3940   22.8770   38.9320 F   0  0  0  0  0  0  0  0  0  0  0  0
   37.9430   24.9580   38.2270 F   0  0  0  0  0  0  0  0  0  0  0  0
  1  2  1  0  0  0  0
  1  7  1  0  0  0  0
  2  8  1  0  0  0  0
  3 23  1  0  0  0  0
  3  2  2  0  0  0  0
  4  3  1  0  0  0  0
  5  4  2  0  0  0  0
  5  6  1  0  0  0  0
  6  1  2  0  0  0  0
  9  5  1  0  0  0  0
 10  9  2  0  0  0  0
 10 14  1  0  0  0  0
 11 10  1  0  0  0  0
 12 13  1  0  0  0  0
 12 11  2  0  0  0  0
 13  9  1  0  0  0  0
 15 11  1  0  0  0  0
 16 12  1  0  0  0  0
 17 16  2  0  0  0  0
 18 17  1  0  0  0  0
 19 18  1  0  0  0  0
 20 18  2  0  0  0  0
 20 21  1  0  0  0  0
 21 22  2  0  0  0  0
 22 16  1  0  0  0  0
 23 27  1  0  0  0  0
 24 25  1  0  0  0  0
 24 23  2  0  0  0  0
 25 26  1  0  0  0  0
 26 27  2  0  0  0  0
 26 28  1  0  0  0  0
 28 30  1  0  0  0  0
 28 29  1  0  0  0  0
 31 28  1  0  0  0  0
M  END
>  <minimizedAffinity>
-3.88306975

>  <minimizedRMSD>
0.0126108145

$$$$
