
 OpenBabel03262517583D

 41 45  0  0  1  0  0  0  0  0999 V2000
   38.4930   22.7970   32.0300 N   0  0  0  0  0  0  0  0  0  0  0  0
   39.1970   22.1270   31.1280 N   0  0  0  0  0  0  0  0  0  0  0  0
   39.0450   22.6440   29.9020 C   0  0  0  0  0  0  0  0  0  0  0  0
   38.1960   23.7070   30.0200 C   0  0  0  0  0  0  0  0  0  0  0  0
   37.8540   23.7940   31.3650 C   0  0  0  0  0  0  0  0  0  0  0  0
   39.5540   22.2130   29.0510 H   0  0  0  0  0  0  0  0  0  0  0  0
   37.8790   24.3350   29.1850 H   0  0  0  0  0  0  0  0  0  0  0  0
   37.1230   21.7110   35.2570 C   0  0  0  0  0  0  0  0  0  0  0  0
   37.3090   21.8450   33.8760 C   0  0  0  0  0  0  0  0  0  0  0  0
   38.3110   22.6700   33.4330 C   0  0  0  0  0  0  0  0  0  0  0  0
   39.0820   23.3240   34.3630 N   0  0  0  0  0  0  0  0  0  0  0  0
   38.8770   23.1740   35.6710 C   0  0  0  0  0  0  0  0  0  0  0  0
   37.8970   22.3670   36.1260 N   0  0  0  0  0  0  0  0  0  0  0  0
   36.3320   21.0590   35.6300 H   0  0  0  0  0  0  0  0  0  0  0  0
   39.5680   23.7560   36.2650 H   0  0  0  0  0  0  0  0  0  0  0  0
   36.4300   21.1020   33.0420 N   0  0  0  0  0  0  0  0  0  0  0  0
   35.1650   21.3680   32.6040 C   0  0  0  0  0  0  0  0  0  0  0  0
   34.7700   20.3290   31.8270 N   0  0  0  0  0  0  0  0  0  0  0  0
   35.7860   19.4340   31.7940 C   0  0  0  0  0  0  0  0  0  0  0  0
   36.7960   19.9310   32.5480 N   0  0  0  0  0  0  0  0  0  0  0  0
   34.7050   22.2910   32.9150 H   0  0  0  0  0  0  0  0  0  0  0  0
   35.7110   18.5280   31.2420 H   0  0  0  0  0  0  0  0  0  0  0  0
   36.9170   24.8430   31.8590 C   0  0  2  0  0  0  0  0  0  0  0  0
   36.7400   24.5750   32.9410 H   0  0  0  0  0  0  0  0  0  0  0  0
   35.6010   24.8590   31.1710 C   0  0  0  0  0  0  0  0  0  0  0  0
   35.1110   25.8110   31.3690 H   0  0  0  0  0  0  0  0  0  0  0  0
   34.9630   24.0380   31.5400 H   0  0  0  0  0  0  0  0  0  0  0  0
   35.6770   24.7370   30.0710 H   0  0  0  0  0  0  0  0  0  0  0  0
   37.6440   26.1810   31.7920 C   0  0  0  0  0  0  0  0  0  0  0  0
   38.7060   25.9680   32.1140 H   0  0  0  0  0  0  0  0  0  0  0  0
   37.7350   26.4730   30.7280 H   0  0  0  0  0  0  0  0  0  0  0  0
   37.0300   27.2260   32.6170 C   0  0  0  0  0  0  0  0  0  0  0  0
   37.0000   27.1300   34.0040 C   0  0  0  0  0  0  0  0  0  0  0  0
   36.4110   28.1670   34.5920 N   0  0  0  0  0  0  0  0  0  0  0  0
   36.0350   28.9820   33.5760 C   0  0  0  0  0  0  0  0  0  0  0  0
   35.3840   30.2000   33.5580 C   0  0  0  0  0  0  0  0  0  0  0  0
   35.1380   30.7910   32.3400 C   0  0  0  0  0  0  0  0  0  0  0  0
   35.5100   30.2300   31.1250 C   0  0  0  0  0  0  0  0  0  0  0  0
   36.1680   28.9990   31.1380 C   0  0  0  0  0  0  0  0  0  0  0  0
   36.4100   28.4120   32.3700 C   0  0  0  0  0  0  0  0  0  0  0  0
   36.2460   28.3710   35.5820 H   0  0  0  0  0  0  0  0  0  0  0  0
  1 10  1  0  0  0  0
  2  1  1  0  0  0  0
  3  4  1  0  0  0  0
  3  2  2  0  0  0  0
  4  5  2  0  0  0  0
  5 23  1  0  0  0  0
  5  1  1  0  0  0  0
  6  3  1  0  0  0  0
  7  4  1  0  0  0  0
  8 14  1  0  0  0  0
  8 13  1  0  0  0  0
  9  8  2  0  0  0  0
 10  9  1  0  0  0  0
 10 11  2  0  0  0  0
 11 12  1  0  0  0  0
 12 13  2  0  0  0  0
 12 15  1  0  0  0  0
 16  9  1  0  0  0  0
 17 21  1  0  0  0  0
 17 16  1  0  0  0  0
 18 17  2  0  0  0  0
 19 18  1  0  0  0  0
 19 20  2  0  0  0  0
 20 16  1  0  0  0  0
 22 19  1  0  0  0  0
 23 24  1  1  0  0  0
 25 26  1  0  0  0  0
 25 27  1  0  0  0  0
 25 23  1  0  0  0  0
 28 25  1  0  0  0  0
 29 23  1  0  0  0  0
 29 30  1  0  0  0  0
 29 32  1  0  0  0  0
 31 29  1  0  0  0  0
 32 33  2  0  0  0  0
 33 34  1  0  0  0  0
 34 41  1  0  0  0  0
 35 34  1  0  0  0  0
 36 35  1  0  0  0  0
 37 36  2  0  0  0  0
 38 39  2  0  0  0  0
 38 37  1  0  0  0  0
 39 40  1  0  0  0  0
 40 32  1  0  0  0  0
 40 35  2  0  0  0  0
M  END
>  <minimizedAffinity>
-5.45950699

>  <minimizedRMSD>
2.71606731

$$$$
