
 OpenBabel03262519213D

 27 30  0  0  0  0  0  0  0  0999 V2000
   37.7430   25.0050   33.7080 C   0  0  0  0  0  0  0  0  0  0  0  0
   37.8780   25.3890   35.0330 C   0  0  0  0  0  0  0  0  0  0  0  0
   37.6140   26.7270   35.3590 C   0  0  0  0  0  0  0  0  0  0  0  0
   37.2420   27.6020   34.3960 N   0  0  0  0  0  0  0  0  0  0  0  0
   37.1210   27.1890   33.1000 C   0  0  0  0  0  0  0  0  0  0  0  0
   37.3670   25.9270   32.7810 N   0  0  0  0  0  0  0  0  0  0  0  0
   37.7060   27.0700   36.3800 H   0  0  0  0  0  0  0  0  0  0  0  0
   36.8210   27.9260   32.3660 H   0  0  0  0  0  0  0  0  0  0  0  0
   38.2760   24.4780   36.0040 N   0  0  0  0  0  0  0  0  0  0  0  0
   37.5120   23.9610   36.9780 C   0  0  0  0  0  0  0  0  0  0  0  0
   38.1920   23.1000   37.7530 N   0  0  0  0  0  0  0  0  0  0  0  0
   39.4330   23.0600   37.2640 C   0  0  0  0  0  0  0  0  0  0  0  0
   40.5980   22.3850   37.5930 C   0  0  0  0  0  0  0  0  0  0  0  0
   41.7600   22.4990   36.9460 N   0  0  0  0  0  0  0  0  0  0  0  0
   41.7610   23.3520   35.8890 C   0  0  0  0  0  0  0  0  0  0  0  0
   40.6600   24.0060   35.5570 N   0  0  0  0  0  0  0  0  0  0  0  0
   39.4820   23.9210   36.1720 C   0  0  0  0  0  0  0  0  0  0  0  0
   36.4550   24.2090   37.1290 H   0  0  0  0  0  0  0  0  0  0  0  0
   40.5290   21.7110   38.4600 H   0  0  0  0  0  0  0  0  0  0  0  0
   42.6410   23.5290   35.2870 H   0  0  0  0  0  0  0  0  0  0  0  0
   37.9410   23.6510   33.2250 C   0  0  0  0  0  0  0  0  0  0  0  0
   39.0120   23.3480   32.4130 C   0  0  0  0  0  0  0  0  0  0  0  0
   39.3150   22.1150   31.8890 C   0  0  0  0  0  0  0  0  0  0  0  0
   40.1590   21.9240   31.2620 H   0  0  0  0  0  0  0  0  0  0  0  0
   38.5050   21.0880   32.1800 N   0  0  0  0  0  0  0  0  0  0  0  0
   37.4460   21.3330   32.9690 C   0  0  0  0  0  0  0  0  0  0  0  0
   37.2030   22.5580   33.4500 N   0  0  0  0  0  0  0  0  0  0  0  0
  1  2  1  0  0  0  0
  2  3  2  0  0  0  0
  2  9  1  0  0  0  0
  3  7  1  0  0  0  0
  4  3  1  0  0  0  0
  5  4  2  0  0  0  0
  6  5  1  0  0  0  0
  6  1  2  0  0  0  0
  8  5  1  0  0  0  0
  9 17  1  0  0  0  0
  9 10  1  0  0  0  0
 10 18  1  0  0  0  0
 10 11  2  0  0  0  0
 12 13  1  0  0  0  0
 12 11  1  0  0  0  0
 13 19  1  0  0  0  0
 14 13  2  0  0  0  0
 15 14  1  0  0  0  0
 16 15  2  0  0  0  0
 16 17  1  0  0  0  0
 17 12  2  0  0  0  0
 20 15  1  0  0  0  0
 21 27  1  0  0  0  0
 21  1  1  0  0  0  0
 22 21  2  0  0  0  0
 23 25  2  0  0  0  0
 23 22  1  0  0  0  0
 24 23  1  0  0  0  0
 25 26  1  0  0  0  0
 26 27  2  0  0  0  0
M  END
>  <minimizedAffinity>
-4.73253441

>  <minimizedRMSD>
0.987575412

$$$$
