
 OpenBabel03262516053D

 19 20  0  0  0  0  0  0  0  0999 V2000
   38.3480   24.4620   36.3070 C   0  0  0  0  0  0  0  0  0  0  0  0
   39.4190   23.5740   36.1780 C   0  0  0  0  0  0  0  0  0  0  0  0
   39.8260   22.8880   37.3320 C   0  0  0  0  0  0  0  0  0  0  0  0
   39.1640   23.1230   38.4980 N   0  0  0  0  0  0  0  0  0  0  0  0
   38.1360   23.9910   38.5730 C   0  0  0  0  0  0  0  0  0  0  0  0
   37.7370   24.6540   37.4710 N   0  0  0  0  0  0  0  0  0  0  0  0
   39.9530   23.3750   35.2690 H   0  0  0  0  0  0  0  0  0  0  0  0
   37.6960   24.0820   39.5660 H   0  0  0  0  0  0  0  0  0  0  0  0
   37.9150   25.1830   35.1120 C   0  0  0  0  0  0  0  0  0  0  0  0
   37.4930   26.4940   35.2170 C   0  0  0  0  0  0  0  0  0  0  0  0
   37.0820   27.1690   34.0680 C   0  0  0  0  0  0  0  0  0  0  0  0
   36.7390   28.2010   34.0880 H   0  0  0  0  0  0  0  0  0  0  0  0
   37.1010   26.5470   32.8760 N   0  0  0  0  0  0  0  0  0  0  0  0
   37.5160   25.2690   32.7910 C   0  0  0  0  0  0  0  0  0  0  0  0
   37.9220   24.5890   33.9050 N   0  0  0  0  0  0  0  0  0  0  0  0
   40.9720   21.9170   37.2620 C   0  0  0  0  0  0  0  0  0  0  0  0
   41.9270   22.4470   37.4560 H   0  0  0  0  0  0  0  0  0  0  0  0
   40.8260   21.1720   38.0620 H   0  0  0  0  0  0  0  0  0  0  0  0
   40.9570   21.4190   36.2620 H   0  0  0  0  0  0  0  0  0  0  0  0
  1  6  1  0  0  0  0
  2  1  2  0  0  0  0
  2  3  1  0  0  0  0
  3  4  2  0  0  0  0
  4  5  1  0  0  0  0
  5  8  1  0  0  0  0
  6  5  2  0  0  0  0
  7  2  1  0  0  0  0
  9 10  1  0  0  0  0
  9  1  1  0  0  0  0
 11 12  1  0  0  0  0
 11 10  2  0  0  0  0
 13 11  1  0  0  0  0
 14 13  2  0  0  0  0
 14 15  1  0  0  0  0
 15  9  2  0  0  0  0
 16  3  1  0  0  0  0
 16 17  1  0  0  0  0
 16 18  1  0  0  0  0
 19 16  1  0  0  0  0
M  END
>  <minimizedAffinity>
-4.13526058

>  <minimizedRMSD>
6.2642827

$$$$
