
 OpenBabel03262520003D

 33 36  0  0  1  0  0  0  0  0999 V2000
   39.1720   24.5940   36.2460 C   0  0  1  0  0  0  0  0  0  0  0  0
   37.7950   25.0000   36.3200 C   0  0  0  0  0  0  0  0  0  0  0  0
   38.2430   23.6250   36.9000 C   0  0  1  0  0  0  0  0  0  0  0  0
   39.8710   25.1760   36.9310 H   0  0  0  0  0  0  0  0  0  0  0  0
   37.0990   24.9100   35.4740 H   0  0  0  0  0  0  0  0  0  0  0  0
   37.4530   25.7710   37.0450 H   0  0  0  0  0  0  0  0  0  0  0  0
   39.6780   24.3230   33.8130 C   0  0  0  0  0  0  0  0  0  0  0  0
   40.5800   23.5910   33.0430 C   0  0  0  0  0  0  0  0  0  0  0  0
   41.3080   22.9020   33.9660 N   0  0  0  0  0  0  0  0  0  0  0  0
   40.8450   23.2250   35.1720 C   0  0  0  0  0  0  0  0  0  0  0  0
   39.8440   24.0950   35.1030 N   0  0  0  0  0  0  0  0  0  0  0  0
   40.6200   23.6270   31.9700 H   0  0  0  0  0  0  0  0  0  0  0  0
   41.3660   22.7210   35.9860 H   0  0  0  0  0  0  0  0  0  0  0  0
   38.6830   25.2350   33.2700 C   0  0  0  0  0  0  0  0  0  0  0  0
   38.9510   26.6200   33.2350 C   0  0  0  0  0  0  0  0  0  0  0  0
   37.9570   27.4660   32.6950 C   0  0  0  0  0  0  0  0  0  0  0  0
   36.8100   26.8860   32.2470 N   0  0  0  0  0  0  0  0  0  0  0  0
   36.5950   25.5510   32.3010 C   0  0  0  0  0  0  0  0  0  0  0  0
   37.5200   24.7200   32.8080 N   0  0  0  0  0  0  0  0  0  0  0  0
   39.8960   26.9570   33.6190 H   0  0  0  0  0  0  0  0  0  0  0  0
   38.1580   28.5150   32.6660 H   0  0  0  0  0  0  0  0  0  0  0  0
   35.6840   25.0940   31.9450 H   0  0  0  0  0  0  0  0  0  0  0  0
   37.4060   22.5650   36.2420 C   0  0  0  0  0  0  0  0  0  0  0  0
   37.5190   21.9330   35.0230 C   0  0  0  0  0  3  0  0  0  0  0  0
   36.5780   20.9810   34.6980 C   0  0  0  0  0  0  0  0  0  0  0  0
   36.7510   20.5340   33.7090 H   0  0  0  0  0  0  0  0  0  0  0  0
   35.5750   20.6700   35.5340 N   0  0  0  0  0  0  0  0  0  0  0  0
   35.4760   21.2860   36.7070 C   0  0  0  0  0  3  0  0  0  0  0  0
   36.3750   22.2260   37.0710 N   0  0  0  0  0  0  0  0  0  0  0  0
   38.1780   23.6320   38.4110 C   0  0  0  0  0  0  0  0  0  0  0  0
   37.6450   22.4460   38.8680 F   0  0  0  0  0  0  0  0  0  0  0  0
   39.5520   23.5920   38.9120 F   0  0  0  0  0  0  0  0  0  0  0  0
   37.6280   24.7320   38.9430 F   0  0  0  0  0  0  0  0  0  0  0  0
  1  2  1  0  0  0  0
  1  3  1  0  0  0  0
  1  4  1  1  0  0  0
  2  3  1  0  0  0  0
  2  6  1  0  0  0  0
  3 30  1  1  0  0  0
  5  2  1  0  0  0  0
  7 11  1  0  0  0  0
  8  7  2  0  0  0  0
  8  9  1  0  0  0  0
  9 10  2  0  0  0  0
 10 13  1  0  0  0  0
 11 10  1  0  0  0  0
 11  1  1  0  0  0  0
 12  8  1  0  0  0  0
 14  7  1  0  0  0  0
 15 14  1  0  0  0  0
 15 20  1  0  0  0  0
 16 15  2  0  0  0  0
 17 18  2  0  0  0  0
 17 16  1  0  0  0  0
 18 19  1  0  0  0  0
 19 14  2  0  0  0  0
 21 16  1  0  0  0  0
 22 18  1  0  0  0  0
 23  3  1  0  0  0  0
 23 29  1  0  0  0  0
 24 23  2  0  0  0  0
 25 24  1  0  0  0  0
 25 27  2  0  0  0  0
 26 25  1  0  0  0  0
 27 28  1  0  0  0  0
 28 29  2  0  0  0  0
 30 31  1  0  0  0  0
 30 32  1  0  0  0  0
 30 33  1  0  0  0  0
M  END
>  <minimizedAffinity>
-5.15808058

>  <minimizedRMSD>
2.40443611

$$$$
