
 OpenBabel03262520003D

 33 36  0  0  1  0  0  0  0  0999 V2000
   39.6210   24.0460   34.3560 C   0  0  1  0  0  0  0  0  0  0  0  0
   38.4580   24.5180   35.0560 C   0  0  0  0  0  0  0  0  0  0  0  0
   38.9200   23.0370   35.2050 C   0  0  1  0  0  0  0  0  0  0  0  0
   40.6070   24.4530   34.7530 H   0  0  0  0  0  0  0  0  0  0  0  0
   37.4740   24.6220   34.5790 H   0  0  0  0  0  0  0  0  0  0  0  0
   38.5440   25.1700   35.9540 H   0  0  0  0  0  0  0  0  0  0  0  0
   39.1180   24.2290   31.9140 C   0  0  0  0  0  0  0  0  0  0  0  0
   39.4960   23.5610   30.7510 C   0  0  0  0  0  0  0  0  0  0  0  0
   40.3530   22.5990   31.1930 N   0  0  0  0  0  0  0  0  0  0  0  0
   40.4490   22.7200   32.5170 C   0  0  0  0  0  0  0  0  0  0  0  0
   39.7000   23.7130   32.9810 N   0  0  0  0  0  0  0  0  0  0  0  0
   39.1400   23.8170   29.7700 H   0  0  0  0  0  0  0  0  0  0  0  0
   41.1180   21.9890   32.9710 H   0  0  0  0  0  0  0  0  0  0  0  0
   38.2060   25.3620   31.9540 C   0  0  0  0  0  0  0  0  0  0  0  0
   38.7240   26.6720   32.0490 C   0  0  0  0  0  0  0  0  0  0  0  0
   37.8010   27.7400   32.0790 C   0  0  0  0  0  0  0  0  0  0  0  0
   36.4770   27.4320   32.0160 N   0  0  0  0  0  0  0  0  0  0  0  0
   36.0250   26.1600   31.9260 C   0  0  0  0  0  0  0  0  0  0  0  0
   36.8770   25.1220   31.8940 N   0  0  0  0  0  0  0  0  0  0  0  0
   39.7920   26.7860   32.0920 H   0  0  0  0  0  0  0  0  0  0  0  0
   38.1910   28.7330   32.1500 H   0  0  0  0  0  0  0  0  0  0  0  0
   34.9740   25.9190   31.8750 H   0  0  0  0  0  0  0  0  0  0  0  0
   37.7580   22.1640   34.8270 C   0  0  0  0  0  0  0  0  0  0  0  0
   37.3380   21.6710   33.6110 C   0  0  0  0  0  3  0  0  0  0  0  0
   36.2120   20.8780   33.5870 C   0  0  0  0  0  0  0  0  0  0  0  0
   35.9580   20.5340   32.5750 H   0  0  0  0  0  0  0  0  0  0  0  0
   35.5360   20.5850   34.7090 N   0  0  0  0  0  0  0  0  0  0  0  0
   35.9490   21.0650   35.8760 C   0  0  0  0  0  3  0  0  0  0  0  0
   37.0470   21.8480   35.9500 N   0  0  0  0  0  0  0  0  0  0  0  0
   39.4750   22.7840   36.5890 C   0  0  0  0  0  0  0  0  0  0  0  0
   39.8520   21.4640   36.7140 F   0  0  0  0  0  0  0  0  0  0  0  0
   40.7450   23.5020   36.6930 F   0  0  0  0  0  0  0  0  0  0  0  0
   38.7140   23.2440   37.5910 F   0  0  0  0  0  0  0  0  0  0  0  0
  1  4  1  1  0  0  0
  1  2  1  0  0  0  0
  1  3  1  0  0  0  0
  2  3  1  0  0  0  0
  2  6  1  0  0  0  0
  3 30  1  1  0  0  0
  5  2  1  0  0  0  0
  7 14  1  0  0  0  0
  7 11  1  0  0  0  0
  8  9  1  0  0  0  0
  8  7  2  0  0  0  0
  9 10  2  0  0  0  0
 10 13  1  0  0  0  0
 10 11  1  0  0  0  0
 11  1  1  0  0  0  0
 12  8  1  0  0  0  0
 14 15  1  0  0  0  0
 15 16  2  0  0  0  0
 15 20  1  0  0  0  0
 16 21  1  0  0  0  0
 17 16  1  0  0  0  0
 18 17  2  0  0  0  0
 19 18  1  0  0  0  0
 19 14  2  0  0  0  0
 22 18  1  0  0  0  0
 23  3  1  0  0  0  0
 23 29  1  0  0  0  0
 24 23  2  0  0  0  0
 25 24  1  0  0  0  0
 25 27  2  0  0  0  0
 26 25  1  0  0  0  0
 27 28  1  0  0  0  0
 28 29  2  0  0  0  0
 30 32  1  0  0  0  0
 30 31  1  0  0  0  0
 30 33  1  0  0  0  0
M  END
>  <minimizedAffinity>
-4.50113916

>  <minimizedRMSD>
2.96810627

$$$$
