
 OpenBabel03262519573D

 30 33  0  0  1  0  0  0  0  0999 V2000
   38.0790   23.7350   34.4680 C   0  0  0  0  0  0  0  0  0  0  0  0
   38.2790   24.9250   33.7850 C   0  0  0  0  0  0  0  0  0  0  0  0
   37.8190   24.6530   32.5250 N   0  0  0  0  0  0  0  0  0  0  0  0
   37.3910   23.4100   32.4980 C   0  0  0  0  0  0  0  0  0  0  0  0
   37.5390   22.8020   33.7010 N   0  0  0  0  0  0  0  0  0  0  0  0
   38.6970   25.8700   34.1240 H   0  0  0  0  0  0  0  0  0  0  0  0
   36.9760   22.9760   31.5810 H   0  0  0  0  0  0  0  0  0  0  0  0
   38.4190   23.5200   35.8750 C   0  0  0  0  0  0  0  0  0  0  0  0
   39.6450   22.9390   36.2160 C   0  0  0  0  0  0  0  0  0  0  0  0
   39.9350   22.7500   37.5850 C   0  0  0  0  0  0  0  0  0  0  0  0
   39.0160   23.1390   38.4810 N   0  0  0  0  0  0  0  0  0  0  0  0
   37.8350   23.7000   38.1180 C   0  0  0  0  0  0  0  0  0  0  0  0
   37.5360   23.8910   36.8210 N   0  0  0  0  0  0  0  0  0  0  0  0
   40.3590   22.6390   35.4710 H   0  0  0  0  0  0  0  0  0  0  0  0
   40.8610   22.3080   37.9150 H   0  0  0  0  0  0  0  0  0  0  0  0
   37.1140   24.0040   38.8650 H   0  0  0  0  0  0  0  0  0  0  0  0
   37.1580   21.4390   33.9690 C   0  0  1  0  0  0  0  0  0  0  0  0
   35.9990   21.0780   34.7710 C   0  0  0  0  0  0  0  0  0  0  0  0
   35.8610   21.0410   33.2750 C   0  0  2  0  0  0  0  0  0  0  0  0
   38.0180   20.7490   33.9620 H   0  0  0  0  0  0  0  0  0  0  0  0
   35.9730   20.1450   35.3520 H   0  0  0  0  0  0  0  0  0  0  0  0
   35.3590   21.8720   35.2380 H   0  0  0  0  0  0  0  0  0  0  0  0
   35.2670   21.8120   32.7530 H   0  0  0  0  0  0  0  0  0  0  0  0
   35.9820   19.7450   32.5520 C   0  0  0  0  0  0  0  0  0  0  0  0
   36.6820   19.6960   31.3530 C   0  0  0  0  0  3  0  0  0  0  0  0
   36.7690   18.4640   30.7120 C   0  0  0  0  0  0  0  0  0  0  0  0
   37.3210   18.4110   29.7630 H   0  0  0  0  0  0  0  0  0  0  0  0
   36.2140   17.3290   31.1920 N   0  0  0  0  0  0  0  0  0  0  0  0
   35.5420   17.4460   32.3710 C   0  0  0  0  0  3  0  0  0  0  0  0
   35.4250   18.6240   33.0410 N   0  0  0  0  0  0  0  0  0  0  0  0
  1  8  1  0  0  0  0
  2  6  1  0  0  0  0
  2  1  2  0  0  0  0
  3  2  1  0  0  0  0
  4  3  2  0  0  0  0
  4  5  1  0  0  0  0
  5 17  1  0  0  0  0
  5  1  1  0  0  0  0
  7  4  1  0  0  0  0
  8  9  2  0  0  0  0
  8 13  1  0  0  0  0
  9 10  1  0  0  0  0
 10 15  1  0  0  0  0
 10 11  2  0  0  0  0
 12 11  1  0  0  0  0
 12 16  1  0  0  0  0
 13 12  2  0  0  0  0
 14  9  1  0  0  0  0
 17 20  1  6  0  0  0
 17 18  1  0  0  0  0
 18 22  1  0  0  0  0
 18 21  1  0  0  0  0
 19 23  1  6  0  0  0
 19 17  1  0  0  0  0
 19 18  1  0  0  0  0
 24 30  1  0  0  0  0
 24 19  1  0  0  0  0
 25 24  2  0  0  0  0
 26 28  2  0  0  0  0
 26 25  1  0  0  0  0
 27 26  1  0  0  0  0
 28 29  1  0  0  0  0
 29 30  2  0  0  0  0
M  END
>  <minimizedAffinity>
-4.83331108

>  <minimizedRMSD>
0.650445998

$$$$
