
 OpenBabel03262519373D

 31 33  0  0  1  0  0  0  0  0999 V2000
   37.6890   23.6260   33.7630 N   0  0  0  0  0  0  0  0  0  0  0  0
   37.6280   22.1940   33.5700 C   0  0  0  0  0  0  0  0  0  0  0  0
   36.8300   22.0080   32.3000 C   0  0  0  0  0  0  0  0  0  0  0  0
   36.4500   23.4460   31.9010 C   0  0  0  0  0  0  0  0  0  0  0  0
   37.7470   24.1110   32.4400 C   0  0  1  0  0  0  0  0  0  0  0  0
   38.6720   21.8540   33.3750 H   0  0  0  0  0  0  0  0  0  0  0  0
   37.2060   21.6680   34.4260 H   0  0  0  0  0  0  0  0  0  0  0  0
   37.4710   21.6280   31.4730 H   0  0  0  0  0  0  0  0  0  0  0  0
   35.9390   21.3750   32.4180 H   0  0  0  0  0  0  0  0  0  0  0  0
   35.5860   23.7190   32.5030 H   0  0  0  0  0  0  0  0  0  0  0  0
   36.3570   23.5640   30.8200 H   0  0  0  0  0  0  0  0  0  0  0  0
   38.5410   23.5460   31.9010 H   0  0  0  0  0  0  0  0  0  0  0  0
   37.7600   25.5300   32.1680 C   0  0  0  0  0  0  0  0  0  0  0  0
   38.6050   26.3330   31.4470 C   0  0  0  0  0  0  0  0  0  0  0  0
   38.4720   27.6910   31.2740 C   0  0  0  0  0  0  0  0  0  0  0  0
   39.2530   28.1510   30.6610 H   0  0  0  0  0  0  0  0  0  0  0  0
   37.4450   28.3080   31.8440 N   0  0  0  0  0  0  0  0  0  0  0  0
   36.5790   27.5660   32.5680 C   0  0  0  0  0  0  0  0  0  0  0  0
   36.7340   26.2530   32.7170 N   0  0  0  0  0  0  0  0  0  0  0  0
   38.9280   24.0220   34.4150 C   0  0  0  0  0  0  0  0  0  0  0  0
   39.7110   23.3170   34.0120 H   0  0  0  0  0  0  0  0  0  0  0  0
   39.2110   25.0550   34.1430 H   0  0  0  0  0  0  0  0  0  0  0  0
   37.8840   24.1090   38.0390 C   0  0  0  0  0  0  0  0  0  0  0  0
   37.9050   24.3390   36.6620 C   0  0  0  0  0  0  0  0  0  0  0  0
   38.9050   23.7810   35.8730 C   0  0  0  0  0  0  0  0  0  0  0  0
   39.8430   23.0140   36.5030 N   0  0  0  0  0  0  0  0  0  0  0  0
   39.8140   22.7970   37.8310 C   0  0  0  0  0  0  0  0  0  0  0  0
   38.8420   23.3420   38.5890 N   0  0  0  0  0  0  0  0  0  0  0  0
   37.1730   24.4830   38.7410 H   0  0  0  0  0  0  0  0  0  0  0  0
   37.1250   24.9440   36.2740 H   0  0  0  0  0  0  0  0  0  0  0  0
   40.6360   22.1660   38.1470 H   0  0  0  0  0  0  0  0  0  0  0  0
  1 20  1  0  0  0  0
  2  1  1  0  0  0  0
  2  7  1  0  0  0  0
  3  9  1  0  0  0  0
  3  2  1  0  0  0  0
  4  3  1  0  0  0  0
  4  5  1  0  0  0  0
  4 10  1  0  0  0  0
  5 12  1  6  0  0  0
  5  1  1  0  0  0  0
  6  2  1  0  0  0  0
  8  3  1  0  0  0  0
 11  4  1  0  0  0  0
 13  5  1  0  0  0  0
 13 19  1  0  0  0  0
 14 13  2  0  0  0  0
 15 14  1  0  0  0  0
 15 17  2  0  0  0  0
 16 15  1  0  0  0  0
 17 18  1  0  0  0  0
 18 19  2  0  0  0  0
 20 25  1  0  0  0  0
 21 20  1  0  0  0  0
 22 20  1  0  0  0  0
 23 28  1  0  0  0  0
 23 29  1  0  0  0  0
 24 23  2  0  0  0  0
 25 26  2  0  0  0  0
 25 24  1  0  0  0  0
 26 27  1  0  0  0  0
 27 31  1  0  0  0  0
 27 28  2  0  0  0  0
 30 24  1  0  0  0  0
M  END
>  <minimizedAffinity>
-4.33513641

>  <minimizedRMSD>
3.60871506

$$$$
