
 OpenBabel03262519253D

 43 48  0  0  0  0  0  0  0  0999 V2000
   39.2510   23.4560   32.4370 C   0  0  0  0  0  0  0  0  0  0  0  0
   40.0580   22.3690   32.7540 C   0  0  0  0  0  0  0  0  0  0  0  0
   39.6110   21.0490   32.6560 C   0  0  0  0  0  0  0  0  0  0  0  0
   38.3150   20.7970   32.2300 C   0  0  0  0  0  0  0  0  0  0  0  0
   37.4920   21.8570   31.9090 C   0  0  0  0  0  0  0  0  0  0  0  0
   36.2140   21.6200   31.4810 C   0  0  0  0  0  0  0  0  0  0  0  0
   35.3530   22.6300   31.1420 C   0  0  0  0  0  0  0  0  0  0  0  0
   35.8310   23.9390   31.2490 C   0  0  0  0  0  0  0  0  0  0  0  0
   37.1280   24.1380   31.6840 C   0  0  0  0  0  0  0  0  0  0  0  0
   37.9870   23.1410   32.0240 C   0  0  0  0  0  0  0  0  0  0  0  0
   41.0720   22.6110   33.0850 H   0  0  0  0  0  0  0  0  0  0  0  0
   40.3290   20.2870   32.9290 H   0  0  0  0  0  0  0  0  0  0  0  0
   37.9870   19.7700   32.1610 H   0  0  0  0  0  0  0  0  0  0  0  0
   35.9220   20.5830   31.4280 H   0  0  0  0  0  0  0  0  0  0  0  0
   34.3670   22.2890   30.8200 H   0  0  0  0  0  0  0  0  0  0  0  0
   35.0400   24.6130   30.9480 H   0  0  0  0  0  0  0  0  0  0  0  0
   39.7530   24.7930   32.5560 C   0  0  0  0  0  0  0  0  0  0  0  0
   39.7110   25.5160   33.7650 C   0  0  0  0  0  0  0  0  0  0  0  0
   40.2390   26.8140   33.7650 C   0  0  0  0  0  0  0  0  0  0  0  0
   40.7670   27.3240   32.6150 N   0  0  0  0  0  0  0  0  0  0  0  0
   40.7950   26.6030   31.4750 C   0  0  0  0  0  0  0  0  0  0  0  0
   40.3000   25.3850   31.4700 N   0  0  0  0  0  0  0  0  0  0  0  0
   40.2370   27.4180   34.6480 H   0  0  0  0  0  0  0  0  0  0  0  0
   41.2120   27.0070   30.5760 H   0  0  0  0  0  0  0  0  0  0  0  0
   39.1780   24.9410   34.9050 N   0  0  0  0  0  0  0  0  0  0  0  0
   37.9280   25.1030   35.3720 C   0  0  0  0  0  0  0  0  0  0  0  0
   37.7240   24.3970   36.5060 N   0  0  0  0  0  0  0  0  0  0  0  0
   38.8840   23.7620   36.7730 C   0  0  0  0  0  0  0  0  0  0  0  0
   39.3010   22.9140   37.7660 C   0  0  0  0  0  0  0  0  0  0  0  0
   40.5510   22.3840   37.8300 N   0  0  0  0  0  0  0  0  0  0  0  0
   41.4000   22.7470   36.8260 C   0  0  0  0  0  0  0  0  0  0  0  0
   40.9760   23.5710   35.8720 N   0  0  0  0  0  0  0  0  0  0  0  0
   39.7700   24.1100   35.7730 C   0  0  0  0  0  0  0  0  0  0  0  0
   37.1330   25.7050   34.9480 H   0  0  0  0  0  0  0  0  0  0  0  0
   38.5830   22.6580   38.5400 H   0  0  0  0  0  0  0  0  0  0  0  0
   42.4110   22.3740   36.7960 H   0  0  0  0  0  0  0  0  0  0  0  0
   37.2630   25.5790   31.6240 C   0  0  0  0  0  0  0  0  0  0  0  0
   36.7210   26.2810   32.7410 C   0  0  0  0  0  0  0  0  0  0  0  0
   36.6770   27.6610   32.9770 C   0  0  0  0  0  0  0  0  0  0  0  0
   36.2310   28.0470   33.8740 H   0  0  0  0  0  0  0  0  0  0  0  0
   37.2220   28.4140   32.0140 N   0  0  0  0  0  0  0  0  0  0  0  0
   37.7480   27.8150   30.9400 C   0  0  0  0  0  0  0  0  0  0  0  0
   37.7460   26.4980   30.8000 N   0  0  0  0  0  0  0  0  0  0  0  0
  1 17  1  0  0  0  0
  1  2  1  0  0  0  0
  2 11  1  0  0  0  0
  3  2  2  0  0  0  0
  3 12  1  0  0  0  0
  4  3  1  0  0  0  0
  5 10  1  0  0  0  0
  5  4  2  0  0  0  0
  6  5  1  0  0  0  0
  7  8  1  0  0  0  0
  7  6  2  0  0  0  0
  8  9  2  0  0  0  0
  9 10  1  0  0  0  0
 10  1  2  0  0  0  0
 13  4  1  0  0  0  0
 14  6  1  0  0  0  0
 15  7  1  0  0  0  0
 16  8  1  0  0  0  0
 17 18  1  0  0  0  0
 18 25  1  0  0  0  0
 19 18  2  0  0  0  0
 19 23  1  0  0  0  0
 20 19  1  0  0  0  0
 21 20  2  0  0  0  0
 22 21  1  0  0  0  0
 22 17  2  0  0  0  0
 24 21  1  0  0  0  0
 25 26  1  0  0  0  0
 25 33  1  0  0  0  0
 26 27  2  0  0  0  0
 27 28  1  0  0  0  0
 28 29  1  0  0  0  0
 29 30  2  0  0  0  0
 29 35  1  0  0  0  0
 31 30  1  0  0  0  0
 32 31  2  0  0  0  0
 33 32  1  0  0  0  0
 33 28  2  0  0  0  0
 34 26  1  0  0  0  0
 36 31  1  0  0  0  0
 37  9  1  0  0  0  0
 37 38  1  0  0  0  0
 38 39  2  0  0  0  0
 39 40  1  0  0  0  0
 41 39  1  0  0  0  0
 42 41  2  0  0  0  0
 43 42  1  0  0  0  0
 43 37  2  0  0  0  0
M  END
>  <minimizedAffinity>
-6.18742466

>  <minimizedRMSD>
1.53344059

$$$$
