
 OpenBabel03262519563D

 30 33  0  0  1  0  0  0  0  0999 V2000
   38.0770   23.7370   34.4690 C   0  0  0  0  0  0  0  0  0  0  0  0
   38.2770   24.9270   33.7860 C   0  0  0  0  0  0  0  0  0  0  0  0
   37.8170   24.6550   32.5260 N   0  0  0  0  0  0  0  0  0  0  0  0
   37.3910   23.4120   32.4990 C   0  0  0  0  0  0  0  0  0  0  0  0
   37.5380   22.8040   33.7020 N   0  0  0  0  0  0  0  0  0  0  0  0
   38.6930   25.8730   34.1260 H   0  0  0  0  0  0  0  0  0  0  0  0
   36.9760   22.9780   31.5810 H   0  0  0  0  0  0  0  0  0  0  0  0
   38.4160   23.5230   35.8760 C   0  0  0  0  0  0  0  0  0  0  0  0
   39.6410   22.9390   36.2180 C   0  0  0  0  0  0  0  0  0  0  0  0
   39.9300   22.7500   37.5870 C   0  0  0  0  0  0  0  0  0  0  0  0
   39.0120   23.1420   38.4830 N   0  0  0  0  0  0  0  0  0  0  0  0
   37.8320   23.7060   38.1190 C   0  0  0  0  0  0  0  0  0  0  0  0
   37.5330   23.8960   36.8220 N   0  0  0  0  0  0  0  0  0  0  0  0
   40.3540   22.6370   35.4740 H   0  0  0  0  0  0  0  0  0  0  0  0
   40.8550   22.3060   37.9180 H   0  0  0  0  0  0  0  0  0  0  0  0
   37.1120   24.0110   38.8660 H   0  0  0  0  0  0  0  0  0  0  0  0
   37.1580   21.4400   33.9700 C   0  0  1  0  0  0  0  0  0  0  0  0
   36.0000   21.0780   34.7730 C   0  0  0  0  0  0  0  0  0  0  0  0
   35.8620   21.0420   33.2760 C   0  0  2  0  0  0  0  0  0  0  0  0
   38.0190   20.7510   33.9610 H   0  0  0  0  0  0  0  0  0  0  0  0
   35.9750   20.1450   35.3530 H   0  0  0  0  0  0  0  0  0  0  0  0
   35.3600   21.8720   35.2400 H   0  0  0  0  0  0  0  0  0  0  0  0
   35.2660   21.8120   32.7550 H   0  0  0  0  0  0  0  0  0  0  0  0
   35.9830   19.7470   32.5520 C   0  0  0  0  0  0  0  0  0  0  0  0
   36.6810   19.6980   31.3530 C   0  0  0  0  0  3  0  0  0  0  0  0
   36.7690   18.4670   30.7110 C   0  0  0  0  0  0  0  0  0  0  0  0
   37.3190   18.4160   29.7610 H   0  0  0  0  0  0  0  0  0  0  0  0
   36.2150   17.3310   31.1900 N   0  0  0  0  0  0  0  0  0  0  0  0
   35.5430   17.4470   32.3710 C   0  0  0  0  0  3  0  0  0  0  0  0
   35.4260   18.6250   33.0410 N   0  0  0  0  0  0  0  0  0  0  0  0
  1  8  1  0  0  0  0
  2  6  1  0  0  0  0
  2  1  2  0  0  0  0
  3  2  1  0  0  0  0
  4  3  2  0  0  0  0
  4  5  1  0  0  0  0
  5 17  1  0  0  0  0
  5  1  1  0  0  0  0
  7  4  1  0  0  0  0
  8  9  2  0  0  0  0
  8 13  1  0  0  0  0
  9 10  1  0  0  0  0
 10 15  1  0  0  0  0
 10 11  2  0  0  0  0
 12 11  1  0  0  0  0
 12 16  1  0  0  0  0
 13 12  2  0  0  0  0
 14  9  1  0  0  0  0
 17 20  1  6  0  0  0
 17 18  1  0  0  0  0
 18 22  1  0  0  0  0
 18 21  1  0  0  0  0
 19 23  1  6  0  0  0
 19 17  1  0  0  0  0
 19 18  1  0  0  0  0
 24 30  1  0  0  0  0
 24 19  1  0  0  0  0
 25 24  2  0  0  0  0
 26 28  2  0  0  0  0
 26 25  1  0  0  0  0
 27 26  1  0  0  0  0
 28 29  1  0  0  0  0
 29 30  2  0  0  0  0
M  END
>  <minimizedAffinity>
-4.83311892

>  <minimizedRMSD>
0.659861863

$$$$
