
 OpenBabel03262518363D

 49 53  0  0  0  0  0  0  0  0999 V2000
   37.2390   26.5880   34.5860 C   0  0  0  0  0  0  0  0  0  0  0  0
   37.2980   25.6950   33.5190 C   0  0  0  0  0  0  0  0  0  0  0  0
   36.6900   26.0560   32.2990 C   0  0  0  0  0  0  0  0  0  0  0  0
   36.0850   27.2560   32.2510 N   0  0  0  0  0  0  0  0  0  0  0  0
   36.0420   28.1020   33.2980 C   0  0  0  0  0  0  0  0  0  0  0  0
   36.6150   27.7850   34.4770 N   0  0  0  0  0  0  0  0  0  0  0  0
   37.7930   24.7410   33.5980 H   0  0  0  0  0  0  0  0  0  0  0  0
   36.7240   25.3760   31.4580 H   0  0  0  0  0  0  0  0  0  0  0  0
   37.8770   26.1910   35.8360 C   0  0  0  0  0  0  0  0  0  0  0  0
   38.6720   26.9730   36.3840 O   0  0  0  0  0  0  0  0  0  0  0  0
   37.5940   24.9710   36.3870 O   0  0  0  0  0  0  0  0  0  0  0  0
   39.6160   22.6970   38.1750 N   0  0  0  0  0  0  0  0  0  0  0  0
   38.5390   23.4710   38.0120 N   0  0  0  0  0  0  0  0  0  0  0  0
   38.6290   24.0880   36.7930 C   0  0  0  0  0  0  0  0  0  0  0  0
   39.7800   23.6940   36.1820 C   0  0  0  0  0  0  0  0  0  0  0  0
   40.3660   22.8330   37.0660 C   0  0  0  0  0  0  0  0  0  0  0  0
   39.8780   22.0830   38.9850 H   0  0  0  0  0  0  0  0  0  0  0  0
   40.0780   24.0460   35.2020 H   0  0  0  0  0  0  0  0  0  0  0  0
   41.6660   22.1490   36.8080 C   0  0  0  0  0  0  0  0  0  0  0  0
   42.6910   22.8420   36.2020 C   0  0  0  0  0  0  0  0  0  0  0  0
   43.8490   22.1110   36.0110 C   0  0  0  0  0  0  0  0  0  0  0  0
   44.0330   20.8130   36.3670 N   0  0  0  0  0  0  0  0  0  0  0  0
   42.9880   20.1850   36.9600 C   0  0  0  0  0  0  0  0  0  0  0  0
   41.8470   20.8520   37.1650 N   0  0  0  0  0  0  0  0  0  0  0  0
   42.6040   23.8600   35.9010 H   0  0  0  0  0  0  0  0  0  0  0  0
   44.6940   22.5970   35.5390 H   0  0  0  0  0  0  0  0  0  0  0  0
   42.9510   19.1620   37.3070 H   0  0  0  0  0  0  0  0  0  0  0  0
   35.3350   29.4000   33.1040 C   0  0  0  0  0  0  0  0  0  0  0  0
   34.6790   29.7150   34.4640 C   0  0  0  0  0  0  0  0  0  0  0  0
   35.4350   29.8390   35.2460 H   0  0  0  0  0  0  0  0  0  0  0  0
   33.9960   28.8860   34.7060 H   0  0  0  0  0  0  0  0  0  0  0  0
   34.0630   30.6300   34.3580 H   0  0  0  0  0  0  0  0  0  0  0  0
   34.2330   29.1900   32.1080 C   0  0  0  0  0  0  0  0  0  0  0  0
   34.6450   28.7670   31.1730 H   0  0  0  0  0  0  0  0  0  0  0  0
   33.6720   30.1130   31.8970 H   0  0  0  0  0  0  0  0  0  0  0  0
   33.5180   28.4270   32.5430 H   0  0  0  0  0  0  0  0  0  0  0  0
   36.2600   30.5150   32.7300 C   0  0  0  0  0  0  0  0  0  0  0  0
   35.8270   31.4460   33.2040 H   0  0  0  0  0  0  0  0  0  0  0  0
   37.2120   30.3560   33.2980 H   0  0  0  0  0  0  0  0  0  0  0  0
   36.4800   30.7130   31.2980 C   0  0  0  0  0  0  0  0  0  0  0  0
   35.8440   31.7710   30.6340 C   0  0  0  0  0  0  0  0  0  0  0  0
   36.1790   31.8140   29.3320 N   0  0  0  0  0  0  0  0  0  0  0  0
   37.0350   30.8010   29.1000 C   0  0  0  0  0  0  0  0  0  0  0  0
   37.7050   30.3460   27.9600 C   0  0  0  0  0  0  0  0  0  0  0  0
   38.5240   29.2410   28.0800 C   0  0  0  0  0  0  0  0  0  0  0  0
   38.6920   28.5860   29.2840 C   0  0  0  0  0  0  0  0  0  0  0  0
   38.0330   29.0300   30.4100 C   0  0  0  0  0  0  0  0  0  0  0  0
   37.2160   30.1330   30.2940 C   0  0  0  0  0  0  0  0  0  0  0  0
   35.8560   32.4920   28.6100 H   0  0  0  0  0  0  0  0  0  0  0  0
  1  9  1  0  0  0  0
  2  7  1  0  0  0  0
  2  1  2  0  0  0  0
  3  2  1  0  0  0  0
  4  3  2  0  0  0  0
  4  5  1  0  0  0  0
  5  6  2  0  0  0  0
  6  1  1  0  0  0  0
  8  3  1  0  0  0  0
  9 10  2  0  0  0  0
  9 11  1  0  0  0  0
 11 14  1  0  0  0  0
 12 17  1  0  0  0  0
 13 12  1  0  0  0  0
 14 13  2  0  0  0  0
 15 14  1  0  0  0  0
 15 16  2  0  0  0  0
 16 12  1  0  0  0  0
 18 15  1  0  0  0  0
 19 16  1  0  0  0  0
 19 24  1  0  0  0  0
 20 19  2  0  0  0  0
 21 20  1  0  0  0  0
 21 22  2  0  0  0  0
 22 23  1  0  0  0  0
 23 24  2  0  0  0  0
 23 27  1  0  0  0  0
 25 20  1  0  0  0  0
 26 21  1  0  0  0  0
 28  5  1  0  0  0  0
 28 29  1  0  0  0  0
 29 31  1  0  0  0  0
 29 30  1  0  0  0  0
 32 29  1  0  0  0  0
 33 36  1  0  0  0  0
 33 28  1  0  0  0  0
 34 33  1  0  0  0  0
 35 33  1  0  0  0  0
 37 28  1  0  0  0  0
 37 38  1  0  0  0  0
 37 39  1  0  0  0  0
 40 37  1  0  0  0  0
 41 40  2  0  0  0  0
 42 41  1  0  0  0  0
 43 42  1  0  0  0  0
 43 48  1  0  0  0  0
 44 45  1  0  0  0  0
 44 43  2  0  0  0  0
 45 46  2  0  0  0  0
 46 47  1  0  0  0  0
 48 47  2  0  0  0  0
 48 40  1  0  0  0  0
 49 42  1  0  0  0  0
M  END
>  <minimizedAffinity>
-6.14729595

>  <minimizedRMSD>
1.21234596

$$$$
