
 OpenBabel03262520003D

 33 36  0  0  1  0  0  0  0  0999 V2000
   39.3850   24.6050   34.7050 C   0  0  1  0  0  0  0  0  0  0  0  0
   37.9710   24.4820   34.9310 C   0  0  0  0  0  0  0  0  0  0  0  0
   38.8910   23.2270   34.9990 C   0  0  1  0  0  0  0  0  0  0  0  0
   39.9500   25.1360   35.5370 H   0  0  0  0  0  0  0  0  0  0  0  0
   37.2360   24.4400   34.1150 H   0  0  0  0  0  0  0  0  0  0  0  0
   37.5020   24.8210   35.8810 H   0  0  0  0  0  0  0  0  0  0  0  0
   39.5920   25.1750   32.2790 C   0  0  0  0  0  0  0  0  0  0  0  0
   40.5960   25.1370   31.3130 C   0  0  0  0  0  0  0  0  0  0  0  0
   41.6770   24.6580   31.9890 N   0  0  0  0  0  0  0  0  0  0  0  0
   41.3040   24.4410   33.2500 C   0  0  0  0  0  0  0  0  0  0  0  0
   40.0290   24.7500   33.4510 N   0  0  0  0  0  0  0  0  0  0  0  0
   40.4560   25.4380   30.2910 H   0  0  0  0  0  0  0  0  0  0  0  0
   42.1060   24.0540   33.8780 H   0  0  0  0  0  0  0  0  0  0  0  0
   38.2320   25.6330   32.0360 C   0  0  0  0  0  0  0  0  0  0  0  0
   37.8840   26.9690   32.3320 C   0  0  0  0  0  0  0  0  0  0  0  0
   36.5540   27.3700   32.0750 C   0  0  0  0  0  0  0  0  0  0  0  0
   35.7020   26.4420   31.5620 N   0  0  0  0  0  0  0  0  0  0  0  0
   36.0810   25.1710   31.2940 C   0  0  0  0  0  0  0  0  0  0  0  0
   37.3370   24.7570   31.5250 N   0  0  0  0  0  0  0  0  0  0  0  0
   38.6470   27.6080   32.7350 H   0  0  0  0  0  0  0  0  0  0  0  0
   36.2880   28.3820   32.2980 H   0  0  0  0  0  0  0  0  0  0  0  0
   35.4030   24.4360   30.8850 H   0  0  0  0  0  0  0  0  0  0  0  0
   38.3470   22.2170   34.0300 C   0  0  0  0  0  0  0  0  0  0  0  0
   37.0570   21.8350   33.7300 C   0  0  0  0  0  3  0  0  0  0  0  0
   36.8760   20.8630   32.7710 C   0  0  0  0  0  0  0  0  0  0  0  0
   35.8170   20.6280   32.6010 H   0  0  0  0  0  0  0  0  0  0  0  0
   37.9170   20.2980   32.1380 N   0  0  0  0  0  0  0  0  0  0  0  0
   39.1560   20.6740   32.4350 C   0  0  0  0  0  3  0  0  0  0  0  0
   39.3830   21.6220   33.3690 N   0  0  0  0  0  0  0  0  0  0  0  0
   39.0180   22.7300   36.4220 C   0  0  0  0  0  0  0  0  0  0  0  0
   39.8200   21.6090   36.4630 F   0  0  0  0  0  0  0  0  0  0  0  0
   39.7960   23.7200   37.1680 F   0  0  0  0  0  0  0  0  0  0  0  0
   37.8570   22.6100   37.0790 F   0  0  0  0  0  0  0  0  0  0  0  0
  1  2  1  0  0  0  0
  1  3  1  0  0  0  0
  1  4  1  1  0  0  0
  2  3  1  0  0  0  0
  2  6  1  0  0  0  0
  3 30  1  1  0  0  0
  5  2  1  0  0  0  0
  7 11  1  0  0  0  0
  8  9  1  0  0  0  0
  8  7  2  0  0  0  0
  9 10  2  0  0  0  0
 10 11  1  0  0  0  0
 10 13  1  0  0  0  0
 11  1  1  0  0  0  0
 12  8  1  0  0  0  0
 14  7  1  0  0  0  0
 14 15  1  0  0  0  0
 15 20  1  0  0  0  0
 16 21  1  0  0  0  0
 16 15  2  0  0  0  0
 17 16  1  0  0  0  0
 18 19  1  0  0  0  0
 18 17  2  0  0  0  0
 19 14  2  0  0  0  0
 22 18  1  0  0  0  0
 23  3  1  0  0  0  0
 24 23  1  0  0  0  0
 25 24  2  0  0  0  0
 26 25  1  0  0  0  0
 27 28  2  0  0  0  0
 27 25  1  0  0  0  0
 28 29  1  0  0  0  0
 29 23  2  0  0  0  0
 30 31  1  0  0  0  0
 30 33  1  0  0  0  0
 30 32  1  0  0  0  0
M  END
>  <minimizedAffinity>
-4.15552187

>  <minimizedRMSD>
3.9271338

$$$$
