
 OpenBabel03262519293D

 31 34  0  0  0  0  0  0  0  0999 V2000
   40.5240   21.9510   37.2400 O   0  0  0  0  0  0  0  0  0  0  0  0
   41.7930   22.0780   36.7600 C   0  0  0  0  0  0  0  0  0  0  0  0
   42.3510   23.2240   36.1950 C   0  0  0  0  0  0  0  0  0  0  0  0
   43.6210   23.0190   35.8220 N   0  0  0  0  0  0  0  0  0  0  0  0
   43.9690   21.7540   36.1130 C   0  0  0  0  0  0  0  0  0  0  0  0
   45.1290   21.0090   35.9530 C   0  0  0  0  0  0  0  0  0  0  0  0
   45.1800   19.6890   36.3640 C   0  0  0  0  0  0  0  0  0  0  0  0
   44.0480   19.1040   36.9450 C   0  0  0  0  0  0  0  0  0  0  0  0
   42.8960   19.8530   37.1000 C   0  0  0  0  0  0  0  0  0  0  0  0
   42.8410   21.1780   36.6900 C   0  0  0  0  0  0  0  0  0  0  0  0
   41.8720   24.1900   36.0480 H   0  0  0  0  0  0  0  0  0  0  0  0
   44.3000   23.6570   35.3820 H   0  0  0  0  0  0  0  0  0  0  0  0
   46.0020   21.4620   35.5050 H   0  0  0  0  0  0  0  0  0  0  0  0
   46.0640   19.0660   36.2610 H   0  0  0  0  0  0  0  0  0  0  0  0
   44.0590   18.0770   37.2750 H   0  0  0  0  0  0  0  0  0  0  0  0
   42.0050   19.4100   37.5520 H   0  0  0  0  0  0  0  0  0  0  0  0
   39.5760   22.9410   37.3090 C   0  0  0  0  0  0  0  0  0  0  0  0
   39.0570   23.2190   38.5810 C   0  0  0  0  0  0  0  0  0  0  0  0
   38.0880   24.2310   38.6510 C   0  0  0  0  0  0  0  0  0  0  0  0
   37.7100   24.8710   37.5270 N   0  0  0  0  0  0  0  0  0  0  0  0
   38.2470   24.5600   36.3210 C   0  0  0  0  0  0  0  0  0  0  0  0
   39.1690   23.6060   36.2130 N   0  0  0  0  0  0  0  0  0  0  0  0
   39.3960   22.6790   39.4290 H   0  0  0  0  0  0  0  0  0  0  0  0
   37.6550   24.4840   39.6120 H   0  0  0  0  0  0  0  0  0  0  0  0
   37.8330   25.2580   35.1070 C   0  0  0  0  0  0  0  0  0  0  0  0
   37.4050   26.5740   35.1140 C   0  0  0  0  0  0  0  0  0  0  0  0
   37.0020   27.2860   34.0100 C   0  0  0  0  0  0  0  0  0  0  0  0
   36.6780   28.3160   34.0910 H   0  0  0  0  0  0  0  0  0  0  0  0
   37.0350   26.6300   32.8200 N   0  0  0  0  0  0  0  0  0  0  0  0
   37.4480   25.3510   32.7870 C   0  0  0  0  0  0  0  0  0  0  0  0
   37.8470   24.6460   33.8870 N   0  0  0  0  0  0  0  0  0  0  0  0
  1 17  1  0  0  0  0
  2  1  1  0  0  0  0
  3  2  2  0  0  0  0
  4  5  1  0  0  0  0
  4  3  1  0  0  0  0
  5 10  1  0  0  0  0
  6  5  2  0  0  0  0
  6  7  1  0  0  0  0
  7  8  2  0  0  0  0
  8  9  1  0  0  0  0
  8 15  1  0  0  0  0
  9 16  1  0  0  0  0
 10  2  1  0  0  0  0
 10  9  2  0  0  0  0
 11  3  1  0  0  0  0
 12  4  1  0  0  0  0
 13  6  1  0  0  0  0
 14  7  1  0  0  0  0
 17 18  1  0  0  0  0
 18 19  2  0  0  0  0
 18 23  1  0  0  0  0
 19 24  1  0  0  0  0
 20 19  1  0  0  0  0
 21 20  2  0  0  0  0
 22 21  1  0  0  0  0
 22 17  2  0  0  0  0
 25 26  1  0  0  0  0
 25 21  1  0  0  0  0
 27 28  1  0  0  0  0
 27 26  2  0  0  0  0
 29 27  1  0  0  0  0
 30 29  2  0  0  0  0
 30 31  1  0  0  0  0
 31 25  2  0  0  0  0
M  END
>  <minimizedAffinity>
-5.29313755

>  <minimizedRMSD>
1.36528599

$$$$
