
 OpenBabel03262519483D

 39 42  0  0  1  0  0  0  0  0999 V2000
   37.3830   25.8640   32.9250 N   0  0  0  0  0  0  0  0  0  0  0  0
   36.8870   24.7830   32.3230 C   0  0  0  0  0  0  0  0  0  0  0  0
   35.8420   25.0480   31.4610 C   0  0  0  0  0  0  0  0  0  0  0  0
   35.6860   26.3690   31.5390 N   0  0  0  0  0  0  0  0  0  0  0  0
   36.6100   26.8670   32.4170 C   0  0  0  0  0  0  0  0  0  0  0  0
   37.2920   23.7810   32.5100 H   0  0  0  0  0  0  0  0  0  0  0  0
   35.2850   24.3560   30.8690 H   0  0  0  0  0  0  0  0  0  0  0  0
   36.6750   28.3530   32.6710 C   0  0  1  0  0  0  0  0  0  0  0  0
   35.6620   29.2030   32.0120 C   0  0  0  0  0  0  0  0  0  0  0  0
   35.5060   28.9200   33.4870 C   0  0  2  0  0  0  0  0  0  0  0  0
   37.6430   28.6990   33.0630 H   0  0  0  0  0  0  0  0  0  0  0  0
   34.9870   28.7570   31.2830 H   0  0  0  0  0  0  0  0  0  0  0  0
   36.0580   30.2090   31.6910 H   0  0  0  0  0  0  0  0  0  0  0  0
   34.6560   28.2540   33.7050 H   0  0  0  0  0  0  0  0  0  0  0  0
   35.7560   30.1020   34.3460 C   0  0  0  0  0  0  0  0  0  0  0  0
   35.5820   31.4210   33.9750 C   0  0  0  0  0  0  0  0  0  0  0  0
   35.9420   32.1450   35.1070 C   0  0  0  0  0  0  0  0  0  0  0  0
   35.9140   33.2240   35.1400 H   0  0  0  0  0  0  0  0  0  0  0  0
   36.3120   31.2820   36.0970 N   0  0  0  0  0  0  0  0  0  0  0  0
   36.1940   30.0380   35.6160 N   0  0  0  0  0  0  0  0  0  0  0  0
   36.6270   31.5440   37.0450 H   0  0  0  0  0  0  0  0  0  0  0  0
   38.4070   26.1030   33.8620 C   0  0  0  0  0  0  0  0  0  0  0  0
   39.2060   25.3230   33.7480 H   0  0  0  0  0  0  0  0  0  0  0  0
   38.9180   27.0830   33.6460 H   0  0  0  0  0  0  0  0  0  0  0  0
   37.9510   26.0700   35.2690 C   0  0  1  0  0  0  0  0  0  0  0  0
   36.8340   25.9710   35.3060 H   0  0  0  0  0  0  0  0  0  0  0  0
   38.5230   23.4640   37.9520 C   0  0  0  0  0  0  0  0  0  0  0  0
   37.9390   24.5600   37.3020 C   0  0  0  0  0  0  0  0  0  0  0  0
   38.5040   24.9340   36.0440 C   0  0  0  0  0  0  0  0  0  0  0  0
   39.5750   24.2190   35.5320 N   0  0  0  0  0  0  0  0  0  0  0  0
   40.0910   23.1860   36.1890 C   0  0  0  0  0  0  0  0  0  0  0  0
   39.5670   22.7990   37.4090 N   0  0  0  0  0  0  0  0  0  0  0  0
   38.1250   23.1490   38.9050 H   0  0  0  0  0  0  0  0  0  0  0  0
   37.1190   25.1120   37.6870 H   0  0  0  0  0  0  0  0  0  0  0  0
   40.9270   22.6760   35.7270 H   0  0  0  0  0  0  0  0  0  0  0  0
   38.2840   27.3900   35.9640 C   0  0  0  0  0  0  0  0  0  0  0  0
   38.3550   28.2290   35.2720 H   0  0  0  0  0  0  0  0  0  0  0  0
   39.2640   27.2570   36.4810 H   0  0  0  0  0  0  0  0  0  0  0  0
   37.5480   27.5190   36.7840 H   0  0  0  0  0  0  0  0  0  0  0  0
  1 22  1  0  0  0  0
  2  6  1  0  0  0  0
  2  1  1  0  0  0  0
  3  4  1  0  0  0  0
  3  2  2  0  0  0  0
  4  5  2  0  0  0  0
  5  8  1  0  0  0  0
  5  1  1  0  0  0  0
  7  3  1  0  0  0  0
  8 11  1  1  0  0  0
  8 10  1  0  0  0  0
  9  8  1  0  0  0  0
  9 10  1  0  0  0  0
 10 14  1  1  0  0  0
 10 15  1  0  0  0  0
 12  9  1  0  0  0  0
 13  9  1  0  0  0  0
 15 20  2  0  0  0  0
 16 15  1  0  0  0  0
 16 17  2  0  0  0  0
 17 18  1  0  0  0  0
 17 19  1  0  0  0  0
 19 21  1  0  0  0  0
 20 19  1  0  0  0  0
 22 25  1  0  0  0  0
 23 22  1  0  0  0  0
 24 22  1  0  0  0  0
 25 26  1  6  0  0  0
 25 36  1  0  0  0  0
 25 29  1  0  0  0  0
 27 33  1  0  0  0  0
 28 34  1  0  0  0  0
 28 27  2  0  0  0  0
 29 28  1  0  0  0  0
 30 29  2  0  0  0  0
 30 31  1  0  0  0  0
 31 32  2  0  0  0  0
 32 27  1  0  0  0  0
 35 31  1  0  0  0  0
 36 38  1  0  0  0  0
 36 39  1  0  0  0  0
 37 36  1  0  0  0  0
M  END
>  <minimizedAffinity>
-5.33924627

>  <minimizedRMSD>
0.668285608

$$$$
