
 OpenBabel03262520003D

 33 36  0  0  1  0  0  0  0  0999 V2000
   38.5880   22.4780   34.8140 C   0  0  1  0  0  0  0  0  0  0  0  0
   39.8490   22.2890   35.4780 C   0  0  0  0  0  0  0  0  0  0  0  0
   39.0810   23.6350   35.6170 C   0  0  1  0  0  0  0  0  0  0  0  0
   37.7200   21.8920   35.2770 H   0  0  0  0  0  0  0  0  0  0  0  0
   39.9580   21.7090   36.4070 H   0  0  0  0  0  0  0  0  0  0  0  0
   40.7900   22.3680   34.9160 H   0  0  0  0  0  0  0  0  0  0  0  0
   39.1240   22.4800   32.3740 C   0  0  0  0  0  0  0  0  0  0  0  0
   38.5200   22.9420   31.2050 C   0  0  0  0  0  0  0  0  0  0  0  0
   37.3610   23.5070   31.6440 N   0  0  0  0  0  0  0  0  0  0  0  0
   37.3180   23.3730   32.9690 C   0  0  0  0  0  0  0  0  0  0  0  0
   38.3910   22.7440   33.4390 N   0  0  0  0  0  0  0  0  0  0  0  0
   38.9570   22.8280   30.2100 H   0  0  0  0  0  0  0  0  0  0  0  0
   36.4270   23.7930   33.4190 H   0  0  0  0  0  0  0  0  0  0  0  0
   40.4010   21.7810   32.4170 C   0  0  0  0  0  0  0  0  0  0  0  0
   40.4210   20.3710   32.3580 C   0  0  0  0  0  0  0  0  0  0  0  0
   41.6810   19.7330   32.3980 C   0  0  0  0  0  0  0  0  0  0  0  0
   42.7840   20.5220   32.4930 N   0  0  0  0  0  0  0  0  0  0  0  0
   42.7180   21.8720   32.5470 C   0  0  0  0  0  0  0  0  0  0  0  0
   41.5370   22.5050   32.5110 N   0  0  0  0  0  0  0  0  0  0  0  0
   39.4840   19.8490   32.2850 H   0  0  0  0  0  0  0  0  0  0  0  0
   41.7060   18.6610   32.3540 H   0  0  0  0  0  0  0  0  0  0  0  0
   43.6810   22.3510   32.6200 H   0  0  0  0  0  0  0  0  0  0  0  0
   40.0340   24.7160   35.1630 C   0  0  0  0  0  0  0  0  0  0  0  0
   40.0240   25.9460   34.5360 C   0  0  0  0  0  3  0  0  0  0  0  0
   41.3440   26.3420   34.4670 C   0  0  0  0  0  0  0  0  0  0  0  0
   41.5160   27.3190   33.9890 H   0  0  0  0  0  0  0  0  0  0  0  0
   42.1210   25.3940   35.0280 N   0  0  0  0  0  0  0  0  0  0  0  0
   41.3320   24.4090   35.4490 N   0  0  0  0  0  0  0  0  0  0  0  0
   43.1560   25.5310   35.0620 H   0  0  0  0  0  0  0  0  0  0  0  0
   38.5300   23.8030   37.0150 C   0  0  0  0  0  0  0  0  0  0  0  0
   38.1900   25.1230   37.2320 F   0  0  0  0  0  0  0  0  0  0  0  0
   37.2460   23.1090   37.0700 F   0  0  0  0  0  0  0  0  0  0  0  0
   39.2850   23.2600   37.9790 F   0  0  0  0  0  0  0  0  0  0  0  0
  1  4  1  1  0  0  0
  1  2  1  0  0  0  0
  1  3  1  0  0  0  0
  2  3  1  0  0  0  0
  2  5  1  0  0  0  0
  3 30  1  1  0  0  0
  6  2  1  0  0  0  0
  7 14  1  0  0  0  0
  7 11  1  0  0  0  0
  8  9  1  0  0  0  0
  8  7  2  0  0  0  0
  9 10  2  0  0  0  0
 10 13  1  0  0  0  0
 10 11  1  0  0  0  0
 11  1  1  0  0  0  0
 12  8  1  0  0  0  0
 14 19  1  0  0  0  0
 15 16  1  0  0  0  0
 15 14  2  0  0  0  0
 16 17  2  0  0  0  0
 17 18  1  0  0  0  0
 18 22  1  0  0  0  0
 19 18  2  0  0  0  0
 20 15  1  0  0  0  0
 21 16  1  0  0  0  0
 23 28  2  0  0  0  0
 23  3  1  0  0  0  0
 24 23  1  0  0  0  0
 25 24  2  0  0  0  0
 25 27  1  0  0  0  0
 26 25  1  0  0  0  0
 27 29  1  0  0  0  0
 27 28  1  0  0  0  0
 30 32  1  0  0  0  0
 30 31  1  0  0  0  0
 30 33  1  0  0  0  0
M  END
>  <minimizedAffinity>
-3.69690752

>  <minimizedRMSD>
4.9440732

$$$$
