
 OpenBabel03262519573D

 30 33  0  0  1  0  0  0  0  0999 V2000
   38.0670   23.7350   34.4770 C   0  0  0  0  0  0  0  0  0  0  0  0
   38.2110   24.9510   33.8010 C   0  0  0  0  0  0  0  0  0  0  0  0
   37.7400   24.6840   32.5530 N   0  0  0  0  0  0  0  0  0  0  0  0
   37.3610   23.4230   32.5210 C   0  0  0  0  0  0  0  0  0  0  0  0
   37.5460   22.7970   33.6930 N   0  0  0  0  0  0  0  0  0  0  0  0
   38.6110   25.8420   34.2420 H   0  0  0  0  0  0  0  0  0  0  0  0
   36.9600   23.0630   31.5830 H   0  0  0  0  0  0  0  0  0  0  0  0
   38.4390   23.5190   35.8630 C   0  0  0  0  0  0  0  0  0  0  0  0
   39.6740   22.9540   36.1870 C   0  0  0  0  0  0  0  0  0  0  0  0
   39.9900   22.7630   37.5500 C   0  0  0  0  0  0  0  0  0  0  0  0
   39.0730   23.1420   38.4650 N   0  0  0  0  0  0  0  0  0  0  0  0
   37.8810   23.6900   38.1230 C   0  0  0  0  0  0  0  0  0  0  0  0
   37.5710   23.8740   36.8350 N   0  0  0  0  0  0  0  0  0  0  0  0
   40.3860   22.6600   35.4310 H   0  0  0  0  0  0  0  0  0  0  0  0
   40.9410   22.3250   37.8610 H   0  0  0  0  0  0  0  0  0  0  0  0
   37.1540   23.9900   38.8680 H   0  0  0  0  0  0  0  0  0  0  0  0
   37.2210   21.4210   33.9450 C   0  0  1  0  0  0  0  0  0  0  0  0
   36.0070   20.9960   34.6120 C   0  0  0  0  0  0  0  0  0  0  0  0
   36.0610   20.9390   33.0890 C   0  0  2  0  0  0  0  0  0  0  0  0
   38.1220   20.7760   34.0110 H   0  0  0  0  0  0  0  0  0  0  0  0
   35.9940   20.0490   35.1940 H   0  0  0  0  0  0  0  0  0  0  0  0
   35.2700   21.7300   35.0040 H   0  0  0  0  0  0  0  0  0  0  0  0
   35.4500   21.6660   32.5210 H   0  0  0  0  0  0  0  0  0  0  0  0
   36.1890   19.5490   32.5750 C   0  0  0  0  0  0  0  0  0  0  0  0
   35.1920   18.5730   32.6850 C   0  0  0  0  0  3  0  0  0  0  0  0
   35.7820   17.4760   32.0680 C   0  0  0  0  0  0  0  0  0  0  0  0
   35.2710   16.5200   31.9740 H   0  0  0  0  0  0  0  0  0  0  0  0
   37.0330   17.7560   31.6180 N   0  0  0  0  0  0  0  0  0  0  0  0
   37.2700   19.0310   31.9370 N   0  0  0  0  0  0  0  0  0  0  0  0
   37.6570   17.0870   31.1270 H   0  0  0  0  0  0  0  0  0  0  0  0
  1  8  1  0  0  0  0
  2  6  1  0  0  0  0
  2  1  2  0  0  0  0
  3  2  1  0  0  0  0
  4  3  2  0  0  0  0
  4  5  1  0  0  0  0
  5 17  1  0  0  0  0
  5  1  1  0  0  0  0
  7  4  1  0  0  0  0
  8  9  2  0  0  0  0
  8 13  1  0  0  0  0
  9 10  1  0  0  0  0
 10 15  1  0  0  0  0
 10 11  2  0  0  0  0
 12 11  1  0  0  0  0
 12 16  1  0  0  0  0
 13 12  2  0  0  0  0
 14  9  1  0  0  0  0
 17 20  1  1  0  0  0
 17 18  1  0  0  0  0
 18 22  1  0  0  0  0
 18 21  1  0  0  0  0
 19 23  1  6  0  0  0
 19 17  1  0  0  0  0
 19 18  1  0  0  0  0
 24 25  1  0  0  0  0
 24 19  1  0  0  0  0
 26 25  2  0  0  0  0
 27 26  1  0  0  0  0
 28 29  1  0  0  0  0
 28 26  1  0  0  0  0
 29 24  2  0  0  0  0
 30 28  1  0  0  0  0
M  END
>  <minimizedAffinity>
-4.70881319

>  <minimizedRMSD>
0.760382175

$$$$
