
 OpenBabel03262519573D

 30 33  0  0  1  0  0  0  0  0999 V2000
   38.0680   23.7360   34.4780 C   0  0  0  0  0  0  0  0  0  0  0  0
   38.2120   24.9520   33.8020 C   0  0  0  0  0  0  0  0  0  0  0  0
   37.7410   24.6850   32.5540 N   0  0  0  0  0  0  0  0  0  0  0  0
   37.3620   23.4230   32.5210 C   0  0  0  0  0  0  0  0  0  0  0  0
   37.5470   22.7970   33.6940 N   0  0  0  0  0  0  0  0  0  0  0  0
   38.6120   25.8420   34.2430 H   0  0  0  0  0  0  0  0  0  0  0  0
   36.9610   23.0640   31.5830 H   0  0  0  0  0  0  0  0  0  0  0  0
   38.4400   23.5190   35.8640 C   0  0  0  0  0  0  0  0  0  0  0  0
   39.6750   22.9530   36.1870 C   0  0  0  0  0  0  0  0  0  0  0  0
   39.9900   22.7620   37.5510 C   0  0  0  0  0  0  0  0  0  0  0  0
   39.0740   23.1420   38.4660 N   0  0  0  0  0  0  0  0  0  0  0  0
   37.8810   23.6900   38.1240 C   0  0  0  0  0  0  0  0  0  0  0  0
   37.5720   23.8750   36.8360 N   0  0  0  0  0  0  0  0  0  0  0  0
   40.3870   22.6590   35.4320 H   0  0  0  0  0  0  0  0  0  0  0  0
   40.9410   22.3240   37.8620 H   0  0  0  0  0  0  0  0  0  0  0  0
   37.1550   23.9900   38.8690 H   0  0  0  0  0  0  0  0  0  0  0  0
   37.2230   21.4210   33.9460 C   0  0  1  0  0  0  0  0  0  0  0  0
   36.0080   20.9960   34.6130 C   0  0  0  0  0  0  0  0  0  0  0  0
   36.0620   20.9390   33.0900 C   0  0  2  0  0  0  0  0  0  0  0  0
   38.1230   20.7770   34.0110 H   0  0  0  0  0  0  0  0  0  0  0  0
   35.9950   20.0490   35.1940 H   0  0  0  0  0  0  0  0  0  0  0  0
   35.2710   21.7310   35.0050 H   0  0  0  0  0  0  0  0  0  0  0  0
   35.4510   21.6670   32.5220 H   0  0  0  0  0  0  0  0  0  0  0  0
   36.1900   19.5490   32.5750 C   0  0  0  0  0  0  0  0  0  0  0  0
   35.1930   18.5740   32.6850 C   0  0  0  0  0  3  0  0  0  0  0  0
   35.7820   17.4780   32.0680 C   0  0  0  0  0  0  0  0  0  0  0  0
   35.2710   16.5200   31.9730 H   0  0  0  0  0  0  0  0  0  0  0  0
   37.0340   17.7580   31.6190 N   0  0  0  0  0  0  0  0  0  0  0  0
   37.2710   19.0320   31.9370 N   0  0  0  0  0  0  0  0  0  0  0  0
   37.6580   17.0860   31.1270 H   0  0  0  0  0  0  0  0  0  0  0  0
  1  8  1  0  0  0  0
  2  6  1  0  0  0  0
  2  1  2  0  0  0  0
  3  2  1  0  0  0  0
  4  3  2  0  0  0  0
  4  5  1  0  0  0  0
  5 17  1  0  0  0  0
  5  1  1  0  0  0  0
  7  4  1  0  0  0  0
  8  9  2  0  0  0  0
  8 13  1  0  0  0  0
  9 10  1  0  0  0  0
 10 15  1  0  0  0  0
 10 11  2  0  0  0  0
 12 11  1  0  0  0  0
 12 16  1  0  0  0  0
 13 12  2  0  0  0  0
 14  9  1  0  0  0  0
 17 20  1  1  0  0  0
 17 18  1  0  0  0  0
 18 22  1  0  0  0  0
 18 21  1  0  0  0  0
 19 23  1  6  0  0  0
 19 17  1  0  0  0  0
 19 18  1  0  0  0  0
 24 25  1  0  0  0  0
 24 19  1  0  0  0  0
 26 25  2  0  0  0  0
 27 26  1  0  0  0  0
 28 29  1  0  0  0  0
 28 26  1  0  0  0  0
 29 24  2  0  0  0  0
 30 28  1  0  0  0  0
M  END
>  <minimizedAffinity>
-4.70861959

>  <minimizedRMSD>
0.740361989

$$$$
