
 OpenBabel03262520003D

 33 36  0  0  1  0  0  0  0  0999 V2000
   39.3200   22.9190   33.9730 C   0  0  1  0  0  0  0  0  0  0  0  0
   38.5520   21.9110   33.2940 C   0  0  0  0  0  0  0  0  0  0  0  0
   38.8980   23.2510   32.5830 C   0  0  1  0  0  0  0  0  0  0  0  0
   40.4280   22.6590   34.1030 H   0  0  0  0  0  0  0  0  0  0  0  0
   39.0030   21.0110   32.8510 H   0  0  0  0  0  0  0  0  0  0  0  0
   37.4830   21.7860   33.5140 H   0  0  0  0  0  0  0  0  0  0  0  0
   39.2220   25.0280   35.3100 C   0  0  0  0  0  0  0  0  0  0  0  0
   38.4640   25.5190   36.3720 C   0  0  0  0  0  0  0  0  0  0  0  0
   37.6030   24.5010   36.6500 N   0  0  0  0  0  0  0  0  0  0  0  0
   37.8600   23.5060   35.8020 C   0  0  0  0  0  0  0  0  0  0  0  0
   38.8520   23.8080   34.9700 N   0  0  0  0  0  0  0  0  0  0  0  0
   38.6050   26.5090   36.8120 H   0  0  0  0  0  0  0  0  0  0  0  0
   37.2240   22.6420   35.9410 H   0  0  0  0  0  0  0  0  0  0  0  0
   40.2850   25.7710   34.6480 C   0  0  0  0  0  0  0  0  0  0  0  0
   39.9500   26.7590   33.6970 C   0  0  0  0  0  0  0  0  0  0  0  0
   41.0110   27.4600   33.0800 C   0  0  0  0  0  0  0  0  0  0  0  0
   42.2780   27.1320   33.4470 N   0  0  0  0  0  0  0  0  0  0  0  0
   42.5540   26.1770   34.3640 C   0  0  0  0  0  0  0  0  0  0  0  0
   41.5680   25.4960   34.9650 N   0  0  0  0  0  0  0  0  0  0  0  0
   38.9100   26.9330   33.4850 H   0  0  0  0  0  0  0  0  0  0  0  0
   40.7660   28.2130   32.3560 H   0  0  0  0  0  0  0  0  0  0  0  0
   43.6080   26.0380   34.5430 H   0  0  0  0  0  0  0  0  0  0  0  0
   37.5800   23.8540   32.1520 C   0  0  0  0  0  0  0  0  0  0  0  0
   36.8380   25.0060   32.3110 C   0  0  0  0  0  3  0  0  0  0  0  0
   35.6850   24.8140   31.5780 C   0  0  0  0  0  0  0  0  0  0  0  0
   34.9710   25.6520   31.5970 H   0  0  0  0  0  0  0  0  0  0  0  0
   35.7260   23.5980   30.9980 N   0  0  0  0  0  0  0  0  0  0  0  0
   36.8710   23.0140   31.3430 N   0  0  0  0  0  0  0  0  0  0  0  0
   34.9300   23.2840   30.4020 H   0  0  0  0  0  0  0  0  0  0  0  0
   39.9030   23.0320   31.4740 C   0  0  0  0  0  0  0  0  0  0  0  0
   39.8210   24.0580   30.5540 F   0  0  0  0  0  0  0  0  0  0  0  0
   41.2350   23.1970   32.0480 F   0  0  0  0  0  0  0  0  0  0  0  0
   39.8800   21.8050   30.9370 F   0  0  0  0  0  0  0  0  0  0  0  0
  1  4  1  1  0  0  0
  1 11  1  0  0  0  0
  2  6  1  0  0  0  0
  2  1  1  0  0  0  0
  3 30  1  6  0  0  0
  3  2  1  0  0  0  0
  3  1  1  0  0  0  0
  5  2  1  0  0  0  0
  7  8  2  0  0  0  0
  8  9  1  0  0  0  0
  8 12  1  0  0  0  0
 10 13  1  0  0  0  0
 10  9  2  0  0  0  0
 11  7  1  0  0  0  0
 11 10  1  0  0  0  0
 14 19  1  0  0  0  0
 14  7  1  0  0  0  0
 15 14  2  0  0  0  0
 16 17  2  0  0  0  0
 16 15  1  0  0  0  0
 17 18  1  0  0  0  0
 18 22  1  0  0  0  0
 18 19  2  0  0  0  0
 20 15  1  0  0  0  0
 21 16  1  0  0  0  0
 23 24  1  0  0  0  0
 23  3  1  0  0  0  0
 25 26  1  0  0  0  0
 25 24  2  0  0  0  0
 27 28  1  0  0  0  0
 27 25  1  0  0  0  0
 28 23  2  0  0  0  0
 29 27  1  0  0  0  0
 30 32  1  0  0  0  0
 31 30  1  0  0  0  0
 33 30  1  0  0  0  0
M  END
>  <minimizedAffinity>
-3.8221302

>  <minimizedRMSD>
5.14406204

$$$$
