
 OpenBabel03262519573D

 30 33  0  0  1  0  0  0  0  0999 V2000
   38.3140   23.9810   34.6420 C   0  0  0  0  0  0  0  0  0  0  0  0
   38.5870   25.1940   34.0020 C   0  0  0  0  0  0  0  0  0  0  0  0
   38.1870   24.9800   32.7200 N   0  0  0  0  0  0  0  0  0  0  0  0
   37.7260   23.7480   32.6360 C   0  0  0  0  0  0  0  0  0  0  0  0
   37.7860   23.0930   33.8060 N   0  0  0  0  0  0  0  0  0  0  0  0
   39.0150   26.0480   34.4880 H   0  0  0  0  0  0  0  0  0  0  0  0
   37.3680   23.4320   31.6660 H   0  0  0  0  0  0  0  0  0  0  0  0
   38.5740   23.7170   36.0450 C   0  0  0  0  0  0  0  0  0  0  0  0
   39.7140   23.0110   36.4360 C   0  0  0  0  0  0  0  0  0  0  0  0
   39.9220   22.7800   37.8140 C   0  0  0  0  0  0  0  0  0  0  0  0
   39.0010   23.2590   38.6770 N   0  0  0  0  0  0  0  0  0  0  0  0
   37.9030   23.9430   38.2700 C   0  0  0  0  0  0  0  0  0  0  0  0
   37.6950   24.1670   36.9670 N   0  0  0  0  0  0  0  0  0  0  0  0
   40.4320   22.6400   35.7210 H   0  0  0  0  0  0  0  0  0  0  0  0
   40.7950   22.2330   38.1770 H   0  0  0  0  0  0  0  0  0  0  0  0
   37.1720   24.3220   38.9730 H   0  0  0  0  0  0  0  0  0  0  0  0
   37.3530   21.7390   34.0070 C   0  0  1  0  0  0  0  0  0  0  0  0
   36.5600   21.3140   35.1430 C   0  0  0  0  0  0  0  0  0  0  0  0
   35.8520   21.5830   33.8190 C   0  0  2  0  0  0  0  0  0  0  0  0
   38.0180   21.0010   33.5130 H   0  0  0  0  0  0  0  0  0  0  0  0
   36.6380   20.2720   35.5190 H   0  0  0  0  0  0  0  0  0  0  0  0
   36.2750   22.0230   35.9510 H   0  0  0  0  0  0  0  0  0  0  0  0
   35.2050   22.4780   33.7490 H   0  0  0  0  0  0  0  0  0  0  0  0
   35.4260   20.3310   33.1370 C   0  0  0  0  0  0  0  0  0  0  0  0
   34.7000   20.2940   31.9410 C   0  0  0  0  0  3  0  0  0  0  0  0
   34.5570   18.9300   31.7250 C   0  0  0  0  0  0  0  0  0  0  0  0
   34.0280   18.5320   30.8590 H   0  0  0  0  0  0  0  0  0  0  0  0
   35.1440   18.1930   32.7040 N   0  0  0  0  0  0  0  0  0  0  0  0
   35.6740   19.0670   33.5640 N   0  0  0  0  0  0  0  0  0  0  0  0
   35.1590   17.1540   32.7460 H   0  0  0  0  0  0  0  0  0  0  0  0
  1  8  1  0  0  0  0
  2  6  1  0  0  0  0
  2  1  2  0  0  0  0
  3  2  1  0  0  0  0
  4  3  2  0  0  0  0
  4  5  1  0  0  0  0
  5 17  1  0  0  0  0
  5  1  1  0  0  0  0
  7  4  1  0  0  0  0
  8  9  2  0  0  0  0
  8 13  1  0  0  0  0
  9 10  1  0  0  0  0
 10 15  1  0  0  0  0
 10 11  2  0  0  0  0
 12 11  1  0  0  0  0
 12 16  1  0  0  0  0
 13 12  2  0  0  0  0
 14  9  1  0  0  0  0
 17 20  1  6  0  0  0
 17 18  1  0  0  0  0
 18 21  1  0  0  0  0
 18 22  1  0  0  0  0
 19 23  1  6  0  0  0
 19 17  1  0  0  0  0
 19 18  1  0  0  0  0
 24 29  2  0  0  0  0
 24 19  1  0  0  0  0
 25 24  1  0  0  0  0
 26 25  2  0  0  0  0
 26 28  1  0  0  0  0
 27 26  1  0  0  0  0
 28 30  1  0  0  0  0
 28 29  1  0  0  0  0
M  END
>  <minimizedAffinity>
-4.16609764

>  <minimizedRMSD>
0.862888455

$$$$
