
 OpenBabel03262519573D

 30 33  0  0  1  0  0  0  0  0999 V2000
   38.0630   23.7720   34.4280 C   0  0  0  0  0  0  0  0  0  0  0  0
   38.2050   25.0020   33.7780 C   0  0  0  0  0  0  0  0  0  0  0  0
   37.7280   24.7630   32.5270 N   0  0  0  0  0  0  0  0  0  0  0  0
   37.3470   23.5030   32.4690 C   0  0  0  0  0  0  0  0  0  0  0  0
   37.5370   22.8510   33.6270 N   0  0  0  0  0  0  0  0  0  0  0  0
   38.6080   25.8830   34.2370 H   0  0  0  0  0  0  0  0  0  0  0  0
   36.9420   23.1650   31.5250 H   0  0  0  0  0  0  0  0  0  0  0  0
   38.4410   23.5250   35.8070 C   0  0  0  0  0  0  0  0  0  0  0  0
   39.6790   22.9570   36.1130 C   0  0  0  0  0  0  0  0  0  0  0  0
   40.0010   22.7360   37.4710 C   0  0  0  0  0  0  0  0  0  0  0  0
   39.0870   23.0910   38.3970 N   0  0  0  0  0  0  0  0  0  0  0  0
   37.8910   23.6420   38.0730 C   0  0  0  0  0  0  0  0  0  0  0  0
   37.5760   23.8550   36.7910 N   0  0  0  0  0  0  0  0  0  0  0  0
   40.3890   22.6830   35.3480 H   0  0  0  0  0  0  0  0  0  0  0  0
   40.9550   22.2940   37.7680 H   0  0  0  0  0  0  0  0  0  0  0  0
   37.1670   23.9220   38.8270 H   0  0  0  0  0  0  0  0  0  0  0  0
   37.2120   21.4710   33.8500 C   0  0  1  0  0  0  0  0  0  0  0  0
   36.0620   21.0340   34.6150 C   0  0  0  0  0  0  0  0  0  0  0  0
   35.9640   21.0450   33.0930 C   0  0  2  0  0  0  0  0  0  0  0  0
   38.1020   20.8100   33.7980 H   0  0  0  0  0  0  0  0  0  0  0  0
   36.0870   20.0630   35.1540 H   0  0  0  0  0  0  0  0  0  0  0  0
   35.3810   21.7620   35.1100 H   0  0  0  0  0  0  0  0  0  0  0  0
   35.3140   21.8060   32.6210 H   0  0  0  0  0  0  0  0  0  0  0  0
   36.0130   19.6770   32.5090 C   0  0  0  0  0  0  0  0  0  0  0  0
   37.1350   19.1320   31.8770 C   0  0  0  0  0  3  0  0  0  0  0  0
   36.6860   17.8670   31.5170 C   0  0  0  0  0  0  0  0  0  0  0  0
   37.3200   17.1540   30.9920 H   0  0  0  0  0  0  0  0  0  0  0  0
   35.3990   17.6560   31.8960 N   0  0  0  0  0  0  0  0  0  0  0  0
   34.9990   18.7750   32.5040 N   0  0  0  0  0  0  0  0  0  0  0  0
   34.8610   16.7820   31.7300 H   0  0  0  0  0  0  0  0  0  0  0  0
  1  8  1  0  0  0  0
  2  6  1  0  0  0  0
  2  1  2  0  0  0  0
  3  2  1  0  0  0  0
  4  3  2  0  0  0  0
  4  5  1  0  0  0  0
  5 17  1  0  0  0  0
  5  1  1  0  0  0  0
  7  4  1  0  0  0  0
  8  9  2  0  0  0  0
  8 13  1  0  0  0  0
  9 10  1  0  0  0  0
 10 15  1  0  0  0  0
 10 11  2  0  0  0  0
 12 11  1  0  0  0  0
 12 16  1  0  0  0  0
 13 12  2  0  0  0  0
 14  9  1  0  0  0  0
 17 20  1  6  0  0  0
 17 18  1  0  0  0  0
 18 22  1  0  0  0  0
 18 21  1  0  0  0  0
 19 23  1  6  0  0  0
 19 17  1  0  0  0  0
 19 18  1  0  0  0  0
 24 19  1  0  0  0  0
 25 24  1  0  0  0  0
 26 25  2  0  0  0  0
 26 28  1  0  0  0  0
 27 26  1  0  0  0  0
 28 29  1  0  0  0  0
 29 24  2  0  0  0  0
 30 28  1  0  0  0  0
M  END
>  <minimizedAffinity>
-4.75329638

>  <minimizedRMSD>
0.848183036

$$$$
