
 OpenBabel03262519573D

 30 33  0  0  1  0  0  0  0  0999 V2000
   38.1020   23.7210   34.4090 C   0  0  0  0  0  0  0  0  0  0  0  0
   38.2880   24.9380   33.7430 C   0  0  0  0  0  0  0  0  0  0  0  0
   37.7940   24.7030   32.4990 N   0  0  0  0  0  0  0  0  0  0  0  0
   37.3620   23.4590   32.4570 C   0  0  0  0  0  0  0  0  0  0  0  0
   37.5340   22.8130   33.6210 N   0  0  0  0  0  0  0  0  0  0  0  0
   38.7290   25.8060   34.1890 H   0  0  0  0  0  0  0  0  0  0  0  0
   36.9370   23.1260   31.5200 H   0  0  0  0  0  0  0  0  0  0  0  0
   38.4800   23.4750   35.7880 C   0  0  0  0  0  0  0  0  0  0  0  0
   39.7240   22.9220   36.0950 C   0  0  0  0  0  0  0  0  0  0  0  0
   40.0450   22.7010   37.4530 C   0  0  0  0  0  0  0  0  0  0  0  0
   39.1250   23.0420   38.3790 N   0  0  0  0  0  0  0  0  0  0  0  0
   37.9220   23.5780   38.0530 C   0  0  0  0  0  0  0  0  0  0  0  0
   37.6080   23.7910   36.7700 N   0  0  0  0  0  0  0  0  0  0  0  0
   40.4400   22.6600   35.3320 H   0  0  0  0  0  0  0  0  0  0  0  0
   41.0040   22.2710   37.7520 H   0  0  0  0  0  0  0  0  0  0  0  0
   37.1920   23.8460   38.8060 H   0  0  0  0  0  0  0  0  0  0  0  0
   37.1560   21.4490   33.8630 C   0  0  1  0  0  0  0  0  0  0  0  0
   36.0190   21.0670   34.6750 C   0  0  0  0  0  0  0  0  0  0  0  0
   35.8610   21.0790   33.1580 C   0  0  2  0  0  0  0  0  0  0  0  0
   38.0130   20.7490   33.7790 H   0  0  0  0  0  0  0  0  0  0  0  0
   36.0210   20.0970   35.2160 H   0  0  0  0  0  0  0  0  0  0  0  0
   35.3920   21.8260   35.1930 H   0  0  0  0  0  0  0  0  0  0  0  0
   35.2280   21.8670   32.7090 H   0  0  0  0  0  0  0  0  0  0  0  0
   35.8260   19.7090   32.5780 C   0  0  0  0  0  0  0  0  0  0  0  0
   36.9280   19.0710   31.9990 C   0  0  0  0  0  3  0  0  0  0  0  0
   36.3930   17.8460   31.6190 C   0  0  0  0  0  0  0  0  0  0  0  0
   36.9910   17.0810   31.1250 H   0  0  0  0  0  0  0  0  0  0  0  0
   35.0770   17.7420   31.9390 N   0  0  0  0  0  0  0  0  0  0  0  0
   34.7420   18.8940   32.5270 N   0  0  0  0  0  0  0  0  0  0  0  0
   34.4770   16.9150   31.7480 H   0  0  0  0  0  0  0  0  0  0  0  0
  1  8  1  0  0  0  0
  2  6  1  0  0  0  0
  2  1  2  0  0  0  0
  3  2  1  0  0  0  0
  4  3  2  0  0  0  0
  4  5  1  0  0  0  0
  5 17  1  0  0  0  0
  5  1  1  0  0  0  0
  7  4  1  0  0  0  0
  8  9  2  0  0  0  0
  8 13  1  0  0  0  0
  9 10  1  0  0  0  0
 10 15  1  0  0  0  0
 10 11  2  0  0  0  0
 12 11  1  0  0  0  0
 12 16  1  0  0  0  0
 13 12  2  0  0  0  0
 14  9  1  0  0  0  0
 17 20  1  6  0  0  0
 17 18  1  0  0  0  0
 18 22  1  0  0  0  0
 18 21  1  0  0  0  0
 19 23  1  6  0  0  0
 19 17  1  0  0  0  0
 19 18  1  0  0  0  0
 24 19  1  0  0  0  0
 25 24  1  0  0  0  0
 26 28  1  0  0  0  0
 26 25  2  0  0  0  0
 27 26  1  0  0  0  0
 28 29  1  0  0  0  0
 29 24  2  0  0  0  0
 30 28  1  0  0  0  0
M  END
>  <minimizedAffinity>
-4.81013536

>  <minimizedRMSD>
0.749403

$$$$
