
 OpenBabel03262519503D

 22 23  0  0  0  0  0  0  0  0999 V2000
   38.6320   26.7690   33.4170 C   0  0  0  0  0  0  0  0  0  0  0  0
   37.5870   26.6080   32.4380 C   0  0  0  0  0  0  0  0  0  0  0  0
   37.1530   25.3320   32.4520 C   0  0  0  0  0  0  0  0  0  0  0  0
   37.6550   24.3420   33.2980 N   0  0  0  0  0  0  0  0  0  0  0  0
   38.6220   24.5870   34.1750 C   0  0  0  0  0  0  0  0  0  0  0  0
   39.1250   25.8070   34.2460 N   0  0  0  0  0  0  0  0  0  0  0  0
   39.1790   27.6900   33.6330 H   0  0  0  0  0  0  0  0  0  0  0  0
   38.7960   23.6530   34.6800 H   0  0  0  0  0  0  0  0  0  0  0  0
   37.3550   27.8450   31.8140 C   0  0  0  0  0  0  0  0  0  0  0  0
   37.8290   28.3220   30.6040 C   0  0  0  0  0  0  0  0  0  0  0  0
   37.3110   29.5560   30.2820 C   0  0  0  0  0  0  0  0  0  0  0  0
   37.4370   30.2150   29.4620 H   0  0  0  0  0  0  0  0  0  0  0  0
   36.5050   29.8280   31.3220 N   0  0  0  0  0  0  0  0  0  0  0  0
   36.5390   28.8510   32.1810 N   0  0  0  0  0  0  0  0  0  0  0  0
   35.8840   30.6290   31.5680 H   0  0  0  0  0  0  0  0  0  0  0  0
   36.1100   25.1560   31.4440 C   0  0  0  0  0  0  0  0  0  0  0  0
   36.4360   25.5090   30.4230 H   0  0  0  0  0  0  0  0  0  0  0  0
   35.2710   25.8520   31.6890 H   0  0  0  0  0  0  0  0  0  0  0  0
   35.7000   23.7200   31.3030 C   0  0  0  0  0  0  0  0  0  0  0  0
   34.6650   23.7580   31.8000 H   0  0  0  0  0  0  0  0  0  0  0  0
   36.1720   23.0100   31.9920 H   0  0  0  0  0  0  0  0  0  0  0  0
   35.3980   23.3870   30.3200 H   0  0  0  0  0  0  0  0  0  0  0  0
  1  7  1  0  0  0  0
  1  6  1  0  0  0  0
  2  3  1  0  0  0  0
  2  1  2  0  0  0  0
  3  4  2  0  0  0  0
  4  5  1  0  0  0  0
  5  6  2  0  0  0  0
  5  8  1  0  0  0  0
  9 14  2  0  0  0  0
  9  2  1  0  0  0  0
 10  9  1  0  0  0  0
 11 10  2  0  0  0  0
 11 13  1  0  0  0  0
 12 11  1  0  0  0  0
 13 15  1  0  0  0  0
 13 14  1  0  0  0  0
 16 18  1  0  0  0  0
 16  3  1  0  0  0  0
 17 16  1  0  0  0  0
 19 16  1  0  0  0  0
 19 20  1  0  0  0  0
 19 21  1  0  0  0  0
 22 19  1  0  0  0  0
M  END
>  <minimizedAffinity>
-2.9675312

>  <minimizedRMSD>
8.48121071

$$$$
