
 OpenBabel03262519573D

 30 33  0  0  1  0  0  0  0  0999 V2000
   38.1370   23.7310   34.3750 C   0  0  0  0  0  0  0  0  0  0  0  0
   38.3520   24.9420   33.7090 C   0  0  0  0  0  0  0  0  0  0  0  0
   37.8640   24.7140   32.4600 N   0  0  0  0  0  0  0  0  0  0  0  0
   37.4100   23.4780   32.4180 C   0  0  0  0  0  0  0  0  0  0  0  0
   37.5580   22.8320   33.5850 N   0  0  0  0  0  0  0  0  0  0  0  0
   38.8070   25.8030   34.1560 H   0  0  0  0  0  0  0  0  0  0  0  0
   36.9860   23.1510   31.4780 H   0  0  0  0  0  0  0  0  0  0  0  0
   38.4980   23.4810   35.7580 C   0  0  0  0  0  0  0  0  0  0  0  0
   39.7330   22.9140   36.0780 C   0  0  0  0  0  0  0  0  0  0  0  0
   40.0380   22.6890   37.4390 C   0  0  0  0  0  0  0  0  0  0  0  0
   39.1120   23.0410   38.3550 N   0  0  0  0  0  0  0  0  0  0  0  0
   37.9190   23.5910   38.0170 C   0  0  0  0  0  0  0  0  0  0  0  0
   37.6200   23.8070   36.7310 N   0  0  0  0  0  0  0  0  0  0  0  0
   40.4540   22.6430   35.3220 H   0  0  0  0  0  0  0  0  0  0  0  0
   40.9890   22.2480   37.7470 H   0  0  0  0  0  0  0  0  0  0  0  0
   37.1850   23.8680   38.7630 H   0  0  0  0  0  0  0  0  0  0  0  0
   37.1530   21.4760   33.8260 C   0  0  1  0  0  0  0  0  0  0  0  0
   36.0170   21.1170   34.6530 C   0  0  0  0  0  0  0  0  0  0  0  0
   35.8390   21.1390   33.1380 C   0  0  2  0  0  0  0  0  0  0  0  0
   37.9910   20.7560   33.7270 H   0  0  0  0  0  0  0  0  0  0  0  0
   36.0050   20.1450   35.1900 H   0  0  0  0  0  0  0  0  0  0  0  0
   35.4160   21.8890   35.1820 H   0  0  0  0  0  0  0  0  0  0  0  0
   35.2190   21.9450   32.7010 H   0  0  0  0  0  0  0  0  0  0  0  0
   35.7640   19.7730   32.5540 C   0  0  0  0  0  0  0  0  0  0  0  0
   36.8720   19.0490   32.1020 C   0  0  0  0  0  3  0  0  0  0  0  0
   36.2910   17.8660   31.6590 C   0  0  0  0  0  0  0  0  0  0  0  0
   36.8800   17.0550   31.2340 H   0  0  0  0  0  0  0  0  0  0  0  0
   34.9420   17.8670   31.8260 N   0  0  0  0  0  0  0  0  0  0  0  0
   34.6330   19.0430   32.3760 N   0  0  0  0  0  0  0  0  0  0  0  0
   34.3060   17.0870   31.5660 H   0  0  0  0  0  0  0  0  0  0  0  0
  1  8  1  0  0  0  0
  2  6  1  0  0  0  0
  2  1  2  0  0  0  0
  3  2  1  0  0  0  0
  4  3  2  0  0  0  0
  4  5  1  0  0  0  0
  5 17  1  0  0  0  0
  5  1  1  0  0  0  0
  7  4  1  0  0  0  0
  8  9  2  0  0  0  0
  8 13  1  0  0  0  0
  9 10  1  0  0  0  0
 10 15  1  0  0  0  0
 10 11  2  0  0  0  0
 12 11  1  0  0  0  0
 12 16  1  0  0  0  0
 13 12  2  0  0  0  0
 14  9  1  0  0  0  0
 17 20  1  6  0  0  0
 17 18  1  0  0  0  0
 18 22  1  0  0  0  0
 18 21  1  0  0  0  0
 19 23  1  6  0  0  0
 19 17  1  0  0  0  0
 19 18  1  0  0  0  0
 24 19  1  0  0  0  0
 25 24  1  0  0  0  0
 26 28  1  0  0  0  0
 26 25  2  0  0  0  0
 27 26  1  0  0  0  0
 28 29  1  0  0  0  0
 29 24  2  0  0  0  0
 30 28  1  0  0  0  0
M  END
>  <minimizedAffinity>
-4.80742645

>  <minimizedRMSD>
0.712307453

$$$$
