
 OpenBabel03262519323D

 41 45  0  0  0  0  0  0  0  0999 V2000
   42.1770   23.0310   36.1900 C   0  0  0  0  0  0  0  0  0  0  0  0
   42.0410   24.3600   35.8190 C   0  0  0  0  0  0  0  0  0  0  0  0
   43.1180   24.7610   35.1080 N   0  0  0  0  0  0  0  0  0  0  0  0
   43.9940   23.7180   34.9880 C   0  0  0  0  0  0  0  0  0  0  0  0
   45.2080   23.6070   34.3720 C   0  0  0  0  0  0  0  0  0  0  0  0
   45.8860   22.4150   34.4050 C   0  0  0  0  0  0  0  0  0  0  0  0
   45.3130   21.3420   35.0710 C   0  0  0  0  0  0  0  0  0  0  0  0
   44.0700   21.4460   35.7050 C   0  0  0  0  0  0  0  0  0  0  0  0
   43.4090   22.6450   35.6600 C   0  0  0  0  0  0  0  0  0  0  0  0
   41.1760   24.9690   36.0790 H   0  0  0  0  0  0  0  0  0  0  0  0
   43.2760   25.7090   34.7060 H   0  0  0  0  0  0  0  0  0  0  0  0
   45.5850   24.4890   33.8750 H   0  0  0  0  0  0  0  0  0  0  0  0
   46.8310   22.3510   33.9180 H   0  0  0  0  0  0  0  0  0  0  0  0
   45.9170   20.4450   35.0460 H   0  0  0  0  0  0  0  0  0  0  0  0
   43.5440   20.2730   36.3890 C   0  0  0  0  0  0  0  0  0  0  0  0
   43.4710   19.0220   35.8130 C   0  0  0  0  0  0  0  0  0  0  0  0
   42.9380   18.0810   36.6600 C   0  0  0  0  0  0  0  0  0  0  0  0
   42.7690   17.0320   36.4630 H   0  0  0  0  0  0  0  0  0  0  0  0
   42.6820   18.7770   37.7720 N   0  0  0  0  0  0  0  0  0  0  0  0
   43.0350   20.0170   37.5940 N   0  0  0  0  0  0  0  0  0  0  0  0
   42.2650   18.4120   38.6630 H   0  0  0  0  0  0  0  0  0  0  0  0
   41.2730   22.3050   36.9170 O   0  0  0  0  0  0  0  0  0  0  0  0
   39.9100   22.5100   36.9350 C   0  0  0  0  0  0  0  0  0  0  0  0
   39.4110   23.2420   38.0170 C   0  0  0  0  0  0  0  0  0  0  0  0
   38.0190   23.4610   38.0510 C   0  0  0  0  0  0  0  0  0  0  0  0
   37.2510   22.9620   37.0580 N   0  0  0  0  0  0  0  0  0  0  0  0
   37.7950   22.2580   36.0350 C   0  0  0  0  0  0  0  0  0  0  0  0
   39.1000   22.0400   35.9800 N   0  0  0  0  0  0  0  0  0  0  0  0
   37.0530   21.6950   34.9470 N   0  0  0  0  0  0  0  0  0  0  0  0
   37.4000   21.9600   33.6630 C   0  0  0  0  0  0  0  0  0  0  0  0
   36.6380   21.3830   32.6500 C   0  0  0  0  0  0  0  0  0  0  0  0
   35.5510   20.5540   32.9410 C   0  0  0  0  0  0  0  0  0  0  0  0
   34.8540   20.0250   32.0340 O   0  0  0  0  0  0  0  0  0  0  0  0
   35.2560   20.3270   34.2270 N   0  0  0  0  0  0  0  0  0  0  0  0
   35.9930   20.8880   35.2120 C   0  0  0  0  0  0  0  0  0  0  0  0
   35.7190   20.6780   36.4170 O   0  0  0  0  0  0  0  0  0  0  0  0
   39.9960   23.6570   38.8270 H   0  0  0  0  0  0  0  0  0  0  0  0
   37.5600   24.0200   38.8560 H   0  0  0  0  0  0  0  0  0  0  0  0
   38.2440   22.6030   33.4220 H   0  0  0  0  0  0  0  0  0  0  0  0
   36.8970   21.5800   31.6160 H   0  0  0  0  0  0  0  0  0  0  0  0
   34.4500   19.7130   34.4680 H   0  0  0  0  0  0  0  0  0  0  0  0
  1 22  1  0  0  0  0
  2 10  1  0  0  0  0
  2  1  2  0  0  0  0
  3  2  1  0  0  0  0
  4  3  1  0  0  0  0
  4  9  1  0  0  0  0
  5  6  1  0  0  0  0
  5  4  2  0  0  0  0
  6  7  2  0  0  0  0
  7  8  1  0  0  0  0
  8 15  1  0  0  0  0
  9  8  2  0  0  0  0
  9  1  1  0  0  0  0
 11  3  1  0  0  0  0
 12  5  1  0  0  0  0
 13  6  1  0  0  0  0
 14  7  1  0  0  0  0
 15 20  2  0  0  0  0
 16 15  1  0  0  0  0
 16 17  2  0  0  0  0
 17 19  1  0  0  0  0
 18 17  1  0  0  0  0
 19 21  1  0  0  0  0
 20 19  1  0  0  0  0
 22 23  1  0  0  0  0
 23 24  1  0  0  0  0
 24 25  2  0  0  0  0
 24 37  1  0  0  0  0
 25 38  1  0  0  0  0
 26 25  1  0  0  0  0
 27 26  2  0  0  0  0
 28 27  1  0  0  0  0
 28 23  2  0  0  0  0
 29 35  1  0  0  0  0
 29 27  1  0  0  0  0
 30 29  1  0  0  0  0
 31 32  1  0  0  0  0
 31 30  2  0  0  0  0
 32 34  1  0  0  0  0
 33 32  2  0  0  0  0
 34 41  1  0  0  0  0
 34 35  1  0  0  0  0
 35 36  2  0  0  0  0
 39 30  1  0  0  0  0
 40 31  1  0  0  0  0
M  END
>  <minimizedAffinity>
-6.15401983

>  <minimizedRMSD>
1.86234808

$$$$
