
 OpenBabel03262518543D

 26 28  0  0  0  0  0  0  0  0999 V2000
   39.8540   22.7240   37.4770 C   0  0  0  0  0  0  0  0  0  0  0  0
   39.1950   23.5070   38.4530 C   0  0  0  0  0  0  0  0  0  0  0  0
   37.8120   23.6630   38.3210 C   0  0  0  0  0  0  0  0  0  0  0  0
   37.1690   23.0660   37.2780 N   0  0  0  0  0  0  0  0  0  0  0  0
   37.8430   22.3190   36.3600 C   0  0  0  0  0  0  0  0  0  0  0  0
   39.1790   22.1490   36.4610 N   0  0  0  0  0  0  0  0  0  0  0  0
   37.1990   21.6870   35.2680 N   0  0  0  0  0  0  0  0  0  0  0  0
   37.8310   21.7650   34.0680 C   0  0  0  0  0  0  0  0  0  0  0  0
   37.2150   21.1520   32.9850 C   0  0  0  0  0  0  0  0  0  0  0  0
   36.0050   20.4990   33.1680 C   0  0  0  0  0  0  0  0  0  0  0  0
   35.4600   19.9480   32.1770 O   0  0  0  0  0  0  0  0  0  0  0  0
   35.4250   20.4560   34.3920 N   0  0  0  0  0  0  0  0  0  0  0  0
   36.0270   21.0550   35.4490 C   0  0  0  0  0  0  0  0  0  0  0  0
   35.5470   21.0540   36.6040 O   0  0  0  0  0  0  0  0  0  0  0  0
   40.9240   22.6010   37.5780 H   0  0  0  0  0  0  0  0  0  0  0  0
   39.7640   23.9520   39.2520 H   0  0  0  0  0  0  0  0  0  0  0  0
   37.2800   24.2590   39.0540 H   0  0  0  0  0  0  0  0  0  0  0  0
   38.7640   22.2800   33.9710 H   0  0  0  0  0  0  0  0  0  0  0  0
   34.5320   19.9810   34.5570 H   0  0  0  0  0  0  0  0  0  0  0  0
   37.8270   21.1890   31.6600 C   0  0  0  0  0  0  0  0  0  0  0  0
   38.0460   22.3350   30.9250 C   0  0  0  0  0  0  0  0  0  0  0  0
   38.6410   21.9760   29.7290 C   0  0  0  0  0  0  0  0  0  0  0  0
   38.9130   22.7200   28.9730 H   0  0  0  0  0  0  0  0  0  0  0  0
   38.7710   20.6190   29.7590 N   0  0  0  0  0  0  0  0  0  0  0  0
   38.2810   20.1760   30.9170 N   0  0  0  0  0  0  0  0  0  0  0  0
   39.1990   20.1060   28.9580 H   0  0  0  0  0  0  0  0  0  0  0  0
  1 15  1  0  0  0  0
  1  2  1  0  0  0  0
  2 16  1  0  0  0  0
  3  2  2  0  0  0  0
  3 17  1  0  0  0  0
  4  3  1  0  0  0  0
  5  6  1  0  0  0  0
  5  4  2  0  0  0  0
  6  1  2  0  0  0  0
  7 13  1  0  0  0  0
  7  5  1  0  0  0  0
  8  7  1  0  0  0  0
  9 10  1  0  0  0  0
  9  8  2  0  0  0  0
 10 12  1  0  0  0  0
 11 10  2  0  0  0  0
 12 19  1  0  0  0  0
 12 13  1  0  0  0  0
 13 14  2  0  0  0  0
 18  8  1  0  0  0  0
 20  9  1  0  0  0  0
 21 20  1  0  0  0  0
 22 24  1  0  0  0  0
 22 21  2  0  0  0  0
 23 22  1  0  0  0  0
 24 25  1  0  0  0  0
 25 20  2  0  0  0  0
 26 24  1  0  0  0  0
M  END
>  <minimizedAffinity>
-4.91797686

>  <minimizedRMSD>
0.434740871

$$$$
