
 OpenBabel03262519573D

 26 29  0  0  1  0  0  0  0  0999 V2000
   38.0610   23.6110   34.6340 C   0  0  0  0  0  0  0  0  0  0  0  0
   38.2670   24.7530   33.8740 C   0  0  0  0  0  0  0  0  0  0  0  0
   37.7890   24.4140   32.6440 N   0  0  0  0  0  0  0  0  0  0  0  0
   37.3460   23.1670   32.7040 C   0  0  0  0  0  0  0  0  0  0  0  0
   37.4950   22.6300   33.9240 N   0  0  0  0  0  0  0  0  0  0  0  0
   38.7020   25.6700   34.2080 H   0  0  0  0  0  0  0  0  0  0  0  0
   36.9080   22.6460   31.8450 H   0  0  0  0  0  0  0  0  0  0  0  0
   38.4150   23.4790   36.0390 C   0  0  0  0  0  0  0  0  0  0  0  0
   39.6210   22.8800   36.4180 C   0  0  0  0  0  0  0  0  0  0  0  0
   39.9200   22.7740   37.7980 C   0  0  0  0  0  0  0  0  0  0  0  0
   39.0200   23.2600   38.6630 N   0  0  0  0  0  0  0  0  0  0  0  0
   37.8590   23.8350   38.2850 C   0  0  0  0  0  0  0  0  0  0  0  0
   37.5650   23.9400   36.9750 N   0  0  0  0  0  0  0  0  0  0  0  0
   40.3190   22.5020   35.6920 H   0  0  0  0  0  0  0  0  0  0  0  0
   40.8360   22.3210   38.1440 H   0  0  0  0  0  0  0  0  0  0  0  0
   37.1130   24.2360   38.9570 H   0  0  0  0  0  0  0  0  0  0  0  0
   37.1050   21.2980   34.2790 C   0  0  1  0  0  0  0  0  0  0  0  0
   35.9900   21.0030   35.1630 C   0  0  0  0  0  0  0  0  0  0  0  0
   35.7490   20.9150   33.6810 C   0  0  2  0  0  0  0  0  0  0  0  0
   37.9170   20.5510   34.2010 H   0  0  0  0  0  0  0  0  0  0  0  0
   36.0260   20.0700   35.7530 H   0  0  0  0  0  0  0  0  0  0  0  0
   35.5400   21.8510   35.7470 H   0  0  0  0  0  0  0  0  0  0  0  0
   35.1190   21.6870   33.2120 H   0  0  0  0  0  0  0  0  0  0  0  0
   35.5500   19.5450   33.1410 C   0  0  0  0  0  3  0  0  0  0  0  0
   34.5250   19.3610   32.0210 C   0  0  0  0  0  2  0  0  0  0  0  0
   35.9960   19.1370   31.7940 C   0  0  0  0  0  2  0  0  0  0  0  0
  1  8  1  0  0  0  0
  2  6  1  0  0  0  0
  2  1  2  0  0  0  0
  3  4  2  0  0  0  0
  3  2  1  0  0  0  0
  4  5  1  0  0  0  0
  5 17  1  0  0  0  0
  5  1  1  0  0  0  0
  7  4  1  0  0  0  0
  8  9  2  0  0  0  0
  8 13  1  0  0  0  0
  9 10  1  0  0  0  0
 10 15  1  0  0  0  0
 10 11  2  0  0  0  0
 12 11  1  0  0  0  0
 12 16  1  0  0  0  0
 13 12  2  0  0  0  0
 14  9  1  0  0  0  0
 17 20  1  6  0  0  0
 17 18  1  0  0  0  0
 18 22  1  0  0  0  0
 18 21  1  0  0  0  0
 19 23  1  6  0  0  0
 19 17  1  0  0  0  0
 19 18  1  0  0  0  0
 24 19  1  0  0  0  0
 25 24  1  0  0  0  0
 26 25  1  0  0  0  0
 26 24  1  0  0  0  0
M  END
>  <minimizedAffinity>
-4.6713357

>  <minimizedRMSD>
0.703366578

$$$$
