
 OpenBabel03262518133D

 19 21  0  0  0  0  0  0  0  0999 V2000
   42.5490   20.8010   37.0490 C   0  0  0  0  0  0  0  0  0  0  0  0
   41.4480   21.4830   37.5920 C   0  0  0  0  0  0  0  0  0  0  0  0
   40.6010   22.1500   36.7240 C   0  0  0  0  0  0  0  0  0  0  0  0
   40.8860   22.1110   35.3730 N   0  0  0  0  0  0  0  0  0  0  0  0
   41.9470   21.4480   34.9070 C   0  0  0  0  0  0  0  0  0  0  0  0
   42.7830   20.7920   35.7310 N   0  0  0  0  0  0  0  0  0  0  0  0
   43.2210   20.2730   37.7100 H   0  0  0  0  0  0  0  0  0  0  0  0
   41.2370   21.5040   38.6610 H   0  0  0  0  0  0  0  0  0  0  0  0
   39.4470   22.8680   37.2690 C   0  0  0  0  0  0  0  0  0  0  0  0
   38.5950   23.6700   36.5010 C   0  0  0  0  0  0  0  0  0  0  0  0
   37.6640   24.1480   37.3750 N   0  0  0  0  0  0  0  0  0  0  0  0
   37.9670   23.6430   38.5850 C   0  0  0  0  0  0  0  0  0  0  0  0
   39.0340   22.8740   38.5430 N   0  0  0  0  0  0  0  0  0  0  0  0
   38.6690   23.8640   35.4390 H   0  0  0  0  0  0  0  0  0  0  0  0
   37.2980   23.9480   39.3790 H   0  0  0  0  0  0  0  0  0  0  0  0
   39.4430   22.3870   39.3450 H   0  0  0  0  0  0  0  0  0  0  0  0
   42.1480   21.4800   33.4250 C   0  0  0  0  0  0  0  0  0  0  0  0
   41.6220   20.2640   32.6450 C   0  0  0  0  0  0  0  0  0  0  0  0
   41.0330   21.6040   32.4820 C   0  0  0  0  0  0  0  0  0  0  0  0
  1  2  1  0  0  0  0
  1  7  1  0  0  0  0
  2  8  1  0  0  0  0
  3  9  1  0  0  0  0
  3  2  2  0  0  0  0
  4  3  1  0  0  0  0
  5  4  2  0  0  0  0
  5  6  1  0  0  0  0
  6  1  2  0  0  0  0
  9 13  1  0  0  0  0
 10  9  2  0  0  0  0
 10 11  1  0  0  0  0
 11 12  2  0  0  0  0
 12 15  1  0  0  0  0
 13 12  1  0  0  0  0
 13 16  1  0  0  0  0
 14 10  1  0  0  0  0
 17  5  1  0  0  0  0
 18 17  1  0  0  0  0
 19 18  1  0  0  0  0
 19 17  1  0  0  0  0
M  END
>  <minimizedAffinity>
-3.69299006

>  <minimizedRMSD>
0.0825383663

$$$$
