
 OpenBabel03262519573D

 26 29  0  0  1  0  0  0  0  0999 V2000
   38.0620   23.6110   34.6330 C   0  0  0  0  0  0  0  0  0  0  0  0
   38.2690   24.7530   33.8740 C   0  0  0  0  0  0  0  0  0  0  0  0
   37.7910   24.4140   32.6430 N   0  0  0  0  0  0  0  0  0  0  0  0
   37.3480   23.1670   32.7040 C   0  0  0  0  0  0  0  0  0  0  0  0
   37.4970   22.6300   33.9240 N   0  0  0  0  0  0  0  0  0  0  0  0
   38.7040   25.6700   34.2080 H   0  0  0  0  0  0  0  0  0  0  0  0
   36.9100   22.6460   31.8450 H   0  0  0  0  0  0  0  0  0  0  0  0
   38.4150   23.4790   36.0390 C   0  0  0  0  0  0  0  0  0  0  0  0
   39.6220   22.8800   36.4190 C   0  0  0  0  0  0  0  0  0  0  0  0
   39.9200   22.7740   37.7980 C   0  0  0  0  0  0  0  0  0  0  0  0
   39.0190   23.2600   38.6630 N   0  0  0  0  0  0  0  0  0  0  0  0
   37.8590   23.8360   38.2850 C   0  0  0  0  0  0  0  0  0  0  0  0
   37.5660   23.9410   36.9740 N   0  0  0  0  0  0  0  0  0  0  0  0
   40.3190   22.5010   35.6930 H   0  0  0  0  0  0  0  0  0  0  0  0
   40.8350   22.3200   38.1450 H   0  0  0  0  0  0  0  0  0  0  0  0
   37.1130   24.2380   38.9570 H   0  0  0  0  0  0  0  0  0  0  0  0
   37.1060   21.2980   34.2790 C   0  0  1  0  0  0  0  0  0  0  0  0
   35.9910   21.0030   35.1630 C   0  0  0  0  0  0  0  0  0  0  0  0
   35.7500   20.9160   33.6810 C   0  0  2  0  0  0  0  0  0  0  0  0
   37.9170   20.5510   34.2000 H   0  0  0  0  0  0  0  0  0  0  0  0
   36.0280   20.0700   35.7530 H   0  0  0  0  0  0  0  0  0  0  0  0
   35.5420   21.8520   35.7480 H   0  0  0  0  0  0  0  0  0  0  0  0
   35.1190   21.6890   33.2130 H   0  0  0  0  0  0  0  0  0  0  0  0
   35.5500   19.5460   33.1420 C   0  0  0  0  0  3  0  0  0  0  0  0
   34.5250   19.3620   32.0210 C   0  0  0  0  0  2  0  0  0  0  0  0
   35.9960   19.1370   31.7950 C   0  0  0  0  0  2  0  0  0  0  0  0
  1  8  1  0  0  0  0
  2  6  1  0  0  0  0
  2  1  2  0  0  0  0
  3  4  2  0  0  0  0
  3  2  1  0  0  0  0
  4  5  1  0  0  0  0
  5 17  1  0  0  0  0
  5  1  1  0  0  0  0
  7  4  1  0  0  0  0
  8  9  2  0  0  0  0
  8 13  1  0  0  0  0
  9 10  1  0  0  0  0
 10 15  1  0  0  0  0
 10 11  2  0  0  0  0
 12 11  1  0  0  0  0
 12 16  1  0  0  0  0
 13 12  2  0  0  0  0
 14  9  1  0  0  0  0
 17 20  1  6  0  0  0
 17 18  1  0  0  0  0
 18 22  1  0  0  0  0
 18 21  1  0  0  0  0
 19 23  1  6  0  0  0
 19 17  1  0  0  0  0
 19 18  1  0  0  0  0
 24 19  1  0  0  0  0
 25 24  1  0  0  0  0
 26 25  1  0  0  0  0
 26 24  1  0  0  0  0
M  END
>  <minimizedAffinity>
-4.67151308

>  <minimizedRMSD>
0.221013978

$$$$
