
 OpenBabel03262517373D

 25 27  0  0  0  0  0  0  0  0999 V2000
   37.3850   27.5030   33.8940 C   0  0  0  0  0  0  0  0  0  0  0  0
   36.3200   28.2820   34.3470 C   0  0  0  0  0  0  0  0  0  0  0  0
   35.6800   29.1160   33.4530 C   0  0  0  0  0  0  0  0  0  0  0  0
   36.1210   29.1400   32.1610 N   0  0  0  0  0  0  0  0  0  0  0  0
   37.1440   28.3870   31.7400 C   0  0  0  0  0  0  0  0  0  0  0  0
   37.7820   27.5680   32.5920 N   0  0  0  0  0  0  0  0  0  0  0  0
   34.5900   29.9750   33.7230 N   0  0  0  0  0  0  0  0  0  0  0  0
   34.6970   31.3630   34.1560 C   0  0  0  0  0  0  0  0  0  0  0  0
   34.0330   31.5130   35.5030 C   0  0  0  0  0  0  0  0  0  0  0  0
   33.2570   30.3870   35.7950 O   0  0  0  0  0  0  0  0  0  0  0  0
   32.3790   30.1290   34.7530 C   0  0  0  0  0  0  0  0  0  0  0  0
   33.1880   29.5660   33.5970 C   0  0  0  0  0  0  0  0  0  0  0  0
   35.9580   28.2860   35.3370 H   0  0  0  0  0  0  0  0  0  0  0  0
   37.4520   28.4490   30.6940 H   0  0  0  0  0  0  0  0  0  0  0  0
   34.3070   32.0700   33.3980 H   0  0  0  0  0  0  0  0  0  0  0  0
   35.7730   31.6310   34.3080 H   0  0  0  0  0  0  0  0  0  0  0  0
   34.7240   31.7370   36.3190 H   0  0  0  0  0  0  0  0  0  0  0  0
   33.3000   32.3490   35.3960 H   0  0  0  0  0  0  0  0  0  0  0  0
   31.8190   31.0270   34.4410 H   0  0  0  0  0  0  0  0  0  0  0  0
   31.6980   29.3110   35.1030 H   0  0  0  0  0  0  0  0  0  0  0  0
   33.2130   28.4560   33.6320 H   0  0  0  0  0  0  0  0  0  0  0  0
   32.7940   29.9640   32.6350 H   0  0  0  0  0  0  0  0  0  0  0  0
   38.0740   26.6000   34.8730 C   0  0  0  0  0  0  0  0  0  0  0  0
   39.5110   26.9460   35.2190 C   0  0  0  0  0  0  0  0  0  0  0  0
   38.4040   27.0350   36.2330 C   0  0  0  0  0  0  0  0  0  0  0  0
  1  2  1  0  0  0  0
  1 23  1  0  0  0  0
  2 13  1  0  0  0  0
  3  7  1  0  0  0  0
  3  2  2  0  0  0  0
  4  3  1  0  0  0  0
  5  4  2  0  0  0  0
  5  6  1  0  0  0  0
  6  1  2  0  0  0  0
  7  8  1  0  0  0  0
  8 16  1  0  0  0  0
  8  9  1  0  0  0  0
  9 10  1  0  0  0  0
  9 17  1  0  0  0  0
 11 20  1  0  0  0  0
 11 10  1  0  0  0  0
 12 21  1  0  0  0  0
 12  7  1  0  0  0  0
 12 11  1  0  0  0  0
 14  5  1  0  0  0  0
 15  8  1  0  0  0  0
 18  9  1  0  0  0  0
 19 11  1  0  0  0  0
 22 12  1  0  0  0  0
 23 24  1  0  0  0  0
 23 25  1  0  0  0  0
 24 25  1  0  0  0  0
M  END
>  <minimizedAffinity>
-4.16115332

>  <minimizedRMSD>
6.49676561

$$$$
