
 OpenBabel03262519573D

 26 29  0  0  1  0  0  0  0  0999 V2000
   38.0620   23.6110   34.6330 C   0  0  0  0  0  0  0  0  0  0  0  0
   38.2680   24.7540   33.8730 C   0  0  0  0  0  0  0  0  0  0  0  0
   37.7910   24.4140   32.6430 N   0  0  0  0  0  0  0  0  0  0  0  0
   37.3480   23.1670   32.7030 C   0  0  0  0  0  0  0  0  0  0  0  0
   37.4970   22.6300   33.9230 N   0  0  0  0  0  0  0  0  0  0  0  0
   38.7030   25.6700   34.2070 H   0  0  0  0  0  0  0  0  0  0  0  0
   36.9100   22.6460   31.8440 H   0  0  0  0  0  0  0  0  0  0  0  0
   38.4150   23.4800   36.0390 C   0  0  0  0  0  0  0  0  0  0  0  0
   39.6210   22.8800   36.4190 C   0  0  0  0  0  0  0  0  0  0  0  0
   39.9190   22.7740   37.7980 C   0  0  0  0  0  0  0  0  0  0  0  0
   39.0180   23.2610   38.6630 N   0  0  0  0  0  0  0  0  0  0  0  0
   37.8590   23.8380   38.2840 C   0  0  0  0  0  0  0  0  0  0  0  0
   37.5660   23.9420   36.9740 N   0  0  0  0  0  0  0  0  0  0  0  0
   40.3180   22.5010   35.6930 H   0  0  0  0  0  0  0  0  0  0  0  0
   40.8340   22.3200   38.1450 H   0  0  0  0  0  0  0  0  0  0  0  0
   37.1130   24.2400   38.9560 H   0  0  0  0  0  0  0  0  0  0  0  0
   37.1060   21.2980   34.2780 C   0  0  1  0  0  0  0  0  0  0  0  0
   35.9910   21.0040   35.1630 C   0  0  0  0  0  0  0  0  0  0  0  0
   35.7500   20.9160   33.6810 C   0  0  2  0  0  0  0  0  0  0  0  0
   37.9180   20.5510   34.1990 H   0  0  0  0  0  0  0  0  0  0  0  0
   36.0280   20.0700   35.7530 H   0  0  0  0  0  0  0  0  0  0  0  0
   35.5420   21.8520   35.7470 H   0  0  0  0  0  0  0  0  0  0  0  0
   35.1190   21.6890   33.2130 H   0  0  0  0  0  0  0  0  0  0  0  0
   35.5500   19.5460   33.1410 C   0  0  0  0  0  3  0  0  0  0  0  0
   34.5240   19.3630   32.0210 C   0  0  0  0  0  2  0  0  0  0  0  0
   35.9950   19.1370   31.7950 C   0  0  0  0  0  2  0  0  0  0  0  0
  1  8  1  0  0  0  0
  2  6  1  0  0  0  0
  2  1  2  0  0  0  0
  3  4  2  0  0  0  0
  3  2  1  0  0  0  0
  4  5  1  0  0  0  0
  5 17  1  0  0  0  0
  5  1  1  0  0  0  0
  7  4  1  0  0  0  0
  8  9  2  0  0  0  0
  8 13  1  0  0  0  0
  9 10  1  0  0  0  0
 10 15  1  0  0  0  0
 10 11  2  0  0  0  0
 12 11  1  0  0  0  0
 12 16  1  0  0  0  0
 13 12  2  0  0  0  0
 14  9  1  0  0  0  0
 17 20  1  6  0  0  0
 17 18  1  0  0  0  0
 18 22  1  0  0  0  0
 18 21  1  0  0  0  0
 19 23  1  6  0  0  0
 19 17  1  0  0  0  0
 19 18  1  0  0  0  0
 24 19  1  0  0  0  0
 25 24  1  0  0  0  0
 26 25  1  0  0  0  0
 26 24  1  0  0  0  0
M  END
>  <minimizedAffinity>
-4.67190886

>  <minimizedRMSD>
0.313027352

$$$$
