
 OpenBabel03262519413D

 35 38  0  0  1  0  0  0  0  0999 V2000
   37.6920   25.3280   34.1780 N   0  0  0  0  0  0  0  0  0  0  0  0
   37.1620   25.2720   32.8320 C   0  0  0  0  0  0  0  0  0  0  0  0
   36.8730   26.6880   32.4590 C   0  0  0  0  0  0  0  0  0  0  0  0
   37.3300   27.4900   33.6680 C   0  0  0  0  0  0  0  0  0  0  0  0
   38.4430   26.5420   34.1940 C   0  0  2  0  0  0  0  0  0  0  0  0
   36.2100   24.7080   32.8670 H   0  0  0  0  0  0  0  0  0  0  0  0
   37.8760   24.8010   32.1120 H   0  0  0  0  0  0  0  0  0  0  0  0
   35.7800   26.8940   32.3430 H   0  0  0  0  0  0  0  0  0  0  0  0
   37.4490   27.0670   31.5890 H   0  0  0  0  0  0  0  0  0  0  0  0
   36.5580   27.5450   34.4500 H   0  0  0  0  0  0  0  0  0  0  0  0
   37.7490   28.4590   33.3770 H   0  0  0  0  0  0  0  0  0  0  0  0
   38.6970   26.9270   35.1930 H   0  0  0  0  0  0  0  0  0  0  0  0
   38.6030   24.2550   34.4300 C   0  0  0  0  0  0  0  0  0  0  0  0
   38.1850   23.3410   33.9180 H   0  0  0  0  0  0  0  0  0  0  0  0
   39.5440   24.4550   33.9380 H   0  0  0  0  0  0  0  0  0  0  0  0
   37.8550   24.0450   38.1310 C   0  0  0  0  0  0  0  0  0  0  0  0
   37.7240   24.3920   36.7870 C   0  0  0  0  0  0  0  0  0  0  0  0
   38.6950   23.9160   35.8760 C   0  0  0  0  0  0  0  0  0  0  0  0
   39.7020   23.1430   36.3800 N   0  0  0  0  0  0  0  0  0  0  0  0
   39.7710   22.8430   37.6930 C   0  0  0  0  0  0  0  0  0  0  0  0
   38.8490   23.2950   38.5510 N   0  0  0  0  0  0  0  0  0  0  0  0
   37.1160   24.4050   38.8340 H   0  0  0  0  0  0  0  0  0  0  0  0
   36.9140   25.0120   36.3980 H   0  0  0  0  0  0  0  0  0  0  0  0
   40.6570   22.2160   37.8640 H   0  0  0  0  0  0  0  0  0  0  0  0
   39.5270   26.5070   33.3580 O   0  0  0  0  0  0  0  0  0  0  0  0
   40.5700   27.3050   33.7550 C   0  0  2  0  0  0  0  0  0  0  0  0
   41.7020   27.4520   32.7870 C   0  0  0  0  0  0  0  0  0  0  0  0
   41.8930   26.7710   34.1120 C   0  0  2  0  0  0  0  0  0  0  0  0
   40.2550   28.0980   34.4430 H   0  0  0  0  0  0  0  0  0  0  0  0
   41.7020   26.8460   31.8500 H   0  0  0  0  0  0  0  0  0  0  0  0
   42.1470   28.4530   32.6010 H   0  0  0  0  0  0  0  0  0  0  0  0
   42.5180   27.3730   34.8020 H   0  0  0  0  0  0  0  0  0  0  0  0
   42.3450   25.3680   34.0350 C   0  0  0  0  0  0  0  0  0  0  0  0
   43.6910   24.8670   34.2820 C   0  0  0  0  0  0  0  0  0  0  0  0
   42.7520   24.7910   35.4150 C   0  0  0  0  0  0  0  0  0  0  0  0
  1  5  1  0  0  0  0
  1 13  1  0  0  0  0
  2  6  1  0  0  0  0
  2  1  1  0  0  0  0
  3  2  1  0  0  0  0
  3  4  1  0  0  0  0
  4  5  1  0  0  0  0
  4 10  1  0  0  0  0
  5 12  1  1  0  0  0
  7  2  1  0  0  0  0
  8  3  1  0  0  0  0
  9  3  1  0  0  0  0
 11  4  1  0  0  0  0
 13 18  1  0  0  0  0
 14 13  1  0  0  0  0
 15 13  1  0  0  0  0
 16 21  1  0  0  0  0
 16 22  1  0  0  0  0
 17 16  2  0  0  0  0
 18 19  2  0  0  0  0
 18 17  1  0  0  0  0
 19 20  1  0  0  0  0
 20 24  1  0  0  0  0
 20 21  2  0  0  0  0
 23 17  1  0  0  0  0
 25 26  1  0  0  0  0
 25  5  1  0  0  0  0
 26 28  1  0  0  0  0
 26 29  1  1  0  0  0
 27 26  1  0  0  0  0
 27 28  1  0  0  0  0
 28 32  1  1  0  0  0
 30 27  1  0  0  0  0
 31 27  1  0  0  0  0
 33 28  1  0  0  0  0
 33 34  1  0  0  0  0
 33 35  1  0  0  0  0
 34 35  1  0  0  0  0
M  END
>  <minimizedAffinity>
-4.20343637

>  <minimizedRMSD>
0.993332684

$$$$
