
 OpenBabel03262519153D

 29 32  0  0  0  0  0  0  0  0999 V2000
   39.4310   23.5140   36.2110 C   0  0  0  0  0  0  0  0  0  0  0  0
   39.7490   24.6430   35.4560 C   0  0  0  0  0  0  0  0  0  0  0  0
   41.0270   24.7570   34.8870 C   0  0  0  0  0  0  0  0  0  0  0  0
   41.8870   23.7300   35.1200 N   0  0  0  0  0  0  0  0  0  0  0  0
   41.5400   22.6370   35.8660 C   0  0  0  0  0  0  0  0  0  0  0  0
   40.3140   22.5530   36.3980 N   0  0  0  0  0  0  0  0  0  0  0  0
   38.4240   23.5260   36.6020 H   0  0  0  0  0  0  0  0  0  0  0  0
   41.3580   25.5850   34.2940 H   0  0  0  0  0  0  0  0  0  0  0  0
   38.8570   25.7530   35.1930 C   0  0  0  0  0  0  0  0  0  0  0  0
   38.7550   26.8880   35.9850 C   0  0  0  0  0  0  0  0  0  0  0  0
   37.8610   27.8300   35.5800 C   0  0  0  0  0  0  0  0  0  0  0  0
   37.1230   27.6050   34.4270 C   0  0  0  0  0  0  0  0  0  0  0  0
   37.7120   25.9400   33.8430 S   0  0  0  0  0  0  0  0  0  0  0  0
   39.3420   27.0400   36.8800 H   0  0  0  0  0  0  0  0  0  0  0  0
   37.6380   28.7740   36.0580 H   0  0  0  0  0  0  0  0  0  0  0  0
   36.1370   28.3170   33.7210 C   0  0  0  0  0  0  0  0  0  0  0  0
   35.8750   28.0400   32.5430 O   0  0  0  0  0  0  0  0  0  0  0  0
   35.3990   29.3960   34.3510 N   0  0  0  0  0  0  0  0  0  0  0  0
   34.4220   29.0430   34.4930 H   0  0  0  0  0  0  0  0  0  0  0  0
   36.0450   30.2000   34.4780 H   0  0  0  0  0  0  0  0  0  0  0  0
   42.5550   21.5840   36.0500 C   0  0  0  0  0  0  0  0  0  0  0  0
   43.8220   21.9280   35.6750 C   0  0  0  0  0  0  0  0  0  0  0  0
   44.8000   20.3630   36.0480 S   0  0  0  0  0  0  0  0  0  0  0  0
   43.1900   19.5300   36.6670 C   0  0  0  0  0  0  0  0  0  0  0  0
   42.4540   20.3620   36.5110 N   0  0  0  0  0  0  0  0  0  0  0  0
   44.3950   22.7560   35.2630 H   0  0  0  0  0  0  0  0  0  0  0  0
   43.1380   18.1400   37.1790 C   0  0  0  0  0  0  0  0  0  0  0  0
   43.5330   17.0670   36.2130 C   0  0  0  0  0  0  0  0  0  0  0  0
   44.3940   17.3790   37.4050 C   0  0  0  0  0  0  0  0  0  0  0  0
  1  6  1  0  0  0  0
  1  7  1  0  0  0  0
  2  1  2  0  0  0  0
  3  4  2  0  0  0  0
  3  2  1  0  0  0  0
  4  5  1  0  0  0  0
  5 21  1  0  0  0  0
  5  6  2  0  0  0  0
  8  3  1  0  0  0  0
  9  2  1  0  0  0  0
  9 10  2  0  0  0  0
 10 14  1  0  0  0  0
 11 10  1  0  0  0  0
 11 15  1  0  0  0  0
 12 11  2  0  0  0  0
 13 12  1  0  0  0  0
 13  9  1  0  0  0  0
 16 18  1  0  0  0  0
 16 12  1  0  0  0  0
 17 16  2  0  0  0  0
 18 20  1  0  0  0  0
 18 19  1  0  0  0  0
 21 25  1  0  0  0  0
 22 23  1  0  0  0  0
 22 21  2  0  0  0  0
 23 24  1  0  0  0  0
 24 27  1  0  0  0  0
 25 24  2  0  0  0  0
 26 22  1  0  0  0  0
 27 29  1  0  0  0  0
 28 27  1  0  0  0  0
 28 29  1  0  0  0  0
M  END
>  <minimizedAffinity>
-4.25546598

>  <minimizedRMSD>
1.17573667

$$$$
