
 OpenBabel03262515443D

 25 27  0  0  1  0  0  0  0  0999 V2000
   38.0440   23.7540   38.3410 C   0  0  0  0  0  0  0  0  0  0  0  0
   37.8070   24.4750   37.1680 C   0  0  0  0  0  0  0  0  0  0  0  0
   38.7140   24.3760   36.1320 C   0  0  0  0  0  0  0  0  0  0  0  0
   39.8060   23.5790   36.2910 N   0  0  0  0  0  0  0  0  0  0  0  0
   40.0170   22.8920   37.4270 C   0  0  0  0  0  0  0  0  0  0  0  0
   39.1520   22.9700   38.4500 N   0  0  0  0  0  0  0  0  0  0  0  0
   38.6360   25.0350   34.8720 N   0  0  0  0  0  0  0  0  0  0  0  0
   39.2070   26.3600   34.6100 C   0  0  2  0  0  0  0  0  0  0  0  0
   38.0970   27.2820   34.1680 C   0  0  0  0  0  0  0  0  0  0  0  0
   36.9340   26.5660   33.8940 O   0  0  0  0  0  0  0  0  0  0  0  0
   37.2120   25.5520   32.9790 C   0  0  0  0  0  0  0  0  0  0  0  0
   37.9890   24.4800   33.7030 C   0  0  0  0  0  0  0  0  0  0  0  0
   37.3140   23.8510   39.1380 H   0  0  0  0  0  0  0  0  0  0  0  0
   36.9700   25.1150   36.9840 H   0  0  0  0  0  0  0  0  0  0  0  0
   40.9210   22.2680   37.4820 H   0  0  0  0  0  0  0  0  0  0  0  0
   39.5220   26.7360   35.6030 H   0  0  0  0  0  0  0  0  0  0  0  0
   38.3400   27.8140   33.2240 H   0  0  0  0  0  0  0  0  0  0  0  0
   37.8670   28.0900   34.8920 H   0  0  0  0  0  0  0  0  0  0  0  0
   37.7220   25.9220   32.0720 H   0  0  0  0  0  0  0  0  0  0  0  0
   36.2240   25.0930   32.7020 H   0  0  0  0  0  0  0  0  0  0  0  0
   37.3380   23.6440   34.0450 H   0  0  0  0  0  0  0  0  0  0  0  0
   38.7200   24.0460   32.9820 H   0  0  0  0  0  0  0  0  0  0  0  0
   40.3680   26.2970   33.7120 C   0  0  0  0  0  0  0  0  0  0  0  0
   41.1690   27.4120   33.2290 C   0  0  0  0  0  0  0  0  0  0  0  0
   41.7240   26.5730   34.3670 C   0  0  0  0  0  0  0  0  0  0  0  0
  1  6  1  0  0  0  0
  1 13  1  0  0  0  0
  2  1  2  0  0  0  0
  3  4  2  0  0  0  0
  3  2  1  0  0  0  0
  4  5  1  0  0  0  0
  5 15  1  0  0  0  0
  5  6  2  0  0  0  0
  7  3  1  0  0  0  0
  8  7  1  0  0  0  0
  8 16  1  1  0  0  0
  9  8  1  0  0  0  0
  9 18  1  0  0  0  0
 10  9  1  0  0  0  0
 11 12  1  0  0  0  0
 11 10  1  0  0  0  0
 12 21  1  0  0  0  0
 12  7  1  0  0  0  0
 14  2  1  0  0  0  0
 17  9  1  0  0  0  0
 19 11  1  0  0  0  0
 20 11  1  0  0  0  0
 22 12  1  0  0  0  0
 23 25  1  0  0  0  0
 23  8  1  0  0  0  0
 24 23  1  0  0  0  0
 24 25  1  0  0  0  0
M  END
>  <minimizedAffinity>
-4.20653772

>  <minimizedRMSD>
1.15266895

$$$$
