
 OpenBabel03262519573D

 26 29  0  0  1  0  0  0  0  0999 V2000
   37.8480   23.4290   33.6260 C   0  0  0  0  0  0  0  0  0  0  0  0
   37.9620   24.6420   32.9620 C   0  0  0  0  0  0  0  0  0  0  0  0
   37.2280   24.4590   31.8280 N   0  0  0  0  0  0  0  0  0  0  0  0
   36.7370   23.2290   31.8490 C   0  0  0  0  0  0  0  0  0  0  0  0
   37.0970   22.5530   32.9510 N   0  0  0  0  0  0  0  0  0  0  0  0
   38.5060   25.5000   33.2920 H   0  0  0  0  0  0  0  0  0  0  0  0
   36.1060   22.8230   31.0500 H   0  0  0  0  0  0  0  0  0  0  0  0
   38.4690   23.1280   34.9070 C   0  0  0  0  0  0  0  0  0  0  0  0
   39.6640   22.4020   34.9690 C   0  0  0  0  0  0  0  0  0  0  0  0
   40.2270   22.1330   36.2390 C   0  0  0  0  0  0  0  0  0  0  0  0
   39.5760   22.5970   37.3140 N   0  0  0  0  0  0  0  0  0  0  0  0
   38.4240   23.2960   37.2420 C   0  0  0  0  0  0  0  0  0  0  0  0
   37.8790   23.5560   36.0380 N   0  0  0  0  0  0  0  0  0  0  0  0
   40.1560   22.0470   34.0810 H   0  0  0  0  0  0  0  0  0  0  0  0
   41.1470   21.5780   36.3430 H   0  0  0  0  0  0  0  0  0  0  0  0
   37.8740   23.6830   38.0890 H   0  0  0  0  0  0  0  0  0  0  0  0
   36.7120   21.2040   33.2390 C   0  0  1  0  0  0  0  0  0  0  0  0
   35.7660   20.8520   34.2850 C   0  0  0  0  0  0  0  0  0  0  0  0
   35.2500   20.9320   32.8740 C   0  0  2  0  0  0  0  0  0  0  0  0
   37.4550   20.4450   32.9340 H   0  0  0  0  0  0  0  0  0  0  0  0
   35.8630   19.8600   34.7610 H   0  0  0  0  0  0  0  0  0  0  0  0
   35.4770   21.6470   35.0250 H   0  0  0  0  0  0  0  0  0  0  0  0
   34.5840   21.7690   32.6130 H   0  0  0  0  0  0  0  0  0  0  0  0
   34.8840   19.6340   32.2490 C   0  0  0  0  0  3  0  0  0  0  0  0
   35.9470   18.9210   31.4110 C   0  0  0  0  0  2  0  0  0  0  0  0
   35.4310   18.3400   32.6990 C   0  0  0  0  0  2  0  0  0  0  0  0
  1  8  1  0  0  0  0
  2  6  1  0  0  0  0
  2  1  2  0  0  0  0
  3  4  2  0  0  0  0
  3  2  1  0  0  0  0
  4  5  1  0  0  0  0
  5 17  1  0  0  0  0
  5  1  1  0  0  0  0
  7  4  1  0  0  0  0
  8  9  2  0  0  0  0
  8 13  1  0  0  0  0
  9 10  1  0  0  0  0
 10 15  1  0  0  0  0
 10 11  2  0  0  0  0
 12 11  1  0  0  0  0
 12 16  1  0  0  0  0
 13 12  2  0  0  0  0
 14  9  1  0  0  0  0
 17 20  1  6  0  0  0
 17 18  1  0  0  0  0
 18 21  1  0  0  0  0
 18 22  1  0  0  0  0
 19 23  1  6  0  0  0
 19 17  1  0  0  0  0
 19 18  1  0  0  0  0
 24 26  1  0  0  0  0
 24 19  1  0  0  0  0
 25 24  1  0  0  0  0
 25 26  1  0  0  0  0
M  END
>  <minimizedAffinity>
-4.48739147

>  <minimizedRMSD>
1.31208122

$$$$
