
 OpenBabel03262519303D

 27 30  0  0  0  0  0  0  0  0999 V2000
   41.7750   22.1490   36.5240 C   0  0  0  0  0  0  0  0  0  0  0  0
   42.3890   23.2900   36.0120 C   0  0  0  0  0  0  0  0  0  0  0  0
   43.6770   23.0660   35.7490 N   0  0  0  0  0  0  0  0  0  0  0  0
   43.9840   21.7860   36.0670 C   0  0  0  0  0  0  0  0  0  0  0  0
   45.1500   21.0350   35.9980 C   0  0  0  0  0  0  0  0  0  0  0  0
   45.1480   19.7090   36.4100 C   0  0  0  0  0  0  0  0  0  0  0  0
   43.9620   19.1380   36.8930 C   0  0  0  0  0  0  0  0  0  0  0  0
   42.8190   19.9080   36.9500 C   0  0  0  0  0  0  0  0  0  0  0  0
   42.8150   21.2290   36.5410 C   0  0  0  0  0  0  0  0  0  0  0  0
   41.9390   24.2630   35.8260 H   0  0  0  0  0  0  0  0  0  0  0  0
   44.3860   23.7290   35.3610 H   0  0  0  0  0  0  0  0  0  0  0  0
   46.0470   21.4740   35.6300 H   0  0  0  0  0  0  0  0  0  0  0  0
   46.0300   19.0870   36.3750 H   0  0  0  0  0  0  0  0  0  0  0  0
   43.8830   18.1110   37.2320 H   0  0  0  0  0  0  0  0  0  0  0  0
   41.8870   19.4590   37.3290 H   0  0  0  0  0  0  0  0  0  0  0  0
   40.4700   22.0370   36.8960 O   0  0  0  0  0  0  0  0  0  0  0  0
   39.5900   23.0470   37.0980 C   0  0  0  0  0  0  0  0  0  0  0  0
   38.9770   23.1280   38.3480 C   0  0  0  0  0  0  0  0  0  0  0  0
   38.0650   24.1580   38.5870 C   0  0  0  0  0  0  0  0  0  0  0  0
   37.8220   25.0330   37.5760 N   0  0  0  0  0  0  0  0  0  0  0  0
   38.4310   24.9260   36.3780 C   0  0  0  0  0  0  0  0  0  0  0  0
   39.3070   23.9510   36.1270 N   0  0  0  0  0  0  0  0  0  0  0  0
   39.1940   22.4150   39.1310 H   0  0  0  0  0  0  0  0  0  0  0  0
   37.5550   24.2780   39.5330 H   0  0  0  0  0  0  0  0  0  0  0  0
   38.0890   25.9460   35.3360 C   0  0  0  0  0  0  0  0  0  0  0  0
   39.1070   26.5800   34.5060 C   0  0  0  0  0  0  0  0  0  0  0  0
   38.6380   27.3340   35.7080 C   0  0  0  0  0  0  0  0  0  0  0  0
  1  9  1  0  0  0  0
  1 16  1  0  0  0  0
  2  1  2  0  0  0  0
  3  2  1  0  0  0  0
  3  4  1  0  0  0  0
  4  9  1  0  0  0  0
  5  4  2  0  0  0  0
  5  6  1  0  0  0  0
  6  7  2  0  0  0  0
  7  8  1  0  0  0  0
  7 14  1  0  0  0  0
  8 15  1  0  0  0  0
  9  8  2  0  0  0  0
 10  2  1  0  0  0  0
 11  3  1  0  0  0  0
 12  5  1  0  0  0  0
 13  6  1  0  0  0  0
 16 17  1  0  0  0  0
 17 18  1  0  0  0  0
 18 19  2  0  0  0  0
 18 23  1  0  0  0  0
 19 24  1  0  0  0  0
 20 19  1  0  0  0  0
 21 20  2  0  0  0  0
 22 21  1  0  0  0  0
 22 17  2  0  0  0  0
 25 27  1  0  0  0  0
 25 21  1  0  0  0  0
 26 25  1  0  0  0  0
 26 27  1  0  0  0  0
M  END
>  <minimizedAffinity>
-4.84722424

>  <minimizedRMSD>
1.30546749

$$$$
