
 OpenBabel03262519573D

 29 32  0  0  1  0  0  0  0  0999 V2000
   38.1770   23.4330   35.1070 C   0  0  0  0  0  0  0  0  0  0  0  0
   38.1100   23.2510   36.4850 C   0  0  0  0  0  0  0  0  0  0  0  0
   38.1010   24.5320   36.9790 N   0  0  0  0  0  0  0  0  0  0  0  0
   38.1600   25.3640   35.9620 C   0  0  0  0  0  0  0  0  0  0  0  0
   38.2080   24.7170   34.7840 N   0  0  0  0  0  0  0  0  0  0  0  0
   38.0730   22.3240   37.0310 H   0  0  0  0  0  0  0  0  0  0  0  0
   38.1680   26.4560   36.0610 H   0  0  0  0  0  0  0  0  0  0  0  0
   38.2120   22.3470   34.1270 C   0  0  0  0  0  0  0  0  0  0  0  0
   39.4370   21.9230   33.5790 C   0  0  0  0  0  0  0  0  0  0  0  0
   39.3950   20.8660   32.6360 C   0  0  0  0  0  0  0  0  0  0  0  0
   38.1910   20.3370   32.3280 N   0  0  0  0  0  0  0  0  0  0  0  0
   37.0390   20.7720   32.8770 C   0  0  0  0  0  0  0  0  0  0  0  0
   37.0270   21.7790   33.7820 N   0  0  0  0  0  0  0  0  0  0  0  0
   40.3660   22.3910   33.8700 H   0  0  0  0  0  0  0  0  0  0  0  0
   40.3050   20.5160   32.1960 H   0  0  0  0  0  0  0  0  0  0  0  0
   36.0700   20.3560   32.6370 H   0  0  0  0  0  0  0  0  0  0  0  0
   38.2780   25.3650   33.4970 C   0  0  1  0  0  0  0  0  0  0  0  0
   37.5510   24.8810   32.3370 C   0  0  0  0  0  0  0  0  0  0  0  0
   36.9920   26.0510   33.0970 C   0  0  2  0  0  0  0  0  0  0  0  0
   39.1710   26.0010   33.3530 H   0  0  0  0  0  0  0  0  0  0  0  0
   37.0050   23.9300   32.4540 H   0  0  0  0  0  0  0  0  0  0  0  0
   38.0370   25.0490   31.3530 H   0  0  0  0  0  0  0  0  0  0  0  0
   36.0870   25.9070   33.7240 H   0  0  0  0  0  0  0  0  0  0  0  0
   37.0380   27.3560   32.3850 C   0  0  0  0  0  3  0  0  0  0  0  0
   35.8450   28.2410   32.6530 C   0  0  0  0  0  2  0  0  0  0  0  0
   36.1800   29.6090   32.0980 C   0  0  0  0  0  2  0  0  0  0  0  0
   36.6230   29.6070   30.6750 C   0  0  0  0  0  2  0  0  0  0  0  0
   37.6080   28.5250   30.3440 C   0  0  0  0  0  2  0  0  0  0  0  0
   37.0970   27.2030   30.8780 C   0  0  0  0  0  2  0  0  0  0  0  0
  1  2  2  0  0  0  0
  2  3  1  0  0  0  0
  2  6  1  0  0  0  0
  4  7  1  0  0  0  0
  4  3  2  0  0  0  0
  5  1  1  0  0  0  0
  5  4  1  0  0  0  0
  8  1  1  0  0  0  0
  9 14  1  0  0  0  0
  9  8  2  0  0  0  0
 10  9  1  0  0  0  0
 11 10  2  0  0  0  0
 11 12  1  0  0  0  0
 12 13  2  0  0  0  0
 13  8  1  0  0  0  0
 15 10  1  0  0  0  0
 16 12  1  0  0  0  0
 17 20  1  6  0  0  0
 17  5  1  0  0  0  0
 18 21  1  0  0  0  0
 18 19  1  0  0  0  0
 18 17  1  0  0  0  0
 19 17  1  0  0  0  0
 19 23  1  1  0  0  0
 22 18  1  0  0  0  0
 24 25  1  0  0  0  0
 24 19  1  0  0  0  0
 26 25  1  0  0  0  0
 27 26  1  0  0  0  0
 28 27  1  0  0  0  0
 28 29  1  0  0  0  0
 29 24  1  0  0  0  0
M  END
>  <minimizedAffinity>
-4.39110231

>  <minimizedRMSD>
7.04439783

$$$$
