
 OpenBabel03262516063D

 18 19  0  0  0  0  0  0  0  0999 V2000
   40.0890   22.3490   36.4560 C   0  0  0  0  0  0  0  0  0  0  0  0
   39.7190   23.1390   37.5530 C   0  0  0  0  0  0  0  0  0  0  0  0
   38.3780   23.4900   37.6920 C   0  0  0  0  0  0  0  0  0  0  0  0
   37.4970   23.0410   36.7490 N   0  0  0  0  0  0  0  0  0  0  0  0
   37.8860   22.2840   35.7060 C   0  0  0  0  0  0  0  0  0  0  0  0
   39.1740   21.9480   35.5750 N   0  0  0  0  0  0  0  0  0  0  0  0
   40.3980   23.5080   38.3160 H   0  0  0  0  0  0  0  0  0  0  0  0
   37.1230   21.9690   35.0010 H   0  0  0  0  0  0  0  0  0  0  0  0
   41.5150   21.9930   36.3330 C   0  0  0  0  0  0  0  0  0  0  0  0
   42.3890   23.1610   36.6680 C   0  0  0  0  0  0  0  0  0  0  0  0
   43.8300   22.9040   36.3290 C   0  0  0  0  0  0  0  0  0  0  0  0
   44.1050   21.5200   35.8350 C   0  0  0  0  0  0  0  0  0  0  0  0
   43.1890   21.0960   34.7180 C   0  0  0  0  0  0  0  0  0  0  0  0
   41.7620   21.4750   34.9340 C   0  0  0  0  0  0  0  0  0  0  0  0
   37.9090   24.3350   38.8450 C   0  0  0  0  0  0  0  0  0  0  0  0
   37.9210   23.6760   39.7630 H   0  0  0  0  0  0  0  0  0  0  0  0
   38.5120   25.2420   38.9740 H   0  0  0  0  0  0  0  0  0  0  0  0
   36.8620   24.5930   38.6580 H   0  0  0  0  0  0  0  0  0  0  0  0
  1  2  1  0  0  0  0
  2  3  2  0  0  0  0
  2  7  1  0  0  0  0
  3 15  1  0  0  0  0
  4  3  1  0  0  0  0
  5  4  2  0  0  0  0
  6  5  1  0  0  0  0
  6  1  2  0  0  0  0
  8  5  1  0  0  0  0
  9  1  1  0  0  0  0
  9 10  1  0  0  0  0
 11 10  1  0  0  0  0
 12 11  1  0  0  0  0
 13 14  1  0  0  0  0
 13 12  1  0  0  0  0
 14  9  1  0  0  0  0
 15 17  1  0  0  0  0
 15 16  1  0  0  0  0
 18 15  1  0  0  0  0
M  END
>  <minimizedAffinity>
-3.77269769

>  <minimizedRMSD>
1.68971038

$$$$
