
 OpenBabel03262519453D

 31 33  0  0  1  0  0  0  0  0999 V2000
   37.4710   26.8220   34.7220 C   0  0  0  0  0  0  0  0  0  0  0  0
   36.7570   26.9720   35.5210 H   0  0  0  0  0  0  0  0  0  0  0  0
   38.1770   27.6890   34.7360 H   0  0  0  0  0  0  0  0  0  0  0  0
   36.8650   26.7810   33.4400 N   0  0  0  0  0  0  0  0  0  0  0  0
   36.6890   25.8330   32.4850 C   0  0  0  0  0  0  0  0  0  0  0  0
   36.0090   26.2970   31.3850 C   0  0  0  0  0  0  0  0  0  0  0  0
   35.7520   27.5820   31.6650 N   0  0  0  0  0  0  0  0  0  0  0  0
   36.2610   27.8700   32.8880 C   0  0  0  0  0  0  0  0  0  0  0  0
   37.0520   24.8380   32.6050 H   0  0  0  0  0  0  0  0  0  0  0  0
   35.7670   25.6990   30.5130 H   0  0  0  0  0  0  0  0  0  0  0  0
   36.0680   29.2650   33.3680 C   0  0  0  0  0  0  0  0  0  0  0  0
   35.9530   30.2710   32.2560 C   0  0  0  0  0  0  0  0  0  0  0  0
   35.2830   31.5240   32.7700 C   0  0  0  0  0  0  0  0  0  0  0  0
   35.6420   31.7620   34.2200 C   0  0  0  0  0  0  0  0  0  0  0  0
   35.0080   30.6610   35.0520 C   0  0  0  0  0  0  0  0  0  0  0  0
   34.8310   29.3960   34.2310 C   0  0  0  0  0  0  0  0  0  0  0  0
   38.2930   25.6020   35.0130 C   0  0  1  0  0  0  0  0  0  0  0  0
   37.9130   24.8150   34.3240 H   0  0  0  0  0  0  0  0  0  0  0  0
   42.0380   25.0760   34.8080 C   0  0  0  0  0  0  0  0  0  0  0  0
   40.6920   24.7940   35.0850 C   0  0  0  0  0  0  0  0  0  0  0  0
   39.7360   25.8050   34.7470 C   0  0  0  0  0  0  0  0  0  0  0  0
   40.1820   26.9740   34.1800 N   0  0  0  0  0  0  0  0  0  0  0  0
   41.4670   27.1990   33.9350 C   0  0  0  0  0  0  0  0  0  0  0  0
   42.4080   26.2390   34.2510 N   0  0  0  0  0  0  0  0  0  0  0  0
   42.7190   24.2870   35.0790 H   0  0  0  0  0  0  0  0  0  0  0  0
   40.3250   23.8840   35.5300 H   0  0  0  0  0  0  0  0  0  0  0  0
   41.8470   28.1090   33.4890 H   0  0  0  0  0  0  0  0  0  0  0  0
   38.0530   25.1350   36.4280 C   0  0  0  0  0  0  0  0  0  0  0  0
   38.7280   24.2680   36.6390 H   0  0  0  0  0  0  0  0  0  0  0  0
   38.2130   25.9620   37.1500 H   0  0  0  0  0  0  0  0  0  0  0  0
   37.0290   24.7150   36.5170 H   0  0  0  0  0  0  0  0  0  0  0  0
  1  3  1  0  0  0  0
  1 17  1  0  0  0  0
  1  2  1  0  0  0  0
  4  1  1  0  0  0  0
  5  9  1  0  0  0  0
  5  4  1  0  0  0  0
  6  7  1  0  0  0  0
  6  5  2  0  0  0  0
  7  8  2  0  0  0  0
  8 11  1  0  0  0  0
  8  4  1  0  0  0  0
 10  6  1  0  0  0  0
 11 16  1  0  0  0  0
 12 13  1  0  0  0  0
 12 11  1  0  0  0  0
 13 14  1  0  0  0  0
 14 15  1  0  0  0  0
 16 15  1  0  0  0  0
 17 18  1  6  0  0  0
 17 28  1  0  0  0  0
 19 25  1  0  0  0  0
 19 20  1  0  0  0  0
 20 26  1  0  0  0  0
 21 17  1  0  0  0  0
 21 20  2  0  0  0  0
 22 21  1  0  0  0  0
 23 22  2  0  0  0  0
 23 24  1  0  0  0  0
 24 19  2  0  0  0  0
 27 23  1  0  0  0  0
 28 31  1  0  0  0  0
 28 29  1  0  0  0  0
 28 30  1  0  0  0  0
M  END
>  <minimizedAffinity>
-4.45798254

>  <minimizedRMSD>
3.20986962

$$$$
