
 OpenBabel03262519173D

 34 37  0  0  0  0  0  0  0  0999 V2000
   37.1210   26.3340   35.4690 C   0  0  0  0  0  0  0  0  0  0  0  0
   37.3570   27.0970   34.3240 C   0  0  0  0  0  0  0  0  0  0  0  0
   38.4990   26.8820   33.5550 C   0  0  0  0  0  0  0  0  0  0  0  0
   39.3270   25.8950   34.0090 N   0  0  0  0  0  0  0  0  0  0  0  0
   39.0850   25.1610   35.1260 C   0  0  0  0  0  0  0  0  0  0  0  0
   37.9790   25.4000   35.8330 N   0  0  0  0  0  0  0  0  0  0  0  0
   36.2100   26.5510   36.0280 H   0  0  0  0  0  0  0  0  0  0  0  0
   38.7920   27.3890   32.6680 H   0  0  0  0  0  0  0  0  0  0  0  0
   40.0790   24.1410   35.4800 C   0  0  0  0  0  0  0  0  0  0  0  0
   41.1770   24.0800   34.6930 C   0  0  0  0  0  0  0  0  0  0  0  0
   42.1730   22.6850   35.4590 S   0  0  0  0  0  0  0  0  0  0  0  0
   40.8020   22.4600   36.7740 C   0  0  0  0  0  0  0  0  0  0  0  0
   40.1060   23.2600   36.4330 N   0  0  0  0  0  0  0  0  0  0  0  0
   40.8640   21.4930   37.8020 N   0  0  0  0  0  0  0  0  0  0  0  0
   41.6530   24.5620   33.7910 H   0  0  0  0  0  0  0  0  0  0  0  0
   41.3420   21.7540   38.7070 H   0  0  0  0  0  0  0  0  0  0  0  0
   40.4760   20.5340   37.7490 H   0  0  0  0  0  0  0  0  0  0  0  0
   36.4820   28.1560   33.8370 C   0  0  0  0  0  0  0  0  0  0  0  0
   36.1910   29.3200   34.5400 C   0  0  0  0  0  0  0  0  0  0  0  0
   35.3600   30.2030   33.9390 C   0  0  0  0  0  0  0  0  0  0  0  0
   34.8570   29.8850   32.6690 C   0  0  0  0  0  0  0  0  0  0  0  0
   35.6150   28.2340   32.3120 S   0  0  0  0  0  0  0  0  0  0  0  0
   36.6270   29.4840   35.5250 H   0  0  0  0  0  0  0  0  0  0  0  0
   34.9580   31.5010   34.5970 C   0  0  0  0  0  0  0  0  0  0  0  0
   35.4270   31.5470   36.0210 C   0  0  0  0  0  0  0  0  0  0  0  0
   35.1860   32.9170   36.5820 C   0  0  0  0  0  0  0  0  0  0  0  0
   36.1690   33.8890   35.9690 C   0  0  0  0  0  0  0  0  0  0  0  0
   36.7010   33.3060   34.6650 C   0  0  0  0  0  0  0  0  0  0  0  0
   35.6050   32.6780   33.8650 C   0  0  0  0  0  0  0  0  0  0  0  0
   33.9970   30.5230   31.7570 C   0  0  0  0  0  0  0  0  0  0  0  0
   34.4490   31.1960   30.8410 O   0  0  0  0  0  0  0  0  0  0  0  0
   32.5740   30.4140   31.8620 N   0  0  0  0  0  0  0  0  0  0  0  0
   31.6270   30.1290   32.1120 H   0  0  0  0  0  0  0  0  0  0  0  0
   31.9070   31.0390   31.3340 H   0  0  0  0  0  0  0  0  0  0  0  0
  1  6  1  0  0  0  0
  1  7  1  0  0  0  0
  2  1  2  0  0  0  0
  3  4  2  0  0  0  0
  3  2  1  0  0  0  0
  4  5  1  0  0  0  0
  5  9  1  0  0  0  0
  5  6  2  0  0  0  0
  8  3  1  0  0  0  0
  9 13  1  0  0  0  0
 10 11  1  0  0  0  0
 10  9  2  0  0  0  0
 11 12  1  0  0  0  0
 12 14  1  0  0  0  0
 13 12  2  0  0  0  0
 14 16  1  0  0  0  0
 15 10  1  0  0  0  0
 17 14  1  0  0  0  0
 18  2  1  0  0  0  0
 18 19  2  0  0  0  0
 19 23  1  0  0  0  0
 20 19  1  0  0  0  0
 20 24  1  0  0  0  0
 21 20  2  0  0  0  0
 22 21  1  0  0  0  0
 22 18  1  0  0  0  0
 24 25  1  0  0  0  0
 25 26  1  0  0  0  0
 27 26  1  0  0  0  0
 28 27  1  0  0  0  0
 29 24  1  0  0  0  0
 29 28  1  0  0  0  0
 30 32  1  0  0  0  0
 30 21  1  0  0  0  0
 31 30  2  0  0  0  0
 32 33  1  0  0  0  0
 34 32  1  0  0  0  0
M  END
>  <minimizedAffinity>
-5.88231897

>  <minimizedRMSD>
3.54431129

$$$$
