
 OpenBabel03262519583D

 29 32  0  0  1  0  0  0  0  0999 V2000
   38.7540   25.7950   33.5830 C   0  0  0  0  0  0  0  0  0  0  0  0
   39.7410   26.7490   33.3570 C   0  0  0  0  0  0  0  0  0  0  0  0
   39.4090   27.2740   32.1330 N   0  0  0  0  0  0  0  0  0  0  0  0
   38.3230   26.6640   31.7070 C   0  0  0  0  0  0  0  0  0  0  0  0
   37.8880   25.7400   32.5810 N   0  0  0  0  0  0  0  0  0  0  0  0
   40.5690   27.0110   33.9940 H   0  0  0  0  0  0  0  0  0  0  0  0
   37.8300   26.8820   30.7520 H   0  0  0  0  0  0  0  0  0  0  0  0
   38.6720   24.9510   34.7760 C   0  0  0  0  0  0  0  0  0  0  0  0
   39.4910   23.8130   34.8980 C   0  0  0  0  0  0  0  0  0  0  0  0
   39.3580   23.0430   36.0800 C   0  0  0  0  0  0  0  0  0  0  0  0
   38.4630   23.4480   37.0060 N   0  0  0  0  0  0  0  0  0  0  0  0
   37.6960   24.5470   36.8500 C   0  0  0  0  0  0  0  0  0  0  0  0
   37.7850   25.3150   35.7380 N   0  0  0  0  0  0  0  0  0  0  0  0
   40.1880   23.5450   34.1170 H   0  0  0  0  0  0  0  0  0  0  0  0
   39.9630   22.1690   36.2110 H   0  0  0  0  0  0  0  0  0  0  0  0
   36.9760   24.8790   37.5840 H   0  0  0  0  0  0  0  0  0  0  0  0
   36.7220   24.9130   32.3860 C   0  0  1  0  0  0  0  0  0  0  0  0
   36.2610   24.5080   31.0710 C   0  0  0  0  0  0  0  0  0  0  0  0
   37.0460   23.5220   31.8900 C   0  0  2  0  0  0  0  0  0  0  0  0
   36.0140   24.9150   33.2350 H   0  0  0  0  0  0  0  0  0  0  0  0
   36.7900   24.9380   30.2040 H   0  0  0  0  0  0  0  0  0  0  0  0
   35.1640   24.3750   30.9590 H   0  0  0  0  0  0  0  0  0  0  0  0
   38.0910   23.2850   31.5970 H   0  0  0  0  0  0  0  0  0  0  0  0
   36.2760   22.3550   32.3960 C   0  0  0  0  0  3  0  0  0  0  0  0
   36.9520   21.6200   33.5280 C   0  0  0  0  0  2  0  0  0  0  0  0
   35.9280   20.6630   34.1020 C   0  0  0  0  0  2  0  0  0  0  0  0
   35.2880   19.7690   33.0990 C   0  0  0  0  0  2  0  0  0  0  0  0
   34.8710   20.4650   31.8380 C   0  0  0  0  0  2  0  0  0  0  0  0
   36.0230   21.3090   31.3290 C   0  0  0  0  0  2  0  0  0  0  0  0
  1  8  1  0  0  0  0
  2  1  2  0  0  0  0
  2  6  1  0  0  0  0
  3  2  1  0  0  0  0
  4  3  2  0  0  0  0
  4  5  1  0  0  0  0
  5  1  1  0  0  0  0
  7  4  1  0  0  0  0
  8  9  2  0  0  0  0
  8 13  1  0  0  0  0
  9 10  1  0  0  0  0
 10 15  1  0  0  0  0
 10 11  2  0  0  0  0
 12 11  1  0  0  0  0
 12 16  1  0  0  0  0
 13 12  2  0  0  0  0
 14  9  1  0  0  0  0
 17  5  1  0  0  0  0
 17 20  1  1  0  0  0
 18 19  1  0  0  0  0
 18 17  1  0  0  0  0
 19 23  1  6  0  0  0
 19 17  1  0  0  0  0
 19 24  1  0  0  0  0
 21 18  1  0  0  0  0
 22 18  1  0  0  0  0
 24 25  1  0  0  0  0
 25 26  1  0  0  0  0
 27 26  1  0  0  0  0
 28 27  1  0  0  0  0
 29 28  1  0  0  0  0
 29 24  1  0  0  0  0
M  END
>  <minimizedAffinity>
-4.96984386

>  <minimizedRMSD>
3.3568213

$$$$
