
 OpenBabel03262519583D

 29 32  0  0  1  0  0  0  0  0999 V2000
   40.1250   26.8950   32.5660 C   0  0  0  0  0  0  0  0  0  0  0  0
   39.9830   27.2200   31.2200 C   0  0  0  0  0  0  0  0  0  0  0  0
   38.6720   27.6170   31.1210 N   0  0  0  0  0  0  0  0  0  0  0  0
   38.1240   27.5220   32.3140 C   0  0  0  0  0  0  0  0  0  0  0  0
   38.9960   27.0770   33.2360 N   0  0  0  0  0  0  0  0  0  0  0  0
   40.7260   27.1710   30.4440 H   0  0  0  0  0  0  0  0  0  0  0  0
   37.0800   27.7750   32.5320 H   0  0  0  0  0  0  0  0  0  0  0  0
   41.3630   26.4100   33.1760 C   0  0  0  0  0  0  0  0  0  0  0  0
   41.5380   25.0380   33.4340 C   0  0  0  0  0  0  0  0  0  0  0  0
   42.7620   24.6390   34.0270 C   0  0  0  0  0  0  0  0  0  0  0  0
   43.6750   25.5950   34.3020 N   0  0  0  0  0  0  0  0  0  0  0  0
   43.4680   26.9010   34.0380 C   0  0  0  0  0  0  0  0  0  0  0  0
   42.3150   27.3320   33.4730 N   0  0  0  0  0  0  0  0  0  0  0  0
   40.7640   24.3240   33.1890 H   0  0  0  0  0  0  0  0  0  0  0  0
   42.9330   23.6050   34.2400 H   0  0  0  0  0  0  0  0  0  0  0  0
   44.1920   27.6750   34.2550 H   0  0  0  0  0  0  0  0  0  0  0  0
   38.6820   26.8710   34.6280 C   0  0  1  0  0  0  0  0  0  0  0  0
   37.3230   26.6930   35.1060 C   0  0  0  0  0  0  0  0  0  0  0  0
   38.1890   25.4760   34.9360 C   0  0  2  0  0  0  0  0  0  0  0  0
   39.4630   27.2180   35.3290 H   0  0  0  0  0  0  0  0  0  0  0  0
   36.5150   26.8120   34.3640 H   0  0  0  0  0  0  0  0  0  0  0  0
   37.1110   27.0750   36.1260 H   0  0  0  0  0  0  0  0  0  0  0  0
   37.9850   24.7800   34.0950 H   0  0  0  0  0  0  0  0  0  0  0  0
   38.6020   24.8040   36.1960 C   0  0  0  0  0  3  0  0  0  0  0  0
   39.3090   23.4880   35.9850 C   0  0  0  0  0  2  0  0  0  0  0  0
   39.9020   23.0890   37.3200 C   0  0  0  0  0  2  0  0  0  0  0  0
   38.9300   23.0780   38.4490 C   0  0  0  0  0  2  0  0  0  0  0  0
   38.0220   24.2710   38.4840 C   0  0  0  0  0  2  0  0  0  0  0  0
   37.4310   24.4920   37.1080 C   0  0  0  0  0  2  0  0  0  0  0  0
  1  8  1  0  0  0  0
  1  5  1  0  0  0  0
  2  1  2  0  0  0  0
  3  2  1  0  0  0  0
  3  4  2  0  0  0  0
  4  7  1  0  0  0  0
  4  5  1  0  0  0  0
  5 17  1  0  0  0  0
  6  2  1  0  0  0  0
  8  9  2  0  0  0  0
  8 13  1  0  0  0  0
  9 10  1  0  0  0  0
 10 15  1  0  0  0  0
 10 11  2  0  0  0  0
 12 16  1  0  0  0  0
 12 11  1  0  0  0  0
 13 12  2  0  0  0  0
 14  9  1  0  0  0  0
 17 19  1  0  0  0  0
 17 18  1  0  0  0  0
 17 20  1  1  0  0  0
 18 22  1  0  0  0  0
 19 23  1  6  0  0  0
 19 18  1  0  0  0  0
 19 24  1  0  0  0  0
 21 18  1  0  0  0  0
 24 29  1  0  0  0  0
 25 24  1  0  0  0  0
 25 26  1  0  0  0  0
 26 27  1  0  0  0  0
 27 28  1  0  0  0  0
 29 28  1  0  0  0  0
M  END
>  <minimizedAffinity>
-4.49770355

>  <minimizedRMSD>
6.41006804

$$$$
