
 OpenBabel03262512283D

 44 48  0  0  1  0  0  0  0  0999 V2000
   37.3880   21.5040   32.1530 C   0  0  2  0  0  0  0  0  0  0  0  0
   36.3370   20.4070   31.9520 C   0  0  0  0  0  0  0  0  0  0  0  0
   35.0670   21.2490   32.0990 C   0  0  0  0  0  0  0  0  0  0  0  0
   35.5020   22.7050   31.9100 C   0  0  0  0  0  0  0  0  0  0  0  0
   36.8450   22.4950   31.2120 C   0  0  1  0  0  0  0  0  0  0  0  0
   37.2290   21.8260   33.1850 H   0  0  0  0  0  0  0  0  0  0  0  0
   36.4100   19.6250   32.7310 H   0  0  0  0  0  0  0  0  0  0  0  0
   36.4050   19.9950   30.9240 H   0  0  0  0  0  0  0  0  0  0  0  0
   34.6690   21.1160   33.1410 H   0  0  0  0  0  0  0  0  0  0  0  0
   34.3230   20.9830   31.3450 H   0  0  0  0  0  0  0  0  0  0  0  0
   35.5850   23.2050   32.8730 H   0  0  0  0  0  0  0  0  0  0  0  0
   34.7970   23.2110   31.2140 H   0  0  0  0  0  0  0  0  0  0  0  0
   36.5590   21.9140   30.2830 H   0  0  0  0  0  0  0  0  0  0  0  0
   37.5340   23.6860   30.8720 C   0  0  0  0  0  0  0  0  0  0  0  0
   38.4060   23.8280   29.7700 C   0  0  0  0  0  0  0  0  0  0  0  0
   38.8720   25.0730   29.7540 N   0  0  0  0  0  0  0  0  0  0  0  0
   38.3820   25.8030   30.7720 C   0  0  0  0  0  0  0  0  0  0  0  0
   38.5930   27.1070   31.1280 C   0  0  0  0  0  0  0  0  0  0  0  0
   37.9470   27.6140   32.2450 C   0  0  0  0  0  0  0  0  0  0  0  0
   37.1130   26.7640   32.9490 C   0  0  0  0  0  0  0  0  0  0  0  0
   36.9180   25.4450   32.5650 C   0  0  0  0  0  0  0  0  0  0  0  0
   37.5500   24.9420   31.4680 C   0  0  0  0  0  0  0  0  0  0  0  0
   38.6400   23.0520   29.0730 H   0  0  0  0  0  0  0  0  0  0  0  0
   39.5390   25.4220   29.0280 H   0  0  0  0  0  0  0  0  0  0  0  0
   39.2370   27.7810   30.5930 H   0  0  0  0  0  0  0  0  0  0  0  0
   38.0440   28.6260   32.6100 H   0  0  0  0  0  0  0  0  0  0  0  0
   36.5710   27.0820   33.8340 H   0  0  0  0  0  0  0  0  0  0  0  0
   36.2730   24.7950   33.1140 H   0  0  0  0  0  0  0  0  0  0  0  0
   38.7370   21.0340   31.8960 C   0  0  0  0  0  0  0  0  0  0  0  0
   38.9450   20.3370   30.8520 O   0  0  0  0  0  0  0  0  0  0  0  0
   41.9280   20.9800   33.7080 C   0  0  0  0  0  0  0  0  0  0  0  0
   40.9060   20.6560   32.7820 C   0  0  0  0  0  0  0  0  0  0  0  0
   39.7510   21.4010   32.8630 C   0  0  0  0  0  0  0  0  0  0  0  0
   39.6510   22.3700   33.7880 N   0  0  0  0  0  0  0  0  0  0  0  0
   40.6200   22.6720   34.6600 C   0  0  0  0  0  0  0  0  0  0  0  0
   41.7720   21.9530   34.6040 N   0  0  0  0  0  0  0  0  0  0  0  0
   42.8540   20.4170   33.6790 H   0  0  0  0  0  0  0  0  0  0  0  0
   41.1180   19.8620   32.1000 H   0  0  0  0  0  0  0  0  0  0  0  0
   40.4420   23.7640   35.6650 C   0  0  0  0  0  0  0  0  0  0  0  0
   40.2990   23.2180   37.0520 C   0  0  0  0  0  0  0  0  0  0  0  0
   38.8860   22.8080   37.3910 C   0  0  0  0  0  0  0  0  0  0  0  0
   38.0470   24.0650   37.3080 C   0  0  0  0  0  0  0  0  0  0  0  0
   38.0330   24.5110   35.8750 C   0  0  0  0  0  0  0  0  0  0  0  0
   39.3690   24.7280   35.2690 C   0  0  0  0  0  0  0  0  0  0  0  0
  1  6  1  1  0  0  0
  2  3  1  0  0  0  0
  2  1  1  0  0  0  0
  2  7  1  0  0  0  0
  3  9  1  0  0  0  0
  4  3  1  0  0  0  0
  4 11  1  0  0  0  0
  5 13  1  6  0  0  0
  5  4  1  0  0  0  0
  5  1  1  0  0  0  0
  8  2  1  0  0  0  0
 10  3  1  0  0  0  0
 12  4  1  0  0  0  0
 14  5  1  0  0  0  0
 14 22  1  0  0  0  0
 15 14  2  0  0  0  0
 16 15  1  0  0  0  0
 16 17  1  0  0  0  0
 17 18  2  0  0  0  0
 17 22  1  0  0  0  0
 18 19  1  0  0  0  0
 19 26  1  0  0  0  0
 19 20  2  0  0  0  0
 20 27  1  0  0  0  0
 21 20  1  0  0  0  0
 21 28  1  0  0  0  0
 22 21  2  0  0  0  0
 23 15  1  0  0  0  0
 24 16  1  0  0  0  0
 25 18  1  0  0  0  0
 29  1  1  0  0  0  0
 29 33  1  0  0  0  0
 30 29  2  0  0  0  0
 31 36  1  0  0  0  0
 32 33  1  0  0  0  0
 32 31  2  0  0  0  0
 33 34  2  0  0  0  0
 34 35  1  0  0  0  0
 35 39  1  0  0  0  0
 36 35  2  0  0  0  0
 37 31  1  0  0  0  0
 38 32  1  0  0  0  0
 39 40  1  0  0  0  0
 40 41  1  0  0  0  0
 42 41  1  0  0  0  0
 43 42  1  0  0  0  0
 44 39  1  0  0  0  0
 44 43  1  0  0  0  0
M  END
>  <minimizedAffinity>
-5.52615309

>  <minimizedRMSD>
3.08821607

$$$$
