
 OpenBabel03262519573D

 29 32  0  0  1  0  0  0  0  0999 V2000
   38.1560   24.2200   34.7780 C   0  0  0  0  0  0  0  0  0  0  0  0
   38.1920   25.5140   34.2680 C   0  0  0  0  0  0  0  0  0  0  0  0
   37.8230   25.3520   32.9550 N   0  0  0  0  0  0  0  0  0  0  0  0
   37.5990   24.0720   32.7470 C   0  0  0  0  0  0  0  0  0  0  0  0
   37.7960   23.3390   33.8570 N   0  0  0  0  0  0  0  0  0  0  0  0
   38.4480   26.4240   34.7820 H   0  0  0  0  0  0  0  0  0  0  0  0
   37.2880   23.6510   31.7830 H   0  0  0  0  0  0  0  0  0  0  0  0
   38.4750   23.8650   36.1620 C   0  0  0  0  0  0  0  0  0  0  0  0
   39.6750   23.1940   36.4640 C   0  0  0  0  0  0  0  0  0  0  0  0
   39.9190   22.8820   37.8240 C   0  0  0  0  0  0  0  0  0  0  0  0
   38.9920   23.2470   38.7360 N   0  0  0  0  0  0  0  0  0  0  0  0
   37.8540   23.8900   38.4050 C   0  0  0  0  0  0  0  0  0  0  0  0
   37.5750   24.2100   37.1190 N   0  0  0  0  0  0  0  0  0  0  0  0
   40.3750   22.9310   35.6840 H   0  0  0  0  0  0  0  0  0  0  0  0
   40.8190   22.3720   38.0950 H   0  0  0  0  0  0  0  0  0  0  0  0
   37.1050   24.1860   39.1260 H   0  0  0  0  0  0  0  0  0  0  0  0
   37.6280   21.9090   33.9330 C   0  0  1  0  0  0  0  0  0  0  0  0
   36.5010   21.2880   34.6060 C   0  0  0  0  0  0  0  0  0  0  0  0
   36.4730   21.3920   33.1060 C   0  0  2  0  0  0  0  0  0  0  0  0
   38.5590   21.3310   33.7850 H   0  0  0  0  0  0  0  0  0  0  0  0
   35.8130   21.9590   35.1450 H   0  0  0  0  0  0  0  0  0  0  0  0
   36.7000   20.3050   35.0820 H   0  0  0  0  0  0  0  0  0  0  0  0
   35.7860   22.1200   32.6270 H   0  0  0  0  0  0  0  0  0  0  0  0
   36.6020   20.1040   32.3740 C   0  0  0  0  0  3  0  0  0  0  0  0
   36.4930   20.2400   30.8750 C   0  0  0  0  0  2  0  0  0  0  0  0
   36.9250   18.9150   30.2820 C   0  0  0  0  0  2  0  0  0  0  0  0
   36.2140   17.7290   30.8350 C   0  0  0  0  0  2  0  0  0  0  0  0
   36.0730   17.7430   32.3280 C   0  0  0  0  0  2  0  0  0  0  0  0
   35.5430   19.0930   32.7670 C   0  0  0  0  0  2  0  0  0  0  0  0
  1  8  1  0  0  0  0
  2  1  2  0  0  0  0
  2  6  1  0  0  0  0
  3  2  1  0  0  0  0
  4  3  2  0  0  0  0
  4  5  1  0  0  0  0
  5 17  1  0  0  0  0
  5  1  1  0  0  0  0
  7  4  1  0  0  0  0
  8  9  2  0  0  0  0
  8 13  1  0  0  0  0
  9 10  1  0  0  0  0
 10 15  1  0  0  0  0
 10 11  2  0  0  0  0
 12 11  1  0  0  0  0
 12 16  1  0  0  0  0
 13 12  2  0  0  0  0
 14  9  1  0  0  0  0
 17 20  1  6  0  0  0
 17 18  1  0  0  0  0
 18 22  1  0  0  0  0
 18 21  1  0  0  0  0
 19 23  1  6  0  0  0
 19 17  1  0  0  0  0
 19 18  1  0  0  0  0
 24 29  1  0  0  0  0
 24 19  1  0  0  0  0
 25 24  1  0  0  0  0
 26 27  1  0  0  0  0
 26 25  1  0  0  0  0
 27 28  1  0  0  0  0
 28 29  1  0  0  0  0
M  END
>  <minimizedAffinity>
-5.01641321

>  <minimizedRMSD>
1.37650621

$$$$
