
 OpenBabel03262519533D

 31 33  0  0  1  0  0  0  0  0999 V2000
   38.4730   23.3380   34.7200 C   0  0  0  0  0  0  0  0  0  0  0  0
   38.2420   22.3640   35.1990 H   0  0  0  0  0  0  0  0  0  0  0  0
   37.5770   23.9760   34.9770 H   0  0  0  0  0  0  0  0  0  0  0  0
   39.6580   24.0510   35.3890 C   0  0  2  0  0  0  0  0  0  0  0  0
   39.5770   25.5270   35.3830 C   0  0  0  0  0  0  0  0  0  0  0  0
   40.6810   24.7550   34.6700 C   0  0  1  0  0  0  0  0  0  0  0  0
   39.8250   23.6290   36.3880 H   0  0  0  0  0  0  0  0  0  0  0  0
   39.9540   26.1200   36.2630 H   0  0  0  0  0  0  0  0  0  0  0  0
   38.7320   25.9740   34.9310 H   0  0  0  0  0  0  0  0  0  0  0  0
   40.8770   25.2800   33.8120 H   0  0  0  0  0  0  0  0  0  0  0  0
   42.0310   24.6520   35.4230 C   0  0  0  0  0  0  0  0  0  0  0  0
   43.1230   25.3980   34.7370 C   0  0  0  0  0  0  0  0  0  0  0  0
   44.3000   25.5020   35.6540 C   0  0  0  0  0  0  0  0  0  0  0  0
   44.1960   24.6790   36.9070 C   0  0  0  0  0  0  0  0  0  0  0  0
   43.7140   23.3170   36.5240 C   0  0  0  0  0  0  0  0  0  0  0  0
   42.4020   23.2780   35.8320 C   0  0  0  0  0  0  0  0  0  0  0  0
   38.6810   23.3660   33.2850 C   0  0  0  0  0  0  0  0  0  0  0  0
   39.2770   22.3920   33.1010 H   0  0  0  0  0  0  0  0  0  0  0  0
   39.4220   24.0690   33.0230 H   0  0  0  0  0  0  0  0  0  0  0  0
   35.6940   23.8060   31.3690 C   0  0  0  0  0  0  0  0  0  0  0  0
   36.8170   24.1900   32.1440 C   0  0  0  0  0  0  0  0  0  0  0  0
   37.5110   23.1180   32.5330 C   0  0  0  0  0  0  0  0  0  0  0  0
   37.1440   21.8180   32.1970 N   0  0  0  0  0  0  0  0  0  0  0  0
   36.0800   21.5330   31.4670 C   0  0  0  0  0  0  0  0  0  0  0  0
   35.3490   22.5380   31.0500 N   0  0  0  0  0  0  0  0  0  0  0  0
   34.9820   24.5410   30.9470 H   0  0  0  0  0  0  0  0  0  0  0  0
   35.9100   20.4880   31.2800 H   0  0  0  0  0  0  0  0  0  0  0  0
   36.9650   25.5860   32.3250 C   0  0  0  0  0  0  0  0  0  0  0  0
   36.7980   25.9740   33.6780 F   0  0  0  0  0  0  0  0  0  0  0  0
   36.0200   26.4630   31.9470 F   0  0  0  0  0  0  0  0  0  0  0  0
   38.2540   26.1260   32.3020 F   0  0  0  0  0  0  0  0  0  0  0  0
  1  3  1  0  0  0  0
  1  2  1  0  0  0  0
  1  4  1  0  0  0  0
  4  7  1  1  0  0  0
  5  4  1  0  0  0  0
  5  8  1  0  0  0  0
  6 10  1  6  0  0  0
  6  5  1  0  0  0  0
  6  4  1  0  0  0  0
  6 11  1  0  0  0  0
  9  5  1  0  0  0  0
 11 16  1  0  0  0  0
 12 11  1  0  0  0  0
 12 13  1  0  0  0  0
 13 14  1  0  0  0  0
 15 14  1  0  0  0  0
 16 15  1  0  0  0  0
 17  1  1  0  0  0  0
 18 17  1  0  0  0  0
 19 17  1  0  0  0  0
 20 21  1  0  0  0  0
 21 28  1  0  0  0  0
 21 22  2  0  0  0  0
 22 17  1  0  0  0  0
 23 22  1  0  0  0  0
 24 23  2  0  0  0  0
 25 20  2  0  0  0  0
 25 24  1  0  0  0  0
 26 20  1  0  0  0  0
 27 24  1  0  0  0  0
 28 29  1  0  0  0  0
 30 28  1  0  0  0  0
 31 28  1  0  0  0  0
M  END
>  <minimizedAffinity>
-4.23051119

>  <minimizedRMSD>
7.39948988

$$$$
