
 OpenBabel03262519583D

 28 31  0  0  1  0  0  0  0  0999 V2000
   38.0450   24.8390   34.5860 C   0  0  0  0  0  0  0  0  0  0  0  0
   37.7960   26.1950   34.4860 C   0  0  0  0  0  0  0  0  0  0  0  0
   37.3190   26.3450   33.2100 N   0  0  0  0  0  0  0  0  0  0  0  0
   37.3060   25.1490   32.6420 C   0  0  0  0  0  0  0  0  0  0  0  0
   37.7530   24.1790   33.4720 N   0  0  0  0  0  0  0  0  0  0  0  0
   37.9600   26.9320   35.2770 H   0  0  0  0  0  0  0  0  0  0  0  0
   36.9560   25.0580   31.6150 H   0  0  0  0  0  0  0  0  0  0  0  0
   38.5710   24.1780   35.7770 C   0  0  0  0  0  0  0  0  0  0  0  0
   39.8760   23.7090   35.8250 C   0  0  0  0  0  0  0  0  0  0  0  0
   40.3320   23.0780   36.9990 C   0  0  0  0  0  0  0  0  0  0  0  0
   39.4700   22.9620   38.0200 N   0  0  0  0  0  0  0  0  0  0  0  0
   38.1870   23.4270   37.9640 C   0  0  0  0  0  0  0  0  0  0  0  0
   37.7420   24.0300   36.8490 N   0  0  0  0  0  0  0  0  0  0  0  0
   40.5390   23.8250   34.9740 H   0  0  0  0  0  0  0  0  0  0  0  0
   41.3450   22.7100   37.0460 H   0  0  0  0  0  0  0  0  0  0  0  0
   37.5540   23.2900   38.8420 H   0  0  0  0  0  0  0  0  0  0  0  0
   37.8420   22.7980   33.1090 C   0  0  1  0  0  0  0  0  0  0  0  0
   37.5320   21.7120   34.0470 C   0  0  0  0  0  0  0  0  0  0  0  0
   36.4820   22.1030   33.0460 C   0  0  2  0  0  0  0  0  0  0  0  0
   38.4650   22.6110   32.2260 H   0  0  0  0  0  0  0  0  0  0  0  0
   38.1420   20.8160   33.9630 H   0  0  0  0  0  0  0  0  0  0  0  0
   37.2620   21.9520   35.0950 H   0  0  0  0  0  0  0  0  0  0  0  0
   35.5850   22.6640   33.4020 H   0  0  0  0  0  0  0  0  0  0  0  0
   36.1950   21.1110   31.9900 C   0  0  0  0  0  3  0  0  0  0  0  0
   34.7460   20.6270   32.1650 C   0  0  0  0  0  2  0  0  0  0  0  0
   34.7610   19.1420   31.9680 C   0  0  0  0  0  2  0  0  0  0  0  0
   36.0580   18.8680   31.2760 C   0  0  0  0  0  2  0  0  0  0  0  0
   36.9900   19.8280   32.0430 C   0  0  0  0  0  2  0  0  0  0  0  0
  1  8  1  0  0  0  0
  2  1  2  0  0  0  0
  2  6  1  0  0  0  0
  3  2  1  0  0  0  0
  4  3  2  0  0  0  0
  4  5  1  0  0  0  0
  5  1  1  0  0  0  0
  7  4  1  0  0  0  0
  8  9  2  0  0  0  0
  8 13  1  0  0  0  0
  9 10  1  0  0  0  0
 10 15  1  0  0  0  0
 10 11  2  0  0  0  0
 12 11  1  0  0  0  0
 12 16  1  0  0  0  0
 13 12  2  0  0  0  0
 14  9  1  0  0  0  0
 17 20  1  6  0  0  0
 17  5  1  0  0  0  0
 17 18  1  0  0  0  0
 18 22  1  0  0  0  0
 19 17  1  0  0  0  0
 19 23  1  1  0  0  0
 19 18  1  0  0  0  0
 21 18  1  0  0  0  0
 24 28  1  0  0  0  0
 24 25  1  0  0  0  0
 24 19  1  0  0  0  0
 26 25  1  0  0  0  0
 27 26  1  0  0  0  0
 27 28  1  0  0  0  0
M  END
>  <minimizedAffinity>
-4.73327875

>  <minimizedRMSD>
1.91812408

$$$$
