
 OpenBabel03262511483D

 31 34  0  0  0  0  0  0  0  0999 V2000
   40.0960   23.7280   34.7720 C   0  0  0  0  0  0  0  0  0  0  0  0
   38.8010   23.5300   34.5090 N   0  0  0  0  0  0  0  0  0  0  0  0
   38.0320   24.4270   33.8800 C   0  0  0  0  0  0  0  0  0  0  0  0
   38.5230   25.6250   33.4590 N   0  0  0  0  0  0  0  0  0  0  0  0
   39.8340   25.9000   33.6920 C   0  0  0  0  0  0  0  0  0  0  0  0
   40.3690   27.1060   33.3240 C   0  0  0  0  0  0  0  0  0  0  0  0
   41.6720   27.4070   33.5810 C   0  0  0  0  0  0  0  0  0  0  0  0
   42.4160   26.4410   34.2220 C   0  0  0  0  0  0  0  0  0  0  0  0
   41.8800   25.2380   34.5850 C   0  0  0  0  0  0  0  0  0  0  0  0
   40.5840   24.9330   34.3440 C   0  0  0  0  0  0  0  0  0  0  0  0
   37.0050   24.1300   33.7330 H   0  0  0  0  0  0  0  0  0  0  0  0
   39.6640   27.7650   32.8230 H   0  0  0  0  0  0  0  0  0  0  0  0
   41.9380   28.3970   33.2320 H   0  0  0  0  0  0  0  0  0  0  0  0
   43.4020   26.8960   34.3320 H   0  0  0  0  0  0  0  0  0  0  0  0
   41.1550   21.7350   37.6810 C   0  0  0  0  0  0  0  0  0  0  0  0
   40.5180   22.6710   36.9040 C   0  0  0  0  0  0  0  0  0  0  0  0
   40.8370   22.7530   35.5030 C   0  0  0  0  0  0  0  0  0  0  0  0
   41.7510   21.8410   35.1660 N   0  0  0  0  0  0  0  0  0  0  0  0
   42.3690   20.9480   35.8730 C   0  0  0  0  0  0  0  0  0  0  0  0
   42.0730   20.8800   37.1740 N   0  0  0  0  0  0  0  0  0  0  0  0
   40.9240   21.6610   38.7550 H   0  0  0  0  0  0  0  0  0  0  0  0
   39.7890   23.3350   37.3470 H   0  0  0  0  0  0  0  0  0  0  0  0
   43.3510   20.1740   35.0920 C   0  0  0  0  0  0  0  0  0  0  0  0
   42.9400   18.8970   34.8560 F   0  0  0  0  0  0  0  0  0  0  0  0
   44.5950   20.1610   35.7460 F   0  0  0  0  0  0  0  0  0  0  0  0
   43.6120   20.8200   33.8690 F   0  0  0  0  0  0  0  0  0  0  0  0
   42.9250   24.3270   35.1300 C   0  0  0  0  0  0  0  0  0  0  0  0
   44.1730   24.3410   34.2810 C   0  0  0  0  0  0  0  0  0  0  0  0
   45.1580   23.5890   35.1060 C   0  0  0  0  0  0  0  0  0  0  0  0
   44.7290   23.9040   36.5400 C   0  0  0  0  0  0  0  0  0  0  0  0
   43.7200   25.0490   36.2810 C   0  0  0  0  0  0  0  0  0  0  0  0
  1 17  1  0  0  0  0
  2  1  1  0  0  0  0
  3  2  2  0  0  0  0
  4  5  2  0  0  0  0
  4  3  1  0  0  0  0
  5 10  1  0  0  0  0
  6  7  2  0  0  0  0
  6  5  1  0  0  0  0
  7  8  1  0  0  0  0
  8 14  1  0  0  0  0
  8  9  2  0  0  0  0
  9 27  1  0  0  0  0
 10  9  1  0  0  0  0
 10  1  2  0  0  0  0
 11  3  1  0  0  0  0
 12  6  1  0  0  0  0
 13  7  1  0  0  0  0
 15 21  1  0  0  0  0
 16 22  1  0  0  0  0
 16 15  2  0  0  0  0
 17 16  1  0  0  0  0
 18 17  2  0  0  0  0
 18 19  1  0  0  0  0
 19 20  2  0  0  0  0
 20 15  1  0  0  0  0
 23 25  1  0  0  0  0
 23 19  1  0  0  0  0
 24 23  1  0  0  0  0
 26 23  1  0  0  0  0
 27 31  1  0  0  0  0
 28 29  1  0  0  0  0
 28 27  1  0  0  0  0
 29 30  1  0  0  0  0
 31 30  1  0  0  0  0
M  END
>  <minimizedAffinity>
-4.51719809

>  <minimizedRMSD>
1.55398166

$$$$
