
 OpenBabel03262516433D

 37 40  0  0  1  0  0  0  0  0999 V2000
   39.7150   22.9330   37.9710 C   0  0  0  0  0  0  0  0  0  0  0  0
   38.4530   23.3130   38.4220 C   0  0  0  0  0  0  0  0  0  0  0  0
   37.6650   24.0830   37.5590 C   0  0  0  0  0  0  0  0  0  0  0  0
   38.1850   24.4050   36.3480 N   0  0  0  0  0  0  0  0  0  0  0  0
   39.4220   24.0180   35.9370 C   0  0  0  0  0  0  0  0  0  0  0  0
   40.1730   23.2800   36.7680 N   0  0  0  0  0  0  0  0  0  0  0  0
   39.8280   24.4290   34.6500 N   0  0  0  0  0  0  0  0  0  0  0  0
   38.9040   24.2930   33.5520 C   0  0  0  0  0  0  0  0  0  0  0  0
   39.3590   24.9670   32.2970 C   0  0  0  0  0  0  0  0  0  0  0  0
   40.2250   26.0530   32.6210 N   0  0  0  0  0  0  0  0  0  0  0  0
   41.4670   25.4400   33.1180 C   0  0  0  0  0  0  0  0  0  0  0  0
   41.1890   24.9670   34.5430 C   0  0  2  0  0  0  0  0  0  0  0  0
   40.3650   22.3340   38.6060 H   0  0  0  0  0  0  0  0  0  0  0  0
   38.1120   23.0200   39.3900 H   0  0  0  0  0  0  0  0  0  0  0  0
   36.6780   24.4080   37.8530 H   0  0  0  0  0  0  0  0  0  0  0  0
   38.8970   23.1900   33.3180 H   0  0  0  0  0  0  0  0  0  0  0  0
   37.8760   24.5290   33.8630 H   0  0  0  0  0  0  0  0  0  0  0  0
   38.4650   25.3840   31.7910 H   0  0  0  0  0  0  0  0  0  0  0  0
   39.8410   24.2730   31.5700 H   0  0  0  0  0  0  0  0  0  0  0  0
   40.4660   26.6350   31.7950 H   0  0  0  0  0  0  0  0  0  0  0  0
   41.7420   24.5870   32.4660 H   0  0  0  0  0  0  0  0  0  0  0  0
   42.2660   26.1930   33.1460 H   0  0  0  0  0  0  0  0  0  0  0  0
   41.2380   25.8660   35.1620 H   0  0  0  0  0  0  0  0  0  0  0  0
   42.1880   23.9830   35.0230 C   0  0  0  0  0  0  0  0  0  0  0  0
   43.1180   24.3520   35.9680 C   0  0  0  0  0  0  0  0  0  0  0  0
   44.0940   23.5410   36.5000 C   0  0  0  0  0  0  0  0  0  0  0  0
   44.1160   22.2360   36.0190 C   0  0  0  0  0  0  0  0  0  0  0  0
   43.1750   21.8750   35.0680 C   0  0  0  0  0  0  0  0  0  0  0  0
   42.2490   22.7170   34.5910 N   0  0  0  0  0  0  0  0  0  0  0  0
   43.0960   25.3680   36.3390 H   0  0  0  0  0  0  0  0  0  0  0  0
   44.7870   23.9070   37.2400 H   0  0  0  0  0  0  0  0  0  0  0  0
   44.8560   21.5370   36.3900 H   0  0  0  0  0  0  0  0  0  0  0  0
   43.1460   20.4960   34.5140 C   0  0  0  0  0  0  0  0  0  0  0  0
   44.2750   20.2110   33.5710 C   0  0  0  0  0  0  0  0  0  0  0  0
   45.1080   19.1010   34.1700 C   0  0  0  0  0  0  0  0  0  0  0  0
   44.1990   18.4160   35.1760 C   0  0  0  0  0  0  0  0  0  0  0  0
   43.2810   19.5220   35.6640 C   0  0  0  0  0  0  0  0  0  0  0  0
  1  2  1  0  0  0  0
  1 13  1  0  0  0  0
  2 14  1  0  0  0  0
  3 15  1  0  0  0  0
  3  2  2  0  0  0  0
  4  3  1  0  0  0  0
  5  4  2  0  0  0  0
  5  6  1  0  0  0  0
  6  1  2  0  0  0  0
  7  5  1  0  0  0  0
  8 17  1  0  0  0  0
  8  7  1  0  0  0  0
  9 10  1  0  0  0  0
  9  8  1  0  0  0  0
 10 11  1  0  0  0  0
 11 22  1  0  0  0  0
 11 12  1  0  0  0  0
 12  7  1  0  0  0  0
 12 24  1  0  0  0  0
 12 23  1  1  0  0  0
 16  8  1  0  0  0  0
 18  9  1  0  0  0  0
 19  9  1  0  0  0  0
 20 10  1  0  0  0  0
 21 11  1  0  0  0  0
 24 25  1  0  0  0  0
 25 30  1  0  0  0  0
 25 26  2  0  0  0  0
 26 31  1  0  0  0  0
 27 32  1  0  0  0  0
 27 26  1  0  0  0  0
 28 27  2  0  0  0  0
 29 24  2  0  0  0  0
 29 28  1  0  0  0  0
 33 28  1  0  0  0  0
 33 37  1  0  0  0  0
 34 35  1  0  0  0  0
 34 33  1  0  0  0  0
 35 36  1  0  0  0  0
 36 37  1  0  0  0  0
M  END
>  <minimizedAffinity>
-4.4045229

>  <minimizedRMSD>
1.55754697

$$$$
