
 OpenBabel03262519263D

 41 46  0  0  0  0  0  0  0  0999 V2000
   38.7190   24.5260   32.2360 C   0  0  0  0  0  0  0  0  0  0  0  0
   39.1830   23.2170   32.3090 C   0  0  0  0  0  0  0  0  0  0  0  0
   38.3860   22.1140   31.9970 C   0  0  0  0  0  0  0  0  0  0  0  0
   37.0700   22.3200   31.5950 C   0  0  0  0  0  0  0  0  0  0  0  0
   36.5880   23.6110   31.5160 C   0  0  0  0  0  0  0  0  0  0  0  0
   35.3240   23.8450   31.0960 C   0  0  0  0  0  0  0  0  0  0  0  0
   34.7930   25.0800   30.9560 C   0  0  0  0  0  0  0  0  0  0  0  0
   35.6240   26.1560   31.2770 C   0  0  0  0  0  0  0  0  0  0  0  0
   36.9290   25.9310   31.7160 C   0  0  0  0  0  0  0  0  0  0  0  0
   37.4200   24.6600   31.8370 C   0  0  0  0  0  0  0  0  0  0  0  0
   40.2120   23.0520   32.6230 H   0  0  0  0  0  0  0  0  0  0  0  0
   38.7920   21.1290   32.0700 H   0  0  0  0  0  0  0  0  0  0  0  0
   36.4580   21.4620   31.3550 H   0  0  0  0  0  0  0  0  0  0  0  0
   34.7370   22.9770   30.8690 H   0  0  0  0  0  0  0  0  0  0  0  0
   33.7710   25.1510   30.6110 H   0  0  0  0  0  0  0  0  0  0  0  0
   35.0870   27.1070   31.1160 H   0  0  0  0  0  0  0  0  0  0  0  0
   39.6040   25.5950   32.5460 C   0  0  0  0  0  0  0  0  0  0  0  0
   39.8450   26.0150   33.8940 C   0  0  0  0  0  0  0  0  0  0  0  0
   40.7400   27.0700   34.0610 C   0  0  0  0  0  0  0  0  0  0  0  0
   41.3430   27.6510   32.9900 N   0  0  0  0  0  0  0  0  0  0  0  0
   41.0960   27.2200   31.7360 C   0  0  0  0  0  0  0  0  0  0  0  0
   40.2590   26.2320   31.5440 N   0  0  0  0  0  0  0  0  0  0  0  0
   40.9380   27.4100   35.0650 H   0  0  0  0  0  0  0  0  0  0  0  0
   41.6600   27.7890   31.0160 H   0  0  0  0  0  0  0  0  0  0  0  0
   39.2120   25.3840   34.9340 N   0  0  0  0  0  0  0  0  0  0  0  0
   37.9810   25.6420   35.3800 C   0  0  0  0  0  0  0  0  0  0  0  0
   37.6450   24.8440   36.4220 N   0  0  0  0  0  0  0  0  0  0  0  0
   38.7240   24.0460   36.6390 C   0  0  0  0  0  0  0  0  0  0  0  0
   38.9990   23.0510   37.5360 C   0  0  0  0  0  0  0  0  0  0  0  0
   40.1640   22.3780   37.5700 N   0  0  0  0  0  0  0  0  0  0  0  0
   41.0810   22.7510   36.6380 C   0  0  0  0  0  0  0  0  0  0  0  0
   40.8000   23.7200   35.7720 N   0  0  0  0  0  0  0  0  0  0  0  0
   39.6720   24.4030   35.7060 C   0  0  0  0  0  0  0  0  0  0  0  0
   37.1570   26.2930   35.1620 H   0  0  0  0  0  0  0  0  0  0  0  0
   38.2030   22.8100   38.2560 H   0  0  0  0  0  0  0  0  0  0  0  0
   42.0500   22.3130   36.5370 H   0  0  0  0  0  0  0  0  0  0  0  0
   37.5330   27.1990   31.9860 C   0  0  0  0  0  0  0  0  0  0  0  0
   36.5610   27.9680   32.9280 C   0  0  0  0  0  0  0  0  0  0  0  0
   36.4220   29.3410   32.3890 C   0  0  0  0  0  0  0  0  0  0  0  0
   36.6440   29.2150   30.9350 C   0  0  0  0  0  0  0  0  0  0  0  0
   37.3940   27.9770   30.6500 C   0  0  0  0  0  0  0  0  0  0  0  0
  1  2  1  0  0  0  0
  1 17  1  0  0  0  0
  2 11  1  0  0  0  0
  3 12  1  0  0  0  0
  3  2  2  0  0  0  0
  4  3  1  0  0  0  0
  5  4  2  0  0  0  0
  5 10  1  0  0  0  0
  6  5  1  0  0  0  0
  7  6  2  0  0  0  0
  7  8  1  0  0  0  0
  8  9  2  0  0  0  0
  9 10  1  0  0  0  0
  9 37  1  0  0  0  0
 10  1  2  0  0  0  0
 13  4  1  0  0  0  0
 14  6  1  0  0  0  0
 15  7  1  0  0  0  0
 16  8  1  0  0  0  0
 17 18  1  0  0  0  0
 18 19  2  0  0  0  0
 18 25  1  0  0  0  0
 19 23  1  0  0  0  0
 20 19  1  0  0  0  0
 21 20  2  0  0  0  0
 22 21  1  0  0  0  0
 22 17  2  0  0  0  0
 24 21  1  0  0  0  0
 25 26  1  0  0  0  0
 25 33  1  0  0  0  0
 26 27  2  0  0  0  0
 27 28  1  0  0  0  0
 28 29  1  0  0  0  0
 29 30  2  0  0  0  0
 29 35  1  0  0  0  0
 31 30  1  0  0  0  0
 32 31  2  0  0  0  0
 33 32  1  0  0  0  0
 33 28  2  0  0  0  0
 34 26  1  0  0  0  0
 36 31  1  0  0  0  0
 37 38  1  0  0  0  0
 39 38  1  0  0  0  0
 40 39  1  0  0  0  0
 41 40  1  0  0  0  0
 41 37  1  0  0  0  0
M  END
>  <minimizedAffinity>
-6.6033721

>  <minimizedRMSD>
0.16479595

$$$$
