
 OpenBabel03262513393D

 15 16  0  0  0  0  0  0  0  0999 V2000
   40.4220   22.4200   37.5640 C   0  0  0  0  0  0  0  0  0  0  0  0
   39.2590   23.1480   37.2300 C   0  0  0  0  0  0  0  0  0  0  0  0
   39.3430   24.0350   36.1490 C   0  0  0  0  0  0  0  0  0  0  0  0
   40.5130   24.1470   35.4930 N   0  0  0  0  0  0  0  0  0  0  0  0
   41.6050   23.4450   35.8280 C   0  0  0  0  0  0  0  0  0  0  0  0
   41.5440   22.5830   36.8690 N   0  0  0  0  0  0  0  0  0  0  0  0
   40.3890   21.7230   38.3960 H   0  0  0  0  0  0  0  0  0  0  0  0
   42.5210   23.5720   35.2670 H   0  0  0  0  0  0  0  0  0  0  0  0
   38.1000   24.7600   35.8540 C   0  0  0  0  0  0  0  0  0  0  0  0
   37.9770   25.2050   34.4090 C   0  0  0  0  0  0  0  0  0  0  0  0
   37.9460   26.7110   34.4560 C   0  0  0  0  0  0  0  0  0  0  0  0
   38.8580   26.9670   35.6600 C   0  0  0  0  0  0  0  0  0  0  0  0
   38.1760   26.0600   36.6680 C   0  0  0  0  0  0  0  0  0  0  0  0
   38.1430   22.9100   38.0090 O   0  0  0  0  0  0  0  0  0  0  0  0
   37.8700   23.6360   38.6620 H   0  0  0  0  0  0  0  0  0  0  0  0
  1  7  1  0  0  0  0
  2  1  1  0  0  0  0
  2 14  1  0  0  0  0
  3  2  2  0  0  0  0
  4  5  2  0  0  0  0
  4  3  1  0  0  0  0
  5  6  1  0  0  0  0
  6  1  2  0  0  0  0
  8  5  1  0  0  0  0
  9  3  1  0  0  0  0
  9 13  1  0  0  0  0
 10 11  1  0  0  0  0
 10  9  1  0  0  0  0
 11 12  1  0  0  0  0
 12 13  1  0  0  0  0
 14 15  1  0  0  0  0
M  END
>  <minimizedAffinity>
-3.92992496

>  <minimizedRMSD>
3.76608396

$$$$
