
 OpenBabel03262519583D

 28 31  0  0  1  0  0  0  0  0999 V2000
   37.9890   24.2220   34.1500 C   0  0  0  0  0  0  0  0  0  0  0  0
   37.9720   25.5450   33.7520 C   0  0  0  0  0  0  0  0  0  0  0  0
   37.4100   25.5020   32.5030 N   0  0  0  0  0  0  0  0  0  0  0  0
   37.1350   24.2360   32.2280 C   0  0  0  0  0  0  0  0  0  0  0  0
   37.4820   23.4030   33.2350 N   0  0  0  0  0  0  0  0  0  0  0  0
   38.3360   26.3920   34.3410 H   0  0  0  0  0  0  0  0  0  0  0  0
   36.6790   23.9930   31.2700 H   0  0  0  0  0  0  0  0  0  0  0  0
   38.5030   23.7470   35.4320 C   0  0  0  0  0  0  0  0  0  0  0  0
   39.7850   23.2310   35.5490 C   0  0  0  0  0  0  0  0  0  0  0  0
   40.2290   22.7870   36.8110 C   0  0  0  0  0  0  0  0  0  0  0  0
   39.3790   22.8880   37.8420 N   0  0  0  0  0  0  0  0  0  0  0  0
   38.1170   23.3980   37.7170 C   0  0  0  0  0  0  0  0  0  0  0  0
   37.6840   23.8240   36.5190 N   0  0  0  0  0  0  0  0  0  0  0  0
   40.4390   23.1680   34.6860 H   0  0  0  0  0  0  0  0  0  0  0  0
   41.2250   22.3830   36.9120 H   0  0  0  0  0  0  0  0  0  0  0  0
   37.4920   23.4430   38.6110 H   0  0  0  0  0  0  0  0  0  0  0  0
   37.2950   21.9860   33.1970 C   0  0  1  0  0  0  0  0  0  0  0  0
   36.4500   21.2730   34.1630 C   0  0  0  0  0  0  0  0  0  0  0  0
   35.8750   21.5760   32.8090 C   0  0  2  0  0  0  0  0  0  0  0  0
   38.0690   21.4500   32.6340 H   0  0  0  0  0  0  0  0  0  0  0  0
   36.7920   20.2870   34.4680 H   0  0  0  0  0  0  0  0  0  0  0  0
   35.9670   21.8340   34.9890 H   0  0  0  0  0  0  0  0  0  0  0  0
   35.1000   22.3750   32.7220 H   0  0  0  0  0  0  0  0  0  0  0  0
   35.6450   20.4110   31.9300 C   0  0  0  0  0  3  0  0  0  0  0  0
   35.4580   19.1690   32.8160 C   0  0  0  0  0  2  0  0  0  0  0  0
   36.2340   18.0600   32.1720 C   0  0  0  0  0  2  0  0  0  0  0  0
   36.4660   18.5300   30.7720 C   0  0  0  0  0  2  0  0  0  0  0  0
   36.7870   20.0170   31.0280 C   0  0  0  0  0  2  0  0  0  0  0  0
  1  8  1  0  0  0  0
  2  1  2  0  0  0  0
  2  6  1  0  0  0  0
  3  2  1  0  0  0  0
  4  3  2  0  0  0  0
  4  5  1  0  0  0  0
  5  1  1  0  0  0  0
  7  4  1  0  0  0  0
  8  9  2  0  0  0  0
  8 13  1  0  0  0  0
  9 10  1  0  0  0  0
 10 15  1  0  0  0  0
 10 11  2  0  0  0  0
 12 11  1  0  0  0  0
 12 16  1  0  0  0  0
 13 12  2  0  0  0  0
 14  9  1  0  0  0  0
 17 20  1  6  0  0  0
 17  5  1  0  0  0  0
 17 18  1  0  0  0  0
 18 21  1  0  0  0  0
 18 22  1  0  0  0  0
 19 23  1  6  0  0  0
 19 17  1  0  0  0  0
 19 18  1  0  0  0  0
 24 19  1  0  0  0  0
 24 25  1  0  0  0  0
 26 25  1  0  0  0  0
 27 28  1  0  0  0  0
 27 26  1  0  0  0  0
 28 24  1  0  0  0  0
M  END
>  <minimizedAffinity>
-4.6876545

>  <minimizedRMSD>
1.32252872

$$$$
