
 OpenBabel03262518183D

 37 40  0  0  1  0  0  0  0  0999 V2000
   43.9610   23.7300   34.7080 C   0  0  1  0  0  0  0  0  0  0  0  0
   42.9870   24.4690   33.8290 C   0  0  0  0  0  0  0  0  0  0  0  0
   43.6220   25.4990   32.9540 C   0  0  0  0  0  0  0  0  0  0  0  0
   44.7240   26.2190   33.6500 C   0  0  0  0  0  0  0  0  0  0  0  0
   44.5780   26.0760   35.1450 C   0  0  0  0  0  0  0  0  0  0  0  0
   44.8320   24.6290   35.5050 C   0  0  1  0  0  0  0  0  0  0  0  0
   44.5480   23.0660   34.0270 H   0  0  0  0  0  0  0  0  0  0  0  0
   42.4640   23.7130   33.1940 H   0  0  0  0  0  0  0  0  0  0  0  0
   42.2200   24.9240   34.5150 H   0  0  0  0  0  0  0  0  0  0  0  0
   42.8290   26.1200   32.5300 H   0  0  0  0  0  0  0  0  0  0  0  0
   44.0910   24.9510   32.0880 H   0  0  0  0  0  0  0  0  0  0  0  0
   45.7360   25.9320   33.3110 H   0  0  0  0  0  0  0  0  0  0  0  0
   44.5900   27.3070   33.4200 H   0  0  0  0  0  0  0  0  0  0  0  0
   45.1640   26.7910   35.7140 H   0  0  0  0  0  0  0  0  0  0  0  0
   43.5020   26.2760   35.3840 H   0  0  0  0  0  0  0  0  0  0  0  0
   45.8880   24.4710   35.1260 H   0  0  0  0  0  0  0  0  0  0  0  0
   42.9320   21.0480   36.9640 C   0  0  0  0  0  0  0  0  0  0  0  0
   41.6680   21.4380   37.3830 C   0  0  0  0  0  0  0  0  0  0  0  0
   41.1430   22.6230   36.8950 C   0  0  0  0  0  0  0  0  0  0  0  0
   41.9050   23.3590   36.0150 N   0  0  0  0  0  0  0  0  0  0  0  0
   43.1220   22.9320   35.6460 C   0  0  0  0  0  0  0  0  0  0  0  0
   43.6210   21.8050   36.1100 N   0  0  0  0  0  0  0  0  0  0  0  0
   43.3490   20.1200   37.3440 H   0  0  0  0  0  0  0  0  0  0  0  0
   41.1000   20.8220   38.0830 H   0  0  0  0  0  0  0  0  0  0  0  0
   39.8090   23.0520   37.3180 C   0  0  0  0  0  0  0  0  0  0  0  0
   38.9030   23.7420   36.5240 C   0  0  0  0  0  0  0  0  0  0  0  0
   37.8000   23.9350   37.3020 N   0  0  0  0  0  0  0  0  0  0  0  0
   38.0650   23.3760   38.4990 C   0  0  0  0  0  0  0  0  0  0  0  0
   39.2590   22.8360   38.5480 N   0  0  0  0  0  0  0  0  0  0  0  0
   39.0600   24.0560   35.4940 H   0  0  0  0  0  0  0  0  0  0  0  0
   37.3220   23.4050   39.2930 H   0  0  0  0  0  0  0  0  0  0  0  0
   39.7140   22.3430   39.3410 H   0  0  0  0  0  0  0  0  0  0  0  0
   44.9490   24.4270   36.9680 C   0  0  0  0  0  0  0  0  0  0  0  0
   44.4150   25.7470   37.5620 C   0  0  0  0  0  0  0  0  0  0  0  0
   45.1020   25.9640   38.8630 C   0  0  0  0  0  0  0  0  0  0  0  0
   46.2630   25.0420   38.9340 C   0  0  0  0  0  0  0  0  0  0  0  0
   46.3270   24.4230   37.5350 C   0  0  0  0  0  0  0  0  0  0  0  0
  1  7  1  6  0  0  0
  1  6  1  0  0  0  0
  1 21  1  0  0  0  0
  2  9  1  0  0  0  0
  2  1  1  0  0  0  0
  3  4  1  0  0  0  0
  3  2  1  0  0  0  0
  4  5  1  0  0  0  0
  5 15  1  0  0  0  0
  5  6  1  0  0  0  0
  5 14  1  0  0  0  0
  6 16  1  6  0  0  0
  6 33  1  0  0  0  0
  8  2  1  0  0  0  0
 10  3  1  0  0  0  0
 11  3  1  0  0  0  0
 12  4  1  0  0  0  0
 13  4  1  0  0  0  0
 17 23  1  0  0  0  0
 17 18  1  0  0  0  0
 18 24  1  0  0  0  0
 19 25  1  0  0  0  0
 19 18  2  0  0  0  0
 20 19  1  0  0  0  0
 21 20  2  0  0  0  0
 21 22  1  0  0  0  0
 22 17  2  0  0  0  0
 25 29  1  0  0  0  0
 26 27  1  0  0  0  0
 26 25  2  0  0  0  0
 27 28  2  0  0  0  0
 28 29  1  0  0  0  0
 28 31  1  0  0  0  0
 29 32  1  0  0  0  0
 30 26  1  0  0  0  0
 33 37  1  0  0  0  0
 33 34  1  0  0  0  0
 34 35  1  0  0  0  0
 35 36  1  0  0  0  0
 37 36  1  0  0  0  0
M  END
>  <minimizedAffinity>
-5.86011982

>  <minimizedRMSD>
3.10907078

$$$$
