
 OpenBabel03262519573D

 28 31  0  0  1  0  0  0  0  0999 V2000
   36.7040   24.0570   31.8670 C   0  0  0  0  0  0  0  0  0  0  0  0
   35.6170   23.5890   31.1540 C   0  0  0  0  0  0  0  0  0  0  0  0
   35.4820   22.2940   31.5800 N   0  0  0  0  0  0  0  0  0  0  0  0
   36.4340   22.0610   32.4710 C   0  0  0  0  0  0  0  0  0  0  0  0
   37.2210   23.1420   32.6790 N   0  0  0  0  0  0  0  0  0  0  0  0
   35.0350   24.1650   30.4290 H   0  0  0  0  0  0  0  0  0  0  0  0
   36.4950   21.0770   32.9310 H   0  0  0  0  0  0  0  0  0  0  0  0
   37.2480   25.4080   31.7590 C   0  0  0  0  0  0  0  0  0  0  0  0
   38.2830   25.7030   30.8830 C   0  0  0  0  0  0  0  0  0  0  0  0
   38.7690   27.0240   30.8200 C   0  0  0  0  0  0  0  0  0  0  0  0
   38.2000   27.9370   31.6200 N   0  0  0  0  0  0  0  0  0  0  0  0
   37.1810   27.6380   32.4800 C   0  0  0  0  0  0  0  0  0  0  0  0
   36.7100   26.3820   32.5480 N   0  0  0  0  0  0  0  0  0  0  0  0
   38.7130   24.9310   30.2540 H   0  0  0  0  0  0  0  0  0  0  0  0
   39.5740   27.2630   30.1410 H   0  0  0  0  0  0  0  0  0  0  0  0
   36.7770   28.4440   33.0940 H   0  0  0  0  0  0  0  0  0  0  0  0
   38.3230   23.1620   33.5900 C   0  0  1  0  0  0  0  0  0  0  0  0
   38.8120   24.3980   34.2130 C   0  0  0  0  0  0  0  0  0  0  0  0
   37.9150   23.5040   35.0220 C   0  0  2  0  0  0  0  0  0  0  0  0
   38.9700   22.2780   33.5230 H   0  0  0  0  0  0  0  0  0  0  0  0
   39.8870   24.4700   34.3620 H   0  0  0  0  0  0  0  0  0  0  0  0
   38.3500   25.3690   33.9430 H   0  0  0  0  0  0  0  0  0  0  0  0
   36.8630   23.8280   35.2080 H   0  0  0  0  0  0  0  0  0  0  0  0
   38.5480   22.8190   36.1660 C   0  0  0  0  0  3  0  0  0  0  0  0
   37.7380   23.1450   37.4320 C   0  0  0  0  0  2  0  0  0  0  0  0
   38.7300   23.4290   38.5190 C   0  0  0  0  0  2  0  0  0  0  0  0
   40.0140   22.8530   38.0130 C   0  0  0  0  0  2  0  0  0  0  0  0
   39.9420   23.2720   36.5310 C   0  0  0  0  0  2  0  0  0  0  0  0
  1  5  1  0  0  0  0
  2  3  1  0  0  0  0
  2  1  2  0  0  0  0
  3  4  2  0  0  0  0
  4  5  1  0  0  0  0
  4  7  1  0  0  0  0
  5 17  1  0  0  0  0
  6  2  1  0  0  0  0
  8  1  1  0  0  0  0
  8 13  1  0  0  0  0
  9  8  2  0  0  0  0
 10  9  1  0  0  0  0
 10 11  2  0  0  0  0
 11 12  1  0  0  0  0
 12 13  2  0  0  0  0
 12 16  1  0  0  0  0
 14  9  1  0  0  0  0
 15 10  1  0  0  0  0
 17 20  1  6  0  0  0
 17 18  1  0  0  0  0
 17 19  1  0  0  0  0
 18 21  1  0  0  0  0
 18 19  1  0  0  0  0
 19 23  1  1  0  0  0
 19 24  1  0  0  0  0
 22 18  1  0  0  0  0
 24 28  1  0  0  0  0
 24 25  1  0  0  0  0
 25 26  1  0  0  0  0
 27 26  1  0  0  0  0
 28 27  1  0  0  0  0
M  END
>  <minimizedAffinity>
-4.64828777

>  <minimizedRMSD>
5.76083183

$$$$
