
 OpenBabel03262517483D

 31 34  0  0  0  0  0  0  0  0999 V2000
   39.6860   22.8230   37.8900 C   0  0  0  0  0  0  0  0  0  0  0  0
   38.7440   23.5670   38.6310 C   0  0  0  0  0  0  0  0  0  0  0  0
   37.7520   24.2710   37.9200 C   0  0  0  0  0  0  0  0  0  0  0  0
   37.7750   24.1810   36.5490 N   0  0  0  0  0  0  0  0  0  0  0  0
   38.7040   23.4510   35.8840 C   0  0  0  0  0  0  0  0  0  0  0  0
   39.6480   22.7810   36.5520 N   0  0  0  0  0  0  0  0  0  0  0  0
   38.5780   23.4690   34.4640 N   0  0  0  0  0  0  0  0  0  0  0  0
   38.9740   22.4090   33.6850 C   0  0  0  0  0  0  0  0  0  0  0  0
   38.7430   22.6880   32.3850 N   0  0  0  0  0  0  0  0  0  0  0  0
   38.2000   23.9230   32.2990 C   0  0  0  0  0  0  0  0  0  0  0  0
   37.7400   24.7850   31.2850 C   0  0  0  0  0  0  0  0  0  0  0  0
   37.2420   25.9890   31.5710 N   0  0  0  0  0  0  0  0  0  0  0  0
   37.1760   26.3860   32.8460 C   0  0  0  0  0  0  0  0  0  0  0  0
   37.6040   25.5940   33.8560 N   0  0  0  0  0  0  0  0  0  0  0  0
   38.1090   24.3830   33.6070 C   0  0  0  0  0  0  0  0  0  0  0  0
   37.8930   24.1800   30.0040 N   0  0  0  0  0  0  0  0  0  0  0  0
   40.4420   22.2880   38.4450 H   0  0  0  0  0  0  0  0  0  0  0  0
   38.7450   23.6240   39.7150 H   0  0  0  0  0  0  0  0  0  0  0  0
   37.0010   24.8600   38.4270 H   0  0  0  0  0  0  0  0  0  0  0  0
   39.4090   21.4710   34.0070 H   0  0  0  0  0  0  0  0  0  0  0  0
   37.6370   23.1830   29.8150 H   0  0  0  0  0  0  0  0  0  0  0  0
   38.2920   24.9270   29.3670 H   0  0  0  0  0  0  0  0  0  0  0  0
   36.6300   27.7030   33.1630 C   0  0  0  0  0  0  0  0  0  0  0  0
   36.4750   28.1190   34.4530 C   0  0  0  0  0  0  0  0  0  0  0  0
   36.7590   27.4670   35.2730 H   0  0  0  0  0  0  0  0  0  0  0  0
   35.9550   29.3770   34.7590 C   0  0  0  0  0  0  0  0  0  0  0  0
   35.5820   30.2320   33.7190 C   0  0  0  0  0  0  0  0  0  0  0  0
   35.1720   31.2210   33.8760 H   0  0  0  0  0  0  0  0  0  0  0  0
   35.7670   29.7480   32.4420 C   0  0  0  0  0  0  0  0  0  0  0  0
   35.4800   30.4050   31.6330 H   0  0  0  0  0  0  0  0  0  0  0  0
   36.2760   28.5140   32.0940 C   0  0  0  0  0  0  0  0  0  0  0  0
  1 17  1  0  0  0  0
  1  2  1  0  0  0  0
  2 18  1  0  0  0  0
  3 19  1  0  0  0  0
  3  2  2  0  0  0  0
  4  3  1  0  0  0  0
  5  4  2  0  0  0  0
  5  6  1  0  0  0  0
  6  1  2  0  0  0  0
  7  5  1  0  0  0  0
  8 20  1  0  0  0  0
  8  7  1  0  0  0  0
  9  8  2  0  0  0  0
 10  9  1  0  0  0  0
 10 15  1  0  0  0  0
 11 12  1  0  0  0  0
 11 10  2  0  0  0  0
 12 13  2  0  0  0  0
 13 23  1  0  0  0  0
 13 14  1  0  0  0  0
 15 14  2  0  0  0  0
 15  7  1  0  0  0  0
 16 11  1  0  0  0  0
 21 16  1  0  0  0  0
 22 16  1  0  0  0  0
 23 24  1  0  0  0  0
 24 26  2  0  0  0  0
 24 25  1  0  0  0  0
 27 28  1  0  0  0  0
 27 26  1  0  0  0  0
 29 27  2  0  0  0  0
 30 29  1  0  0  0  0
 31 29  1  0  0  0  0
 31 23  2  0  0  0  0
M  END
>  <minimizedAffinity>
-6.10550356

>  <minimizedRMSD>
1.77510774

$$$$
