
 OpenBabel03262517363D

 36 39  0  0  0  0  0  0  0  0999 V2000
   38.6570   24.7120   33.4110 N   0  0  0  0  0  0  0  0  0  0  0  0
   38.5780   25.6860   32.3070 C   0  0  0  0  0  0  0  0  0  0  0  0
   37.9000   26.8490   32.9480 C   0  0  0  0  0  0  0  0  0  0  0  0
   38.8700   27.3630   33.8320 O   0  0  0  0  0  0  0  0  0  0  0  0
   38.9720   26.5480   34.9630 C   0  0  0  0  0  0  0  0  0  0  0  0
   38.8420   25.0700   34.7940 C   0  0  0  0  0  0  0  0  0  0  0  0
   37.9780   25.2150   31.5070 H   0  0  0  0  0  0  0  0  0  0  0  0
   39.5800   25.8910   31.9130 H   0  0  0  0  0  0  0  0  0  0  0  0
   37.7260   27.6290   32.1780 H   0  0  0  0  0  0  0  0  0  0  0  0
   36.9560   26.5340   33.3900 H   0  0  0  0  0  0  0  0  0  0  0  0
   39.1230   26.8430   35.9770 H   0  0  0  0  0  0  0  0  0  0  0  0
   38.8960   24.3410   36.0200 C   0  0  0  0  0  0  0  0  0  0  0  0
   39.7440   23.3890   36.5210 C   0  0  0  0  0  0  0  0  0  0  0  0
   40.4500   23.0190   35.7620 H   0  0  0  0  0  0  0  0  0  0  0  0
   39.8060   22.8170   37.7550 C   0  0  0  0  0  0  0  0  0  0  0  0
   38.8570   23.2770   38.6350 C   0  0  0  0  0  0  0  0  0  0  0  0
   38.8900   22.8350   39.6230 H   0  0  0  0  0  0  0  0  0  0  0  0
   37.9350   24.2340   38.2680 C   0  0  0  0  0  0  0  0  0  0  0  0
   37.2600   24.4890   39.0660 H   0  0  0  0  0  0  0  0  0  0  0  0
   37.9650   24.7460   36.9880 C   0  0  0  0  0  0  0  0  0  0  0  0
   37.5410   20.9130   32.5900 C   0  0  0  0  0  0  0  0  0  0  0  0
   38.8580   21.0250   32.8100 C   0  0  0  0  0  0  0  0  0  0  0  0
   39.4820   22.1210   33.0900 C   0  0  0  0  0  0  0  0  0  0  0  0
   38.5740   23.2730   33.1470 C   0  0  0  0  0  0  0  0  0  0  0  0
   36.8800   22.6010   32.7710 S   0  0  0  0  0  0  0  0  0  0  0  0
   39.5930   20.1820   32.7800 H   0  0  0  0  0  0  0  0  0  0  0  0
   40.4670   22.4430   33.2630 H   0  0  0  0  0  0  0  0  0  0  0  0
   35.2080   18.1660   32.5890 C   0  0  0  0  0  0  0  0  0  0  0  0
   35.8640   17.1670   31.8670 C   0  0  0  0  0  0  0  0  0  0  0  0
   37.1140   17.4160   31.3590 C   0  0  0  0  0  0  0  0  0  0  0  0
   37.6240   18.6490   31.6080 N   0  0  0  0  0  0  0  0  0  0  0  0
   36.9860   19.6090   32.3070 C   0  0  0  0  0  0  0  0  0  0  0  0
   35.7790   19.3660   32.7960 N   0  0  0  0  0  0  0  0  0  0  0  0
   34.2180   17.9040   32.9650 H   0  0  0  0  0  0  0  0  0  0  0  0
   35.4360   16.1910   31.6810 H   0  0  0  0  0  0  0  0  0  0  0  0
   37.7140   16.7290   30.7890 H   0  0  0  0  0  0  0  0  0  0  0  0
  1  6  1  0  0  0  0
  2  3  1  0  0  0  0
  2  1  1  0  0  0  0
  3 10  1  0  0  0  0
  3  4  1  0  0  0  0
  4  5  1  0  0  0  0
  5 11  1  0  0  0  0
  6  5  2  0  0  0  0
  6 12  1  0  0  0  0
  7  2  1  0  0  0  0
  8  2  1  0  0  0  0
  9  3  1  0  0  0  0
 12 13  2  0  0  0  0
 12 20  1  0  0  0  0
 13 15  1  0  0  0  0
 14 13  1  0  0  0  0
 15 16  2  0  0  0  0
 16 17  1  0  0  0  0
 18 16  1  0  0  0  0
 18 19  1  0  0  0  0
 20 18  2  0  0  0  0
 21 25  1  0  0  0  0
 21 22  2  0  0  0  0
 22 23  1  0  0  0  0
 23 24  2  0  0  0  0
 23 27  1  0  0  0  0
 24  1  1  0  0  0  0
 25 24  1  0  0  0  0
 26 22  1  0  0  0  0
 28 33  1  0  0  0  0
 28 34  1  0  0  0  0
 29 28  2  0  0  0  0
 30 31  2  0  0  0  0
 30 29  1  0  0  0  0
 31 32  1  0  0  0  0
 32 21  1  0  0  0  0
 32 33  2  0  0  0  0
 35 29  1  0  0  0  0
 36 30  1  0  0  0  0
M  END
>  <minimizedAffinity>
-5.31883478

>  <minimizedRMSD>
7.31821871

$$$$
