
 OpenBabel03262519153D

 35 38  0  0  0  0  0  0  0  0999 V2000
   39.6080   24.0010   35.7080 C   0  0  0  0  0  0  0  0  0  0  0  0
   39.8210   25.2610   35.0990 C   0  0  0  0  0  0  0  0  0  0  0  0
   41.0890   25.6200   34.6890 C   0  0  0  0  0  0  0  0  0  0  0  0
   42.0810   24.7140   34.9050 N   0  0  0  0  0  0  0  0  0  0  0  0
   41.8420   23.4870   35.5060 C   0  0  0  0  0  0  0  0  0  0  0  0
   40.6130   23.1700   35.8880 N   0  0  0  0  0  0  0  0  0  0  0  0
   38.5850   23.7740   36.0110 H   0  0  0  0  0  0  0  0  0  0  0  0
   41.3660   26.5400   34.2200 H   0  0  0  0  0  0  0  0  0  0  0  0
   38.7770   26.2390   34.8610 C   0  0  0  0  0  0  0  0  0  0  0  0
   38.4210   27.2480   35.7410 C   0  0  0  0  0  0  0  0  0  0  0  0
   37.4170   28.0740   35.3530 C   0  0  0  0  0  0  0  0  0  0  0  0
   36.8180   27.8620   34.1190 C   0  0  0  0  0  0  0  0  0  0  0  0
   37.7290   26.3850   33.4390 S   0  0  0  0  0  0  0  0  0  0  0  0
   38.9040   27.3910   36.6980 H   0  0  0  0  0  0  0  0  0  0  0  0
   36.9960   28.9110   35.8880 H   0  0  0  0  0  0  0  0  0  0  0  0
   35.7800   28.4800   33.3820 C   0  0  0  0  0  0  0  0  0  0  0  0
   35.5090   28.1010   32.2360 O   0  0  0  0  0  0  0  0  0  0  0  0
   35.0140   29.5580   33.9330 N   0  0  0  0  0  0  0  0  0  0  0  0
   35.2200   29.9470   34.8860 H   0  0  0  0  0  0  0  0  0  0  0  0
   34.2220   30.0020   33.4190 H   0  0  0  0  0  0  0  0  0  0  0  0
   43.0230   22.6220   35.6680 C   0  0  0  0  0  0  0  0  0  0  0  0
   44.2400   23.1760   35.3090 C   0  0  0  0  0  0  0  0  0  0  0  0
   45.4200   21.7570   35.6780 S   0  0  0  0  0  0  0  0  0  0  0  0
   43.9810   20.6930   36.2540 C   0  0  0  0  0  0  0  0  0  0  0  0
   43.1150   21.3890   36.1090 N   0  0  0  0  0  0  0  0  0  0  0  0
   44.6720   24.0850   34.9190 H   0  0  0  0  0  0  0  0  0  0  0  0
   44.1550   19.3020   36.7410 C   0  0  0  0  0  0  0  0  0  0  0  0
   45.4490   18.8640   36.9170 C   0  0  0  0  0  0  0  0  0  0  0  0
   46.2600   19.5440   36.6940 H   0  0  0  0  0  0  0  0  0  0  0  0
   45.5740   17.5660   37.3720 C   0  0  0  0  0  0  0  0  0  0  0  0
   44.4680   16.7810   37.6260 C   0  0  0  0  0  0  0  0  0  0  0  0
   44.7340   15.7930   37.9750 H   0  0  0  0  0  0  0  0  0  0  0  0
   43.1880   17.2600   37.4370 C   0  0  0  0  0  0  0  0  0  0  0  0
   42.3900   16.5730   37.6630 H   0  0  0  0  0  0  0  0  0  0  0  0
   43.0340   18.5660   36.9790 C   0  0  0  0  0  0  0  0  0  0  0  0
  1  6  1  0  0  0  0
  1  7  1  0  0  0  0
  2  1  2  0  0  0  0
  3  4  2  0  0  0  0
  3  2  1  0  0  0  0
  4  5  1  0  0  0  0
  5 21  1  0  0  0  0
  5  6  2  0  0  0  0
  8  3  1  0  0  0  0
  9  2  1  0  0  0  0
  9 10  2  0  0  0  0
 10 14  1  0  0  0  0
 11 10  1  0  0  0  0
 11 15  1  0  0  0  0
 12 11  2  0  0  0  0
 13 12  1  0  0  0  0
 13  9  1  0  0  0  0
 16 18  1  0  0  0  0
 16 12  1  0  0  0  0
 17 16  2  0  0  0  0
 18 19  1  0  0  0  0
 20 18  1  0  0  0  0
 21 25  1  0  0  0  0
 22 21  2  0  0  0  0
 22 23  1  0  0  0  0
 23 24  1  0  0  0  0
 24 27  1  0  0  0  0
 25 24  2  0  0  0  0
 26 22  1  0  0  0  0
 27 28  2  0  0  0  0
 27 35  1  0  0  0  0
 28 30  1  0  0  0  0
 29 28  1  0  0  0  0
 30 31  2  0  0  0  0
 31 32  1  0  0  0  0
 33 31  1  0  0  0  0
 33 34  1  0  0  0  0
 35 33  2  0  0  0  0
M  END
>  <minimizedAffinity>
-4.48125696

>  <minimizedRMSD>
1.69926846

$$$$
