
 OpenBabel03262519413D

 41 44  0  0  1  0  0  0  0  0999 V2000
   38.3680   26.0350   34.5250 N   0  0  0  0  0  0  0  0  0  0  0  0
   37.7510   27.2380   34.0020 C   0  0  0  0  0  0  0  0  0  0  0  0
   38.2380   27.3570   32.5980 C   0  0  0  0  0  0  0  0  0  0  0  0
   39.0940   26.1230   32.3920 C   0  0  0  0  0  0  0  0  0  0  0  0
   38.3990   25.1600   33.3990 C   0  0  2  0  0  0  0  0  0  0  0  0
   37.9210   28.1290   34.6110 H   0  0  0  0  0  0  0  0  0  0  0  0
   36.6600   27.0270   33.9480 H   0  0  0  0  0  0  0  0  0  0  0  0
   37.4430   27.4420   31.8350 H   0  0  0  0  0  0  0  0  0  0  0  0
   38.9450   28.2260   32.4790 H   0  0  0  0  0  0  0  0  0  0  0  0
   38.9260   25.6580   31.4030 H   0  0  0  0  0  0  0  0  0  0  0  0
   40.1330   26.2520   32.6730 H   0  0  0  0  0  0  0  0  0  0  0  0
   39.0460   24.2680   33.4860 H   0  0  0  0  0  0  0  0  0  0  0  0
   37.5460   25.4150   35.5240 C   0  0  0  0  0  0  0  0  0  0  0  0
   37.0680   26.1940   36.1530 H   0  0  0  0  0  0  0  0  0  0  0  0
   36.7310   24.8130   35.0810 H   0  0  0  0  0  0  0  0  0  0  0  0
   38.7340   23.3920   38.5010 C   0  0  0  0  0  0  0  0  0  0  0  0
   37.9490   24.2530   37.7360 C   0  0  0  0  0  0  0  0  0  0  0  0
   38.3430   24.5010   36.4030 C   0  0  0  0  0  0  0  0  0  0  0  0
   39.4730   23.8780   35.9520 N   0  0  0  0  0  0  0  0  0  0  0  0
   40.1880   23.0540   36.7440 C   0  0  0  0  0  0  0  0  0  0  0  0
   39.8100   22.8230   38.0060 N   0  0  0  0  0  0  0  0  0  0  0  0
   38.3630   23.2640   39.4910 H   0  0  0  0  0  0  0  0  0  0  0  0
   37.0560   24.7730   38.0280 H   0  0  0  0  0  0  0  0  0  0  0  0
   41.0780   22.5790   36.3460 H   0  0  0  0  0  0  0  0  0  0  0  0
   37.1540   24.7930   32.9690 O   0  0  0  0  0  0  0  0  0  0  0  0
   37.1220   23.6040   32.2890 C   0  0  2  0  0  0  0  0  0  0  0  0
   36.6920   23.6640   30.8550 C   0  0  0  0  0  0  0  0  0  0  0  0
   35.8070   23.0020   31.8760 C   0  0  1  0  0  0  0  0  0  0  0  0
   37.8440   22.8730   32.6670 H   0  0  0  0  0  0  0  0  0  0  0  0
   36.2650   24.6320   30.4670 H   0  0  0  0  0  0  0  0  0  0  0  0
   37.1760   23.0100   30.1010 H   0  0  0  0  0  0  0  0  0  0  0  0
   34.8940   23.4760   32.2490 H   0  0  0  0  0  0  0  0  0  0  0  0
   35.7710   21.5210   31.9560 C   0  0  0  0  0  0  0  0  0  0  0  0
   36.1370   20.8020   30.8170 C   0  0  0  0  0  0  0  0  0  0  0  0
   36.4440   21.3030   29.8880 H   0  0  0  0  0  0  0  0  0  0  0  0
   36.1400   19.4090   30.7770 C   0  0  0  0  0  0  0  0  0  0  0  0
   35.7650   18.7200   31.9120 C   0  0  0  0  0  0  0  0  0  0  0  0
   35.7940   17.6400   31.8020 H   0  0  0  0  0  0  0  0  0  0  0  0
   35.3950   19.4030   33.0620 C   0  0  0  0  0  0  0  0  0  0  0  0
   35.1120   18.8290   33.9170 H   0  0  0  0  0  0  0  0  0  0  0  0
   35.4010   20.7990   33.0720 C   0  0  0  0  0  0  0  0  0  0  0  0
  1 13  1  0  0  0  0
  2  1  1  0  0  0  0
  2  6  1  0  0  0  0
  3  2  1  0  0  0  0
  4  3  1  0  0  0  0
  4 11  1  0  0  0  0
  4  5  1  0  0  0  0
  5 12  1  1  0  0  0
  5  1  1  0  0  0  0
  7  2  1  0  0  0  0
  8  3  1  0  0  0  0
  9  3  1  0  0  0  0
 10  4  1  0  0  0  0
 13 14  1  0  0  0  0
 13 18  1  0  0  0  0
 15 13  1  0  0  0  0
 16 22  1  0  0  0  0
 17 23  1  0  0  0  0
 17 16  2  0  0  0  0
 18 17  1  0  0  0  0
 19 18  2  0  0  0  0
 19 20  1  0  0  0  0
 20 21  2  0  0  0  0
 21 16  1  0  0  0  0
 24 20  1  0  0  0  0
 25  5  1  0  0  0  0
 26 29  1  1  0  0  0
 26 25  1  0  0  0  0
 27 28  1  0  0  0  0
 27 26  1  0  0  0  0
 28 33  1  0  0  0  0
 28 32  1  1  0  0  0
 28 26  1  0  0  0  0
 30 27  1  0  0  0  0
 31 27  1  0  0  0  0
 33 41  1  0  0  0  0
 34 33  2  0  0  0  0
 35 34  1  0  0  0  0
 36 34  1  0  0  0  0
 36 37  2  0  0  0  0
 37 39  1  0  0  0  0
 38 37  1  0  0  0  0
 39 41  2  0  0  0  0
 39 40  1  0  0  0  0
M  END
>  <minimizedAffinity>
-5.57641506

>  <minimizedRMSD>
6.57699537

$$$$
