
 OpenBabel03262520003D

 35 38  0  0  1  0  0  0  0  0999 V2000
   39.4360   24.1950   34.4540 C   0  0  1  0  0  0  0  0  0  0  0  0
   38.1950   24.5250   35.1000 C   0  0  0  0  0  0  0  0  0  0  0  0
   38.7830   23.0890   35.2080 C   0  0  1  0  0  0  0  0  0  0  0  0
   40.3630   24.6550   34.9460 H   0  0  0  0  0  0  0  0  0  0  0  0
   38.1460   25.0980   36.0400 H   0  0  0  0  0  0  0  0  0  0  0  0
   37.2660   24.5940   34.5190 H   0  0  0  0  0  0  0  0  0  0  0  0
   37.7100   22.1550   34.7500 C   0  0  0  0  0  0  0  0  0  0  0  0
   36.8740   21.7640   35.7920 C   0  0  0  0  0  0  0  0  0  0  0  0
   36.8700   22.0140   36.8430 H   0  0  0  0  0  0  0  0  0  0  0  0
   35.8160   20.8890   35.5310 C   0  0  0  0  0  3  0  0  0  0  0  0
   35.6020   20.4150   34.2420 C   0  0  0  0  0  0  0  0  0  0  0  0
   34.8080   19.7420   33.9810 H   0  0  0  0  0  0  0  0  0  0  0  0
   36.4390   20.8150   33.2360 C   0  0  0  0  0  0  0  0  0  0  0  0
   36.3060   20.4670   32.2110 H   0  0  0  0  0  0  0  0  0  0  0  0
   37.4680   21.6660   33.4840 C   0  0  0  0  0  3  0  0  0  0  0  0
   39.0790   24.4760   31.9950 C   0  0  0  0  0  0  0  0  0  0  0  0
   39.5900   23.9140   30.8280 C   0  0  0  0  0  0  0  0  0  0  0  0
   40.5030   23.0040   31.2840 N   0  0  0  0  0  0  0  0  0  0  0  0
   40.5010   23.0550   32.6130 C   0  0  0  0  0  0  0  0  0  0  0  0
   39.6340   23.9520   33.0750 N   0  0  0  0  0  0  0  0  0  0  0  0
   39.2980   24.1750   29.8170 H   0  0  0  0  0  0  0  0  0  0  0  0
   41.2050   22.3580   33.0790 H   0  0  0  0  0  0  0  0  0  0  0  0
   38.0640   25.5200   32.0280 C   0  0  0  0  0  0  0  0  0  0  0  0
   38.4480   26.8560   32.2710 C   0  0  0  0  0  0  0  0  0  0  0  0
   37.4310   27.8360   32.2920 C   0  0  0  0  0  0  0  0  0  0  0  0
   36.1550   27.4230   32.0750 N   0  0  0  0  0  0  0  0  0  0  0  0
   35.8300   26.1320   31.8460 C   0  0  0  0  0  0  0  0  0  0  0  0
   36.7770   25.1770   31.8210 N   0  0  0  0  0  0  0  0  0  0  0  0
   39.5030   27.0260   32.4250 H   0  0  0  0  0  0  0  0  0  0  0  0
   37.7470   28.8340   32.4770 H   0  0  0  0  0  0  0  0  0  0  0  0
   34.7730   25.9620   31.6920 H   0  0  0  0  0  0  0  0  0  0  0  0
   39.2880   22.8120   36.6100 C   0  0  0  0  0  0  0  0  0  0  0  0
   39.7040   21.4990   36.7090 F   0  0  0  0  0  0  0  0  0  0  0  0
   40.5090   23.5800   36.8080 F   0  0  0  0  0  0  0  0  0  0  0  0
   38.4420   23.1920   37.5810 F   0  0  0  0  0  0  0  0  0  0  0  0
  1  4  1  1  0  0  0
  1  2  1  0  0  0  0
  1  3  1  0  0  0  0
  2  3  1  0  0  0  0
  2  5  1  0  0  0  0
  3 32  1  1  0  0  0
  6  2  1  0  0  0  0
  7  3  1  0  0  0  0
  7  8  1  0  0  0  0
  8  9  1  0  0  0  0
 10  8  2  0  0  0  0
 11 10  1  0  0  0  0
 12 11  1  0  0  0  0
 13 15  1  0  0  0  0
 13 11  2  0  0  0  0
 14 13  1  0  0  0  0
 15  7  2  0  0  0  0
 16 23  1  0  0  0  0
 16 20  1  0  0  0  0
 17 18  1  0  0  0  0
 17 16  2  0  0  0  0
 18 19  2  0  0  0  0
 19 20  1  0  0  0  0
 19 22  1  0  0  0  0
 20  1  1  0  0  0  0
 21 17  1  0  0  0  0
 23 24  1  0  0  0  0
 24 25  2  0  0  0  0
 24 29  1  0  0  0  0
 25 30  1  0  0  0  0
 26 25  1  0  0  0  0
 27 26  2  0  0  0  0
 28 27  1  0  0  0  0
 28 23  2  0  0  0  0
 31 27  1  0  0  0  0
 32 33  1  0  0  0  0
 32 34  1  0  0  0  0
 32 35  1  0  0  0  0
M  END
>  <minimizedAffinity>
-4.77151728

>  <minimizedRMSD>
3.06547141

$$$$
