
 OpenBabel03262519373D

 33 35  0  0  1  0  0  0  0  0999 V2000
   36.3100   24.2230   32.2030 N   0  0  0  0  0  0  0  0  0  0  0  0
   35.5200   24.1710   30.9980 C   0  0  0  0  0  0  0  0  0  0  0  0
   35.1140   25.6000   30.7350 C   0  0  0  0  0  0  0  0  0  0  0  0
   35.8070   26.3880   31.8420 C   0  0  0  0  0  0  0  0  0  0  0  0
   37.0090   25.4530   32.0700 C   0  0  1  0  0  0  0  0  0  0  0  0
   34.6210   23.5280   31.1150 H   0  0  0  0  0  0  0  0  0  0  0  0
   36.1470   23.8250   30.1540 H   0  0  0  0  0  0  0  0  0  0  0  0
   34.0080   25.7430   30.8990 H   0  0  0  0  0  0  0  0  0  0  0  0
   35.4160   25.9380   29.7270 H   0  0  0  0  0  0  0  0  0  0  0  0
   35.1970   26.5350   32.7280 H   0  0  0  0  0  0  0  0  0  0  0  0
   36.2180   27.3130   31.3790 H   0  0  0  0  0  0  0  0  0  0  0  0
   37.6230   25.5300   31.1510 H   0  0  0  0  0  0  0  0  0  0  0  0
   37.7040   25.9740   33.2580 C   0  0  0  0  0  0  0  0  0  0  0  0
   39.0170   26.4190   33.0530 C   0  0  0  0  0  0  0  0  0  0  0  0
   39.4730   26.3450   32.0550 H   0  0  0  0  0  0  0  0  0  0  0  0
   39.8400   26.9620   34.0040 C   0  0  0  0  0  0  0  0  0  0  0  0
   39.3650   27.0950   35.2760 C   0  0  0  0  0  0  0  0  0  0  0  0
   39.9030   27.5030   36.1150 H   0  0  0  0  0  0  0  0  0  0  0  0
   38.0800   26.6750   35.5390 C   0  0  0  0  0  0  0  0  0  0  0  0
   37.5870   26.7290   36.5160 H   0  0  0  0  0  0  0  0  0  0  0  0
   37.2830   26.1330   34.5560 C   0  0  0  0  0  0  0  0  0  0  0  0
   37.3190   23.1700   32.1970 C   0  0  0  0  0  0  0  0  0  0  0  0
   38.0930   23.3570   32.9750 H   0  0  0  0  0  0  0  0  0  0  0  0
   37.8720   23.2360   31.2200 H   0  0  0  0  0  0  0  0  0  0  0  0
   36.3080   19.6790   31.1830 C   0  0  0  0  0  0  0  0  0  0  0  0
   36.8580   20.9610   31.1610 C   0  0  0  0  0  0  0  0  0  0  0  0
   36.7340   21.8170   32.2490 C   0  0  0  0  0  0  0  0  0  0  0  0
   36.0530   21.3470   33.3350 N   0  0  0  0  0  0  0  0  0  0  0  0
   35.5190   20.0910   33.3490 C   0  0  0  0  0  0  0  0  0  0  0  0
   35.6490   19.2780   32.2870 N   0  0  0  0  0  0  0  0  0  0  0  0
   36.3830   18.9850   30.3570 H   0  0  0  0  0  0  0  0  0  0  0  0
   37.3680   21.2060   30.2680 H   0  0  0  0  0  0  0  0  0  0  0  0
   35.0150   19.8790   34.2820 H   0  0  0  0  0  0  0  0  0  0  0  0
  2  6  1  0  0  0  0
  2  1  1  0  0  0  0
  3  8  1  0  0  0  0
  3  2  1  0  0  0  0
  3  4  1  0  0  0  0
  4  5  1  0  0  0  0
  4 10  1  0  0  0  0
  5 12  1  6  0  0  0
  5  1  1  0  0  0  0
  5 13  1  0  0  0  0
  7  2  1  0  0  0  0
  9  3  1  0  0  0  0
 11  4  1  0  0  0  0
 13 21  1  0  0  0  0
 14 13  2  0  0  0  0
 14 16  1  0  0  0  0
 15 14  1  0  0  0  0
 16 17  2  0  0  0  0
 17 19  1  0  0  0  0
 17 18  1  0  0  0  0
 19 20  1  0  0  0  0
 21 19  2  0  0  0  0
 22  1  1  0  0  0  0
 22 27  1  0  0  0  0
 22 23  1  0  0  0  0
 24 22  1  0  0  0  0
 25 30  1  0  0  0  0
 26 25  2  0  0  0  0
 26 27  1  0  0  0  0
 27 28  2  0  0  0  0
 28 29  1  0  0  0  0
 29 33  1  0  0  0  0
 30 29  2  0  0  0  0
 31 25  1  0  0  0  0
 32 26  1  0  0  0  0
M  END
>  <minimizedAffinity>
-4.57133961

>  <minimizedRMSD>
4.5609436

$$$$
