
 OpenBabel03262519313D

 33 36  0  0  0  0  0  0  0  0999 V2000
   39.5810   22.9590   37.2870 C   0  0  0  0  0  0  0  0  0  0  0  0
   39.0220   23.2040   38.5540 C   0  0  0  0  0  0  0  0  0  0  0  0
   38.0590   24.2290   38.6360 C   0  0  0  0  0  0  0  0  0  0  0  0
   37.7250   24.9110   37.5240 N   0  0  0  0  0  0  0  0  0  0  0  0
   38.2960   24.6360   36.3130 C   0  0  0  0  0  0  0  0  0  0  0  0
   39.2070   23.6720   36.2160 N   0  0  0  0  0  0  0  0  0  0  0  0
   39.2680   22.6790   39.4540 H   0  0  0  0  0  0  0  0  0  0  0  0
   37.5900   24.4720   39.5800 H   0  0  0  0  0  0  0  0  0  0  0  0
   37.8930   25.4080   35.1410 C   0  0  0  0  0  0  0  0  0  0  0  0
   37.9150   24.8280   33.8860 C   0  0  0  0  0  0  0  0  0  0  0  0
   38.2310   23.8010   33.7660 H   0  0  0  0  0  0  0  0  0  0  0  0
   37.5340   25.5610   32.7810 C   0  0  0  0  0  0  0  0  0  0  0  0
   37.1350   26.8700   32.9510 C   0  0  0  0  0  0  0  0  0  0  0  0
   36.8480   27.3870   32.0310 H   0  0  0  0  0  0  0  0  0  0  0  0
   37.0890   27.5160   34.1850 C   0  0  0  0  0  0  0  0  0  0  0  0
   36.7740   28.5270   34.2650 H   0  0  0  0  0  0  0  0  0  0  0  0
   37.4840   26.7310   35.2680 C   0  0  0  0  0  0  0  0  0  0  0  0
   40.5110   21.9690   37.2050 O   0  0  0  0  0  0  0  0  0  0  0  0
   41.7940   22.0950   36.7330 C   0  0  0  0  0  0  0  0  0  0  0  0
   42.3630   23.2370   36.1730 C   0  0  0  0  0  0  0  0  0  0  0  0
   43.6310   23.0180   35.8170 N   0  0  0  0  0  0  0  0  0  0  0  0
   43.9630   21.7510   36.1140 C   0  0  0  0  0  0  0  0  0  0  0  0
   45.1270   21.0110   35.9610 C   0  0  0  0  0  0  0  0  0  0  0  0
   45.1640   19.6880   36.3740 C   0  0  0  0  0  0  0  0  0  0  0  0
   44.0340   19.1100   36.9400 C   0  0  0  0  0  0  0  0  0  0  0  0
   42.8690   19.8640   37.0890 C   0  0  0  0  0  0  0  0  0  0  0  0
   42.8390   21.1950   36.6710 C   0  0  0  0  0  0  0  0  0  0  0  0
   41.8710   24.2100   36.0250 H   0  0  0  0  0  0  0  0  0  0  0  0
   44.3210   23.6650   35.3770 H   0  0  0  0  0  0  0  0  0  0  0  0
   46.0120   21.4240   35.5290 H   0  0  0  0  0  0  0  0  0  0  0  0
   46.0360   19.0440   36.2880 H   0  0  0  0  0  0  0  0  0  0  0  0
   43.9670   18.0780   37.2950 H   0  0  0  0  0  0  0  0  0  0  0  0
   41.9720   19.4250   37.5330 H   0  0  0  0  0  0  0  0  0  0  0  0
  1  2  1  0  0  0  0
  2  3  2  0  0  0  0
  2  7  1  0  0  0  0
  3  8  1  0  0  0  0
  4  3  1  0  0  0  0
  5  4  2  0  0  0  0
  6  5  1  0  0  0  0
  6  1  2  0  0  0  0
  9 17  1  0  0  0  0
  9  5  1  0  0  0  0
 10  9  2  0  0  0  0
 11 10  1  0  0  0  0
 12 13  2  0  0  0  0
 12 10  1  0  0  0  0
 13 15  1  0  0  0  0
 14 13  1  0  0  0  0
 15 16  1  0  0  0  0
 15 17  2  0  0  0  0
 18  1  1  0  0  0  0
 19 18  1  0  0  0  0
 20 19  2  0  0  0  0
 21 22  1  0  0  0  0
 21 20  1  0  0  0  0
 22 27  1  0  0  0  0
 23 22  2  0  0  0  0
 23 24  1  0  0  0  0
 24 25  2  0  0  0  0
 25 26  1  0  0  0  0
 25 32  1  0  0  0  0
 26 33  1  0  0  0  0
 27 19  1  0  0  0  0
 27 26  2  0  0  0  0
 28 20  1  0  0  0  0
 29 21  1  0  0  0  0
 30 23  1  0  0  0  0
 31 24  1  0  0  0  0
M  END
>  <minimizedAffinity>
-5.44094706

>  <minimizedRMSD>
1.46282661

$$$$
