
 OpenBabel03262519573D

 32 35  0  0  1  0  0  0  0  0999 V2000
   37.8740   27.1100   32.3850 C   0  0  0  0  0  0  0  0  0  0  0  0
   36.8200   27.6780   31.6710 C   0  0  0  0  0  0  0  0  0  0  0  0
   36.0120   28.1990   32.6360 N   0  0  0  0  0  0  0  0  0  0  0  0
   36.5700   27.9430   33.8180 C   0  0  0  0  0  0  0  0  0  0  0  0
   37.7310   27.2670   33.6960 N   0  0  0  0  0  0  0  0  0  0  0  0
   36.7540   27.6550   30.5830 H   0  0  0  0  0  0  0  0  0  0  0  0
   36.1110   28.2600   34.7680 H   0  0  0  0  0  0  0  0  0  0  0  0
   39.0030   26.4250   31.7820 C   0  0  0  0  0  0  0  0  0  0  0  0
   38.9600   25.0370   31.5610 C   0  0  0  0  0  0  0  0  0  0  0  0
   40.0830   24.4260   30.9740 C   0  0  0  0  0  0  0  0  0  0  0  0
   41.1340   25.2030   30.6570 N   0  0  0  0  0  0  0  0  0  0  0  0
   41.1510   26.5420   30.8800 C   0  0  0  0  0  0  0  0  0  0  0  0
   40.0920   27.1470   31.4400 N   0  0  0  0  0  0  0  0  0  0  0  0
   38.1120   24.4500   31.8250 H   0  0  0  0  0  0  0  0  0  0  0  0
   40.1320   23.3720   30.7720 H   0  0  0  0  0  0  0  0  0  0  0  0
   41.9950   27.1670   30.6260 H   0  0  0  0  0  0  0  0  0  0  0  0
   38.5440   26.8600   34.7990 C   0  0  1  0  0  0  0  0  0  0  0  0
   38.3610   27.3490   36.1530 C   0  0  0  0  0  0  0  0  0  0  0  0
   37.7930   25.9860   35.7890 C   0  0  2  0  0  0  0  0  0  0  0  0
   39.5650   26.5710   34.5010 H   0  0  0  0  0  0  0  0  0  0  0  0
   39.1740   27.4240   36.8790 H   0  0  0  0  0  0  0  0  0  0  0  0
   37.5880   28.1590   36.2820 H   0  0  0  0  0  0  0  0  0  0  0  0
   36.7080   25.8900   35.7410 H   0  0  0  0  0  0  0  0  0  0  0  0
   38.4870   24.8390   36.4250 C   0  0  0  0  0  0  0  0  0  0  0  0
   38.0470   24.4500   37.6940 C   0  0  0  0  0  0  0  0  0  0  0  0
   37.2300   24.9630   38.1970 H   0  0  0  0  0  0  0  0  0  0  0  0
   38.6760   23.3870   38.3090 C   0  0  0  0  0  3  0  0  0  0  0  0
   39.7210   22.7470   37.6390 C   0  0  0  0  0  0  0  0  0  0  0  0
   40.2180   21.9140   38.1160 H   0  0  0  0  0  0  0  0  0  0  0  0
   40.1500   23.1460   36.3760 C   0  0  0  0  0  0  0  0  0  0  0  0
   40.9790   22.6020   35.8990 H   0  0  0  0  0  0  0  0  0  0  0  0
   39.5180   24.2140   35.7580 C   0  0  0  0  0  3  0  0  0  0  0  0
  1  5  1  0  0  0  0
  2  1  2  0  0  0  0
  2  3  1  0  0  0  0
  3  4  2  0  0  0  0
  4  7  1  0  0  0  0
  5  4  1  0  0  0  0
  5 17  1  0  0  0  0
  6  2  1  0  0  0  0
  8  1  1  0  0  0  0
  9  8  1  0  0  0  0
  9 14  1  0  0  0  0
 10  9  2  0  0  0  0
 11 12  2  0  0  0  0
 11 10  1  0  0  0  0
 12 13  1  0  0  0  0
 13  8  2  0  0  0  0
 15 10  1  0  0  0  0
 16 12  1  0  0  0  0
 17 20  1  6  0  0  0
 17 19  1  0  0  0  0
 17 18  1  0  0  0  0
 18 22  1  0  0  0  0
 18 21  1  0  0  0  0
 19 23  1  6  0  0  0
 19 18  1  0  0  0  0
 19 24  1  0  0  0  0
 24 25  1  0  0  0  0
 25 26  1  0  0  0  0
 25 27  2  0  0  0  0
 28 29  1  0  0  0  0
 28 27  1  0  0  0  0
 30 28  2  0  0  0  0
 31 30  1  0  0  0  0
 32 30  1  0  0  0  0
 32 24  2  0  0  0  0
M  END
>  <minimizedAffinity>
-4.93832493

>  <minimizedRMSD>
6.75594187

$$$$
