
 OpenBabel03262519533D

 34 36  0  0  1  0  0  0  0  0999 V2000
   40.1920   25.2730   35.1650 C   0  0  0  0  0  0  0  0  0  0  0  0
   40.1650   26.1380   34.4860 H   0  0  0  0  0  0  0  0  0  0  0  0
   40.3650   25.6310   36.1860 H   0  0  0  0  0  0  0  0  0  0  0  0
   38.8110   24.5720   35.1530 C   0  0  2  0  0  0  0  0  0  0  0  0
   38.0050   24.6860   36.4100 C   0  0  0  0  0  0  0  0  0  0  0  0
   38.5690   23.4280   36.0800 C   0  0  1  0  0  0  0  0  0  0  0  0
   38.3430   24.6580   34.1740 H   0  0  0  0  0  0  0  0  0  0  0  0
   36.9290   24.8920   36.2340 H   0  0  0  0  0  0  0  0  0  0  0  0
   38.3850   25.4980   37.0710 H   0  0  0  0  0  0  0  0  0  0  0  0
   39.3780   22.7890   36.2360 H   0  0  0  0  0  0  0  0  0  0  0  0
   37.5330   22.4110   35.6340 C   0  0  0  0  0  0  0  0  0  0  0  0
   37.4950   22.0620   34.2810 C   0  0  0  0  0  0  0  0  0  0  0  0
   38.1450   22.4430   33.5410 H   0  0  0  0  0  0  0  0  0  0  0  0
   36.5960   21.1680   33.7760 C   0  0  0  0  0  0  0  0  0  0  0  0
   35.6760   20.5630   34.6030 C   0  0  0  0  0  0  0  0  0  0  0  0
   34.9440   19.8510   34.2500 H   0  0  0  0  0  0  0  0  0  0  0  0
   35.6520   20.8560   35.9430 C   0  0  0  0  0  0  0  0  0  0  0  0
   34.9850   20.4550   36.6920 H   0  0  0  0  0  0  0  0  0  0  0  0
   36.5650   21.7550   36.4090 C   0  0  0  0  0  0  0  0  0  0  0  0
   41.1880   24.3080   34.7460 C   0  0  0  0  0  0  0  0  0  0  0  0
   41.2020   24.0690   33.6750 H   0  0  0  0  0  0  0  0  0  0  0  0
   40.7670   23.4420   35.3610 H   0  0  0  0  0  0  0  0  0  0  0  0
   44.1150   23.7210   36.6880 C   0  0  0  0  0  0  0  0  0  0  0  0
   42.8400   23.4770   36.1570 C   0  0  0  0  0  0  0  0  0  0  0  0
   42.4850   24.4900   35.3080 C   0  0  0  0  0  0  0  0  0  0  0  0
   43.3030   25.5730   35.0450 N   0  0  0  0  0  0  0  0  0  0  0  0
   44.4870   25.7200   35.5890 C   0  0  0  0  0  0  0  0  0  0  0  0
   44.8850   24.7860   36.4110 N   0  0  0  0  0  0  0  0  0  0  0  0
   44.6230   23.0440   37.4030 H   0  0  0  0  0  0  0  0  0  0  0  0
   44.9720   26.6230   35.2620 H   0  0  0  0  0  0  0  0  0  0  0  0
   42.1750   22.2980   36.5550 C   0  0  0  0  0  0  0  0  0  0  0  0
   41.1870   22.5380   37.5480 F   0  0  0  0  0  0  0  0  0  0  0  0
   42.7770   21.4040   37.3630 F   0  0  0  0  0  0  0  0  0  0  0  0
   41.1930   21.7320   35.7230 F   0  0  0  0  0  0  0  0  0  0  0  0
  1  3  1  0  0  0  0
  2  1  1  0  0  0  0
  4  7  1  6  0  0  0
  4  1  1  0  0  0  0
  4  6  1  0  0  0  0
  4  5  1  0  0  0  0
  5  9  1  0  0  0  0
  6 10  1  1  0  0  0
  6  5  1  0  0  0  0
  8  5  1  0  0  0  0
 11  6  1  0  0  0  0
 11 19  1  0  0  0  0
 12 11  2  0  0  0  0
 13 12  1  0  0  0  0
 14 12  1  0  0  0  0
 14 15  2  0  0  0  0
 15 17  1  0  0  0  0
 16 15  1  0  0  0  0
 17 19  2  0  0  0  0
 17 18  1  0  0  0  0
 20  1  1  0  0  0  0
 20 25  1  0  0  0  0
 20 22  1  0  0  0  0
 21 20  1  0  0  0  0
 23 29  1  0  0  0  0
 24 31  1  0  0  0  0
 24 23  2  0  0  0  0
 25 24  1  0  0  0  0
 26 25  2  0  0  0  0
 26 27  1  0  0  0  0
 27 28  2  0  0  0  0
 28 23  1  0  0  0  0
 30 27  1  0  0  0  0
 31 33  1  0  0  0  0
 31 32  1  0  0  0  0
 34 31  1  0  0  0  0
M  END
>  <minimizedAffinity>
-4.63267231

>  <minimizedRMSD>
2.11735296

$$$$
