
 OpenBabel03262519573D

 32 35  0  0  1  0  0  0  0  0999 V2000
   38.0690   23.7570   34.5290 C   0  0  0  0  0  0  0  0  0  0  0  0
   38.2220   24.9600   33.8390 C   0  0  0  0  0  0  0  0  0  0  0  0
   37.7680   24.6790   32.5860 N   0  0  0  0  0  0  0  0  0  0  0  0
   37.3840   23.4040   32.5660 C   0  0  0  0  0  0  0  0  0  0  0  0
   37.5580   22.8030   33.7600 N   0  0  0  0  0  0  0  0  0  0  0  0
   38.6240   25.8630   34.2970 H   0  0  0  0  0  0  0  0  0  0  0  0
   36.9760   22.9260   31.6610 H   0  0  0  0  0  0  0  0  0  0  0  0
   38.4210   23.5570   35.9230 C   0  0  0  0  0  0  0  0  0  0  0  0
   39.6380   22.9450   36.2700 C   0  0  0  0  0  0  0  0  0  0  0  0
   39.9270   22.7760   37.6370 C   0  0  0  0  0  0  0  0  0  0  0  0
   39.0220   23.2080   38.5340 N   0  0  0  0  0  0  0  0  0  0  0  0
   37.8540   23.7970   38.1730 C   0  0  0  0  0  0  0  0  0  0  0  0
   37.5560   23.9680   36.8750 N   0  0  0  0  0  0  0  0  0  0  0  0
   40.3330   22.6120   35.5350 H   0  0  0  0  0  0  0  0  0  0  0  0
   40.8330   22.3180   37.9870 H   0  0  0  0  0  0  0  0  0  0  0  0
   37.1270   24.1440   38.8930 H   0  0  0  0  0  0  0  0  0  0  0  0
   37.2320   21.4360   34.0270 C   0  0  1  0  0  0  0  0  0  0  0  0
   35.9580   21.0080   34.5740 C   0  0  0  0  0  0  0  0  0  0  0  0
   36.1830   20.8880   33.0750 C   0  0  2  0  0  0  0  0  0  0  0  0
   38.1140   20.8180   34.2610 H   0  0  0  0  0  0  0  0  0  0  0  0
   35.8370   20.1080   35.1810 H   0  0  0  0  0  0  0  0  0  0  0  0
   35.2520   21.8340   34.8770 H   0  0  0  0  0  0  0  0  0  0  0  0
   35.6130   21.5540   32.4260 H   0  0  0  0  0  0  0  0  0  0  0  0
   36.3010   19.4950   32.5790 C   0  0  0  0  0  0  0  0  0  0  0  0
   37.4730   19.1580   31.8970 C   0  0  0  0  0  0  0  0  0  0  0  0
   38.2680   19.8830   31.7320 H   0  0  0  0  0  0  0  0  0  0  0  0
   37.6100   17.8680   31.4270 C   0  0  0  0  0  3  0  0  0  0  0  0
   36.5750   16.9580   31.6520 C   0  0  0  0  0  0  0  0  0  0  0  0
   36.6750   15.9450   31.2850 H   0  0  0  0  0  0  0  0  0  0  0  0
   35.4120   17.3080   32.3330 C   0  0  0  0  0  0  0  0  0  0  0  0
   34.6320   16.5460   32.4800 H   0  0  0  0  0  0  0  0  0  0  0  0
   35.2740   18.6040   32.8070 C   0  0  0  0  0  3  0  0  0  0  0  0
  1  8  1  0  0  0  0
  2  6  1  0  0  0  0
  2  1  2  0  0  0  0
  3  2  1  0  0  0  0
  4  3  2  0  0  0  0
  4  5  1  0  0  0  0
  5 17  1  0  0  0  0
  5  1  1  0  0  0  0
  7  4  1  0  0  0  0
  8  9  2  0  0  0  0
  8 13  1  0  0  0  0
  9 10  1  0  0  0  0
 10 15  1  0  0  0  0
 10 11  2  0  0  0  0
 12 11  1  0  0  0  0
 12 16  1  0  0  0  0
 13 12  2  0  0  0  0
 14  9  1  0  0  0  0
 17 20  1  1  0  0  0
 17 18  1  0  0  0  0
 18 22  1  0  0  0  0
 18 21  1  0  0  0  0
 19 23  1  6  0  0  0
 19 17  1  0  0  0  0
 19 18  1  0  0  0  0
 24 32  1  0  0  0  0
 24 19  1  0  0  0  0
 25 24  2  0  0  0  0
 26 25  1  0  0  0  0
 27 28  2  0  0  0  0
 27 25  1  0  0  0  0
 28 30  1  0  0  0  0
 29 28  1  0  0  0  0
 30 31  1  0  0  0  0
 30 32  2  0  0  0  0
M  END
>  <minimizedAffinity>
-5.11429644

>  <minimizedRMSD>
0.869679511

$$$$
