
 OpenBabel03262519583D

 33 36  0  0  1  0  0  0  0  0999 V2000
   37.2600   21.5120   34.0760 C   0  0  1  0  0  0  0  0  0  0  0  0
   36.0430   21.0850   34.7400 C   0  0  0  0  0  0  0  0  0  0  0  0
   36.1070   21.0340   33.2210 C   0  0  2  0  0  0  0  0  0  0  0  0
   38.1600   20.8640   34.1610 H   0  0  0  0  0  0  0  0  0  0  0  0
   35.3720   21.8960   35.1250 H   0  0  0  0  0  0  0  0  0  0  0  0
   35.9650   20.1670   35.3250 H   0  0  0  0  0  0  0  0  0  0  0  0
   35.4920   21.7220   32.6430 H   0  0  0  0  0  0  0  0  0  0  0  0
   38.0940   23.8400   34.6310 C   0  0  0  0  0  0  0  0  0  0  0  0
   38.2380   25.0540   33.9680 C   0  0  0  0  0  0  0  0  0  0  0  0
   37.7800   24.7890   32.7140 N   0  0  0  0  0  0  0  0  0  0  0  0
   37.4020   23.5270   32.6600 C   0  0  0  0  0  0  0  0  0  0  0  0
   37.5840   22.8930   33.8460 N   0  0  0  0  0  0  0  0  0  0  0  0
   38.6360   25.9420   34.4420 H   0  0  0  0  0  0  0  0  0  0  0  0
   37.0110   23.1620   31.7190 H   0  0  0  0  0  0  0  0  0  0  0  0
   38.4560   23.6070   36.0320 C   0  0  0  0  0  0  0  0  0  0  0  0
   39.6690   23.0040   36.3570 C   0  0  0  0  0  0  0  0  0  0  0  0
   39.9760   22.7990   37.7190 C   0  0  0  0  0  0  0  0  0  0  0  0
   39.0610   23.2060   38.6220 N   0  0  0  0  0  0  0  0  0  0  0  0
   37.8890   23.7890   38.2830 C   0  0  0  0  0  0  0  0  0  0  0  0
   37.5700   23.9980   36.9860 N   0  0  0  0  0  0  0  0  0  0  0  0
   40.3210   22.7200   35.5570 H   0  0  0  0  0  0  0  0  0  0  0  0
   40.9110   22.3350   37.9590 H   0  0  0  0  0  0  0  0  0  0  0  0
   37.1820   24.1010   39.0440 H   0  0  0  0  0  0  0  0  0  0  0  0
   36.4410   17.1240   31.5230 C   0  0  0  0  0  0  0  0  0  0  0  0
   37.4350   18.0460   31.2660 C   0  0  0  0  0  3  0  0  0  0  0  0
   37.2610   19.2770   31.8420 C   0  0  0  0  0  3  0  0  0  0  0  0
   36.1990   19.6540   32.6380 C   0  0  0  0  0  0  0  0  0  0  0  0
   35.2130   18.7010   32.8780 C   0  0  0  0  0  3  0  0  0  0  0  0
   35.3630   17.4510   32.3080 C   0  0  0  0  0  3  0  0  0  0  0  0
   35.7080   14.7050   31.4260 H   0  0  0  0  0  0  0  0  0  0  0  0
   36.5990   15.5240   30.8150 S   0  0  0  0  0  0  0  0  0  0  0  0
   36.2550   15.6140   29.3460 O   0  0  0  0  0  0  0  0  0  0  0  0
   38.0050   15.0090   30.9500 O   0  0  0  0  0  0  0  0  0  0  0  0
  1  4  1  1  0  0  0
  1  2  1  0  0  0  0
  2  5  1  0  0  0  0
  2  6  1  0  0  0  0
  3  7  1  6  0  0  0
  3  1  1  0  0  0  0
  3  2  1  0  0  0  0
  8 15  1  0  0  0  0
  9 13  1  0  0  0  0
  9  8  2  0  0  0  0
 10  9  1  0  0  0  0
 11 10  2  0  0  0  0
 11 12  1  0  0  0  0
 12  1  1  0  0  0  0
 12  8  1  0  0  0  0
 14 11  1  0  0  0  0
 15 16  2  0  0  0  0
 15 20  1  0  0  0  0
 16 17  1  0  0  0  0
 17 22  1  0  0  0  0
 17 18  2  0  0  0  0
 19 18  1  0  0  0  0
 19 23  1  0  0  0  0
 20 19  2  0  0  0  0
 21 16  1  0  0  0  0
 24 29  1  0  0  0  0
 25 24  2  0  0  0  0
 25 26  1  0  0  0  0
 26 27  2  0  0  0  0
 27 28  1  0  0  0  0
 27  3  1  0  0  0  0
 29 28  2  0  0  0  0
 31 33  2  0  0  0  0
 31 30  1  0  0  0  0
 31 24  1  0  0  0  0
 32 31  2  0  0  0  0
M  END
>  <minimizedAffinity>
-5.10903406

>  <minimizedRMSD>
1.04278708

$$$$
