
 OpenBabel03262515153D

 40 43  0  0  0  0  0  0  0  0999 V2000
   39.0710   23.3860   30.6840 C   0  0  0  0  0  0  0  0  0  0  0  0
   40.0180   22.5900   30.1360 N   0  0  0  0  0  0  0  0  0  0  0  0
   39.8490   21.2840   29.8610 C   0  0  0  0  0  0  0  0  0  0  0  0
   38.6880   20.6670   30.1230 N   0  0  0  0  0  0  0  0  0  0  0  0
   37.6840   21.3910   30.6730 C   0  0  0  0  0  0  0  0  0  0  0  0
   36.5120   20.7120   30.9230 C   0  0  0  0  0  0  0  0  0  0  0  0
   35.4720   21.4040   31.4830 C   0  0  0  0  0  0  0  0  0  0  0  0
   35.6470   22.7550   31.7750 C   0  0  0  0  0  0  0  0  0  0  0  0
   36.8610   23.3580   31.4880 C   0  0  0  0  0  0  0  0  0  0  0  0
   37.9110   22.7190   30.9340 C   0  0  0  0  0  0  0  0  0  0  0  0
   40.7060   20.8020   29.4270 H   0  0  0  0  0  0  0  0  0  0  0  0
   36.4350   19.6560   30.6760 H   0  0  0  0  0  0  0  0  0  0  0  0
   34.5670   20.7980   31.6530 H   0  0  0  0  0  0  0  0  0  0  0  0
   34.7280   23.1300   32.2090 H   0  0  0  0  0  0  0  0  0  0  0  0
   39.7850   26.8060   32.0170 C   0  0  0  0  0  0  0  0  0  0  0  0
   39.4830   27.5760   30.9110 C   0  0  0  0  0  0  0  0  0  0  0  0
   39.0580   26.8870   29.7850 C   0  0  0  0  0  0  0  0  0  0  0  0
   38.9800   25.5510   29.8840 N   0  0  0  0  0  0  0  0  0  0  0  0
   39.2680   24.7990   30.9540 C   0  0  0  0  0  0  0  0  0  0  0  0
   39.6730   25.5030   32.0020 N   0  0  0  0  0  0  0  0  0  0  0  0
   38.7070   27.5510   28.5850 N   0  0  0  0  0  0  0  0  0  0  0  0
   39.5210   27.5250   27.4160 C   0  0  0  0  0  0  0  0  0  0  0  0
   39.9990   26.3290   27.1140 N   0  0  0  0  0  0  0  0  0  0  0  0
   39.7170   28.7840   26.7230 N   0  0  0  0  0  0  0  0  0  0  0  0
   40.5900   26.2600   26.2700 H   0  0  0  0  0  0  0  0  0  0  0  0
   40.1290   27.2650   32.9450 H   0  0  0  0  0  0  0  0  0  0  0  0
   39.5710   28.6410   30.9080 H   0  0  0  0  0  0  0  0  0  0  0  0
   37.7880   28.0940   28.5770 H   0  0  0  0  0  0  0  0  0  0  0  0
   40.7170   29.0660   26.5550 H   0  0  0  0  0  0  0  0  0  0  0  0
   38.8510   29.3010   26.4530 H   0  0  0  0  0  0  0  0  0  0  0  0
   36.1130   27.5070   32.1560 C   0  0  0  0  0  0  0  0  0  0  0  0
   35.6980   26.7980   31.0500 C   0  0  0  0  0  0  0  0  0  0  0  0
   35.9800   25.4480   30.9540 C   0  0  0  0  0  0  0  0  0  0  0  0
   36.6880   24.7230   31.9430 C   0  0  0  0  0  0  0  0  0  0  0  0
   37.0720   25.4940   33.0190 C   0  0  0  0  0  0  0  0  0  0  0  0
   36.8050   26.8360   33.1380 C   0  0  0  0  0  0  0  0  0  0  0  0
   34.5280   29.4560   31.9630 H   0  0  0  0  0  0  0  0  0  0  0  0
   35.8150   29.1970   32.3780 S   0  0  0  0  0  0  0  0  0  0  0  0
   36.7210   30.0580   31.5390 O   0  0  0  0  0  0  0  0  0  0  0  0
   35.8760   29.6130   33.8160 O   0  0  0  0  0  0  0  0  0  0  0  0
  1 10  1  0  0  0  0
  1 19  1  0  0  0  0
  2  1  2  0  0  0  0
  3  4  2  0  0  0  0
  3  2  1  0  0  0  0
  4  5  1  0  0  0  0
  5  6  2  0  0  0  0
  5 10  1  0  0  0  0
  6  7  1  0  0  0  0
  7 13  1  0  0  0  0
  7  8  2  0  0  0  0
  8 14  1  0  0  0  0
  9  8  1  0  0  0  0
  9 34  1  0  0  0  0
 10  9  2  0  0  0  0
 11  3  1  0  0  0  0
 12  6  1  0  0  0  0
 15 26  1  0  0  0  0
 16 15  2  0  0  0  0
 17 18  2  0  0  0  0
 17 16  1  0  0  0  0
 18 19  1  0  0  0  0
 19 20  2  0  0  0  0
 20 15  1  0  0  0  0
 21 17  1  0  0  0  0
 22 21  1  0  0  0  0
 23 22  2  0  0  0  0
 24 22  1  0  0  0  0
 25 23  1  0  0  0  0
 27 16  1  0  0  0  0
 28 21  1  0  0  0  0
 29 24  1  0  0  0  0
 30 24  1  0  0  0  0
 31 38  1  0  0  0  0
 31 36  1  0  0  0  0
 32 31  2  0  0  0  0
 33 32  1  0  0  0  0
 33 34  2  0  0  0  0
 34 35  1  0  0  0  0
 35 36  2  0  0  0  0
 37 38  1  0  0  0  0
 38 40  2  0  0  0  0
 39 38  2  0  0  0  0
M  END
>  <minimizedAffinity>
-5.79890585

>  <minimizedRMSD>
6.11933947

$$$$
