
 OpenBabel03262517523D

 25 27  0  0  0  0  0  0  0  0999 V2000
   37.8120   23.4000   36.3960 C   0  0  0  0  0  0  0  0  0  0  0  0
   39.1470   23.0960   36.0480 C   0  0  0  0  0  0  0  0  0  0  0  0
   40.0820   22.9330   37.0530 C   0  0  0  0  0  0  0  0  0  0  0  0
   39.6820   23.0730   38.3500 N   0  0  0  0  0  0  0  0  0  0  0  0
   38.4100   23.3610   38.6620 C   0  0  0  0  0  0  0  0  0  0  0  0
   37.4770   23.5250   37.6880 N   0  0  0  0  0  0  0  0  0  0  0  0
   37.0560   23.5340   35.6380 H   0  0  0  0  0  0  0  0  0  0  0  0
   38.0500   23.4820   39.6760 H   0  0  0  0  0  0  0  0  0  0  0  0
   39.4120   22.9960   34.6580 N   0  0  0  0  0  0  0  0  0  0  0  0
   39.8390   23.9430   33.7540 C   0  0  0  0  0  0  0  0  0  0  0  0
   39.9370   23.3340   32.5370 N   0  0  0  0  0  0  0  0  0  0  0  0
   39.5740   22.0400   32.7050 C   0  0  0  0  0  0  0  0  0  0  0  0
   39.2490   21.8320   34.0230 N   0  0  0  0  0  0  0  0  0  0  0  0
   40.0390   24.9650   34.0390 H   0  0  0  0  0  0  0  0  0  0  0  0
   39.5530   21.3020   31.9110 H   0  0  0  0  0  0  0  0  0  0  0  0
   43.9880   21.5410   36.1460 C   0  0  0  0  0  0  0  0  0  0  0  0
   43.7190   22.8840   36.0070 C   0  0  0  0  0  0  0  0  0  0  0  0
   42.4790   23.4210   36.2780 C   0  0  0  0  0  0  0  0  0  0  0  0
   41.4380   22.6240   36.7070 C   0  0  0  0  0  0  0  0  0  0  0  0
   41.6990   21.2560   36.8510 C   0  0  0  0  0  0  0  0  0  0  0  0
   42.9640   20.7270   36.5710 C   0  0  0  0  0  0  0  0  0  0  0  0
   45.8430   19.7820   36.4950 H   0  0  0  0  0  0  0  0  0  0  0  0
   45.5760   20.9310   35.7870 S   0  0  0  0  0  0  0  0  0  0  0  0
   46.6010   21.9390   36.2210 O   0  0  0  0  0  0  0  0  0  0  0  0
   45.7480   20.6000   34.3200 O   0  0  0  0  0  0  0  0  0  0  0  0
  1  6  1  0  0  0  0
  2  1  2  0  0  0  0
  2  3  1  0  0  0  0
  3  4  2  0  0  0  0
  4  5  1  0  0  0  0
  5  8  1  0  0  0  0
  6  5  2  0  0  0  0
  7  1  1  0  0  0  0
  9  2  1  0  0  0  0
 10 14  1  0  0  0  0
 10  9  1  0  0  0  0
 11 12  1  0  0  0  0
 11 10  2  0  0  0  0
 12 13  2  0  0  0  0
 13  9  1  0  0  0  0
 15 12  1  0  0  0  0
 16 21  1  0  0  0  0
 17 16  2  0  0  0  0
 17 18  1  0  0  0  0
 18 19  2  0  0  0  0
 19 20  1  0  0  0  0
 19  3  1  0  0  0  0
 21 20  2  0  0  0  0
 23 16  1  0  0  0  0
 23 24  2  0  0  0  0
 23 22  1  0  0  0  0
 25 23  2  0  0  0  0
M  END
>  <minimizedAffinity>
-4.14936209

>  <minimizedRMSD>
3.48197794

$$$$
