
 OpenBabel03262519093D

 38 41  0  0  1  0  0  0  0  0999 V2000
   37.7870   25.6960   34.3560 C   0  0  0  0  0  0  0  0  0  0  0  0
   38.7520   26.1980   34.6060 H   0  0  0  0  0  0  0  0  0  0  0  0
   37.2150   25.6480   35.3250 H   0  0  0  0  0  0  0  0  0  0  0  0
   37.0330   26.6370   33.4920 C   0  0  0  0  0  0  0  0  0  0  0  0
   36.6650   26.5230   32.1670 C   0  0  0  0  0  0  0  0  0  0  0  0
   35.9520   27.4790   31.4800 C   0  0  0  0  0  0  0  0  0  0  0  0
   35.5960   28.6170   32.1920 C   0  0  0  0  0  0  0  0  0  0  0  0
   35.9770   28.6990   33.5040 C   0  0  0  0  0  0  0  0  0  0  0  0
   36.6700   27.7640   34.1610 N   0  0  0  0  0  0  0  0  0  0  0  0
   37.0050   25.5900   31.7330 H   0  0  0  0  0  0  0  0  0  0  0  0
   35.7540   27.2170   30.4470 H   0  0  0  0  0  0  0  0  0  0  0  0
   35.0390   29.3320   31.6070 H   0  0  0  0  0  0  0  0  0  0  0  0
   34.7450   32.2430   35.5550 C   0  0  0  0  0  0  0  0  0  0  0  0
   34.1150   31.8220   34.4040 C   0  0  0  0  0  0  0  0  0  0  0  0
   34.5540   30.6580   33.7690 C   0  0  0  0  0  0  0  0  0  0  0  0
   35.6000   29.8980   34.2460 C   0  0  0  0  0  0  0  0  0  0  0  0
   36.1930   30.3590   35.3950 C   0  0  0  0  0  0  0  0  0  0  0  0
   35.7950   31.5030   36.0560 C   0  0  0  0  0  0  0  0  0  0  0  0
   33.1740   34.2530   35.6780 H   0  0  0  0  0  0  0  0  0  0  0  0
   34.2200   33.6990   36.3780 S   0  0  0  0  0  0  0  0  0  0  0  0
   35.3480   34.6740   36.5730 O   0  0  0  0  0  0  0  0  0  0  0  0
   33.7000   33.2760   37.7310 O   0  0  0  0  0  0  0  0  0  0  0  0
   38.3170   23.1260   34.5960 C   0  0  2  0  0  0  0  0  0  0  0  0
   39.3140   23.8130   33.7320 C   0  0  0  0  0  0  0  0  0  0  0  0
   37.9080   24.3280   33.8260 C   0  0  2  0  0  0  0  0  0  0  0  0
   37.8360   22.1940   34.2940 H   0  0  0  0  0  0  0  0  0  0  0  0
   40.1400   24.3580   34.2250 H   0  0  0  0  0  0  0  0  0  0  0  0
   39.6680   23.2820   32.8200 H   0  0  0  0  0  0  0  0  0  0  0  0
   37.3290   24.1290   32.8790 H   0  0  0  0  0  0  0  0  0  0  0  0
   39.8500   22.9510   37.9220 C   0  0  0  0  0  0  0  0  0  0  0  0
   38.8580   23.4500   38.7950 C   0  0  0  0  0  0  0  0  0  0  0  0
   37.6300   23.8560   38.1740 C   0  0  0  0  0  0  0  0  0  0  0  0
   37.5120   23.7350   36.8330 N   0  0  0  0  0  0  0  0  0  0  0  0
   38.5260   23.2390   36.0510 C   0  0  0  0  0  0  0  0  0  0  0  0
   39.7130   22.8400   36.6000 N   0  0  0  0  0  0  0  0  0  0  0  0
   40.7600   22.6560   38.4300 H   0  0  0  0  0  0  0  0  0  0  0  0
   38.9870   23.5310   39.8440 H   0  0  0  0  0  0  0  0  0  0  0  0
   36.8230   24.2480   38.7730 H   0  0  0  0  0  0  0  0  0  0  0  0
  1  2  1  0  0  0  0
  1  3  1  0  0  0  0
  4  9  1  0  0  0  0
  4  1  1  0  0  0  0
  5  4  2  0  0  0  0
  6  5  1  0  0  0  0
  6  7  2  0  0  0  0
  7  8  1  0  0  0  0
  8  9  2  0  0  0  0
  8 16  1  0  0  0  0
 10  5  1  0  0  0  0
 11  6  1  0  0  0  0
 12  7  1  0  0  0  0
 13 18  1  0  0  0  0
 13 20  1  0  0  0  0
 14 13  2  0  0  0  0
 15 16  2  0  0  0  0
 15 14  1  0  0  0  0
 16 17  1  0  0  0  0
 17 18  2  0  0  0  0
 19 20  1  0  0  0  0
 20 21  2  0  0  0  0
 20 22  2  0  0  0  0
 23 26  1  6  0  0  0
 23 34  1  0  0  0  0
 24 25  1  0  0  0  0
 24 27  1  0  0  0  0
 24 23  1  0  0  0  0
 25 29  1  6  0  0  0
 25  1  1  0  0  0  0
 25 23  1  0  0  0  0
 28 24  1  0  0  0  0
 30 36  1  0  0  0  0
 30 31  1  0  0  0  0
 31 37  1  0  0  0  0
 32 38  1  0  0  0  0
 32 31  2  0  0  0  0
 33 32  1  0  0  0  0
 34 35  1  0  0  0  0
 34 33  2  0  0  0  0
 35 30  2  0  0  0  0
M  END
>  <minimizedAffinity>
-5.64779043

>  <minimizedRMSD>
6.89257812

$$$$
