
 OpenBabel03262517323D

 26 28  0  0  0  0  0  0  0  0999 V2000
   38.1410   21.8700   34.7080 C   0  0  0  0  0  0  0  0  0  0  0  0
   36.8960   21.4840   34.4180 C   0  0  0  0  0  0  0  0  0  0  0  0
   36.4580   20.9510   33.2660 C   0  0  0  0  0  0  0  0  0  0  0  0
   37.5670   20.8360   32.3180 C   0  0  0  0  0  0  0  0  0  0  0  0
   39.0970   21.5100   33.1990 S   0  0  0  0  0  0  0  0  0  0  0  0
   36.0030   21.5370   35.0860 H   0  0  0  0  0  0  0  0  0  0  0  0
   35.5800   20.5870   32.8180 H   0  0  0  0  0  0  0  0  0  0  0  0
   39.9820   22.7320   37.6920 C   0  0  0  0  0  0  0  0  0  0  0  0
   39.0330   23.4620   38.4490 C   0  0  0  0  0  0  0  0  0  0  0  0
   37.7400   23.6640   37.9340 C   0  0  0  0  0  0  0  0  0  0  0  0
   37.4690   23.1340   36.7070 N   0  0  0  0  0  0  0  0  0  0  0  0
   38.4080   22.4360   36.0040 C   0  0  0  0  0  0  0  0  0  0  0  0
   39.6300   22.2450   36.4930 N   0  0  0  0  0  0  0  0  0  0  0  0
   40.9540   22.6090   38.1370 H   0  0  0  0  0  0  0  0  0  0  0  0
   39.2330   23.8840   39.4160 H   0  0  0  0  0  0  0  0  0  0  0  0
   37.0160   24.2160   38.5020 H   0  0  0  0  0  0  0  0  0  0  0  0
   37.5790   19.3000   28.3610 C   0  0  0  0  0  0  0  0  0  0  0  0
   38.6250   20.0620   28.8280 C   0  0  0  0  0  0  0  0  0  0  0  0
   38.6680   20.5840   30.1030 C   0  0  0  0  0  0  0  0  0  0  0  0
   37.6120   20.3290   30.9540 C   0  0  0  0  0  0  0  0  0  0  0  0
   36.5430   19.5730   30.5340 C   0  0  0  0  0  0  0  0  0  0  0  0
   36.5580   19.0830   29.2580 C   0  0  0  0  0  0  0  0  0  0  0  0
   38.2920   17.4930   26.7690 H   0  0  0  0  0  0  0  0  0  0  0  0
   37.5720   18.6670   26.7450 S   0  0  0  0  0  0  0  0  0  0  0  0
   36.1880   18.3670   26.2500 O   0  0  0  0  0  0  0  0  0  0  0  0
   38.2850   19.6460   25.8330 O   0  0  0  0  0  0  0  0  0  0  0  0
  1 12  1  0  0  0  0
  2  1  2  0  0  0  0
  2  6  1  0  0  0  0
  3  2  1  0  0  0  0
  4  5  1  0  0  0  0
  4  3  2  0  0  0  0
  5  1  1  0  0  0  0
  7  3  1  0  0  0  0
  8 14  1  0  0  0  0
  8  9  1  0  0  0  0
  9 15  1  0  0  0  0
 10  9  2  0  0  0  0
 10 16  1  0  0  0  0
 11 10  1  0  0  0  0
 12 13  1  0  0  0  0
 12 11  2  0  0  0  0
 13  8  2  0  0  0  0
 17 18  2  0  0  0  0
 17 22  1  0  0  0  0
 18 19  1  0  0  0  0
 19 20  2  0  0  0  0
 20  4  1  0  0  0  0
 21 20  1  0  0  0  0
 22 21  2  0  0  0  0
 24 23  1  0  0  0  0
 24 17  1  0  0  0  0
 25 24  2  0  0  0  0
 26 24  2  0  0  0  0
M  END
>  <minimizedAffinity>
-4.45796919

>  <minimizedRMSD>
1.94567966

$$$$
