
 OpenBabel03262520003D

 36 39  0  0  1  0  0  0  0  0999 V2000
   40.1880   24.5060   35.9770 C   0  0  1  0  0  0  0  0  0  0  0  0
   39.1290   25.1610   35.2610 C   0  0  0  0  0  0  0  0  0  0  0  0
   38.9750   23.6700   35.7050 C   0  0  1  0  0  0  0  0  0  0  0  0
   40.3440   24.7830   37.0840 H   0  0  0  0  0  0  0  0  0  0  0  0
   38.5190   25.8930   35.8280 H   0  0  0  0  0  0  0  0  0  0  0  0
   39.1730   25.4010   34.2020 H   0  0  0  0  0  0  0  0  0  0  0  0
   42.0780   24.3080   34.3480 C   0  0  0  0  0  0  0  0  0  0  0  0
   43.2200   23.5200   34.2190 C   0  0  0  0  0  0  0  0  0  0  0  0
   43.1750   22.7030   35.3150 N   0  0  0  0  0  0  0  0  0  0  0  0
   42.0820   23.0140   36.0070 C   0  0  0  0  0  0  0  0  0  0  0  0
   41.3910   23.9940   35.4350 N   0  0  0  0  0  0  0  0  0  0  0  0
   43.9280   23.6180   33.3850 H   0  0  0  0  0  0  0  0  0  0  0  0
   41.9460   22.4200   36.9060 H   0  0  0  0  0  0  0  0  0  0  0  0
   41.6890   25.3520   33.4150 C   0  0  0  0  0  0  0  0  0  0  0  0
   42.0990   26.6840   33.6500 C   0  0  0  0  0  0  0  0  0  0  0  0
   41.7040   27.6670   32.7180 C   0  0  0  0  0  0  0  0  0  0  0  0
   40.9540   27.2640   31.6580 N   0  0  0  0  0  0  0  0  0  0  0  0
   40.5830   25.9770   31.4700 C   0  0  0  0  0  0  0  0  0  0  0  0
   40.9460   25.0210   32.3440 N   0  0  0  0  0  0  0  0  0  0  0  0
   42.6950   26.9170   34.5200 H   0  0  0  0  0  0  0  0  0  0  0  0
   42.0030   28.6940   32.8720 H   0  0  0  0  0  0  0  0  0  0  0  0
   39.9920   25.8260   30.5820 H   0  0  0  0  0  0  0  0  0  0  0  0
   37.8890   21.6330   32.0900 C   0  0  0  0  0  0  0  0  0  0  0  0
   38.9120   21.1350   32.8550 C   0  0  0  0  0  3  0  0  0  0  0  0
   39.3090   21.7430   34.0270 C   0  0  0  0  0  3  0  0  0  0  0  0
   38.6750   22.8860   34.4660 C   0  0  0  0  0  0  0  0  0  0  0  0
   37.6420   23.4010   33.7060 C   0  0  0  0  0  3  0  0  0  0  0  0
   37.2420   22.7890   32.5260 C   0  0  0  0  0  3  0  0  0  0  0  0
   37.9080   21.4570   29.4970 H   0  0  0  0  0  0  0  0  0  0  0  0
   37.4350   20.8090   30.6090 S   0  0  0  0  0  0  0  0  0  0  0  0
   35.9490   20.6280   30.5760 O   0  0  0  0  0  0  0  0  0  0  0  0
   38.0170   19.4060   30.5920 O   0  0  0  0  0  0  0  0  0  0  0  0
   37.9560   23.5510   36.8190 C   0  0  0  0  0  0  0  0  0  0  0  0
   37.3310   22.3240   36.7620 F   0  0  0  0  0  0  0  0  0  0  0  0
   38.6800   23.5100   38.0860 F   0  0  0  0  0  0  0  0  0  0  0  0
   37.1140   24.5920   36.9130 F   0  0  0  0  0  0  0  0  0  0  0  0
  1  4  1  1  0  0  0
  2  3  1  0  0  0  0
  2  5  1  0  0  0  0
  2  1  1  0  0  0  0
  3  1  1  0  0  0  0
  3 33  1  1  0  0  0
  6  2  1  0  0  0  0
  7 11  1  0  0  0  0
  8  7  2  0  0  0  0
  8  9  1  0  0  0  0
  9 10  2  0  0  0  0
 10 13  1  0  0  0  0
 11  1  1  0  0  0  0
 11 10  1  0  0  0  0
 12  8  1  0  0  0  0
 14 15  1  0  0  0  0
 14  7  1  0  0  0  0
 15 20  1  0  0  0  0
 16 21  1  0  0  0  0
 16 15  2  0  0  0  0
 17 16  1  0  0  0  0
 18 17  2  0  0  0  0
 18 19  1  0  0  0  0
 19 14  2  0  0  0  0
 22 18  1  0  0  0  0
 23 28  2  0  0  0  0
 23 24  1  0  0  0  0
 24 25  2  0  0  0  0
 25 26  1  0  0  0  0
 26  3  1  0  0  0  0
 27 26  2  0  0  0  0
 28 27  1  0  0  0  0
 29 30  1  0  0  0  0
 30 23  1  0  0  0  0
 31 30  2  0  0  0  0
 32 30  2  0  0  0  0
 33 36  1  0  0  0  0
 33 35  1  0  0  0  0
 34 33  1  0  0  0  0
M  END
>  <minimizedAffinity>
-4.02119541

>  <minimizedRMSD>
5.09245443

$$$$
