
 OpenBabel03262519483D

 42 45  0  0  1  0  0  0  0  0999 V2000
   37.6090   25.3280   32.9680 N   0  0  0  0  0  0  0  0  0  0  0  0
   37.1870   24.1430   32.5120 C   0  0  0  0  0  0  0  0  0  0  0  0
   36.2150   24.2310   31.5450 C   0  0  0  0  0  0  0  0  0  0  0  0
   36.0270   25.5460   31.3940 N   0  0  0  0  0  0  0  0  0  0  0  0
   36.8620   26.2060   32.2450 C   0  0  0  0  0  0  0  0  0  0  0  0
   37.6090   23.2060   32.9080 H   0  0  0  0  0  0  0  0  0  0  0  0
   35.7770   23.3540   31.0820 H   0  0  0  0  0  0  0  0  0  0  0  0
   36.8690   27.7100   32.2500 C   0  0  1  0  0  0  0  0  0  0  0  0
   36.1740   28.4020   31.1420 C   0  0  0  0  0  0  0  0  0  0  0  0
   35.5300   28.3820   32.5070 C   0  0  2  0  0  0  0  0  0  0  0  0
   37.7640   28.1690   32.6660 H   0  0  0  0  0  0  0  0  0  0  0  0
   35.6120   27.7290   30.4290 H   0  0  0  0  0  0  0  0  0  0  0  0
   36.4860   29.3750   30.7370 H   0  0  0  0  0  0  0  0  0  0  0  0
   34.6830   27.7370   32.7360 H   0  0  0  0  0  0  0  0  0  0  0  0
   35.8620   32.1520   34.5760 C   0  0  0  0  0  0  0  0  0  0  0  0
   35.7700   30.9640   35.2660 C   0  0  0  0  0  0  0  0  0  0  0  0
   35.6640   29.7540   34.6240 C   0  0  0  0  0  0  0  0  0  0  0  0
   35.6430   29.6590   33.2580 C   0  0  0  0  0  0  0  0  0  0  0  0
   35.7350   30.8570   32.5520 C   0  0  0  0  0  0  0  0  0  0  0  0
   35.8430   32.0860   33.2070 C   0  0  0  0  0  0  0  0  0  0  0  0
   35.4410   34.6390   34.6420 H   0  0  0  0  0  0  0  0  0  0  0  0
   35.9950   33.6640   35.4460 S   0  0  0  0  0  0  0  0  0  0  0  0
   35.2950   33.5610   36.7590 O   0  0  0  0  0  0  0  0  0  0  0  0
   37.4590   33.9850   35.6010 O   0  0  0  0  0  0  0  0  0  0  0  0
   38.5480   25.7510   33.9350 C   0  0  0  0  0  0  0  0  0  0  0  0
   39.0040   26.7390   33.6330 H   0  0  0  0  0  0  0  0  0  0  0  0
   39.4460   25.0690   33.9760 H   0  0  0  0  0  0  0  0  0  0  0  0
   37.9880   25.8490   35.3050 C   0  0  1  0  0  0  0  0  0  0  0  0
   36.8670   25.7180   35.2560 H   0  0  0  0  0  0  0  0  0  0  0  0
   38.4440   23.6090   38.3230 C   0  0  0  0  0  0  0  0  0  0  0  0
   37.9010   24.6190   37.5230 C   0  0  0  0  0  0  0  0  0  0  0  0
   38.4940   24.8200   36.2340 C   0  0  0  0  0  0  0  0  0  0  0  0
   39.5570   24.0200   35.8460 N   0  0  0  0  0  0  0  0  0  0  0  0
   40.0370   23.0690   36.6490 C   0  0  0  0  0  0  0  0  0  0  0  0
   39.4820   22.8590   37.8940 N   0  0  0  0  0  0  0  0  0  0  0  0
   37.9780   23.4800   39.2870 H   0  0  0  0  0  0  0  0  0  0  0  0
   37.0790   25.2390   37.8190 H   0  0  0  0  0  0  0  0  0  0  0  0
   40.8720   22.4560   36.3200 H   0  0  0  0  0  0  0  0  0  0  0  0
   38.2210   27.2390   35.8840 C   0  0  0  0  0  0  0  0  0  0  0  0
   39.0970   27.1230   36.5870 H   0  0  0  0  0  0  0  0  0  0  0  0
   38.5110   27.9780   35.1370 H   0  0  0  0  0  0  0  0  0  0  0  0
   37.3790   27.5010   36.5360 H   0  0  0  0  0  0  0  0  0  0  0  0
  1 25  1  0  0  0  0
  2  6  1  0  0  0  0
  2  1  1  0  0  0  0
  3  2  2  0  0  0  0
  4  3  1  0  0  0  0
  4  5  2  0  0  0  0
  5  8  1  0  0  0  0
  5  1  1  0  0  0  0
  7  3  1  0  0  0  0
  8 10  1  0  0  0  0
  8 11  1  1  0  0  0
  9  8  1  0  0  0  0
  9 10  1  0  0  0  0
 10 14  1  1  0  0  0
 10 18  1  0  0  0  0
 12  9  1  0  0  0  0
 13  9  1  0  0  0  0
 15 16  1  0  0  0  0
 15 22  1  0  0  0  0
 17 16  2  0  0  0  0
 18 17  1  0  0  0  0
 19 20  1  0  0  0  0
 19 18  2  0  0  0  0
 20 15  2  0  0  0  0
 21 22  1  0  0  0  0
 22 24  2  0  0  0  0
 22 23  2  0  0  0  0
 25 27  1  0  0  0  0
 25 28  1  0  0  0  0
 26 25  1  0  0  0  0
 28 29  1  6  0  0  0
 28 39  1  0  0  0  0
 28 32  1  0  0  0  0
 30 36  1  0  0  0  0
 31 37  1  0  0  0  0
 31 30  2  0  0  0  0
 32 31  1  0  0  0  0
 33 32  2  0  0  0  0
 33 34  1  0  0  0  0
 34 35  2  0  0  0  0
 35 30  1  0  0  0  0
 38 34  1  0  0  0  0
 39 42  1  0  0  0  0
 39 40  1  0  0  0  0
 41 39  1  0  0  0  0
M  END
>  <minimizedAffinity>
-6.01508379

>  <minimizedRMSD>
1.26751304

$$$$
