
 OpenBabel03262519573D

 33 36  0  0  1  0  0  0  0  0999 V2000
   37.8870   22.7030   33.3500 C   0  0  1  0  0  0  0  0  0  0  0  0
   37.0760   21.6830   33.9890 C   0  0  0  0  0  0  0  0  0  0  0  0
   36.6770   22.1790   32.6070 C   0  0  2  0  0  0  0  0  0  0  0  0
   38.8980   22.4170   32.9830 H   0  0  0  0  0  0  0  0  0  0  0  0
   36.3810   22.0310   34.7980 H   0  0  0  0  0  0  0  0  0  0  0  0
   37.4060   20.6540   34.1360 H   0  0  0  0  0  0  0  0  0  0  0  0
   35.7670   22.7670   32.4980 H   0  0  0  0  0  0  0  0  0  0  0  0
   38.0010   24.7890   34.7840 C   0  0  0  0  0  0  0  0  0  0  0  0
   37.7640   26.1500   34.6210 C   0  0  0  0  0  0  0  0  0  0  0  0
   37.3820   26.2530   33.3190 N   0  0  0  0  0  0  0  0  0  0  0  0
   37.3960   25.0510   32.7770 C   0  0  0  0  0  0  0  0  0  0  0  0
   37.7810   24.1000   33.6650 N   0  0  0  0  0  0  0  0  0  0  0  0
   37.8890   26.8700   35.4180 H   0  0  0  0  0  0  0  0  0  0  0  0
   37.1130   24.9690   31.7360 H   0  0  0  0  0  0  0  0  0  0  0  0
   38.4430   24.1630   36.0330 C   0  0  0  0  0  0  0  0  0  0  0  0
   39.6910   23.5480   36.1130 C   0  0  0  0  0  0  0  0  0  0  0  0
   40.0740   22.9590   37.3360 C   0  0  0  0  0  0  0  0  0  0  0  0
   39.1950   23.0320   38.3550 N   0  0  0  0  0  0  0  0  0  0  0  0
   37.9890   23.6340   38.2550 C   0  0  0  0  0  0  0  0  0  0  0  0
   37.5950   24.2080   37.0960 N   0  0  0  0  0  0  0  0  0  0  0  0
   40.3090   23.5490   35.2390 H   0  0  0  0  0  0  0  0  0  0  0  0
   41.0360   22.4880   37.3870 H   0  0  0  0  0  0  0  0  0  0  0  0
   37.3130   23.6700   39.1020 H   0  0  0  0  0  0  0  0  0  0  0  0
   37.4260   19.4360   29.4130 C   0  0  0  0  0  0  0  0  0  0  0  0
   38.3660   20.4090   29.6860 C   0  0  0  0  0  3  0  0  0  0  0  0
   38.0580   21.2510   30.7230 C   0  0  0  0  0  3  0  0  0  0  0  0
   36.9140   21.2040   31.4920 C   0  0  0  0  0  0  0  0  0  0  0  0
   35.9850   20.2120   31.1900 C   0  0  0  0  0  3  0  0  0  0  0  0
   36.2700   19.3470   30.1500 C   0  0  0  0  0  3  0  0  0  0  0  0
   38.7480   17.4860   28.4920 H   0  0  0  0  0  0  0  0  0  0  0  0
   37.7530   18.3210   28.0990 S   0  0  0  0  0  0  0  0  0  0  0  0
   36.5050   17.5070   27.8380 O   0  0  0  0  0  0  0  0  0  0  0  0
   38.1160   19.0580   26.8390 O   0  0  0  0  0  0  0  0  0  0  0  0
  1  4  1  6  0  0  0
  1 12  1  0  0  0  0
  1  2  1  0  0  0  0
  2  6  1  0  0  0  0
  2  5  1  0  0  0  0
  3  7  1  6  0  0  0
  3  1  1  0  0  0  0
  3  2  1  0  0  0  0
  8 15  1  0  0  0  0
  9  8  2  0  0  0  0
  9 13  1  0  0  0  0
 10  9  1  0  0  0  0
 11 10  2  0  0  0  0
 11 12  1  0  0  0  0
 12  8  1  0  0  0  0
 14 11  1  0  0  0  0
 15 16  2  0  0  0  0
 15 20  1  0  0  0  0
 16 17  1  0  0  0  0
 17 22  1  0  0  0  0
 17 18  2  0  0  0  0
 19 18  1  0  0  0  0
 19 23  1  0  0  0  0
 20 19  2  0  0  0  0
 21 16  1  0  0  0  0
 24 25  2  0  0  0  0
 24 29  1  0  0  0  0
 25 26  1  0  0  0  0
 26 27  2  0  0  0  0
 27  3  1  0  0  0  0
 28 27  1  0  0  0  0
 29 28  2  0  0  0  0
 31 30  1  0  0  0  0
 31 24  1  0  0  0  0
 32 31  2  0  0  0  0
 33 31  2  0  0  0  0
M  END
>  <minimizedAffinity>
-4.85459232

>  <minimizedRMSD>
3.08091331

$$$$
