
 OpenBabel03262519233D

 43 48  0  0  0  0  0  0  0  0999 V2000
   38.9660   24.0400   32.3500 C   0  0  0  0  0  0  0  0  0  0  0  0
   39.6060   22.8100   32.4590 C   0  0  0  0  0  0  0  0  0  0  0  0
   38.9570   21.6030   32.1920 C   0  0  0  0  0  0  0  0  0  0  0  0
   37.6220   21.6120   31.8030 C   0  0  0  0  0  0  0  0  0  0  0  0
   36.9660   22.8270   31.6870 C   0  0  0  0  0  0  0  0  0  0  0  0
   35.6470   22.8500   31.3070 C   0  0  0  0  0  0  0  0  0  0  0  0
   34.9430   24.0110   31.1730 C   0  0  0  0  0  0  0  0  0  0  0  0
   35.6270   25.2090   31.4410 C   0  0  0  0  0  0  0  0  0  0  0  0
   36.9590   25.1320   31.8230 C   0  0  0  0  0  0  0  0  0  0  0  0
   37.6570   23.9740   31.9610 C   0  0  0  0  0  0  0  0  0  0  0  0
   40.6550   22.8610   32.7680 H   0  0  0  0  0  0  0  0  0  0  0  0
   39.5400   20.6980   32.3050 H   0  0  0  0  0  0  0  0  0  0  0  0
   37.1220   20.6820   31.5980 H   0  0  0  0  0  0  0  0  0  0  0  0
   35.2000   21.8900   31.1210 H   0  0  0  0  0  0  0  0  0  0  0  0
   33.8990   23.8740   30.8640 H   0  0  0  0  0  0  0  0  0  0  0  0
   34.9300   26.0210   31.2870 H   0  0  0  0  0  0  0  0  0  0  0  0
   39.6680   25.2560   32.6470 C   0  0  0  0  0  0  0  0  0  0  0  0
   39.7910   25.7690   33.9530 C   0  0  0  0  0  0  0  0  0  0  0  0
   40.5140   26.9560   34.1250 C   0  0  0  0  0  0  0  0  0  0  0  0
   41.0690   27.5640   33.0350 N   0  0  0  0  0  0  0  0  0  0  0  0
   40.9340   27.0410   31.7910 C   0  0  0  0  0  0  0  0  0  0  0  0
   40.2550   25.9290   31.6310 N   0  0  0  0  0  0  0  0  0  0  0  0
   40.6080   27.3500   35.1300 H   0  0  0  0  0  0  0  0  0  0  0  0
   41.4340   27.6490   31.0600 H   0  0  0  0  0  0  0  0  0  0  0  0
   39.2300   25.0930   35.0210 N   0  0  0  0  0  0  0  0  0  0  0  0
   37.9790   25.2240   35.4780 C   0  0  0  0  0  0  0  0  0  0  0  0
   37.7340   24.4240   36.5370 N   0  0  0  0  0  0  0  0  0  0  0  0
   38.8920   23.7490   36.7640 C   0  0  0  0  0  0  0  0  0  0  0  0
   39.2740   22.8030   37.6820 C   0  0  0  0  0  0  0  0  0  0  0  0
   40.5070   22.2500   37.7220 N   0  0  0  0  0  0  0  0  0  0  0  0
   41.3740   22.6940   36.7790 C   0  0  0  0  0  0  0  0  0  0  0  0
   40.9870   23.6100   35.8960 N   0  0  0  0  0  0  0  0  0  0  0  0
   39.7960   24.1780   35.8180 C   0  0  0  0  0  0  0  0  0  0  0  0
   37.0990   25.7950   35.2290 H   0  0  0  0  0  0  0  0  0  0  0  0
   38.5660   22.4550   38.4360 H   0  0  0  0  0  0  0  0  0  0  0  0
   42.3980   22.3800   36.6400 H   0  0  0  0  0  0  0  0  0  0  0  0
   37.2570   26.5050   31.9850 N   0  0  0  0  0  0  0  0  0  0  0  0
   37.4140   27.6010   32.8960 C   0  0  0  0  0  0  0  0  0  0  0  0
   36.3640   28.7030   32.5850 C   0  0  0  0  0  0  0  0  0  0  0  0
   36.8450   29.4080   31.4300 N   0  0  0  0  0  0  0  0  0  0  0  0
   36.1160   29.8450   30.8540 H   0  0  0  0  0  0  0  0  0  0  0  0
   37.7560   28.5870   30.6990 C   0  0  0  0  0  0  0  0  0  0  0  0
   37.4740   27.1420   30.6520 C   0  0  0  0  0  0  0  0  0  0  0  0
  1  2  1  0  0  0  0
  1 17  1  0  0  0  0
  2 11  1  0  0  0  0
  3 12  1  0  0  0  0
  3  2  2  0  0  0  0
  4  3  1  0  0  0  0
  5  4  2  0  0  0  0
  5 10  1  0  0  0  0
  6  5  1  0  0  0  0
  7  6  2  0  0  0  0
  7  8  1  0  0  0  0
  8  9  2  0  0  0  0
  9 10  1  0  0  0  0
  9 37  1  0  0  0  0
 10  1  2  0  0  0  0
 13  4  1  0  0  0  0
 14  6  1  0  0  0  0
 15  7  1  0  0  0  0
 16  8  1  0  0  0  0
 17 18  1  0  0  0  0
 18 19  2  0  0  0  0
 18 25  1  0  0  0  0
 19 23  1  0  0  0  0
 20 19  1  0  0  0  0
 21 20  2  0  0  0  0
 22 21  1  0  0  0  0
 22 17  2  0  0  0  0
 24 21  1  0  0  0  0
 25 26  1  0  0  0  0
 25 33  1  0  0  0  0
 26 27  2  0  0  0  0
 27 28  1  0  0  0  0
 28 29  1  0  0  0  0
 29 30  2  0  0  0  0
 29 35  1  0  0  0  0
 31 30  1  0  0  0  0
 32 31  2  0  0  0  0
 33 32  1  0  0  0  0
 33 28  2  0  0  0  0
 34 26  1  0  0  0  0
 36 31  1  0  0  0  0
 37 38  1  0  0  0  0
 39 38  1  0  0  0  0
 40 39  1  0  0  0  0
 41 40  1  0  0  0  0
 42 40  1  0  0  0  0
 43 42  1  0  0  0  0
 43 37  1  0  0  0  0
M  END
>  <minimizedAffinity>
-6.22899342

>  <minimizedRMSD>
0.70916748

$$$$
