
 OpenBabel03262519103D

 25 27  0  0  0  0  0  0  0  0999 V2000
   37.8570   25.4350   34.8600 C   0  0  0  0  0  0  0  0  0  0  0  0
   37.4550   26.7620   35.0180 C   0  0  0  0  0  0  0  0  0  0  0  0
   36.9150   27.3980   33.9580 C   0  0  0  0  0  0  0  0  0  0  0  0
   36.7860   26.6850   32.7460 C   0  0  0  0  0  0  0  0  0  0  0  0
   37.4790   25.0180   33.1620 S   0  0  0  0  0  0  0  0  0  0  0  0
   37.5750   27.2660   35.9670 H   0  0  0  0  0  0  0  0  0  0  0  0
   36.5570   28.3900   33.8870 H   0  0  0  0  0  0  0  0  0  0  0  0
   37.8700   24.3580   37.1290 C   0  0  0  0  0  0  0  0  0  0  0  0
   38.4480   24.5840   35.8490 C   0  0  0  0  0  0  0  0  0  0  0  0
   39.6310   23.9700   35.5270 C   0  0  0  0  0  0  0  0  0  0  0  0
   40.1740   23.1690   36.4850 N   0  0  0  0  0  0  0  0  0  0  0  0
   39.6240   22.9560   37.6950 C   0  0  0  0  0  0  0  0  0  0  0  0
   38.4810   23.5560   37.9930 N   0  0  0  0  0  0  0  0  0  0  0  0
   36.9360   24.8540   37.3620 H   0  0  0  0  0  0  0  0  0  0  0  0
   40.1020   24.1140   34.5700 H   0  0  0  0  0  0  0  0  0  0  0  0
   40.2360   22.2840   38.2820 H   0  0  0  0  0  0  0  0  0  0  0  0
   36.2960   26.9710   31.4630 C   0  0  0  0  0  0  0  0  0  0  0  0
   35.5840   26.1490   30.8720 O   0  0  0  0  0  0  0  0  0  0  0  0
   36.5750   28.2110   30.7460 C   0  0  0  0  0  0  0  0  0  0  0  0
   36.0040   29.3980   31.1770 C   0  0  0  0  0  0  0  0  0  0  0  0
   36.2330   30.6130   30.5340 C   0  0  0  0  0  0  0  0  0  0  0  0
   37.0530   30.5750   29.4530 N   0  0  0  0  0  0  0  0  0  0  0  0
   37.6120   29.4320   29.0240 C   0  0  0  0  0  0  0  0  0  0  0  0
   38.2640   29.3870   28.1690 H   0  0  0  0  0  0  0  0  0  0  0  0
   37.3810   28.2670   29.6570 N   0  0  0  0  0  0  0  0  0  0  0  0
  1  2  2  0  0  0  0
  1  9  1  0  0  0  0
  2  6  1  0  0  0  0
  3  2  1  0  0  0  0
  4  5  1  0  0  0  0
  4  3  2  0  0  0  0
  5  1  1  0  0  0  0
  7  3  1  0  0  0  0
  8 14  1  0  0  0  0
  8 13  1  0  0  0  0
  9  8  2  0  0  0  0
 10  9  1  0  0  0  0
 10 11  2  0  0  0  0
 11 12  1  0  0  0  0
 12 13  2  0  0  0  0
 12 16  1  0  0  0  0
 15 10  1  0  0  0  0
 17  4  1  0  0  0  0
 18 17  2  0  0  0  0
 19 20  1  0  0  0  0
 19 17  1  0  0  0  0
 21 20  2  0  0  0  0
 22 21  1  0  0  0  0
 23 22  2  0  0  0  0
 23 25  1  0  0  0  0
 24 23  1  0  0  0  0
 25 19  2  0  0  0  0
M  END
>  <minimizedAffinity>
-4.81601667

>  <minimizedRMSD>
0.987460732

$$$$
