
 OpenBabel03262519463D

 39 42  0  0  1  0  0  0  0  0999 V2000
   37.4020   25.5120   32.9400 N   0  0  0  0  0  0  0  0  0  0  0  0
   36.8570   24.3980   32.4510 C   0  0  0  0  0  0  0  0  0  0  0  0
   35.8680   24.6140   31.5210 C   0  0  0  0  0  0  0  0  0  0  0  0
   35.8010   25.9420   31.4330 N   0  0  0  0  0  0  0  0  0  0  0  0
   36.7230   26.4850   32.2860 C   0  0  0  0  0  0  0  0  0  0  0  0
   37.1920   23.4020   32.7830 H   0  0  0  0  0  0  0  0  0  0  0  0
   35.3110   23.8260   31.0150 H   0  0  0  0  0  0  0  0  0  0  0  0
   36.8670   27.9920   32.3460 C   0  0  1  0  0  0  0  0  0  0  0  0
   35.8550   28.7470   31.5630 C   0  0  0  0  0  0  0  0  0  0  0  0
   35.7640   28.7420   33.0720 C   0  0  2  0  0  0  0  0  0  0  0  0
   37.8550   28.3930   32.5980 H   0  0  0  0  0  0  0  0  0  0  0  0
   35.0800   28.1490   31.0080 H   0  0  0  0  0  0  0  0  0  0  0  0
   36.2470   29.5600   30.9690 H   0  0  0  0  0  0  0  0  0  0  0  0
   34.9520   28.0540   33.4660 H   0  0  0  0  0  0  0  0  0  0  0  0
   35.8870   30.0300   33.5860 N   0  0  0  0  0  0  0  0  0  0  0  0
   35.5790   31.1930   32.9050 C   0  0  0  0  0  0  0  0  0  0  0  0
   35.5040   32.4110   33.8200 C   0  0  0  0  0  0  0  0  0  0  0  0
   34.5800   32.2400   34.9170 N   0  0  0  0  0  0  0  0  0  0  0  0
   33.7420   32.8310   34.8830 H   0  0  0  0  0  0  0  0  0  0  0  0
   34.3290   30.8350   35.1890 C   0  0  0  0  0  0  0  0  0  0  0  0
   35.6700   30.1280   34.9900 C   0  0  0  0  0  0  0  0  0  0  0  0
   38.4030   25.8050   33.8900 C   0  0  0  0  0  0  0  0  0  0  0  0
   39.1620   24.9780   33.8500 H   0  0  0  0  0  0  0  0  0  0  0  0
   38.9580   26.7370   33.6120 H   0  0  0  0  0  0  0  0  0  0  0  0
   37.8970   25.8870   35.2830 C   0  0  1  0  0  0  0  0  0  0  0  0
   36.7970   25.7800   35.2970 H   0  0  0  0  0  0  0  0  0  0  0  0
   38.4830   23.5860   38.2280 C   0  0  0  0  0  0  0  0  0  0  0  0
   37.8850   24.6170   37.4720 C   0  0  0  0  0  0  0  0  0  0  0  0
   38.4630   24.8380   36.1690 C   0  0  0  0  0  0  0  0  0  0  0  0
   39.5280   24.0680   35.7300 N   0  0  0  0  0  0  0  0  0  0  0  0
   40.0410   23.1100   36.4990 C   0  0  0  0  0  0  0  0  0  0  0  0
   39.5140   22.8660   37.7600 N   0  0  0  0  0  0  0  0  0  0  0  0
   38.0400   23.4410   39.1870 H   0  0  0  0  0  0  0  0  0  0  0  0
   37.0710   25.2280   37.7710 H   0  0  0  0  0  0  0  0  0  0  0  0
   40.8600   22.4710   36.2410 H   0  0  0  0  0  0  0  0  0  0  0  0
   38.1960   27.2660   35.8500 C   0  0  0  0  0  0  0  0  0  0  0  0
   37.3000   27.6660   36.3600 H   0  0  0  0  0  0  0  0  0  0  0  0
   38.9490   27.1330   36.6730 H   0  0  0  0  0  0  0  0  0  0  0  0
   38.6610   27.9210   35.1150 H   0  0  0  0  0  0  0  0  0  0  0  0
  1 22  1  0  0  0  0
  2  6  1  0  0  0  0
  2  1  1  0  0  0  0
  3  2  2  0  0  0  0
  4  3  1  0  0  0  0
  4  5  2  0  0  0  0
  5  8  1  0  0  0  0
  5  1  1  0  0  0  0
  7  3  1  0  0  0  0
  8 11  1  1  0  0  0
  8 10  1  0  0  0  0
  9  8  1  0  0  0  0
  9 10  1  0  0  0  0
 10 14  1  1  0  0  0
 10 15  1  0  0  0  0
 12  9  1  0  0  0  0
 13  9  1  0  0  0  0
 15 21  1  0  0  0  0
 16 15  1  0  0  0  0
 16 17  1  0  0  0  0
 17 18  1  0  0  0  0
 18 20  1  0  0  0  0
 19 18  1  0  0  0  0
 21 20  1  0  0  0  0
 22 25  1  0  0  0  0
 23 22  1  0  0  0  0
 24 22  1  0  0  0  0
 25 26  1  6  0  0  0
 25 36  1  0  0  0  0
 25 29  1  0  0  0  0
 27 33  1  0  0  0  0
 28 34  1  0  0  0  0
 28 27  2  0  0  0  0
 29 28  1  0  0  0  0
 30 29  2  0  0  0  0
 30 31  1  0  0  0  0
 31 32  2  0  0  0  0
 32 27  1  0  0  0  0
 35 31  1  0  0  0  0
 36 37  1  0  0  0  0
 36 38  1  0  0  0  0
 39 36  1  0  0  0  0
M  END
>  <minimizedAffinity>
-5.13718414

>  <minimizedRMSD>
1.20257461

$$$$
