
 OpenBabel03262518093D

 23 25  0  0  0  0  0  0  0  0999 V2000
   42.5410   20.8230   37.0360 C   0  0  0  0  0  0  0  0  0  0  0  0
   41.4550   21.5040   37.5960 C   0  0  0  0  0  0  0  0  0  0  0  0
   40.5790   22.1620   36.7160 C   0  0  0  0  0  0  0  0  0  0  0  0
   40.8410   22.0970   35.3690 N   0  0  0  0  0  0  0  0  0  0  0  0
   41.8940   21.4300   34.8920 C   0  0  0  0  0  0  0  0  0  0  0  0
   42.7470   20.7920   35.7140 N   0  0  0  0  0  0  0  0  0  0  0  0
   43.2360   20.3050   37.6750 H   0  0  0  0  0  0  0  0  0  0  0  0
   41.3420   21.4920   38.6650 H   0  0  0  0  0  0  0  0  0  0  0  0
   42.1490   21.3730   33.4970 N   0  0  0  0  0  0  0  0  0  0  0  0
   41.9090   20.2210   32.6760 C   0  0  0  0  0  0  0  0  0  0  0  0
   41.0700   20.5110   31.4590 C   0  0  0  0  0  0  0  0  0  0  0  0
   41.4220   21.7220   30.7900 N   0  0  0  0  0  0  0  0  0  0  0  0
   42.0980   21.6270   30.0050 H   0  0  0  0  0  0  0  0  0  0  0  0
   41.6790   22.8290   31.6740 C   0  0  0  0  0  0  0  0  0  0  0  0
   42.6810   22.4800   32.7610 C   0  0  0  0  0  0  0  0  0  0  0  0
   39.4470   22.8730   37.2880 C   0  0  0  0  0  0  0  0  0  0  0  0
   38.5970   23.7040   36.5380 C   0  0  0  0  0  0  0  0  0  0  0  0
   37.6750   24.1800   37.4110 N   0  0  0  0  0  0  0  0  0  0  0  0
   37.9730   23.6510   38.6240 C   0  0  0  0  0  0  0  0  0  0  0  0
   39.0290   22.8680   38.5630 N   0  0  0  0  0  0  0  0  0  0  0  0
   38.6000   23.9620   35.4970 H   0  0  0  0  0  0  0  0  0  0  0  0
   37.4050   23.8540   39.5230 H   0  0  0  0  0  0  0  0  0  0  0  0
   39.4960   22.3210   39.3400 H   0  0  0  0  0  0  0  0  0  0  0  0
  1  2  1  0  0  0  0
  1  7  1  0  0  0  0
  2  8  1  0  0  0  0
  3 16  1  0  0  0  0
  3  2  2  0  0  0  0
  4  3  1  0  0  0  0
  5  4  2  0  0  0  0
  5  6  1  0  0  0  0
  6  1  2  0  0  0  0
  9  5  1  0  0  0  0
 10  9  1  0  0  0  0
 11 10  1  0  0  0  0
 12 11  1  0  0  0  0
 12 14  1  0  0  0  0
 13 12  1  0  0  0  0
 14 15  1  0  0  0  0
 15  9  1  0  0  0  0
 16 20  1  0  0  0  0
 17 16  2  0  0  0  0
 17 18  1  0  0  0  0
 18 19  2  0  0  0  0
 19 22  1  0  0  0  0
 20 19  1  0  0  0  0
 20 23  1  0  0  0  0
 21 17  1  0  0  0  0
M  END
>  <minimizedAffinity>
-3.97394538

>  <minimizedRMSD>
0.129267335

$$$$
