
 OpenBabel03262519543D

 30 33  0  0  1  0  0  0  0  0999 V2000
   38.4110   23.6240   34.1690 C   0  0  0  0  0  0  0  0  0  0  0  0
   38.0870   23.4830   35.5050 C   0  0  0  0  0  0  0  0  0  0  0  0
   39.0190   24.2580   36.1440 N   0  0  0  0  0  0  0  0  0  0  0  0
   39.8110   24.7950   35.2160 C   0  0  0  0  0  0  0  0  0  0  0  0
   39.4560   24.4170   33.9690 N   0  0  0  0  0  0  0  0  0  0  0  0
   37.2960   22.9070   35.9560 H   0  0  0  0  0  0  0  0  0  0  0  0
   40.6340   25.4550   35.4800 H   0  0  0  0  0  0  0  0  0  0  0  0
   37.6910   22.9750   33.0710 C   0  0  0  0  0  0  0  0  0  0  0  0
   37.9690   21.6730   32.6900 C   0  0  0  0  0  0  0  0  0  0  0  0
   37.2620   21.0840   31.6360 C   0  0  0  0  0  0  0  0  0  0  0  0
   36.3240   21.8290   31.0340 N   0  0  0  0  0  0  0  0  0  0  0  0
   36.0490   23.1050   31.4070 C   0  0  0  0  0  0  0  0  0  0  0  0
   36.7280   23.6740   32.4180 N   0  0  0  0  0  0  0  0  0  0  0  0
   38.7290   21.0980   33.1930 H   0  0  0  0  0  0  0  0  0  0  0  0
   37.4690   20.0710   31.3290 H   0  0  0  0  0  0  0  0  0  0  0  0
   35.2940   23.7220   30.9300 H   0  0  0  0  0  0  0  0  0  0  0  0
   40.1330   24.8450   32.7870 C   0  0  1  0  0  0  0  0  0  0  0  0
   39.5400   25.7120   31.7890 C   0  0  0  0  0  0  0  0  0  0  0  0
   40.4760   26.3300   32.7930 C   0  0  2  0  0  0  0  0  0  0  0  0
   40.9460   24.1610   32.4630 H   0  0  0  0  0  0  0  0  0  0  0  0
   39.7860   25.6510   30.7210 H   0  0  0  0  0  0  0  0  0  0  0  0
   38.4530   25.9840   31.9280 H   0  0  0  0  0  0  0  0  0  0  0  0
   40.0200   26.9750   33.5840 H   0  0  0  0  0  0  0  0  0  0  0  0
   41.7400   26.7700   32.3160 N   0  0  0  0  0  0  0  0  0  0  0  0
   41.5040   27.7270   31.2510 C   0  0  0  0  0  2  0  0  0  0  0  0
   42.7390   28.0510   30.4540 C   0  0  0  0  0  2  0  0  0  0  0  0
   43.9640   27.5920   31.0730 N   0  0  0  0  0  0  0  0  0  0  0  0
   44.7210   27.7380   30.3690 H   0  0  0  0  0  0  0  0  0  0  0  0
   43.9360   26.2160   31.4460 C   0  0  0  0  0  2  0  0  0  0  0  0
   42.5720   25.7030   31.8080 C   0  0  0  0  0  2  0  0  0  0  0  0
  1  2  2  0  0  0  0
  2  6  1  0  0  0  0
  2  3  1  0  0  0  0
  4  7  1  0  0  0  0
  4  3  2  0  0  0  0
  5  1  1  0  0  0  0
  5  4  1  0  0  0  0
  8  1  1  0  0  0  0
  9  8  1  0  0  0  0
  9 14  1  0  0  0  0
 10  9  2  0  0  0  0
 11 12  2  0  0  0  0
 11 10  1  0  0  0  0
 12 13  1  0  0  0  0
 13  8  2  0  0  0  0
 15 10  1  0  0  0  0
 16 12  1  0  0  0  0
 17 20  1  6  0  0  0
 17 19  1  0  0  0  0
 17  5  1  0  0  0  0
 18 22  1  0  0  0  0
 18 17  1  0  0  0  0
 18 19  1  0  0  0  0
 19 23  1  1  0  0  0
 21 18  1  0  0  0  0
 24 19  1  0  0  0  0
 25 24  1  0  0  0  0
 26 27  1  0  0  0  0
 26 25  1  0  0  0  0
 27 29  1  0  0  0  0
 28 27  1  0  0  0  0
 29 30  1  0  0  0  0
 30 24  1  0  0  0  0
M  END
>  <minimizedAffinity>
-2.94006467

>  <minimizedRMSD>
7.87314177

$$$$
