
 OpenBabel03262519143D

 33 36  0  0  0  0  0  0  0  0999 V2000
   39.8440   23.6060   35.4920 C   0  0  0  0  0  0  0  0  0  0  0  0
   39.8230   24.6600   34.5490 C   0  0  0  0  0  0  0  0  0  0  0  0
   40.7450   24.6750   33.5050 C   0  0  0  0  0  0  0  0  0  0  0  0
   41.6280   23.6430   33.4670 N   0  0  0  0  0  0  0  0  0  0  0  0
   41.6200   22.6240   34.4130 C   0  0  0  0  0  0  0  0  0  0  0  0
   40.7300   22.6360   35.3920 N   0  0  0  0  0  0  0  0  0  0  0  0
   39.0950   23.6660   36.2730 H   0  0  0  0  0  0  0  0  0  0  0  0
   40.7920   25.4390   32.7520 H   0  0  0  0  0  0  0  0  0  0  0  0
   42.6600   21.5910   34.2160 C   0  0  0  0  0  0  0  0  0  0  0  0
   43.5590   21.7990   33.2060 C   0  0  0  0  0  0  0  0  0  0  0  0
   44.6600   20.2840   33.3400 S   0  0  0  0  0  0  0  0  0  0  0  0
   43.6240   19.6630   34.7970 C   0  0  0  0  0  0  0  0  0  0  0  0
   42.8630   20.4750   34.8870 N   0  0  0  0  0  0  0  0  0  0  0  0
   43.8000   22.5140   32.4260 H   0  0  0  0  0  0  0  0  0  0  0  0
   43.7490   18.4320   35.6310 N   0  0  0  0  0  0  0  0  0  0  0  0
   43.6540   18.3690   37.0770 C   0  0  0  0  0  0  0  0  0  0  0  0
   42.6690   17.2440   37.3700 C   0  0  0  0  0  0  0  0  0  0  0  0
   43.1350   15.9780   36.8810 N   0  0  0  0  0  0  0  0  0  0  0  0
   43.4800   15.4230   37.6930 H   0  0  0  0  0  0  0  0  0  0  0  0
   44.2330   16.1360   35.9730 C   0  0  0  0  0  0  0  0  0  0  0  0
   43.9870   17.1980   34.9140 C   0  0  0  0  0  0  0  0  0  0  0  0
   38.8920   25.7670   34.5840 C   0  0  0  0  0  0  0  0  0  0  0  0
   38.7860   26.6740   35.6310 C   0  0  0  0  0  0  0  0  0  0  0  0
   37.8570   27.6570   35.5000 C   0  0  0  0  0  0  0  0  0  0  0  0
   37.0850   27.6910   34.3480 C   0  0  0  0  0  0  0  0  0  0  0  0
   37.7040   26.2460   33.3770 S   0  0  0  0  0  0  0  0  0  0  0  0
   39.4010   26.6250   36.5200 H   0  0  0  0  0  0  0  0  0  0  0  0
   37.6220   28.4490   36.1940 H   0  0  0  0  0  0  0  0  0  0  0  0
   36.0540   28.5220   33.8540 C   0  0  0  0  0  0  0  0  0  0  0  0
   35.5200   28.2860   32.7620 O   0  0  0  0  0  0  0  0  0  0  0  0
   35.6010   29.6630   34.6100 N   0  0  0  0  0  0  0  0  0  0  0  0
   34.5580   29.6540   34.7860 H   0  0  0  0  0  0  0  0  0  0  0  0
   36.1530   30.4690   34.9950 H   0  0  0  0  0  0  0  0  0  0  0  0
  1  7  1  0  0  0  0
  2 22  1  0  0  0  0
  2  1  2  0  0  0  0
  3  2  1  0  0  0  0
  4  3  2  0  0  0  0
  4  5  1  0  0  0  0
  5  6  2  0  0  0  0
  6  1  1  0  0  0  0
  8  3  1  0  0  0  0
  9  5  1  0  0  0  0
  9 13  1  0  0  0  0
 10 11  1  0  0  0  0
 10  9  2  0  0  0  0
 11 12  1  0  0  0  0
 12 13  2  0  0  0  0
 12 15  1  0  0  0  0
 14 10  1  0  0  0  0
 15 16  1  0  0  0  0
 16 17  1  0  0  0  0
 18 17  1  0  0  0  0
 18 19  1  0  0  0  0
 20 18  1  0  0  0  0
 21 15  1  0  0  0  0
 21 20  1  0  0  0  0
 22 23  2  0  0  0  0
 23 27  1  0  0  0  0
 24 23  1  0  0  0  0
 24 28  1  0  0  0  0
 25 24  2  0  0  0  0
 26 25  1  0  0  0  0
 26 22  1  0  0  0  0
 29 25  1  0  0  0  0
 29 31  1  0  0  0  0
 30 29  2  0  0  0  0
 31 32  1  0  0  0  0
 31 33  1  0  0  0  0
M  END
>  <minimizedAffinity>
-3.87508154

>  <minimizedRMSD>
2.37805581

$$$$
