
 OpenBabel03262517333D

 34 37  0  0  0  0  0  0  0  0999 V2000
   38.6150   21.7680   30.5220 N   0  0  0  0  0  0  0  0  0  0  0  0
   39.5200   22.3120   29.5360 C   0  0  0  0  0  0  0  0  0  0  0  0
   40.1590   21.1020   28.8890 C   0  0  0  0  0  0  0  0  0  0  0  0
   39.1490   20.4500   28.2160 O   0  0  0  0  0  0  0  0  0  0  0  0
   38.1620   19.9020   29.0140 C   0  0  0  0  0  0  0  0  0  0  0  0
   37.8530   20.6050   30.2850 C   0  0  0  0  0  0  0  0  0  0  0  0
   40.2720   22.9760   30.0060 H   0  0  0  0  0  0  0  0  0  0  0  0
   38.9100   22.8100   28.7560 H   0  0  0  0  0  0  0  0  0  0  0  0
   40.5720   20.4560   29.6850 H   0  0  0  0  0  0  0  0  0  0  0  0
   41.0300   21.3820   28.2590 H   0  0  0  0  0  0  0  0  0  0  0  0
   37.5550   19.0180   28.8680 H   0  0  0  0  0  0  0  0  0  0  0  0
   38.6230   22.8210   34.4250 C   0  0  0  0  0  0  0  0  0  0  0  0
   37.8860   23.6560   33.6640 C   0  0  0  0  0  0  0  0  0  0  0  0
   37.7080   23.5540   32.3900 C   0  0  0  0  0  0  0  0  0  0  0  0
   38.4230   22.3870   31.8400 C   0  0  0  0  0  0  0  0  0  0  0  0
   39.2790   21.5760   33.2790 S   0  0  0  0  0  0  0  0  0  0  0  0
   37.3230   24.5530   34.0210 H   0  0  0  0  0  0  0  0  0  0  0  0
   37.2270   24.0170   31.5840 H   0  0  0  0  0  0  0  0  0  0  0  0
   39.9030   22.7330   37.7990 C   0  0  0  0  0  0  0  0  0  0  0  0
   38.9170   23.4370   38.5340 C   0  0  0  0  0  0  0  0  0  0  0  0
   37.8140   23.9550   37.8860 C   0  0  0  0  0  0  0  0  0  0  0  0
   37.7420   23.7470   36.5410 N   0  0  0  0  0  0  0  0  0  0  0  0
   38.6950   23.0710   35.8540 C   0  0  0  0  0  0  0  0  0  0  0  0
   39.7770   22.5610   36.4700 N   0  0  0  0  0  0  0  0  0  0  0  0
   40.7570   22.3420   38.3500 H   0  0  0  0  0  0  0  0  0  0  0  0
   38.9750   23.6000   39.6000 H   0  0  0  0  0  0  0  0  0  0  0  0
   37.0160   24.5000   38.3510 H   0  0  0  0  0  0  0  0  0  0  0  0
   36.8490   19.9740   31.0550 N   0  0  0  0  0  0  0  0  0  0  0  0
   35.6600   20.8030   31.0240 C   0  0  0  0  0  0  0  0  0  0  0  0
   34.6370   20.2750   32.0340 C   0  0  0  0  0  0  0  0  0  0  0  0
   35.2900   19.4750   33.0500 N   0  0  0  0  0  0  0  0  0  0  0  0
   34.6760   19.3030   33.8550 H   0  0  0  0  0  0  0  0  0  0  0  0
   35.9280   18.3140   32.5190 C   0  0  0  0  0  0  0  0  0  0  0  0
   37.1130   18.6750   31.6920 C   0  0  0  0  0  0  0  0  0  0  0  0
  1 15  1  0  0  0  0
  2  7  1  0  0  0  0
  2  1  1  0  0  0  0
  3  2  1  0  0  0  0
  3  9  1  0  0  0  0
  4  3  1  0  0  0  0
  4  5  1  0  0  0  0
  5  6  2  0  0  0  0
  6  1  1  0  0  0  0
  6 28  1  0  0  0  0
  8  2  1  0  0  0  0
 10  3  1  0  0  0  0
 11  5  1  0  0  0  0
 12 23  1  0  0  0  0
 13 17  1  0  0  0  0
 13 12  2  0  0  0  0
 14 13  1  0  0  0  0
 15 14  2  0  0  0  0
 15 16  1  0  0  0  0
 16 12  1  0  0  0  0
 18 14  1  0  0  0  0
 19 25  1  0  0  0  0
 19 20  1  0  0  0  0
 20 26  1  0  0  0  0
 21 27  1  0  0  0  0
 21 20  2  0  0  0  0
 22 21  1  0  0  0  0
 23 24  1  0  0  0  0
 23 22  2  0  0  0  0
 24 19  2  0  0  0  0
 28 34  1  0  0  0  0
 29 28  1  0  0  0  0
 29 30  1  0  0  0  0
 30 31  1  0  0  0  0
 31 32  1  0  0  0  0
 33 31  1  0  0  0  0
 34 33  1  0  0  0  0
M  END
>  <minimizedAffinity>
-4.68200588

>  <minimizedRMSD>
1.83886635

$$$$
