
 OpenBabel03262519173D

 33 35  0  0  0  0  0  0  0  0999 V2000
   37.3720   25.8010   35.4600 C   0  0  0  0  0  0  0  0  0  0  0  0
   37.7210   26.7860   34.5180 C   0  0  0  0  0  0  0  0  0  0  0  0
   39.0030   26.8240   33.9770 C   0  0  0  0  0  0  0  0  0  0  0  0
   39.8600   25.8600   34.4250 N   0  0  0  0  0  0  0  0  0  0  0  0
   39.5070   24.9140   35.3380 C   0  0  0  0  0  0  0  0  0  0  0  0
   38.2590   24.9040   35.8390 N   0  0  0  0  0  0  0  0  0  0  0  0
   36.3440   25.8820   35.8000 H   0  0  0  0  0  0  0  0  0  0  0  0
   39.3290   27.5500   33.2560 H   0  0  0  0  0  0  0  0  0  0  0  0
   40.5200   23.9430   35.7480 C   0  0  0  0  0  0  0  0  0  0  0  0
   41.7220   24.0630   35.1600 C   0  0  0  0  0  0  0  0  0  0  0  0
   42.7350   22.6880   35.9150 S   0  0  0  0  0  0  0  0  0  0  0  0
   41.2030   22.1830   36.9620 C   0  0  0  0  0  0  0  0  0  0  0  0
   40.5100   22.9590   36.5850 N   0  0  0  0  0  0  0  0  0  0  0  0
   41.2210   21.0970   37.8750 N   0  0  0  0  0  0  0  0  0  0  0  0
   42.2930   24.6960   34.3920 H   0  0  0  0  0  0  0  0  0  0  0  0
   41.5550   20.1800   37.5580 H   0  0  0  0  0  0  0  0  0  0  0  0
   40.8720   21.3470   38.8420 H   0  0  0  0  0  0  0  0  0  0  0  0
   36.8210   27.8290   34.0370 C   0  0  0  0  0  0  0  0  0  0  0  0
   36.3790   28.8910   34.8470 C   0  0  0  0  0  0  0  0  0  0  0  0
   35.5420   29.7820   34.2640 C   0  0  0  0  0  0  0  0  0  0  0  0
   35.1970   29.5860   32.9580 C   0  0  0  0  0  0  0  0  0  0  0  0
   36.1030   28.0220   32.4580 S   0  0  0  0  0  0  0  0  0  0  0  0
   36.6860   29.0070   35.8950 H   0  0  0  0  0  0  0  0  0  0  0  0
   34.3900   30.2490   31.9840 C   0  0  0  0  0  0  0  0  0  0  0  0
   34.8610   30.8010   31.0080 O   0  0  0  0  0  0  0  0  0  0  0  0
   32.9590   30.2850   32.1330 N   0  0  0  0  0  0  0  0  0  0  0  0
   32.5890   31.2550   32.3490 H   0  0  0  0  0  0  0  0  0  0  0  0
   32.4240   29.4110   32.0260 H   0  0  0  0  0  0  0  0  0  0  0  0
   34.8240   31.2380   35.0080 S   0  0  0  0  0  0  0  0  0  0  0  0
   33.2370   30.7570   35.7300 C   0  0  0  0  0  0  0  0  0  0  0  0
   32.1900   31.4680   35.1710 F   0  0  0  0  0  0  0  0  0  0  0  0
   33.2330   30.9740   37.1110 F   0  0  0  0  0  0  0  0  0  0  0  0
   33.0110   29.4140   35.5690 F   0  0  0  0  0  0  0  0  0  0  0  0
  1  7  1  0  0  0  0
  1  6  1  0  0  0  0
  2  1  2  0  0  0  0
  3  4  2  0  0  0  0
  3  2  1  0  0  0  0
  4  5  1  0  0  0  0
  5  9  1  0  0  0  0
  5  6  2  0  0  0  0
  8  3  1  0  0  0  0
  9 13  1  0  0  0  0
 10  9  2  0  0  0  0
 10 11  1  0  0  0  0
 11 12  1  0  0  0  0
 12 14  1  0  0  0  0
 13 12  2  0  0  0  0
 14 17  1  0  0  0  0
 15 10  1  0  0  0  0
 16 14  1  0  0  0  0
 18  2  1  0  0  0  0
 18 19  2  0  0  0  0
 19 23  1  0  0  0  0
 20 19  1  0  0  0  0
 20 29  1  0  0  0  0
 21 20  2  0  0  0  0
 22 21  1  0  0  0  0
 22 18  1  0  0  0  0
 24 26  1  0  0  0  0
 24 21  1  0  0  0  0
 25 24  2  0  0  0  0
 26 27  1  0  0  0  0
 28 26  1  0  0  0  0
 29 30  1  0  0  0  0
 30 32  1  0  0  0  0
 31 30  1  0  0  0  0
 33 30  1  0  0  0  0
M  END
>  <minimizedAffinity>
-4.98934364

>  <minimizedRMSD>
1.32445598

$$$$
