
 OpenBabel03262518583D

 35 38  0  0  0  0  0  0  0  0999 V2000
   38.4250   25.8370   34.1450 C   0  0  0  0  0  0  0  0  0  0  0  0
   39.1570   26.4920   33.5540 H   0  0  0  0  0  0  0  0  0  0  0  0
   38.0050   26.5520   34.8440 H   0  0  0  0  0  0  0  0  0  0  0  0
   39.3110   24.8020   34.6740 C   0  0  0  0  0  0  0  0  0  0  0  0
   40.3660   24.2910   33.9440 C   0  0  0  0  0  0  0  0  0  0  0  0
   41.2000   23.3290   34.4650 C   0  0  0  0  0  0  0  0  0  0  0  0
   41.0070   22.8320   35.7580 C   0  0  0  0  0  0  0  0  0  0  0  0
   39.9400   23.3470   36.4970 C   0  0  0  0  0  0  0  0  0  0  0  0
   39.7430   22.8680   37.7710 C   0  0  0  0  0  0  0  0  0  0  0  0
   38.7140   23.3390   38.5450 C   0  0  0  0  0  0  0  0  0  0  0  0
   37.8730   24.3030   38.0290 C   0  0  0  0  0  0  0  0  0  0  0  0
   38.0860   24.7760   36.7400 C   0  0  0  0  0  0  0  0  0  0  0  0
   39.1190   24.3180   35.9370 C   0  0  0  0  0  0  0  0  0  0  0  0
   40.5260   24.6680   32.9410 H   0  0  0  0  0  0  0  0  0  0  0  0
   42.0090   22.9620   33.8560 H   0  0  0  0  0  0  0  0  0  0  0  0
   41.6560   22.0790   36.1720 H   0  0  0  0  0  0  0  0  0  0  0  0
   40.4170   22.1120   38.1500 H   0  0  0  0  0  0  0  0  0  0  0  0
   38.5900   22.9360   39.5490 H   0  0  0  0  0  0  0  0  0  0  0  0
   37.0780   24.6500   38.6600 H   0  0  0  0  0  0  0  0  0  0  0  0
   37.3770   25.5250   36.4210 H   0  0  0  0  0  0  0  0  0  0  0  0
   35.9230   25.8610   31.4580 C   0  0  0  0  0  0  0  0  0  0  0  0
   35.6880   24.5230   31.1920 C   0  0  0  0  0  0  0  0  0  0  0  0
   36.3960   23.5770   31.9550 C   0  0  0  0  0  0  0  0  0  0  0  0
   37.2730   23.9980   32.9110 N   0  0  0  0  0  0  0  0  0  0  0  0
   37.4630   25.3190   33.1250 C   0  0  0  0  0  0  0  0  0  0  0  0
   36.7980   26.2340   32.4100 N   0  0  0  0  0  0  0  0  0  0  0  0
   35.3830   26.5990   30.8770 H   0  0  0  0  0  0  0  0  0  0  0  0
   34.9990   24.2030   30.4420 H   0  0  0  0  0  0  0  0  0  0  0  0
   36.1910   22.1900   31.7230 N   0  0  0  0  0  0  0  0  0  0  0  0
   37.1390   21.4720   30.8980 C   0  0  0  0  0  0  0  0  0  0  0  0
   36.8060   19.9810   31.0390 C   0  0  0  0  0  0  0  0  0  0  0  0
   36.6170   19.6400   32.4290 N   0  0  0  0  0  0  0  0  0  0  0  0
   37.4600   19.9470   32.9640 H   0  0  0  0  0  0  0  0  0  0  0  0
   35.4580   20.2510   32.9990 C   0  0  0  0  0  0  0  0  0  0  0  0
   35.0400   21.5390   32.3160 C   0  0  0  0  0  0  0  0  0  0  0  0
  1  4  1  0  0  0  0
  1  3  1  0  0  0  0
  2  1  1  0  0  0  0
  4 13  1  0  0  0  0
  5  6  1  0  0  0  0
  5  4  2  0  0  0  0
  6  7  2  0  0  0  0
  7 16  1  0  0  0  0
  7  8  1  0  0  0  0
  8  9  1  0  0  0  0
  9 17  1  0  0  0  0
  9 10  2  0  0  0  0
 10 18  1  0  0  0  0
 11 10  1  0  0  0  0
 11 19  1  0  0  0  0
 12 11  2  0  0  0  0
 13  8  2  0  0  0  0
 13 12  1  0  0  0  0
 14  5  1  0  0  0  0
 15  6  1  0  0  0  0
 20 12  1  0  0  0  0
 21 26  1  0  0  0  0
 22 21  2  0  0  0  0
 22 23  1  0  0  0  0
 23 24  2  0  0  0  0
 24 25  1  0  0  0  0
 25  1  1  0  0  0  0
 26 25  2  0  0  0  0
 27 21  1  0  0  0  0
 28 22  1  0  0  0  0
 29 23  1  0  0  0  0
 29 35  1  0  0  0  0
 30 31  1  0  0  0  0
 30 29  1  0  0  0  0
 31 32  1  0  0  0  0
 32 33  1  0  0  0  0
 32 34  1  0  0  0  0
 35 34  1  0  0  0  0
M  END
>  <minimizedAffinity>
-5.99807358

>  <minimizedRMSD>
3.12066627

$$$$
