
 OpenBabel03262519353D

 31 33  0  0  1  0  0  0  0  0999 V2000
   37.3520   22.9970   33.3570 N   0  0  0  0  0  0  0  0  0  0  0  0
   37.2460   21.6540   33.8750 C   0  0  0  0  0  0  0  0  0  0  0  0
   36.1260   21.0110   33.0970 C   0  0  0  0  0  0  0  0  0  0  0  0
   35.6910   22.1090   32.1100 C   0  0  0  0  0  0  0  0  0  0  0  0
   37.0450   22.8190   31.9860 C   0  0  1  0  0  0  0  0  0  0  0  0
   37.0740   21.6240   34.9810 H   0  0  0  0  0  0  0  0  0  0  0  0
   38.1900   21.1230   33.6020 H   0  0  0  0  0  0  0  0  0  0  0  0
   35.2910   20.8100   33.8240 H   0  0  0  0  0  0  0  0  0  0  0  0
   36.4020   20.0810   32.5880 H   0  0  0  0  0  0  0  0  0  0  0  0
   35.3770   21.6720   31.1570 H   0  0  0  0  0  0  0  0  0  0  0  0
   34.9390   22.6940   32.6370 H   0  0  0  0  0  0  0  0  0  0  0  0
   37.7200   21.9880   31.5940 H   0  0  0  0  0  0  0  0  0  0  0  0
   37.0880   23.8590   31.0810 N   0  0  0  0  0  0  0  0  0  0  0  0
   38.1820   24.0750   30.2280 C   0  0  0  0  0  0  0  0  0  0  0  0
   38.7890   25.4610   30.2980 C   0  0  0  0  0  0  0  0  0  0  0  0
   37.7440   26.4680   30.1700 N   0  0  0  0  0  0  0  0  0  0  0  0
   38.1900   27.4100   30.1700 H   0  0  0  0  0  0  0  0  0  0  0  0
   36.8970   26.3080   31.3500 C   0  0  0  0  0  0  0  0  0  0  0  0
   36.2230   24.9710   31.2220 C   0  0  0  0  0  0  0  0  0  0  0  0
   38.7100   23.5100   33.4360 C   0  0  0  0  0  0  0  0  0  0  0  0
   39.2190   23.5690   32.4700 H   0  0  0  0  0  0  0  0  0  0  0  0
   39.2710   22.7250   34.0210 H   0  0  0  0  0  0  0  0  0  0  0  0
   38.2080   26.0520   36.1780 C   0  0  0  0  0  0  0  0  0  0  0  0
   38.0970   24.8570   35.4590 C   0  0  0  0  0  0  0  0  0  0  0  0
   38.7750   24.7490   34.2490 C   0  0  0  0  0  0  0  0  0  0  0  0
   39.5270   25.8310   33.8140 N   0  0  0  0  0  0  0  0  0  0  0  0
   39.5980   26.9580   34.5470 C   0  0  0  0  0  0  0  0  0  0  0  0
   38.9400   27.0610   35.7210 N   0  0  0  0  0  0  0  0  0  0  0  0
   37.6920   26.1640   37.1230 H   0  0  0  0  0  0  0  0  0  0  0  0
   37.5000   24.0370   35.8350 H   0  0  0  0  0  0  0  0  0  0  0  0
   40.2310   27.6800   34.0390 H   0  0  0  0  0  0  0  0  0  0  0  0
  1 20  1  0  0  0  0
  1  2  1  0  0  0  0
  2  6  1  0  0  0  0
  3  8  1  0  0  0  0
  3  2  1  0  0  0  0
  4 11  1  0  0  0  0
  4  3  1  0  0  0  0
  5 12  1  6  0  0  0
  5  4  1  0  0  0  0
  5  1  1  0  0  0  0
  7  2  1  0  0  0  0
  9  3  1  0  0  0  0
 10  4  1  0  0  0  0
 13 19  1  0  0  0  0
 13  5  1  0  0  0  0
 14 15  1  0  0  0  0
 14 13  1  0  0  0  0
 16 15  1  0  0  0  0
 16 18  1  0  0  0  0
 17 16  1  0  0  0  0
 19 18  1  0  0  0  0
 20 22  1  0  0  0  0
 20 25  1  0  0  0  0
 21 20  1  0  0  0  0
 23 29  1  0  0  0  0
 24 30  1  0  0  0  0
 24 23  2  0  0  0  0
 25 24  1  0  0  0  0
 26 25  2  0  0  0  0
 26 27  1  0  0  0  0
 27 28  2  0  0  0  0
 28 23  1  0  0  0  0
 31 27  1  0  0  0  0
M  END
>  <minimizedAffinity>
-4.1453228

>  <minimizedRMSD>
5.04459429

$$$$
