
 OpenBabel03262517233D

 33 36  0  0  0  0  0  0  0  0999 V2000
   38.0790   23.9800   34.5320 N   0  0  0  0  0  0  0  0  0  0  0  0
   38.0170   23.0830   33.5440 N   0  0  0  0  0  0  0  0  0  0  0  0
   37.6950   23.6450   32.3860 C   0  0  0  0  0  0  0  0  0  0  0  0
   37.5430   24.9890   32.6620 C   0  0  0  0  0  0  0  0  0  0  0  0
   37.7870   25.1880   34.0180 C   0  0  0  0  0  0  0  0  0  0  0  0
   37.5810   23.1440   31.4370 H   0  0  0  0  0  0  0  0  0  0  0  0
   37.1830   25.9800   31.6440 C   0  0  0  0  0  0  0  0  0  0  0  0
   35.9840   26.3430   31.0660 C   0  0  0  0  0  0  0  0  0  0  0  0
   36.1940   27.3220   30.1680 N   0  0  0  0  0  0  0  0  0  0  0  0
   37.5250   27.6040   30.1540 C   0  0  0  0  0  0  0  0  0  0  0  0
   38.1810   28.5470   29.3740 C   0  0  0  0  0  0  0  0  0  0  0  0
   39.5290   28.6760   29.5080 C   0  0  0  0  0  0  0  0  0  0  0  0
   40.2100   27.8770   30.4050 C   0  0  0  0  0  0  0  0  0  0  0  0
   39.5370   26.9460   31.1680 C   0  0  0  0  0  0  0  0  0  0  0  0
   38.1680   26.7860   31.0600 C   0  0  0  0  0  0  0  0  0  0  0  0
   35.3810   27.7260   29.6250 H   0  0  0  0  0  0  0  0  0  0  0  0
   37.4730   23.9330   36.8790 C   0  0  0  0  0  0  0  0  0  0  0  0
   38.3940   23.7010   35.8730 C   0  0  0  0  0  0  0  0  0  0  0  0
   39.6590   23.1820   36.1880 C   0  0  0  0  0  0  0  0  0  0  0  0
   39.8930   22.9350   37.5170 N   0  0  0  0  0  0  0  0  0  0  0  0
   38.9920   23.1650   38.4730 C   0  0  0  0  0  0  0  0  0  0  0  0
   37.7650   23.6710   38.1510 N   0  0  0  0  0  0  0  0  0  0  0  0
   36.4790   24.3400   36.6390 H   0  0  0  0  0  0  0  0  0  0  0  0
   40.3910   22.9930   35.4200 H   0  0  0  0  0  0  0  0  0  0  0  0
   39.3300   22.9180   39.4800 H   0  0  0  0  0  0  0  0  0  0  0  0
   37.7280   26.4500   34.6890 N   0  0  0  0  0  0  0  0  0  0  0  0
   38.8590   27.0570   35.3220 C   0  0  0  0  0  0  0  0  0  0  0  0
   39.9990   26.8750   34.7130 N   0  0  0  0  0  0  0  0  0  0  0  0
   38.6070   27.7820   36.5310 N   0  0  0  0  0  0  0  0  0  0  0  0
   40.8160   27.3200   35.1920 H   0  0  0  0  0  0  0  0  0  0  0  0
   36.7750   26.9230   34.6900 H   0  0  0  0  0  0  0  0  0  0  0  0
   38.8820   28.7640   36.7550 H   0  0  0  0  0  0  0  0  0  0  0  0
   38.1090   27.4040   37.3460 H   0  0  0  0  0  0  0  0  0  0  0  0
  1 18  1  0  0  0  0
  2  1  1  0  0  0  0
  3  4  1  0  0  0  0
  3  2  2  0  0  0  0
  4  5  2  0  0  0  0
  5  1  1  0  0  0  0
  5 26  1  0  0  0  0
  6  3  1  0  0  0  0
  7  4  1  0  0  0  0
  8  7  2  0  0  0  0
  9  8  1  0  0  0  0
 10  9  1  0  0  0  0
 10 15  1  0  0  0  0
 11 12  1  0  0  0  0
 11 10  2  0  0  0  0
 12 13  2  0  0  0  0
 13 14  1  0  0  0  0
 15 14  2  0  0  0  0
 15  7  1  0  0  0  0
 16  9  1  0  0  0  0
 17 22  1  0  0  0  0
 18 19  1  0  0  0  0
 18 17  2  0  0  0  0
 19 20  2  0  0  0  0
 20 21  1  0  0  0  0
 21 25  1  0  0  0  0
 22 21  2  0  0  0  0
 23 17  1  0  0  0  0
 24 19  1  0  0  0  0
 26 31  1  0  0  0  0
 26 27  1  0  0  0  0
 27 29  1  0  0  0  0
 28 30  1  0  0  0  0
 28 27  2  0  0  0  0
 29 32  1  0  0  0  0
 29 33  1  0  0  0  0
M  END
>  <minimizedAffinity>
-6.04381609

>  <minimizedRMSD>
0.937877595

$$$$
