
 OpenBabel03262517183D

 43 48  0  0  1  0  0  0  0  0999 V2000
   37.9610   26.3950   36.4830 C   0  0  1  0  0  0  0  0  0  0  0  0
   38.7460   27.3490   35.6630 C   0  0  0  0  0  0  0  0  0  0  0  0
   37.4690   26.7690   35.1380 C   0  0  1  0  0  0  0  0  0  0  0  0
   37.3720   26.8520   37.3070 H   0  0  0  0  0  0  0  0  0  0  0  0
   39.7170   26.9420   35.2570 H   0  0  0  0  0  0  0  0  0  0  0  0
   38.8310   28.4220   35.9230 H   0  0  0  0  0  0  0  0  0  0  0  0
   36.6550   27.5520   35.0860 H   0  0  0  0  0  0  0  0  0  0  0  0
   37.5900   26.0790   33.9200 N   0  0  0  0  0  0  0  0  0  0  0  0
   37.6670   24.7520   33.7300 C   0  0  0  0  0  0  0  0  0  0  0  0
   37.7890   24.1360   32.5120 C   0  0  0  0  0  0  0  0  0  0  0  0
   37.8360   24.9390   31.3650 C   0  0  0  0  0  0  0  0  0  0  0  0
   37.9470   24.4350   30.2210 O   0  0  0  0  0  0  0  0  0  0  0  0
   37.7620   26.2880   31.4780 N   0  0  0  0  0  0  0  0  0  0  0  0
   37.6440   26.7870   32.7310 C   0  0  0  0  0  0  0  0  0  0  0  0
   37.5760   28.0610   32.8140 O   0  0  0  0  0  0  0  0  0  0  0  0
   37.1040   28.5430   28.7890 N   0  0  0  0  0  0  0  0  0  0  0  0
   36.7230   27.8040   29.8040 N   0  0  0  0  0  0  0  0  0  0  0  0
   37.7840   27.1710   30.3610 C   0  0  0  0  0  0  0  0  0  0  0  0
   38.8790   27.5480   29.6400 C   0  0  0  0  0  0  0  0  0  0  0  0
   38.4400   28.4090   28.6540 C   0  0  0  0  0  0  0  0  0  0  0  0
   37.5990   24.0420   34.5310 H   0  0  0  0  0  0  0  0  0  0  0  0
   37.8530   23.0670   32.3600 H   0  0  0  0  0  0  0  0  0  0  0  0
   36.3550   29.0730   28.2900 H   0  0  0  0  0  0  0  0  0  0  0  0
   39.9190   27.2640   29.7620 H   0  0  0  0  0  0  0  0  0  0  0  0
   38.9570   28.9430   27.8650 H   0  0  0  0  0  0  0  0  0  0  0  0
   38.5140   25.0530   36.7940 C   0  0  0  0  0  0  0  0  0  0  0  0
   38.0390   24.4410   37.9590 C   0  0  0  0  0  0  0  0  0  0  0  0
   38.4940   23.1930   38.3260 C   0  0  0  0  0  0  0  0  0  0  0  0
   39.4120   22.6160   37.4980 N   0  0  0  0  0  0  0  0  0  0  0  0
   39.8520   23.2380   36.3760 C   0  0  0  0  0  0  0  0  0  0  0  0
   39.4210   24.4380   36.0150 N   0  0  0  0  0  0  0  0  0  0  0  0
   37.3140   24.9300   38.5840 H   0  0  0  0  0  0  0  0  0  0  0  0
   38.1500   22.6960   39.2120 H   0  0  0  0  0  0  0  0  0  0  0  0
   40.8360   22.4980   35.5880 C   0  0  0  0  0  0  0  0  0  0  0  0
   41.0250   22.6250   34.2260 C   0  0  0  0  0  0  0  0  0  0  0  0
   42.0290   21.7650   33.8870 N   0  0  0  0  0  0  0  0  0  0  0  0
   42.4770   21.1070   34.9720 C   0  0  0  0  0  0  0  0  0  0  0  0
   43.4770   20.1600   35.0330 C   0  0  0  0  0  0  0  0  0  0  0  0
   43.7460   19.6290   36.2930 C   0  0  0  0  0  0  0  0  0  0  0  0
   43.0050   20.0740   37.3840 C   0  0  0  0  0  0  0  0  0  0  0  0
   42.0090   21.0240   37.2900 C   0  0  0  0  0  0  0  0  0  0  0  0
   41.7330   21.5600   36.0450 C   0  0  0  0  0  0  0  0  0  0  0  0
   42.3600   21.6790   32.8930 H   0  0  0  0  0  0  0  0  0  0  0  0
  1 26  1  0  0  0  0
  1  4  1  1  0  0  0
  2  6  1  0  0  0  0
  2  1  1  0  0  0  0
  3  7  1  1  0  0  0
  3  2  1  0  0  0  0
  3  1  1  0  0  0  0
  5  2  1  0  0  0  0
  8  3  1  0  0  0  0
  9  8  1  0  0  0  0
  9 21  1  0  0  0  0
 10  9  2  0  0  0  0
 11 13  1  0  0  0  0
 11 10  1  0  0  0  0
 12 11  2  0  0  0  0
 13 14  1  0  0  0  0
 14 15  2  0  0  0  0
 14  8  1  0  0  0  0
 16 17  1  0  0  0  0
 17 18  2  0  0  0  0
 18 13  1  0  0  0  0
 19 24  1  0  0  0  0
 19 18  1  0  0  0  0
 20 16  1  0  0  0  0
 20 19  2  0  0  0  0
 22 10  1  0  0  0  0
 23 16  1  0  0  0  0
 25 20  1  0  0  0  0
 26 27  1  0  0  0  0
 27 28  2  0  0  0  0
 27 32  1  0  0  0  0
 28 33  1  0  0  0  0
 29 28  1  0  0  0  0
 30 29  2  0  0  0  0
 31 30  1  0  0  0  0
 31 26  2  0  0  0  0
 34 42  1  0  0  0  0
 34 30  1  0  0  0  0
 35 34  2  0  0  0  0
 36 35  1  0  0  0  0
 36 37  1  0  0  0  0
 37 38  2  0  0  0  0
 37 42  1  0  0  0  0
 38 39  1  0  0  0  0
 39 40  2  0  0  0  0
 41 40  1  0  0  0  0
 42 41  2  0  0  0  0
 43 36  1  0  0  0  0
M  END
>  <minimizedAffinity>
-6.56166458

>  <minimizedRMSD>
0.258708805

$$$$
