
 OpenBabel03262519263D

 46 52  0  0  0  0  0  0  0  0999 V2000
   38.9710   23.4410   32.5610 C   0  0  0  0  0  0  0  0  0  0  0  0
   39.4240   22.3220   33.2500 C   0  0  0  0  0  0  0  0  0  0  0  0
   38.6430   21.1730   33.4000 C   0  0  0  0  0  0  0  0  0  0  0  0
   37.3690   21.1300   32.8500 C   0  0  0  0  0  0  0  0  0  0  0  0
   36.8980   22.2280   32.1630 C   0  0  0  0  0  0  0  0  0  0  0  0
   35.6440   22.1860   31.6230 C   0  0  0  0  0  0  0  0  0  0  0  0
   35.1170   23.2520   30.9220 C   0  0  0  0  0  0  0  0  0  0  0  0
   35.9200   24.3840   30.7820 C   0  0  0  0  0  0  0  0  0  0  0  0
   37.1860   24.3780   31.3470 C   0  0  0  0  0  0  0  0  0  0  0  0
   37.7110   23.3330   32.0440 C   0  0  0  0  0  0  0  0  0  0  0  0
   40.4250   22.3930   33.6670 H   0  0  0  0  0  0  0  0  0  0  0  0
   39.0320   20.3210   33.9420 H   0  0  0  0  0  0  0  0  0  0  0  0
   36.8110   20.2150   33.0000 H   0  0  0  0  0  0  0  0  0  0  0  0
   35.0750   21.2760   31.7690 H   0  0  0  0  0  0  0  0  0  0  0  0
   34.1040   23.0850   30.5450 H   0  0  0  0  0  0  0  0  0  0  0  0
   35.3700   25.1210   30.2140 H   0  0  0  0  0  0  0  0  0  0  0  0
   37.7380   25.6520   30.9110 C   0  0  0  0  0  0  0  0  0  0  0  0
   38.7720   26.1900   30.1740 C   0  0  0  0  0  3  0  0  0  0  0  0
   38.7670   27.5280   30.1860 N   0  0  0  0  0  0  0  0  0  0  0  0
   37.7570   28.0280   30.9140 C   0  0  0  0  0  0  0  0  0  0  0  0
   37.3290   29.2710   31.2270 C   0  0  0  0  0  3  0  0  0  0  0  0
   36.2210   29.4260   32.0220 C   0  0  0  0  0  3  0  0  0  0  0  0
   35.5480   28.3400   32.4980 C   0  0  0  0  0  3  0  0  0  0  0  0
   35.9970   27.0960   32.1690 C   0  0  0  0  0  3  0  0  0  0  0  0
   37.1200   26.8600   31.3630 C   0  0  0  0  0  0  0  0  0  0  0  0
   39.4930   28.0680   29.6680 H   0  0  0  0  0  0  0  0  0  0  0  0
   39.7960   24.6070   32.4430 C   0  0  0  0  0  0  0  0  0  0  0  0
   39.7960   25.6510   33.3910 C   0  0  0  0  0  0  0  0  0  0  0  0
   40.6520   26.7400   33.1710 C   0  0  0  0  0  0  0  0  0  0  0  0
   41.4460   26.7420   32.0570 N   0  0  0  0  0  0  0  0  0  0  0  0
   41.4270   25.7240   31.1690 C   0  0  0  0  0  0  0  0  0  0  0  0
   40.6210   24.7040   31.3780 N   0  0  0  0  0  0  0  0  0  0  0  0
   40.6690   27.5480   33.8770 H   0  0  0  0  0  0  0  0  0  0  0  0
   42.0530   25.7350   30.3040 H   0  0  0  0  0  0  0  0  0  0  0  0
   38.9940   25.5650   34.5160 N   0  0  0  0  0  0  0  0  0  0  0  0
   37.8920   26.2780   34.7650 C   0  0  0  0  0  0  0  0  0  0  0  0
   37.3370   25.9550   35.9540 N   0  0  0  0  0  0  0  0  0  0  0  0
   38.1270   24.9850   36.4870 C   0  0  0  0  0  0  0  0  0  0  0  0
   38.0740   24.2730   37.6530 C   0  0  0  0  0  0  0  0  0  0  0  0
   38.9840   23.3310   37.9840 N   0  0  0  0  0  0  0  0  0  0  0  0
   39.9710   23.1290   37.0750 C   0  0  0  0  0  0  0  0  0  0  0  0
   40.0060   23.8300   35.9520 N   0  0  0  0  0  0  0  0  0  0  0  0
   39.1370   24.7650   35.5820 C   0  0  0  0  0  0  0  0  0  0  0  0
   37.3350   27.0470   34.2470 H   0  0  0  0  0  0  0  0  0  0  0  0
   37.2480   24.4940   38.3320 H   0  0  0  0  0  0  0  0  0  0  0  0
   40.7960   22.4280   37.1370 H   0  0  0  0  0  0  0  0  0  0  0  0
  1  2  1  0  0  0  0
  2  3  2  0  0  0  0
  2 11  1  0  0  0  0
  3 12  1  0  0  0  0
  4 13  1  0  0  0  0
  4  3  1  0  0  0  0
  5  4  2  0  0  0  0
  6 14  1  0  0  0  0
  6  5  1  0  0  0  0
  7  6  2  0  0  0  0
  8  7  1  0  0  0  0
  8  9  2  0  0  0  0
  9 10  1  0  0  0  0
 10  5  1  0  0  0  0
 10  1  2  0  0  0  0
 15  7  1  0  0  0  0
 16  8  1  0  0  0  0
 17  9  1  0  0  0  0
 17 25  1  0  0  0  0
 18 19  1  0  0  0  0
 18 17  2  0  0  0  0
 19 20  1  0  0  0  0
 20 21  2  0  0  0  0
 20 25  1  0  0  0  0
 21 22  1  0  0  0  0
 22 23  2  0  0  0  0
 24 23  1  0  0  0  0
 25 24  2  0  0  0  0
 26 19  1  0  0  0  0
 27  1  1  0  0  0  0
 27 28  1  0  0  0  0
 28 35  1  0  0  0  0
 29 28  2  0  0  0  0
 29 33  1  0  0  0  0
 30 29  1  0  0  0  0
 31 32  1  0  0  0  0
 31 30  2  0  0  0  0
 32 27  2  0  0  0  0
 34 31  1  0  0  0  0
 35 36  1  0  0  0  0
 35 43  1  0  0  0  0
 36 37  2  0  0  0  0
 37 38  1  0  0  0  0
 38 39  1  0  0  0  0
 39 40  2  0  0  0  0
 39 45  1  0  0  0  0
 41 46  1  0  0  0  0
 41 40  1  0  0  0  0
 42 41  2  0  0  0  0
 43 42  1  0  0  0  0
 43 38  2  0  0  0  0
 44 36  1  0  0  0  0
M  END
>  <minimizedAffinity>
-5.93854904

>  <minimizedRMSD>
1.62822497

$$$$
