
 OpenBabel03262519223D

 30 34  0  0  0  0  0  0  0  0999 V2000
   37.5690   23.9950   32.8200 C   0  0  0  0  0  0  0  0  0  0  0  0
   37.8730   24.6180   34.0250 C   0  0  0  0  0  0  0  0  0  0  0  0
   37.6120   25.9800   34.1570 C   0  0  0  0  0  0  0  0  0  0  0  0
   37.0690   26.6470   33.1000 N   0  0  0  0  0  0  0  0  0  0  0  0
   36.7810   26.0030   31.9280 C   0  0  0  0  0  0  0  0  0  0  0  0
   37.0350   24.6840   31.8010 N   0  0  0  0  0  0  0  0  0  0  0  0
   37.8340   26.4890   35.0680 H   0  0  0  0  0  0  0  0  0  0  0  0
   36.3590   26.7010   31.2090 H   0  0  0  0  0  0  0  0  0  0  0  0
   38.4280   23.8950   35.0800 N   0  0  0  0  0  0  0  0  0  0  0  0
   37.7570   23.1580   35.9930 C   0  0  0  0  0  0  0  0  0  0  0  0
   38.5870   22.5840   36.8840 N   0  0  0  0  0  0  0  0  0  0  0  0
   39.8250   22.9600   36.5390 C   0  0  0  0  0  0  0  0  0  0  0  0
   41.0810   22.7110   37.0450 C   0  0  0  0  0  0  0  0  0  0  0  0
   42.2170   23.2040   36.5280 N   0  0  0  0  0  0  0  0  0  0  0  0
   42.0680   24.0000   35.4250 C   0  0  0  0  0  0  0  0  0  0  0  0
   40.8550   24.2450   34.9300 N   0  0  0  0  0  0  0  0  0  0  0  0
   39.7120   23.7730   35.4190 C   0  0  0  0  0  0  0  0  0  0  0  0
   36.6920   22.9870   36.0810 H   0  0  0  0  0  0  0  0  0  0  0  0
   41.2280   22.0790   37.9180 H   0  0  0  0  0  0  0  0  0  0  0  0
   42.9560   24.4190   34.9740 H   0  0  0  0  0  0  0  0  0  0  0  0
   37.8150   22.5710   32.6050 C   0  0  0  0  0  0  0  0  0  0  0  0
   39.0290   21.9170   32.5350 C   0  0  0  0  0  3  0  0  0  0  0  0
   38.7600   20.6040   32.3220 N   0  0  0  0  0  0  0  0  0  0  0  0
   37.4330   20.3890   32.2540 C   0  0  0  0  0  0  0  0  0  0  0  0
   36.7050   19.2150   32.0520 C   0  0  0  0  0  3  0  0  0  0  0  0
   35.3230   19.3510   32.0370 C   0  0  0  0  0  3  0  0  0  0  0  0
   34.6490   20.5510   32.2080 C   0  0  0  0  0  3  0  0  0  0  0  0
   35.4270   21.6850   32.4050 C   0  0  0  0  0  3  0  0  0  0  0  0
   36.8020   21.6230   32.4310 C   0  0  0  0  0  0  0  0  0  0  0  0
   39.4620   19.8190   32.2170 H   0  0  0  0  0  0  0  0  0  0  0  0
  1  2  1  0  0  0  0
  2  3  2  0  0  0  0
  2  9  1  0  0  0  0
  3  7  1  0  0  0  0
  4  3  1  0  0  0  0
  5  4  2  0  0  0  0
  6  5  1  0  0  0  0
  6  1  2  0  0  0  0
  8  5  1  0  0  0  0
  9 17  1  0  0  0  0
  9 10  1  0  0  0  0
 10 18  1  0  0  0  0
 10 11  2  0  0  0  0
 12 11  1  0  0  0  0
 12 13  1  0  0  0  0
 13 19  1  0  0  0  0
 14 13  2  0  0  0  0
 15 14  1  0  0  0  0
 16 17  1  0  0  0  0
 16 15  2  0  0  0  0
 17 12  2  0  0  0  0
 20 15  1  0  0  0  0
 21  1  1  0  0  0  0
 22 21  2  0  0  0  0
 23 22  1  0  0  0  0
 24 23  1  0  0  0  0
 24 29  1  0  0  0  0
 25 24  2  0  0  0  0
 26 25  1  0  0  0  0
 26 27  2  0  0  0  0
 27 28  1  0  0  0  0
 28 29  2  0  0  0  0
 29 21  1  0  0  0  0
 30 23  1  0  0  0  0
M  END
>  <minimizedAffinity>
-5.45875835

>  <minimizedRMSD>
2.43265939

$$$$
