
 OpenBabel03262520003D

 36 40  0  0  1  0  0  0  0  0999 V2000
   39.9690   24.2750   34.5310 C   0  0  1  0  0  0  0  0  0  0  0  0
   40.3820   24.6500   33.2090 C   0  0  0  0  0  0  0  0  0  0  0  0
   39.4430   25.5890   34.0280 C   0  0  1  0  0  0  0  0  0  0  0  0
   40.7590   24.3400   35.3530 H   0  0  0  0  0  0  0  0  0  0  0  0
   41.3850   25.0470   33.0160 H   0  0  0  0  0  0  0  0  0  0  0  0
   39.9540   24.1030   32.3880 H   0  0  0  0  0  0  0  0  0  0  0  0
   38.2690   25.9090   33.2100 C   0  0  0  0  0  0  0  0  0  0  0  0
   38.1110   27.3160   33.3260 C   0  0  0  0  0  3  0  0  0  0  0  0
   36.9860   27.7490   32.6730 N   0  0  0  0  0  0  0  0  0  0  0  0
   36.4000   26.6720   32.1320 C   0  0  0  0  0  0  0  0  0  0  0  0
   35.2880   26.3340   31.3510 C   0  0  0  0  0  3  0  0  0  0  0  0
   35.0300   25.0340   30.9640 C   0  0  0  0  0  3  0  0  0  0  0  0
   35.8780   23.9970   31.3430 C   0  0  0  0  0  3  0  0  0  0  0  0
   36.9730   24.2950   32.1070 C   0  0  0  0  0  3  0  0  0  0  0  0
   37.1750   25.5970   32.4600 C   0  0  0  0  0  0  0  0  0  0  0  0
   36.4670   28.6330   32.4790 H   0  0  0  0  0  0  0  0  0  0  0  0
   38.6390   22.1620   34.3510 C   0  0  0  0  0  0  0  0  0  0  0  0
   37.5610   21.5870   35.0200 C   0  0  0  0  0  0  0  0  0  0  0  0
   37.2560   22.4990   35.9860 N   0  0  0  0  0  0  0  0  0  0  0  0
   38.1050   23.5180   35.8660 C   0  0  0  0  0  0  0  0  0  0  0  0
   38.9630   23.3340   34.8690 N   0  0  0  0  0  0  0  0  0  0  0  0
   37.1150   20.6290   34.7760 H   0  0  0  0  0  0  0  0  0  0  0  0
   37.9610   24.3280   36.5950 H   0  0  0  0  0  0  0  0  0  0  0  0
   39.3330   21.5470   33.2250 C   0  0  0  0  0  0  0  0  0  0  0  0
   40.6680   21.1180   33.3840 C   0  0  0  0  0  0  0  0  0  0  0  0
   41.2920   20.5270   32.2590 C   0  0  0  0  0  0  0  0  0  0  0  0
   40.5670   20.4160   31.1150 N   0  0  0  0  0  0  0  0  0  0  0  0
   39.2870   20.8430   31.0120 C   0  0  0  0  0  0  0  0  0  0  0  0
   38.6720   21.4060   32.0590 N   0  0  0  0  0  0  0  0  0  0  0  0
   41.1030   21.2730   34.3440 H   0  0  0  0  0  0  0  0  0  0  0  0
   42.2960   20.2090   32.3950 H   0  0  0  0  0  0  0  0  0  0  0  0
   38.8640   20.6790   30.0390 H   0  0  0  0  0  0  0  0  0  0  0  0
   40.2260   26.8250   34.4890 C   0  0  0  0  0  0  0  0  0  0  0  0
   39.5180   27.4440   35.5130 F   0  0  0  0  0  0  0  0  0  0  0  0
   41.4490   26.3980   35.1190 F   0  0  0  0  0  0  0  0  0  0  0  0
   40.5550   27.6520   33.4900 F   0  0  0  0  0  0  0  0  0  0  0  0
  1 21  1  0  0  0  0
  1  4  1  1  0  0  0
  2  3  1  0  0  0  0
  2  1  1  0  0  0  0
  3 33  1  1  0  0  0
  3  1  1  0  0  0  0
  5  2  1  0  0  0  0
  6  2  1  0  0  0  0
  7  8  2  0  0  0  0
  7  3  1  0  0  0  0
  9  8  1  0  0  0  0
 10 15  1  0  0  0  0
 10  9  1  0  0  0  0
 11 10  2  0  0  0  0
 12 13  2  0  0  0  0
 12 11  1  0  0  0  0
 13 14  1  0  0  0  0
 14 15  2  0  0  0  0
 15  7  1  0  0  0  0
 16  9  1  0  0  0  0
 17 21  1  0  0  0  0
 17 18  2  0  0  0  0
 18 19  1  0  0  0  0
 20 19  2  0  0  0  0
 20 23  1  0  0  0  0
 21 20  1  0  0  0  0
 22 18  1  0  0  0  0
 24 25  1  0  0  0  0
 24 17  1  0  0  0  0
 25 30  1  0  0  0  0
 26 31  1  0  0  0  0
 26 25  2  0  0  0  0
 27 26  1  0  0  0  0
 28 27  2  0  0  0  0
 28 29  1  0  0  0  0
 29 24  2  0  0  0  0
 32 28  1  0  0  0  0
 33 35  1  0  0  0  0
 33 34  1  0  0  0  0
 36 33  1  0  0  0  0
M  END
>  <minimizedAffinity>
-5.04470253

>  <minimizedRMSD>
5.26141644

$$$$
