
 OpenBabel03262519173D

 38 42  0  0  0  0  0  0  0  0999 V2000
   36.5790   27.9700   33.8360 C   0  0  0  0  0  0  0  0  0  0  0  0
   36.0610   28.8740   34.7550 C   0  0  0  0  0  0  0  0  0  0  0  0
   35.1970   29.7810   34.2560 C   0  0  0  0  0  0  0  0  0  0  0  0
   34.8820   29.7650   32.9130 C   0  0  0  0  0  0  0  0  0  0  0  0
   35.8890   28.3450   32.2690 S   0  0  0  0  0  0  0  0  0  0  0  0
   36.3240   28.8640   35.8050 H   0  0  0  0  0  0  0  0  0  0  0  0
   34.5100   30.8460   35.0140 C   0  0  0  0  0  0  0  0  0  0  0  0
   33.2870   30.9240   35.6010 C   0  0  0  0  0  0  0  0  0  0  0  0
   33.1650   32.1540   36.1720 N   0  0  0  0  0  0  0  0  0  0  0  0
   34.2970   32.8380   35.9450 C   0  0  0  0  0  0  0  0  0  0  0  0
   34.5660   34.1180   36.3580 C   0  0  0  0  0  0  0  0  0  0  0  0
   35.8060   34.6470   36.0170 C   0  0  0  0  0  0  0  0  0  0  0  0
   36.7030   33.8880   35.2920 C   0  0  0  0  0  0  0  0  0  0  0  0
   36.3770   32.6050   34.9030 C   0  0  0  0  0  0  0  0  0  0  0  0
   35.1550   32.0490   35.2240 C   0  0  0  0  0  0  0  0  0  0  0  0
   32.2730   32.3740   36.6680 H   0  0  0  0  0  0  0  0  0  0  0  0
   37.5570   26.2090   35.3720 C   0  0  0  0  0  0  0  0  0  0  0  0
   37.5330   26.9220   34.1760 C   0  0  0  0  0  0  0  0  0  0  0  0
   38.4880   26.6540   33.1780 C   0  0  0  0  0  0  0  0  0  0  0  0
   39.3920   25.6810   33.4800 N   0  0  0  0  0  0  0  0  0  0  0  0
   39.3950   25.0000   34.6560 C   0  0  0  0  0  0  0  0  0  0  0  0
   38.4720   25.2800   35.5830 N   0  0  0  0  0  0  0  0  0  0  0  0
   36.7780   26.4890   36.0790 H   0  0  0  0  0  0  0  0  0  0  0  0
   38.5240   27.1700   32.2310 H   0  0  0  0  0  0  0  0  0  0  0  0
   40.4390   23.9820   34.8350 C   0  0  0  0  0  0  0  0  0  0  0  0
   40.3020   22.8500   34.1110 C   0  0  0  0  0  0  0  0  0  0  0  0
   41.7970   21.8370   34.6170 S   0  0  0  0  0  0  0  0  0  0  0  0
   42.3370   23.2450   35.7830 C   0  0  0  0  0  0  0  0  0  0  0  0
   41.4990   23.9510   35.5750 N   0  0  0  0  0  0  0  0  0  0  0  0
   43.5000   23.1810   36.5850 N   0  0  0  0  0  0  0  0  0  0  0  0
   39.5750   22.3610   33.3210 H   0  0  0  0  0  0  0  0  0  0  0  0
   43.4640   22.8320   37.5720 H   0  0  0  0  0  0  0  0  0  0  0  0
   44.3290   23.5110   36.0680 H   0  0  0  0  0  0  0  0  0  0  0  0
   34.0460   30.5150   32.0520 C   0  0  0  0  0  0  0  0  0  0  0  0
   32.8390   30.3170   32.0040 O   0  0  0  0  0  0  0  0  0  0  0  0
   34.6170   31.5430   31.2040 N   0  0  0  0  0  0  0  0  0  0  0  0
   34.6520   32.4180   31.7650 H   0  0  0  0  0  0  0  0  0  0  0  0
   34.9170   31.3670   30.2120 H   0  0  0  0  0  0  0  0  0  0  0  0
  1 18  1  0  0  0  0
  1  2  2  0  0  0  0
  2  6  1  0  0  0  0
  3  2  1  0  0  0  0
  3  7  1  0  0  0  0
  4  3  2  0  0  0  0
  5  4  1  0  0  0  0
  5  1  1  0  0  0  0
  7 15  1  0  0  0  0
  7  8  2  0  0  0  0
  8  9  1  0  0  0  0
  9 16  1  0  0  0  0
 10  9  1  0  0  0  0
 10 11  1  0  0  0  0
 12 11  2  0  0  0  0
 13 12  1  0  0  0  0
 14 15  1  0  0  0  0
 14 13  2  0  0  0  0
 15 10  2  0  0  0  0
 17 22  1  0  0  0  0
 17 23  1  0  0  0  0
 18 17  2  0  0  0  0
 19 20  2  0  0  0  0
 19 18  1  0  0  0  0
 20 21  1  0  0  0  0
 21 25  1  0  0  0  0
 21 22  2  0  0  0  0
 24 19  1  0  0  0  0
 25 29  1  0  0  0  0
 26 27  1  0  0  0  0
 26 25  2  0  0  0  0
 27 28  1  0  0  0  0
 28 30  1  0  0  0  0
 29 28  2  0  0  0  0
 30 32  1  0  0  0  0
 31 26  1  0  0  0  0
 33 30  1  0  0  0  0
 34  4  1  0  0  0  0
 35 34  2  0  0  0  0
 36 37  1  0  0  0  0
 36 34  1  0  0  0  0
 38 36  1  0  0  0  0
M  END
>  <minimizedAffinity>
-5.43181133

>  <minimizedRMSD>
3.75550461

$$$$
