
 OpenBabel03262519583D

 33 37  0  0  1  0  0  0  0  0999 V2000
   37.4150   21.6880   33.8710 C   0  0  1  0  0  0  0  0  0  0  0  0
   36.3070   21.1680   34.6760 C   0  0  0  0  0  0  0  0  0  0  0  0
   36.1200   21.2890   33.1720 C   0  0  2  0  0  0  0  0  0  0  0  0
   38.2740   21.0550   33.5700 H   0  0  0  0  0  0  0  0  0  0  0  0
   35.7710   21.8530   35.3370 H   0  0  0  0  0  0  0  0  0  0  0  0
   36.4220   20.1480   35.0980 H   0  0  0  0  0  0  0  0  0  0  0  0
   35.4290   22.0660   32.8020 H   0  0  0  0  0  0  0  0  0  0  0  0
   36.0440   19.9960   32.4560 C   0  0  0  0  0  0  0  0  0  0  0  0
   35.3300   18.8580   32.8040 C   0  0  0  0  0  3  0  0  0  0  0  0
   35.5250   17.8810   31.8810 N   0  0  0  0  0  0  0  0  0  0  0  0
   36.3520   18.3260   30.9170 C   0  0  0  0  0  0  0  0  0  0  0  0
   36.8770   17.7640   29.7650 C   0  0  0  0  0  3  0  0  0  0  0  0
   37.7240   18.4760   28.9420 C   0  0  0  0  0  3  0  0  0  0  0  0
   38.0510   19.7660   29.2790 C   0  0  0  0  0  3  0  0  0  0  0  0
   37.5260   20.3120   30.4210 C   0  0  0  0  0  3  0  0  0  0  0  0
   36.6660   19.6260   31.2800 C   0  0  0  0  0  0  0  0  0  0  0  0
   35.0990   16.9290   31.9120 H   0  0  0  0  0  0  0  0  0  0  0  0
   38.1310   23.9970   34.6170 C   0  0  0  0  0  0  0  0  0  0  0  0
   38.2360   25.2650   34.0540 C   0  0  0  0  0  0  0  0  0  0  0  0
   37.8160   25.0770   32.7690 N   0  0  0  0  0  0  0  0  0  0  0  0
   37.5010   23.8100   32.6220 C   0  0  0  0  0  0  0  0  0  0  0  0
   37.6820   23.1010   33.7490 N   0  0  0  0  0  0  0  0  0  0  0  0
   38.5810   26.1460   34.5840 H   0  0  0  0  0  0  0  0  0  0  0  0
   37.1480   23.5220   31.6400 H   0  0  0  0  0  0  0  0  0  0  0  0
   38.4720   23.6790   36.0000 C   0  0  0  0  0  0  0  0  0  0  0  0
   39.7100   23.0800   36.2930 C   0  0  0  0  0  0  0  0  0  0  0  0
   40.0010   22.7900   37.6450 C   0  0  0  0  0  0  0  0  0  0  0  0
   39.0660   23.1100   38.5660 N   0  0  0  0  0  0  0  0  0  0  0  0
   37.8810   23.6870   38.2530 C   0  0  0  0  0  0  0  0  0  0  0  0
   37.5930   23.9670   36.9730 N   0  0  0  0  0  0  0  0  0  0  0  0
   40.4140   22.8480   35.5200 H   0  0  0  0  0  0  0  0  0  0  0  0
   40.9420   22.3280   37.9170 H   0  0  0  0  0  0  0  0  0  0  0  0
   37.1890   23.9120   39.0270 H   0  0  0  0  0  0  0  0  0  0  0  0
  1  4  1  6  0  0  0
  1  2  1  0  0  0  0
  2  6  1  0  0  0  0
  2  5  1  0  0  0  0
  3  7  1  6  0  0  0
  3  1  1  0  0  0  0
  3  2  1  0  0  0  0
  8  9  2  0  0  0  0
  8  3  1  0  0  0  0
 10 17  1  0  0  0  0
 10  9  1  0  0  0  0
 11 16  1  0  0  0  0
 11 10  1  0  0  0  0
 12 11  2  0  0  0  0
 13 14  2  0  0  0  0
 13 12  1  0  0  0  0
 14 15  1  0  0  0  0
 15 16  2  0  0  0  0
 16  8  1  0  0  0  0
 18 25  1  0  0  0  0
 19 23  1  0  0  0  0
 19 18  2  0  0  0  0
 20 19  1  0  0  0  0
 21 20  2  0  0  0  0
 21 22  1  0  0  0  0
 22  1  1  0  0  0  0
 22 18  1  0  0  0  0
 24 21  1  0  0  0  0
 25 26  2  0  0  0  0
 25 30  1  0  0  0  0
 26 27  1  0  0  0  0
 27 32  1  0  0  0  0
 27 28  2  0  0  0  0
 29 28  1  0  0  0  0
 29 33  1  0  0  0  0
 30 29  2  0  0  0  0
 31 26  1  0  0  0  0
M  END
>  <minimizedAffinity>
-5.47146845

>  <minimizedRMSD>
1.1890384

$$$$
