
 OpenBabel03262519533D

 35 38  0  0  1  0  0  0  0  0999 V2000
   37.7590   27.7650   35.3680 C   0  0  0  0  0  0  0  0  0  0  0  0
   38.3710   28.4910   34.7500 H   0  0  0  0  0  0  0  0  0  0  0  0
   37.3490   28.3880   36.1720 H   0  0  0  0  0  0  0  0  0  0  0  0
   38.7830   26.7190   35.8390 C   0  0  2  0  0  0  0  0  0  0  0  0
   40.0080   26.6570   35.0610 C   0  0  0  0  0  0  0  0  0  0  0  0
   39.0350   25.5080   35.1280 C   0  0  1  0  0  0  0  0  0  0  0  0
   38.7490   26.6850   36.9510 H   0  0  0  0  0  0  0  0  0  0  0  0
   41.0030   26.3570   35.4300 H   0  0  0  0  0  0  0  0  0  0  0  0
   40.1230   27.3410   34.2450 H   0  0  0  0  0  0  0  0  0  0  0  0
   39.0910   25.0720   34.1860 H   0  0  0  0  0  0  0  0  0  0  0  0
   39.3400   24.3290   36.0360 C   0  0  0  0  0  0  0  0  0  0  0  0
   38.3590   23.9880   36.9610 C   0  0  0  0  0  3  0  0  0  0  0  0
   38.8640   22.9550   37.6610 N   0  0  0  0  0  0  0  0  0  0  0  0
   40.1140   22.6320   37.2200 C   0  0  0  0  0  0  0  0  0  0  0  0
   41.0620   21.6910   37.5530 C   0  0  0  0  0  3  0  0  0  0  0  0
   42.2650   21.6630   36.8400 C   0  0  0  0  0  3  0  0  0  0  0  0
   42.5390   22.5560   35.8020 C   0  0  0  0  0  3  0  0  0  0  0  0
   41.5560   23.4790   35.5090 C   0  0  0  0  0  3  0  0  0  0  0  0
   40.3840   23.5150   36.1960 C   0  0  0  0  0  0  0  0  0  0  0  0
   38.4110   22.4290   38.4480 H   0  0  0  0  0  0  0  0  0  0  0  0
   36.8090   27.1180   34.4840 C   0  0  0  0  0  0  0  0  0  0  0  0
   35.8120   27.2100   35.0620 H   0  0  0  0  0  0  0  0  0  0  0  0
   36.9280   26.0700   34.5120 H   0  0  0  0  0  0  0  0  0  0  0  0
   36.4110   28.1070   31.0670 C   0  0  0  0  0  0  0  0  0  0  0  0
   36.7820   27.2670   32.1480 C   0  0  0  0  0  0  0  0  0  0  0  0
   36.5190   27.8610   33.3170 C   0  0  0  0  0  0  0  0  0  0  0  0
   35.9560   29.1290   33.4110 N   0  0  0  0  0  0  0  0  0  0  0  0
   35.6350   29.8560   32.3490 C   0  0  0  0  0  0  0  0  0  0  0  0
   35.8670   29.3350   31.1680 N   0  0  0  0  0  0  0  0  0  0  0  0
   36.5470   27.8010   30.0120 H   0  0  0  0  0  0  0  0  0  0  0  0
   35.2070   30.8210   32.5610 H   0  0  0  0  0  0  0  0  0  0  0  0
   37.3270   26.0110   31.7820 C   0  0  0  0  0  0  0  0  0  0  0  0
   38.7150   25.9260   32.0520 F   0  0  0  0  0  0  0  0  0  0  0  0
   37.5480   25.6810   30.4980 F   0  0  0  0  0  0  0  0  0  0  0  0
   37.0710   24.9100   32.6010 F   0  0  0  0  0  0  0  0  0  0  0  0
  1  4  1  0  0  0  0
  1  3  1  0  0  0  0
  2  1  1  0  0  0  0
  4  7  1  1  0  0  0
  5  6  1  0  0  0  0
  5  8  1  0  0  0  0
  5  4  1  0  0  0  0
  6 10  1  6  0  0  0
  6  4  1  0  0  0  0
  6 11  1  0  0  0  0
  9  5  1  0  0  0  0
 11 19  1  0  0  0  0
 11 12  2  0  0  0  0
 12 13  1  0  0  0  0
 13 20  1  0  0  0  0
 14 15  1  0  0  0  0
 14 13  1  0  0  0  0
 16 15  2  0  0  0  0
 17 16  1  0  0  0  0
 18 17  2  0  0  0  0
 18 19  1  0  0  0  0
 19 14  2  0  0  0  0
 21 23  1  0  0  0  0
 21 22  1  0  0  0  0
 21  1  1  0  0  0  0
 24 29  2  0  0  0  0
 24 25  1  0  0  0  0
 25 26  2  0  0  0  0
 26 27  1  0  0  0  0
 26 21  1  0  0  0  0
 28 31  1  0  0  0  0
 28 27  2  0  0  0  0
 29 28  1  0  0  0  0
 30 24  1  0  0  0  0
 32 33  1  0  0  0  0
 32 25  1  0  0  0  0
 32 35  1  0  0  0  0
 34 32  1  0  0  0  0
M  END
>  <minimizedAffinity>
-5.86516285

>  <minimizedRMSD>
6.83357

$$$$
