
 OpenBabel03262519583D

 33 37  0  0  1  0  0  0  0  0999 V2000
   37.4140   21.6860   33.8710 C   0  0  1  0  0  0  0  0  0  0  0  0
   36.3060   21.1680   34.6760 C   0  0  0  0  0  0  0  0  0  0  0  0
   36.1200   21.2880   33.1720 C   0  0  2  0  0  0  0  0  0  0  0  0
   38.2730   21.0530   33.5700 H   0  0  0  0  0  0  0  0  0  0  0  0
   35.7700   21.8530   35.3360 H   0  0  0  0  0  0  0  0  0  0  0  0
   36.4210   20.1480   35.0990 H   0  0  0  0  0  0  0  0  0  0  0  0
   35.4290   22.0640   32.8010 H   0  0  0  0  0  0  0  0  0  0  0  0
   36.0440   19.9940   32.4560 C   0  0  0  0  0  0  0  0  0  0  0  0
   35.3300   18.8570   32.8040 C   0  0  0  0  0  0  0  0  0  0  0  0
   35.5260   17.8790   31.8800 N   0  0  0  0  0  0  0  0  0  0  0  0
   36.3520   18.3250   30.9180 C   0  0  0  0  0  0  0  0  0  0  0  0
   36.8760   17.7620   29.7640 C   0  0  0  0  0  0  0  0  0  0  0  0
   37.7230   18.4740   28.9410 C   0  0  0  0  0  0  0  0  0  0  0  0
   38.0490   19.7660   29.2780 C   0  0  0  0  0  0  0  0  0  0  0  0
   37.5250   20.3110   30.4200 C   0  0  0  0  0  0  0  0  0  0  0  0
   36.6650   19.6260   31.2790 C   0  0  0  0  0  0  0  0  0  0  0  0
   35.1000   16.9270   31.9130 H   0  0  0  0  0  0  0  0  0  0  0  0
   38.1310   23.9960   34.6160 C   0  0  0  0  0  0  0  0  0  0  0  0
   38.2370   25.2640   34.0510 C   0  0  0  0  0  0  0  0  0  0  0  0
   37.8170   25.0750   32.7670 N   0  0  0  0  0  0  0  0  0  0  0  0
   37.5010   23.8080   32.6200 C   0  0  0  0  0  0  0  0  0  0  0  0
   37.6820   23.1000   33.7480 N   0  0  0  0  0  0  0  0  0  0  0  0
   38.5830   26.1450   34.5820 H   0  0  0  0  0  0  0  0  0  0  0  0
   37.1490   23.5200   31.6390 H   0  0  0  0  0  0  0  0  0  0  0  0
   38.4720   23.6790   35.9990 C   0  0  0  0  0  0  0  0  0  0  0  0
   39.7100   23.0800   36.2920 C   0  0  0  0  0  0  0  0  0  0  0  0
   40.0010   22.7910   37.6440 C   0  0  0  0  0  0  0  0  0  0  0  0
   39.0660   23.1100   38.5650 N   0  0  0  0  0  0  0  0  0  0  0  0
   37.8810   23.6880   38.2520 C   0  0  0  0  0  0  0  0  0  0  0  0
   37.5930   23.9680   36.9710 N   0  0  0  0  0  0  0  0  0  0  0  0
   40.4140   22.8480   35.5200 H   0  0  0  0  0  0  0  0  0  0  0  0
   40.9420   22.3290   37.9170 H   0  0  0  0  0  0  0  0  0  0  0  0
   37.1890   23.9130   39.0260 H   0  0  0  0  0  0  0  0  0  0  0  0
  1  4  1  6  0  0  0
  1  2  1  0  0  0  0
  2  6  1  0  0  0  0
  2  5  1  0  0  0  0
  3  7  1  6  0  0  0
  3  1  1  0  0  0  0
  3  2  1  0  0  0  0
  8  9  2  0  0  0  0
  8  3  1  0  0  0  0
 10 17  1  0  0  0  0
 10  9  1  0  0  0  0
 11 16  1  0  0  0  0
 11 10  1  0  0  0  0
 12 11  2  0  0  0  0
 13 14  2  0  0  0  0
 13 12  1  0  0  0  0
 14 15  1  0  0  0  0
 15 16  2  0  0  0  0
 16  8  1  0  0  0  0
 18 25  1  0  0  0  0
 19 23  1  0  0  0  0
 19 18  2  0  0  0  0
 20 19  1  0  0  0  0
 21 20  2  0  0  0  0
 21 22  1  0  0  0  0
 22  1  1  0  0  0  0
 22 18  1  0  0  0  0
 24 21  1  0  0  0  0
 25 26  2  0  0  0  0
 25 30  1  0  0  0  0
 26 27  1  0  0  0  0
 27 32  1  0  0  0  0
 27 28  2  0  0  0  0
 29 28  1  0  0  0  0
 29 33  1  0  0  0  0
 30 29  2  0  0  0  0
 31 26  1  0  0  0  0
M  END
>  <minimizedAffinity>
-5.47220325

>  <minimizedRMSD>
2.32097149

$$$$
