
 OpenBabel03262516153D

 36 40  0  0  0  0  0  0  0  0999 V2000
   45.0730   23.9490   36.0890 C   0  0  0  0  0  0  0  0  0  0  0  0
   45.9620   23.7220   35.5580 H   0  0  0  0  0  0  0  0  0  0  0  0
   44.5540   24.6910   35.3370 H   0  0  0  0  0  0  0  0  0  0  0  0
   41.7060   22.3360   36.7530 C   0  0  0  0  0  0  0  0  0  0  0  0
   42.7070   23.2680   36.5600 C   0  0  0  0  0  0  0  0  0  0  0  0
   44.0210   22.9090   36.2540 C   0  0  0  0  0  0  0  0  0  0  0  0
   44.2180   21.5490   36.1620 N   0  0  0  0  0  0  0  0  0  0  0  0
   43.2470   20.6430   36.3480 C   0  0  0  0  0  0  0  0  0  0  0  0
   42.0200   21.0670   36.6390 N   0  0  0  0  0  0  0  0  0  0  0  0
   42.4380   24.3110   36.6570 H   0  0  0  0  0  0  0  0  0  0  0  0
   43.5310   19.6020   36.2490 H   0  0  0  0  0  0  0  0  0  0  0  0
   40.3620   22.8050   37.0690 C   0  0  0  0  0  0  0  0  0  0  0  0
   39.4270   23.2210   36.1240 C   0  0  0  0  0  0  0  0  0  0  0  0
   38.3290   23.5670   36.8820 C   0  0  0  0  0  0  0  0  0  0  0  0
   38.6230   23.3560   38.2280 C   0  0  0  0  0  0  0  0  0  0  0  0
   39.8620   22.8980   38.2860 O   0  0  0  0  0  0  0  0  0  0  0  0
   39.5010   23.2740   35.0620 H   0  0  0  0  0  0  0  0  0  0  0  0
   37.3540   23.9500   36.5500 H   0  0  0  0  0  0  0  0  0  0  0  0
   38.0160   23.5120   39.1320 H   0  0  0  0  0  0  0  0  0  0  0  0
   45.2170   24.7450   37.2710 N   0  0  0  0  0  0  0  0  0  0  0  0
   44.2800   25.5030   37.8520 N   0  0  0  0  0  0  0  0  0  0  0  0
   44.7640   26.1790   38.8670 C   0  0  0  0  0  0  0  0  0  0  0  0
   46.0970   25.8660   38.9860 C   0  0  0  0  0  0  0  0  0  0  0  0
   46.3550   24.9390   37.9480 C   0  0  0  0  0  0  0  0  0  0  0  0
   44.0530   26.8000   39.3670 H   0  0  0  0  0  0  0  0  0  0  0  0
   46.5610   26.3820   39.7990 H   0  0  0  0  0  0  0  0  0  0  0  0
   47.7440   24.5560   37.9420 C   0  0  0  0  0  0  0  0  0  0  0  0
   48.6230   24.6740   36.8520 C   0  0  0  0  0  0  0  0  0  0  0  0
   49.8630   24.3120   37.1160 N   0  0  0  0  0  0  0  0  0  0  0  0
   49.9290   23.9250   38.3870 C   0  0  0  0  0  0  0  0  0  0  0  0
   50.9950   23.4900   39.1370 C   0  0  0  0  0  0  0  0  0  0  0  0
   50.7920   23.1880   40.4520 C   0  0  0  0  0  0  0  0  0  0  0  0
   49.5070   23.3340   40.9870 C   0  0  0  0  0  0  0  0  0  0  0  0
   48.5260   23.7730   40.1500 C   0  0  0  0  0  0  0  0  0  0  0  0
   48.6460   24.0870   38.8450 C   0  0  0  0  0  0  0  0  0  0  0  0
   50.6700   24.3140   36.4660 H   0  0  0  0  0  0  0  0  0  0  0  0
  1  6  1  0  0  0  0
  1 20  1  0  0  0  0
  2  1  1  0  0  0  0
  3  1  1  0  0  0  0
  4 12  1  0  0  0  0
  5 10  1  0  0  0  0
  5  4  2  0  0  0  0
  6  5  1  0  0  0  0
  7  6  2  0  0  0  0
  7  8  1  0  0  0  0
  8  9  2  0  0  0  0
  9  4  1  0  0  0  0
 11  8  1  0  0  0  0
 12 16  1  0  0  0  0
 13 14  1  0  0  0  0
 13 12  2  0  0  0  0
 14 15  2  0  0  0  0
 15 16  1  0  0  0  0
 15 19  1  0  0  0  0
 17 13  1  0  0  0  0
 18 14  1  0  0  0  0
 20 21  1  0  0  0  0
 20 24  1  0  0  0  0
 21 22  2  0  0  0  0
 22 23  1  0  0  0  0
 22 25  1  0  0  0  0
 23 26  1  0  0  0  0
 24 23  2  0  0  0  0
 27 24  1  0  0  0  0
 27 35  1  0  0  0  0
 28 29  1  0  0  0  0
 28 27  2  0  0  0  0
 29 30  1  0  0  0  0
 30 35  2  0  0  0  0
 30 31  1  0  0  0  0
 31 32  2  0  0  0  0
 32 33  1  0  0  0  0
 34 33  2  0  0  0  0
 35 34  1  0  0  0  0
 36 29  1  0  0  0  0
M  END
>  <minimizedAffinity>
-5.85462713

>  <minimizedRMSD>
1.65454257

$$$$
