
 OpenBabel03262517433D

 44 48  0  0  1  0  0  0  0  0999 V2000
   39.8190   22.1260   34.4510 C   0  0  0  0  0  0  0  0  0  0  0  0
   38.5800   21.9130   33.8580 C   0  0  0  0  0  0  0  0  0  0  0  0
   38.4890   21.0960   32.7500 C   0  0  0  0  0  0  0  0  0  0  0  0
   39.6310   20.5250   32.2760 N   0  0  0  0  0  0  0  0  0  0  0  0
   40.8160   20.7500   32.8720 C   0  0  0  0  0  0  0  0  0  0  0  0
   40.9270   21.5400   33.9500 N   0  0  0  0  0  0  0  0  0  0  0  0
   37.3290   20.7650   32.0210 N   0  0  0  0  0  0  0  0  0  0  0  0
   36.8020   21.4890   30.8970 C   0  0  0  0  0  0  0  0  0  0  0  0
   35.4090   21.9830   31.2190 C   0  0  0  0  0  0  0  0  0  0  0  0
   34.9210   21.3490   32.3800 O   0  0  0  0  0  0  0  0  0  0  0  0
   35.0170   19.9810   32.2230 C   0  0  0  0  0  0  0  0  0  0  0  0
   36.4810   19.6030   32.3250 C   0  0  0  0  0  0  0  0  0  0  0  0
   37.6560   22.3400   34.1960 H   0  0  0  0  0  0  0  0  0  0  0  0
   41.7300   20.3240   32.5340 H   0  0  0  0  0  0  0  0  0  0  0  0
   37.4620   22.3740   30.7210 H   0  0  0  0  0  0  0  0  0  0  0  0
   36.8330   20.8470   30.0030 H   0  0  0  0  0  0  0  0  0  0  0  0
   35.4200   23.0690   31.4260 H   0  0  0  0  0  0  0  0  0  0  0  0
   34.7570   21.7190   30.3540 H   0  0  0  0  0  0  0  0  0  0  0  0
   34.6090   19.7070   31.2360 H   0  0  0  0  0  0  0  0  0  0  0  0
   34.4550   19.5100   33.0600 H   0  0  0  0  0  0  0  0  0  0  0  0
   36.7430   19.1820   33.3160 H   0  0  0  0  0  0  0  0  0  0  0  0
   36.7400   18.8370   31.5600 H   0  0  0  0  0  0  0  0  0  0  0  0
   39.8530   22.9800   35.5930 C   0  0  2  0  0  0  0  0  0  0  0  0
   40.1650   22.5930   36.7790 O   0  0  0  0  0  0  0  0  0  0  0  0
   39.5400   24.4010   35.5710 C   0  0  0  0  0  0  0  0  0  0  0  0
   38.3470   24.8940   36.0530 C   0  0  0  0  0  0  0  0  0  0  0  0
   38.1050   26.2610   36.0070 C   0  0  0  0  0  0  0  0  0  0  0  0
   39.0250   27.1490   35.4920 C   0  0  0  0  0  0  0  0  0  0  0  0
   40.2310   26.6630   35.0040 C   0  0  0  0  0  0  0  0  0  0  0  0
   40.4500   25.2870   35.0610 C   0  0  0  0  0  0  0  0  0  0  0  0
   37.6030   24.2250   36.4630 H   0  0  0  0  0  0  0  0  0  0  0  0
   37.1490   26.5930   36.4010 H   0  0  0  0  0  0  0  0  0  0  0  0
   38.7250   28.1890   35.5100 H   0  0  0  0  0  0  0  0  0  0  0  0
   40.9010   27.3920   34.6200 H   0  0  0  0  0  0  0  0  0  0  0  0
   41.7530   24.9290   34.5070 C   0  0  0  0  0  0  0  0  0  0  0  0
   41.8830   24.9890   33.1130 C   0  0  0  0  0  0  0  0  0  0  0  0
   43.1500   24.6290   32.8430 N   0  0  0  0  0  0  0  0  0  0  0  0
   43.8280   24.3450   33.9930 C   0  0  0  0  0  0  0  0  0  0  0  0
   45.1040   23.9410   34.3170 C   0  0  0  0  0  0  0  0  0  0  0  0
   45.4660   23.7380   35.6520 C   0  0  0  0  0  0  0  0  0  0  0  0
   44.5410   23.9420   36.6730 C   0  0  0  0  0  0  0  0  0  0  0  0
   43.2370   24.3520   36.3870 C   0  0  0  0  0  0  0  0  0  0  0  0
   42.9580   24.5300   35.0470 C   0  0  0  0  0  0  0  0  0  0  0  0
   43.6200   24.5560   31.8990 H   0  0  0  0  0  0  0  0  0  0  0  0
  1 23  1  0  0  0  0
  2 13  1  0  0  0  0
  2  1  2  0  0  0  0
  3  2  1  0  0  0  0
  4  3  2  0  0  0  0
  4  5  1  0  0  0  0
  5  6  2  0  0  0  0
  6  1  1  0  0  0  0
  7 12  1  0  0  0  0
  7  3  1  0  0  0  0
  8  9  1  0  0  0  0
  8  7  1  0  0  0  0
  9 17  1  0  0  0  0
  9 10  1  0  0  0  0
 11 12  1  0  0  0  0
 11 10  1  0  0  0  0
 11 20  1  0  0  0  0
 12 21  1  0  0  0  0
 14  5  1  0  0  0  0
 15  8  1  0  0  0  0
 16  8  1  0  0  0  0
 18  9  1  0  0  0  0
 19 11  1  0  0  0  0
 22 12  1  0  0  0  0
 23 24  1  1  0  0  0
 25 23  1  0  0  0  0
 25 26  1  0  0  0  0
 26 31  1  0  0  0  0
 27 26  2  0  0  0  0
 27 32  1  0  0  0  0
 28 33  1  0  0  0  0
 28 27  1  0  0  0  0
 29 30  1  0  0  0  0
 29 28  2  0  0  0  0
 30 25  2  0  0  0  0
 34 29  1  0  0  0  0
 35 43  1  0  0  0  0
 35 30  1  0  0  0  0
 36 35  2  0  0  0  0
 37 36  1  0  0  0  0
 37 38  1  0  0  0  0
 38 39  2  0  0  0  0
 38 43  1  0  0  0  0
 39 40  1  0  0  0  0
 40 41  2  0  0  0  0
 42 41  1  0  0  0  0
 43 42  2  0  0  0  0
 44 37  1  0  0  0  0
M  END
>  <minimizedAffinity>
-5.99515772

>  <minimizedRMSD>
0.616330862

$$$$
