
 OpenBabel03262518033D

 27 30  0  0  0  0  0  0  0  0999 V2000
   44.0010   19.9850   36.4160 C   0  0  0  0  0  0  0  0  0  0  0  0
   42.6590   20.3450   36.5750 C   0  0  0  0  0  0  0  0  0  0  0  0
   42.3280   21.6780   36.3740 C   0  0  0  0  0  0  0  0  0  0  0  0
   43.3380   22.5360   36.0360 N   0  0  0  0  0  0  0  0  0  0  0  0
   44.6090   22.1650   35.8900 C   0  0  0  0  0  0  0  0  0  0  0  0
   44.9420   20.8580   36.0850 N   0  0  0  0  0  0  0  0  0  0  0  0
   44.2390   18.9260   36.5790 H   0  0  0  0  0  0  0  0  0  0  0  0
   41.9180   19.6120   36.8430 H   0  0  0  0  0  0  0  0  0  0  0  0
   45.6300   23.1140   35.5320 C   0  0  0  0  0  0  0  0  0  0  0  0
   46.2600   23.1970   34.3090 C   0  0  0  0  0  0  0  0  0  0  0  0
   47.1620   24.2160   34.3500 N   0  0  0  0  0  0  0  0  0  0  0  0
   47.1310   24.7910   35.5670 C   0  0  0  0  0  0  0  0  0  0  0  0
   47.8170   25.8520   36.1690 C   0  0  0  0  0  0  0  0  0  0  0  0
   47.5700   26.2240   37.4560 C   0  0  0  0  0  0  0  0  0  0  0  0
   46.6180   25.5660   38.2400 C   0  0  0  0  0  0  0  0  0  0  0  0
   45.9730   24.5200   37.5780 C   0  0  0  0  0  0  0  0  0  0  0  0
   46.1800   24.1070   36.2990 C   0  0  0  0  0  0  0  0  0  0  0  0
   47.7900   24.5190   33.5750 H   0  0  0  0  0  0  0  0  0  0  0  0
   40.9520   22.1370   36.5200 C   0  0  0  0  0  0  0  0  0  0  0  0
   39.8620   22.1320   35.7000 N   0  0  0  0  0  0  0  0  0  0  0  0
   38.8580   22.6660   36.3140 O   0  0  0  0  0  0  0  0  0  0  0  0
   39.2310   23.0400   37.5380 C   0  0  0  0  0  0  0  0  0  0  0  0
   40.5150   22.7080   37.6450 N   0  0  0  0  0  0  0  0  0  0  0  0
   38.4070   23.6840   38.5630 C   0  0  0  0  0  0  0  0  0  0  0  0
   39.1700   23.9050   39.6880 F   0  0  0  0  0  0  0  0  0  0  0  0
   37.3450   22.8660   38.9550 F   0  0  0  0  0  0  0  0  0  0  0  0
   37.9250   24.8830   38.1150 F   0  0  0  0  0  0  0  0  0  0  0  0
  1  2  1  0  0  0  0
  1  7  1  0  0  0  0
  2  8  1  0  0  0  0
  3 19  1  0  0  0  0
  3  2  2  0  0  0  0
  4  3  1  0  0  0  0
  5  4  2  0  0  0  0
  5  6  1  0  0  0  0
  6  1  2  0  0  0  0
  9  5  1  0  0  0  0
  9 17  1  0  0  0  0
 10 11  1  0  0  0  0
 10  9  2  0  0  0  0
 11 12  1  0  0  0  0
 12 13  2  0  0  0  0
 12 17  1  0  0  0  0
 13 14  1  0  0  0  0
 14 15  2  0  0  0  0
 16 15  1  0  0  0  0
 17 16  2  0  0  0  0
 18 11  1  0  0  0  0
 19 23  1  0  0  0  0
 20 21  1  0  0  0  0
 20 19  2  0  0  0  0
 21 22  1  0  0  0  0
 22 23  2  0  0  0  0
 22 24  1  0  0  0  0
 24 26  1  0  0  0  0
 24 25  1  0  0  0  0
 27 24  1  0  0  0  0
M  END
>  <minimizedAffinity>
-5.62485456

>  <minimizedRMSD>
3.5542655

$$$$
