
 OpenBabel03262519573D

 33 37  0  0  1  0  0  0  0  0999 V2000
   37.4140   21.6880   33.8720 C   0  0  1  0  0  0  0  0  0  0  0  0
   36.3060   21.1690   34.6760 C   0  0  0  0  0  0  0  0  0  0  0  0
   36.1190   21.2900   33.1720 C   0  0  2  0  0  0  0  0  0  0  0  0
   38.2730   21.0550   33.5700 H   0  0  0  0  0  0  0  0  0  0  0  0
   35.7700   21.8530   35.3370 H   0  0  0  0  0  0  0  0  0  0  0  0
   36.4210   20.1490   35.0980 H   0  0  0  0  0  0  0  0  0  0  0  0
   35.4280   22.0670   32.8020 H   0  0  0  0  0  0  0  0  0  0  0  0
   36.0440   19.9970   32.4560 C   0  0  0  0  0  0  0  0  0  0  0  0
   35.3300   18.8590   32.8040 C   0  0  0  0  0  3  0  0  0  0  0  0
   35.5260   17.8810   31.8800 N   0  0  0  0  0  0  0  0  0  0  0  0
   36.3530   18.3260   30.9180 C   0  0  0  0  0  0  0  0  0  0  0  0
   36.8780   17.7640   29.7650 C   0  0  0  0  0  3  0  0  0  0  0  0
   37.7240   18.4770   28.9420 C   0  0  0  0  0  3  0  0  0  0  0  0
   38.0500   19.7680   29.2790 C   0  0  0  0  0  3  0  0  0  0  0  0
   37.5250   20.3140   30.4210 C   0  0  0  0  0  3  0  0  0  0  0  0
   36.6660   19.6270   31.2800 C   0  0  0  0  0  0  0  0  0  0  0  0
   35.1000   16.9290   31.9130 H   0  0  0  0  0  0  0  0  0  0  0  0
   38.1300   23.9970   34.6170 C   0  0  0  0  0  0  0  0  0  0  0  0
   38.2350   25.2660   34.0540 C   0  0  0  0  0  0  0  0  0  0  0  0
   37.8150   25.0780   32.7700 N   0  0  0  0  0  0  0  0  0  0  0  0
   37.4990   23.8110   32.6220 C   0  0  0  0  0  0  0  0  0  0  0  0
   37.6810   23.1020   33.7490 N   0  0  0  0  0  0  0  0  0  0  0  0
   38.5810   26.1470   34.5850 H   0  0  0  0  0  0  0  0  0  0  0  0
   37.1470   23.5230   31.6410 H   0  0  0  0  0  0  0  0  0  0  0  0
   38.4720   23.6800   36.0000 C   0  0  0  0  0  0  0  0  0  0  0  0
   39.7100   23.0800   36.2930 C   0  0  0  0  0  0  0  0  0  0  0  0
   40.0020   22.7900   37.6440 C   0  0  0  0  0  0  0  0  0  0  0  0
   39.0670   23.1100   38.5660 N   0  0  0  0  0  0  0  0  0  0  0  0
   37.8820   23.6880   38.2540 C   0  0  0  0  0  0  0  0  0  0  0  0
   37.5940   23.9680   36.9730 N   0  0  0  0  0  0  0  0  0  0  0  0
   40.4130   22.8480   35.5190 H   0  0  0  0  0  0  0  0  0  0  0  0
   40.9420   22.3280   37.9160 H   0  0  0  0  0  0  0  0  0  0  0  0
   37.1910   23.9130   39.0280 H   0  0  0  0  0  0  0  0  0  0  0  0
  1  4  1  6  0  0  0
  1  2  1  0  0  0  0
  2  6  1  0  0  0  0
  2  5  1  0  0  0  0
  3  7  1  6  0  0  0
  3  1  1  0  0  0  0
  3  2  1  0  0  0  0
  8  9  2  0  0  0  0
  8  3  1  0  0  0  0
 10 17  1  0  0  0  0
 10  9  1  0  0  0  0
 11 16  1  0  0  0  0
 11 10  1  0  0  0  0
 12 11  2  0  0  0  0
 13 14  2  0  0  0  0
 13 12  1  0  0  0  0
 14 15  1  0  0  0  0
 15 16  2  0  0  0  0
 16  8  1  0  0  0  0
 18 25  1  0  0  0  0
 19 23  1  0  0  0  0
 19 18  2  0  0  0  0
 20 19  1  0  0  0  0
 21 20  2  0  0  0  0
 21 22  1  0  0  0  0
 22  1  1  0  0  0  0
 22 18  1  0  0  0  0
 24 21  1  0  0  0  0
 25 26  2  0  0  0  0
 25 30  1  0  0  0  0
 26 27  1  0  0  0  0
 27 32  1  0  0  0  0
 27 28  2  0  0  0  0
 29 28  1  0  0  0  0
 29 33  1  0  0  0  0
 30 29  2  0  0  0  0
 31 26  1  0  0  0  0
M  END
>  <minimizedAffinity>
-5.47134352

>  <minimizedRMSD>
1.92475533

$$$$
