
 OpenBabel03262517053D

 36 40  0  0  0  0  0  0  0  0999 V2000
   39.1120   24.1580   35.1660 C   0  0  0  0  0  0  0  0  0  0  0  0
   40.0240   25.1730   34.9310 C   0  0  0  0  0  0  0  0  0  0  0  0
   40.2420   25.6090   33.6300 C   0  0  0  0  0  0  0  0  0  0  0  0
   39.5590   25.0430   32.5610 C   0  0  0  0  0  0  0  0  0  0  0  0
   38.6600   24.0350   32.8450 C   0  0  0  0  0  0  0  0  0  0  0  0
   38.4160   23.5730   34.1310 C   0  0  0  0  0  0  0  0  0  0  0  0
   40.5930   25.6580   35.7280 H   0  0  0  0  0  0  0  0  0  0  0  0
   40.9670   26.4100   33.4770 H   0  0  0  0  0  0  0  0  0  0  0  0
   39.7480   25.4030   31.5610 H   0  0  0  0  0  0  0  0  0  0  0  0
   38.1200   23.5870   32.0090 H   0  0  0  0  0  0  0  0  0  0  0  0
   37.4640   22.5070   34.4280 C   0  0  0  0  0  0  0  0  0  0  0  0
   37.1220   22.0850   35.6980 C   0  0  0  0  0  0  0  0  0  0  0  0
   36.2400   21.0960   35.9950 C   0  0  0  0  0  0  0  0  0  0  0  0
   35.6160   20.4370   34.9680 C   0  0  0  0  0  0  0  0  0  0  0  0
   35.9040   20.8000   33.6700 C   0  0  0  0  0  0  0  0  0  0  0  0
   35.2880   20.1500   32.6200 C   0  0  0  0  0  0  0  0  0  0  0  0
   35.5160   20.4480   31.3150 C   0  0  0  0  0  0  0  0  0  0  0  0
   36.4180   21.4580   31.0500 C   0  0  0  0  0  0  0  0  0  0  0  0
   37.0340   22.1070   32.1000 C   0  0  0  0  0  0  0  0  0  0  0  0
   36.8080   21.8110   33.4200 C   0  0  0  0  0  0  0  0  0  0  0  0
   39.6920   22.8600   37.3090 C   0  0  0  0  0  0  0  0  0  0  0  0
   38.9700   23.7870   36.5570 C   0  0  0  0  0  0  0  0  0  0  0  0
   38.0710   24.2900   37.4390 N   0  0  0  0  0  0  0  0  0  0  0  0
   38.2510   23.6990   38.6280 C   0  0  0  0  0  0  0  0  0  0  0  0
   39.2250   22.8260   38.5850 N   0  0  0  0  0  0  0  0  0  0  0  0
   37.7120   23.8530   39.5680 H   0  0  0  0  0  0  0  0  0  0  0  0
   39.6230   22.2020   39.3120 H   0  0  0  0  0  0  0  0  0  0  0  0
   42.6150   20.5660   37.1070 C   0  0  0  0  0  0  0  0  0  0  0  0
   41.5790   21.3240   37.6570 C   0  0  0  0  0  0  0  0  0  0  0  0
   40.7960   22.0440   36.7790 C   0  0  0  0  0  0  0  0  0  0  0  0
   41.0650   21.9840   35.4320 N   0  0  0  0  0  0  0  0  0  0  0  0
   42.0920   21.2240   34.9580 C   0  0  0  0  0  0  0  0  0  0  0  0
   42.8600   20.5220   35.7930 N   0  0  0  0  0  0  0  0  0  0  0  0
   43.2880   19.9640   37.7120 H   0  0  0  0  0  0  0  0  0  0  0  0
   41.4320   21.3180   38.7340 H   0  0  0  0  0  0  0  0  0  0  0  0
   42.2020   21.2590   33.8780 H   0  0  0  0  0  0  0  0  0  0  0  0
  1 22  1  0  0  0  0
  2  1  1  0  0  0  0
  2  7  1  0  0  0  0
  3  2  2  0  0  0  0
  4  5  2  0  0  0  0
  4  3  1  0  0  0  0
  5  6  1  0  0  0  0
  6 11  1  0  0  0  0
  6  1  2  0  0  0  0
  8  3  1  0  0  0  0
  9  4  1  0  0  0  0
 10  5  1  0  0  0  0
 11 12  1  0  0  0  0
 12 13  2  0  0  0  0
 14 13  1  0  0  0  0
 15 14  2  0  0  0  0
 16 15  1  0  0  0  0
 17 16  2  0  0  0  0
 18 17  1  0  0  0  0
 18 19  2  0  0  0  0
 19 20  1  0  0  0  0
 20 15  1  0  0  0  0
 20 11  2  0  0  0  0
 21 25  1  0  0  0  0
 22 21  2  0  0  0  0
 22 23  1  0  0  0  0
 23 24  2  0  0  0  0
 24 26  1  0  0  0  0
 25 24  1  0  0  0  0
 25 27  1  0  0  0  0
 28 29  1  0  0  0  0
 28 34  1  0  0  0  0
 29 35  1  0  0  0  0
 30 21  1  0  0  0  0
 30 29  2  0  0  0  0
 31 30  1  0  0  0  0
 32 31  2  0  0  0  0
 32 33  1  0  0  0  0
 33 28  2  0  0  0  0
 36 32  1  0  0  0  0
M  END
>  <minimizedAffinity>
-6.85466194

>  <minimizedRMSD>
1.31788445

$$$$
