
 OpenBabel03262519573D

 33 37  0  0  1  0  0  0  0  0999 V2000
   38.0480   22.6720   31.1510 C   0  0  1  0  0  0  0  0  0  0  0  0
   37.5870   23.9310   30.6090 C   0  0  0  0  0  0  0  0  0  0  0  0
   37.0630   23.5020   31.9790 C   0  0  2  0  0  0  0  0  0  0  0  0
   39.0910   22.6030   31.5000 H   0  0  0  0  0  0  0  0  0  0  0  0
   38.3230   24.7630   30.5300 H   0  0  0  0  0  0  0  0  0  0  0  0
   36.7810   24.0470   29.8550 H   0  0  0  0  0  0  0  0  0  0  0  0
   36.0130   23.1670   32.0450 H   0  0  0  0  0  0  0  0  0  0  0  0
   37.6140   24.3570   33.0600 C   0  0  0  0  0  0  0  0  0  0  0  0
   37.6750   25.6890   32.6350 C   0  0  0  0  0  3  0  0  0  0  0  0
   38.1210   26.6850   33.5120 C   0  0  0  0  0  3  0  0  0  0  0  0
   38.5000   26.3120   34.8030 C   0  0  0  0  0  3  0  0  0  0  0  0
   38.4370   24.9980   35.2110 C   0  0  0  0  0  0  0  0  0  0  0  0
   38.8030   24.5460   36.4650 C   0  0  0  0  0  3  0  0  0  0  0  0
   38.7240   23.1990   36.8010 C   0  0  0  0  0  3  0  0  0  0  0  0
   38.2690   22.2470   35.8790 C   0  0  0  0  0  3  0  0  0  0  0  0
   37.9030   22.6970   34.6260 C   0  0  0  0  0  3  0  0  0  0  0  0
   37.9950   24.0270   34.3380 C   0  0  0  0  0  0  0  0  0  0  0  0
   37.9790   20.4190   30.0130 C   0  0  0  0  0  0  0  0  0  0  0  0
   37.0870   19.3580   29.9220 C   0  0  0  0  0  0  0  0  0  0  0  0
   36.0250   19.7490   30.6750 N   0  0  0  0  0  0  0  0  0  0  0  0
   36.2860   20.9430   31.1620 C   0  0  0  0  0  0  0  0  0  0  0  0
   37.4970   21.3900   30.7680 N   0  0  0  0  0  0  0  0  0  0  0  0
   37.2430   18.4320   29.3570 H   0  0  0  0  0  0  0  0  0  0  0  0
   35.5210   21.4040   31.7980 H   0  0  0  0  0  0  0  0  0  0  0  0
   39.2840   20.4740   29.3670 C   0  0  0  0  0  0  0  0  0  0  0  0
   40.4070   19.9570   29.9960 C   0  0  0  0  0  0  0  0  0  0  0  0
   41.6480   20.0340   29.3270 C   0  0  0  0  0  0  0  0  0  0  0  0
   41.6600   20.6150   28.1020 N   0  0  0  0  0  0  0  0  0  0  0  0
   40.5510   21.1130   27.5080 C   0  0  0  0  0  0  0  0  0  0  0  0
   39.3640   21.0460   28.1320 N   0  0  0  0  0  0  0  0  0  0  0  0
   40.3510   19.5030   30.9740 H   0  0  0  0  0  0  0  0  0  0  0  0
   42.5560   19.6430   29.7830 H   0  0  0  0  0  0  0  0  0  0  0  0
   40.6310   21.5630   26.5300 H   0  0  0  0  0  0  0  0  0  0  0  0
  1  4  1  1  0  0  0
  1  3  1  0  0  0  0
  2  1  1  0  0  0  0
  2  3  1  0  0  0  0
  3  7  1  1  0  0  0
  3  8  1  0  0  0  0
  5  2  1  0  0  0  0
  6  2  1  0  0  0  0
  8 17  1  0  0  0  0
  9  8  2  0  0  0  0
  9 10  1  0  0  0  0
 10 11  2  0  0  0  0
 11 12  1  0  0  0  0
 12 13  1  0  0  0  0
 13 14  2  0  0  0  0
 15 14  1  0  0  0  0
 16 15  2  0  0  0  0
 17 16  1  0  0  0  0
 17 12  2  0  0  0  0
 18 22  1  0  0  0  0
 19 18  2  0  0  0  0
 19 20  1  0  0  0  0
 20 21  2  0  0  0  0
 21 24  1  0  0  0  0
 22  1  1  0  0  0  0
 22 21  1  0  0  0  0
 23 19  1  0  0  0  0
 25 26  1  0  0  0  0
 25 18  1  0  0  0  0
 26 31  1  0  0  0  0
 27 32  1  0  0  0  0
 27 26  2  0  0  0  0
 28 27  1  0  0  0  0
 29 28  2  0  0  0  0
 29 30  1  0  0  0  0
 30 25  2  0  0  0  0
 33 29  1  0  0  0  0
M  END
>  <minimizedAffinity>
-4.19383478

>  <minimizedRMSD>
7.51174641

$$$$
