
 OpenBabel03262518453D

 40 45  0  0  1  0  0  0  0  0999 V2000
   39.9890   23.5250   34.8030 C   0  0  0  0  0  0  0  0  0  0  0  0
   40.2100   22.2410   34.5550 N   0  0  0  0  0  0  0  0  0  0  0  0
   39.1450   21.5390   34.7920 O   0  0  0  0  0  0  0  0  0  0  0  0
   38.2150   22.4120   35.2060 C   0  0  0  0  0  0  0  0  0  0  0  0
   38.6880   23.6640   35.2320 N   0  0  0  0  0  0  0  0  0  0  0  0
   37.5880   26.1890   31.7150 C   0  0  0  0  0  0  0  0  0  0  0  0
   36.6290   26.8570   32.5040 C   0  0  0  0  0  0  0  0  0  0  0  0
   36.9330   27.1480   33.8230 C   0  0  0  0  0  0  0  0  0  0  0  0
   38.1600   26.7660   34.2870 N   0  0  0  0  0  0  0  0  0  0  0  0
   39.0500   26.1290   33.5010 C   0  0  0  0  0  0  0  0  0  0  0  0
   38.7760   25.8370   32.2200 N   0  0  0  0  0  0  0  0  0  0  0  0
   40.2980   25.7830   34.1040 N   0  0  0  0  0  0  0  0  0  0  0  0
   41.1700   26.7490   34.0900 N   0  0  0  0  0  0  0  0  0  0  0  0
   42.3110   26.3180   34.6830 C   0  0  0  0  0  0  0  0  0  0  0  0
   42.1200   25.0410   35.0710 C   0  0  0  0  0  0  0  0  0  0  0  0
   40.8350   24.7020   34.7020 C   0  0  0  0  0  0  0  0  0  0  0  0
   35.6680   27.1410   32.0960 H   0  0  0  0  0  0  0  0  0  0  0  0
   36.2410   27.6520   34.4630 H   0  0  0  0  0  0  0  0  0  0  0  0
   43.2410   26.8610   34.8430 H   0  0  0  0  0  0  0  0  0  0  0  0
   42.7250   24.3040   35.5690 H   0  0  0  0  0  0  0  0  0  0  0  0
   37.2820   25.8850   30.3540 N   0  0  0  0  0  0  0  0  0  0  0  0
   37.9990   26.3370   29.7190 H   0  0  0  0  0  0  0  0  0  0  0  0
   36.4340   25.2910   30.2300 H   0  0  0  0  0  0  0  0  0  0  0  0
   36.8060   22.0480   35.5990 C   0  0  2  0  0  0  0  0  0  0  0  0
   36.3740   20.6260   35.5680 C   0  0  0  0  0  0  0  0  0  0  0  0
   35.8490   21.6240   34.5380 C   0  0  2  0  0  0  0  0  0  0  0  0
   36.4480   22.6360   36.4410 H   0  0  0  0  0  0  0  0  0  0  0  0
   35.6120   20.3240   36.3140 H   0  0  0  0  0  0  0  0  0  0  0  0
   37.0360   19.8110   35.2680 H   0  0  0  0  0  0  0  0  0  0  0  0
   34.7820   21.9660   34.6420 H   0  0  0  0  0  0  0  0  0  0  0  0
   36.3670   21.5080   33.1500 C   0  0  0  0  0  0  0  0  0  0  0  0
   36.9790   22.4990   32.4090 C   0  0  0  0  0  0  0  0  0  0  0  0
   37.4220   22.2840   31.1300 C   0  0  0  0  0  0  0  0  0  0  0  0
   37.2640   21.0470   30.5400 C   0  0  0  0  0  0  0  0  0  0  0  0
   36.6490   20.0510   31.2850 C   0  0  0  0  0  0  0  0  0  0  0  0
   36.5350   18.8430   30.6080 C   0  0  0  0  0  0  0  0  0  0  0  0
   35.9400   17.7800   31.2500 C   0  0  0  0  0  0  0  0  0  0  0  0
   35.4800   17.9580   32.5380 C   0  0  0  0  0  0  0  0  0  0  0  0
   35.5930   19.1530   33.2080 C   0  0  0  0  0  0  0  0  0  0  0  0
   36.1940   20.2440   32.5770 C   0  0  0  0  0  0  0  0  0  0  0  0
  1  5  1  0  0  0  0
  2  3  1  0  0  0  0
  2  1  2  0  0  0  0
  3  4  1  0  0  0  0
  4  5  2  0  0  0  0
  4 24  1  0  0  0  0
  6 11  2  0  0  0  0
  6  7  1  0  0  0  0
  7  8  2  0  0  0  0
  8  9  1  0  0  0  0
  8 18  1  0  0  0  0
 10 12  1  0  0  0  0
 10  9  2  0  0  0  0
 11 10  1  0  0  0  0
 12 16  1  0  0  0  0
 13 12  1  0  0  0  0
 13 14  2  0  0  0  0
 14 19  1  0  0  0  0
 14 15  1  0  0  0  0
 15 20  1  0  0  0  0
 16  1  1  0  0  0  0
 16 15  2  0  0  0  0
 17  7  1  0  0  0  0
 21  6  1  0  0  0  0
 22 21  1  0  0  0  0
 23 21  1  0  0  0  0
 24 27  1  1  0  0  0
 25 24  1  0  0  0  0
 25 28  1  0  0  0  0
 26 30  1  1  0  0  0
 26 25  1  0  0  0  0
 26 24  1  0  0  0  0
 29 25  1  0  0  0  0
 31 26  1  0  0  0  0
 32 31  2  0  0  0  0
 33 32  1  0  0  0  0
 34 33  2  0  0  0  0
 34 35  1  0  0  0  0
 35 40  1  0  0  0  0
 36 37  1  0  0  0  0
 36 35  2  0  0  0  0
 37 38  2  0  0  0  0
 38 39  1  0  0  0  0
 40 31  1  0  0  0  0
 40 39  2  0  0  0  0
M  END
>  <minimizedAffinity>
-4.86350155

>  <minimizedRMSD>
5.74134398

$$$$
