
 OpenBabel03262518553D

 29 32  0  0  0  0  0  0  0  0999 V2000
   39.8660   22.7120   37.5990 C   0  0  0  0  0  0  0  0  0  0  0  0
   39.1870   23.5290   38.5490 C   0  0  0  0  0  0  0  0  0  0  0  0
   37.8140   23.7120   38.3620 C   0  0  0  0  0  0  0  0  0  0  0  0
   37.1960   23.1170   37.3070 N   0  0  0  0  0  0  0  0  0  0  0  0
   37.8700   22.3500   36.4270 C   0  0  0  0  0  0  0  0  0  0  0  0
   39.2060   22.1450   36.5690 N   0  0  0  0  0  0  0  0  0  0  0  0
   37.2610   21.7130   35.3130 N   0  0  0  0  0  0  0  0  0  0  0  0
   37.9280   21.7390   34.1340 C   0  0  0  0  0  0  0  0  0  0  0  0
   37.3460   21.1240   33.0470 C   0  0  0  0  0  0  0  0  0  0  0  0
   36.1080   20.5090   33.2100 C   0  0  0  0  0  0  0  0  0  0  0  0
   35.5750   19.9440   32.2080 O   0  0  0  0  0  0  0  0  0  0  0  0
   35.4850   20.5100   34.3970 N   0  0  0  0  0  0  0  0  0  0  0  0
   36.0690   21.1180   35.4590 C   0  0  0  0  0  0  0  0  0  0  0  0
   35.5450   21.1580   36.5980 O   0  0  0  0  0  0  0  0  0  0  0  0
   40.9330   22.5660   37.7390 H   0  0  0  0  0  0  0  0  0  0  0  0
   39.7200   23.9820   39.3740 H   0  0  0  0  0  0  0  0  0  0  0  0
   37.2460   24.3240   39.0550 H   0  0  0  0  0  0  0  0  0  0  0  0
   38.8880   22.2210   34.0300 H   0  0  0  0  0  0  0  0  0  0  0  0
   34.5620   20.0480   34.5080 H   0  0  0  0  0  0  0  0  0  0  0  0
   37.9850   21.0940   31.7240 C   0  0  0  0  0  0  0  0  0  0  0  0
   38.3760   19.9600   31.0200 C   0  0  0  0  0  0  0  0  0  0  0  0
   38.9640   20.0940   29.7880 C   0  0  0  0  0  0  0  0  0  0  0  0
   39.1730   21.3430   29.2370 C   0  0  0  0  0  0  0  0  0  0  0  0
   38.7830   22.4660   29.9400 C   0  0  0  0  0  0  0  0  0  0  0  0
   38.9960   23.7280   29.3780 C   0  0  0  0  0  0  0  0  0  0  0  0
   38.6260   24.8920   30.0370 C   0  0  0  0  0  0  0  0  0  0  0  0
   38.0340   24.7760   31.2750 C   0  0  0  0  0  0  0  0  0  0  0  0
   37.8240   23.5290   31.8290 C   0  0  0  0  0  0  0  0  0  0  0  0
   38.1890   22.3510   31.1820 C   0  0  0  0  0  0  0  0  0  0  0  0
  1 15  1  0  0  0  0
  1  2  1  0  0  0  0
  2 16  1  0  0  0  0
  3  2  2  0  0  0  0
  3 17  1  0  0  0  0
  4  3  1  0  0  0  0
  5  6  1  0  0  0  0
  5  4  2  0  0  0  0
  6  1  2  0  0  0  0
  7 13  1  0  0  0  0
  7  5  1  0  0  0  0
  8  7  1  0  0  0  0
  9 10  1  0  0  0  0
  9  8  2  0  0  0  0
 10 12  1  0  0  0  0
 11 10  2  0  0  0  0
 12 19  1  0  0  0  0
 12 13  1  0  0  0  0
 13 14  2  0  0  0  0
 18  8  1  0  0  0  0
 20  9  1  0  0  0  0
 21 20  2  0  0  0  0
 22 21  1  0  0  0  0
 23 22  2  0  0  0  0
 23 24  1  0  0  0  0
 24 29  1  0  0  0  0
 25 24  2  0  0  0  0
 25 26  1  0  0  0  0
 26 27  2  0  0  0  0
 27 28  1  0  0  0  0
 29 20  1  0  0  0  0
 29 28  2  0  0  0  0
M  END
>  <minimizedAffinity>
-5.75925303

>  <minimizedRMSD>
0.470209867

$$$$
