
 OpenBabel03262519483D

 42 46  0  0  1  0  0  0  0  0999 V2000
   37.0780   26.2590   32.6690 N   0  0  0  0  0  0  0  0  0  0  0  0
   36.7570   25.0930   32.1050 C   0  0  0  0  0  0  0  0  0  0  0  0
   35.6560   25.1450   31.2840 C   0  0  0  0  0  0  0  0  0  0  0  0
   35.2680   26.4120   31.3370 N   0  0  0  0  0  0  0  0  0  0  0  0
   36.1200   27.0910   32.1700 C   0  0  0  0  0  0  0  0  0  0  0  0
   37.3450   24.1820   32.3010 H   0  0  0  0  0  0  0  0  0  0  0  0
   35.2580   24.2790   30.7440 H   0  0  0  0  0  0  0  0  0  0  0  0
   35.9150   28.5820   32.3920 C   0  0  1  0  0  0  0  0  0  0  0  0
   34.5150   29.0140   32.5980 C   0  0  0  0  0  0  0  0  0  0  0  0
   35.4670   28.9800   33.7840 C   0  0  2  0  0  0  0  0  0  0  0  0
   36.6050   29.2730   31.8730 H   0  0  0  0  0  0  0  0  0  0  0  0
   33.7490   28.1930   32.6220 H   0  0  0  0  0  0  0  0  0  0  0  0
   34.1280   29.9640   32.2320 H   0  0  0  0  0  0  0  0  0  0  0  0
   35.4110   28.1610   34.5190 H   0  0  0  0  0  0  0  0  0  0  0  0
   35.6450   30.3560   34.3090 C   0  0  0  0  0  0  0  0  0  0  0  0
   35.4910   30.8060   35.5750 C   0  0  0  0  0  3  0  0  0  0  0  0
   35.6990   32.0820   36.0440 C   0  0  0  0  0  3  0  0  0  0  0  0
   36.1160   33.0350   35.1400 C   0  0  0  0  0  3  0  0  0  0  0  0
   36.2990   32.6650   33.8250 C   0  0  0  0  0  0  0  0  0  0  0  0
   36.7100   33.6810   32.9900 C   0  0  0  0  0  3  0  0  0  0  0  0
   36.9080   33.3880   31.6590 C   0  0  0  0  0  3  0  0  0  0  0  0
   36.6970   32.1080   31.1930 C   0  0  0  0  0  3  0  0  0  0  0  0
   36.2870   31.1500   32.0920 C   0  0  0  0  0  3  0  0  0  0  0  0
   36.0690   31.3640   33.4340 C   0  0  0  0  0  0  0  0  0  0  0  0
   38.0760   26.7000   33.5610 C   0  0  0  0  0  0  0  0  0  0  0  0
   39.0270   26.1470   33.3520 H   0  0  0  0  0  0  0  0  0  0  0  0
   38.3290   27.7730   33.3650 H   0  0  0  0  0  0  0  0  0  0  0  0
   37.7370   26.4760   34.9880 C   0  0  1  0  0  0  0  0  0  0  0  0
   36.6330   26.4320   35.1310 H   0  0  0  0  0  0  0  0  0  0  0  0
   38.5230   23.5490   37.2530 C   0  0  0  0  0  0  0  0  0  0  0  0
   37.9190   24.7410   36.8280 C   0  0  0  0  0  0  0  0  0  0  0  0
   38.3310   25.2360   35.5370 C   0  0  0  0  0  0  0  0  0  0  0  0
   39.2730   24.5360   34.8020 N   0  0  0  0  0  0  0  0  0  0  0  0
   39.8090   23.4060   35.2680 C   0  0  0  0  0  0  0  0  0  0  0  0
   39.4280   22.9120   36.5080 N   0  0  0  0  0  0  0  0  0  0  0  0
   38.1940   23.2070   38.2210 H   0  0  0  0  0  0  0  0  0  0  0  0
   37.1820   25.3180   37.3670 H   0  0  0  0  0  0  0  0  0  0  0  0
   40.5410   22.8880   34.6640 H   0  0  0  0  0  0  0  0  0  0  0  0
   38.1710   27.6740   35.8200 C   0  0  0  0  0  0  0  0  0  0  0  0
   38.9920   28.1960   35.2940 H   0  0  0  0  0  0  0  0  0  0  0  0
   37.3420   28.2980   36.1520 H   0  0  0  0  0  0  0  0  0  0  0  0
   38.6500   27.2840   36.7590 H   0  0  0  0  0  0  0  0  0  0  0  0
  1 25  1  0  0  0  0
  2  6  1  0  0  0  0
  2  1  1  0  0  0  0
  3  4  1  0  0  0  0
  3  2  2  0  0  0  0
  4  5  2  0  0  0  0
  5  8  1  0  0  0  0
  5  1  1  0  0  0  0
  7  3  1  0  0  0  0
  8 11  1  6  0  0  0
  8  9  1  0  0  0  0
  8 10  1  0  0  0  0
  9 12  1  0  0  0  0
  9 10  1  0  0  0  0
 10 15  1  0  0  0  0
 10 14  1  1  0  0  0
 13  9  1  0  0  0  0
 15 16  1  0  0  0  0
 16 17  2  0  0  0  0
 18 17  1  0  0  0  0
 19 18  2  0  0  0  0
 20 19  1  0  0  0  0
 21 20  2  0  0  0  0
 22 21  1  0  0  0  0
 22 23  2  0  0  0  0
 23 24  1  0  0  0  0
 24 19  1  0  0  0  0
 24 15  2  0  0  0  0
 25 28  1  0  0  0  0
 26 25  1  0  0  0  0
 27 25  1  0  0  0  0
 28 29  1  1  0  0  0
 28 32  1  0  0  0  0
 28 39  1  0  0  0  0
 30 36  1  0  0  0  0
 31 30  1  0  0  0  0
 31 37  1  0  0  0  0
 32 31  2  0  0  0  0
 33 34  2  0  0  0  0
 33 32  1  0  0  0  0
 34 35  1  0  0  0  0
 35 30  2  0  0  0  0
 38 34  1  0  0  0  0
 39 41  1  0  0  0  0
 39 42  1  0  0  0  0
 40 39  1  0  0  0  0
M  END
>  <minimizedAffinity>
-6.19770384

>  <minimizedRMSD>
1.07423973

$$$$
