
 OpenBabel03262519493D

 42 46  0  0  1  0  0  0  0  0999 V2000
   37.3290   26.1510   32.8340 N   0  0  0  0  0  0  0  0  0  0  0  0
   36.9050   25.1840   32.0190 C   0  0  0  0  0  0  0  0  0  0  0  0
   35.8350   25.5350   31.2300 C   0  0  0  0  0  0  0  0  0  0  0  0
   35.5760   26.7910   31.5710 N   0  0  0  0  0  0  0  0  0  0  0  0
   36.4730   27.1700   32.5380 C   0  0  0  0  0  0  0  0  0  0  0  0
   37.3920   24.1960   32.0010 H   0  0  0  0  0  0  0  0  0  0  0  0
   35.3650   24.8620   30.5070 H   0  0  0  0  0  0  0  0  0  0  0  0
   36.4140   28.5850   33.0950 C   0  0  1  0  0  0  0  0  0  0  0  0
   35.4300   29.4860   32.4570 C   0  0  0  0  0  0  0  0  0  0  0  0
   35.1480   28.9390   33.8480 C   0  0  2  0  0  0  0  0  0  0  0  0
   37.3590   29.0220   33.4710 H   0  0  0  0  0  0  0  0  0  0  0  0
   34.7880   29.0220   31.6610 H   0  0  0  0  0  0  0  0  0  0  0  0
   35.6080   30.5510   32.3120 H   0  0  0  0  0  0  0  0  0  0  0  0
   34.4300   28.1150   33.9870 H   0  0  0  0  0  0  0  0  0  0  0  0
   35.0910   30.0630   34.8140 C   0  0  0  0  0  0  0  0  0  0  0  0
   36.0750   30.9150   35.1810 C   0  0  0  0  0  3  0  0  0  0  0  0
   35.9870   31.9750   36.0530 C   0  0  0  0  0  3  0  0  0  0  0  0
   34.7630   32.2210   36.6360 C   0  0  0  0  0  3  0  0  0  0  0  0
   33.7020   31.4020   36.3210 C   0  0  0  0  0  0  0  0  0  0  0  0
   32.5190   31.7170   36.9540 C   0  0  0  0  0  3  0  0  0  0  0  0
   31.4130   30.9370   36.6920 C   0  0  0  0  0  3  0  0  0  0  0  0
   31.5080   29.8740   35.8190 C   0  0  0  0  0  3  0  0  0  0  0  0
   32.7260   29.6270   35.2270 C   0  0  0  0  0  3  0  0  0  0  0  0
   33.8720   30.3590   35.4360 C   0  0  0  0  0  0  0  0  0  0  0  0
   38.3430   26.2700   33.8040 C   0  0  0  0  0  0  0  0  0  0  0  0
   39.1060   25.4670   33.6390 H   0  0  0  0  0  0  0  0  0  0  0  0
   38.9100   27.2260   33.6610 H   0  0  0  0  0  0  0  0  0  0  0  0
   37.8520   26.1370   35.1980 C   0  0  1  0  0  0  0  0  0  0  0  0
   36.7390   26.0850   35.2220 H   0  0  0  0  0  0  0  0  0  0  0  0
   38.5010   23.4560   37.7880 C   0  0  0  0  0  0  0  0  0  0  0  0
   37.9470   24.6140   37.2220 C   0  0  0  0  0  0  0  0  0  0  0  0
   38.3910   24.9450   35.8910 C   0  0  0  0  0  0  0  0  0  0  0  0
   39.3140   24.1320   35.2520 N   0  0  0  0  0  0  0  0  0  0  0  0
   39.8010   23.0430   35.8500 C   0  0  0  0  0  0  0  0  0  0  0  0
   39.3880   22.7050   37.1310 N   0  0  0  0  0  0  0  0  0  0  0  0
   38.1480   23.2370   38.7830 H   0  0  0  0  0  0  0  0  0  0  0  0
   37.2270   25.2740   37.6830 H   0  0  0  0  0  0  0  0  0  0  0  0
   40.5180   22.4330   35.3190 H   0  0  0  0  0  0  0  0  0  0  0  0
   38.1820   27.3940   35.9890 C   0  0  0  0  0  0  0  0  0  0  0  0
   39.0520   27.8920   35.5210 H   0  0  0  0  0  0  0  0  0  0  0  0
   37.3160   28.0260   36.1850 H   0  0  0  0  0  0  0  0  0  0  0  0
   38.5580   27.0750   36.9990 H   0  0  0  0  0  0  0  0  0  0  0  0
  1 25  1  0  0  0  0
  2  1  1  0  0  0  0
  3  4  1  0  0  0  0
  3  2  2  0  0  0  0
  4  5  2  0  0  0  0
  5  1  1  0  0  0  0
  5  8  1  0  0  0  0
  6  2  1  0  0  0  0
  7  3  1  0  0  0  0
  8 11  1  1  0  0  0
  8 10  1  0  0  0  0
  9  8  1  0  0  0  0
  9 10  1  0  0  0  0
 10 14  1  1  0  0  0
 10 15  1  0  0  0  0
 12  9  1  0  0  0  0
 13  9  1  0  0  0  0
 15 16  2  0  0  0  0
 15 24  1  0  0  0  0
 16 17  1  0  0  0  0
 17 18  2  0  0  0  0
 19 18  1  0  0  0  0
 19 20  1  0  0  0  0
 21 20  2  0  0  0  0
 22 21  1  0  0  0  0
 23 24  1  0  0  0  0
 23 22  2  0  0  0  0
 24 19  2  0  0  0  0
 25 28  1  0  0  0  0
 26 25  1  0  0  0  0
 27 25  1  0  0  0  0
 28 29  1  6  0  0  0
 28 32  1  0  0  0  0
 28 39  1  0  0  0  0
 30 36  1  0  0  0  0
 31 37  1  0  0  0  0
 31 30  1  0  0  0  0
 32 31  2  0  0  0  0
 33 34  2  0  0  0  0
 33 32  1  0  0  0  0
 34 35  1  0  0  0  0
 35 30  2  0  0  0  0
 38 34  1  0  0  0  0
 39 41  1  0  0  0  0
 39 42  1  0  0  0  0
 40 39  1  0  0  0  0
M  END
>  <minimizedAffinity>
-6.77048826

>  <minimizedRMSD>
2.02929688

$$$$
