
 OpenBabel03262519303D

 34 38  0  0  0  0  0  0  0  0999 V2000
   39.6100   22.8710   37.3000 C   0  0  0  0  0  0  0  0  0  0  0  0
   38.9920   23.2670   38.4760 C   0  0  0  0  0  0  0  0  0  0  0  0
   37.9180   24.1760   38.3210 C   0  0  0  0  0  0  0  0  0  0  0  0
   37.5600   24.5960   37.0960 N   0  0  0  0  0  0  0  0  0  0  0  0
   38.1900   24.1830   35.9810 C   0  0  0  0  0  0  0  0  0  0  0  0
   39.1930   23.3350   36.1240 N   0  0  0  0  0  0  0  0  0  0  0  0
   39.2370   22.9660   39.4700 H   0  0  0  0  0  0  0  0  0  0  0  0
   37.3620   24.5540   39.1670 H   0  0  0  0  0  0  0  0  0  0  0  0
   37.9390   24.5260   34.5870 C   0  0  0  0  0  0  0  0  0  0  0  0
   38.1430   23.6140   33.5730 C   0  0  0  0  0  3  0  0  0  0  0  0
   37.9300   23.8650   32.2370 C   0  0  0  0  0  3  0  0  0  0  0  0
   37.4820   25.1010   31.8400 C   0  0  0  0  0  3  0  0  0  0  0  0
   37.2600   26.0500   32.8020 C   0  0  0  0  0  0  0  0  0  0  0  0
   36.8150   27.2820   32.4000 C   0  0  0  0  0  3  0  0  0  0  0  0
   36.5750   28.2860   33.3170 C   0  0  0  0  0  3  0  0  0  0  0  0
   36.8020   27.9930   34.6610 C   0  0  0  0  0  3  0  0  0  0  0  0
   37.2480   26.7410   35.0000 C   0  0  0  0  0  3  0  0  0  0  0  0
   37.4930   25.7330   34.1090 C   0  0  0  0  0  0  0  0  0  0  0  0
   40.6500   21.9950   37.4100 O   0  0  0  0  0  0  0  0  0  0  0  0
   41.9000   22.1270   36.8530 C   0  0  0  0  0  0  0  0  0  0  0  0
   42.4200   23.2570   36.2720 C   0  0  0  0  0  0  0  0  0  0  0  0
   43.6620   23.0370   35.8350 N   0  0  0  0  0  0  0  0  0  0  0  0
   44.0190   21.7610   36.1040 C   0  0  0  0  0  0  0  0  0  0  0  0
   45.1670   21.0130   35.8780 C   0  0  0  0  0  0  0  0  0  0  0  0
   45.2340   19.6930   36.2810 C   0  0  0  0  0  0  0  0  0  0  0  0
   44.1380   19.1290   36.9130 C   0  0  0  0  0  0  0  0  0  0  0  0
   42.9950   19.8770   37.1370 C   0  0  0  0  0  0  0  0  0  0  0  0
   42.9310   21.2070   36.7310 C   0  0  0  0  0  0  0  0  0  0  0  0
   41.9410   24.2190   36.1550 H   0  0  0  0  0  0  0  0  0  0  0  0
   44.3170   23.6870   35.3540 H   0  0  0  0  0  0  0  0  0  0  0  0
   46.0130   21.4820   35.3800 H   0  0  0  0  0  0  0  0  0  0  0  0
   46.1140   19.0860   36.1190 H   0  0  0  0  0  0  0  0  0  0  0  0
   44.1040   18.0900   37.2650 H   0  0  0  0  0  0  0  0  0  0  0  0
   42.1420   19.4280   37.6330 H   0  0  0  0  0  0  0  0  0  0  0  0
  1 19  1  0  0  0  0
  1  2  1  0  0  0  0
  2  7  1  0  0  0  0
  3  2  2  0  0  0  0
  3  8  1  0  0  0  0
  4  3  1  0  0  0  0
  5  6  1  0  0  0  0
  5  4  2  0  0  0  0
  6  1  2  0  0  0  0
  9  5  1  0  0  0  0
 10  9  2  0  0  0  0
 11 10  1  0  0  0  0
 12 11  2  0  0  0  0
 12 13  1  0  0  0  0
 13 18  1  0  0  0  0
 14 13  2  0  0  0  0
 14 15  1  0  0  0  0
 15 16  2  0  0  0  0
 16 17  1  0  0  0  0
 18  9  1  0  0  0  0
 18 17  2  0  0  0  0
 20 19  1  0  0  0  0
 21 20  2  0  0  0  0
 22 23  1  0  0  0  0
 22 21  1  0  0  0  0
 23 28  1  0  0  0  0
 24 23  2  0  0  0  0
 24 25  1  0  0  0  0
 25 26  2  0  0  0  0
 26 27  1  0  0  0  0
 26 33  1  0  0  0  0
 27 34  1  0  0  0  0
 28 20  1  0  0  0  0
 28 27  2  0  0  0  0
 29 21  1  0  0  0  0
 30 22  1  0  0  0  0
 31 24  1  0  0  0  0
 32 25  1  0  0  0  0
M  END
>  <minimizedAffinity>
-6.33521748

>  <minimizedRMSD>
1.0461235

$$$$
