
 OpenBabel03262518243D

 26 28  0  0  0  0  0  0  0  0999 V2000
   40.3100   23.2350   36.8930 C   0  0  0  0  0  0  0  0  0  0  0  0
   39.6030   24.0440   36.0210 C   0  0  0  0  0  0  0  0  0  0  0  0
   38.3710   24.6020   36.3510 C   0  0  0  0  0  0  0  0  0  0  0  0
   37.9090   24.3010   37.5740 N   0  0  0  0  0  0  0  0  0  0  0  0
   38.5670   23.5200   38.4410 C   0  0  0  0  0  0  0  0  0  0  0  0
   39.7520   22.9910   38.1120 N   0  0  0  0  0  0  0  0  0  0  0  0
   39.9300   24.2470   35.0430 H   0  0  0  0  0  0  0  0  0  0  0  0
   38.0760   23.3560   39.4020 H   0  0  0  0  0  0  0  0  0  0  0  0
   41.5480   22.5320   36.6830 C   0  0  0  0  0  0  0  0  0  0  0  0
   41.5550   21.1410   36.8730 C   0  0  0  0  0  0  0  0  0  0  0  0
   42.6530   20.3260   36.7260 C   0  0  0  0  0  0  0  0  0  0  0  0
   43.8520   20.8850   36.3660 C   0  0  0  0  0  0  0  0  0  0  0  0
   43.9320   22.2440   36.1620 C   0  0  0  0  0  0  0  0  0  0  0  0
   45.1310   22.8160   35.8390 C   0  0  0  0  0  0  0  0  0  0  0  0
   45.2730   24.1760   35.6640 C   0  0  0  0  0  0  0  0  0  0  0  0
   44.1200   24.9510   35.8360 C   0  0  0  0  0  0  0  0  0  0  0  0
   42.9370   24.3320   36.1600 C   0  0  0  0  0  0  0  0  0  0  0  0
   42.7910   22.9820   36.3310 C   0  0  0  0  0  0  0  0  0  0  0  0
   37.6790   25.4280   35.4270 N   0  0  0  0  0  0  0  0  0  0  0  0
   37.9730   26.8290   35.3960 C   0  0  0  0  0  0  0  0  0  0  0  0
   38.5610   27.4370   36.3870 N   0  0  0  0  0  0  0  0  0  0  0  0
   37.5760   27.5030   34.2080 N   0  0  0  0  0  0  0  0  0  0  0  0
   38.7820   28.4430   36.3910 H   0  0  0  0  0  0  0  0  0  0  0  0
   36.9590   25.0020   34.7760 H   0  0  0  0  0  0  0  0  0  0  0  0
   36.7020   27.2640   33.6860 H   0  0  0  0  0  0  0  0  0  0  0  0
   38.2140   28.2630   33.8770 H   0  0  0  0  0  0  0  0  0  0  0  0
  1  6  1  0  0  0  0
  2  3  1  0  0  0  0
  2  1  2  0  0  0  0
  3  4  2  0  0  0  0
  4  5  1  0  0  0  0
  5  8  1  0  0  0  0
  6  5  2  0  0  0  0
  7  2  1  0  0  0  0
  9 10  1  0  0  0  0
  9  1  1  0  0  0  0
 11 10  2  0  0  0  0
 12 11  1  0  0  0  0
 13 18  1  0  0  0  0
 13 12  2  0  0  0  0
 14 13  1  0  0  0  0
 15 16  1  0  0  0  0
 15 14  2  0  0  0  0
 16 17  2  0  0  0  0
 17 18  1  0  0  0  0
 18  9  2  0  0  0  0
 19  3  1  0  0  0  0
 20 19  1  0  0  0  0
 20 21  2  0  0  0  0
 21 23  1  0  0  0  0
 22 20  1  0  0  0  0
 24 19  1  0  0  0  0
 25 22  1  0  0  0  0
 26 22  1  0  0  0  0
M  END
>  <minimizedAffinity>
-5.57611799

>  <minimizedRMSD>
1.14830554

$$$$
