
 OpenBabel03262515413D

 45 49  0  0  0  0  0  0  0  0999 V2000
   37.7140   26.8360   35.5260 C   0  0  0  0  0  0  0  0  0  0  0  0
   38.5310   27.3590   36.0640 H   0  0  0  0  0  0  0  0  0  0  0  0
   36.8610   26.7840   36.2390 H   0  0  0  0  0  0  0  0  0  0  0  0
   37.2290   27.6030   34.3460 C   0  0  0  0  0  0  0  0  0  0  0  0
   36.1580   28.4110   34.3770 N   0  0  0  0  0  0  0  0  0  0  0  0
   35.9780   28.9420   33.2000 O   0  0  0  0  0  0  0  0  0  0  0  0
   36.8860   28.5210   32.3880 C   0  0  0  0  0  0  0  0  0  0  0  0
   37.6930   27.6710   33.0810 N   0  0  0  0  0  0  0  0  0  0  0  0
   37.1450   28.7930   30.9880 C   0  0  0  0  0  0  0  0  0  0  0  0
   37.5320   27.9850   29.9320 C   0  0  0  0  0  0  0  0  0  0  0  0
   37.6350   28.7640   28.7990 C   0  0  0  0  0  0  0  0  0  0  0  0
   37.2940   30.0420   29.2360 C   0  0  0  0  0  0  0  0  0  0  0  0
   37.0140   30.0310   30.5080 O   0  0  0  0  0  0  0  0  0  0  0  0
   37.7070   26.9300   30.0530 H   0  0  0  0  0  0  0  0  0  0  0  0
   37.9170   28.4320   27.8100 H   0  0  0  0  0  0  0  0  0  0  0  0
   37.2530   31.2460   28.3840 C   0  0  0  0  0  0  0  0  0  0  0  0
   36.6730   32.3670   28.9430 C   0  0  0  0  0  0  0  0  0  0  0  0
   36.6120   33.5300   28.1710 C   0  0  0  0  0  0  0  0  0  0  0  0
   36.1690   34.4660   28.5370 H   0  0  0  0  0  0  0  0  0  0  0  0
   37.1390   33.4880   26.8900 C   0  0  0  0  0  0  0  0  0  0  0  0
   37.7240   32.3650   26.3220 C   0  0  0  0  0  0  0  0  0  0  0  0
   38.1200   32.3730   25.3240 H   0  0  0  0  0  0  0  0  0  0  0  0
   37.7750   31.2120   27.1070 C   0  0  0  0  0  0  0  0  0  0  0  0
   38.0670   25.4230   35.1610 C   0  0  0  0  0  0  0  0  0  0  0  0
   38.9060   25.4030   34.4260 H   0  0  0  0  0  0  0  0  0  0  0  0
   37.1840   24.9600   34.6780 H   0  0  0  0  0  0  0  0  0  0  0  0
   38.1240   24.0430   38.6210 C   0  0  0  0  0  0  0  0  0  0  0  0
   39.1360   23.0870   38.5120 C   0  0  0  0  0  0  0  0  0  0  0  0
   39.7710   22.9320   37.2770 C   0  0  0  0  0  0  0  0  0  0  0  0
   39.3750   23.7160   36.2510 N   0  0  0  0  0  0  0  0  0  0  0  0
   38.3810   24.6440   36.3880 C   0  0  0  0  0  0  0  0  0  0  0  0
   37.7660   24.8050   37.5540 N   0  0  0  0  0  0  0  0  0  0  0  0
   37.6310   24.1600   39.5850 H   0  0  0  0  0  0  0  0  0  0  0  0
   39.4060   22.4920   39.3670 H   0  0  0  0  0  0  0  0  0  0  0  0
   40.8260   21.9310   37.1700 C   0  0  0  0  0  0  0  0  0  0  0  0
   40.5190   21.1730   36.4070 H   0  0  0  0  0  0  0  0  0  0  0  0
   40.9440   21.3800   38.1260 H   0  0  0  0  0  0  0  0  0  0  0  0
   42.1250   22.5050   36.7080 C   0  0  0  0  0  0  0  0  0  0  0  0
   42.6230   22.3240   35.3420 C   0  0  0  0  0  0  0  0  0  0  0  0
   43.2060   21.4470   36.4330 C   0  0  0  0  0  0  0  0  0  0  0  0
   42.4590   23.4270   37.2380 H   0  0  0  0  0  0  0  0  0  0  0  0
   41.9670   21.8370   34.5940 H   0  0  0  0  0  0  0  0  0  0  0  0
   43.3120   23.0940   34.9120 H   0  0  0  0  0  0  0  0  0  0  0  0
   42.9240   20.3790   36.4830 H   0  0  0  0  0  0  0  0  0  0  0  0
   44.2020   21.6870   36.8210 H   0  0  0  0  0  0  0  0  0  0  0  0
  1  2  1  0  0  0  0
  1  3  1  0  0  0  0
  4  5  2  0  0  0  0
  4  1  1  0  0  0  0
  6  5  1  0  0  0  0
  7  8  2  0  0  0  0
  7  6  1  0  0  0  0
  8  4  1  0  0  0  0
  9  7  1  0  0  0  0
 10 14  1  0  0  0  0
 10  9  2  0  0  0  0
 11 12  2  0  0  0  0
 11 10  1  0  0  0  0
 12 13  1  0  0  0  0
 13  9  1  0  0  0  0
 15 11  1  0  0  0  0
 16 17  1  0  0  0  0
 16 12  1  0  0  0  0
 18 19  1  0  0  0  0
 18 17  2  0  0  0  0
 20 18  1  0  0  0  0
 21 20  2  0  0  0  0
 21 23  1  0  0  0  0
 22 21  1  0  0  0  0
 23 16  2  0  0  0  0
 24  1  1  0  0  0  0
 24 31  1  0  0  0  0
 25 24  1  0  0  0  0
 26 24  1  0  0  0  0
 27 33  1  0  0  0  0
 28 27  1  0  0  0  0
 28 34  1  0  0  0  0
 29 28  2  0  0  0  0
 30 31  2  0  0  0  0
 30 29  1  0  0  0  0
 31 32  1  0  0  0  0
 32 27  2  0  0  0  0
 35 29  1  0  0  0  0
 35 37  1  0  0  0  0
 36 35  1  0  0  0  0
 38 35  1  0  0  0  0
 38 41  1  0  0  0  0
 39 40  1  0  0  0  0
 39 38  1  0  0  0  0
 40 44  1  0  0  0  0
 40 38  1  0  0  0  0
 40 45  1  0  0  0  0
 42 39  1  0  0  0  0
 43 39  1  0  0  0  0
M  END
>  <minimizedAffinity>
-5.2089057

>  <minimizedRMSD>
1.48512161

$$$$
