
 OpenBabel03262520003D

 34 37  0  0  1  0  0  0  0  0999 V2000
   39.9110   22.9490   36.1540 C   0  0  1  0  0  0  0  0  0  0  0  0
   40.4940   24.1170   36.7570 C   0  0  0  0  0  0  0  0  0  0  0  0
   38.9770   24.0840   36.4060 C   0  0  1  0  0  0  0  0  0  0  0  0
   39.8130   22.0480   36.8460 H   0  0  0  0  0  0  0  0  0  0  0  0
   40.7300   24.1810   37.8280 H   0  0  0  0  0  0  0  0  0  0  0  0
   41.0890   24.8200   36.1540 H   0  0  0  0  0  0  0  0  0  0  0  0
   38.7240   25.2790   35.5220 C   0  0  0  0  0  0  0  0  0  0  0  0
   37.3640   25.5210   35.3090 C   0  0  0  0  0  3  0  0  0  0  0  0
   36.9900   26.5860   34.5190 C   0  0  0  0  0  0  0  0  0  0  0  0
   35.9590   26.8820   34.2760 H   0  0  0  0  0  0  0  0  0  0  0  0
   37.9250   27.4180   33.9330 C   0  0  0  0  0  3  0  0  0  0  0  0
   39.2540   27.1610   34.1560 C   0  0  0  0  0  0  0  0  0  0  0  0
   40.0360   27.7790   33.7230 H   0  0  0  0  0  0  0  0  0  0  0  0
   39.6500   26.1140   34.9330 C   0  0  0  0  0  3  0  0  0  0  0  0
   40.9730   22.7330   33.9010 C   0  0  0  0  0  0  0  0  0  0  0  0
   40.6400   22.1590   32.6760 C   0  0  0  0  0  0  0  0  0  0  0  0
   39.4090   21.6110   32.9020 N   0  0  0  0  0  0  0  0  0  0  0  0
   39.0790   21.8630   34.1660 C   0  0  0  0  0  0  0  0  0  0  0  0
   40.0230   22.5510   34.8000 N   0  0  0  0  0  0  0  0  0  0  0  0
   41.2450   22.1640   31.7630 H   0  0  0  0  0  0  0  0  0  0  0  0
   38.1000   21.4690   34.4770 H   0  0  0  0  0  0  0  0  0  0  0  0
   42.2210   23.4410   34.1640 C   0  0  0  0  0  0  0  0  0  0  0  0
   43.2740   22.7660   34.8190 C   0  0  0  0  0  0  0  0  0  0  0  0
   44.4670   23.4840   35.0540 C   0  0  0  0  0  0  0  0  0  0  0  0
   44.5140   24.7760   34.6330 N   0  0  0  0  0  0  0  0  0  0  0  0
   43.4830   25.3850   34.0090 C   0  0  0  0  0  0  0  0  0  0  0  0
   42.3340   24.7230   33.7720 N   0  0  0  0  0  0  0  0  0  0  0  0
   43.1230   21.7370   35.1090 H   0  0  0  0  0  0  0  0  0  0  0  0
   45.2720   22.9790   35.5510 H   0  0  0  0  0  0  0  0  0  0  0  0
   43.6750   26.4090   33.7370 H   0  0  0  0  0  0  0  0  0  0  0  0
   38.1360   24.0150   37.6670 C   0  0  0  0  0  0  0  0  0  0  0  0
   36.8010   24.1670   37.3430 F   0  0  0  0  0  0  0  0  0  0  0  0
   38.2130   22.6600   38.1880 F   0  0  0  0  0  0  0  0  0  0  0  0
   38.5540   24.8240   38.6500 F   0  0  0  0  0  0  0  0  0  0  0  0
  1  3  1  0  0  0  0
  1  2  1  0  0  0  0
  1  4  1  1  0  0  0
  2  5  1  0  0  0  0
  3  2  1  0  0  0  0
  3 31  1  1  0  0  0
  6  2  1  0  0  0  0
  7  3  1  0  0  0  0
  8  7  1  0  0  0  0
  9  8  2  0  0  0  0
 10  9  1  0  0  0  0
 11 12  2  0  0  0  0
 11  9  1  0  0  0  0
 12 14  1  0  0  0  0
 13 12  1  0  0  0  0
 14  7  2  0  0  0  0
 15 22  1  0  0  0  0
 15 19  1  0  0  0  0
 16 17  1  0  0  0  0
 16 15  2  0  0  0  0
 17 18  2  0  0  0  0
 18 21  1  0  0  0  0
 18 19  1  0  0  0  0
 19  1  1  0  0  0  0
 20 16  1  0  0  0  0
 22 23  1  0  0  0  0
 23 24  2  0  0  0  0
 23 28  1  0  0  0  0
 24 29  1  0  0  0  0
 25 24  1  0  0  0  0
 26 25  2  0  0  0  0
 27 26  1  0  0  0  0
 27 22  2  0  0  0  0
 30 26  1  0  0  0  0
 31 33  1  0  0  0  0
 31 34  1  0  0  0  0
 32 31  1  0  0  0  0
M  END
>  <minimizedAffinity>
-3.5985949

>  <minimizedRMSD>
4.28911257

$$$$
