
 OpenBabel03262519173D

 36 39  0  0  0  0  0  0  0  0999 V2000
   37.3860   27.2550   34.1300 C   0  0  0  0  0  0  0  0  0  0  0  0
   36.7350   28.1300   34.9740 C   0  0  0  0  0  0  0  0  0  0  0  0
   36.0460   29.1340   34.4020 C   0  0  0  0  0  0  0  0  0  0  0  0
   36.0260   29.2330   33.0260 C   0  0  0  0  0  0  0  0  0  0  0  0
   37.0760   27.7810   32.4720 S   0  0  0  0  0  0  0  0  0  0  0  0
   36.7740   28.0150   36.0690 H   0  0  0  0  0  0  0  0  0  0  0  0
   37.9250   25.3570   35.7120 C   0  0  0  0  0  0  0  0  0  0  0  0
   38.1800   26.1220   34.5750 C   0  0  0  0  0  0  0  0  0  0  0  0
   39.2840   25.8140   33.7590 C   0  0  0  0  0  0  0  0  0  0  0  0
   40.0350   24.7570   34.1650 N   0  0  0  0  0  0  0  0  0  0  0  0
   39.7660   24.0240   35.2800 C   0  0  0  0  0  0  0  0  0  0  0  0
   38.7230   24.3440   36.0190 N   0  0  0  0  0  0  0  0  0  0  0  0
   37.0600   25.6550   36.2890 H   0  0  0  0  0  0  0  0  0  0  0  0
   39.5540   26.3470   32.8700 H   0  0  0  0  0  0  0  0  0  0  0  0
   40.6820   22.9160   35.5670 C   0  0  0  0  0  0  0  0  0  0  0  0
   41.4440   22.4690   34.5360 C   0  0  0  0  0  0  0  0  0  0  0  0
   42.4470   21.0840   35.3270 S   0  0  0  0  0  0  0  0  0  0  0  0
   41.5640   21.4220   37.0050 C   0  0  0  0  0  0  0  0  0  0  0  0
   40.8980   22.2630   36.6890 N   0  0  0  0  0  0  0  0  0  0  0  0
   41.8460   20.6850   38.1710 N   0  0  0  0  0  0  0  0  0  0  0  0
   41.6520   22.6320   33.4920 H   0  0  0  0  0  0  0  0  0  0  0  0
   41.3410   19.7900   38.3770 H   0  0  0  0  0  0  0  0  0  0  0  0
   42.5850   21.1280   38.7660 H   0  0  0  0  0  0  0  0  0  0  0  0
   35.3030   30.1800   35.1360 C   0  0  0  0  0  0  0  0  0  0  0  0
   35.9870   31.2520   35.7060 C   0  0  0  0  0  0  0  0  0  0  0  0
   35.3760   32.2780   36.3980 C   0  0  0  0  0  0  0  0  0  0  0  0
   35.9460   33.0770   36.8170 H   0  0  0  0  0  0  0  0  0  0  0  0
   34.0040   32.1800   36.4980 C   0  0  0  0  0  0  0  0  0  0  0  0
   33.2530   31.1550   35.9630 C   0  0  0  0  0  0  0  0  0  0  0  0
   32.1770   31.1440   36.0820 H   0  0  0  0  0  0  0  0  0  0  0  0
   33.9310   30.1650   35.2840 C   0  0  0  0  0  0  0  0  0  0  0  0
   35.4380   30.0770   32.0430 C   0  0  0  0  0  0  0  0  0  0  0  0
   36.1090   30.8630   31.3860 O   0  0  0  0  0  0  0  0  0  0  0  0
   34.0010   29.9940   31.8200 N   0  0  0  0  0  0  0  0  0  0  0  0
   33.4090   30.8610   31.8310 H   0  0  0  0  0  0  0  0  0  0  0  0
   33.6830   29.0110   31.6610 H   0  0  0  0  0  0  0  0  0  0  0  0
  1  8  1  0  0  0  0
  1  2  2  0  0  0  0
  2  6  1  0  0  0  0
  3  2  1  0  0  0  0
  3 24  1  0  0  0  0
  4  3  2  0  0  0  0
  5  4  1  0  0  0  0
  5  1  1  0  0  0  0
  7 12  1  0  0  0  0
  7 13  1  0  0  0  0
  8  7  2  0  0  0  0
  9 10  2  0  0  0  0
  9  8  1  0  0  0  0
 10 11  1  0  0  0  0
 11 15  1  0  0  0  0
 11 12  2  0  0  0  0
 14  9  1  0  0  0  0
 15 19  1  0  0  0  0
 16 17  1  0  0  0  0
 16 15  2  0  0  0  0
 17 18  1  0  0  0  0
 18 20  1  0  0  0  0
 19 18  2  0  0  0  0
 20 22  1  0  0  0  0
 20 23  1  0  0  0  0
 21 16  1  0  0  0  0
 24 31  2  0  0  0  0
 24 25  1  0  0  0  0
 25 26  2  0  0  0  0
 26 28  1  0  0  0  0
 26 27  1  0  0  0  0
 29 30  1  0  0  0  0
 29 28  2  0  0  0  0
 31 29  1  0  0  0  0
 32  4  1  0  0  0  0
 33 32  2  0  0  0  0
 34 35  1  0  0  0  0
 34 32  1  0  0  0  0
 36 34  1  0  0  0  0
M  END
>  <minimizedAffinity>
-5.80172682

>  <minimizedRMSD>
2.64239335

$$$$
