
 OpenBabel03262519583D

 31 34  0  0  1  0  0  0  0  0999 V2000
   38.1660   25.4680   33.5260 C   0  0  0  0  0  0  0  0  0  0  0  0
   38.9610   26.5850   33.3320 C   0  0  0  0  0  0  0  0  0  0  0  0
   38.5330   27.0900   32.1320 N   0  0  0  0  0  0  0  0  0  0  0  0
   37.5660   26.3070   31.6850 C   0  0  0  0  0  0  0  0  0  0  0  0
   37.3110   25.2900   32.5250 N   0  0  0  0  0  0  0  0  0  0  0  0
   39.7460   27.0080   33.9460 H   0  0  0  0  0  0  0  0  0  0  0  0
   37.0840   26.5310   30.7410 H   0  0  0  0  0  0  0  0  0  0  0  0
   38.2440   24.5800   34.6820 C   0  0  0  0  0  0  0  0  0  0  0  0
   38.8390   23.3120   34.5520 C   0  0  0  0  0  0  0  0  0  0  0  0
   38.8910   22.4900   35.6970 C   0  0  0  0  0  0  0  0  0  0  0  0
   38.3690   22.9720   36.8400 N   0  0  0  0  0  0  0  0  0  0  0  0
   37.8050   24.1910   36.9320 C   0  0  0  0  0  0  0  0  0  0  0  0
   37.7390   25.0020   35.8580 N   0  0  0  0  0  0  0  0  0  0  0  0
   39.2430   22.9880   33.5900 H   0  0  0  0  0  0  0  0  0  0  0  0
   39.3500   21.5170   35.5900 H   0  0  0  0  0  0  0  0  0  0  0  0
   37.4110   24.4930   37.8960 H   0  0  0  0  0  0  0  0  0  0  0  0
   36.3020   24.2890   32.2780 C   0  0  1  0  0  0  0  0  0  0  0  0
   35.7100   24.0800   30.9530 C   0  0  0  0  0  0  0  0  0  0  0  0
   36.8120   23.1510   31.4060 C   0  0  2  0  0  0  0  0  0  0  0  0
   35.7640   23.9680   33.1710 H   0  0  0  0  0  0  0  0  0  0  0  0
   35.9670   24.7620   30.1230 H   0  0  0  0  0  0  0  0  0  0  0  0
   34.6590   23.7340   30.9430 H   0  0  0  0  0  0  0  0  0  0  0  0
   37.8040   23.2200   30.9390 H   0  0  0  0  0  0  0  0  0  0  0  0
   36.3460   21.7770   31.6690 C   0  0  0  0  0  0  0  0  0  0  0  0
   35.0230   21.4330   31.8270 C   0  0  0  0  0  3  0  0  0  0  0  0
   34.6100   20.1440   32.0700 C   0  0  0  0  0  0  0  0  0  0  0  0
   33.5510   19.8790   32.1960 H   0  0  0  0  0  0  0  0  0  0  0  0
   35.5250   19.1180   32.1690 C   0  0  0  0  0  3  0  0  0  0  0  0
   36.8500   19.4150   32.0170 C   0  0  0  0  0  0  0  0  0  0  0  0
   37.6150   18.6280   32.0890 H   0  0  0  0  0  0  0  0  0  0  0  0
   37.2260   20.7170   31.7750 C   0  0  0  0  0  3  0  0  0  0  0  0
  1  8  1  0  0  0  0
  2  1  2  0  0  0  0
  2  6  1  0  0  0  0
  3  2  1  0  0  0  0
  4  3  2  0  0  0  0
  4  5  1  0  0  0  0
  5  1  1  0  0  0  0
  7  4  1  0  0  0  0
  8 13  1  0  0  0  0
  9  8  2  0  0  0  0
  9 10  1  0  0  0  0
 10 11  2  0  0  0  0
 11 12  1  0  0  0  0
 12 16  1  0  0  0  0
 13 12  2  0  0  0  0
 14  9  1  0  0  0  0
 15 10  1  0  0  0  0
 17  5  1  0  0  0  0
 17 20  1  1  0  0  0
 18 19  1  0  0  0  0
 18 17  1  0  0  0  0
 19 23  1  6  0  0  0
 19 24  1  0  0  0  0
 19 17  1  0  0  0  0
 21 18  1  0  0  0  0
 22 18  1  0  0  0  0
 24 31  2  0  0  0  0
 24 25  1  0  0  0  0
 25 26  2  0  0  0  0
 26 28  1  0  0  0  0
 26 27  1  0  0  0  0
 29 30  1  0  0  0  0
 29 28  2  0  0  0  0
 31 29  1  0  0  0  0
M  END
>  <minimizedAffinity>
-4.82002354

>  <minimizedRMSD>
2.87346339

$$$$
