
 OpenBabel03262519483D

 40 43  0  0  1  0  0  0  0  0999 V2000
   37.3620   25.7090   32.8630 N   0  0  0  0  0  0  0  0  0  0  0  0
   36.8440   24.5970   32.3420 C   0  0  0  0  0  0  0  0  0  0  0  0
   35.8180   24.8210   31.4570 C   0  0  0  0  0  0  0  0  0  0  0  0
   35.6920   26.1460   31.4280 N   0  0  0  0  0  0  0  0  0  0  0  0
   36.6220   26.6880   32.2760 C   0  0  0  0  0  0  0  0  0  0  0  0
   37.2320   23.6040   32.6210 H   0  0  0  0  0  0  0  0  0  0  0  0
   35.2770   24.0160   30.9340 H   0  0  0  0  0  0  0  0  0  0  0  0
   36.7220   28.1890   32.4130 C   0  0  1  0  0  0  0  0  0  0  0  0
   35.7470   28.9790   31.6300 C   0  0  0  0  0  0  0  0  0  0  0  0
   35.5660   28.8580   33.1270 C   0  0  2  0  0  0  0  0  0  0  0  0
   37.7260   28.5730   32.6180 H   0  0  0  0  0  0  0  0  0  0  0  0
   34.9630   28.4400   31.0290 H   0  0  0  0  0  0  0  0  0  0  0  0
   36.0730   29.9100   31.1590 H   0  0  0  0  0  0  0  0  0  0  0  0
   34.8090   28.1840   33.5230 H   0  0  0  0  0  0  0  0  0  0  0  0
   35.7290   30.1430   33.7990 C   0  0  0  0  0  0  0  0  0  0  0  0
   35.7340   31.3280   33.0910 C   0  0  0  0  0  0  0  0  0  0  0  0
   35.8930   32.5190   33.7900 C   0  0  0  0  0  0  0  0  0  0  0  0
   35.8970   33.4580   33.2330 H   0  0  0  0  0  0  0  0  0  0  0  0
   36.0490   32.5970   35.1590 C   0  0  0  0  0  0  0  0  0  0  0  0
   36.0430   31.4100   35.8550 C   0  0  0  0  0  0  0  0  0  0  0  0
   36.1620   31.4270   36.9340 H   0  0  0  0  0  0  0  0  0  0  0  0
   35.8850   30.2230   35.1700 C   0  0  0  0  0  0  0  0  0  0  0  0
   38.3890   25.9970   33.7960 C   0  0  0  0  0  0  0  0  0  0  0  0
   39.1700   25.1960   33.6780 H   0  0  0  0  0  0  0  0  0  0  0  0
   38.8940   26.9510   33.5410 H   0  0  0  0  0  0  0  0  0  0  0  0
   37.9160   26.0150   35.2020 C   0  0  1  0  0  0  0  0  0  0  0  0
   36.7940   25.8990   35.2310 H   0  0  0  0  0  0  0  0  0  0  0  0
   38.4970   23.5460   38.0120 C   0  0  0  0  0  0  0  0  0  0  0  0
   37.8980   24.6070   37.3130 C   0  0  0  0  0  0  0  0  0  0  0  0
   38.4720   24.9300   36.0340 C   0  0  0  0  0  0  0  0  0  0  0  0
   39.5540   24.2030   35.5660 N   0  0  0  0  0  0  0  0  0  0  0  0
   40.0780   23.2050   36.2800 C   0  0  0  0  0  0  0  0  0  0  0  0
   39.5400   22.8770   37.5160 N   0  0  0  0  0  0  0  0  0  0  0  0
   38.0460   23.3250   38.9680 H   0  0  0  0  0  0  0  0  0  0  0  0
   37.0560   25.1940   37.6460 H   0  0  0  0  0  0  0  0  0  0  0  0
   40.9210   22.6400   35.9150 H   0  0  0  0  0  0  0  0  0  0  0  0
   38.1970   27.3670   35.8470 C   0  0  0  0  0  0  0  0  0  0  0  0
   37.3860   27.6470   36.5270 H   0  0  0  0  0  0  0  0  0  0  0  0
   38.4370   28.1250   35.0850 H   0  0  0  0  0  0  0  0  0  0  0  0
   39.1260   27.2280   36.4620 H   0  0  0  0  0  0  0  0  0  0  0  0
  1 23  1  0  0  0  0
  2  6  1  0  0  0  0
  2  1  1  0  0  0  0
  3  2  2  0  0  0  0
  4  3  1  0  0  0  0
  4  5  2  0  0  0  0
  5  8  1  0  0  0  0
  5  1  1  0  0  0  0
  7  3  1  0  0  0  0
  8 11  1  1  0  0  0
  8 10  1  0  0  0  0
  9  8  1  0  0  0  0
  9 10  1  0  0  0  0
 10 14  1  1  0  0  0
 10 15  1  0  0  0  0
 12  9  1  0  0  0  0
 13  9  1  0  0  0  0
 15 22  1  0  0  0  0
 16 17  1  0  0  0  0
 16 15  2  0  0  0  0
 17 19  2  0  0  0  0
 18 17  1  0  0  0  0
 19 20  1  0  0  0  0
 20 21  1  0  0  0  0
 22 20  2  0  0  0  0
 23 26  1  0  0  0  0
 24 23  1  0  0  0  0
 25 23  1  0  0  0  0
 26 27  1  6  0  0  0
 26 37  1  0  0  0  0
 26 30  1  0  0  0  0
 28 34  1  0  0  0  0
 29 35  1  0  0  0  0
 29 28  2  0  0  0  0
 30 29  1  0  0  0  0
 31 30  2  0  0  0  0
 31 32  1  0  0  0  0
 32 33  2  0  0  0  0
 33 28  1  0  0  0  0
 36 32  1  0  0  0  0
 37 40  1  0  0  0  0
 37 38  1  0  0  0  0
 39 37  1  0  0  0  0
M  END
>  <minimizedAffinity>
-5.98086882

>  <minimizedRMSD>
0.619443536

$$$$
