
 OpenBabel03262519573D

 31 34  0  0  1  0  0  0  0  0999 V2000
   39.8790   26.9840   32.4910 C   0  0  0  0  0  0  0  0  0  0  0  0
   39.6700   27.3950   31.1850 C   0  0  0  0  0  0  0  0  0  0  0  0
   38.3540   27.7760   31.1660 N   0  0  0  0  0  0  0  0  0  0  0  0
   37.8610   27.5890   32.3780 C   0  0  0  0  0  0  0  0  0  0  0  0
   38.7800   27.0990   33.2270 N   0  0  0  0  0  0  0  0  0  0  0  0
   40.3460   27.4310   30.3400 H   0  0  0  0  0  0  0  0  0  0  0  0
   36.8240   27.8300   32.5810 H   0  0  0  0  0  0  0  0  0  0  0  0
   41.1460   26.4830   33.0140 C   0  0  0  0  0  0  0  0  0  0  0  0
   41.3740   25.0960   33.0850 C   0  0  0  0  0  0  0  0  0  0  0  0
   42.6130   24.6600   33.5980 C   0  0  0  0  0  0  0  0  0  0  0  0
   43.4980   25.5970   33.9850 N   0  0  0  0  0  0  0  0  0  0  0  0
   43.2500   26.9180   33.9050 C   0  0  0  0  0  0  0  0  0  0  0  0
   42.0760   27.3690   33.4200 N   0  0  0  0  0  0  0  0  0  0  0  0
   40.6070   24.3940   32.7510 H   0  0  0  0  0  0  0  0  0  0  0  0
   42.7820   23.5930   33.6490 H   0  0  0  0  0  0  0  0  0  0  0  0
   44.0240   27.5980   34.2410 H   0  0  0  0  0  0  0  0  0  0  0  0
   38.5040   26.8050   34.6120 C   0  0  1  0  0  0  0  0  0  0  0  0
   37.1420   26.6190   35.1220 C   0  0  0  0  0  0  0  0  0  0  0  0
   37.9720   25.3950   34.8130 C   0  0  2  0  0  0  0  0  0  0  0  0
   39.3070   27.0870   35.2950 H   0  0  0  0  0  0  0  0  0  0  0  0
   36.2790   26.7950   34.4550 H   0  0  0  0  0  0  0  0  0  0  0  0
   36.9720   26.9270   36.1700 H   0  0  0  0  0  0  0  0  0  0  0  0
   37.7190   24.7740   33.9420 H   0  0  0  0  0  0  0  0  0  0  0  0
   38.3670   24.6390   36.0170 C   0  0  0  0  0  0  0  0  0  0  0  0
   37.7560   24.7750   37.2430 C   0  0  0  0  0  3  0  0  0  0  0  0
   38.1400   24.0600   38.3530 C   0  0  0  0  0  0  0  0  0  0  0  0
   37.6460   24.1760   39.3270 H   0  0  0  0  0  0  0  0  0  0  0  0
   39.1770   23.1550   38.2830 C   0  0  0  0  0  3  0  0  0  0  0  0
   39.8110   22.9890   37.0840 C   0  0  0  0  0  0  0  0  0  0  0  0
   40.6440   22.2770   36.9830 H   0  0  0  0  0  0  0  0  0  0  0  0
   39.3990   23.7220   35.9950 C   0  0  0  0  0  3  0  0  0  0  0  0
  1  8  1  0  0  0  0
  1  5  1  0  0  0  0
  2  1  2  0  0  0  0
  3  2  1  0  0  0  0
  3  4  2  0  0  0  0
  4  7  1  0  0  0  0
  4  5  1  0  0  0  0
  5 17  1  0  0  0  0
  6  2  1  0  0  0  0
  8  9  2  0  0  0  0
  8 13  1  0  0  0  0
  9 10  1  0  0  0  0
 10 15  1  0  0  0  0
 10 11  2  0  0  0  0
 12 11  1  0  0  0  0
 12 16  1  0  0  0  0
 13 12  2  0  0  0  0
 14  9  1  0  0  0  0
 17 19  1  0  0  0  0
 17 18  1  0  0  0  0
 17 20  1  1  0  0  0
 18 22  1  0  0  0  0
 19 23  1  6  0  0  0
 19 18  1  0  0  0  0
 19 24  1  0  0  0  0
 21 18  1  0  0  0  0
 24 25  1  0  0  0  0
 25 26  2  0  0  0  0
 26 27  1  0  0  0  0
 28 26  1  0  0  0  0
 29 28  2  0  0  0  0
 30 29  1  0  0  0  0
 31 24  2  0  0  0  0
 31 29  1  0  0  0  0
M  END
>  <minimizedAffinity>
-4.60953617

>  <minimizedRMSD>
6.38024426

$$$$
