
 OpenBabel03262520003D

 34 37  0  0  1  0  0  0  0  0999 V2000
   39.2240   24.4380   35.3800 C   0  0  1  0  0  0  0  0  0  0  0  0
   37.7980   24.4330   35.1980 C   0  0  0  0  0  0  0  0  0  0  0  0
   38.7010   23.4690   34.3740 C   0  0  1  0  0  0  0  0  0  0  0  0
   39.5840   23.9970   36.3680 H   0  0  0  0  0  0  0  0  0  0  0  0
   37.1070   23.9490   35.9020 H   0  0  0  0  0  0  0  0  0  0  0  0
   37.3080   25.2200   34.6050 H   0  0  0  0  0  0  0  0  0  0  0  0
   38.3840   23.7320   32.9230 C   0  0  0  0  0  0  0  0  0  0  0  0
   39.5260   23.8030   32.1190 C   0  0  0  0  0  3  0  0  0  0  0  0
   39.3800   24.0380   30.7700 C   0  0  0  0  0  0  0  0  0  0  0  0
   40.1930   24.1160   30.0340 H   0  0  0  0  0  0  0  0  0  0  0  0
   38.1350   24.2050   30.1930 C   0  0  0  0  0  3  0  0  0  0  0  0
   37.0280   24.1300   31.0000 C   0  0  0  0  0  0  0  0  0  0  0  0
   36.0240   24.2530   30.6060 H   0  0  0  0  0  0  0  0  0  0  0  0
   37.1460   23.9000   32.3390 C   0  0  0  0  0  3  0  0  0  0  0  0
   39.9600   26.5750   34.3130 C   0  0  0  0  0  0  0  0  0  0  0  0
   41.1720   27.1670   33.9640 C   0  0  0  0  0  0  0  0  0  0  0  0
   42.1040   26.2490   34.3610 N   0  0  0  0  0  0  0  0  0  0  0  0
   41.4550   25.2180   34.8940 C   0  0  0  0  0  0  0  0  0  0  0  0
   40.1380   25.3940   34.8760 N   0  0  0  0  0  0  0  0  0  0  0  0
   41.3120   28.1410   33.4840 H   0  0  0  0  0  0  0  0  0  0  0  0
   42.0990   24.4030   35.2560 H   0  0  0  0  0  0  0  0  0  0  0  0
   38.6550   27.1870   34.0940 C   0  0  0  0  0  0  0  0  0  0  0  0
   37.9410   27.7060   35.1950 C   0  0  0  0  0  0  0  0  0  0  0  0
   36.6810   28.2930   34.9430 C   0  0  0  0  0  0  0  0  0  0  0  0
   36.2460   28.3130   33.6540 N   0  0  0  0  0  0  0  0  0  0  0  0
   36.9610   27.8040   32.6280 C   0  0  0  0  0  0  0  0  0  0  0  0
   38.1650   27.2400   32.8410 N   0  0  0  0  0  0  0  0  0  0  0  0
   38.3860   27.6350   36.1760 H   0  0  0  0  0  0  0  0  0  0  0  0
   36.1320   28.6890   35.7740 H   0  0  0  0  0  0  0  0  0  0  0  0
   36.4820   27.8970   31.6680 H   0  0  0  0  0  0  0  0  0  0  0  0
   38.5140   22.0350   34.8330 C   0  0  0  0  0  0  0  0  0  0  0  0
   39.0650   21.1740   33.9030 F   0  0  0  0  0  0  0  0  0  0  0  0
   39.3280   21.8300   36.0190 F   0  0  0  0  0  0  0  0  0  0  0  0
   37.2550   21.7300   35.1800 F   0  0  0  0  0  0  0  0  0  0  0  0
  1  4  1  1  0  0  0
  2  1  1  0  0  0  0
  2  5  1  0  0  0  0
  3 31  1  1  0  0  0
  3  2  1  0  0  0  0
  3  1  1  0  0  0  0
  6  2  1  0  0  0  0
  7  3  1  0  0  0  0
  8  7  2  0  0  0  0
  9  8  1  0  0  0  0
 10  9  1  0  0  0  0
 11  9  2  0  0  0  0
 11 12  1  0  0  0  0
 12 14  2  0  0  0  0
 13 12  1  0  0  0  0
 14  7  1  0  0  0  0
 15 19  1  0  0  0  0
 16 15  2  0  0  0  0
 16 17  1  0  0  0  0
 17 18  2  0  0  0  0
 18 21  1  0  0  0  0
 19 18  1  0  0  0  0
 19  1  1  0  0  0  0
 20 16  1  0  0  0  0
 22 15  1  0  0  0  0
 22 23  1  0  0  0  0
 23 28  1  0  0  0  0
 24 23  2  0  0  0  0
 24 29  1  0  0  0  0
 25 24  1  0  0  0  0
 26 27  1  0  0  0  0
 26 25  2  0  0  0  0
 27 22  2  0  0  0  0
 30 26  1  0  0  0  0
 31 34  1  0  0  0  0
 31 33  1  0  0  0  0
 32 31  1  0  0  0  0
M  END
>  <minimizedAffinity>
-4.40098524

>  <minimizedRMSD>
4.7114892

$$$$
