
 OpenBabel03262515153D

 38 41  0  0  0  0  0  0  0  0999 V2000
   37.3060   22.8820   33.1630 C   0  0  0  0  0  0  0  0  0  0  0  0
   36.9880   21.6440   32.7190 N   0  0  0  0  0  0  0  0  0  0  0  0
   36.1650   21.3910   31.6840 C   0  0  0  0  0  0  0  0  0  0  0  0
   35.5900   22.3920   31.0070 N   0  0  0  0  0  0  0  0  0  0  0  0
   35.8510   23.6660   31.3820 C   0  0  0  0  0  0  0  0  0  0  0  0
   35.2340   24.6520   30.6530 C   0  0  0  0  0  0  0  0  0  0  0  0
   35.4650   25.9630   30.9990 C   0  0  0  0  0  0  0  0  0  0  0  0
   36.3170   26.2170   32.0760 C   0  0  0  0  0  0  0  0  0  0  0  0
   36.8980   25.1600   32.7550 C   0  0  0  0  0  0  0  0  0  0  0  0
   36.6990   23.8650   32.4460 C   0  0  0  0  0  0  0  0  0  0  0  0
   35.9460   20.3770   31.3730 H   0  0  0  0  0  0  0  0  0  0  0  0
   34.5780   24.3900   29.8220 H   0  0  0  0  0  0  0  0  0  0  0  0
   34.9420   26.6970   30.3740 H   0  0  0  0  0  0  0  0  0  0  0  0
   36.3810   27.2950   32.2020 H   0  0  0  0  0  0  0  0  0  0  0  0
   39.0460   23.5330   36.4120 C   0  0  0  0  0  0  0  0  0  0  0  0
   40.3710   23.5420   35.9880 C   0  0  0  0  0  0  0  0  0  0  0  0
   40.5740   23.3320   34.6410 C   0  0  0  0  0  0  0  0  0  0  0  0
   39.4850   23.1390   33.8700 N   0  0  0  0  0  0  0  0  0  0  0  0
   38.2100   23.1310   34.2720 C   0  0  0  0  0  0  0  0  0  0  0  0
   38.0600   23.3360   35.5740 N   0  0  0  0  0  0  0  0  0  0  0  0
   41.8730   23.3340   34.0790 N   0  0  0  0  0  0  0  0  0  0  0  0
   42.5280   22.1530   33.6210 C   0  0  0  0  0  0  0  0  0  0  0  0
   41.7630   21.3500   32.9060 N   0  0  0  0  0  0  0  0  0  0  0  0
   43.9160   21.9960   33.9940 N   0  0  0  0  0  0  0  0  0  0  0  0
   42.1910   20.4710   32.5730 H   0  0  0  0  0  0  0  0  0  0  0  0
   38.7940   23.6900   37.4550 H   0  0  0  0  0  0  0  0  0  0  0  0
   41.1920   23.7050   36.6740 H   0  0  0  0  0  0  0  0  0  0  0  0
   42.3670   24.2770   34.0090 H   0  0  0  0  0  0  0  0  0  0  0  0
   44.5910   22.7700   33.7740 H   0  0  0  0  0  0  0  0  0  0  0  0
   44.2080   21.1100   34.4760 H   0  0  0  0  0  0  0  0  0  0  0  0
   37.6770   25.8000   33.7980 C   0  0  0  0  0  0  0  0  0  0  0  0
   38.9310   26.1640   33.2480 C   0  0  0  0  0  0  0  0  0  0  0  0
   39.9460   26.7540   34.0150 C   0  0  0  0  0  0  0  0  0  0  0  0
   40.9100   27.0420   33.6280 H   0  0  0  0  0  0  0  0  0  0  0  0
   39.7390   26.9970   35.3550 C   0  0  0  0  0  0  0  0  0  0  0  0
   38.5270   26.6510   35.9090 C   0  0  0  0  0  0  0  0  0  0  0  0
   38.1560   26.7530   36.9340 H   0  0  0  0  0  0  0  0  0  0  0  0
   37.5450   26.0750   35.1430 C   0  0  0  0  0  0  0  0  0  0  0  0
  1 19  1  0  0  0  0
  2  1  1  0  0  0  0
  3  2  2  0  0  0  0
  4  5  2  0  0  0  0
  4  3  1  0  0  0  0
  5 10  1  0  0  0  0
  6  7  2  0  0  0  0
  6  5  1  0  0  0  0
  7  8  1  0  0  0  0
  8 14  1  0  0  0  0
  8  9  2  0  0  0  0
  9 31  1  0  0  0  0
 10  9  1  0  0  0  0
 10  1  2  0  0  0  0
 11  3  1  0  0  0  0
 12  6  1  0  0  0  0
 13  7  1  0  0  0  0
 15 26  1  0  0  0  0
 16 15  1  0  0  0  0
 16 27  1  0  0  0  0
 17 16  2  0  0  0  0
 18 19  2  0  0  0  0
 18 17  1  0  0  0  0
 19 20  1  0  0  0  0
 20 15  2  0  0  0  0
 21 17  1  0  0  0  0
 22 24  1  0  0  0  0
 22 21  1  0  0  0  0
 23 22  2  0  0  0  0
 24 30  1  0  0  0  0
 25 23  1  0  0  0  0
 28 21  1  0  0  0  0
 29 24  1  0  0  0  0
 31 38  1  0  0  0  0
 32 31  2  0  0  0  0
 32 33  1  0  0  0  0
 33 35  2  0  0  0  0
 34 33  1  0  0  0  0
 35 36  1  0  0  0  0
 36 37  1  0  0  0  0
 38 36  2  0  0  0  0
M  END
>  <minimizedAffinity>
-5.70633888

>  <minimizedRMSD>
4.61739731

$$$$
