
 OpenBabel03262519013D

 36 39  0  0  0  0  0  0  0  0999 V2000
   38.3500   25.8200   34.1540 C   0  0  0  0  0  0  0  0  0  0  0  0
   37.9220   26.5120   34.8750 H   0  0  0  0  0  0  0  0  0  0  0  0
   39.0870   26.5020   33.5950 H   0  0  0  0  0  0  0  0  0  0  0  0
   39.2390   24.7760   34.6680 C   0  0  0  0  0  0  0  0  0  0  0  0
   40.2710   24.2510   33.9160 C   0  0  0  0  0  0  0  0  0  0  0  0
   41.0990   23.2890   34.4230 C   0  0  0  0  0  0  0  0  0  0  0  0
   40.9310   22.8080   35.7090 C   0  0  0  0  0  0  0  0  0  0  0  0
   39.9060   23.3230   36.4720 C   0  0  0  0  0  0  0  0  0  0  0  0
   39.7180   22.8630   37.7670 C   0  0  0  0  0  0  0  0  0  0  0  0
   38.7150   23.3490   38.5650 C   0  0  0  0  0  0  0  0  0  0  0  0
   37.8680   24.3240   38.0590 C   0  0  0  0  0  0  0  0  0  0  0  0
   38.0650   24.7770   36.7590 C   0  0  0  0  0  0  0  0  0  0  0  0
   39.0740   24.3010   35.9360 C   0  0  0  0  0  0  0  0  0  0  0  0
   40.4530   24.5910   32.8940 H   0  0  0  0  0  0  0  0  0  0  0  0
   41.9190   22.8580   33.8520 H   0  0  0  0  0  0  0  0  0  0  0  0
   41.6050   22.0370   36.0970 H   0  0  0  0  0  0  0  0  0  0  0  0
   40.4050   22.1000   38.1160 H   0  0  0  0  0  0  0  0  0  0  0  0
   38.6280   22.9410   39.5710 H   0  0  0  0  0  0  0  0  0  0  0  0
   37.0920   24.6910   38.6930 H   0  0  0  0  0  0  0  0  0  0  0  0
   37.3540   25.5300   36.4590 H   0  0  0  0  0  0  0  0  0  0  0  0
   35.9170   25.9060   31.4070 C   0  0  0  0  0  0  0  0  0  0  0  0
   35.6640   24.5700   31.1330 C   0  0  0  0  0  0  0  0  0  0  0  0
   36.3340   23.6150   31.9110 C   0  0  0  0  0  0  0  0  0  0  0  0
   37.1950   24.0350   32.8880 N   0  0  0  0  0  0  0  0  0  0  0  0
   37.4050   25.3340   33.1120 C   0  0  0  0  0  0  0  0  0  0  0  0
   36.7740   26.2620   32.3810 N   0  0  0  0  0  0  0  0  0  0  0  0
   35.4080   26.6540   30.8170 H   0  0  0  0  0  0  0  0  0  0  0  0
   34.9890   24.2900   30.3660 H   0  0  0  0  0  0  0  0  0  0  0  0
   36.1390   22.1890   31.7050 C   0  0  0  0  0  0  0  0  0  0  0  0
   36.9260   21.3980   30.9020 C   0  0  0  0  0  0  0  0  0  0  0  0
   36.7350   20.0480   30.7130 C   0  0  0  0  0  0  0  0  0  0  0  0
   37.3920   19.4880   30.0680 H   0  0  0  0  0  0  0  0  0  0  0  0
   35.6780   19.4620   31.3780 C   0  0  0  0  0  0  0  0  0  0  0  0
   34.8440   20.1890   32.2010 C   0  0  0  0  0  0  0  0  0  0  0  0
   34.0240   19.6980   32.7100 H   0  0  0  0  0  0  0  0  0  0  0  0
   35.1040   21.5390   32.3390 C   0  0  0  0  0  0  0  0  0  0  0  0
  1  4  1  0  0  0  0
  1  2  1  0  0  0  0
  3  1  1  0  0  0  0
  4 13  1  0  0  0  0
  5  6  1  0  0  0  0
  5  4  2  0  0  0  0
  6  7  2  0  0  0  0
  7 16  1  0  0  0  0
  7  8  1  0  0  0  0
  8  9  1  0  0  0  0
  9 17  1  0  0  0  0
  9 10  2  0  0  0  0
 10 18  1  0  0  0  0
 11 10  1  0  0  0  0
 11 19  1  0  0  0  0
 12 11  2  0  0  0  0
 13  8  2  0  0  0  0
 13 12  1  0  0  0  0
 14  5  1  0  0  0  0
 15  6  1  0  0  0  0
 20 12  1  0  0  0  0
 21 26  1  0  0  0  0
 22 21  2  0  0  0  0
 22 23  1  0  0  0  0
 23 24  2  0  0  0  0
 24 25  1  0  0  0  0
 25  1  1  0  0  0  0
 26 25  2  0  0  0  0
 27 21  1  0  0  0  0
 28 22  1  0  0  0  0
 29 23  1  0  0  0  0
 29 36  1  0  0  0  0
 30 29  2  0  0  0  0
 31 30  1  0  0  0  0
 31 33  2  0  0  0  0
 32 31  1  0  0  0  0
 33 34  1  0  0  0  0
 34 36  2  0  0  0  0
 34 35  1  0  0  0  0
M  END
>  <minimizedAffinity>
-6.66138554

>  <minimizedRMSD>
3.19095016

$$$$
