
 OpenBabel03262519583D

 31 34  0  0  1  0  0  0  0  0999 V2000
   38.1250   24.4230   34.6300 C   0  0  0  0  0  0  0  0  0  0  0  0
   38.1130   25.7450   34.2190 C   0  0  0  0  0  0  0  0  0  0  0  0
   37.7590   25.6770   32.8970 N   0  0  0  0  0  0  0  0  0  0  0  0
   37.5870   24.4030   32.5900 C   0  0  0  0  0  0  0  0  0  0  0  0
   37.8050   23.5950   33.6420 N   0  0  0  0  0  0  0  0  0  0  0  0
   38.3220   26.6560   34.7650 H   0  0  0  0  0  0  0  0  0  0  0  0
   37.3020   24.1250   31.5820 H   0  0  0  0  0  0  0  0  0  0  0  0
   38.4470   23.9740   35.9810 C   0  0  0  0  0  0  0  0  0  0  0  0
   39.6460   23.2770   36.2180 C   0  0  0  0  0  0  0  0  0  0  0  0
   39.9130   22.8630   37.5400 C   0  0  0  0  0  0  0  0  0  0  0  0
   39.0060   23.1600   38.4880 N   0  0  0  0  0  0  0  0  0  0  0  0
   37.8660   23.8290   38.2280 C   0  0  0  0  0  0  0  0  0  0  0  0
   37.5790   24.2390   36.9760 N   0  0  0  0  0  0  0  0  0  0  0  0
   40.3370   23.0710   35.3980 H   0  0  0  0  0  0  0  0  0  0  0  0
   40.8380   22.3280   37.7160 H   0  0  0  0  0  0  0  0  0  0  0  0
   37.1950   24.0230   39.0570 H   0  0  0  0  0  0  0  0  0  0  0  0
   37.6840   22.1590   33.5800 C   0  0  1  0  0  0  0  0  0  0  0  0
   36.6650   21.4220   34.3330 C   0  0  0  0  0  0  0  0  0  0  0  0
   36.4150   21.7120   32.8720 C   0  0  2  0  0  0  0  0  0  0  0  0
   38.5900   21.6500   33.2490 H   0  0  0  0  0  0  0  0  0  0  0  0
   36.0160   21.9590   35.0480 H   0  0  0  0  0  0  0  0  0  0  0  0
   36.9480   20.4040   34.6590 H   0  0  0  0  0  0  0  0  0  0  0  0
   35.6540   22.4520   32.5890 H   0  0  0  0  0  0  0  0  0  0  0  0
   36.4490   20.5050   32.0240 C   0  0  0  0  0  0  0  0  0  0  0  0
   36.8290   20.5080   30.7000 C   0  0  0  0  0  3  0  0  0  0  0  0
   36.8540   19.3710   29.9270 C   0  0  0  0  0  0  0  0  0  0  0  0
   37.1590   19.3850   28.8720 H   0  0  0  0  0  0  0  0  0  0  0  0
   36.4920   18.1520   30.4570 C   0  0  0  0  0  3  0  0  0  0  0  0
   36.1080   18.1030   31.7670 C   0  0  0  0  0  0  0  0  0  0  0  0
   35.8100   17.1520   32.2320 H   0  0  0  0  0  0  0  0  0  0  0  0
   36.0950   19.2630   32.5100 C   0  0  0  0  0  3  0  0  0  0  0  0
  1  8  1  0  0  0  0
  2  1  2  0  0  0  0
  2  6  1  0  0  0  0
  3  2  1  0  0  0  0
  4  3  2  0  0  0  0
  4  5  1  0  0  0  0
  5  1  1  0  0  0  0
  7  4  1  0  0  0  0
  8  9  2  0  0  0  0
  8 13  1  0  0  0  0
  9 10  1  0  0  0  0
 10 15  1  0  0  0  0
 10 11  2  0  0  0  0
 12 11  1  0  0  0  0
 12 16  1  0  0  0  0
 13 12  2  0  0  0  0
 14  9  1  0  0  0  0
 17 20  1  6  0  0  0
 17  5  1  0  0  0  0
 17 18  1  0  0  0  0
 18 22  1  0  0  0  0
 18 21  1  0  0  0  0
 19 23  1  6  0  0  0
 19 17  1  0  0  0  0
 19 18  1  0  0  0  0
 24 31  1  0  0  0  0
 24 19  1  0  0  0  0
 25 24  2  0  0  0  0
 26 28  2  0  0  0  0
 26 25  1  0  0  0  0
 27 26  1  0  0  0  0
 28 29  1  0  0  0  0
 29 30  1  0  0  0  0
 29 31  2  0  0  0  0
M  END
>  <minimizedAffinity>
-4.91435957

>  <minimizedRMSD>
1.80599284

$$$$
