
 OpenBabel03262519303D

 32 35  0  0  0  0  0  0  0  0999 V2000
   40.4870   21.9520   36.9630 O   0  0  0  0  0  0  0  0  0  0  0  0
   41.7900   22.0900   36.5630 C   0  0  0  0  0  0  0  0  0  0  0  0
   42.3730   23.2360   36.0300 C   0  0  0  0  0  0  0  0  0  0  0  0
   43.6670   23.0190   35.7500 N   0  0  0  0  0  0  0  0  0  0  0  0
   44.0060   21.7570   36.0700 C   0  0  0  0  0  0  0  0  0  0  0  0
   45.1700   21.0200   35.9930 C   0  0  0  0  0  0  0  0  0  0  0  0
   45.1960   19.6970   36.4180 C   0  0  0  0  0  0  0  0  0  0  0  0
   44.0360   19.1250   36.9190 C   0  0  0  0  0  0  0  0  0  0  0  0
   42.8670   19.8600   36.9980 C   0  0  0  0  0  0  0  0  0  0  0  0
   42.8460   21.1780   36.5730 C   0  0  0  0  0  0  0  0  0  0  0  0
   41.8830   24.1880   35.8540 H   0  0  0  0  0  0  0  0  0  0  0  0
   44.3470   23.7010   35.3420 H   0  0  0  0  0  0  0  0  0  0  0  0
   46.0530   21.5080   35.5940 H   0  0  0  0  0  0  0  0  0  0  0  0
   46.1180   19.1340   36.3510 H   0  0  0  0  0  0  0  0  0  0  0  0
   44.0440   18.0920   37.2540 H   0  0  0  0  0  0  0  0  0  0  0  0
   41.9710   19.3880   37.3950 H   0  0  0  0  0  0  0  0  0  0  0  0
   39.5870   22.9480   37.1600 C   0  0  0  0  0  0  0  0  0  0  0  0
   39.0990   23.1380   38.4630 C   0  0  0  0  0  0  0  0  0  0  0  0
   38.1690   24.1750   38.6440 C   0  0  0  0  0  0  0  0  0  0  0  0
   37.7910   24.9310   37.5750 N   0  0  0  0  0  0  0  0  0  0  0  0
   38.2920   24.7040   36.3420 C   0  0  0  0  0  0  0  0  0  0  0  0
   39.1740   23.7290   36.1440 N   0  0  0  0  0  0  0  0  0  0  0  0
   39.3820   22.5600   39.3130 H   0  0  0  0  0  0  0  0  0  0  0  0
   37.7690   24.3540   39.6400 H   0  0  0  0  0  0  0  0  0  0  0  0
   37.8870   25.5130   35.1960 C   0  0  0  0  0  0  0  0  0  0  0  0
   37.9060   24.9600   33.9130 C   0  0  0  0  0  0  0  0  0  0  0  0
   37.5100   25.7850   32.8800 C   0  0  0  0  0  0  0  0  0  0  0  0
   37.5110   25.3830   31.8550 H   0  0  0  0  0  0  0  0  0  0  0  0
   37.1020   27.0960   33.0050 C   0  0  0  0  0  0  0  0  0  0  0  0
   37.0870   27.6410   34.2940 C   0  0  0  0  0  0  0  0  0  0  0  0
   36.7810   28.6610   34.4850 H   0  0  0  0  0  0  0  0  0  0  0  0
   37.4810   26.8250   35.3300 C   0  0  0  0  0  0  0  0  0  0  0  0
  1 17  1  0  0  0  0
  2 10  1  0  0  0  0
  2  1  1  0  0  0  0
  3  2  2  0  0  0  0
  4  3  1  0  0  0  0
  4  5  1  0  0  0  0
  5 10  1  0  0  0  0
  6  5  2  0  0  0  0
  6  7  1  0  0  0  0
  7  8  2  0  0  0  0
  8  9  1  0  0  0  0
  8 15  1  0  0  0  0
  9 16  1  0  0  0  0
 10  9  2  0  0  0  0
 11  3  1  0  0  0  0
 12  4  1  0  0  0  0
 13  6  1  0  0  0  0
 14  7  1  0  0  0  0
 17 18  1  0  0  0  0
 18 19  2  0  0  0  0
 18 23  1  0  0  0  0
 19 24  1  0  0  0  0
 20 19  1  0  0  0  0
 21 20  2  0  0  0  0
 22 21  1  0  0  0  0
 22 17  2  0  0  0  0
 25 32  1  0  0  0  0
 25 21  1  0  0  0  0
 26 25  2  0  0  0  0
 27 29  2  0  0  0  0
 27 26  1  0  0  0  0
 28 27  1  0  0  0  0
 29 30  1  0  0  0  0
 30 31  1  0  0  0  0
 30 32  2  0  0  0  0
M  END
>  <minimizedAffinity>
-5.3919816

>  <minimizedRMSD>
1.71245098

$$$$
