
 OpenBabel03262518283D

 27 29  0  0  0  0  0  0  0  0999 V2000
   39.6250   22.6260   38.2820 N   0  0  0  0  0  0  0  0  0  0  0  0
   38.5390   23.3560   38.0820 N   0  0  0  0  0  0  0  0  0  0  0  0
   38.5960   23.9470   36.8640 C   0  0  0  0  0  0  0  0  0  0  0  0
   39.7780   23.5690   36.2730 C   0  0  0  0  0  0  0  0  0  0  0  0
   40.3920   22.7450   37.1870 C   0  0  0  0  0  0  0  0  0  0  0  0
   39.9110   22.0370   39.1110 H   0  0  0  0  0  0  0  0  0  0  0  0
   40.0490   23.9190   35.2850 H   0  0  0  0  0  0  0  0  0  0  0  0
   41.6970   22.1450   36.8900 C   0  0  0  0  0  0  0  0  0  0  0  0
   42.0290   20.8230   37.1000 C   0  0  0  0  0  0  0  0  0  0  0  0
   43.2810   20.3340   36.7930 C   0  0  0  0  0  0  0  0  0  0  0  0
   43.3870   19.2800   37.0130 H   0  0  0  0  0  0  0  0  0  0  0  0
   44.2260   21.1940   36.2620 C   0  0  0  0  0  0  0  0  0  0  0  0
   43.9290   22.5210   36.0390 C   0  0  0  0  0  0  0  0  0  0  0  0
   44.6990   23.1460   35.6260 H   0  0  0  0  0  0  0  0  0  0  0  0
   42.6560   22.9990   36.3560 C   0  0  0  0  0  0  0  0  0  0  0  0
   37.5730   24.7800   36.3930 O   0  0  0  0  0  0  0  0  0  0  0  0
   37.8170   26.0760   35.9810 C   0  0  0  0  0  0  0  0  0  0  0  0
   38.4350   26.8710   36.6950 O   0  0  0  0  0  0  0  0  0  0  0  0
   37.3300   26.5170   34.6710 C   0  0  0  0  0  0  0  0  0  0  0  0
   37.4440   25.6150   33.6010 C   0  0  0  0  0  0  0  0  0  0  0  0
   36.9840   26.0210   32.3390 C   0  0  0  0  0  0  0  0  0  0  0  0
   36.4600   27.2570   32.2430 N   0  0  0  0  0  0  0  0  0  0  0  0
   36.3660   28.0870   33.2720 C   0  0  0  0  0  0  0  0  0  0  0  0
   36.7940   27.7430   34.5050 N   0  0  0  0  0  0  0  0  0  0  0  0
   37.8900   24.6290   33.8010 H   0  0  0  0  0  0  0  0  0  0  0  0
   37.0900   25.2970   31.5400 H   0  0  0  0  0  0  0  0  0  0  0  0
   35.9210   29.0580   33.0570 H   0  0  0  0  0  0  0  0  0  0  0  0
  1  6  1  0  0  0  0
  2  1  1  0  0  0  0
  3  2  2  0  0  0  0
  4  3  1  0  0  0  0
  4  5  2  0  0  0  0
  5  1  1  0  0  0  0
  7  4  1  0  0  0  0
  8  9  1  0  0  0  0
  8  5  1  0  0  0  0
 10 11  1  0  0  0  0
 10  9  2  0  0  0  0
 12 10  1  0  0  0  0
 13 12  2  0  0  0  0
 13 15  1  0  0  0  0
 14 13  1  0  0  0  0
 15  8  2  0  0  0  0
 16  3  1  0  0  0  0
 17 16  1  0  0  0  0
 17 18  2  0  0  0  0
 19 17  1  0  0  0  0
 20 25  1  0  0  0  0
 20 19  2  0  0  0  0
 21 20  1  0  0  0  0
 22 21  2  0  0  0  0
 22 23  1  0  0  0  0
 23 24  2  0  0  0  0
 24 19  1  0  0  0  0
 26 21  1  0  0  0  0
 27 23  1  0  0  0  0
M  END
>  <minimizedAffinity>
-5.35377645

>  <minimizedRMSD>
1.08019435

$$$$
