
 OpenBabel03262519583D

 31 34  0  0  1  0  0  0  0  0999 V2000
   39.8290   25.8660   32.3420 C   0  0  0  0  0  0  0  0  0  0  0  0
   39.6420   26.2780   31.0340 C   0  0  0  0  0  0  0  0  0  0  0  0
   38.7120   27.2800   31.1330 N   0  0  0  0  0  0  0  0  0  0  0  0
   38.4000   27.4160   32.4110 C   0  0  0  0  0  0  0  0  0  0  0  0
   39.0750   26.5540   33.1910 N   0  0  0  0  0  0  0  0  0  0  0  0
   40.0950   25.9320   30.1130 H   0  0  0  0  0  0  0  0  0  0  0  0
   37.6730   28.1620   32.7120 H   0  0  0  0  0  0  0  0  0  0  0  0
   40.7410   24.8040   32.7590 C   0  0  0  0  0  0  0  0  0  0  0  0
   40.3090   23.4640   32.7400 C   0  0  0  0  0  0  0  0  0  0  0  0
   41.2250   22.4750   33.1520 C   0  0  0  0  0  0  0  0  0  0  0  0
   42.4520   22.8730   33.5350 N   0  0  0  0  0  0  0  0  0  0  0  0
   42.8350   24.1640   33.5410 C   0  0  0  0  0  0  0  0  0  0  0  0
   41.9850   25.1360   33.1540 N   0  0  0  0  0  0  0  0  0  0  0  0
   39.2960   23.2160   32.4170 H   0  0  0  0  0  0  0  0  0  0  0  0
   40.8870   21.4470   33.1350 H   0  0  0  0  0  0  0  0  0  0  0  0
   43.8440   24.3900   33.8660 H   0  0  0  0  0  0  0  0  0  0  0  0
   38.9220   26.4930   34.6240 C   0  0  1  0  0  0  0  0  0  0  0  0
   37.6480   26.7760   35.2920 C   0  0  0  0  0  0  0  0  0  0  0  0
   38.0400   25.3350   35.0660 C   0  0  2  0  0  0  0  0  0  0  0  0
   39.8580   26.5850   35.1760 H   0  0  0  0  0  0  0  0  0  0  0  0
   36.7880   27.1390   34.7010 H   0  0  0  0  0  0  0  0  0  0  0  0
   37.7210   27.2220   36.3020 H   0  0  0  0  0  0  0  0  0  0  0  0
   37.5020   24.7380   34.3170 H   0  0  0  0  0  0  0  0  0  0  0  0
   38.3650   24.6160   36.3120 C   0  0  0  0  0  0  0  0  0  0  0  0
   39.2900   23.6000   36.3930 C   0  0  0  0  0  3  0  0  0  0  0  0
   39.5770   22.9420   37.5670 C   0  0  0  0  0  0  0  0  0  0  0  0
   40.3180   22.1320   37.6210 H   0  0  0  0  0  0  0  0  0  0  0  0
   38.9350   23.2810   38.7390 C   0  0  0  0  0  3  0  0  0  0  0  0
   38.0090   24.2840   38.7030 C   0  0  0  0  0  0  0  0  0  0  0  0
   37.4730   24.5880   39.6140 H   0  0  0  0  0  0  0  0  0  0  0  0
   37.7490   24.9190   37.5100 C   0  0  0  0  0  3  0  0  0  0  0  0
  1  8  1  0  0  0  0
  1  5  1  0  0  0  0
  2  3  1  0  0  0  0
  2  1  2  0  0  0  0
  3  4  2  0  0  0  0
  4  7  1  0  0  0  0
  4  5  1  0  0  0  0
  5 17  1  0  0  0  0
  6  2  1  0  0  0  0
  8 13  1  0  0  0  0
  9  8  2  0  0  0  0
  9 10  1  0  0  0  0
 10 11  2  0  0  0  0
 11 12  1  0  0  0  0
 12 16  1  0  0  0  0
 13 12  2  0  0  0  0
 14  9  1  0  0  0  0
 15 10  1  0  0  0  0
 17 19  1  0  0  0  0
 17 20  1  1  0  0  0
 17 18  1  0  0  0  0
 18 22  1  0  0  0  0
 19 23  1  6  0  0  0
 19 18  1  0  0  0  0
 19 24  1  0  0  0  0
 21 18  1  0  0  0  0
 24 25  2  0  0  0  0
 24 31  1  0  0  0  0
 25 26  1  0  0  0  0
 26 27  1  0  0  0  0
 26 28  2  0  0  0  0
 29 28  1  0  0  0  0
 29 30  1  0  0  0  0
 31 29  2  0  0  0  0
M  END
>  <minimizedAffinity>
-4.23001671

>  <minimizedRMSD>
6.21054935

$$$$
