
 OpenBabel03262519143D

 28 30  0  0  0  0  0  0  0  0999 V2000
   37.1800   26.1120   33.2290 C   0  0  0  0  0  0  0  0  0  0  0  0
   36.9420   27.4370   33.6290 C   0  0  0  0  0  0  0  0  0  0  0  0
   37.2710   27.8290   34.9190 C   0  0  0  0  0  0  0  0  0  0  0  0
   37.8140   26.8700   35.7220 N   0  0  0  0  0  0  0  0  0  0  0  0
   38.0350   25.5840   35.3030 C   0  0  0  0  0  0  0  0  0  0  0  0
   37.7120   25.2320   34.0640 N   0  0  0  0  0  0  0  0  0  0  0  0
   36.9040   25.8590   32.2080 H   0  0  0  0  0  0  0  0  0  0  0  0
   37.1220   28.8210   35.3010 H   0  0  0  0  0  0  0  0  0  0  0  0
   38.6210   24.6070   36.2170 C   0  0  0  0  0  0  0  0  0  0  0  0
   38.0860   24.3750   37.4660 C   0  0  0  0  0  0  0  0  0  0  0  0
   38.6450   23.4430   38.3370 C   0  0  0  0  0  0  0  0  0  0  0  0
   38.2710   23.2200   39.3220 H   0  0  0  0  0  0  0  0  0  0  0  0
   39.7690   22.7350   37.9320 C   0  0  0  0  0  0  0  0  0  0  0  0
   40.3200   22.9550   36.6790 C   0  0  0  0  0  0  0  0  0  0  0  0
   41.1960   22.4450   36.2830 H   0  0  0  0  0  0  0  0  0  0  0  0
   39.7420   23.8870   35.8370 C   0  0  0  0  0  0  0  0  0  0  0  0
   36.3620   28.4440   32.7750 C   0  0  0  0  0  0  0  0  0  0  0  0
   36.6450   28.6620   31.4410 C   0  0  0  0  0  0  0  0  0  0  0  0
   35.9930   29.6580   30.8060 C   0  0  0  0  0  0  0  0  0  0  0  0
   35.0700   30.4130   31.5380 C   0  0  0  0  0  0  0  0  0  0  0  0
   35.1410   29.6540   33.2200 S   0  0  0  0  0  0  0  0  0  0  0  0
   37.3690   28.0520   30.9140 H   0  0  0  0  0  0  0  0  0  0  0  0
   36.0790   29.9710   29.7880 H   0  0  0  0  0  0  0  0  0  0  0  0
   34.2160   31.4980   31.2540 C   0  0  0  0  0  0  0  0  0  0  0  0
   34.5320   32.6510   31.5200 O   0  0  0  0  0  0  0  0  0  0  0  0
   32.9290   31.2910   30.6350 N   0  0  0  0  0  0  0  0  0  0  0  0
   32.6250   31.0380   29.6690 H   0  0  0  0  0  0  0  0  0  0  0  0
   32.1980   31.4460   31.3810 H   0  0  0  0  0  0  0  0  0  0  0  0
  1  2  2  0  0  0  0
  1  6  1  0  0  0  0
  2  3  1  0  0  0  0
  3  8  1  0  0  0  0
  3  4  2  0  0  0  0
  5  4  1  0  0  0  0
  5  9  1  0  0  0  0
  6  5  2  0  0  0  0
  7  1  1  0  0  0  0
  9 10  1  0  0  0  0
 10 11  2  0  0  0  0
 11 12  1  0  0  0  0
 13 11  1  0  0  0  0
 14 13  2  0  0  0  0
 15 14  1  0  0  0  0
 16  9  2  0  0  0  0
 16 14  1  0  0  0  0
 17 21  1  0  0  0  0
 17  2  1  0  0  0  0
 18 17  2  0  0  0  0
 19 18  1  0  0  0  0
 19 20  2  0  0  0  0
 20 21  1  0  0  0  0
 22 18  1  0  0  0  0
 23 19  1  0  0  0  0
 24 25  2  0  0  0  0
 24 20  1  0  0  0  0
 26 24  1  0  0  0  0
 26 28  1  0  0  0  0
 27 26  1  0  0  0  0
M  END
>  <minimizedAffinity>
-5.39720678

>  <minimizedRMSD>
4.5509963

$$$$
