
 OpenBabel03262520003D

 34 37  0  0  1  0  0  0  0  0999 V2000
   39.4610   24.2380   34.3460 C   0  0  1  0  0  0  0  0  0  0  0  0
   38.2560   24.5900   35.0470 C   0  0  0  0  0  0  0  0  0  0  0  0
   38.8460   23.1550   35.1670 C   0  0  1  0  0  0  0  0  0  0  0  0
   40.4140   24.7090   34.7600 H   0  0  0  0  0  0  0  0  0  0  0  0
   38.2540   25.1800   35.9730 H   0  0  0  0  0  0  0  0  0  0  0  0
   37.2960   24.6470   34.5120 H   0  0  0  0  0  0  0  0  0  0  0  0
   37.7430   22.2100   34.7630 C   0  0  0  0  0  0  0  0  0  0  0  0
   36.9420   21.8150   35.8380 C   0  0  0  0  0  3  0  0  0  0  0  0
   35.8930   20.9520   35.6090 C   0  0  0  0  0  0  0  0  0  0  0  0
   35.1930   20.5670   36.3640 H   0  0  0  0  0  0  0  0  0  0  0  0
   35.6140   20.4690   34.3440 C   0  0  0  0  0  3  0  0  0  0  0  0
   36.4120   20.8700   33.3040 C   0  0  0  0  0  0  0  0  0  0  0  0
   36.2440   20.5260   32.2870 H   0  0  0  0  0  0  0  0  0  0  0  0
   37.4570   21.7230   33.5040 C   0  0  0  0  0  3  0  0  0  0  0  0
   38.9900   24.4580   31.9010 C   0  0  0  0  0  0  0  0  0  0  0  0
   39.4290   23.8500   30.7270 C   0  0  0  0  0  0  0  0  0  0  0  0
   40.3400   22.9300   31.1630 N   0  0  0  0  0  0  0  0  0  0  0  0
   40.4040   23.0200   32.4890 C   0  0  0  0  0  0  0  0  0  0  0  0
   39.5840   23.9510   32.9660 N   0  0  0  0  0  0  0  0  0  0  0  0
   39.1000   24.0780   29.7080 H   0  0  0  0  0  0  0  0  0  0  0  0
   41.1100   22.3250   32.9660 H   0  0  0  0  0  0  0  0  0  0  0  0
   38.0030   25.5300   31.9510 C   0  0  0  0  0  0  0  0  0  0  0  0
   38.4330   26.8570   32.1670 C   0  0  0  0  0  0  0  0  0  0  0  0
   37.4480   27.8680   32.2070 C   0  0  0  0  0  0  0  0  0  0  0  0
   36.1530   27.4890   32.0350 N   0  0  0  0  0  0  0  0  0  0  0  0
   35.7830   26.2060   31.8310 C   0  0  0  0  0  0  0  0  0  0  0  0
   36.7030   25.2230   31.7880 N   0  0  0  0  0  0  0  0  0  0  0  0
   39.4900   27.0410   32.2910 H   0  0  0  0  0  0  0  0  0  0  0  0
   37.7660   28.8790   32.3710 H   0  0  0  0  0  0  0  0  0  0  0  0
   34.7220   26.0680   31.7120 H   0  0  0  0  0  0  0  0  0  0  0  0
   39.4270   22.9270   36.5500 C   0  0  0  0  0  0  0  0  0  0  0  0
   39.7290   21.5880   36.7120 F   0  0  0  0  0  0  0  0  0  0  0  0
   40.7220   23.5840   36.6110 F   0  0  0  0  0  0  0  0  0  0  0  0
   38.6920   23.4450   37.5450 F   0  0  0  0  0  0  0  0  0  0  0  0
  1  4  1  1  0  0  0
  1  2  1  0  0  0  0
  1  3  1  0  0  0  0
  2  3  1  0  0  0  0
  2  5  1  0  0  0  0
  3 31  1  1  0  0  0
  6  2  1  0  0  0  0
  7  3  1  0  0  0  0
  7  8  1  0  0  0  0
  9  8  2  0  0  0  0
  9 10  1  0  0  0  0
 11  9  1  0  0  0  0
 12 14  1  0  0  0  0
 12 11  2  0  0  0  0
 13 12  1  0  0  0  0
 14  7  2  0  0  0  0
 15 22  1  0  0  0  0
 15 19  1  0  0  0  0
 16 17  1  0  0  0  0
 16 15  2  0  0  0  0
 17 18  2  0  0  0  0
 18 19  1  0  0  0  0
 18 21  1  0  0  0  0
 19  1  1  0  0  0  0
 20 16  1  0  0  0  0
 22 23  1  0  0  0  0
 23 24  2  0  0  0  0
 23 28  1  0  0  0  0
 24 29  1  0  0  0  0
 25 24  1  0  0  0  0
 26 25  2  0  0  0  0
 27 26  1  0  0  0  0
 27 22  2  0  0  0  0
 30 26  1  0  0  0  0
 31 33  1  0  0  0  0
 31 32  1  0  0  0  0
 31 34  1  0  0  0  0
M  END
>  <minimizedAffinity>
-4.78837013

>  <minimizedRMSD>
3.06045914

$$$$
