
 OpenBabel03262519153D

 34 37  0  0  0  0  0  0  0  0999 V2000
   39.5310   23.6380   36.0520 C   0  0  0  0  0  0  0  0  0  0  0  0
   39.7970   24.8200   35.3560 C   0  0  0  0  0  0  0  0  0  0  0  0
   41.0830   25.0370   34.8390 C   0  0  0  0  0  0  0  0  0  0  0  0
   42.0040   24.0590   35.0540 N   0  0  0  0  0  0  0  0  0  0  0  0
   41.7090   22.9130   35.7410 C   0  0  0  0  0  0  0  0  0  0  0  0
   40.4800   22.7320   36.2210 N   0  0  0  0  0  0  0  0  0  0  0  0
   38.5420   23.5210   36.4230 H   0  0  0  0  0  0  0  0  0  0  0  0
   41.3700   25.9220   34.2900 H   0  0  0  0  0  0  0  0  0  0  0  0
   38.8490   25.8860   35.1110 C   0  0  0  0  0  0  0  0  0  0  0  0
   38.7010   27.0020   35.9260 C   0  0  0  0  0  0  0  0  0  0  0  0
   37.7630   27.9100   35.5480 C   0  0  0  0  0  0  0  0  0  0  0  0
   37.0270   27.6720   34.3960 C   0  0  0  0  0  0  0  0  0  0  0  0
   37.6950   26.0570   33.7950 S   0  0  0  0  0  0  0  0  0  0  0  0
   39.2870   27.1700   36.8200 H   0  0  0  0  0  0  0  0  0  0  0  0
   37.4960   28.8350   36.0390 H   0  0  0  0  0  0  0  0  0  0  0  0
   36.0070   28.3420   33.7000 C   0  0  0  0  0  0  0  0  0  0  0  0
   35.7580   28.0820   32.5160 O   0  0  0  0  0  0  0  0  0  0  0  0
   35.2080   29.3630   34.3510 N   0  0  0  0  0  0  0  0  0  0  0  0
   34.9820   30.3560   34.2520 H   0  0  0  0  0  0  0  0  0  0  0  0
   34.7050   28.9750   35.1770 H   0  0  0  0  0  0  0  0  0  0  0  0
   42.7800   21.9270   35.9100 C   0  0  0  0  0  0  0  0  0  0  0  0
   44.0130   22.3190   35.4720 C   0  0  0  0  0  0  0  0  0  0  0  0
   45.0820   20.8150   35.8400 S   0  0  0  0  0  0  0  0  0  0  0  0
   43.5620   19.9420   36.5380 C   0  0  0  0  0  0  0  0  0  0  0  0
   42.7770   20.7230   36.3990 N   0  0  0  0  0  0  0  0  0  0  0  0
   44.5450   23.2500   34.9740 H   0  0  0  0  0  0  0  0  0  0  0  0
   43.7580   18.5520   37.0570 C   0  0  0  0  0  0  0  0  0  0  0  0
   42.7250   17.6600   37.1730 C   0  0  0  0  0  0  0  0  0  0  0  0
   43.0260   16.3930   37.6690 C   0  0  0  0  0  0  0  0  0  0  0  0
   42.2520   15.6470   37.7840 H   0  0  0  0  0  0  0  0  0  0  0  0
   44.3520   16.1340   38.0060 C   0  0  0  0  0  0  0  0  0  0  0  0
   45.3780   17.0540   37.8790 C   0  0  0  0  0  0  0  0  0  0  0  0
   46.3910   16.7790   38.1630 H   0  0  0  0  0  0  0  0  0  0  0  0
   45.0560   18.3210   37.3790 C   0  0  0  0  0  0  0  0  0  0  0  0
  1  6  1  0  0  0  0
  1  7  1  0  0  0  0
  2  1  2  0  0  0  0
  3  4  2  0  0  0  0
  3  2  1  0  0  0  0
  4  5  1  0  0  0  0
  5 21  1  0  0  0  0
  5  6  2  0  0  0  0
  8  3  1  0  0  0  0
  9  2  1  0  0  0  0
  9 10  2  0  0  0  0
 10 14  1  0  0  0  0
 11 10  1  0  0  0  0
 11 15  1  0  0  0  0
 12 11  2  0  0  0  0
 13 12  1  0  0  0  0
 13  9  1  0  0  0  0
 16 18  1  0  0  0  0
 16 12  1  0  0  0  0
 17 16  2  0  0  0  0
 18 20  1  0  0  0  0
 19 18  1  0  0  0  0
 21 25  1  0  0  0  0
 22 23  1  0  0  0  0
 22 21  2  0  0  0  0
 23 24  1  0  0  0  0
 24 27  1  0  0  0  0
 25 24  2  0  0  0  0
 26 22  1  0  0  0  0
 27 28  2  0  0  0  0
 27 34  1  0  0  0  0
 28 29  1  0  0  0  0
 29 30  1  0  0  0  0
 29 31  2  0  0  0  0
 32 31  1  0  0  0  0
 32 33  1  0  0  0  0
 34 32  2  0  0  0  0
M  END
>  <minimizedAffinity>
-4.56859207

>  <minimizedRMSD>
1.38789737

$$$$
