
 OpenBabel03262519413D

 40 43  0  0  1  0  0  0  0  0999 V2000
   38.3390   25.9560   34.4420 N   0  0  0  0  0  0  0  0  0  0  0  0
   37.7520   27.1920   33.9710 C   0  0  0  0  0  0  0  0  0  0  0  0
   38.2400   27.3580   32.5730 C   0  0  0  0  0  0  0  0  0  0  0  0
   39.0780   26.1150   32.3170 C   0  0  0  0  0  0  0  0  0  0  0  0
   38.3620   25.1240   33.2820 C   0  0  2  0  0  0  0  0  0  0  0  0
   36.6520   27.0120   33.9210 H   0  0  0  0  0  0  0  0  0  0  0  0
   37.8990   28.0480   34.6340 H   0  0  0  0  0  0  0  0  0  0  0  0
   38.8600   28.2680   32.4330 H   0  0  0  0  0  0  0  0  0  0  0  0
   37.4390   27.3310   31.8000 H   0  0  0  0  0  0  0  0  0  0  0  0
   40.1130   26.2340   32.6630 H   0  0  0  0  0  0  0  0  0  0  0  0
   38.9890   25.7530   31.2720 H   0  0  0  0  0  0  0  0  0  0  0  0
   39.0360   24.2550   33.3520 H   0  0  0  0  0  0  0  0  0  0  0  0
   37.5120   25.3120   35.4200 C   0  0  0  0  0  0  0  0  0  0  0  0
   36.7550   24.7040   34.9250 H   0  0  0  0  0  0  0  0  0  0  0  0
   36.9970   26.0960   36.0090 H   0  0  0  0  0  0  0  0  0  0  0  0
   38.7120   23.4140   38.4730 C   0  0  0  0  0  0  0  0  0  0  0  0
   37.9220   24.2370   37.6710 C   0  0  0  0  0  0  0  0  0  0  0  0
   38.3170   24.4410   36.3350 C   0  0  0  0  0  0  0  0  0  0  0  0
   39.4560   23.8170   35.9110 N   0  0  0  0  0  0  0  0  0  0  0  0
   40.1770   23.0310   36.7360 C   0  0  0  0  0  0  0  0  0  0  0  0
   39.7960   22.8410   38.0060 N   0  0  0  0  0  0  0  0  0  0  0  0
   38.3640   23.2900   39.4900 H   0  0  0  0  0  0  0  0  0  0  0  0
   37.0050   24.7570   37.9700 H   0  0  0  0  0  0  0  0  0  0  0  0
   41.0770   22.5280   36.4270 H   0  0  0  0  0  0  0  0  0  0  0  0
   37.1200   24.7920   32.8320 O   0  0  0  0  0  0  0  0  0  0  0  0
   37.0060   23.5720   32.2370 C   0  0  2  0  0  0  0  0  0  0  0  0
   36.0710   23.5420   31.0540 C   0  0  0  0  0  0  0  0  0  0  0  0
   35.7390   22.7860   32.3100 C   0  0  1  0  0  0  0  0  0  0  0  0
   37.8690   22.9110   32.3820 H   0  0  0  0  0  0  0  0  0  0  0  0
   35.4150   24.4080   30.8650 H   0  0  0  0  0  0  0  0  0  0  0  0
   36.4380   23.0050   30.1610 H   0  0  0  0  0  0  0  0  0  0  0  0
   34.9510   23.1310   32.9770 H   0  0  0  0  0  0  0  0  0  0  0  0
   35.7640   21.3160   32.1140 C   0  0  0  0  0  0  0  0  0  0  0  0
   35.3920   20.4770   33.1400 C   0  0  0  0  0  0  0  0  0  0  0  0
   35.4140   19.0890   32.9590 C   0  0  0  0  0  0  0  0  0  0  0  0
   35.1190   18.4240   33.7750 H   0  0  0  0  0  0  0  0  0  0  0  0
   35.8120   18.5750   31.7400 C   0  0  0  0  0  0  0  0  0  0  0  0
   36.1910   19.3780   30.6870 C   0  0  0  0  0  0  0  0  0  0  0  0
   36.5100   18.9870   29.7110 H   0  0  0  0  0  0  0  0  0  0  0  0
   36.1490   20.7230   30.9260 C   0  0  0  0  0  0  0  0  0  0  0  0
  1 13  1  0  0  0  0
  2  1  1  0  0  0  0
  2  7  1  0  0  0  0
  3  2  1  0  0  0  0
  4  3  1  0  0  0  0
  4 10  1  0  0  0  0
  4  5  1  0  0  0  0
  5 12  1  1  0  0  0
  5  1  1  0  0  0  0
  6  2  1  0  0  0  0
  8  3  1  0  0  0  0
  9  3  1  0  0  0  0
 11  4  1  0  0  0  0
 13 15  1  0  0  0  0
 13 18  1  0  0  0  0
 14 13  1  0  0  0  0
 16 22  1  0  0  0  0
 17 23  1  0  0  0  0
 17 16  2  0  0  0  0
 18 17  1  0  0  0  0
 19 18  2  0  0  0  0
 19 20  1  0  0  0  0
 20 21  2  0  0  0  0
 21 16  1  0  0  0  0
 24 20  1  0  0  0  0
 25  5  1  0  0  0  0
 26 28  1  0  0  0  0
 26 29  1  6  0  0  0
 26 25  1  0  0  0  0
 27 26  1  0  0  0  0
 27 28  1  0  0  0  0
 28 32  1  1  0  0  0
 30 27  1  0  0  0  0
 31 27  1  0  0  0  0
 33 28  1  0  0  0  0
 33 34  1  0  0  0  0
 35 34  2  0  0  0  0
 35 36  1  0  0  0  0
 37 35  1  0  0  0  0
 38 40  1  0  0  0  0
 38 37  2  0  0  0  0
 39 38  1  0  0  0  0
 40 33  2  0  0  0  0
M  END
>  <minimizedAffinity>
-5.43714762

>  <minimizedRMSD>
6.76942635

$$$$
