
 OpenBabel03262519573D

 31 34  0  0  1  0  0  0  0  0999 V2000
   38.1300   24.4280   34.6360 C   0  0  0  0  0  0  0  0  0  0  0  0
   38.1210   25.7500   34.2280 C   0  0  0  0  0  0  0  0  0  0  0  0
   37.7680   25.6860   32.9050 N   0  0  0  0  0  0  0  0  0  0  0  0
   37.5920   24.4130   32.5950 C   0  0  0  0  0  0  0  0  0  0  0  0
   37.8080   23.6030   33.6460 N   0  0  0  0  0  0  0  0  0  0  0  0
   38.3330   26.6600   34.7760 H   0  0  0  0  0  0  0  0  0  0  0  0
   37.3060   24.1380   31.5870 H   0  0  0  0  0  0  0  0  0  0  0  0
   38.4510   23.9740   35.9860 C   0  0  0  0  0  0  0  0  0  0  0  0
   39.6510   23.2780   36.2220 C   0  0  0  0  0  0  0  0  0  0  0  0
   39.9170   22.8600   37.5430 C   0  0  0  0  0  0  0  0  0  0  0  0
   39.0080   23.1530   38.4910 N   0  0  0  0  0  0  0  0  0  0  0  0
   37.8680   23.8210   38.2310 C   0  0  0  0  0  0  0  0  0  0  0  0
   37.5820   24.2350   36.9810 N   0  0  0  0  0  0  0  0  0  0  0  0
   40.3430   23.0760   35.4020 H   0  0  0  0  0  0  0  0  0  0  0  0
   40.8420   22.3260   37.7180 H   0  0  0  0  0  0  0  0  0  0  0  0
   37.1950   24.0110   39.0600 H   0  0  0  0  0  0  0  0  0  0  0  0
   37.6840   22.1670   33.5800 C   0  0  1  0  0  0  0  0  0  0  0  0
   36.6740   21.4290   34.3460 C   0  0  0  0  0  0  0  0  0  0  0  0
   36.4040   21.7240   32.8890 C   0  0  2  0  0  0  0  0  0  0  0  0
   38.5840   21.6580   33.2350 H   0  0  0  0  0  0  0  0  0  0  0  0
   36.0360   21.9650   35.0710 H   0  0  0  0  0  0  0  0  0  0  0  0
   36.9590   20.4090   34.6640 H   0  0  0  0  0  0  0  0  0  0  0  0
   35.6400   22.4670   32.6190 H   0  0  0  0  0  0  0  0  0  0  0  0
   36.4240   20.5210   32.0360 C   0  0  0  0  0  0  0  0  0  0  0  0
   36.0600   19.2670   32.4700 C   0  0  0  0  0  3  0  0  0  0  0  0
   36.0860   18.1580   31.6570 C   0  0  0  0  0  0  0  0  0  0  0  0
   35.7930   17.1610   32.0130 H   0  0  0  0  0  0  0  0  0  0  0  0
   36.4890   18.2580   30.3420 C   0  0  0  0  0  3  0  0  0  0  0  0
   36.8590   19.4850   29.8700 C   0  0  0  0  0  0  0  0  0  0  0  0
   37.1870   19.6110   28.8280 H   0  0  0  0  0  0  0  0  0  0  0  0
   36.8190   20.5720   30.7140 C   0  0  0  0  0  3  0  0  0  0  0  0
  1  8  1  0  0  0  0
  2  1  2  0  0  0  0
  2  6  1  0  0  0  0
  3  2  1  0  0  0  0
  4  3  2  0  0  0  0
  4  5  1  0  0  0  0
  5  1  1  0  0  0  0
  7  4  1  0  0  0  0
  8  9  2  0  0  0  0
  8 13  1  0  0  0  0
  9 10  1  0  0  0  0
 10 15  1  0  0  0  0
 10 11  2  0  0  0  0
 12 11  1  0  0  0  0
 12 16  1  0  0  0  0
 13 12  2  0  0  0  0
 14  9  1  0  0  0  0
 17 20  1  6  0  0  0
 17  5  1  0  0  0  0
 17 18  1  0  0  0  0
 18 22  1  0  0  0  0
 18 21  1  0  0  0  0
 19 23  1  6  0  0  0
 19 17  1  0  0  0  0
 19 18  1  0  0  0  0
 24 25  1  0  0  0  0
 24 19  1  0  0  0  0
 26 27  1  0  0  0  0
 26 25  2  0  0  0  0
 28 26  1  0  0  0  0
 29 28  2  0  0  0  0
 29 31  1  0  0  0  0
 30 29  1  0  0  0  0
 31 24  2  0  0  0  0
M  END
>  <minimizedAffinity>
-4.92702532

>  <minimizedRMSD>
1.80004799

$$$$
