
 OpenBabel03262519583D

 31 34  0  0  1  0  0  0  0  0999 V2000
   37.9400   25.8440   34.3240 C   0  0  0  0  0  0  0  0  0  0  0  0
   37.0610   26.5920   35.0880 C   0  0  0  0  0  0  0  0  0  0  0  0
   36.7880   27.6820   34.3040 N   0  0  0  0  0  0  0  0  0  0  0  0
   37.4700   27.5530   33.1790 C   0  0  0  0  0  0  0  0  0  0  0  0
   38.1960   26.4220   33.1560 N   0  0  0  0  0  0  0  0  0  0  0  0
   36.6510   26.4100   36.0730 H   0  0  0  0  0  0  0  0  0  0  0  0
   37.3970   28.3150   32.4120 H   0  0  0  0  0  0  0  0  0  0  0  0
   38.5250   24.5700   34.7340 C   0  0  0  0  0  0  0  0  0  0  0  0
   39.7020   24.5590   35.5070 C   0  0  0  0  0  0  0  0  0  0  0  0
   40.2290   23.3050   35.8790 C   0  0  0  0  0  0  0  0  0  0  0  0
   39.5750   22.2010   35.4720 N   0  0  0  0  0  0  0  0  0  0  0  0
   38.4500   22.2470   34.7320 C   0  0  0  0  0  0  0  0  0  0  0  0
   37.9190   23.4280   34.3590 N   0  0  0  0  0  0  0  0  0  0  0  0
   40.1790   25.4960   35.8000 H   0  0  0  0  0  0  0  0  0  0  0  0
   41.1330   23.3020   36.4730 H   0  0  0  0  0  0  0  0  0  0  0  0
   37.9930   21.3040   34.4510 H   0  0  0  0  0  0  0  0  0  0  0  0
   39.0310   26.0360   32.0440 C   0  0  1  0  0  0  0  0  0  0  0  0
   38.6470   24.9830   31.0990 C   0  0  0  0  0  0  0  0  0  0  0  0
   38.4300   26.4250   30.7020 C   0  0  2  0  0  0  0  0  0  0  0  0
   40.0820   26.3030   32.1640 H   0  0  0  0  0  0  0  0  0  0  0  0
   37.7320   24.3920   31.2810 H   0  0  0  0  0  0  0  0  0  0  0  0
   39.4790   24.4030   30.6590 H   0  0  0  0  0  0  0  0  0  0  0  0
   37.4080   26.8250   30.6540 H   0  0  0  0  0  0  0  0  0  0  0  0
   39.3210   26.8700   29.6150 C   0  0  0  0  0  0  0  0  0  0  0  0
   39.8750   26.0250   28.6800 C   0  0  0  0  0  3  0  0  0  0  0  0
   40.7030   26.4620   27.6740 C   0  0  0  0  0  0  0  0  0  0  0  0
   41.1400   25.7790   26.9330 H   0  0  0  0  0  0  0  0  0  0  0  0
   41.0220   27.7980   27.5540 C   0  0  0  0  0  3  0  0  0  0  0  0
   40.4930   28.6730   28.4620 C   0  0  0  0  0  0  0  0  0  0  0  0
   40.7200   29.7480   28.4040 H   0  0  0  0  0  0  0  0  0  0  0  0
   39.6680   28.1980   29.4550 C   0  0  0  0  0  3  0  0  0  0  0  0
  1  8  1  0  0  0  0
  1  2  2  0  0  0  0
  2  6  1  0  0  0  0
  3  2  1  0  0  0  0
  4  3  2  0  0  0  0
  5  4  1  0  0  0  0
  5  1  1  0  0  0  0
  7  4  1  0  0  0  0
  8  9  1  0  0  0  0
  9 14  1  0  0  0  0
  9 10  2  0  0  0  0
 10 15  1  0  0  0  0
 11 10  1  0  0  0  0
 12 11  2  0  0  0  0
 13 12  1  0  0  0  0
 13  8  2  0  0  0  0
 16 12  1  0  0  0  0
 17 20  1  1  0  0  0
 17  5  1  0  0  0  0
 18 21  1  0  0  0  0
 18 17  1  0  0  0  0
 19 23  1  6  0  0  0
 19 18  1  0  0  0  0
 19 17  1  0  0  0  0
 22 18  1  0  0  0  0
 24 19  1  0  0  0  0
 25 24  2  0  0  0  0
 26 25  1  0  0  0  0
 27 26  1  0  0  0  0
 28 26  2  0  0  0  0
 28 29  1  0  0  0  0
 29 31  2  0  0  0  0
 30 29  1  0  0  0  0
 31 24  1  0  0  0  0
M  END
>  <minimizedAffinity>
-3.47749496

>  <minimizedRMSD>
7.23371363

$$$$
