
 OpenBabel03262519423D

 25 26  0  0  1  0  0  0  0  0999 V2000
   38.1920   24.1700   36.7810 C   0  0  1  0  0  0  0  0  0  0  0  0
   37.3010   23.6600   36.3790 H   0  0  0  0  0  0  0  0  0  0  0  0
   41.1070   21.8510   37.5100 C   0  0  0  0  0  0  0  0  0  0  0  0
   39.9950   22.6990   37.7400 C   0  0  0  0  0  0  0  0  0  0  0  0
   39.3550   23.2570   36.6110 C   0  0  0  0  0  0  0  0  0  0  0  0
   39.8400   22.9520   35.3530 N   0  0  0  0  0  0  0  0  0  0  0  0
   40.8970   22.1430   35.1880 C   0  0  0  0  0  0  0  0  0  0  0  0
   41.5320   21.5910   36.2640 N   0  0  0  0  0  0  0  0  0  0  0  0
   41.5690   21.4360   38.4040 H   0  0  0  0  0  0  0  0  0  0  0  0
   39.6470   22.9070   38.7430 H   0  0  0  0  0  0  0  0  0  0  0  0
   41.1740   21.9810   34.1800 H   0  0  0  0  0  0  0  0  0  0  0  0
   37.9340   24.4520   38.2490 C   0  0  0  0  0  0  0  0  0  0  0  0
   38.9270   24.8090   38.6460 H   0  0  0  0  0  0  0  0  0  0  0  0
   37.5710   23.5770   38.8060 H   0  0  0  0  0  0  0  0  0  0  0  0
   37.2660   25.3270   38.3320 H   0  0  0  0  0  0  0  0  0  0  0  0
   38.3950   25.5100   36.0920 C   0  0  0  0  0  0  0  0  0  0  0  0
   38.3000   26.3180   36.8650 H   0  0  0  0  0  0  0  0  0  0  0  0
   39.3980   25.6140   35.6390 H   0  0  0  0  0  0  0  0  0  0  0  0
   37.3770   25.7610   35.0940 N   0  0  0  0  0  0  0  0  0  0  0  0
   37.6600   25.1730   33.8100 C   0  0  0  0  0  0  0  0  0  0  0  0
   38.8380   25.8600   33.1120 C   0  0  0  0  0  0  0  0  0  0  0  0
   38.3980   27.2770   32.8290 C   0  0  0  0  0  0  0  0  0  0  0  0
   38.2000   27.3470   31.7350 H   0  0  0  0  0  0  0  0  0  0  0  0
   37.1290   27.6590   33.5530 C   0  0  0  0  0  0  0  0  0  0  0  0
   37.1140   27.1700   34.9790 C   0  0  0  0  0  0  0  0  0  0  0  0
  1  2  1  6  0  0  0
  1 12  1  0  0  0  0
  3  4  1  0  0  0  0
  3  9  1  0  0  0  0
  4 10  1  0  0  0  0
  5  1  1  0  0  0  0
  5  4  2  0  0  0  0
  6  5  1  0  0  0  0
  7  6  2  0  0  0  0
  7  8  1  0  0  0  0
  8  3  2  0  0  0  0
 11  7  1  0  0  0  0
 12 15  1  0  0  0  0
 12 13  1  0  0  0  0
 12 14  1  0  0  0  0
 16  1  1  0  0  0  0
 16 17  1  0  0  0  0
 18 16  1  0  0  0  0
 19 16  1  0  0  0  0
 20 19  1  0  0  0  0
 21 20  1  0  0  0  0
 22 21  1  0  0  0  0
 22 24  1  0  0  0  0
 23 22  1  0  0  0  0
 24 25  1  0  0  0  0
 25 19  1  0  0  0  0
M  END
>  <minimizedAffinity>
-4.06454563

>  <minimizedRMSD>
1.65750575

$$$$
