
 OpenBabel03262518473D

 26 27  0  0  0  0  0  0  0  0999 V2000
   38.6280   23.8780   31.8070 C   0  0  0  0  0  0  0  0  0  0  0  0
   37.6260   23.2070   32.4660 C   0  0  0  0  0  0  0  0  0  0  0  0
   37.7340   23.1210   33.8450 C   0  0  0  0  0  0  0  0  0  0  0  0
   38.7610   23.6570   34.5570 C   0  0  0  0  0  0  0  0  0  0  0  0
   39.7470   24.3260   33.8360 C   0  0  0  0  0  0  0  0  0  0  0  0
   39.7080   24.4540   32.4510 C   0  0  0  0  0  0  0  0  0  0  0  0
   36.9810   22.6070   34.4220 H   0  0  0  0  0  0  0  0  0  0  0  0
   40.5890   24.7700   34.3850 H   0  0  0  0  0  0  0  0  0  0  0  0
   40.4810   24.9770   31.9030 H   0  0  0  0  0  0  0  0  0  0  0  0
   39.8820   22.8310   37.9580 C   0  0  0  0  0  0  0  0  0  0  0  0
   38.8650   23.4220   38.7480 C   0  0  0  0  0  0  0  0  0  0  0  0
   37.8270   24.0840   38.1010 C   0  0  0  0  0  0  0  0  0  0  0  0
   37.8410   24.1310   36.7410 N   0  0  0  0  0  0  0  0  0  0  0  0
   38.8430   23.5470   36.0120 C   0  0  0  0  0  0  0  0  0  0  0  0
   39.8410   22.9110   36.6070 N   0  0  0  0  0  0  0  0  0  0  0  0
   40.6660   22.3290   38.4860 H   0  0  0  0  0  0  0  0  0  0  0  0
   38.8870   23.3640   39.8260 H   0  0  0  0  0  0  0  0  0  0  0  0
   37.0240   24.5560   38.6190 H   0  0  0  0  0  0  0  0  0  0  0  0
   38.5210   24.0030   30.0820 S   0  0  0  0  0  0  0  0  0  0  0  0
   39.2040   25.2390   29.5490 O   0  0  0  0  0  0  0  0  0  0  0  0
   39.0850   22.7520   29.4970 O   0  0  0  0  0  0  0  0  0  0  0  0
   37.1850   24.1390   29.7530 H   0  0  0  0  0  0  0  0  0  0  0  0
   36.2220   22.4530   31.6730 S   0  0  0  0  0  0  0  0  0  0  0  0
   35.9270   20.8470   32.4320 C   0  0  0  0  0  0  0  0  0  0  0  0
   36.9800   19.8300   32.0210 C   0  0  0  0  0  0  0  0  0  0  0  0
   34.5760   20.2660   32.0370 C   0  0  0  0  0  0  0  0  0  0  0  0
  1  6  2  0  0  0  0
  1  2  1  0  0  0  0
  2  3  2  0  0  0  0
  3  7  1  0  0  0  0
  3  4  1  0  0  0  0
  4 14  1  0  0  0  0
  5  8  1  0  0  0  0
  5  4  2  0  0  0  0
  6  5  1  0  0  0  0
  9  6  1  0  0  0  0
 10 16  1  0  0  0  0
 10 11  1  0  0  0  0
 11 17  1  0  0  0  0
 12 18  1  0  0  0  0
 12 11  2  0  0  0  0
 13 12  1  0  0  0  0
 14 15  1  0  0  0  0
 14 13  2  0  0  0  0
 15 10  2  0  0  0  0
 19  1  1  0  0  0  0
 20 19  2  0  0  0  0
 21 19  2  0  0  0  0
 22 19  1  0  0  0  0
 23 24  1  0  0  0  0
 23  2  1  0  0  0  0
 25 24  1  0  0  0  0
 26 24  1  0  0  0  0
M  END
>  <minimizedAffinity>
-4.15222168

>  <minimizedRMSD>
2.41298556

$$$$
