
 OpenBabel03262519543D

 30 33  0  0  1  0  0  0  0  0999 V2000
   38.1200   23.8920   34.5500 C   0  0  0  0  0  0  0  0  0  0  0  0
   38.2680   25.1280   33.9200 C   0  0  0  0  0  0  0  0  0  0  0  0
   37.8440   24.8990   32.6460 N   0  0  0  0  0  0  0  0  0  0  0  0
   37.4800   23.6280   32.5510 C   0  0  0  0  0  0  0  0  0  0  0  0
   37.6400   22.9750   33.7170 N   0  0  0  0  0  0  0  0  0  0  0  0
   38.6410   26.0480   34.3720 H   0  0  0  0  0  0  0  0  0  0  0  0
   37.1180   23.3070   31.5770 H   0  0  0  0  0  0  0  0  0  0  0  0
   38.4470   23.6240   35.9430 C   0  0  0  0  0  0  0  0  0  0  0  0
   39.6620   23.0290   36.2850 C   0  0  0  0  0  0  0  0  0  0  0  0
   39.9330   22.7890   37.6430 C   0  0  0  0  0  0  0  0  0  0  0  0
   38.9990   23.1490   38.5440 N   0  0  0  0  0  0  0  0  0  0  0  0
   37.8300   23.7240   38.1920 C   0  0  0  0  0  0  0  0  0  0  0  0
   37.5440   23.9650   36.8990 N   0  0  0  0  0  0  0  0  0  0  0  0
   40.3870   22.7550   35.5150 H   0  0  0  0  0  0  0  0  0  0  0  0
   40.8660   22.3280   37.9520 H   0  0  0  0  0  0  0  0  0  0  0  0
   37.1580   23.9690   39.0120 H   0  0  0  0  0  0  0  0  0  0  0  0
   37.3240   21.5820   33.9030 C   0  0  1  0  0  0  0  0  0  0  0  0
   36.1480   21.1250   34.6480 C   0  0  0  0  0  0  0  0  0  0  0  0
   36.0850   21.1550   33.1450 C   0  0  2  0  0  0  0  0  0  0  0  0
   38.2060   20.9030   33.8410 H   0  0  0  0  0  0  0  0  0  0  0  0
   36.2210   20.1610   35.1920 H   0  0  0  0  0  0  0  0  0  0  0  0
   35.4910   21.8390   35.1990 H   0  0  0  0  0  0  0  0  0  0  0  0
   35.4130   21.9410   32.7110 H   0  0  0  0  0  0  0  0  0  0  0  0
   36.1470   19.9770   32.3820 N   0  0  0  0  0  0  0  0  0  0  0  0
   35.4980   18.8280   32.8630 C   0  0  0  0  0  2  0  0  0  0  0  0
   36.0000   17.5430   32.2960 C   0  0  0  0  0  2  0  0  0  0  0  0
   36.4270   17.6310   30.8600 C   0  0  0  0  0  3  0  0  0  0  0  0
   36.8940   16.6880   30.5620 H   0  0  0  0  0  0  0  0  0  0  0  0
   37.3370   18.8160   30.6800 C   0  0  0  0  0  2  0  0  0  0  0  0
   36.5040   20.0520   31.0360 C   0  0  0  0  0  2  0  0  0  0  0  0
  1  8  1  0  0  0  0
  2  6  1  0  0  0  0
  2  1  2  0  0  0  0
  3  2  1  0  0  0  0
  4  3  2  0  0  0  0
  4  5  1  0  0  0  0
  5 17  1  0  0  0  0
  5  1  1  0  0  0  0
  7  4  1  0  0  0  0
  8  9  2  0  0  0  0
  8 13  1  0  0  0  0
  9 10  1  0  0  0  0
 10 15  1  0  0  0  0
 10 11  2  0  0  0  0
 12 11  1  0  0  0  0
 12 16  1  0  0  0  0
 13 12  2  0  0  0  0
 14  9  1  0  0  0  0
 17 20  1  6  0  0  0
 17 18  1  0  0  0  0
 18 21  1  0  0  0  0
 18 22  1  0  0  0  0
 19 23  1  6  0  0  0
 19 17  1  0  0  0  0
 19 18  1  0  0  0  0
 24 25  1  0  0  0  0
 24 19  1  0  0  0  0
 26 25  1  0  0  0  0
 27 26  1  0  0  0  0
 28 27  1  0  0  0  0
 29 27  1  0  0  0  0
 29 30  1  0  0  0  0
 30 24  1  0  0  0  0
M  END
>  <minimizedAffinity>
-4.77576017

>  <minimizedRMSD>
0.904064775

$$$$
