
 OpenBabel03262517333D

 34 37  0  0  0  0  0  0  0  0999 V2000
   38.6390   21.6210   30.6940 N   0  0  0  0  0  0  0  0  0  0  0  0
   39.7240   21.9450   29.7920 C   0  0  0  0  0  0  0  0  0  0  0  0
   40.1480   20.6030   29.2360 C   0  0  0  0  0  0  0  0  0  0  0  0
   39.0970   20.1580   28.4640 O   0  0  0  0  0  0  0  0  0  0  0  0
   37.9500   19.8360   29.1730 C   0  0  0  0  0  0  0  0  0  0  0  0
   37.6680   20.6150   30.4020 C   0  0  0  0  0  0  0  0  0  0  0  0
   40.5260   22.4370   30.3680 H   0  0  0  0  0  0  0  0  0  0  0  0
   39.3450   22.5480   28.9420 H   0  0  0  0  0  0  0  0  0  0  0  0
   41.1140   20.6870   28.6860 H   0  0  0  0  0  0  0  0  0  0  0  0
   40.3460   19.9190   30.0810 H   0  0  0  0  0  0  0  0  0  0  0  0
   37.1880   19.0790   28.9800 H   0  0  0  0  0  0  0  0  0  0  0  0
   38.6080   22.8080   34.5600 C   0  0  0  0  0  0  0  0  0  0  0  0
   37.9360   23.6440   33.7610 C   0  0  0  0  0  0  0  0  0  0  0  0
   37.7850   23.5030   32.4890 C   0  0  0  0  0  0  0  0  0  0  0  0
   38.4470   22.2950   31.9790 C   0  0  0  0  0  0  0  0  0  0  0  0
   39.2260   21.4960   33.4640 S   0  0  0  0  0  0  0  0  0  0  0  0
   37.4050   24.5810   34.0600 H   0  0  0  0  0  0  0  0  0  0  0  0
   37.3700   23.9310   31.6350 H   0  0  0  0  0  0  0  0  0  0  0  0
   39.8780   22.8270   37.9410 C   0  0  0  0  0  0  0  0  0  0  0  0
   38.8870   23.5420   38.6540 C   0  0  0  0  0  0  0  0  0  0  0  0
   37.7860   24.0250   37.9910 C   0  0  0  0  0  0  0  0  0  0  0  0
   37.6920   23.7890   36.6400 N   0  0  0  0  0  0  0  0  0  0  0  0
   38.6750   23.0900   35.9800 C   0  0  0  0  0  0  0  0  0  0  0  0
   39.7480   22.6180   36.6190 N   0  0  0  0  0  0  0  0  0  0  0  0
   40.7370   22.4620   38.5120 H   0  0  0  0  0  0  0  0  0  0  0  0
   38.9320   23.7430   39.7170 H   0  0  0  0  0  0  0  0  0  0  0  0
   36.9710   24.5760   38.4060 H   0  0  0  0  0  0  0  0  0  0  0  0
   36.5010   20.2120   31.0890 N   0  0  0  0  0  0  0  0  0  0  0  0
   35.1500   20.8030   31.1410 C   0  0  0  0  0  0  0  0  0  0  0  0
   35.0550   21.5260   32.4810 C   0  0  0  0  0  0  0  0  0  0  0  0
   35.6680   20.6630   33.5730 C   0  0  0  0  0  0  0  0  0  0  0  0
   36.6310   21.0430   33.9160 H   0  0  0  0  0  0  0  0  0  0  0  0
   35.7120   19.2260   33.1280 C   0  0  0  0  0  0  0  0  0  0  0  0
   36.6210   19.0170   31.9320 C   0  0  0  0  0  0  0  0  0  0  0  0
  1 15  1  0  0  0  0
  2  7  1  0  0  0  0
  2  1  1  0  0  0  0
  3  2  1  0  0  0  0
  3 10  1  0  0  0  0
  4  5  1  0  0  0  0
  4  3  1  0  0  0  0
  5  6  2  0  0  0  0
  6  1  1  0  0  0  0
  6 28  1  0  0  0  0
  8  2  1  0  0  0  0
  9  3  1  0  0  0  0
 11  5  1  0  0  0  0
 12 23  1  0  0  0  0
 13 17  1  0  0  0  0
 13 12  2  0  0  0  0
 14 13  1  0  0  0  0
 15 14  2  0  0  0  0
 15 16  1  0  0  0  0
 16 12  1  0  0  0  0
 18 14  1  0  0  0  0
 19 25  1  0  0  0  0
 19 20  1  0  0  0  0
 20 26  1  0  0  0  0
 21 27  1  0  0  0  0
 21 20  2  0  0  0  0
 22 21  1  0  0  0  0
 23 24  1  0  0  0  0
 23 22  2  0  0  0  0
 24 19  2  0  0  0  0
 28 29  1  0  0  0  0
 28 34  1  0  0  0  0
 29 30  1  0  0  0  0
 30 31  1  0  0  0  0
 31 32  1  0  0  0  0
 33 31  1  0  0  0  0
 34 33  1  0  0  0  0
M  END
>  <minimizedAffinity>
-4.83813429

>  <minimizedRMSD>
1.66675723

$$$$
