
 OpenBabel03262519543D

 30 33  0  0  1  0  0  0  0  0999 V2000
   38.1210   23.8940   34.5500 C   0  0  0  0  0  0  0  0  0  0  0  0
   38.2690   25.1300   33.9210 C   0  0  0  0  0  0  0  0  0  0  0  0
   37.8450   24.9010   32.6470 N   0  0  0  0  0  0  0  0  0  0  0  0
   37.4810   23.6300   32.5510 C   0  0  0  0  0  0  0  0  0  0  0  0
   37.6410   22.9770   33.7170 N   0  0  0  0  0  0  0  0  0  0  0  0
   38.6400   26.0500   34.3730 H   0  0  0  0  0  0  0  0  0  0  0  0
   37.1200   23.3090   31.5770 H   0  0  0  0  0  0  0  0  0  0  0  0
   38.4470   23.6250   35.9430 C   0  0  0  0  0  0  0  0  0  0  0  0
   39.6610   23.0290   36.2860 C   0  0  0  0  0  0  0  0  0  0  0  0
   39.9320   22.7890   37.6440 C   0  0  0  0  0  0  0  0  0  0  0  0
   38.9980   23.1510   38.5440 N   0  0  0  0  0  0  0  0  0  0  0  0
   37.8300   23.7260   38.1920 C   0  0  0  0  0  0  0  0  0  0  0  0
   37.5440   23.9680   36.8990 N   0  0  0  0  0  0  0  0  0  0  0  0
   40.3860   22.7550   35.5160 H   0  0  0  0  0  0  0  0  0  0  0  0
   40.8650   22.3270   37.9530 H   0  0  0  0  0  0  0  0  0  0  0  0
   37.1580   23.9720   39.0120 H   0  0  0  0  0  0  0  0  0  0  0  0
   37.3260   21.5840   33.9020 C   0  0  1  0  0  0  0  0  0  0  0  0
   36.1500   21.1260   34.6480 C   0  0  0  0  0  0  0  0  0  0  0  0
   36.0860   21.1570   33.1450 C   0  0  2  0  0  0  0  0  0  0  0  0
   38.2070   20.9040   33.8390 H   0  0  0  0  0  0  0  0  0  0  0  0
   36.2240   20.1620   35.1910 H   0  0  0  0  0  0  0  0  0  0  0  0
   35.4930   21.8400   35.2010 H   0  0  0  0  0  0  0  0  0  0  0  0
   35.4130   21.9430   32.7120 H   0  0  0  0  0  0  0  0  0  0  0  0
   36.1470   19.9790   32.3810 N   0  0  0  0  0  0  0  0  0  0  0  0
   35.4990   18.8300   32.8640 C   0  0  0  0  0  2  0  0  0  0  0  0
   36.0000   17.5450   32.2970 C   0  0  0  0  0  2  0  0  0  0  0  0
   36.4260   17.6320   30.8600 C   0  0  0  0  0  3  0  0  0  0  0  0
   36.8930   16.6880   30.5640 H   0  0  0  0  0  0  0  0  0  0  0  0
   37.3370   18.8170   30.6800 C   0  0  0  0  0  2  0  0  0  0  0  0
   36.5040   20.0530   31.0360 C   0  0  0  0  0  2  0  0  0  0  0  0
  1  8  1  0  0  0  0
  2  6  1  0  0  0  0
  2  1  2  0  0  0  0
  3  2  1  0  0  0  0
  4  3  2  0  0  0  0
  4  5  1  0  0  0  0
  5 17  1  0  0  0  0
  5  1  1  0  0  0  0
  7  4  1  0  0  0  0
  8  9  2  0  0  0  0
  8 13  1  0  0  0  0
  9 10  1  0  0  0  0
 10 15  1  0  0  0  0
 10 11  2  0  0  0  0
 12 11  1  0  0  0  0
 12 16  1  0  0  0  0
 13 12  2  0  0  0  0
 14  9  1  0  0  0  0
 17 20  1  6  0  0  0
 17 18  1  0  0  0  0
 18 21  1  0  0  0  0
 18 22  1  0  0  0  0
 19 23  1  6  0  0  0
 19 17  1  0  0  0  0
 19 18  1  0  0  0  0
 24 25  1  0  0  0  0
 24 19  1  0  0  0  0
 26 25  1  0  0  0  0
 27 26  1  0  0  0  0
 28 27  1  0  0  0  0
 29 27  1  0  0  0  0
 29 30  1  0  0  0  0
 30 24  1  0  0  0  0
M  END
>  <minimizedAffinity>
-4.77582979

>  <minimizedRMSD>
1.36696732

$$$$
