
 OpenBabel03262519103D

 25 27  0  0  0  0  0  0  0  0999 V2000
   37.8740   25.3990   34.8570 C   0  0  0  0  0  0  0  0  0  0  0  0
   37.4920   26.7290   34.9960 C   0  0  0  0  0  0  0  0  0  0  0  0
   36.9340   27.3560   33.9330 C   0  0  0  0  0  0  0  0  0  0  0  0
   36.7760   26.6130   32.7450 C   0  0  0  0  0  0  0  0  0  0  0  0
   37.4610   24.9430   33.1800 S   0  0  0  0  0  0  0  0  0  0  0  0
   37.6360   27.2420   35.9250 H   0  0  0  0  0  0  0  0  0  0  0  0
   36.5830   28.3730   33.8670 H   0  0  0  0  0  0  0  0  0  0  0  0
   37.9000   24.3200   37.1200 C   0  0  0  0  0  0  0  0  0  0  0  0
   38.4780   24.5530   35.8440 C   0  0  0  0  0  0  0  0  0  0  0  0
   39.6670   23.9540   35.5260 C   0  0  0  0  0  0  0  0  0  0  0  0
   40.2310   23.1520   36.4740 N   0  0  0  0  0  0  0  0  0  0  0  0
   39.6780   22.9340   37.6830 C   0  0  0  0  0  0  0  0  0  0  0  0
   38.5280   23.5160   37.9880 N   0  0  0  0  0  0  0  0  0  0  0  0
   36.9620   24.8350   37.2840 H   0  0  0  0  0  0  0  0  0  0  0  0
   40.1340   24.1090   34.5660 H   0  0  0  0  0  0  0  0  0  0  0  0
   40.2180   22.2780   38.3540 H   0  0  0  0  0  0  0  0  0  0  0  0
   36.2560   26.9000   31.4750 C   0  0  0  0  0  0  0  0  0  0  0  0
   35.5490   26.0400   30.8890 O   0  0  0  0  0  0  0  0  0  0  0  0
   36.5310   28.1910   30.8260 C   0  0  0  0  0  0  0  0  0  0  0  0
   36.0090   29.3890   31.3190 C   0  0  0  0  0  0  0  0  0  0  0  0
   36.3000   30.5750   30.6690 C   0  0  0  0  0  0  0  0  0  0  0  0
   37.0910   30.5980   29.5490 C   0  0  0  0  0  0  0  0  0  0  0  0
   37.3860   31.4580   28.9590 H   0  0  0  0  0  0  0  0  0  0  0  0
   37.5860   29.3910   29.0950 C   0  0  0  0  0  0  0  0  0  0  0  0
   37.2910   28.2550   29.7420 N   0  0  0  0  0  0  0  0  0  0  0  0
  1  2  2  0  0  0  0
  1  9  1  0  0  0  0
  2  6  1  0  0  0  0
  3  2  1  0  0  0  0
  4  5  1  0  0  0  0
  4  3  2  0  0  0  0
  5  1  1  0  0  0  0
  7  3  1  0  0  0  0
  8 14  1  0  0  0  0
  8 13  1  0  0  0  0
  9  8  2  0  0  0  0
 10  9  1  0  0  0  0
 10 11  2  0  0  0  0
 11 12  1  0  0  0  0
 12 13  2  0  0  0  0
 12 16  1  0  0  0  0
 15 10  1  0  0  0  0
 17  4  1  0  0  0  0
 18 17  2  0  0  0  0
 19 20  1  0  0  0  0
 19 17  1  0  0  0  0
 21 20  2  0  0  0  0
 22 21  1  0  0  0  0
 23 22  1  0  0  0  0
 24 22  2  0  0  0  0
 24 25  1  0  0  0  0
 25 19  2  0  0  0  0
M  END
>  <minimizedAffinity>
-4.89302254

>  <minimizedRMSD>
1.06713235

$$$$
