
 OpenBabel03262519283D

 31 34  0  0  0  0  0  0  0  0999 V2000
   40.6170   21.9390   37.3630 O   0  0  0  0  0  0  0  0  0  0  0  0
   41.8850   22.0480   36.8560 C   0  0  0  0  0  0  0  0  0  0  0  0
   42.4590   23.1890   36.3090 C   0  0  0  0  0  0  0  0  0  0  0  0
   43.7170   22.9460   35.9090 N   0  0  0  0  0  0  0  0  0  0  0  0
   44.0210   21.6540   36.1710 C   0  0  0  0  0  0  0  0  0  0  0  0
   45.1630   20.8890   35.9680 C   0  0  0  0  0  0  0  0  0  0  0  0
   45.1870   19.5590   36.3470 C   0  0  0  0  0  0  0  0  0  0  0  0
   44.0570   19.0090   36.9300 C   0  0  0  0  0  0  0  0  0  0  0  0
   42.9240   19.7770   37.1300 C   0  0  0  0  0  0  0  0  0  0  0  0
   42.8990   21.1070   36.7510 C   0  0  0  0  0  0  0  0  0  0  0  0
   42.0030   24.1730   36.1930 H   0  0  0  0  0  0  0  0  0  0  0  0
   44.3990   23.6030   35.4620 H   0  0  0  0  0  0  0  0  0  0  0  0
   46.0360   21.3540   35.5050 H   0  0  0  0  0  0  0  0  0  0  0  0
   46.0960   19.0050   36.1690 H   0  0  0  0  0  0  0  0  0  0  0  0
   44.0900   17.9680   37.2220 H   0  0  0  0  0  0  0  0  0  0  0  0
   42.0470   19.3270   37.5900 H   0  0  0  0  0  0  0  0  0  0  0  0
   39.6550   22.8930   37.3500 C   0  0  0  0  0  0  0  0  0  0  0  0
   39.0310   23.2010   38.5720 C   0  0  0  0  0  0  0  0  0  0  0  0
   38.0320   24.1930   38.5490 C   0  0  0  0  0  0  0  0  0  0  0  0
   37.7210   24.7990   37.3650 N   0  0  0  0  0  0  0  0  0  0  0  0
   38.3560   24.4590   36.2260 C   0  0  0  0  0  0  0  0  0  0  0  0
   39.3090   23.5220   36.2090 N   0  0  0  0  0  0  0  0  0  0  0  0
   39.3170   22.6880   39.4830 H   0  0  0  0  0  0  0  0  0  0  0  0
   37.5530   24.4290   39.4900 H   0  0  0  0  0  0  0  0  0  0  0  0
   37.9610   25.1470   35.0440 N   0  0  0  0  0  0  0  0  0  0  0  0
   38.3520   24.6180   33.7490 C   0  0  0  0  0  0  0  0  0  0  0  0
   38.4840   25.8000   32.7800 C   0  0  0  0  0  0  0  0  0  0  0  0
   39.0580   26.9860   33.5430 C   0  0  0  0  0  0  0  0  0  0  0  0
   40.0580   26.7350   33.9570 H   0  0  0  0  0  0  0  0  0  0  0  0
   38.1050   27.4630   34.5870 C   0  0  0  0  0  0  0  0  0  0  0  0
   37.1740   26.3680   35.0670 C   0  0  0  0  0  0  0  0  0  0  0  0
  2  1  1  0  0  0  0
  3  2  2  0  0  0  0
  4  5  1  0  0  0  0
  4  3  1  0  0  0  0
  5 10  1  0  0  0  0
  6  5  2  0  0  0  0
  6  7  1  0  0  0  0
  7  8  2  0  0  0  0
  8  9  1  0  0  0  0
  8 15  1  0  0  0  0
  9 16  1  0  0  0  0
 10  2  1  0  0  0  0
 10  9  2  0  0  0  0
 11  3  1  0  0  0  0
 12  4  1  0  0  0  0
 13  6  1  0  0  0  0
 14  7  1  0  0  0  0
 17  1  1  0  0  0  0
 17 18  1  0  0  0  0
 18 23  1  0  0  0  0
 19 18  2  0  0  0  0
 19 24  1  0  0  0  0
 20 19  1  0  0  0  0
 21 20  2  0  0  0  0
 22 21  1  0  0  0  0
 22 17  2  0  0  0  0
 25 31  1  0  0  0  0
 25 21  1  0  0  0  0
 26 25  1  0  0  0  0
 27 28  1  0  0  0  0
 27 26  1  0  0  0  0
 28 29  1  0  0  0  0
 28 30  1  0  0  0  0
 30 31  1  0  0  0  0
M  END
>  <minimizedAffinity>
-5.54129601

>  <minimizedRMSD>
1.22825468

$$$$
