
 OpenBabel03262516503D

 31 33  0  0  1  0  0  0  0  0999 V2000
   36.4940   21.3630   35.0690 C   0  0  0  0  0  0  0  0  0  0  0  0
   35.5470   20.7770   35.6510 O   0  0  0  0  0  0  0  0  0  0  0  0
   36.4880   21.2980   33.6620 N   0  0  0  0  0  0  0  0  0  0  0  0
   35.9100   20.1100   33.0620 C   0  0  0  0  0  0  0  0  0  0  0  0
   35.6590   20.2810   31.5870 C   0  0  0  0  0  0  0  0  0  0  0  0
   35.2860   21.5290   31.1800 O   0  0  0  0  0  0  0  0  0  0  0  0
   35.7940   22.6080   31.8370 C   0  0  0  0  0  0  0  0  0  0  0  0
   36.9760   22.2470   32.7010 C   0  0  2  0  0  0  0  0  0  0  0  0
   34.8960   19.9640   33.5350 H   0  0  0  0  0  0  0  0  0  0  0  0
   36.4950   19.1950   33.2220 H   0  0  0  0  0  0  0  0  0  0  0  0
   36.5610   19.9190   31.0190 H   0  0  0  0  0  0  0  0  0  0  0  0
   34.8430   19.5700   31.3140 H   0  0  0  0  0  0  0  0  0  0  0  0
   36.1180   23.4180   31.1530 H   0  0  0  0  0  0  0  0  0  0  0  0
   34.9720   22.9960   32.5060 H   0  0  0  0  0  0  0  0  0  0  0  0
   37.3360   23.1570   33.2360 H   0  0  0  0  0  0  0  0  0  0  0  0
   39.6360   22.5540   36.5430 C   0  0  0  0  0  0  0  0  0  0  0  0
   39.1860   23.2980   37.6400 C   0  0  0  0  0  0  0  0  0  0  0  0
   37.8170   23.3890   37.8710 C   0  0  0  0  0  0  0  0  0  0  0  0
   37.0090   22.7350   36.9950 N   0  0  0  0  0  0  0  0  0  0  0  0
   37.4540   22.0230   35.9430 C   0  0  0  0  0  0  0  0  0  0  0  0
   38.7780   21.9460   35.7360 N   0  0  0  0  0  0  0  0  0  0  0  0
   40.6980   22.4860   36.3680 H   0  0  0  0  0  0  0  0  0  0  0  0
   39.8420   23.8090   38.3240 H   0  0  0  0  0  0  0  0  0  0  0  0
   37.3590   23.9400   38.6930 H   0  0  0  0  0  0  0  0  0  0  0  0
   38.0090   21.7710   31.8420 N   0  0  0  0  0  0  0  0  0  0  0  0
   37.5650   21.1610   30.6210 C   0  0  0  0  0  0  0  0  0  0  0  0
   38.7960   20.9810   29.7530 C   0  0  0  0  0  0  0  0  0  0  0  0
   39.8980   20.2300   30.4540 C   0  0  0  0  0  0  0  0  0  0  0  0
   40.2840   19.3830   29.8690 H   0  0  0  0  0  0  0  0  0  0  0  0
   39.3340   19.7090   31.7560 C   0  0  0  0  0  0  0  0  0  0  0  0
   38.7880   20.8060   32.6200 C   0  0  0  0  0  0  0  0  0  0  0  0
  1  2  2  0  0  0  0
  1 20  1  0  0  0  0
  3  1  1  0  0  0  0
  4 10  1  0  0  0  0
  4  9  1  0  0  0  0
  4  3  1  0  0  0  0
  5  4  1  0  0  0  0
  6  5  1  0  0  0  0
  6  7  1  0  0  0  0
  7 14  1  0  0  0  0
  7  8  1  0  0  0  0
  8 15  1  1  0  0  0
  8  3  1  0  0  0  0
 11  5  1  0  0  0  0
 12  5  1  0  0  0  0
 13  7  1  0  0  0  0
 16 17  1  0  0  0  0
 17 18  2  0  0  0  0
 17 23  1  0  0  0  0
 18 24  1  0  0  0  0
 19 18  1  0  0  0  0
 20 19  2  0  0  0  0
 21 20  1  0  0  0  0
 21 16  2  0  0  0  0
 22 16  1  0  0  0  0
 25 31  1  0  0  0  0
 25  8  1  0  0  0  0
 26 25  1  0  0  0  0
 27 28  1  0  0  0  0
 27 26  1  0  0  0  0
 28 30  1  0  0  0  0
 29 28  1  0  0  0  0
 30 31  1  0  0  0  0
M  END
>  <minimizedAffinity>
-4.56952333

>  <minimizedRMSD>
1.46415889

$$$$
