
 OpenBabel03262519333D

 19 20  0  0  0  0  0  0  0  0999 V2000
   38.4440   23.3180   35.8630 C   0  0  0  0  0  0  0  0  0  0  0  0
   37.8520   23.1850   36.7900 H   0  0  0  0  0  0  0  0  0  0  0  0
   37.9210   22.8320   35.0230 H   0  0  0  0  0  0  0  0  0  0  0  0
   41.4480   21.6380   37.4390 C   0  0  0  0  0  0  0  0  0  0  0  0
   40.2180   22.2900   37.3430 C   0  0  0  0  0  0  0  0  0  0  0  0
   39.7440   22.6220   36.0580 C   0  0  0  0  0  0  0  0  0  0  0  0
   40.5260   22.2800   34.9920 N   0  0  0  0  0  0  0  0  0  0  0  0
   41.7080   21.6500   35.1290 C   0  0  0  0  0  0  0  0  0  0  0  0
   42.1550   21.3360   36.3530 N   0  0  0  0  0  0  0  0  0  0  0  0
   41.7870   21.3950   38.4590 H   0  0  0  0  0  0  0  0  0  0  0  0
   39.6290   22.5440   38.2160 H   0  0  0  0  0  0  0  0  0  0  0  0
   42.2270   21.4370   34.2020 H   0  0  0  0  0  0  0  0  0  0  0  0
   38.6810   24.7150   35.5560 N   0  0  0  0  0  0  0  0  0  0  0  0
   38.2830   25.0740   34.2240 C   0  0  0  0  0  0  0  0  0  0  0  0
   38.9640   26.3510   33.8020 C   0  0  0  0  0  0  0  0  0  0  0  0
   39.5710   27.0140   35.0240 C   0  0  0  0  0  0  0  0  0  0  0  0
   39.8300   28.0520   34.8230 H   0  0  0  0  0  0  0  0  0  0  0  0
   38.4640   27.0220   36.0780 C   0  0  0  0  0  0  0  0  0  0  0  0
   38.1360   25.6010   36.5350 C   0  0  0  0  0  0  0  0  0  0  0  0
  1  6  1  0  0  0  0
  1  2  1  0  0  0  0
  3  1  1  0  0  0  0
  4 10  1  0  0  0  0
  5  4  1  0  0  0  0
  5 11  1  0  0  0  0
  6  5  2  0  0  0  0
  7  8  2  0  0  0  0
  7  6  1  0  0  0  0
  8  9  1  0  0  0  0
  9  4  2  0  0  0  0
 12  8  1  0  0  0  0
 13  1  1  0  0  0  0
 13 19  1  0  0  0  0
 14 13  1  0  0  0  0
 15 14  1  0  0  0  0
 15 16  1  0  0  0  0
 16 18  1  0  0  0  0
 17 16  1  0  0  0  0
 18 19  1  0  0  0  0
M  END
>  <minimizedAffinity>
-3.63226438

>  <minimizedRMSD>
2.702528

$$$$
