
 OpenBabel03262515243D

 42 46  0  0  0  0  0  0  0  0999 V2000
   36.8970   21.8810   35.7150 C   0  0  0  0  0  0  0  0  0  0  0  0
   35.8660   21.0710   35.5540 C   0  0  0  0  0  0  0  0  0  0  0  0
   35.6410   20.4150   34.3850 C   0  0  0  0  0  0  0  0  0  0  0  0
   36.5700   20.6650   33.3920 C   0  0  0  0  0  0  0  0  0  0  0  0
   37.7790   21.8510   34.1390 S   0  0  0  0  0  0  0  0  0  0  0  0
   35.1860   20.9490   36.4190 H   0  0  0  0  0  0  0  0  0  0  0  0
   34.8300   19.7370   34.1640 H   0  0  0  0  0  0  0  0  0  0  0  0
   36.6190   20.1170   32.0000 C   0  0  0  0  0  0  0  0  0  0  0  0
   35.5260   19.5140   31.3780 C   0  0  0  0  0  0  0  0  0  0  0  0
   36.0190   19.1900   30.1740 N   0  0  0  0  0  0  0  0  0  0  0  0
   37.2930   19.5430   30.0260 C   0  0  0  0  0  0  0  0  0  0  0  0
   38.1390   19.3700   28.9130 C   0  0  0  0  0  0  0  0  0  0  0  0
   39.4460   19.8390   29.0280 C   0  0  0  0  0  0  0  0  0  0  0  0
   39.8550   20.4390   30.1930 C   0  0  0  0  0  0  0  0  0  0  0  0
   38.9860   20.5860   31.2590 C   0  0  0  0  0  0  0  0  0  0  0  0
   37.7060   20.1510   31.2060 C   0  0  0  0  0  0  0  0  0  0  0  0
   34.5640   19.3910   31.8480 H   0  0  0  0  0  0  0  0  0  0  0  0
   35.4200   18.7030   29.4430 H   0  0  0  0  0  0  0  0  0  0  0  0
   37.8000   18.9020   28.0180 H   0  0  0  0  0  0  0  0  0  0  0  0
   40.0970   19.7100   28.1800 H   0  0  0  0  0  0  0  0  0  0  0  0
   40.8690   20.7810   30.2290 H   0  0  0  0  0  0  0  0  0  0  0  0
   39.2890   21.0540   32.1810 H   0  0  0  0  0  0  0  0  0  0  0  0
   37.3550   22.6490   36.7540 O   0  0  0  0  0  0  0  0  0  0  0  0
   38.3620   23.5840   36.6550 C   0  0  0  0  0  0  0  0  0  0  0  0
   39.3950   23.1810   37.2100 O   0  0  0  0  0  0  0  0  0  0  0  0
   38.2790   27.1570   36.2380 C   0  0  0  0  0  0  0  0  0  0  0  0
   37.9800   27.3640   34.8690 C   0  0  0  0  0  0  0  0  0  0  0  0
   37.8050   26.1900   34.0810 C   0  0  0  0  0  0  0  0  0  0  0  0
   37.9310   24.9790   34.6760 N   0  0  0  0  0  0  0  0  0  0  0  0
   38.2190   24.8540   35.9920 C   0  0  0  0  0  0  0  0  0  0  0  0
   38.3930   25.9570   36.7760 N   0  0  0  0  0  0  0  0  0  0  0  0
   38.4000   28.1000   36.7780 H   0  0  0  0  0  0  0  0  0  0  0  0
   37.8840   28.3480   34.4210 H   0  0  0  0  0  0  0  0  0  0  0  0
   37.5110   26.3370   32.6850 C   0  0  0  0  0  0  0  0  0  0  0  0
   36.6490   27.2120   32.3120 O   0  0  0  0  0  0  0  0  0  0  0  0
   38.0890   25.5950   31.5680 C   0  0  0  0  0  0  0  0  0  0  0  0
   37.5580   24.4250   31.1370 C   0  0  0  0  0  0  0  0  0  0  0  0
   38.0850   23.7320   30.0530 C   0  0  0  0  0  0  0  0  0  0  0  0
   39.1790   24.2300   29.3810 C   0  0  0  0  0  0  0  0  0  0  0  0
   39.6950   23.8090   28.5280 H   0  0  0  0  0  0  0  0  0  0  0  0
   39.6930   25.4400   29.8590 C   0  0  0  0  0  0  0  0  0  0  0  0
   39.1610   26.1050   30.9260 N   0  0  0  0  0  0  0  0  0  0  0  0
  1 23  1  0  0  0  0
  2  1  2  0  0  0  0
  2  6  1  0  0  0  0
  3  2  1  0  0  0  0
  4  5  1  0  0  0  0
  4  3  2  0  0  0  0
  5  1  1  0  0  0  0
  7  3  1  0  0  0  0
  8  4  1  0  0  0  0
  9 17  1  0  0  0  0
  9  8  2  0  0  0  0
 10  9  1  0  0  0  0
 11 10  1  0  0  0  0
 11 16  1  0  0  0  0
 12 13  1  0  0  0  0
 12 11  2  0  0  0  0
 13 14  2  0  0  0  0
 14 21  1  0  0  0  0
 14 15  1  0  0  0  0
 15 22  1  0  0  0  0
 16 15  2  0  0  0  0
 16  8  1  0  0  0  0
 18 10  1  0  0  0  0
 19 12  1  0  0  0  0
 20 13  1  0  0  0  0
 24 23  1  0  0  0  0
 24 25  2  0  0  0  0
 26 31  1  0  0  0  0
 26 32  1  0  0  0  0
 27 26  2  0  0  0  0
 28 29  2  0  0  0  0
 28 27  1  0  0  0  0
 29 30  1  0  0  0  0
 30 24  1  0  0  0  0
 30 31  2  0  0  0  0
 33 27  1  0  0  0  0
 34 28  1  0  0  0  0
 35 34  2  0  0  0  0
 36 34  1  0  0  0  0
 37 36  1  0  0  0  0
 38 37  2  0  0  0  0
 39 41  2  0  0  0  0
 39 38  1  0  0  0  0
 40 39  1  0  0  0  0
 41 42  1  0  0  0  0
 42 36  2  0  0  0  0
M  END
>  <minimizedAffinity>
-5.58312702

>  <minimizedRMSD>
0.766957462

$$$$
