
 OpenBabel03262519543D

 30 33  0  0  1  0  0  0  0  0999 V2000
   38.1230   23.8920   34.5470 C   0  0  0  0  0  0  0  0  0  0  0  0
   38.2730   25.1270   33.9160 C   0  0  0  0  0  0  0  0  0  0  0  0
   37.8500   24.8970   32.6420 N   0  0  0  0  0  0  0  0  0  0  0  0
   37.4850   23.6260   32.5470 C   0  0  0  0  0  0  0  0  0  0  0  0
   37.6430   22.9740   33.7140 N   0  0  0  0  0  0  0  0  0  0  0  0
   38.6460   26.0470   34.3680 H   0  0  0  0  0  0  0  0  0  0  0  0
   37.1240   23.3050   31.5730 H   0  0  0  0  0  0  0  0  0  0  0  0
   38.4480   23.6240   35.9400 C   0  0  0  0  0  0  0  0  0  0  0  0
   39.6600   23.0250   36.2840 C   0  0  0  0  0  0  0  0  0  0  0  0
   39.9300   22.7860   37.6430 C   0  0  0  0  0  0  0  0  0  0  0  0
   38.9960   23.1510   38.5420 N   0  0  0  0  0  0  0  0  0  0  0  0
   37.8290   23.7290   38.1890 C   0  0  0  0  0  0  0  0  0  0  0  0
   37.5450   23.9690   36.8950 N   0  0  0  0  0  0  0  0  0  0  0  0
   40.3850   22.7490   35.5150 H   0  0  0  0  0  0  0  0  0  0  0  0
   40.8610   22.3230   37.9530 H   0  0  0  0  0  0  0  0  0  0  0  0
   37.1580   23.9770   39.0080 H   0  0  0  0  0  0  0  0  0  0  0  0
   37.3260   21.5820   33.9000 C   0  0  1  0  0  0  0  0  0  0  0  0
   36.1480   21.1270   34.6450 C   0  0  0  0  0  0  0  0  0  0  0  0
   36.0860   21.1550   33.1420 C   0  0  2  0  0  0  0  0  0  0  0  0
   38.2070   20.9010   33.8400 H   0  0  0  0  0  0  0  0  0  0  0  0
   36.2210   20.1630   35.1900 H   0  0  0  0  0  0  0  0  0  0  0  0
   35.4910   21.8420   35.1960 H   0  0  0  0  0  0  0  0  0  0  0  0
   35.4150   21.9420   32.7070 H   0  0  0  0  0  0  0  0  0  0  0  0
   36.1470   19.9770   32.3800 N   0  0  0  0  0  0  0  0  0  0  0  0
   35.4990   18.8270   32.8630 C   0  0  0  0  0  2  0  0  0  0  0  0
   36.0000   17.5420   32.2960 C   0  0  0  0  0  2  0  0  0  0  0  0
   36.4270   17.6290   30.8590 C   0  0  0  0  0  3  0  0  0  0  0  0
   36.8930   16.6860   30.5620 H   0  0  0  0  0  0  0  0  0  0  0  0
   37.3360   18.8150   30.6780 C   0  0  0  0  0  2  0  0  0  0  0  0
   36.5030   20.0510   31.0330 C   0  0  0  0  0  2  0  0  0  0  0  0
  1  8  1  0  0  0  0
  2  6  1  0  0  0  0
  2  1  2  0  0  0  0
  3  2  1  0  0  0  0
  4  3  2  0  0  0  0
  4  5  1  0  0  0  0
  5 17  1  0  0  0  0
  5  1  1  0  0  0  0
  7  4  1  0  0  0  0
  8  9  2  0  0  0  0
  8 13  1  0  0  0  0
  9 10  1  0  0  0  0
 10 15  1  0  0  0  0
 10 11  2  0  0  0  0
 12 11  1  0  0  0  0
 12 16  1  0  0  0  0
 13 12  2  0  0  0  0
 14  9  1  0  0  0  0
 17 20  1  6  0  0  0
 17 18  1  0  0  0  0
 18 21  1  0  0  0  0
 18 22  1  0  0  0  0
 19 23  1  6  0  0  0
 19 17  1  0  0  0  0
 19 18  1  0  0  0  0
 24 25  1  0  0  0  0
 24 19  1  0  0  0  0
 26 25  1  0  0  0  0
 27 26  1  0  0  0  0
 28 27  1  0  0  0  0
 29 27  1  0  0  0  0
 29 30  1  0  0  0  0
 30 24  1  0  0  0  0
M  END
>  <minimizedAffinity>
-4.7736783

>  <minimizedRMSD>
0.883047283

$$$$
