
 OpenBabel03262518293D

 34 37  0  0  0  0  0  0  0  0999 V2000
   37.6580   24.6320   36.5050 O   0  0  0  0  0  0  0  0  0  0  0  0
   39.8440   22.4980   38.2580 N   0  0  0  0  0  0  0  0  0  0  0  0
   38.7340   23.2290   38.1270 N   0  0  0  0  0  0  0  0  0  0  0  0
   38.7250   23.8060   36.8980 C   0  0  0  0  0  0  0  0  0  0  0  0
   39.8680   23.4280   36.2330 C   0  0  0  0  0  0  0  0  0  0  0  0
   40.5380   22.6160   37.1090 C   0  0  0  0  0  0  0  0  0  0  0  0
   40.0970   21.9420   39.1250 H   0  0  0  0  0  0  0  0  0  0  0  0
   40.1020   23.7520   35.2360 H   0  0  0  0  0  0  0  0  0  0  0  0
   41.8350   21.9700   36.8190 C   0  0  0  0  0  0  0  0  0  0  0  0
   42.8260   22.6960   36.2070 C   0  0  0  0  0  0  0  0  0  0  0  0
   44.0000   22.0100   35.9750 C   0  0  0  0  0  0  0  0  0  0  0  0
   44.2350   20.7190   36.2980 N   0  0  0  0  0  0  0  0  0  0  0  0
   43.2190   20.0420   36.9050 C   0  0  0  0  0  0  0  0  0  0  0  0
   42.0530   20.6780   37.1480 N   0  0  0  0  0  0  0  0  0  0  0  0
   42.7220   23.7340   35.9150 H   0  0  0  0  0  0  0  0  0  0  0  0
   44.8530   22.4780   35.4980 H   0  0  0  0  0  0  0  0  0  0  0  0
   43.1800   19.0160   37.2480 H   0  0  0  0  0  0  0  0  0  0  0  0
   37.8770   25.8970   35.9750 C   0  0  0  0  0  0  0  0  0  0  0  0
   38.4060   26.7940   36.6570 O   0  0  0  0  0  0  0  0  0  0  0  0
   37.4690   26.1620   34.5820 C   0  0  0  0  0  0  0  0  0  0  0  0
   37.5500   25.1360   33.6660 C   0  0  0  0  0  0  0  0  0  0  0  0
   37.1620   25.3910   32.3440 C   0  0  0  0  0  0  0  0  0  0  0  0
   36.7300   26.6560   32.0740 N   0  0  0  0  0  0  0  0  0  0  0  0
   36.6660   27.6130   32.9770 C   0  0  0  0  0  0  0  0  0  0  0  0
   37.0280   27.4070   34.2500 N   0  0  0  0  0  0  0  0  0  0  0  0
   37.8950   24.1410   33.8990 H   0  0  0  0  0  0  0  0  0  0  0  0
   37.2130   24.6010   31.5930 H   0  0  0  0  0  0  0  0  0  0  0  0
   36.2050   28.9100   32.6240 N   0  0  0  0  0  0  0  0  0  0  0  0
   36.6640   29.5810   31.4070 C   0  0  0  0  0  0  0  0  0  0  0  0
   35.5190   30.4760   30.9700 C   0  0  0  0  0  0  0  0  0  0  0  0
   35.2910   31.6030   31.9550 C   0  0  0  0  0  0  0  0  0  0  0  0
   34.2430   31.9400   31.9090 H   0  0  0  0  0  0  0  0  0  0  0  0
   35.5940   31.1370   33.3690 C   0  0  0  0  0  0  0  0  0  0  0  0
   35.2630   29.6580   33.4290 C   0  0  0  0  0  0  0  0  0  0  0  0
  1  4  1  0  0  0  0
  2  7  1  0  0  0  0
  3  2  1  0  0  0  0
  4  3  2  0  0  0  0
  5  4  1  0  0  0  0
  5  6  2  0  0  0  0
  6  2  1  0  0  0  0
  8  5  1  0  0  0  0
  9  6  1  0  0  0  0
  9 14  1  0  0  0  0
 10  9  2  0  0  0  0
 11 10  1  0  0  0  0
 11 12  2  0  0  0  0
 12 13  1  0  0  0  0
 13 14  2  0  0  0  0
 13 17  1  0  0  0  0
 15 10  1  0  0  0  0
 16 11  1  0  0  0  0
 18  1  1  0  0  0  0
 18 19  2  0  0  0  0
 20 18  1  0  0  0  0
 21 26  1  0  0  0  0
 21 20  2  0  0  0  0
 22 21  1  0  0  0  0
 23 22  2  0  0  0  0
 23 24  1  0  0  0  0
 24 25  2  0  0  0  0
 25 20  1  0  0  0  0
 27 22  1  0  0  0  0
 28 24  1  0  0  0  0
 28 34  1  0  0  0  0
 29 28  1  0  0  0  0
 30 29  1  0  0  0  0
 30 31  1  0  0  0  0
 31 33  1  0  0  0  0
 32 31  1  0  0  0  0
 33 34  1  0  0  0  0
M  END
>  <minimizedAffinity>
-6.07219839

>  <minimizedRMSD>
0.559640527

$$$$
