
 OpenBabel03262519553D

 30 33  0  0  1  0  0  0  0  0999 V2000
   38.1380   23.8790   34.5750 C   0  0  0  0  0  0  0  0  0  0  0  0
   38.2980   25.1060   33.9330 C   0  0  0  0  0  0  0  0  0  0  0  0
   37.8800   24.8660   32.6590 N   0  0  0  0  0  0  0  0  0  0  0  0
   37.5080   23.5960   32.5750 C   0  0  0  0  0  0  0  0  0  0  0  0
   37.6570   22.9560   33.7500 N   0  0  0  0  0  0  0  0  0  0  0  0
   38.6740   26.0290   34.3770 H   0  0  0  0  0  0  0  0  0  0  0  0
   37.1500   23.2670   31.6030 H   0  0  0  0  0  0  0  0  0  0  0  0
   38.4540   23.6240   35.9730 C   0  0  0  0  0  0  0  0  0  0  0  0
   39.6660   23.0330   36.3310 C   0  0  0  0  0  0  0  0  0  0  0  0
   39.9270   22.8060   37.6930 C   0  0  0  0  0  0  0  0  0  0  0  0
   38.9850   23.1750   38.5830 N   0  0  0  0  0  0  0  0  0  0  0  0
   37.8190   23.7450   38.2170 C   0  0  0  0  0  0  0  0  0  0  0  0
   37.5430   23.9740   36.9190 N   0  0  0  0  0  0  0  0  0  0  0  0
   40.3970   22.7530   35.5690 H   0  0  0  0  0  0  0  0  0  0  0  0
   40.8580   22.3490   38.0140 H   0  0  0  0  0  0  0  0  0  0  0  0
   37.1410   23.9980   39.0290 H   0  0  0  0  0  0  0  0  0  0  0  0
   37.3300   21.5670   33.9490 C   0  0  1  0  0  0  0  0  0  0  0  0
   36.1290   21.1270   34.6640 C   0  0  0  0  0  0  0  0  0  0  0  0
   36.1140   21.1310   33.1590 C   0  0  2  0  0  0  0  0  0  0  0  0
   38.2100   20.8840   33.9270 H   0  0  0  0  0  0  0  0  0  0  0  0
   36.1820   20.1720   35.2260 H   0  0  0  0  0  0  0  0  0  0  0  0
   35.4570   21.8520   35.1820 H   0  0  0  0  0  0  0  0  0  0  0  0
   35.4590   21.9110   32.6910 H   0  0  0  0  0  0  0  0  0  0  0  0
   36.1950   19.9400   32.4190 N   0  0  0  0  0  0  0  0  0  0  0  0
   35.4100   18.8450   32.8160 C   0  0  0  0  0  2  0  0  0  0  0  0
   35.8940   17.5210   32.3300 C   0  0  0  0  0  2  0  0  0  0  0  0
   36.5160   17.5560   30.9630 C   0  0  0  0  0  3  0  0  0  0  0  0
   36.9520   16.5790   30.7380 H   0  0  0  0  0  0  0  0  0  0  0  0
   37.5220   18.6750   30.9020 C   0  0  0  0  0  2  0  0  0  0  0  0
   36.7350   19.9690   31.1340 C   0  0  0  0  0  2  0  0  0  0  0  0
  1  8  1  0  0  0  0
  2  6  1  0  0  0  0
  2  1  2  0  0  0  0
  3  2  1  0  0  0  0
  4  3  2  0  0  0  0
  4  5  1  0  0  0  0
  5 17  1  0  0  0  0
  5  1  1  0  0  0  0
  7  4  1  0  0  0  0
  8  9  2  0  0  0  0
  8 13  1  0  0  0  0
  9 10  1  0  0  0  0
 10 15  1  0  0  0  0
 10 11  2  0  0  0  0
 12 11  1  0  0  0  0
 12 16  1  0  0  0  0
 13 12  2  0  0  0  0
 14  9  1  0  0  0  0
 17 20  1  1  0  0  0
 17 18  1  0  0  0  0
 18 22  1  0  0  0  0
 18 21  1  0  0  0  0
 19 23  1  6  0  0  0
 19 17  1  0  0  0  0
 19 18  1  0  0  0  0
 24 25  1  0  0  0  0
 24 19  1  0  0  0  0
 26 25  1  0  0  0  0
 27 26  1  0  0  0  0
 28 27  1  0  0  0  0
 29 27  1  0  0  0  0
 29 30  1  0  0  0  0
 30 24  1  0  0  0  0
M  END
>  <minimizedAffinity>
-4.79196501

>  <minimizedRMSD>
1.10311854

$$$$
