
 OpenBabel03262519513D

 32 34  0  0  1  0  0  0  0  0999 V2000
   42.0140   26.9980   33.8540 C   0  0  0  0  0  0  0  0  0  0  0  0
   42.4940   27.5800   33.0460 H   0  0  0  0  0  0  0  0  0  0  0  0
   42.3490   27.5350   34.7940 H   0  0  0  0  0  0  0  0  0  0  0  0
   40.4840   27.1220   33.8470 C   0  0  2  0  0  0  0  0  0  0  0  0
   39.8380   26.8580   35.1510 C   0  0  0  0  0  0  0  0  0  0  0  0
   39.5890   26.0000   33.9190 C   0  0  1  0  0  0  0  0  0  0  0  0
   40.1890   28.0730   33.3910 H   0  0  0  0  0  0  0  0  0  0  0  0
   38.9530   27.4960   35.4520 H   0  0  0  0  0  0  0  0  0  0  0  0
   40.4580   26.6140   35.9750 H   0  0  0  0  0  0  0  0  0  0  0  0
   39.4940   25.0410   34.2610 H   0  0  0  0  0  0  0  0  0  0  0  0
   38.3300   26.3010   33.1860 N   0  0  0  0  0  0  0  0  0  0  0  0
   37.3550   25.2430   33.2790 C   0  0  0  0  0  0  0  0  0  0  0  0
   37.7370   24.1570   32.3040 C   0  0  0  0  0  0  0  0  0  0  0  0
   37.4130   24.6110   30.9190 C   0  0  0  0  0  0  0  0  0  0  0  0
   38.2740   24.3010   30.2560 H   0  0  0  0  0  0  0  0  0  0  0  0
   37.4460   26.1280   30.9010 C   0  0  0  0  0  0  0  0  0  0  0  0
   38.6180   26.5150   31.7850 C   0  0  0  0  0  0  0  0  0  0  0  0
   42.3550   25.5970   34.0030 C   0  0  0  0  0  0  0  0  0  0  0  0
   43.0250   25.4140   33.0780 H   0  0  0  0  0  0  0  0  0  0  0  0
   41.5420   24.9730   33.7520 H   0  0  0  0  0  0  0  0  0  0  0  0
   43.9970   24.1500   36.8320 C   0  0  0  0  0  0  0  0  0  0  0  0
   42.9900   24.3100   35.8470 C   0  0  0  0  0  0  0  0  0  0  0  0
   43.2680   25.3440   35.0530 C   0  0  0  0  0  0  0  0  0  0  0  0
   44.4000   26.1340   35.2020 N   0  0  0  0  0  0  0  0  0  0  0  0
   45.3050   25.9240   36.1540 C   0  0  0  0  0  0  0  0  0  0  0  0
   45.0940   24.9210   36.9710 N   0  0  0  0  0  0  0  0  0  0  0  0
   43.9610   23.3480   37.5950 H   0  0  0  0  0  0  0  0  0  0  0  0
   46.1350   26.6070   36.1600 H   0  0  0  0  0  0  0  0  0  0  0  0
   41.9390   23.3590   35.9030 C   0  0  0  0  0  0  0  0  0  0  0  0
   41.9870   22.5700   37.0780 F   0  0  0  0  0  0  0  0  0  0  0  0
   41.9460   22.2460   35.1470 F   0  0  0  0  0  0  0  0  0  0  0  0
   40.6560   23.8040   36.2170 F   0  0  0  0  0  0  0  0  0  0  0  0
  1 18  1  0  0  0  0
  1  3  1  0  0  0  0
  2  1  1  0  0  0  0
  4  7  1  6  0  0  0
  4  1  1  0  0  0  0
  4  6  1  0  0  0  0
  4  5  1  0  0  0  0
  5  8  1  0  0  0  0
  5  9  1  0  0  0  0
  6 10  1  6  0  0  0
  6  5  1  0  0  0  0
 11 12  1  0  0  0  0
 11  6  1  0  0  0  0
 13 12  1  0  0  0  0
 14 13  1  0  0  0  0
 15 14  1  0  0  0  0
 16 14  1  0  0  0  0
 16 17  1  0  0  0  0
 17 11  1  0  0  0  0
 18 23  1  0  0  0  0
 19 18  1  0  0  0  0
 20 18  1  0  0  0  0
 21 26  1  0  0  0  0
 21 27  1  0  0  0  0
 22 29  1  0  0  0  0
 22 21  2  0  0  0  0
 23 24  2  0  0  0  0
 23 22  1  0  0  0  0
 24 25  1  0  0  0  0
 25 28  1  0  0  0  0
 25 26  2  0  0  0  0
 29 32  1  0  0  0  0
 29 30  1  0  0  0  0
 31 29  1  0  0  0  0
M  END
>  <minimizedAffinity>
-4.05439281

>  <minimizedRMSD>
4.54555225

$$$$
