
 OpenBabel03262519553D

 30 33  0  0  1  0  0  0  0  0999 V2000
   38.1080   23.7230   34.5090 C   0  0  0  0  0  0  0  0  0  0  0  0
   38.2960   24.9130   33.8060 C   0  0  0  0  0  0  0  0  0  0  0  0
   37.8540   24.6240   32.5500 N   0  0  0  0  0  0  0  0  0  0  0  0
   37.4440   23.3640   32.5320 C   0  0  0  0  0  0  0  0  0  0  0  0
   37.5890   22.7760   33.7350 N   0  0  0  0  0  0  0  0  0  0  0  0
   38.7040   25.8440   34.2000 H   0  0  0  0  0  0  0  0  0  0  0  0
   37.0640   22.9980   31.5820 H   0  0  0  0  0  0  0  0  0  0  0  0
   38.4350   23.5260   35.9140 C   0  0  0  0  0  0  0  0  0  0  0  0
   39.6400   22.9280   36.2850 C   0  0  0  0  0  0  0  0  0  0  0  0
   39.9120   22.7590   37.6540 C   0  0  0  0  0  0  0  0  0  0  0  0
   38.9880   23.1870   38.5360 N   0  0  0  0  0  0  0  0  0  0  0  0
   37.8290   23.7640   38.1560 C   0  0  0  0  0  0  0  0  0  0  0  0
   37.5430   23.9380   36.8520 N   0  0  0  0  0  0  0  0  0  0  0  0
   40.3560   22.5980   35.5290 H   0  0  0  0  0  0  0  0  0  0  0  0
   40.8370   22.2980   37.9850 H   0  0  0  0  0  0  0  0  0  0  0  0
   37.1650   24.0670   38.9630 H   0  0  0  0  0  0  0  0  0  0  0  0
   37.2250   21.4090   34.0050 C   0  0  1  0  0  0  0  0  0  0  0  0
   35.9650   21.0340   34.6530 C   0  0  0  0  0  0  0  0  0  0  0  0
   36.0670   20.9310   33.1540 C   0  0  2  0  0  0  0  0  0  0  0  0
   38.0930   20.7160   34.1010 H   0  0  0  0  0  0  0  0  0  0  0  0
   35.9580   20.1210   35.2830 H   0  0  0  0  0  0  0  0  0  0  0  0
   35.2670   21.8020   35.0630 H   0  0  0  0  0  0  0  0  0  0  0  0
   35.4640   21.6830   32.5820 H   0  0  0  0  0  0  0  0  0  0  0  0
   36.1870   19.6890   32.5090 N   0  0  0  0  0  0  0  0  0  0  0  0
   35.1740   18.7320   32.6970 C   0  0  0  0  0  2  0  0  0  0  0  0
   35.5850   17.3270   32.4150 C   0  0  0  0  0  2  0  0  0  0  0  0
   36.5640   17.1860   31.2860 C   0  0  0  0  0  3  0  0  0  0  0  0
   36.9040   16.1480   31.2290 H   0  0  0  0  0  0  0  0  0  0  0  0
   37.6940   18.1620   31.4810 C   0  0  0  0  0  2  0  0  0  0  0  0
   37.0650   19.5590   31.4330 C   0  0  0  0  0  2  0  0  0  0  0  0
  1  8  1  0  0  0  0
  2  6  1  0  0  0  0
  2  1  2  0  0  0  0
  3  2  1  0  0  0  0
  4  3  2  0  0  0  0
  4  5  1  0  0  0  0
  5 17  1  0  0  0  0
  5  1  1  0  0  0  0
  7  4  1  0  0  0  0
  8  9  2  0  0  0  0
  8 13  1  0  0  0  0
  9 10  1  0  0  0  0
 10 15  1  0  0  0  0
 10 11  2  0  0  0  0
 12 11  1  0  0  0  0
 12 16  1  0  0  0  0
 13 12  2  0  0  0  0
 14  9  1  0  0  0  0
 17 20  1  1  0  0  0
 17 18  1  0  0  0  0
 18 22  1  0  0  0  0
 18 21  1  0  0  0  0
 19 23  1  6  0  0  0
 19 17  1  0  0  0  0
 19 18  1  0  0  0  0
 24 25  1  0  0  0  0
 24 19  1  0  0  0  0
 26 25  1  0  0  0  0
 27 29  1  0  0  0  0
 27 26  1  0  0  0  0
 28 27  1  0  0  0  0
 30 29  1  0  0  0  0
 30 24  1  0  0  0  0
M  END
>  <minimizedAffinity>
-4.84908628

>  <minimizedRMSD>
0.762441695

$$$$
