
 OpenBabel03262519553D

 29 32  0  0  1  0  0  0  0  0999 V2000
   38.2100   24.0640   34.4280 C   0  0  0  0  0  0  0  0  0  0  0  0
   38.3880   25.3170   33.8600 C   0  0  0  0  0  0  0  0  0  0  0  0
   38.0000   25.1550   32.5600 N   0  0  0  0  0  0  0  0  0  0  0  0
   37.6290   23.9040   32.3980 C   0  0  0  0  0  0  0  0  0  0  0  0
   37.7440   23.1910   33.5360 N   0  0  0  0  0  0  0  0  0  0  0  0
   38.7580   26.1650   34.4140 H   0  0  0  0  0  0  0  0  0  0  0  0
   37.2850   23.5900   31.4150 H   0  0  0  0  0  0  0  0  0  0  0  0
   38.4890   23.7220   35.8140 C   0  0  0  0  0  0  0  0  0  0  0  0
   39.6850   23.1000   36.1600 C   0  0  0  0  0  0  0  0  0  0  0  0
   39.9120   22.7880   37.5160 C   0  0  0  0  0  0  0  0  0  0  0  0
   38.9540   23.1100   38.4010 N   0  0  0  0  0  0  0  0  0  0  0  0
   37.7970   23.7150   38.0430 C   0  0  0  0  0  0  0  0  0  0  0  0
   37.5610   24.0220   36.7520 N   0  0  0  0  0  0  0  0  0  0  0  0
   40.3970   22.8760   35.4010 H   0  0  0  0  0  0  0  0  0  0  0  0
   40.8370   22.3040   37.8110 H   0  0  0  0  0  0  0  0  0  0  0  0
   37.0800   23.9360   38.8410 H   0  0  0  0  0  0  0  0  0  0  0  0
   37.4050   21.7910   33.6430 C   0  0  1  0  0  0  0  0  0  0  0  0
   36.3450   21.2990   34.5230 C   0  0  0  0  0  0  0  0  0  0  0  0
   36.0280   21.4830   33.0620 C   0  0  2  0  0  0  0  0  0  0  0  0
   38.2410   21.1170   33.3270 H   0  0  0  0  0  0  0  0  0  0  0  0
   36.4540   20.2820   34.9440 H   0  0  0  0  0  0  0  0  0  0  0  0
   35.9210   22.0210   35.2670 H   0  0  0  0  0  0  0  0  0  0  0  0
   35.3310   22.3260   32.8500 H   0  0  0  0  0  0  0  0  0  0  0  0
   35.8070   20.2550   32.3690 N   0  0  0  0  0  0  0  0  0  0  0  0
   35.6340   19.0920   33.1780 C   0  0  0  0  0  2  0  0  0  0  0  0
   35.3500   17.9540   32.1860 C   0  0  0  0  0  2  0  0  0  0  0  0
   36.3920   17.7920   31.2760 O   0  0  0  0  0  0  0  0  0  0  0  0
   36.5220   18.9530   30.5280 C   0  0  0  0  0  2  0  0  0  0  0  0
   36.9560   20.0330   31.5080 C   0  0  0  0  0  2  0  0  0  0  0  0
  1  8  1  0  0  0  0
  2  6  1  0  0  0  0
  2  1  2  0  0  0  0
  3  2  1  0  0  0  0
  4  3  2  0  0  0  0
  4  5  1  0  0  0  0
  5 17  1  0  0  0  0
  5  1  1  0  0  0  0
  7  4  1  0  0  0  0
  8  9  2  0  0  0  0
  8 13  1  0  0  0  0
  9 10  1  0  0  0  0
 10 15  1  0  0  0  0
 10 11  2  0  0  0  0
 12 11  1  0  0  0  0
 12 16  1  0  0  0  0
 13 12  2  0  0  0  0
 14  9  1  0  0  0  0
 17 20  1  6  0  0  0
 17 18  1  0  0  0  0
 18 21  1  0  0  0  0
 18 22  1  0  0  0  0
 19 23  1  6  0  0  0
 19 17  1  0  0  0  0
 19 18  1  0  0  0  0
 24 19  1  0  0  0  0
 24 25  1  0  0  0  0
 26 25  1  0  0  0  0
 27 26  1  0  0  0  0
 28 27  1  0  0  0  0
 28 29  1  0  0  0  0
 29 24  1  0  0  0  0
M  END
>  <minimizedAffinity>
-4.48690557

>  <minimizedRMSD>
1.04136324

$$$$
