
 OpenBabel03262519543D

 29 32  0  0  1  0  0  0  0  0999 V2000
   38.2100   24.0630   34.4280 C   0  0  0  0  0  0  0  0  0  0  0  0
   38.3880   25.3160   33.8600 C   0  0  0  0  0  0  0  0  0  0  0  0
   37.9990   25.1540   32.5600 N   0  0  0  0  0  0  0  0  0  0  0  0
   37.6280   23.9030   32.3990 C   0  0  0  0  0  0  0  0  0  0  0  0
   37.7430   23.1900   33.5370 N   0  0  0  0  0  0  0  0  0  0  0  0
   38.7580   26.1640   34.4140 H   0  0  0  0  0  0  0  0  0  0  0  0
   37.2840   23.5900   31.4150 H   0  0  0  0  0  0  0  0  0  0  0  0
   38.4880   23.7210   35.8140 C   0  0  0  0  0  0  0  0  0  0  0  0
   39.6850   23.1000   36.1600 C   0  0  0  0  0  0  0  0  0  0  0  0
   39.9120   22.7880   37.5160 C   0  0  0  0  0  0  0  0  0  0  0  0
   38.9530   23.1100   38.4010 N   0  0  0  0  0  0  0  0  0  0  0  0
   37.7960   23.7140   38.0430 C   0  0  0  0  0  0  0  0  0  0  0  0
   37.5610   24.0210   36.7520 N   0  0  0  0  0  0  0  0  0  0  0  0
   40.3970   22.8760   35.4010 H   0  0  0  0  0  0  0  0  0  0  0  0
   40.8360   22.3030   37.8110 H   0  0  0  0  0  0  0  0  0  0  0  0
   37.0800   23.9350   38.8410 H   0  0  0  0  0  0  0  0  0  0  0  0
   37.4040   21.7900   33.6440 C   0  0  1  0  0  0  0  0  0  0  0  0
   36.3430   21.2990   34.5230 C   0  0  0  0  0  0  0  0  0  0  0  0
   36.0280   21.4830   33.0610 C   0  0  2  0  0  0  0  0  0  0  0  0
   38.2400   21.1160   33.3290 H   0  0  0  0  0  0  0  0  0  0  0  0
   36.4510   20.2820   34.9440 H   0  0  0  0  0  0  0  0  0  0  0  0
   35.9190   22.0210   35.2660 H   0  0  0  0  0  0  0  0  0  0  0  0
   35.3300   22.3260   32.8480 H   0  0  0  0  0  0  0  0  0  0  0  0
   35.8070   20.2550   32.3690 N   0  0  0  0  0  0  0  0  0  0  0  0
   35.6340   19.0910   33.1770 C   0  0  0  0  0  2  0  0  0  0  0  0
   35.3500   17.9540   32.1860 C   0  0  0  0  0  2  0  0  0  0  0  0
   36.3920   17.7920   31.2750 O   0  0  0  0  0  0  0  0  0  0  0  0
   36.5220   18.9520   30.5290 C   0  0  0  0  0  2  0  0  0  0  0  0
   36.9550   20.0330   31.5070 C   0  0  0  0  0  2  0  0  0  0  0  0
  1  8  1  0  0  0  0
  2  6  1  0  0  0  0
  2  1  2  0  0  0  0
  3  2  1  0  0  0  0
  4  3  2  0  0  0  0
  4  5  1  0  0  0  0
  5 17  1  0  0  0  0
  5  1  1  0  0  0  0
  7  4  1  0  0  0  0
  8  9  2  0  0  0  0
  8 13  1  0  0  0  0
  9 10  1  0  0  0  0
 10 15  1  0  0  0  0
 10 11  2  0  0  0  0
 12 11  1  0  0  0  0
 12 16  1  0  0  0  0
 13 12  2  0  0  0  0
 14  9  1  0  0  0  0
 17 20  1  6  0  0  0
 17 18  1  0  0  0  0
 18 21  1  0  0  0  0
 18 22  1  0  0  0  0
 19 23  1  6  0  0  0
 19 17  1  0  0  0  0
 19 18  1  0  0  0  0
 24 19  1  0  0  0  0
 24 25  1  0  0  0  0
 26 25  1  0  0  0  0
 27 26  1  0  0  0  0
 28 27  1  0  0  0  0
 28 29  1  0  0  0  0
 29 24  1  0  0  0  0
M  END
>  <minimizedAffinity>
-4.48647833

>  <minimizedRMSD>
1.07420754

$$$$
