
 OpenBabel03262515093D

 40 43  0  0  0  0  0  0  0  0999 V2000
   40.0270   22.9920   35.2240 C   0  0  0  0  0  0  0  0  0  0  0  0
   40.9530   22.8820   35.8900 H   0  0  0  0  0  0  0  0  0  0  0  0
   40.0930   22.1250   34.6080 H   0  0  0  0  0  0  0  0  0  0  0  0
   40.3930   24.2360   34.4950 N   0  0  0  0  0  0  0  0  0  0  0  0
   39.5970   24.8380   33.5720 C   0  0  0  0  0  0  0  0  0  0  0  0
   40.2160   25.9440   33.1020 N   0  0  0  0  0  0  0  0  0  0  0  0
   41.4100   26.0520   33.7230 C   0  0  0  0  0  0  0  0  0  0  0  0
   42.4920   26.9020   33.7170 C   0  0  0  0  0  0  0  0  0  0  0  0
   43.5700   26.6950   34.5050 N   0  0  0  0  0  0  0  0  0  0  0  0
   43.6430   25.6430   35.3410 C   0  0  0  0  0  0  0  0  0  0  0  0
   42.5860   24.7930   35.3620 N   0  0  0  0  0  0  0  0  0  0  0  0
   41.5110   25.0020   34.5730 C   0  0  0  0  0  0  0  0  0  0  0  0
   42.4080   28.0270   32.8120 N   0  0  0  0  0  0  0  0  0  0  0  0
   38.6190   24.4880   33.2620 H   0  0  0  0  0  0  0  0  0  0  0  0
   41.9310   28.8690   33.2010 H   0  0  0  0  0  0  0  0  0  0  0  0
   42.7410   28.1490   31.8300 H   0  0  0  0  0  0  0  0  0  0  0  0
   44.7730   25.4120   36.1770 N   0  0  0  0  0  0  0  0  0  0  0  0
   44.5370   25.0510   37.5610 C   0  0  0  0  0  0  0  0  0  0  0  0
   45.7060   25.4140   38.4540 C   0  0  0  0  0  0  0  0  0  0  0  0
   46.8830   25.0430   37.8520 O   0  0  0  0  0  0  0  0  0  0  0  0
   47.0750   25.8920   36.7430 C   0  0  0  0  0  0  0  0  0  0  0  0
   46.0930   25.5420   35.6330 C   0  0  0  0  0  0  0  0  0  0  0  0
   38.8630   23.2480   36.0980 C   0  0  0  0  0  0  0  0  0  0  0  0
   36.4810   21.1050   34.2260 C   0  0  0  0  0  0  0  0  0  0  0  0
   37.5860   21.9400   34.4890 C   0  0  0  0  0  0  0  0  0  0  0  0
   37.7320   22.4170   35.7800 C   0  0  0  0  0  0  0  0  0  0  0  0
   36.8240   22.0690   36.7130 N   0  0  0  0  0  0  0  0  0  0  0  0
   35.7800   21.2710   36.4280 C   0  0  0  0  0  0  0  0  0  0  0  0
   35.6000   20.7870   35.2010 N   0  0  0  0  0  0  0  0  0  0  0  0
   36.2030   20.6350   33.2750 H   0  0  0  0  0  0  0  0  0  0  0  0
   38.1160   22.0430   33.5610 H   0  0  0  0  0  0  0  0  0  0  0  0
   35.1120   21.0580   37.2530 H   0  0  0  0  0  0  0  0  0  0  0  0
   38.4900   24.7380   36.1910 C   0  0  0  0  0  0  0  0  0  0  0  0
   37.6860   24.8100   36.9580 H   0  0  0  0  0  0  0  0  0  0  0  0
   39.3740   25.3350   36.4260 H   0  0  0  0  0  0  0  0  0  0  0  0
   38.0570   25.0190   35.2050 H   0  0  0  0  0  0  0  0  0  0  0  0
   39.2980   22.9880   37.5720 C   0  0  0  0  0  0  0  0  0  0  0  0
   39.6730   21.9480   37.6490 H   0  0  0  0  0  0  0  0  0  0  0  0
   40.0630   23.7500   37.8320 H   0  0  0  0  0  0  0  0  0  0  0  0
   38.4220   23.2070   38.2130 H   0  0  0  0  0  0  0  0  0  0  0  0
  1  2  1  0  0  0  0
  1 23  1  0  0  0  0
  3  1  1  0  0  0  0
  4 12  1  0  0  0  0
  4  1  1  0  0  0  0
  5  4  1  0  0  0  0
  6  5  2  0  0  0  0
  6  7  1  0  0  0  0
  7 12  1  0  0  0  0
  8  7  2  0  0  0  0
  8  9  1  0  0  0  0
  9 10  2  0  0  0  0
 10 11  1  0  0  0  0
 10 17  1  0  0  0  0
 12 11  2  0  0  0  0
 13 15  1  0  0  0  0
 13  8  1  0  0  0  0
 14  5  1  0  0  0  0
 16 13  1  0  0  0  0
 17 18  1  0  0  0  0
 18 19  1  0  0  0  0
 20 19  1  0  0  0  0
 21 20  1  0  0  0  0
 22 17  1  0  0  0  0
 22 21  1  0  0  0  0
 23 33  1  0  0  0  0
 23 37  1  0  0  0  0
 24 25  2  0  0  0  0
 24 29  1  0  0  0  0
 25 26  1  0  0  0  0
 26 23  1  0  0  0  0
 26 27  2  0  0  0  0
 28 27  1  0  0  0  0
 28 32  1  0  0  0  0
 29 28  2  0  0  0  0
 30 24  1  0  0  0  0
 31 25  1  0  0  0  0
 33 35  1  0  0  0  0
 33 34  1  0  0  0  0
 36 33  1  0  0  0  0
 37 38  1  0  0  0  0
 37 39  1  0  0  0  0
 37 40  1  0  0  0  0
M  END
>  <minimizedAffinity>
-5.44416285

>  <minimizedRMSD>
2.50152087

$$$$
