
 OpenBabel03262519543D

 29 32  0  0  1  0  0  0  0  0999 V2000
   38.1130   24.0680   34.7070 C   0  0  0  0  0  0  0  0  0  0  0  0
   38.1460   25.3310   34.1350 C   0  0  0  0  0  0  0  0  0  0  0  0
   37.7740   25.1230   32.8380 N   0  0  0  0  0  0  0  0  0  0  0  0
   37.5460   23.8370   32.6800 C   0  0  0  0  0  0  0  0  0  0  0  0
   37.7450   23.1450   33.8200 N   0  0  0  0  0  0  0  0  0  0  0  0
   38.4210   26.2170   34.6850 H   0  0  0  0  0  0  0  0  0  0  0  0
   37.2360   23.4840   31.6990 H   0  0  0  0  0  0  0  0  0  0  0  0
   38.4340   23.7640   36.0930 C   0  0  0  0  0  0  0  0  0  0  0  0
   39.6370   23.1460   36.4190 C   0  0  0  0  0  0  0  0  0  0  0  0
   39.9060   22.8710   37.7750 C   0  0  0  0  0  0  0  0  0  0  0  0
   38.9770   23.2230   38.6810 N   0  0  0  0  0  0  0  0  0  0  0  0
   37.8130   23.8240   38.3420 C   0  0  0  0  0  0  0  0  0  0  0  0
   37.5380   24.0960   37.0510 N   0  0  0  0  0  0  0  0  0  0  0  0
   40.3240   22.8960   35.6440 H   0  0  0  0  0  0  0  0  0  0  0  0
   40.8370   22.3890   38.0550 H   0  0  0  0  0  0  0  0  0  0  0  0
   37.1220   24.0710   39.1560 H   0  0  0  0  0  0  0  0  0  0  0  0
   37.5660   21.7160   33.9320 C   0  0  1  0  0  0  0  0  0  0  0  0
   36.3220   21.1100   34.4030 C   0  0  0  0  0  0  0  0  0  0  0  0
   36.5620   21.1780   32.9170 C   0  0  2  0  0  0  0  0  0  0  0  0
   38.5360   21.1630   34.0140 H   0  0  0  0  0  0  0  0  0  0  0  0
   36.3870   20.1410   34.9320 H   0  0  0  0  0  0  0  0  0  0  0  0
   35.5620   21.7920   34.8630 H   0  0  0  0  0  0  0  0  0  0  0  0
   35.8980   21.8960   32.3810 H   0  0  0  0  0  0  0  0  0  0  0  0
   36.7730   19.9010   32.3170 N   0  0  0  0  0  0  0  0  0  0  0  0
   36.9580   19.8880   30.9010 C   0  0  0  0  0  2  0  0  0  0  0  0
   37.2290   18.4180   30.5470 C   0  0  0  0  0  2  0  0  0  0  0  0
   36.1740   17.5930   30.9300 O   0  0  0  0  0  0  0  0  0  0  0  0
   36.0320   17.6550   32.3080 C   0  0  0  0  0  2  0  0  0  0  0  0
   35.6130   19.0830   32.6230 C   0  0  0  0  0  2  0  0  0  0  0  0
  1  8  1  0  0  0  0
  2  6  1  0  0  0  0
  2  1  2  0  0  0  0
  3  2  1  0  0  0  0
  4  3  2  0  0  0  0
  4  5  1  0  0  0  0
  5 17  1  0  0  0  0
  5  1  1  0  0  0  0
  7  4  1  0  0  0  0
  8  9  2  0  0  0  0
  8 13  1  0  0  0  0
  9 10  1  0  0  0  0
 10 15  1  0  0  0  0
 10 11  2  0  0  0  0
 12 11  1  0  0  0  0
 12 16  1  0  0  0  0
 13 12  2  0  0  0  0
 14  9  1  0  0  0  0
 17 20  1  1  0  0  0
 17 18  1  0  0  0  0
 18 22  1  0  0  0  0
 18 21  1  0  0  0  0
 19 23  1  6  0  0  0
 19 17  1  0  0  0  0
 19 18  1  0  0  0  0
 24 29  1  0  0  0  0
 24 19  1  0  0  0  0
 25 24  1  0  0  0  0
 26 25  1  0  0  0  0
 26 27  1  0  0  0  0
 27 28  1  0  0  0  0
 28 29  1  0  0  0  0
M  END
>  <minimizedAffinity>
-4.58725262

>  <minimizedRMSD>
1.25621438

$$$$
