
 OpenBabel03262519543D

 29 32  0  0  1  0  0  0  0  0999 V2000
   38.1990   24.0280   34.5210 C   0  0  0  0  0  0  0  0  0  0  0  0
   38.3530   25.2770   33.9380 C   0  0  0  0  0  0  0  0  0  0  0  0
   37.9660   25.0930   32.6410 N   0  0  0  0  0  0  0  0  0  0  0  0
   37.6180   23.8340   32.4940 C   0  0  0  0  0  0  0  0  0  0  0  0
   37.7480   23.1360   33.6400 N   0  0  0  0  0  0  0  0  0  0  0  0
   38.7070   26.1380   34.4820 H   0  0  0  0  0  0  0  0  0  0  0  0
   37.2800   23.5020   31.5150 H   0  0  0  0  0  0  0  0  0  0  0  0
   38.4850   23.7080   35.9110 C   0  0  0  0  0  0  0  0  0  0  0  0
   39.6890   23.1040   36.2610 C   0  0  0  0  0  0  0  0  0  0  0  0
   39.9240   22.8120   37.6200 C   0  0  0  0  0  0  0  0  0  0  0  0
   38.9640   23.1360   38.5040 N   0  0  0  0  0  0  0  0  0  0  0  0
   37.8000   23.7220   38.1410 C   0  0  0  0  0  0  0  0  0  0  0  0
   37.5570   24.0100   36.8470 N   0  0  0  0  0  0  0  0  0  0  0  0
   40.4020   22.8780   35.5030 H   0  0  0  0  0  0  0  0  0  0  0  0
   40.8540   22.3420   37.9190 H   0  0  0  0  0  0  0  0  0  0  0  0
   37.0830   23.9460   38.9390 H   0  0  0  0  0  0  0  0  0  0  0  0
   37.4350   21.7310   33.7640 C   0  0  1  0  0  0  0  0  0  0  0  0
   36.2840   21.2410   34.5220 C   0  0  0  0  0  0  0  0  0  0  0  0
   36.1540   21.3570   33.0250 C   0  0  2  0  0  0  0  0  0  0  0  0
   38.3230   21.0720   33.5870 H   0  0  0  0  0  0  0  0  0  0  0  0
   36.3640   20.2460   34.9970 H   0  0  0  0  0  0  0  0  0  0  0  0
   35.7490   21.9790   35.1730 H   0  0  0  0  0  0  0  0  0  0  0  0
   35.4670   22.1690   32.6890 H   0  0  0  0  0  0  0  0  0  0  0  0
   36.0560   20.0970   32.3640 N   0  0  0  0  0  0  0  0  0  0  0  0
   35.5090   19.0200   33.1260 C   0  0  0  0  0  2  0  0  0  0  0  0
   35.4620   17.8290   32.1570 C   0  0  0  0  0  2  0  0  0  0  0  0
   36.7260   17.5130   31.6650 O   0  0  0  0  0  0  0  0  0  0  0  0
   37.2120   18.5960   30.9480 C   0  0  0  0  0  2  0  0  0  0  0  0
   37.3990   19.7180   31.9570 C   0  0  0  0  0  2  0  0  0  0  0  0
  1  8  1  0  0  0  0
  2  6  1  0  0  0  0
  2  1  2  0  0  0  0
  3  2  1  0  0  0  0
  4  3  2  0  0  0  0
  4  5  1  0  0  0  0
  5 17  1  0  0  0  0
  5  1  1  0  0  0  0
  7  4  1  0  0  0  0
  8  9  2  0  0  0  0
  8 13  1  0  0  0  0
  9 10  1  0  0  0  0
 10 15  1  0  0  0  0
 10 11  2  0  0  0  0
 12 11  1  0  0  0  0
 12 16  1  0  0  0  0
 13 12  2  0  0  0  0
 14  9  1  0  0  0  0
 17 20  1  6  0  0  0
 17 18  1  0  0  0  0
 18 21  1  0  0  0  0
 18 22  1  0  0  0  0
 19 23  1  6  0  0  0
 19 17  1  0  0  0  0
 19 18  1  0  0  0  0
 24 19  1  0  0  0  0
 24 25  1  0  0  0  0
 26 25  1  0  0  0  0
 27 26  1  0  0  0  0
 28 27  1  0  0  0  0
 28 29  1  0  0  0  0
 29 24  1  0  0  0  0
M  END
>  <minimizedAffinity>
-4.54461241

>  <minimizedRMSD>
1.08857143

$$$$
