
 OpenBabel03262519423D

 24 25  0  0  1  0  0  0  0  0999 V2000
   38.2590   23.3990   36.8990 C   0  0  1  0  0  0  0  0  0  0  0  0
   37.4620   22.7970   36.3890 H   0  0  0  0  0  0  0  0  0  0  0  0
   41.6530   21.7610   37.3530 C   0  0  0  0  0  0  0  0  0  0  0  0
   40.4390   22.4230   37.6550 C   0  0  0  0  0  0  0  0  0  0  0  0
   39.5250   22.7010   36.6150 C   0  0  0  0  0  0  0  0  0  0  0  0
   39.8690   22.3050   35.3440 N   0  0  0  0  0  0  0  0  0  0  0  0
   41.0270   21.6800   35.0880 C   0  0  0  0  0  0  0  0  0  0  0  0
   41.9290   21.4000   36.0800 N   0  0  0  0  0  0  0  0  0  0  0  0
   42.3560   21.5490   38.1460 H   0  0  0  0  0  0  0  0  0  0  0  0
   40.2490   22.6990   38.6810 H   0  0  0  0  0  0  0  0  0  0  0  0
   41.2820   21.3760   34.0850 H   0  0  0  0  0  0  0  0  0  0  0  0
   37.9290   23.4030   38.3730 C   0  0  0  0  0  0  0  0  0  0  0  0
   37.5830   22.4280   38.7510 H   0  0  0  0  0  0  0  0  0  0  0  0
   37.1170   24.1550   38.5910 H   0  0  0  0  0  0  0  0  0  0  0  0
   38.8040   23.7870   38.9670 H   0  0  0  0  0  0  0  0  0  0  0  0
   38.2420   24.8250   36.3990 C   0  0  0  0  0  0  0  0  0  0  0  0
   37.1850   25.1550   36.4280 H   0  0  0  0  0  0  0  0  0  0  0  0
   38.8290   25.4320   37.0940 H   0  0  0  0  0  0  0  0  0  0  0  0
   38.7960   24.9710   35.0860 N   0  0  0  0  0  0  0  0  0  0  0  0
   37.8300   25.0540   34.0240 C   0  0  0  0  0  0  0  0  0  0  0  0
   37.1890   26.4210   33.9320 C   0  0  0  0  0  0  0  0  0  0  0  0
   38.2140   27.3080   33.6020 O   0  0  0  0  0  0  0  0  0  0  0  0
   39.0270   27.3900   34.7250 C   0  0  0  0  0  0  0  0  0  0  0  0
   39.6920   26.0850   35.0780 C   0  0  0  0  0  0  0  0  0  0  0  0
  1  2  1  6  0  0  0
  1 12  1  0  0  0  0
  3  4  1  0  0  0  0
  3  9  1  0  0  0  0
  4 10  1  0  0  0  0
  5  1  1  0  0  0  0
  5  4  2  0  0  0  0
  6  5  1  0  0  0  0
  7  6  2  0  0  0  0
  7  8  1  0  0  0  0
  8  3  2  0  0  0  0
 11  7  1  0  0  0  0
 12 14  1  0  0  0  0
 12 13  1  0  0  0  0
 12 15  1  0  0  0  0
 16 17  1  0  0  0  0
 16  1  1  0  0  0  0
 16 18  1  0  0  0  0
 19 16  1  0  0  0  0
 20 19  1  0  0  0  0
 21 20  1  0  0  0  0
 22 21  1  0  0  0  0
 22 23  1  0  0  0  0
 23 24  1  0  0  0  0
 24 19  1  0  0  0  0
M  END
>  <minimizedAffinity>
-3.58969712

>  <minimizedRMSD>
0.904386997

$$$$
