
 OpenBabel03262518433D

 36 40  0  0  1  0  0  0  0  0999 V2000
   36.3650   25.2470   31.3560 C   0  0  0  0  0  0  0  0  0  0  0  0
   35.4820   26.3400   31.2100 C   0  0  0  0  0  0  0  0  0  0  0  0
   35.9430   27.6180   31.4830 C   0  0  0  0  0  0  0  0  0  0  0  0
   37.2440   27.7440   31.8830 N   0  0  0  0  0  0  0  0  0  0  0  0
   38.0530   26.6920   32.0120 C   0  0  0  0  0  0  0  0  0  0  0  0
   37.6280   25.4480   31.7540 N   0  0  0  0  0  0  0  0  0  0  0  0
   39.3860   26.9650   32.4370 N   0  0  0  0  0  0  0  0  0  0  0  0
   40.1840   27.3000   31.4650 N   0  0  0  0  0  0  0  0  0  0  0  0
   41.4240   27.5360   31.9780 C   0  0  0  0  0  0  0  0  0  0  0  0
   41.3670   27.3330   33.3150 C   0  0  0  0  0  0  0  0  0  0  0  0
   40.0610   26.9690   33.5990 C   0  0  0  0  0  0  0  0  0  0  0  0
   34.4680   26.1590   30.8890 H   0  0  0  0  0  0  0  0  0  0  0  0
   35.2980   28.4760   31.3830 H   0  0  0  0  0  0  0  0  0  0  0  0
   42.3340   27.8330   31.4710 H   0  0  0  0  0  0  0  0  0  0  0  0
   42.0740   27.3930   34.1310 H   0  0  0  0  0  0  0  0  0  0  0  0
   39.3130   26.6120   34.7940 C   0  0  0  0  0  0  0  0  0  0  0  0
   38.9780   27.3020   35.8940 N   0  0  0  0  0  0  0  0  0  0  0  0
   38.2980   26.5500   36.6890 O   0  0  0  0  0  0  0  0  0  0  0  0
   38.1880   25.3710   36.1090 C   0  0  0  0  0  0  0  0  0  0  0  0
   38.8030   25.3460   34.9210 N   0  0  0  0  0  0  0  0  0  0  0  0
   37.4720   24.2110   36.6960 C   0  0  2  0  0  0  0  0  0  0  0  0
   37.9010   23.6250   38.0040 C   0  0  0  0  0  0  0  0  0  0  0  0
   38.0340   22.8540   36.7120 C   0  0  2  0  0  0  0  0  0  0  0  0
   36.3610   24.3330   36.6450 H   0  0  0  0  0  0  0  0  0  0  0  0
   38.7810   24.1160   38.4610 H   0  0  0  0  0  0  0  0  0  0  0  0
   37.1470   23.3350   38.7510 H   0  0  0  0  0  0  0  0  0  0  0  0
   37.2530   22.0010   36.6550 H   0  0  0  0  0  0  0  0  0  0  0  0
   39.3410   22.4310   36.4070 N   0  0  0  0  0  0  0  0  0  0  0  0
   40.4480   23.0360   37.0530 C   0  0  0  0  0  0  0  0  0  0  0  0
   41.4740   23.4740   35.9760 C   0  0  0  0  0  0  0  0  0  0  0  0
   41.8580   22.2920   35.3460 O   0  0  0  0  0  0  0  0  0  0  0  0
   40.8250   21.8060   34.5520 C   0  0  0  0  0  0  0  0  0  0  0  0
   39.4630   22.3010   34.9670 C   0  0  0  0  0  0  0  0  0  0  0  0
   35.8960   23.9310   31.0770 N   0  0  0  0  0  0  0  0  0  0  0  0
   36.3060   23.1460   31.6250 H   0  0  0  0  0  0  0  0  0  0  0  0
   35.1700   23.7780   30.3500 H   0  0  0  0  0  0  0  0  0  0  0  0
  1  6  1  0  0  0  0
  2  1  2  0  0  0  0
  2  3  1  0  0  0  0
  3  4  2  0  0  0  0
  4  5  1  0  0  0  0
  5  7  1  0  0  0  0
  6  5  2  0  0  0  0
  7 11  1  0  0  0  0
  8  9  2  0  0  0  0
  8  7  1  0  0  0  0
  9 10  1  0  0  0  0
 10 11  2  0  0  0  0
 10 15  1  0  0  0  0
 11 16  1  0  0  0  0
 12  2  1  0  0  0  0
 13  3  1  0  0  0  0
 14  9  1  0  0  0  0
 16 20  1  0  0  0  0
 16 17  2  0  0  0  0
 17 18  1  0  0  0  0
 19 18  1  0  0  0  0
 19 21  1  0  0  0  0
 20 19  2  0  0  0  0
 21 24  1  6  0  0  0
 21 23  1  0  0  0  0
 21 22  1  0  0  0  0
 22 25  1  0  0  0  0
 22 26  1  0  0  0  0
 23 27  1  6  0  0  0
 23 22  1  0  0  0  0
 28 23  1  0  0  0  0
 28 29  1  0  0  0  0
 30 29  1  0  0  0  0
 31 30  1  0  0  0  0
 32 33  1  0  0  0  0
 32 31  1  0  0  0  0
 33 28  1  0  0  0  0
 34  1  1  0  0  0  0
 34 35  1  0  0  0  0
 36 34  1  0  0  0  0
M  END
>  <minimizedAffinity>
-5.87058973

>  <minimizedRMSD>
2.42084527

$$$$
