
 OpenBabel03262519543D

 29 32  0  0  1  0  0  0  0  0999 V2000
   38.0890   23.3820   35.0080 C   0  0  0  0  0  0  0  0  0  0  0  0
   37.9830   23.2080   36.3800 C   0  0  0  0  0  0  0  0  0  0  0  0
   37.9530   24.4790   36.8800 N   0  0  0  0  0  0  0  0  0  0  0  0
   38.0360   25.3160   35.8690 C   0  0  0  0  0  0  0  0  0  0  0  0
   38.1220   24.6750   34.6870 N   0  0  0  0  0  0  0  0  0  0  0  0
   37.9410   22.2360   36.8460 H   0  0  0  0  0  0  0  0  0  0  0  0
   38.0270   26.3830   36.0800 H   0  0  0  0  0  0  0  0  0  0  0  0
   38.1560   22.3100   34.0270 C   0  0  0  0  0  0  0  0  0  0  0  0
   39.3850   21.8870   33.5290 C   0  0  0  0  0  0  0  0  0  0  0  0
   39.4030   20.8450   32.5800 C   0  0  0  0  0  0  0  0  0  0  0  0
   38.2240   20.3180   32.2090 N   0  0  0  0  0  0  0  0  0  0  0  0
   37.0390   20.7450   32.7050 C   0  0  0  0  0  0  0  0  0  0  0  0
   37.0020   21.7400   33.6140 N   0  0  0  0  0  0  0  0  0  0  0  0
   40.2790   22.3540   33.8730 H   0  0  0  0  0  0  0  0  0  0  0  0
   40.3480   20.4970   32.1770 H   0  0  0  0  0  0  0  0  0  0  0  0
   36.1350   20.2490   32.3370 H   0  0  0  0  0  0  0  0  0  0  0  0
   38.2240   25.3500   33.4140 C   0  0  1  0  0  0  0  0  0  0  0  0
   37.5480   24.8700   32.2080 C   0  0  0  0  0  0  0  0  0  0  0  0
   36.9040   25.9860   32.9890 C   0  0  2  0  0  0  0  0  0  0  0  0
   39.1350   25.9950   33.3370 H   0  0  0  0  0  0  0  0  0  0  0  0
   38.0240   25.0780   31.2320 H   0  0  0  0  0  0  0  0  0  0  0  0
   37.0960   23.8470   32.2490 H   0  0  0  0  0  0  0  0  0  0  0  0
   35.9670   25.6910   33.5180 H   0  0  0  0  0  0  0  0  0  0  0  0
   36.9060   27.2360   32.3010 N   0  0  0  0  0  0  0  0  0  0  0  0
   36.1350   28.2850   32.8870 C   0  0  0  0  0  2  0  0  0  0  0  0
   36.3750   29.5070   31.9880 C   0  0  0  0  0  2  0  0  0  0  0  0
   35.9870   29.2640   30.6730 O   0  0  0  0  0  0  0  0  0  0  0  0
   36.7560   28.2300   30.1600 C   0  0  0  0  0  2  0  0  0  0  0  0
   36.3870   26.9930   30.9650 C   0  0  0  0  0  2  0  0  0  0  0  0
  1  2  2  0  0  0  0
  2  6  1  0  0  0  0
  2  3  1  0  0  0  0
  4  7  1  0  0  0  0
  4  3  2  0  0  0  0
  5  1  1  0  0  0  0
  5  4  1  0  0  0  0
  8  1  1  0  0  0  0
  9 14  1  0  0  0  0
  9  8  2  0  0  0  0
 10  9  1  0  0  0  0
 11 10  2  0  0  0  0
 11 12  1  0  0  0  0
 12 13  2  0  0  0  0
 13  8  1  0  0  0  0
 15 10  1  0  0  0  0
 16 12  1  0  0  0  0
 17 20  1  6  0  0  0
 17  5  1  0  0  0  0
 18 22  1  0  0  0  0
 18 19  1  0  0  0  0
 18 17  1  0  0  0  0
 19 17  1  0  0  0  0
 19 23  1  1  0  0  0
 21 18  1  0  0  0  0
 24 25  1  0  0  0  0
 24 19  1  0  0  0  0
 26 25  1  0  0  0  0
 27 26  1  0  0  0  0
 28 27  1  0  0  0  0
 28 29  1  0  0  0  0
 29 24  1  0  0  0  0
M  END
>  <minimizedAffinity>
-4.20635176

>  <minimizedRMSD>
6.9368639

$$$$
