
 OpenBabel03262519543D

 29 32  0  0  1  0  0  0  0  0999 V2000
   40.2210   25.2720   29.1600 C   0  0  0  0  0  0  0  0  0  0  0  0
   39.6800   24.2610   28.3780 C   0  0  0  0  0  0  0  0  0  0  0  0
   38.9560   23.5070   29.2570 N   0  0  0  0  0  0  0  0  0  0  0  0
   39.0730   24.0460   30.4500 C   0  0  0  0  0  0  0  0  0  0  0  0
   39.8520   25.1460   30.4340 N   0  0  0  0  0  0  0  0  0  0  0  0
   39.8580   24.1820   27.3170 H   0  0  0  0  0  0  0  0  0  0  0  0
   38.5570   23.5740   31.2830 H   0  0  0  0  0  0  0  0  0  0  0  0
   41.0800   26.3410   28.6760 C   0  0  0  0  0  0  0  0  0  0  0  0
   42.4650   26.1990   28.7020 C   0  0  0  0  0  0  0  0  0  0  0  0
   43.2580   27.2600   28.2220 C   0  0  0  0  0  0  0  0  0  0  0  0
   42.6270   28.3550   27.7650 N   0  0  0  0  0  0  0  0  0  0  0  0
   41.2790   28.4730   27.7490 C   0  0  0  0  0  0  0  0  0  0  0  0
   40.5030   27.4690   28.2020 N   0  0  0  0  0  0  0  0  0  0  0  0
   42.8910   25.2990   29.0800 H   0  0  0  0  0  0  0  0  0  0  0  0
   44.3390   27.1740   28.2320 H   0  0  0  0  0  0  0  0  0  0  0  0
   40.8630   29.4070   27.3550 H   0  0  0  0  0  0  0  0  0  0  0  0
   40.1500   25.9360   31.6060 C   0  0  1  0  0  0  0  0  0  0  0  0
   40.4120   27.3730   31.5460 C   0  0  0  0  0  0  0  0  0  0  0  0
   39.0320   26.9170   31.9420 C   0  0  2  0  0  0  0  0  0  0  0  0
   40.5450   25.3210   32.4540 H   0  0  0  0  0  0  0  0  0  0  0  0
   41.0920   27.8070   32.3020 H   0  0  0  0  0  0  0  0  0  0  0  0
   40.5650   27.8230   30.5320 H   0  0  0  0  0  0  0  0  0  0  0  0
   38.2460   27.1240   31.1780 H   0  0  0  0  0  0  0  0  0  0  0  0
   38.7120   27.1920   33.3050 N   0  0  0  0  0  0  0  0  0  0  0  0
   39.5830   26.6310   34.2890 C   0  0  0  0  0  2  0  0  0  0  0  0
   39.0470   27.1400   35.6340 C   0  0  0  0  0  2  0  0  0  0  0  0
   37.7260   26.7500   35.8430 O   0  0  0  0  0  0  0  0  0  0  0  0
   36.9300   27.3120   34.8560 C   0  0  0  0  0  2  0  0  0  0  0  0
   37.3760   26.6770   33.5490 C   0  0  0  0  0  2  0  0  0  0  0  0
  1  5  1  0  0  0  0
  2  1  2  0  0  0  0
  2  3  1  0  0  0  0
  3  4  2  0  0  0  0
  4  7  1  0  0  0  0
  5  4  1  0  0  0  0
  5 17  1  0  0  0  0
  6  2  1  0  0  0  0
  8  9  1  0  0  0  0
  8  1  1  0  0  0  0
  9 14  1  0  0  0  0
 10 15  1  0  0  0  0
 10  9  2  0  0  0  0
 11 10  1  0  0  0  0
 12 11  2  0  0  0  0
 12 13  1  0  0  0  0
 13  8  2  0  0  0  0
 16 12  1  0  0  0  0
 17 19  1  0  0  0  0
 17 20  1  1  0  0  0
 18 17  1  0  0  0  0
 18 19  1  0  0  0  0
 18 21  1  0  0  0  0
 19 23  1  6  0  0  0
 19 24  1  0  0  0  0
 22 18  1  0  0  0  0
 24 29  1  0  0  0  0
 24 25  1  0  0  0  0
 25 26  1  0  0  0  0
 26 27  1  0  0  0  0
 28 27  1  0  0  0  0
 29 28  1  0  0  0  0
M  END
>  <minimizedAffinity>
-2.98375916

>  <minimizedRMSD>
8.72662735

$$$$
