
 OpenBabel03262517383D

 30 32  0  0  0  0  0  0  0  0999 V2000
   39.4570   23.1100   36.8290 C   0  0  0  0  0  0  0  0  0  0  0  0
   39.8630   23.9800   35.8190 C   0  0  0  0  0  0  0  0  0  0  0  0
   41.1730   23.9190   35.4120 C   0  0  0  0  0  0  0  0  0  0  0  0
   42.0080   23.0200   36.0090 N   0  0  0  0  0  0  0  0  0  0  0  0
   41.5800   22.1980   36.9790 C   0  0  0  0  0  0  0  0  0  0  0  0
   40.3110   22.2350   37.3940 N   0  0  0  0  0  0  0  0  0  0  0  0
   41.7960   24.6960   34.4120 N   0  0  0  0  0  0  0  0  0  0  0  0
   42.4610   25.9580   34.5990 C   0  0  0  0  0  0  0  0  0  0  0  0
   41.7630   27.0430   33.8210 C   0  0  0  0  0  0  0  0  0  0  0  0
   40.8910   26.4700   32.8790 O   0  0  0  0  0  0  0  0  0  0  0  0
   41.5790   25.5260   32.1170 C   0  0  0  0  0  0  0  0  0  0  0  0
   41.8620   24.3290   33.0000 C   0  0  0  0  0  0  0  0  0  0  0  0
   39.2440   24.7060   35.3180 H   0  0  0  0  0  0  0  0  0  0  0  0
   42.2490   21.4890   37.4460 H   0  0  0  0  0  0  0  0  0  0  0  0
   43.5210   25.8010   34.2680 H   0  0  0  0  0  0  0  0  0  0  0  0
   42.4540   26.1630   35.6940 H   0  0  0  0  0  0  0  0  0  0  0  0
   42.5260   27.6890   33.3400 H   0  0  0  0  0  0  0  0  0  0  0  0
   41.1310   27.5920   34.5490 H   0  0  0  0  0  0  0  0  0  0  0  0
   40.9690   25.2560   31.2310 H   0  0  0  0  0  0  0  0  0  0  0  0
   42.5270   25.9840   31.7660 H   0  0  0  0  0  0  0  0  0  0  0  0
   42.8670   23.8880   32.7700 H   0  0  0  0  0  0  0  0  0  0  0  0
   41.0390   23.5980   32.8000 H   0  0  0  0  0  0  0  0  0  0  0  0
   38.0580   23.2320   37.1920 C   0  0  0  0  0  0  0  0  0  0  0  0
   37.5970   24.1140   37.9910 O   0  0  0  0  0  0  0  0  0  0  0  0
   37.0710   22.2850   36.6170 C   0  0  0  0  0  0  0  0  0  0  0  0
   37.3220   21.9420   35.3350 C   0  0  0  0  0  0  0  0  0  0  0  0
   35.8910   20.7580   34.9560 S   0  0  0  0  0  0  0  0  0  0  0  0
   35.2360   21.0110   36.7250 C   0  0  0  0  0  0  0  0  0  0  0  0
   34.3720   20.6200   37.2860 H   0  0  0  0  0  0  0  0  0  0  0  0
   36.0000   21.7260   37.1320 N   0  0  0  0  0  0  0  0  0  0  0  0
  1 23  1  0  0  0  0
  1  6  1  0  0  0  0
  2  1  2  0  0  0  0
  3  2  1  0  0  0  0
  3  4  2  0  0  0  0
  4  5  1  0  0  0  0
  5  6  2  0  0  0  0
  5 14  1  0  0  0  0
  7  8  1  0  0  0  0
  7  3  1  0  0  0  0
  8 16  1  0  0  0  0
  9 18  1  0  0  0  0
  9  8  1  0  0  0  0
 10  9  1  0  0  0  0
 11 10  1  0  0  0  0
 11 12  1  0  0  0  0
 12  7  1  0  0  0  0
 13  2  1  0  0  0  0
 15  8  1  0  0  0  0
 17  9  1  0  0  0  0
 19 11  1  0  0  0  0
 20 11  1  0  0  0  0
 21 12  1  0  0  0  0
 22 12  1  0  0  0  0
 23 24  2  0  0  0  0
 25 30  1  0  0  0  0
 25 23  1  0  0  0  0
 26 25  2  0  0  0  0
 27 26  1  0  0  0  0
 27 28  1  0  0  0  0
 28 30  2  0  0  0  0
 28 29  1  0  0  0  0
M  END
>  <minimizedAffinity>
-4.00439644

>  <minimizedRMSD>
3.3016367

$$$$
