
 OpenBabel03262519553D

 29 32  0  0  1  0  0  0  0  0999 V2000
   36.4790   24.3410   31.4350 C   0  0  0  0  0  0  0  0  0  0  0  0
   35.1720   24.6640   31.1040 C   0  0  0  0  0  0  0  0  0  0  0  0
   35.1600   26.0300   31.0740 N   0  0  0  0  0  0  0  0  0  0  0  0
   36.3700   26.4540   31.3650 C   0  0  0  0  0  0  0  0  0  0  0  0
   37.2210   25.4360   31.5970 N   0  0  0  0  0  0  0  0  0  0  0  0
   34.4100   23.9210   30.9310 H   0  0  0  0  0  0  0  0  0  0  0  0
   36.5490   27.5270   31.3880 H   0  0  0  0  0  0  0  0  0  0  0  0
   36.9980   22.9910   31.5910 C   0  0  0  0  0  0  0  0  0  0  0  0
   36.7630   22.2760   32.7620 C   0  0  0  0  0  0  0  0  0  0  0  0
   37.2840   20.9710   32.8690 C   0  0  0  0  0  0  0  0  0  0  0  0
   37.9840   20.4900   31.8260 N   0  0  0  0  0  0  0  0  0  0  0  0
   38.2010   21.2030   30.6970 C   0  0  0  0  0  0  0  0  0  0  0  0
   37.7110   22.4520   30.5750 N   0  0  0  0  0  0  0  0  0  0  0  0
   36.1980   22.7250   33.5450 H   0  0  0  0  0  0  0  0  0  0  0  0
   37.1140   20.3930   33.7710 H   0  0  0  0  0  0  0  0  0  0  0  0
   38.7840   20.7190   29.9050 H   0  0  0  0  0  0  0  0  0  0  0  0
   38.6130   25.6150   31.9390 C   0  0  1  0  0  0  0  0  0  0  0  0
   39.0980   26.7690   32.6950 C   0  0  0  0  0  0  0  0  0  0  0  0
   38.8620   25.4800   33.4380 C   0  0  2  0  0  0  0  0  0  0  0  0
   39.3030   25.0450   31.2660 H   0  0  0  0  0  0  0  0  0  0  0  0
   40.1300   27.1170   32.5020 H   0  0  0  0  0  0  0  0  0  0  0  0
   38.3860   27.6200   32.8440 H   0  0  0  0  0  0  0  0  0  0  0  0
   37.9920   25.5080   34.1350 H   0  0  0  0  0  0  0  0  0  0  0  0
   40.0620   24.8660   33.9070 N   0  0  0  0  0  0  0  0  0  0  0  0
   39.9090   23.6550   34.6470 C   0  0  0  0  0  2  0  0  0  0  0  0
   41.3410   23.1920   34.9570 C   0  0  0  0  0  2  0  0  0  0  0  0
   42.0450   24.1480   35.6840 O   0  0  0  0  0  0  0  0  0  0  0  0
   42.1520   25.3040   34.9250 C   0  0  0  0  0  2  0  0  0  0  0  0
   40.7340   25.8300   34.7610 C   0  0  0  0  0  2  0  0  0  0  0  0
  1  8  1  0  0  0  0
  1  5  1  0  0  0  0
  2  1  2  0  0  0  0
  3  2  1  0  0  0  0
  3  4  2  0  0  0  0
  4  7  1  0  0  0  0
  4  5  1  0  0  0  0
  5 17  1  0  0  0  0
  6  2  1  0  0  0  0
  8  9  1  0  0  0  0
  9 10  2  0  0  0  0
  9 14  1  0  0  0  0
 10 15  1  0  0  0  0
 11 10  1  0  0  0  0
 12 11  2  0  0  0  0
 13 12  1  0  0  0  0
 13  8  2  0  0  0  0
 16 12  1  0  0  0  0
 17 20  1  6  0  0  0
 17 18  1  0  0  0  0
 17 19  1  0  0  0  0
 18 22  1  0  0  0  0
 18 19  1  0  0  0  0
 19 24  1  0  0  0  0
 19 23  1  1  0  0  0
 21 18  1  0  0  0  0
 24 25  1  0  0  0  0
 24 29  1  0  0  0  0
 25 26  1  0  0  0  0
 26 27  1  0  0  0  0
 28 27  1  0  0  0  0
 29 28  1  0  0  0  0
M  END
>  <minimizedAffinity>
-3.7345047

>  <minimizedRMSD>
6.73214674

$$$$
