
 OpenBabel03262519543D

 29 32  0  0  1  0  0  0  0  0999 V2000
   38.7910   25.8840   31.7860 C   0  0  0  0  0  0  0  0  0  0  0  0
   39.1200   26.6470   30.6750 C   0  0  0  0  0  0  0  0  0  0  0  0
   39.2240   25.7380   29.6620 N   0  0  0  0  0  0  0  0  0  0  0  0
   38.9730   24.5450   30.1560 C   0  0  0  0  0  0  0  0  0  0  0  0
   38.6990   24.5920   31.4750 N   0  0  0  0  0  0  0  0  0  0  0  0
   39.2430   27.7180   30.7150 H   0  0  0  0  0  0  0  0  0  0  0  0
   39.0100   23.6900   29.4860 H   0  0  0  0  0  0  0  0  0  0  0  0
   38.5700   26.4030   33.1270 C   0  0  0  0  0  0  0  0  0  0  0  0
   39.6100   26.4330   34.0520 C   0  0  0  0  0  0  0  0  0  0  0  0
   39.3510   26.9450   35.3390 C   0  0  0  0  0  0  0  0  0  0  0  0
   38.1050   27.3770   35.6000 N   0  0  0  0  0  0  0  0  0  0  0  0
   37.1080   27.3390   34.6860 C   0  0  0  0  0  0  0  0  0  0  0  0
   37.3360   26.8540   33.4500 N   0  0  0  0  0  0  0  0  0  0  0  0
   40.5720   26.0720   33.7700 H   0  0  0  0  0  0  0  0  0  0  0  0
   40.1440   26.9790   36.0780 H   0  0  0  0  0  0  0  0  0  0  0  0
   36.1280   27.7160   34.9990 H   0  0  0  0  0  0  0  0  0  0  0  0
   38.3870   23.4280   32.2720 C   0  0  1  0  0  0  0  0  0  0  0  0
   37.4210   23.4570   33.3690 C   0  0  0  0  0  0  0  0  0  0  0  0
   36.9660   22.9280   32.0330 C   0  0  2  0  0  0  0  0  0  0  0  0
   39.1970   22.6560   32.2470 H   0  0  0  0  0  0  0  0  0  0  0  0
   37.5790   22.7640   34.2150 H   0  0  0  0  0  0  0  0  0  0  0  0
   37.0600   24.4620   33.7070 H   0  0  0  0  0  0  0  0  0  0  0  0
   36.2410   23.5910   31.5030 H   0  0  0  0  0  0  0  0  0  0  0  0
   36.6940   21.5280   32.0390 N   0  0  0  0  0  0  0  0  0  0  0  0
   36.3760   20.9370   30.7800 C   0  0  0  0  0  2  0  0  0  0  0  0
   36.2060   19.4380   31.0730 C   0  0  0  0  0  2  0  0  0  0  0  0
   35.2020   19.2090   32.0110 O   0  0  0  0  0  0  0  0  0  0  0  0
   35.5560   19.8140   33.2070 C   0  0  0  0  0  2  0  0  0  0  0  0
   35.5680   21.3090   32.9320 C   0  0  0  0  0  2  0  0  0  0  0  0
  1  8  1  0  0  0  0
  2  6  1  0  0  0  0
  2  1  2  0  0  0  0
  3  4  2  0  0  0  0
  3  2  1  0  0  0  0
  4  5  1  0  0  0  0
  5  1  1  0  0  0  0
  5 17  1  0  0  0  0
  7  4  1  0  0  0  0
  8 13  2  0  0  0  0
  8  9  1  0  0  0  0
  9 10  2  0  0  0  0
 10 11  1  0  0  0  0
 10 15  1  0  0  0  0
 12 16  1  0  0  0  0
 12 11  2  0  0  0  0
 13 12  1  0  0  0  0
 14  9  1  0  0  0  0
 17 20  1  1  0  0  0
 17 18  1  0  0  0  0
 18 22  1  0  0  0  0
 18 21  1  0  0  0  0
 19 23  1  6  0  0  0
 19 24  1  0  0  0  0
 19 17  1  0  0  0  0
 19 18  1  0  0  0  0
 24 29  1  0  0  0  0
 25 26  1  0  0  0  0
 25 24  1  0  0  0  0
 26 27  1  0  0  0  0
 27 28  1  0  0  0  0
 29 28  1  0  0  0  0
M  END
>  <minimizedAffinity>
-3.96253967

>  <minimizedRMSD>
3.77413297

$$$$
