
 OpenBabel03262519543D

 29 32  0  0  1  0  0  0  0  0999 V2000
   38.1300   23.9610   34.6760 C   0  0  0  0  0  0  0  0  0  0  0  0
   38.2320   25.1930   34.0480 C   0  0  0  0  0  0  0  0  0  0  0  0
   37.8410   24.9490   32.7630 N   0  0  0  0  0  0  0  0  0  0  0  0
   37.5390   23.6730   32.6640 C   0  0  0  0  0  0  0  0  0  0  0  0
   37.7050   23.0220   33.8320 N   0  0  0  0  0  0  0  0  0  0  0  0
   38.5590   26.0860   34.5580 H   0  0  0  0  0  0  0  0  0  0  0  0
   37.2040   23.2950   31.7010 H   0  0  0  0  0  0  0  0  0  0  0  0
   38.4410   23.7000   36.0740 C   0  0  0  0  0  0  0  0  0  0  0  0
   39.6360   23.0800   36.4260 C   0  0  0  0  0  0  0  0  0  0  0  0
   39.8950   22.8480   37.7920 C   0  0  0  0  0  0  0  0  0  0  0  0
   38.9660   23.2430   38.6810 N   0  0  0  0  0  0  0  0  0  0  0  0
   37.8100   23.8450   38.3160 C   0  0  0  0  0  0  0  0  0  0  0  0
   37.5450   24.0750   37.0150 N   0  0  0  0  0  0  0  0  0  0  0  0
   40.3230   22.7960   35.6640 H   0  0  0  0  0  0  0  0  0  0  0  0
   40.8190   22.3660   38.0930 H   0  0  0  0  0  0  0  0  0  0  0  0
   37.1200   24.1280   39.1170 H   0  0  0  0  0  0  0  0  0  0  0  0
   37.4470   21.6120   34.0080 C   0  0  1  0  0  0  0  0  0  0  0  0
   36.1450   21.0930   34.4270 C   0  0  0  0  0  0  0  0  0  0  0  0
   36.4830   21.0650   32.9590 C   0  0  2  0  0  0  0  0  0  0  0  0
   38.3790   21.0180   34.1860 H   0  0  0  0  0  0  0  0  0  0  0  0
   36.1260   20.1540   35.0100 H   0  0  0  0  0  0  0  0  0  0  0  0
   35.3930   21.8360   34.7970 H   0  0  0  0  0  0  0  0  0  0  0  0
   35.8940   21.7820   32.3410 H   0  0  0  0  0  0  0  0  0  0  0  0
   36.6670   19.7480   32.4430 N   0  0  0  0  0  0  0  0  0  0  0  0
   37.0650   19.6500   31.0760 C   0  0  0  0  0  2  0  0  0  0  0  0
   37.2510   18.1470   30.8200 C   0  0  0  0  0  2  0  0  0  0  0  0
   36.0790   17.4340   31.0620 O   0  0  0  0  0  0  0  0  0  0  0  0
   35.7350   17.5740   32.3970 C   0  0  0  0  0  2  0  0  0  0  0  0
   35.4040   19.0460   32.5920 C   0  0  0  0  0  2  0  0  0  0  0  0
  1  8  1  0  0  0  0
  2  6  1  0  0  0  0
  2  1  2  0  0  0  0
  3  2  1  0  0  0  0
  4  3  2  0  0  0  0
  4  5  1  0  0  0  0
  5 17  1  0  0  0  0
  5  1  1  0  0  0  0
  7  4  1  0  0  0  0
  8  9  2  0  0  0  0
  8 13  1  0  0  0  0
  9 10  1  0  0  0  0
 10 15  1  0  0  0  0
 10 11  2  0  0  0  0
 12 11  1  0  0  0  0
 12 16  1  0  0  0  0
 13 12  2  0  0  0  0
 14  9  1  0  0  0  0
 17 20  1  1  0  0  0
 17 18  1  0  0  0  0
 18 22  1  0  0  0  0
 18 21  1  0  0  0  0
 19 23  1  6  0  0  0
 19 17  1  0  0  0  0
 19 18  1  0  0  0  0
 24 29  1  0  0  0  0
 24 19  1  0  0  0  0
 25 24  1  0  0  0  0
 26 27  1  0  0  0  0
 26 25  1  0  0  0  0
 27 28  1  0  0  0  0
 28 29  1  0  0  0  0
M  END
>  <minimizedAffinity>
-4.58404493

>  <minimizedRMSD>
1.39035249

$$$$
