
 OpenBabel03262516293D

 40 42  0  0  0  0  0  0  0  0999 V2000
   37.7910   23.0110   33.9350 C   0  0  0  0  0  0  0  0  0  0  0  0
   38.1120   24.3520   33.8560 C   0  0  0  0  0  0  0  0  0  0  0  0
   38.8850   24.9710   34.8120 C   0  0  0  0  0  0  0  0  0  0  0  0
   39.3180   24.2080   35.8380 N   0  0  0  0  0  0  0  0  0  0  0  0
   39.0020   22.8840   35.9180 C   0  0  0  0  0  0  0  0  0  0  0  0
   38.2490   22.2880   34.9830 N   0  0  0  0  0  0  0  0  0  0  0  0
   37.7340   24.9120   33.0110 H   0  0  0  0  0  0  0  0  0  0  0  0
   39.4050   22.3630   36.7880 H   0  0  0  0  0  0  0  0  0  0  0  0
   36.9770   22.2910   32.9670 C   0  0  0  0  0  0  0  0  0  0  0  0
   36.3470   21.0960   33.3210 C   0  0  0  0  0  0  0  0  0  0  0  0
   35.6460   20.6250   32.2330 C   0  0  0  0  0  0  0  0  0  0  0  0
   35.8990   21.5840   31.2580 C   0  0  0  0  0  0  0  0  0  0  0  0
   36.6850   22.5370   31.7450 O   0  0  0  0  0  0  0  0  0  0  0  0
   36.3460   20.5460   34.2710 H   0  0  0  0  0  0  0  0  0  0  0  0
   35.4950   21.5380   30.2410 H   0  0  0  0  0  0  0  0  0  0  0  0
   34.8270   19.4050   32.1320 C   0  0  0  0  0  0  0  0  0  0  0  0
   34.2910   19.3530   31.1920 H   0  0  0  0  0  0  0  0  0  0  0  0
   34.0600   19.4850   32.9520 H   0  0  0  0  0  0  0  0  0  0  0  0
   35.6260   18.1510   32.4840 C   0  0  0  0  0  0  0  0  0  0  0  0
   35.0240   17.4390   33.0750 H   0  0  0  0  0  0  0  0  0  0  0  0
   36.4140   18.5160   33.2030 H   0  0  0  0  0  0  0  0  0  0  0  0
   36.3230   17.6050   31.3750 N   0  0  0  0  0  0  0  0  0  0  0  0
   36.0860   16.2110   31.1060 C   0  0  0  0  0  0  0  0  0  0  0  0
   36.3110   15.4160   32.3490 C   0  0  0  0  0  0  0  0  0  0  0  0
   37.6040   15.5990   32.7830 O   0  0  0  0  0  0  0  0  0  0  0  0
   38.3940   16.3870   31.9650 C   0  0  0  0  0  0  0  0  0  0  0  0
   37.7560   17.7270   31.6760 C   0  0  0  0  0  0  0  0  0  0  0  0
   39.2360   26.3990   34.7380 C   0  0  0  0  0  0  0  0  0  0  0  0
   38.6350   27.1910   35.8820 C   0  0  0  0  0  0  0  0  0  0  0  0
   39.2110   27.1260   36.8220 H   0  0  0  0  0  0  0  0  0  0  0  0
   37.5830   26.8550   36.0650 H   0  0  0  0  0  0  0  0  0  0  0  0
   38.6840   28.2760   35.5750 H   0  0  0  0  0  0  0  0  0  0  0  0
   38.7570   27.0100   33.4170 C   0  0  0  0  0  0  0  0  0  0  0  0
   39.2810   27.9910   33.3050 H   0  0  0  0  0  0  0  0  0  0  0  0
   39.1570   26.3690   32.5890 H   0  0  0  0  0  0  0  0  0  0  0  0
   37.6610   27.0800   33.3900 H   0  0  0  0  0  0  0  0  0  0  0  0
   40.7390   26.5100   34.7560 C   0  0  0  0  0  0  0  0  0  0  0  0
   41.1390   25.6890   34.1300 H   0  0  0  0  0  0  0  0  0  0  0  0
   41.1210   27.4890   34.3980 H   0  0  0  0  0  0  0  0  0  0  0  0
   41.0920   26.3440   35.7930 H   0  0  0  0  0  0  0  0  0  0  0  0
  1  6  1  0  0  0  0
  2  1  2  0  0  0  0
  2  3  1  0  0  0  0
  3  4  2  0  0  0  0
  4  5  1  0  0  0  0
  5  8  1  0  0  0  0
  6  5  2  0  0  0  0
  7  2  1  0  0  0  0
  9 10  2  0  0  0  0
  9  1  1  0  0  0  0
 10 14  1  0  0  0  0
 11 10  1  0  0  0  0
 12 13  1  0  0  0  0
 12 11  2  0  0  0  0
 13  9  1  0  0  0  0
 15 12  1  0  0  0  0
 16 11  1  0  0  0  0
 16 19  1  0  0  0  0
 16 18  1  0  0  0  0
 17 16  1  0  0  0  0
 19 20  1  0  0  0  0
 19 21  1  0  0  0  0
 22 27  1  0  0  0  0
 22 19  1  0  0  0  0
 23 22  1  0  0  0  0
 23 24  1  0  0  0  0
 24 25  1  0  0  0  0
 26 25  1  0  0  0  0
 27 26  1  0  0  0  0
 28 37  1  0  0  0  0
 28  3  1  0  0  0  0
 28 29  1  0  0  0  0
 29 31  1  0  0  0  0
 29 30  1  0  0  0  0
 32 29  1  0  0  0  0
 33 28  1  0  0  0  0
 34 33  1  0  0  0  0
 35 33  1  0  0  0  0
 36 33  1  0  0  0  0
 37 40  1  0  0  0  0
 38 37  1  0  0  0  0
 39 37  1  0  0  0  0
M  END
>  <minimizedAffinity>
-4.94317436

>  <minimizedRMSD>
0.441618443

$$$$
