
 OpenBabel03262519443D

 31 33  0  0  1  0  0  0  0  0999 V2000
   39.2480   24.9650   35.5290 C   0  0  0  0  0  0  0  0  0  0  0  0
   38.2280   25.3200   35.5840 H   0  0  0  0  0  0  0  0  0  0  0  0
   39.6030   24.9210   36.5970 H   0  0  0  0  0  0  0  0  0  0  0  0
   40.1050   25.8220   34.8070 N   0  0  0  0  0  0  0  0  0  0  0  0
   41.4220   26.0790   34.7940 C   0  0  0  0  0  0  0  0  0  0  0  0
   41.8250   27.0320   33.8860 C   0  0  0  0  0  0  0  0  0  0  0  0
   40.6600   27.3880   33.2920 N   0  0  0  0  0  0  0  0  0  0  0  0
   39.6530   26.6700   33.8420 C   0  0  0  0  0  0  0  0  0  0  0  0
   42.1210   25.5690   35.4530 H   0  0  0  0  0  0  0  0  0  0  0  0
   42.8100   27.3940   33.7010 H   0  0  0  0  0  0  0  0  0  0  0  0
   38.3020   26.8250   33.4050 N   0  0  0  0  0  0  0  0  0  0  0  0
   37.1890   26.6320   34.3470 C   0  0  0  0  0  0  0  0  0  0  0  0
   36.5920   28.0130   34.6030 C   0  0  0  0  0  0  0  0  0  0  0  0
   36.3750   28.6810   33.4030 O   0  0  0  0  0  0  0  0  0  0  0  0
   36.4060   27.8140   32.3130 C   0  0  0  0  0  0  0  0  0  0  0  0
   37.7640   27.1740   32.1020 C   0  0  0  0  0  0  0  0  0  0  0  0
   39.2550   23.5610   35.0120 C   0  0  1  0  0  0  0  0  0  0  0  0
   39.5620   23.6300   33.9490 H   0  0  0  0  0  0  0  0  0  0  0  0
   41.2570   21.6470   37.5850 C   0  0  0  0  0  0  0  0  0  0  0  0
   40.2480   22.4610   37.0600 C   0  0  0  0  0  0  0  0  0  0  0  0
   40.2720   22.7000   35.6600 C   0  0  0  0  0  0  0  0  0  0  0  0
   41.2740   22.1270   34.9000 N   0  0  0  0  0  0  0  0  0  0  0  0
   42.2100   21.3610   35.4410 C   0  0  0  0  0  0  0  0  0  0  0  0
   42.2050   21.1160   36.8020 N   0  0  0  0  0  0  0  0  0  0  0  0
   41.2490   21.4580   38.6470 H   0  0  0  0  0  0  0  0  0  0  0  0
   39.4540   22.9150   37.6660 H   0  0  0  0  0  0  0  0  0  0  0  0
   42.9920   20.9160   34.8240 H   0  0  0  0  0  0  0  0  0  0  0  0
   37.8810   22.9530   35.1020 C   0  0  0  0  0  0  0  0  0  0  0  0
   37.8900   21.8660   34.8590 H   0  0  0  0  0  0  0  0  0  0  0  0
   37.3860   23.1760   36.0740 H   0  0  0  0  0  0  0  0  0  0  0  0
   37.2150   23.3970   34.3070 H   0  0  0  0  0  0  0  0  0  0  0  0
  1  2  1  0  0  0  0
  1  3  1  0  0  0  0
  4  1  1  0  0  0  0
  5  4  1  0  0  0  0
  5  9  1  0  0  0  0
  6  5  2  0  0  0  0
  7  8  2  0  0  0  0
  7  6  1  0  0  0  0
  8  4  1  0  0  0  0
 10  6  1  0  0  0  0
 11  8  1  0  0  0  0
 11 12  1  0  0  0  0
 12 13  1  0  0  0  0
 14 13  1  0  0  0  0
 15 14  1  0  0  0  0
 16 15  1  0  0  0  0
 16 11  1  0  0  0  0
 17 18  1  6  0  0  0
 17 28  1  0  0  0  0
 17  1  1  0  0  0  0
 17 21  1  0  0  0  0
 19 25  1  0  0  0  0
 20 19  1  0  0  0  0
 20 26  1  0  0  0  0
 21 20  2  0  0  0  0
 22 23  2  0  0  0  0
 22 21  1  0  0  0  0
 23 24  1  0  0  0  0
 24 19  2  0  0  0  0
 27 23  1  0  0  0  0
 28 30  1  0  0  0  0
 29 28  1  0  0  0  0
 31 28  1  0  0  0  0
M  END
>  <minimizedAffinity>
-4.22331238

>  <minimizedRMSD>
3.13504267

$$$$
