
 OpenBabel03262519013D

 36 39  0  0  0  0  0  0  0  0999 V2000
   37.7150   27.2160   35.1160 C   0  0  0  0  0  0  0  0  0  0  0  0
   37.0430   27.0270   35.9510 H   0  0  0  0  0  0  0  0  0  0  0  0
   38.0580   28.2850   35.3010 H   0  0  0  0  0  0  0  0  0  0  0  0
   38.9600   26.4640   35.0570 C   0  0  0  0  0  0  0  0  0  0  0  0
   40.0790   26.9820   34.4070 C   0  0  0  0  0  0  0  0  0  0  0  0
   41.2530   26.2830   34.3580 C   0  0  0  0  0  0  0  0  0  0  0  0
   41.3750   25.0280   34.9540 C   0  0  0  0  0  0  0  0  0  0  0  0
   40.2590   24.5050   35.6060 C   0  0  0  0  0  0  0  0  0  0  0  0
   40.3600   23.2620   36.2030 C   0  0  0  0  0  0  0  0  0  0  0  0
   39.2930   22.7020   36.8550 C   0  0  0  0  0  0  0  0  0  0  0  0
   38.1090   23.4060   36.9040 C   0  0  0  0  0  0  0  0  0  0  0  0
   38.0340   24.6530   36.2970 C   0  0  0  0  0  0  0  0  0  0  0  0
   39.0820   25.2490   35.6320 C   0  0  0  0  0  0  0  0  0  0  0  0
   40.0110   27.9550   33.9360 H   0  0  0  0  0  0  0  0  0  0  0  0
   42.1390   26.6530   33.8650 H   0  0  0  0  0  0  0  0  0  0  0  0
   42.2680   24.4350   34.9480 H   0  0  0  0  0  0  0  0  0  0  0  0
   41.2850   22.6790   36.1810 H   0  0  0  0  0  0  0  0  0  0  0  0
   39.3720   21.7280   37.3230 H   0  0  0  0  0  0  0  0  0  0  0  0
   37.2820   22.9450   37.4230 H   0  0  0  0  0  0  0  0  0  0  0  0
   37.0700   25.1230   36.3870 H   0  0  0  0  0  0  0  0  0  0  0  0
   36.1620   28.7560   32.1800 C   0  0  0  0  0  0  0  0  0  0  0  0
   35.7770   27.6840   31.3810 C   0  0  0  0  0  0  0  0  0  0  0  0
   36.0510   26.3790   31.8550 C   0  0  0  0  0  0  0  0  0  0  0  0
   36.6790   26.2590   33.0700 N   0  0  0  0  0  0  0  0  0  0  0  0
   37.0250   27.3170   33.7900 C   0  0  0  0  0  0  0  0  0  0  0  0
   36.7700   28.5600   33.3510 N   0  0  0  0  0  0  0  0  0  0  0  0
   35.9620   29.7660   31.8370 H   0  0  0  0  0  0  0  0  0  0  0  0
   35.2780   27.8040   30.4180 H   0  0  0  0  0  0  0  0  0  0  0  0
   35.6820   25.2220   31.0780 C   0  0  0  0  0  0  0  0  0  0  0  0
   34.5680   25.2250   30.4970 O   0  0  0  0  0  0  0  0  0  0  0  0
   36.5760   24.0500   30.9520 C   0  0  0  0  0  0  0  0  0  0  0  0
   36.1350   22.7720   31.4540 C   0  0  0  0  0  0  0  0  0  0  0  0
   37.5430   21.7110   31.0710 S   0  0  0  0  0  0  0  0  0  0  0  0
   38.5130   23.1360   30.2950 C   0  0  0  0  0  0  0  0  0  0  0  0
   39.5120   23.0670   29.8620 H   0  0  0  0  0  0  0  0  0  0  0  0
   37.7860   24.0700   30.4020 N   0  0  0  0  0  0  0  0  0  0  0  0
  1  3  1  0  0  0  0
  1  2  1  0  0  0  0
  4  1  1  0  0  0  0
  4 13  1  0  0  0  0
  5  4  2  0  0  0  0
  6  5  1  0  0  0  0
  6  7  2  0  0  0  0
  7  8  1  0  0  0  0
  8 13  2  0  0  0  0
  8  9  1  0  0  0  0
  9 10  2  0  0  0  0
 10 11  1  0  0  0  0
 10 18  1  0  0  0  0
 11 19  1  0  0  0  0
 12 20  1  0  0  0  0
 12 11  2  0  0  0  0
 13 12  1  0  0  0  0
 14  5  1  0  0  0  0
 15  6  1  0  0  0  0
 16  7  1  0  0  0  0
 17  9  1  0  0  0  0
 21 26  1  0  0  0  0
 22 23  1  0  0  0  0
 22 21  2  0  0  0  0
 23 24  2  0  0  0  0
 24 25  1  0  0  0  0
 25  1  1  0  0  0  0
 26 25  2  0  0  0  0
 27 21  1  0  0  0  0
 28 22  1  0  0  0  0
 29 23  1  0  0  0  0
 30 29  2  0  0  0  0
 31 29  1  0  0  0  0
 31 32  2  0  0  0  0
 33 32  1  0  0  0  0
 34 36  2  0  0  0  0
 34 33  1  0  0  0  0
 35 34  1  0  0  0  0
 36 31  1  0  0  0  0
M  END
>  <minimizedAffinity>
-5.86948776

>  <minimizedRMSD>
1.75789893

$$$$
