
 OpenBabel03262519543D

 29 32  0  0  1  0  0  0  0  0999 V2000
   38.1820   24.2530   34.8030 C   0  0  0  0  0  0  0  0  0  0  0  0
   38.2040   25.5370   34.2790 C   0  0  0  0  0  0  0  0  0  0  0  0
   37.8600   25.3720   32.9680 N   0  0  0  0  0  0  0  0  0  0  0  0
   37.6570   24.0900   32.7580 C   0  0  0  0  0  0  0  0  0  0  0  0
   37.8460   23.3580   33.8740 N   0  0  0  0  0  0  0  0  0  0  0  0
   38.4520   26.4060   34.8680 H   0  0  0  0  0  0  0  0  0  0  0  0
   37.3720   23.7690   31.7590 H   0  0  0  0  0  0  0  0  0  0  0  0
   38.4810   23.9020   36.1830 C   0  0  0  0  0  0  0  0  0  0  0  0
   39.6540   23.2240   36.4990 C   0  0  0  0  0  0  0  0  0  0  0  0
   39.9030   22.9040   37.8490 C   0  0  0  0  0  0  0  0  0  0  0  0
   38.9850   23.2760   38.7590 N   0  0  0  0  0  0  0  0  0  0  0  0
   37.8500   23.9350   38.4290 C   0  0  0  0  0  0  0  0  0  0  0  0
   37.5950   24.2490   37.1440 N   0  0  0  0  0  0  0  0  0  0  0  0
   40.3340   22.9630   35.7220 H   0  0  0  0  0  0  0  0  0  0  0  0
   40.8100   22.3760   38.1210 H   0  0  0  0  0  0  0  0  0  0  0  0
   37.1670   24.1930   39.2460 H   0  0  0  0  0  0  0  0  0  0  0  0
   37.6900   21.9230   33.9290 C   0  0  1  0  0  0  0  0  0  0  0  0
   36.5690   21.2750   34.6080 C   0  0  0  0  0  0  0  0  0  0  0  0
   36.4960   21.4400   33.1120 C   0  0  2  0  0  0  0  0  0  0  0  0
   38.6540   21.3760   33.7730 H   0  0  0  0  0  0  0  0  0  0  0  0
   36.7390   20.2760   35.0490 H   0  0  0  0  0  0  0  0  0  0  0  0
   35.9230   21.9190   35.2580 H   0  0  0  0  0  0  0  0  0  0  0  0
   35.7380   22.1840   32.7710 H   0  0  0  0  0  0  0  0  0  0  0  0
   36.5740   20.2060   32.4000 N   0  0  0  0  0  0  0  0  0  0  0  0
   36.4100   20.2780   30.9830 C   0  0  0  0  0  2  0  0  0  0  0  0
   36.6080   18.8400   30.4840 C   0  0  0  0  0  2  0  0  0  0  0  0
   35.6900   17.9640   31.0590 O   0  0  0  0  0  0  0  0  0  0  0  0
   35.8860   17.9440   32.4310 C   0  0  0  0  0  2  0  0  0  0  0  0
   35.5340   19.3390   32.9260 C   0  0  0  0  0  2  0  0  0  0  0  0
  1  8  1  0  0  0  0
  2  1  2  0  0  0  0
  2  6  1  0  0  0  0
  3  2  1  0  0  0  0
  4  3  2  0  0  0  0
  4  5  1  0  0  0  0
  5 17  1  0  0  0  0
  5  1  1  0  0  0  0
  7  4  1  0  0  0  0
  8  9  2  0  0  0  0
  8 13  1  0  0  0  0
  9 10  1  0  0  0  0
 10 15  1  0  0  0  0
 10 11  2  0  0  0  0
 12 11  1  0  0  0  0
 12 16  1  0  0  0  0
 13 12  2  0  0  0  0
 14  9  1  0  0  0  0
 17 20  1  6  0  0  0
 17 18  1  0  0  0  0
 18 21  1  0  0  0  0
 18 22  1  0  0  0  0
 19 23  1  6  0  0  0
 19 17  1  0  0  0  0
 19 18  1  0  0  0  0
 24 29  1  0  0  0  0
 24 19  1  0  0  0  0
 25 24  1  0  0  0  0
 26 25  1  0  0  0  0
 26 27  1  0  0  0  0
 27 28  1  0  0  0  0
 28 29  1  0  0  0  0
M  END
>  <minimizedAffinity>
-4.5985465

>  <minimizedRMSD>
1.34887028

$$$$
