
 OpenBabel03262517533D

 28 31  0  0  0  0  0  0  0  0999 V2000
   37.3760   23.1940   36.9650 C   0  0  0  0  0  0  0  0  0  0  0  0
   38.3480   22.8450   36.0050 C   0  0  0  0  0  0  0  0  0  0  0  0
   39.6690   22.7510   36.4100 C   0  0  0  0  0  0  0  0  0  0  0  0
   39.9760   23.0000   37.7150 N   0  0  0  0  0  0  0  0  0  0  0  0
   39.0290   23.3280   38.6030 C   0  0  0  0  0  0  0  0  0  0  0  0
   37.7400   23.4230   38.2240 N   0  0  0  0  0  0  0  0  0  0  0  0
   36.3290   23.2840   36.7110 H   0  0  0  0  0  0  0  0  0  0  0  0
   39.2710   23.5270   39.6520 H   0  0  0  0  0  0  0  0  0  0  0  0
   37.8670   22.6210   34.6990 N   0  0  0  0  0  0  0  0  0  0  0  0
   37.8100   23.4590   33.5940 C   0  0  0  0  0  0  0  0  0  0  0  0
   37.2480   22.7740   32.5620 N   0  0  0  0  0  0  0  0  0  0  0  0
   36.9640   21.5250   33.0290 C   0  0  0  0  0  0  0  0  0  0  0  0
   37.3510   21.4560   34.3370 N   0  0  0  0  0  0  0  0  0  0  0  0
   38.1790   24.4720   33.6460 H   0  0  0  0  0  0  0  0  0  0  0  0
   36.5230   20.6280   32.6090 H   0  0  0  0  0  0  0  0  0  0  0  0
   40.6160   22.3880   35.4230 N   0  0  0  0  0  0  0  0  0  0  0  0
   41.0970   21.2570   34.9440 N   0  0  0  0  0  0  0  0  0  0  0  0
   41.9940   21.4240   33.9900 C   0  0  0  0  0  0  0  0  0  0  0  0
   42.1220   22.7700   33.8170 C   0  0  0  0  0  0  0  0  0  0  0  0
   41.2580   23.3590   34.7170 C   0  0  0  0  0  0  0  0  0  0  0  0
   42.4860   20.5990   33.4930 H   0  0  0  0  0  0  0  0  0  0  0  0
   42.8090   23.1830   33.0820 H   0  0  0  0  0  0  0  0  0  0  0  0
   41.1990   24.7780   34.7540 N   0  0  0  0  0  0  0  0  0  0  0  0
   42.5120   25.3740   34.8810 C   0  0  0  0  0  0  0  0  0  0  0  0
   42.6080   26.3420   33.6920 C   0  0  0  0  0  0  0  0  0  0  0  0
   41.8460   27.4200   34.0730 O   0  0  0  0  0  0  0  0  0  0  0  0
   40.5670   27.1350   34.4350 C   0  0  0  0  0  0  0  0  0  0  0  0
   40.1640   25.7450   34.6780 C   0  0  0  0  0  0  0  0  0  0  0  0
  1  6  1  0  0  0  0
  2  3  1  0  0  0  0
  2  1  2  0  0  0  0
  3  4  2  0  0  0  0
  4  5  1  0  0  0  0
  5  8  1  0  0  0  0
  6  5  2  0  0  0  0
  7  1  1  0  0  0  0
  9  2  1  0  0  0  0
 10 14  1  0  0  0  0
 10  9  1  0  0  0  0
 11 12  1  0  0  0  0
 11 10  2  0  0  0  0
 12 13  2  0  0  0  0
 13  9  1  0  0  0  0
 15 12  1  0  0  0  0
 16  3  1  0  0  0  0
 17 16  1  0  0  0  0
 18 17  2  0  0  0  0
 19 18  1  0  0  0  0
 19 20  2  0  0  0  0
 20 23  1  0  0  0  0
 20 16  1  0  0  0  0
 21 18  1  0  0  0  0
 22 19  1  0  0  0  0
 23 24  1  0  0  0  0
 25 26  1  0  0  0  0
 25 24  1  0  0  0  0
 26 27  1  0  0  0  0
 27 28  2  0  0  0  0
 28 23  1  0  0  0  0
M  END
>  <minimizedAffinity>
-4.09989023

>  <minimizedRMSD>
0.902702093

$$$$
