
 OpenBabel03262519243D

 42 47  0  0  0  0  0  0  0  0999 V2000
   38.9690   24.0430   32.3470 C   0  0  0  0  0  0  0  0  0  0  0  0
   39.6020   22.8080   32.4500 C   0  0  0  0  0  0  0  0  0  0  0  0
   38.9440   21.6070   32.1800 C   0  0  0  0  0  0  0  0  0  0  0  0
   37.6090   21.6250   31.7940 C   0  0  0  0  0  0  0  0  0  0  0  0
   36.9590   22.8420   31.6850 C   0  0  0  0  0  0  0  0  0  0  0  0
   35.6440   22.8740   31.3070 C   0  0  0  0  0  0  0  0  0  0  0  0
   34.9440   24.0400   31.1760 C   0  0  0  0  0  0  0  0  0  0  0  0
   35.6330   25.2290   31.4480 C   0  0  0  0  0  0  0  0  0  0  0  0
   36.9650   25.1470   31.8280 C   0  0  0  0  0  0  0  0  0  0  0  0
   37.6560   23.9840   31.9600 C   0  0  0  0  0  0  0  0  0  0  0  0
   40.6510   22.8540   32.7580 H   0  0  0  0  0  0  0  0  0  0  0  0
   39.5100   20.7030   32.2850 H   0  0  0  0  0  0  0  0  0  0  0  0
   37.1010   20.6990   31.5860 H   0  0  0  0  0  0  0  0  0  0  0  0
   35.1880   21.9200   31.1180 H   0  0  0  0  0  0  0  0  0  0  0  0
   33.8960   23.9120   30.8680 H   0  0  0  0  0  0  0  0  0  0  0  0
   34.9430   26.0490   31.2970 H   0  0  0  0  0  0  0  0  0  0  0  0
   39.6760   25.2540   32.6490 C   0  0  0  0  0  0  0  0  0  0  0  0
   39.8040   25.7640   33.9580 C   0  0  0  0  0  0  0  0  0  0  0  0
   40.5290   26.9410   34.1310 C   0  0  0  0  0  0  0  0  0  0  0  0
   41.0880   27.5540   33.0420 N   0  0  0  0  0  0  0  0  0  0  0  0
   40.9500   27.0390   31.7990 C   0  0  0  0  0  0  0  0  0  0  0  0
   40.2650   25.9300   31.6350 N   0  0  0  0  0  0  0  0  0  0  0  0
   40.6070   27.3000   35.1300 H   0  0  0  0  0  0  0  0  0  0  0  0
   41.4110   27.5650   30.9940 H   0  0  0  0  0  0  0  0  0  0  0  0
   39.2420   25.0860   35.0240 N   0  0  0  0  0  0  0  0  0  0  0  0
   37.9880   25.2170   35.4780 C   0  0  0  0  0  0  0  0  0  0  0  0
   37.7450   24.4130   36.5360 N   0  0  0  0  0  0  0  0  0  0  0  0
   38.9020   23.7360   36.7640 C   0  0  0  0  0  0  0  0  0  0  0  0
   39.2810   22.7930   37.6770 C   0  0  0  0  0  0  0  0  0  0  0  0
   40.5150   22.2380   37.7220 N   0  0  0  0  0  0  0  0  0  0  0  0
   41.3820   22.6810   36.7800 C   0  0  0  0  0  0  0  0  0  0  0  0
   40.9980   23.6000   35.8980 N   0  0  0  0  0  0  0  0  0  0  0  0
   39.8100   24.1680   35.8180 C   0  0  0  0  0  0  0  0  0  0  0  0
   37.1080   25.7880   35.2300 H   0  0  0  0  0  0  0  0  0  0  0  0
   38.5670   22.4510   38.4240 H   0  0  0  0  0  0  0  0  0  0  0  0
   42.4080   22.3740   36.6370 H   0  0  0  0  0  0  0  0  0  0  0  0
   37.2710   26.5190   31.9950 N   0  0  0  0  0  0  0  0  0  0  0  0
   37.4220   27.6100   32.9160 C   0  0  0  0  0  0  0  0  0  0  0  0
   36.3900   28.7230   32.5750 C   0  0  0  0  0  0  0  0  0  0  0  0
   36.8740   29.3930   31.4610 O   0  0  0  0  0  0  0  0  0  0  0  0
   37.7380   28.6270   30.7290 C   0  0  0  0  0  0  0  0  0  0  0  0
   37.5100   27.1760   30.6800 C   0  0  0  0  0  0  0  0  0  0  0  0
  1  2  1  0  0  0  0
  1 17  1  0  0  0  0
  2 11  1  0  0  0  0
  3 12  1  0  0  0  0
  3  2  2  0  0  0  0
  4  3  1  0  0  0  0
  5  4  2  0  0  0  0
  5 10  1  0  0  0  0
  6  5  1  0  0  0  0
  7  6  2  0  0  0  0
  7  8  1  0  0  0  0
  8  9  2  0  0  0  0
  9 10  1  0  0  0  0
  9 37  1  0  0  0  0
 10  1  2  0  0  0  0
 13  4  1  0  0  0  0
 14  6  1  0  0  0  0
 15  7  1  0  0  0  0
 16  8  1  0  0  0  0
 17 18  1  0  0  0  0
 18 19  2  0  0  0  0
 18 25  1  0  0  0  0
 19 23  1  0  0  0  0
 20 19  1  0  0  0  0
 21 20  2  0  0  0  0
 22 21  1  0  0  0  0
 22 17  2  0  0  0  0
 24 21  1  0  0  0  0
 25 26  1  0  0  0  0
 25 33  1  0  0  0  0
 26 27  2  0  0  0  0
 27 28  1  0  0  0  0
 28 29  1  0  0  0  0
 29 30  2  0  0  0  0
 29 35  1  0  0  0  0
 31 30  1  0  0  0  0
 32 31  2  0  0  0  0
 33 32  1  0  0  0  0
 33 28  2  0  0  0  0
 34 26  1  0  0  0  0
 36 31  1  0  0  0  0
 37 38  1  0  0  0  0
 39 38  1  0  0  0  0
 40 39  1  0  0  0  0
 41 40  1  0  0  0  0
 42 41  1  0  0  0  0
 42 37  1  0  0  0  0
M  END
>  <minimizedAffinity>
-6.23552752

>  <minimizedRMSD>
0.861192703

$$$$
