
 OpenBabel03262519063D

 25 27  0  0  1  0  0  0  0  0999 V2000
   37.8640   22.4420   34.7460 C   0  0  2  0  0  0  0  0  0  0  0  0
   38.9220   21.9010   33.8230 C   0  0  0  0  0  0  0  0  0  0  0  0
   38.2770   23.2480   33.5720 C   0  0  2  0  0  0  0  0  0  0  0  0
   36.8700   21.9890   34.6740 H   0  0  0  0  0  0  0  0  0  0  0  0
   38.6620   21.0370   33.1780 H   0  0  0  0  0  0  0  0  0  0  0  0
   39.9920   21.8540   34.1680 H   0  0  0  0  0  0  0  0  0  0  0  0
   37.6030   23.2760   32.6910 H   0  0  0  0  0  0  0  0  0  0  0  0
   39.9170   22.7150   37.7760 C   0  0  0  0  0  0  0  0  0  0  0  0
   39.1140   23.4670   38.6580 C   0  0  0  0  0  0  0  0  0  0  0  0
   37.8530   23.8770   38.1780 C   0  0  0  0  0  0  0  0  0  0  0  0
   37.4970   23.5280   36.9210 N   0  0  0  0  0  0  0  0  0  0  0  0
   38.3160   22.7900   36.0960 C   0  0  0  0  0  0  0  0  0  0  0  0
   39.5130   22.3950   36.5330 N   0  0  0  0  0  0  0  0  0  0  0  0
   40.8750   22.4330   38.2140 H   0  0  0  0  0  0  0  0  0  0  0  0
   39.4120   23.7420   39.6640 H   0  0  0  0  0  0  0  0  0  0  0  0
   37.1600   24.4660   38.7900 H   0  0  0  0  0  0  0  0  0  0  0  0
   39.2560   24.3630   33.6240 C   0  0  0  0  0  0  0  0  0  0  0  0
   39.8110   24.4320   34.5910 H   0  0  0  0  0  0  0  0  0  0  0  0
   40.0150   24.2950   32.8350 H   0  0  0  0  0  0  0  0  0  0  0  0
   38.5790   25.6390   33.4840 N   0  0  0  0  0  0  0  0  0  0  0  0
   38.4160   26.2890   34.7720 C   0  0  0  0  0  0  0  0  0  0  0  0
   37.0670   26.9250   34.9120 C   0  0  0  0  0  0  0  0  0  0  0  0
   36.6860   27.6490   33.7860 O   0  0  0  0  0  0  0  0  0  0  0  0
   36.7340   26.9050   32.6330 C   0  0  0  0  0  0  0  0  0  0  0  0
   37.2570   25.5130   32.9020 C   0  0  0  0  0  0  0  0  0  0  0  0
  1  4  1  6  0  0  0
  1 12  1  0  0  0  0
  2  6  1  0  0  0  0
  2  1  1  0  0  0  0
  3  7  1  6  0  0  0
  3 17  1  0  0  0  0
  3  2  1  0  0  0  0
  3  1  1  0  0  0  0
  5  2  1  0  0  0  0
  8 14  1  0  0  0  0
  8  9  1  0  0  0  0
  9 15  1  0  0  0  0
 10  9  2  0  0  0  0
 10 16  1  0  0  0  0
 11 10  1  0  0  0  0
 12 13  1  0  0  0  0
 12 11  2  0  0  0  0
 13  8  2  0  0  0  0
 17 18  1  0  0  0  0
 19 17  1  0  0  0  0
 20 17  1  0  0  0  0
 20 21  1  0  0  0  0
 21 22  1  0  0  0  0
 23 22  1  0  0  0  0
 24 25  1  0  0  0  0
 24 23  1  0  0  0  0
 25 20  1  0  0  0  0
M  END
>  <minimizedAffinity>
-4.0430088

>  <minimizedRMSD>
2.91480136

$$$$
