
 OpenBabel03262519393D

 38 41  0  0  1  0  0  0  0  0999 V2000
   37.7130   25.3450   34.3300 N   0  0  0  0  0  0  0  0  0  0  0  0
   37.1240   25.3020   33.0040 C   0  0  0  0  0  0  0  0  0  0  0  0
   36.8700   26.7270   32.6480 C   0  0  0  0  0  0  0  0  0  0  0  0
   37.4370   27.5200   33.8010 C   0  0  0  0  0  0  0  0  0  0  0  0
   38.5230   26.5150   34.2900 C   0  0  2  0  0  0  0  0  0  0  0  0
   36.2410   24.6540   32.9470 H   0  0  0  0  0  0  0  0  0  0  0  0
   37.8890   24.9040   32.2900 H   0  0  0  0  0  0  0  0  0  0  0  0
   35.7560   26.8820   32.7010 H   0  0  0  0  0  0  0  0  0  0  0  0
   37.2310   27.0490   31.6710 H   0  0  0  0  0  0  0  0  0  0  0  0
   37.9660   28.4280   33.4860 H   0  0  0  0  0  0  0  0  0  0  0  0
   36.7330   27.6830   34.6290 H   0  0  0  0  0  0  0  0  0  0  0  0
   38.8770   26.8740   35.2640 H   0  0  0  0  0  0  0  0  0  0  0  0
   38.5870   24.2300   34.5540 C   0  0  0  0  0  0  0  0  0  0  0  0
   39.5470   24.4330   34.1010 H   0  0  0  0  0  0  0  0  0  0  0  0
   38.1650   23.3330   34.0170 H   0  0  0  0  0  0  0  0  0  0  0  0
   37.8470   23.9820   38.2630 C   0  0  0  0  0  0  0  0  0  0  0  0
   37.6950   24.3240   36.9250 C   0  0  0  0  0  0  0  0  0  0  0  0
   38.6890   23.8930   36.0100 C   0  0  0  0  0  0  0  0  0  0  0  0
   39.7320   23.1690   36.5090 N   0  0  0  0  0  0  0  0  0  0  0  0
   39.8170   22.8710   37.8220 C   0  0  0  0  0  0  0  0  0  0  0  0
   38.8770   23.2800   38.6810 N   0  0  0  0  0  0  0  0  0  0  0  0
   37.1210   24.2830   39.0060 H   0  0  0  0  0  0  0  0  0  0  0  0
   36.8670   24.8920   36.5730 H   0  0  0  0  0  0  0  0  0  0  0  0
   40.7210   22.2890   38.0080 H   0  0  0  0  0  0  0  0  0  0  0  0
   39.5600   26.4190   33.4040 O   0  0  0  0  0  0  0  0  0  0  0  0
   40.6510   27.1860   33.7340 C   0  0  2  0  0  0  0  0  0  0  0  0
   41.8690   26.9910   32.8840 C   0  0  0  0  0  0  0  0  0  0  0  0
   41.8720   26.6250   34.3410 C   0  0  2  0  0  0  0  0  0  0  0  0
   40.3590   28.1370   34.1900 H   0  0  0  0  0  0  0  0  0  0  0  0
   41.9040   26.1480   32.1630 H   0  0  0  0  0  0  0  0  0  0  0  0
   42.4330   27.8690   32.5110 H   0  0  0  0  0  0  0  0  0  0  0  0
   42.4910   27.3330   34.9330 H   0  0  0  0  0  0  0  0  0  0  0  0
   42.0840   25.2860   34.7570 N   0  0  1  0  0  0  0  0  0  0  0  0
   42.4040   24.3300   33.7480 C   0  0  0  0  0  0  0  0  0  0  0  0
   42.7280   23.1150   34.6230 C   0  0  0  0  0  0  0  0  0  0  0  0
   43.2800   23.7100   35.9250 C   0  0  0  0  0  0  0  0  0  0  0  0
   43.2610   25.1880   35.6030 C   0  0  0  0  0  0  0  0  0  0  0  0
   44.1630   25.4260   34.9910 H   0  0  0  0  0  0  0  0  0  0  0  0
  1 13  1  0  0  0  0
  2  1  1  0  0  0  0
  3  8  1  0  0  0  0
  3  2  1  0  0  0  0
  3  4  1  0  0  0  0
  4  5  1  0  0  0  0
  4 11  1  0  0  0  0
  5  1  1  0  0  0  0
  5 12  1  1  0  0  0
  6  2  1  0  0  0  0
  7  2  1  0  0  0  0
  9  3  1  0  0  0  0
 10  4  1  0  0  0  0
 13 18  1  0  0  0  0
 14 13  1  0  0  0  0
 15 13  1  0  0  0  0
 16 21  1  0  0  0  0
 16 22  1  0  0  0  0
 17 16  2  0  0  0  0
 18 19  2  0  0  0  0
 18 17  1  0  0  0  0
 19 20  1  0  0  0  0
 20 24  1  0  0  0  0
 20 21  2  0  0  0  0
 23 17  1  0  0  0  0
 25 26  1  0  0  0  0
 25  5  1  0  0  0  0
 26 29  1  1  0  0  0
 26 28  1  0  0  0  0
 27 26  1  0  0  0  0
 27 28  1  0  0  0  0
 28 33  1  0  0  0  0
 28 32  1  1  0  0  0
 30 27  1  0  0  0  0
 31 27  1  0  0  0  0
 33 34  1  6  0  0  0
 33 37  1  0  0  0  0
 34 35  1  0  0  0  0
 35 36  1  0  0  0  0
 37 36  1  0  0  0  0
 38 37  1  0  0  0  0
M  END
>  <minimizedAffinity>
-4.35516405

>  <minimizedRMSD>
0.903712153

$$$$
