
 OpenBabel03262519543D

 29 32  0  0  1  0  0  0  0  0999 V2000
   38.1800   24.0050   34.4820 C   0  0  0  0  0  0  0  0  0  0  0  0
   38.3210   25.2730   33.9210 C   0  0  0  0  0  0  0  0  0  0  0  0
   37.9350   25.0930   32.6170 N   0  0  0  0  0  0  0  0  0  0  0  0
   37.6030   23.8160   32.4660 C   0  0  0  0  0  0  0  0  0  0  0  0
   37.7440   23.1070   33.6080 N   0  0  0  0  0  0  0  0  0  0  0  0
   38.6660   26.1420   34.4760 H   0  0  0  0  0  0  0  0  0  0  0  0
   37.2650   23.4490   31.5060 H   0  0  0  0  0  0  0  0  0  0  0  0
   38.4760   23.6890   35.8720 C   0  0  0  0  0  0  0  0  0  0  0  0
   39.6800   23.1010   36.2310 C   0  0  0  0  0  0  0  0  0  0  0  0
   39.9370   22.8070   37.5870 C   0  0  0  0  0  0  0  0  0  0  0  0
   38.9800   23.1230   38.4710 N   0  0  0  0  0  0  0  0  0  0  0  0
   37.8060   23.6980   38.1050 C   0  0  0  0  0  0  0  0  0  0  0  0
   37.5620   23.9780   36.8160 N   0  0  0  0  0  0  0  0  0  0  0  0
   40.4240   22.8620   35.4840 H   0  0  0  0  0  0  0  0  0  0  0  0
   40.8760   22.3430   37.8960 H   0  0  0  0  0  0  0  0  0  0  0  0
   37.0200   23.9620   38.8080 H   0  0  0  0  0  0  0  0  0  0  0  0
   37.4560   21.7120   33.7240 C   0  0  1  0  0  0  0  0  0  0  0  0
   36.3320   21.2110   34.5300 C   0  0  0  0  0  0  0  0  0  0  0  0
   36.1480   21.3110   33.0430 C   0  0  2  0  0  0  0  0  0  0  0  0
   38.3280   21.0710   33.4230 H   0  0  0  0  0  0  0  0  0  0  0  0
   36.3310   20.2720   35.0750 H   0  0  0  0  0  0  0  0  0  0  0  0
   35.8110   22.0240   35.1180 H   0  0  0  0  0  0  0  0  0  0  0  0
   35.4890   22.1080   32.6340 H   0  0  0  0  0  0  0  0  0  0  0  0
   36.0680   20.0850   32.3360 N   0  0  1  0  0  0  0  0  0  0  0  0
   37.3370   19.5220   31.9170 C   0  0  0  0  0  2  0  0  0  0  0  0
   36.8910   18.1990   31.3400 C   0  0  0  0  0  2  0  0  0  0  0  0
   35.7930   17.7490   32.2720 C   0  0  0  0  0  2  0  0  0  0  0  0
   35.3750   19.0090   33.0100 C   0  0  0  0  0  3  0  0  0  0  0  0
   35.6750   18.8650   34.0640 H   0  0  0  0  0  0  0  0  0  0  0  0
  1  8  1  0  0  0  0
  2  6  1  0  0  0  0
  2  1  2  0  0  0  0
  3  2  1  0  0  0  0
  4  3  2  0  0  0  0
  4  5  1  0  0  0  0
  5 17  1  0  0  0  0
  5  1  1  0  0  0  0
  7  4  1  0  0  0  0
  8  9  2  0  0  0  0
  8 13  1  0  0  0  0
  9 10  1  0  0  0  0
 10 15  1  0  0  0  0
 10 11  2  0  0  0  0
 12 11  1  0  0  0  0
 12 16  1  0  0  0  0
 13 12  2  0  0  0  0
 14  9  1  0  0  0  0
 17 20  1  6  0  0  0
 17 18  1  0  0  0  0
 18 21  1  0  0  0  0
 18 22  1  0  0  0  0
 19 23  1  6  0  0  0
 19 17  1  0  0  0  0
 19 18  1  0  0  0  0
 24 25  1  1  0  0  0
 24 28  1  0  0  0  0
 24 19  1  0  0  0  0
 26 25  1  0  0  0  0
 26 27  1  0  0  0  0
 27 28  1  0  0  0  0
 28 29  1  0  0  0  0
M  END
>  <minimizedAffinity>
-4.58677912

>  <minimizedRMSD>
0.932727993

$$$$
