
 OpenBabel03262517063D

 44 47  0  0  0  0  0  0  0  0999 V2000
   38.0770   23.1930   35.2420 C   0  0  0  0  0  0  0  0  0  0  0  0
   37.5860   22.0190   34.7660 C   0  0  0  0  0  0  0  0  0  0  0  0
   37.2270   21.8460   33.4530 C   0  0  0  0  0  0  0  0  0  0  0  0
   37.3600   22.8810   32.5700 C   0  0  0  0  0  0  0  0  0  0  0  0
   37.8590   24.0620   33.0680 C   0  0  0  0  0  0  0  0  0  0  0  0
   38.2460   24.3070   34.4080 C   0  0  0  0  0  0  0  0  0  0  0  0
   37.4320   21.1190   35.3720 H   0  0  0  0  0  0  0  0  0  0  0  0
   36.8330   20.9140   33.0560 H   0  0  0  0  0  0  0  0  0  0  0  0
   37.1010   22.8280   31.5220 H   0  0  0  0  0  0  0  0  0  0  0  0
   37.9680   24.8950   32.3680 H   0  0  0  0  0  0  0  0  0  0  0  0
   39.5080   22.6980   37.3020 C   0  0  0  0  0  0  0  0  0  0  0  0
   38.3950   23.1770   36.6530 C   0  0  0  0  0  0  0  0  0  0  0  0
   37.6030   23.6630   37.6340 N   0  0  0  0  0  0  0  0  0  0  0  0
   38.2220   23.4780   38.8120 C   0  0  0  0  0  0  0  0  0  0  0  0
   39.3840   22.8920   38.6480 N   0  0  0  0  0  0  0  0  0  0  0  0
   37.8380   23.7630   39.7880 H   0  0  0  0  0  0  0  0  0  0  0  0
   40.0730   22.6270   39.3780 H   0  0  0  0  0  0  0  0  0  0  0  0
   42.6960   20.8660   36.7360 C   0  0  0  0  0  0  0  0  0  0  0  0
   41.6270   21.4490   37.4040 C   0  0  0  0  0  0  0  0  0  0  0  0
   40.6430   22.0760   36.6410 C   0  0  0  0  0  0  0  0  0  0  0  0
   40.7900   22.0790   35.2640 N   0  0  0  0  0  0  0  0  0  0  0  0
   41.8470   21.5000   34.6690 C   0  0  0  0  0  0  0  0  0  0  0  0
   42.7960   20.8960   35.4000 N   0  0  0  0  0  0  0  0  0  0  0  0
   43.4020   20.4090   37.4200 H   0  0  0  0  0  0  0  0  0  0  0  0
   41.4840   21.4620   38.4800 H   0  0  0  0  0  0  0  0  0  0  0  0
   41.9900   21.5100   33.2520 N   0  0  0  0  0  0  0  0  0  0  0  0
   41.2620   20.7120   32.2870 C   0  0  0  0  0  0  0  0  0  0  0  0
   41.0880   21.5270   31.0420 C   0  0  0  0  0  0  0  0  0  0  0  0
   42.1520   22.5960   31.1530 C   0  0  0  0  0  0  0  0  0  0  0  0
   42.8900   22.3130   32.4420 C   0  0  0  0  0  0  0  0  0  0  0  0
   43.0300   23.2910   32.9450 H   0  0  0  0  0  0  0  0  0  0  0  0
   38.7630   25.5520   34.8880 C   0  0  0  0  0  0  0  0  0  0  0  0
   38.4980   26.5360   33.7220 C   0  0  0  0  0  0  0  0  0  0  0  0
   37.4480   26.5700   33.4410 H   0  0  0  0  0  0  0  0  0  0  0  0
   39.2240   26.3950   32.9010 H   0  0  0  0  0  0  0  0  0  0  0  0
   38.7280   27.5720   34.1080 H   0  0  0  0  0  0  0  0  0  0  0  0
   38.2970   26.2350   36.0740 C   0  0  0  0  0  0  0  0  0  0  0  0
   38.9690   26.0180   36.9560 H   0  0  0  0  0  0  0  0  0  0  0  0
   37.2320   26.0600   36.2820 H   0  0  0  0  0  0  0  0  0  0  0  0
   38.3800   27.3470   35.9850 H   0  0  0  0  0  0  0  0  0  0  0  0
   40.2820   25.4460   34.9690 C   0  0  0  0  0  0  0  0  0  0  0  0
   40.6260   25.0600   35.9550 H   0  0  0  0  0  0  0  0  0  0  0  0
   40.6610   24.7880   34.1660 H   0  0  0  0  0  0  0  0  0  0  0  0
   40.6770   26.4710   34.8080 H   0  0  0  0  0  0  0  0  0  0  0  0
  1 12  1  0  0  0  0
  2  1  1  0  0  0  0
  2  7  1  0  0  0  0
  3  2  2  0  0  0  0
  4  5  2  0  0  0  0
  4  3  1  0  0  0  0
  5  6  1  0  0  0  0
  6 32  1  0  0  0  0
  6  1  2  0  0  0  0
  8  3  1  0  0  0  0
  9  4  1  0  0  0  0
 10  5  1  0  0  0  0
 11 15  1  0  0  0  0
 12 11  2  0  0  0  0
 12 13  1  0  0  0  0
 13 14  2  0  0  0  0
 14 16  1  0  0  0  0
 15 14  1  0  0  0  0
 15 17  1  0  0  0  0
 18 19  1  0  0  0  0
 18 24  1  0  0  0  0
 19 25  1  0  0  0  0
 20 11  1  0  0  0  0
 20 19  2  0  0  0  0
 21 20  1  0  0  0  0
 22 21  2  0  0  0  0
 22 23  1  0  0  0  0
 23 18  2  0  0  0  0
 26 22  1  0  0  0  0
 27 26  1  0  0  0  0
 28 29  1  0  0  0  0
 28 27  1  0  0  0  0
 29 30  1  0  0  0  0
 30 31  1  0  0  0  0
 30 26  1  0  0  0  0
 32 41  1  0  0  0  0
 32 37  1  0  0  0  0
 33 36  1  0  0  0  0
 33 32  1  0  0  0  0
 34 33  1  0  0  0  0
 35 33  1  0  0  0  0
 37 39  1  0  0  0  0
 37 38  1  0  0  0  0
 40 37  1  0  0  0  0
 41 42  1  0  0  0  0
 43 41  1  0  0  0  0
 44 41  1  0  0  0  0
M  END
>  <minimizedAffinity>
-5.68418169

>  <minimizedRMSD>
0.121693037

$$$$
