
 OpenBabel03262519583D

 32 35  0  0  1  0  0  0  0  0999 V2000
   38.3430   22.7620   34.7760 C   0  0  0  0  0  0  0  0  0  0  0  0
   37.3970   21.8450   34.2990 C   0  0  0  0  0  0  0  0  0  0  0  0
   37.5470   21.9020   32.9460 N   0  0  0  0  0  0  0  0  0  0  0  0
   38.5000   22.7780   32.6770 C   0  0  0  0  0  0  0  0  0  0  0  0
   39.0100   23.3210   33.7790 N   0  0  0  0  0  0  0  0  0  0  0  0
   36.7310   21.2620   34.9490 H   0  0  0  0  0  0  0  0  0  0  0  0
   38.7040   22.9040   31.6130 H   0  0  0  0  0  0  0  0  0  0  0  0
   38.5550   23.0750   36.1770 C   0  0  0  0  0  0  0  0  0  0  0  0
   37.6530   23.9470   36.8310 C   0  0  0  0  0  0  0  0  0  0  0  0
   37.8870   24.2300   38.1940 C   0  0  0  0  0  0  0  0  0  0  0  0
   38.9630   23.6430   38.7830 N   0  0  0  0  0  0  0  0  0  0  0  0
   39.8000   22.8140   38.1180 C   0  0  0  0  0  0  0  0  0  0  0  0
   39.6000   22.5280   36.8180 N   0  0  0  0  0  0  0  0  0  0  0  0
   36.8120   24.3940   36.3370 H   0  0  0  0  0  0  0  0  0  0  0  0
   37.2440   24.8860   38.7640 H   0  0  0  0  0  0  0  0  0  0  0  0
   40.6150   22.4140   38.6930 H   0  0  0  0  0  0  0  0  0  0  0  0
   40.0470   24.2740   33.7500 C   0  0  1  0  0  0  0  0  0  0  0  0
   40.5240   25.0000   32.6130 C   0  0  0  0  0  0  0  0  0  0  0  0
   39.6250   25.7100   33.6480 C   0  0  1  0  0  0  0  0  0  0  0  0
   40.8050   24.0720   34.5710 H   0  0  0  0  0  0  0  0  0  0  0  0
   41.6040   25.3270   32.5990 H   0  0  0  0  0  0  0  0  0  0  0  0
   40.1830   24.7790   31.6110 H   0  0  0  0  0  0  0  0  0  0  0  0
   38.5870   26.3000   32.9370 N   0  0  1  0  0  0  0  0  0  0  0  0
   37.3300   26.2430   33.5830 C   0  0  0  0  0  2  0  0  0  0  0  0
   36.3860   26.6190   32.4380 C   0  0  0  0  0  2  0  0  0  0  0  0
   37.2030   27.6800   31.7370 C   0  0  0  0  0  2  0  0  0  0  0  0
   38.6530   27.4680   32.2140 C   0  0  0  0  0  3  0  0  0  0  0  0
   38.9250   28.4170   32.6770 H   0  0  0  0  0  0  0  0  0  0  0  0
   40.4240   26.6880   34.5010 C   0  0  0  0  0  0  0  0  0  0  0  0
   39.6210   27.2720   35.4530 F   0  0  0  0  0  0  0  0  0  0  0  0
   41.4020   25.9520   35.2750 F   0  0  0  0  0  0  0  0  0  0  0  0
   41.1180   27.5670   33.7520 F   0  0  0  0  0  0  0  0  0  0  0  0
  1  8  1  0  0  0  0
  2  1  2  0  0  0  0
  2  6  1  0  0  0  0
  3  2  1  0  0  0  0
  4  3  2  0  0  0  0
  4  5  1  0  0  0  0
  5  1  1  0  0  0  0
  7  4  1  0  0  0  0
  8 13  2  0  0  0  0
  8  9  1  0  0  0  0
  9 10  2  0  0  0  0
 10 15  1  0  0  0  0
 10 11  1  0  0  0  0
 12 16  1  0  0  0  0
 12 11  2  0  0  0  0
 13 12  1  0  0  0  0
 14  9  1  0  0  0  0
 17  5  1  0  0  0  0
 17 20  1  1  0  0  0
 18 19  1  0  0  0  0
 18 17  1  0  0  0  0
 19 17  1  0  0  0  0
 19 29  1  1  0  0  0
 21 18  1  0  0  0  0
 22 18  1  0  0  0  0
 23 24  1  1  0  0  0
 23 19  1  0  0  0  0
 25 24  1  0  0  0  0
 26 27  1  0  0  0  0
 26 25  1  0  0  0  0
 27 28  1  0  0  0  0
 27 23  1  0  0  0  0
 29 31  1  0  0  0  0
 29 30  1  0  0  0  0
 32 29  1  0  0  0  0
M  END
>  <minimizedAffinity>
-5.090693

>  <minimizedRMSD>
5.0600996

$$$$
