
 OpenBabel03262519593D

 32 35  0  0  1  0  0  0  0  0999 V2000
   39.5840   23.5700   33.6120 C   0  0  0  0  0  0  0  0  0  0  0  0
   39.3150   22.1970   33.6850 C   0  0  0  0  0  0  0  0  0  0  0  0
   40.3710   21.6270   33.0390 N   0  0  0  0  0  0  0  0  0  0  0  0
   41.1730   22.5960   32.6330 C   0  0  0  0  0  0  0  0  0  0  0  0
   40.7190   23.8010   32.9720 N   0  0  0  0  0  0  0  0  0  0  0  0
   38.4270   21.7740   34.1730 H   0  0  0  0  0  0  0  0  0  0  0  0
   42.0580   22.2500   32.0990 H   0  0  0  0  0  0  0  0  0  0  0  0
   38.7240   24.6080   34.1490 C   0  0  0  0  0  0  0  0  0  0  0  0
   37.8950   25.3400   33.2670 C   0  0  0  0  0  0  0  0  0  0  0  0
   37.0700   26.3420   33.8220 C   0  0  0  0  0  0  0  0  0  0  0  0
   37.1300   26.5330   35.1660 N   0  0  0  0  0  0  0  0  0  0  0  0
   37.9380   25.8080   35.9740 C   0  0  0  0  0  0  0  0  0  0  0  0
   38.7350   24.8470   35.4710 N   0  0  0  0  0  0  0  0  0  0  0  0
   37.8720   25.1650   32.2080 H   0  0  0  0  0  0  0  0  0  0  0  0
   36.4090   26.9450   33.2140 H   0  0  0  0  0  0  0  0  0  0  0  0
   37.8960   26.0530   37.0180 H   0  0  0  0  0  0  0  0  0  0  0  0
   41.4060   24.9900   32.6600 C   0  0  1  0  0  0  0  0  0  0  0  0
   42.3940   25.1780   31.6430 C   0  0  0  0  0  0  0  0  0  0  0  0
   40.9600   25.7070   31.4200 C   0  0  1  0  0  0  0  0  0  0  0  0
   41.4930   25.6590   33.5750 H   0  0  0  0  0  0  0  0  0  0  0  0
   43.1860   25.9660   31.8020 H   0  0  0  0  0  0  0  0  0  0  0  0
   42.7950   24.3490   31.0770 H   0  0  0  0  0  0  0  0  0  0  0  0
   40.5390   25.2140   30.1910 N   0  0  1  0  0  0  0  0  0  0  0  0
   41.5650   24.6190   29.4190 C   0  0  0  0  0  2  0  0  0  0  0  0
   40.8920   24.5230   28.0470 C   0  0  0  0  0  2  0  0  0  0  0  0
   39.4830   24.1590   28.4500 C   0  0  0  0  0  2  0  0  0  0  0  0
   39.3620   24.5500   29.9370 C   0  0  0  0  0  3  0  0  0  0  0  0
   39.1060   23.6180   30.4410 H   0  0  0  0  0  0  0  0  0  0  0  0
   40.9050   27.2260   31.5270 C   0  0  0  0  0  0  0  0  0  0  0  0
   39.6630   27.6950   31.1660 F   0  0  0  0  0  0  0  0  0  0  0  0
   41.0290   27.6070   32.9190 F   0  0  0  0  0  0  0  0  0  0  0  0
   41.9270   27.8200   30.8800 F   0  0  0  0  0  0  0  0  0  0  0  0
  1  2  2  0  0  0  0
  1  8  1  0  0  0  0
  2  6  1  0  0  0  0
  3  2  1  0  0  0  0
  4  5  1  0  0  0  0
  4  3  2  0  0  0  0
  5  1  1  0  0  0  0
  7  4  1  0  0  0  0
  8 13  1  0  0  0  0
  9 10  1  0  0  0  0
  9  8  2  0  0  0  0
 10 11  2  0  0  0  0
 11 12  1  0  0  0  0
 12 16  1  0  0  0  0
 13 12  2  0  0  0  0
 14  9  1  0  0  0  0
 15 10  1  0  0  0  0
 17  5  1  0  0  0  0
 17 20  1  1  0  0  0
 18 21  1  0  0  0  0
 18 17  1  0  0  0  0
 19 29  1  1  0  0  0
 19 18  1  0  0  0  0
 19 17  1  0  0  0  0
 22 18  1  0  0  0  0
 23 24  1  1  0  0  0
 23 19  1  0  0  0  0
 25 26  1  0  0  0  0
 25 24  1  0  0  0  0
 26 27  1  0  0  0  0
 27 23  1  0  0  0  0
 27 28  1  0  0  0  0
 29 31  1  0  0  0  0
 30 29  1  0  0  0  0
 32 29  1  0  0  0  0
M  END
>  <minimizedAffinity>
-3.05055428

>  <minimizedRMSD>
6.37835741

$$$$
