
 OpenBabel03262517403D

 40 43  0  0  1  0  0  0  0  0999 V2000
   39.6940   22.2530   34.5570 C   0  0  0  0  0  0  0  0  0  0  0  0
   38.4860   21.9900   33.9370 C   0  0  0  0  0  0  0  0  0  0  0  0
   38.4590   21.1560   32.8370 C   0  0  0  0  0  0  0  0  0  0  0  0
   39.6340   20.6200   32.4040 N   0  0  0  0  0  0  0  0  0  0  0  0
   40.7830   20.8950   33.0260 C   0  0  0  0  0  0  0  0  0  0  0  0
   40.8270   21.6950   34.0850 N   0  0  0  0  0  0  0  0  0  0  0  0
   37.3280   20.7710   32.0750 N   0  0  0  0  0  0  0  0  0  0  0  0
   36.8170   21.4710   30.9190 C   0  0  0  0  0  0  0  0  0  0  0  0
   35.4030   21.9150   31.1820 C   0  0  0  0  0  0  0  0  0  0  0  0
   34.8920   21.2820   32.3430 O   0  0  0  0  0  0  0  0  0  0  0  0
   35.0390   19.9190   32.2080 C   0  0  0  0  0  0  0  0  0  0  0  0
   36.5120   19.5830   32.3700 C   0  0  0  0  0  0  0  0  0  0  0  0
   37.5140   22.3720   34.2160 H   0  0  0  0  0  0  0  0  0  0  0  0
   41.7240   20.4540   32.6640 H   0  0  0  0  0  0  0  0  0  0  0  0
   37.4560   22.3240   30.6080 H   0  0  0  0  0  0  0  0  0  0  0  0
   36.8050   20.7570   30.0700 H   0  0  0  0  0  0  0  0  0  0  0  0
   35.3240   23.0140   31.3730 H   0  0  0  0  0  0  0  0  0  0  0  0
   34.7280   21.7000   30.3250 H   0  0  0  0  0  0  0  0  0  0  0  0
   34.4850   19.4120   33.0280 H   0  0  0  0  0  0  0  0  0  0  0  0
   34.6210   19.5030   31.2670 H   0  0  0  0  0  0  0  0  0  0  0  0
   36.8280   18.7690   31.6920 H   0  0  0  0  0  0  0  0  0  0  0  0
   36.7650   19.2640   33.4020 H   0  0  0  0  0  0  0  0  0  0  0  0
   39.6710   23.1270   35.6940 C   0  0  2  0  0  0  0  0  0  0  0  0
   39.9260   22.7490   36.8960 O   0  0  0  0  0  0  0  0  0  0  0  0
   39.3560   24.5450   35.6260 C   0  0  0  0  0  0  0  0  0  0  0  0
   38.1330   25.0340   36.0380 C   0  0  0  0  0  0  0  0  0  0  0  0
   37.8860   26.4000   35.9480 C   0  0  0  0  0  0  0  0  0  0  0  0
   38.8190   27.2890   35.4630 C   0  0  0  0  0  0  0  0  0  0  0  0
   40.0430   26.7990   35.0510 C   0  0  0  0  0  0  0  0  0  0  0  0
   40.2870   25.4210   35.1430 C   0  0  0  0  0  0  0  0  0  0  0  0
   37.3900   24.3340   36.4230 H   0  0  0  0  0  0  0  0  0  0  0  0
   36.9200   26.7680   36.2760 H   0  0  0  0  0  0  0  0  0  0  0  0
   38.5290   28.3380   35.4330 H   0  0  0  0  0  0  0  0  0  0  0  0
   40.7290   27.5460   34.6800 H   0  0  0  0  0  0  0  0  0  0  0  0
   41.6030   25.1230   34.6890 N   0  0  0  0  0  0  0  0  0  0  0  0
   42.9090   24.7690   35.2730 C   0  0  0  0  0  0  0  0  0  0  0  0
   43.8410   25.8470   34.7390 C   0  0  0  0  0  0  0  0  0  0  0  0
   43.3360   25.9460   33.3050 C   0  0  0  0  0  0  0  0  0  0  0  0
   42.0730   25.0980   33.2930 C   0  0  0  0  0  0  0  0  0  0  0  0
   42.3750   24.0860   32.9700 H   0  0  0  0  0  0  0  0  0  0  0  0
  1 23  1  0  0  0  0
  2 13  1  0  0  0  0
  2  1  2  0  0  0  0
  3  2  1  0  0  0  0
  4  3  2  0  0  0  0
  4  5  1  0  0  0  0
  5  6  2  0  0  0  0
  6  1  1  0  0  0  0
  7 12  1  0  0  0  0
  7  3  1  0  0  0  0
  8  9  1  0  0  0  0
  8  7  1  0  0  0  0
  9 17  1  0  0  0  0
  9 10  1  0  0  0  0
 11 10  1  0  0  0  0
 11 12  1  0  0  0  0
 11 19  1  0  0  0  0
 12 22  1  0  0  0  0
 14  5  1  0  0  0  0
 15  8  1  0  0  0  0
 16  8  1  0  0  0  0
 18  9  1  0  0  0  0
 20 11  1  0  0  0  0
 21 12  1  0  0  0  0
 23 24  1  1  0  0  0
 25 23  1  0  0  0  0
 25 26  1  0  0  0  0
 26 31  1  0  0  0  0
 27 26  2  0  0  0  0
 27 32  1  0  0  0  0
 28 27  1  0  0  0  0
 29 30  1  0  0  0  0
 29 28  2  0  0  0  0
 30 25  2  0  0  0  0
 33 28  1  0  0  0  0
 34 29  1  0  0  0  0
 35 30  1  0  0  0  0
 35 36  1  0  0  0  0
 37 36  1  0  0  0  0
 38 37  1  0  0  0  0
 39 38  1  0  0  0  0
 39 35  1  0  0  0  0
 40 39  1  0  0  0  0
M  END
>  <minimizedAffinity>
-5.25349808

>  <minimizedRMSD>
0.40704456

$$$$
