
 OpenBabel03262519543D

 29 32  0  0  1  0  0  0  0  0999 V2000
   39.4260   25.8080   34.6750 C   0  0  0  0  0  0  0  0  0  0  0  0
   40.5650   26.6100   34.6850 C   0  0  0  0  0  0  0  0  0  0  0  0
   40.4620   27.3300   33.5220 N   0  0  0  0  0  0  0  0  0  0  0  0
   39.3460   26.9550   32.9110 C   0  0  0  0  0  0  0  0  0  0  0  0
   38.6730   26.0060   33.6010 N   0  0  0  0  0  0  0  0  0  0  0  0
   41.3070   26.5930   35.4800 H   0  0  0  0  0  0  0  0  0  0  0  0
   39.0630   27.4000   31.9660 H   0  0  0  0  0  0  0  0  0  0  0  0
   39.0900   24.8530   35.7220 C   0  0  0  0  0  0  0  0  0  0  0  0
   39.6650   23.5910   35.7510 C   0  0  0  0  0  0  0  0  0  0  0  0
   39.3190   22.6890   36.7790 C   0  0  0  0  0  0  0  0  0  0  0  0
   38.4310   23.1140   37.6900 N   0  0  0  0  0  0  0  0  0  0  0  0
   37.8760   24.3530   37.6480 C   0  0  0  0  0  0  0  0  0  0  0  0
   38.2060   25.2110   36.6710 N   0  0  0  0  0  0  0  0  0  0  0  0
   40.3760   23.2890   34.9950 H   0  0  0  0  0  0  0  0  0  0  0  0
   39.7570   21.6900   36.8250 H   0  0  0  0  0  0  0  0  0  0  0  0
   37.1570   24.7140   38.3780 H   0  0  0  0  0  0  0  0  0  0  0  0
   37.4400   25.4250   33.1690 C   0  0  1  0  0  0  0  0  0  0  0  0
   37.1060   25.2730   31.7450 C   0  0  0  0  0  0  0  0  0  0  0  0
   37.6230   24.0720   32.4820 C   0  0  2  0  0  0  0  0  0  0  0  0
   36.6690   25.4080   33.9850 H   0  0  0  0  0  0  0  0  0  0  0  0
   36.1040   25.3410   31.3340 H   0  0  0  0  0  0  0  0  0  0  0  0
   37.8620   25.7570   31.0570 H   0  0  0  0  0  0  0  0  0  0  0  0
   38.6540   23.7130   32.2700 H   0  0  0  0  0  0  0  0  0  0  0  0
   36.6920   23.0300   32.7180 N   0  0  1  0  0  0  0  0  0  0  0  0
   36.0010   22.5330   31.5440 C   0  0  0  0  0  2  0  0  0  0  0  0
   35.2220   21.3810   32.1330 C   0  0  0  0  0  2  0  0  0  0  0  0
   36.1730   20.7740   33.1350 C   0  0  0  0  0  2  0  0  0  0  0  0
   37.2080   21.8570   33.3870 C   0  0  0  0  0  3  0  0  0  0  0  0
   38.1590   21.4790   32.9710 H   0  0  0  0  0  0  0  0  0  0  0  0
  1  2  2  0  0  0  0
  1  8  1  0  0  0  0
  2  6  1  0  0  0  0
  3  2  1  0  0  0  0
  4  3  2  0  0  0  0
  4  5  1  0  0  0  0
  5  1  1  0  0  0  0
  7  4  1  0  0  0  0
  8  9  2  0  0  0  0
  8 13  1  0  0  0  0
  9 10  1  0  0  0  0
 10 15  1  0  0  0  0
 10 11  2  0  0  0  0
 12 11  1  0  0  0  0
 12 16  1  0  0  0  0
 13 12  2  0  0  0  0
 14  9  1  0  0  0  0
 17  5  1  0  0  0  0
 17 20  1  1  0  0  0
 18 19  1  0  0  0  0
 18 17  1  0  0  0  0
 19 23  1  6  0  0  0
 19 24  1  0  0  0  0
 19 17  1  0  0  0  0
 21 18  1  0  0  0  0
 22 18  1  0  0  0  0
 24 25  1  6  0  0  0
 24 28  1  0  0  0  0
 25 26  1  0  0  0  0
 26 27  1  0  0  0  0
 27 28  1  0  0  0  0
 29 28  1  0  0  0  0
M  END
>  <minimizedAffinity>
-4.4922924

>  <minimizedRMSD>
3.50325537

$$$$
