
 OpenBabel03262519463D

 38 41  0  0  1  0  0  0  0  0999 V2000
   37.3500   25.7150   32.7290 N   0  0  0  0  0  0  0  0  0  0  0  0
   36.6080   24.6690   32.3620 C   0  0  0  0  0  0  0  0  0  0  0  0
   35.7330   24.9380   31.3400 C   0  0  0  0  0  0  0  0  0  0  0  0
   35.9440   26.2230   31.0560 N   0  0  0  0  0  0  0  0  0  0  0  0
   36.9100   26.6870   31.8860 C   0  0  0  0  0  0  0  0  0  0  0  0
   36.7170   23.6910   32.8600 H   0  0  0  0  0  0  0  0  0  0  0  0
   35.0580   24.2220   30.9130 H   0  0  0  0  0  0  0  0  0  0  0  0
   37.3540   28.1110   31.7490 C   0  0  1  0  0  0  0  0  0  0  0  0
   36.5770   29.0170   30.8760 C   0  0  0  0  0  0  0  0  0  0  0  0
   36.4540   29.1790   32.3490 C   0  0  1  0  0  0  0  0  0  0  0  0
   38.4420   28.2650   31.8200 H   0  0  0  0  0  0  0  0  0  0  0  0
   37.0610   29.8160   30.2760 H   0  0  0  0  0  0  0  0  0  0  0  0
   35.7910   28.5130   30.2810 H   0  0  0  0  0  0  0  0  0  0  0  0
   37.0540   30.0460   32.7390 H   0  0  0  0  0  0  0  0  0  0  0  0
   35.3340   28.9010   33.1390 N   0  0  1  0  0  0  0  0  0  0  0  0
   35.3830   29.6870   34.3830 C   0  0  0  0  0  0  0  0  0  0  0  0
   33.9970   29.6910   34.9230 C   0  0  0  0  0  0  0  0  0  0  0  0
   33.1140   29.4900   33.7410 C   0  0  0  0  0  0  0  0  0  0  0  0
   34.0260   29.0760   32.6180 C   0  0  0  0  0  0  0  0  0  0  0  0
   33.9180   29.7830   31.8030 H   0  0  0  0  0  0  0  0  0  0  0  0
   38.3510   25.9470   33.7010 C   0  0  0  0  0  0  0  0  0  0  0  0
   38.9460   26.8760   33.4680 H   0  0  0  0  0  0  0  0  0  0  0  0
   39.1260   25.1280   33.6610 H   0  0  0  0  0  0  0  0  0  0  0  0
   37.8240   26.0130   35.0870 C   0  0  1  0  0  0  0  0  0  0  0  0
   36.7050   25.8720   35.0800 H   0  0  0  0  0  0  0  0  0  0  0  0
   38.3800   23.6870   38.0210 C   0  0  0  0  0  0  0  0  0  0  0  0
   37.7860   24.7140   37.2670 C   0  0  0  0  0  0  0  0  0  0  0  0
   38.3720   24.9700   35.9810 C   0  0  0  0  0  0  0  0  0  0  0  0
   39.4570   24.2160   35.5650 N   0  0  0  0  0  0  0  0  0  0  0  0
   39.9780   23.2570   36.3170 C   0  0  0  0  0  0  0  0  0  0  0  0
   39.4400   22.9830   37.5620 N   0  0  0  0  0  0  0  0  0  0  0  0
   37.9540   23.4790   38.9920 H   0  0  0  0  0  0  0  0  0  0  0  0
   36.9540   25.2900   37.5880 H   0  0  0  0  0  0  0  0  0  0  0  0
   40.8160   22.7380   35.8940 H   0  0  0  0  0  0  0  0  0  0  0  0
   38.0790   27.3960   35.6800 C   0  0  0  0  0  0  0  0  0  0  0  0
   39.0420   27.3780   36.2560 H   0  0  0  0  0  0  0  0  0  0  0  0
   38.0630   28.1320   34.8740 H   0  0  0  0  0  0  0  0  0  0  0  0
   37.2860   27.5730   36.4430 H   0  0  0  0  0  0  0  0  0  0  0  0
  1 21  1  0  0  0  0
  2  1  1  0  0  0  0
  2  6  1  0  0  0  0
  3  2  2  0  0  0  0
  4  3  1  0  0  0  0
  4  5  2  0  0  0  0
  5  1  1  0  0  0  0
  7  3  1  0  0  0  0
  8 11  1  1  0  0  0
  8  5  1  0  0  0  0
  8 10  1  0  0  0  0
  9  8  1  0  0  0  0
  9 10  1  0  0  0  0
 10 14  1  1  0  0  0
 10 15  1  0  0  0  0
 12  9  1  0  0  0  0
 13  9  1  0  0  0  0
 15 16  1  1  0  0  0
 16 17  1  0  0  0  0
 18 17  1  0  0  0  0
 19 15  1  0  0  0  0
 19 18  1  0  0  0  0
 20 19  1  0  0  0  0
 21 24  1  0  0  0  0
 22 21  1  0  0  0  0
 23 21  1  0  0  0  0
 24 25  1  6  0  0  0
 24 35  1  0  0  0  0
 24 28  1  0  0  0  0
 26 32  1  0  0  0  0
 27 33  1  0  0  0  0
 27 26  2  0  0  0  0
 28 27  1  0  0  0  0
 29 28  2  0  0  0  0
 29 30  1  0  0  0  0
 30 31  2  0  0  0  0
 31 26  1  0  0  0  0
 34 30  1  0  0  0  0
 35 36  1  0  0  0  0
 35 38  1  0  0  0  0
 37 35  1  0  0  0  0
M  END
>  <minimizedAffinity>
-5.03075361

>  <minimizedRMSD>
1.77928543

$$$$
