
 OpenBabel03262519553D

 29 32  0  0  1  0  0  0  0  0999 V2000
   38.1010   23.8230   34.6170 C   0  0  0  0  0  0  0  0  0  0  0  0
   38.2330   25.0430   33.9580 C   0  0  0  0  0  0  0  0  0  0  0  0
   37.8150   24.7670   32.6810 N   0  0  0  0  0  0  0  0  0  0  0  0
   37.4760   23.4850   32.6350 C   0  0  0  0  0  0  0  0  0  0  0  0
   37.6410   22.8630   33.8250 N   0  0  0  0  0  0  0  0  0  0  0  0
   38.5950   25.9500   34.4370 H   0  0  0  0  0  0  0  0  0  0  0  0
   37.1130   23.0480   31.7140 H   0  0  0  0  0  0  0  0  0  0  0  0
   38.4290   23.6120   36.0200 C   0  0  0  0  0  0  0  0  0  0  0  0
   39.6250   23.0150   36.3930 C   0  0  0  0  0  0  0  0  0  0  0  0
   39.9140   22.8250   37.7610 C   0  0  0  0  0  0  0  0  0  0  0  0
   38.9940   23.2430   38.6420 N   0  0  0  0  0  0  0  0  0  0  0  0
   37.8280   23.8250   38.2620 C   0  0  0  0  0  0  0  0  0  0  0  0
   37.5530   24.0060   36.9610 N   0  0  0  0  0  0  0  0  0  0  0  0
   40.3390   22.6920   35.6480 H   0  0  0  0  0  0  0  0  0  0  0  0
   40.8470   22.3570   38.0810 H   0  0  0  0  0  0  0  0  0  0  0  0
   37.0720   24.1710   38.9630 H   0  0  0  0  0  0  0  0  0  0  0  0
   37.3520   21.4820   34.0530 C   0  0  1  0  0  0  0  0  0  0  0  0
   36.0360   21.0290   34.5280 C   0  0  0  0  0  0  0  0  0  0  0  0
   36.3380   20.9100   33.0620 C   0  0  2  0  0  0  0  0  0  0  0  0
   38.2830   20.8610   34.1440 H   0  0  0  0  0  0  0  0  0  0  0  0
   35.8720   20.1770   35.1790 H   0  0  0  0  0  0  0  0  0  0  0  0
   35.3410   21.8820   34.7910 H   0  0  0  0  0  0  0  0  0  0  0  0
   35.8350   21.6010   32.3500 H   0  0  0  0  0  0  0  0  0  0  0  0
   36.5080   19.5960   32.5600 N   0  0  1  0  0  0  0  0  0  0  0  0
   35.3980   18.6930   32.7880 C   0  0  0  0  0  2  0  0  0  0  0  0
   35.8560   17.4720   32.0240 C   0  0  0  0  0  2  0  0  0  0  0  0
   36.5200   18.0410   30.7940 C   0  0  0  0  0  2  0  0  0  0  0  0
   36.8080   19.4890   31.1490 C   0  0  0  0  0  3  0  0  0  0  0  0
   36.1570   20.1030   30.4990 H   0  0  0  0  0  0  0  0  0  0  0  0
  1  8  1  0  0  0  0
  2  6  1  0  0  0  0
  2  1  2  0  0  0  0
  3  2  1  0  0  0  0
  4  3  2  0  0  0  0
  4  5  1  0  0  0  0
  5 17  1  0  0  0  0
  5  1  1  0  0  0  0
  7  4  1  0  0  0  0
  8  9  2  0  0  0  0
  8 13  1  0  0  0  0
  9 10  1  0  0  0  0
 10 15  1  0  0  0  0
 10 11  2  0  0  0  0
 12 11  1  0  0  0  0
 12 16  1  0  0  0  0
 13 12  2  0  0  0  0
 14  9  1  0  0  0  0
 17 20  1  1  0  0  0
 17 18  1  0  0  0  0
 18 22  1  0  0  0  0
 18 21  1  0  0  0  0
 19 23  1  6  0  0  0
 19 17  1  0  0  0  0
 19 18  1  0  0  0  0
 24 25  1  6  0  0  0
 24 19  1  0  0  0  0
 26 25  1  0  0  0  0
 27 28  1  0  0  0  0
 27 26  1  0  0  0  0
 28 24  1  0  0  0  0
 29 28  1  0  0  0  0
M  END
>  <minimizedAffinity>
-4.5987606

>  <minimizedRMSD>
0.845581591

$$$$
