
 OpenBabel03262519543D

 29 32  0  0  1  0  0  0  0  0999 V2000
   38.1390   24.0960   34.7840 C   0  0  0  0  0  0  0  0  0  0  0  0
   38.2110   25.3640   34.2120 C   0  0  0  0  0  0  0  0  0  0  0  0
   37.8380   25.1520   32.9090 N   0  0  0  0  0  0  0  0  0  0  0  0
   37.5780   23.8580   32.7690 C   0  0  0  0  0  0  0  0  0  0  0  0
   37.7550   23.1670   33.9180 N   0  0  0  0  0  0  0  0  0  0  0  0
   38.5060   26.2560   34.7600 H   0  0  0  0  0  0  0  0  0  0  0  0
   37.2620   23.4640   31.8120 H   0  0  0  0  0  0  0  0  0  0  0  0
   38.4490   23.8090   36.1780 C   0  0  0  0  0  0  0  0  0  0  0  0
   39.6210   23.1540   36.5290 C   0  0  0  0  0  0  0  0  0  0  0  0
   39.8930   22.8910   37.8880 C   0  0  0  0  0  0  0  0  0  0  0  0
   38.9810   23.2990   38.7830 N   0  0  0  0  0  0  0  0  0  0  0  0
   37.8390   23.9390   38.4230 C   0  0  0  0  0  0  0  0  0  0  0  0
   37.5800   24.1900   37.1310 N   0  0  0  0  0  0  0  0  0  0  0  0
   40.3280   22.8420   35.7740 H   0  0  0  0  0  0  0  0  0  0  0  0
   40.8070   22.3770   38.1930 H   0  0  0  0  0  0  0  0  0  0  0  0
   37.0900   24.2780   39.1350 H   0  0  0  0  0  0  0  0  0  0  0  0
   37.5450   21.7590   34.0460 C   0  0  1  0  0  0  0  0  0  0  0  0
   36.3260   21.2040   34.6530 C   0  0  0  0  0  0  0  0  0  0  0  0
   36.4170   21.2380   33.1550 C   0  0  2  0  0  0  0  0  0  0  0  0
   38.4980   21.1750   33.9420 H   0  0  0  0  0  0  0  0  0  0  0  0
   36.2850   20.2880   35.2330 H   0  0  0  0  0  0  0  0  0  0  0  0
   35.6500   21.9960   35.0950 H   0  0  0  0  0  0  0  0  0  0  0  0
   35.7940   21.9700   32.5940 H   0  0  0  0  0  0  0  0  0  0  0  0
   36.5530   19.9860   32.5050 N   0  0  1  0  0  0  0  0  0  0  0  0
   35.5060   19.0220   32.7810 C   0  0  0  0  0  2  0  0  0  0  0  0
   35.8910   17.8990   31.8460 C   0  0  0  0  0  2  0  0  0  0  0  0
   36.3710   18.6100   30.6050 C   0  0  0  0  0  2  0  0  0  0  0  0
   36.6650   20.0280   31.0640 C   0  0  0  0  0  3  0  0  0  0  0  0
   35.9210   20.6760   30.5680 H   0  0  0  0  0  0  0  0  0  0  0  0
  1  8  1  0  0  0  0
  2  6  1  0  0  0  0
  2  1  2  0  0  0  0
  3  2  1  0  0  0  0
  4  3  2  0  0  0  0
  4  5  1  0  0  0  0
  5 17  1  0  0  0  0
  5  1  1  0  0  0  0
  7  4  1  0  0  0  0
  8  9  2  0  0  0  0
  8 13  1  0  0  0  0
  9 10  1  0  0  0  0
 10 15  1  0  0  0  0
 10 11  2  0  0  0  0
 12 11  1  0  0  0  0
 12 16  1  0  0  0  0
 13 12  2  0  0  0  0
 14  9  1  0  0  0  0
 17 20  1  1  0  0  0
 17 18  1  0  0  0  0
 18 22  1  0  0  0  0
 18 21  1  0  0  0  0
 19 23  1  6  0  0  0
 19 17  1  0  0  0  0
 19 18  1  0  0  0  0
 24 25  1  6  0  0  0
 24 19  1  0  0  0  0
 26 25  1  0  0  0  0
 27 28  1  0  0  0  0
 27 26  1  0  0  0  0
 28 24  1  0  0  0  0
 29 28  1  0  0  0  0
M  END
>  <minimizedAffinity>
-4.6553092

>  <minimizedRMSD>
1.0106169

$$$$
