
 OpenBabel03262519553D

 29 32  0  0  1  0  0  0  0  0999 V2000
   37.4010   23.2430   30.8760 C   0  0  0  0  0  0  0  0  0  0  0  0
   36.7690   22.0510   31.2220 C   0  0  0  0  0  0  0  0  0  0  0  0
   35.5270   22.4550   31.6420 N   0  0  0  0  0  0  0  0  0  0  0  0
   35.4750   23.7770   31.5370 C   0  0  0  0  0  0  0  0  0  0  0  0
   36.6260   24.3040   31.0620 N   0  0  0  0  0  0  0  0  0  0  0  0
   37.2390   21.0740   31.1410 H   0  0  0  0  0  0  0  0  0  0  0  0
   34.5770   24.3130   31.8160 H   0  0  0  0  0  0  0  0  0  0  0  0
   38.7620   23.3280   30.3660 C   0  0  0  0  0  0  0  0  0  0  0  0
   39.8500   23.0550   31.1830 C   0  0  0  0  0  0  0  0  0  0  0  0
   41.1570   23.1460   30.6580 C   0  0  0  0  0  0  0  0  0  0  0  0
   41.2740   23.4990   29.3700 N   0  0  0  0  0  0  0  0  0  0  0  0
   40.2000   23.7630   28.5830 C   0  0  0  0  0  0  0  0  0  0  0  0
   38.9570   23.6760   29.0810 N   0  0  0  0  0  0  0  0  0  0  0  0
   39.7100   22.7750   32.2170 H   0  0  0  0  0  0  0  0  0  0  0  0
   42.0310   22.9380   31.2790 H   0  0  0  0  0  0  0  0  0  0  0  0
   40.2760   24.0490   27.5370 H   0  0  0  0  0  0  0  0  0  0  0  0
   36.8400   25.7010   30.8510 C   0  0  1  0  0  0  0  0  0  0  0  0
   36.4120   26.7130   31.8290 C   0  0  0  0  0  0  0  0  0  0  0  0
   37.8570   26.3050   31.8200 C   0  0  2  0  0  0  0  0  0  0  0  0
   37.0550   25.9410   29.7750 H   0  0  0  0  0  0  0  0  0  0  0  0
   36.0670   27.7100   31.5770 H   0  0  0  0  0  0  0  0  0  0  0  0
   35.8130   26.2780   32.6840 H   0  0  0  0  0  0  0  0  0  0  0  0
   38.2450   25.6760   32.6510 H   0  0  0  0  0  0  0  0  0  0  0  0
   38.7810   27.2760   31.3570 N   0  0  1  0  0  0  0  0  0  0  0  0
   40.0740   26.7620   30.9500 C   0  0  0  0  0  2  0  0  0  0  0  0
   40.7240   28.0130   30.4060 C   0  0  0  0  0  2  0  0  0  0  0  0
   39.6000   28.7260   29.6960 C   0  0  0  0  0  2  0  0  0  0  0  0
   38.3340   28.1040   30.2600 C   0  0  0  0  0  3  0  0  0  0  0  0
   37.8660   27.5450   29.4290 H   0  0  0  0  0  0  0  0  0  0  0  0
  1  5  1  0  0  0  0
  1  2  2  0  0  0  0
  2  3  1  0  0  0  0
  4  3  2  0  0  0  0
  4  7  1  0  0  0  0
  5  4  1  0  0  0  0
  6  2  1  0  0  0  0
  8  1  1  0  0  0  0
  8  9  1  0  0  0  0
  9 14  1  0  0  0  0
 10  9  2  0  0  0  0
 10 15  1  0  0  0  0
 11 10  1  0  0  0  0
 12 13  1  0  0  0  0
 12 11  2  0  0  0  0
 13  8  2  0  0  0  0
 16 12  1  0  0  0  0
 17 20  1  6  0  0  0
 17  5  1  0  0  0  0
 17 19  1  0  0  0  0
 17 18  1  0  0  0  0
 18 22  1  0  0  0  0
 19 18  1  0  0  0  0
 19 23  1  1  0  0  0
 21 18  1  0  0  0  0
 24 25  1  6  0  0  0
 24 19  1  0  0  0  0
 26 25  1  0  0  0  0
 27 28  1  0  0  0  0
 27 26  1  0  0  0  0
 28 24  1  0  0  0  0
 29 28  1  0  0  0  0
M  END
>  <minimizedAffinity>
-2.96866441

>  <minimizedRMSD>
7.75694227

$$$$
