
 OpenBabel03262519493D

 23 23  0  0  0  0  0  0  0  0999 V2000
   38.0860   24.3490   37.6580 C   0  0  0  0  0  0  0  0  0  0  0  0
   38.5090   24.7240   36.3370 C   0  0  0  0  0  0  0  0  0  0  0  0
   39.6030   24.0210   35.8830 C   0  0  0  0  0  0  0  0  0  0  0  0
   40.2030   23.0410   36.6700 N   0  0  0  0  0  0  0  0  0  0  0  0
   39.7660   22.7340   37.8830 C   0  0  0  0  0  0  0  0  0  0  0  0
   38.7000   23.3840   38.3980 N   0  0  0  0  0  0  0  0  0  0  0  0
   37.3170   24.6660   38.3380 H   0  0  0  0  0  0  0  0  0  0  0  0
   40.4060   21.9610   38.2410 H   0  0  0  0  0  0  0  0  0  0  0  0
   37.6210   25.6810   35.8060 N   0  0  0  0  0  0  0  0  0  0  0  0
   37.8510   27.0190   35.3930 C   0  0  0  0  0  0  0  0  0  0  0  0
   38.5450   27.6830   36.2950 N   0  0  0  0  0  0  0  0  0  0  0  0
   37.3550   27.5270   34.1340 N   0  0  0  0  0  0  0  0  0  0  0  0
   36.5780   25.5490   35.6460 H   0  0  0  0  0  0  0  0  0  0  0  0
   38.7880   28.6640   36.1340 H   0  0  0  0  0  0  0  0  0  0  0  0
   36.3770   27.6300   33.8440 H   0  0  0  0  0  0  0  0  0  0  0  0
   38.2150   27.7760   33.5650 H   0  0  0  0  0  0  0  0  0  0  0  0
   40.0100   24.5010   34.5360 C   0  0  0  0  0  0  0  0  0  0  0  0
   39.1900   25.0100   34.0000 H   0  0  0  0  0  0  0  0  0  0  0  0
   40.3680   23.6020   34.0080 H   0  0  0  0  0  0  0  0  0  0  0  0
   41.1870   25.4600   34.7010 C   0  0  0  0  0  0  0  0  0  0  0  0
   42.0550   24.9200   34.1630 H   0  0  0  0  0  0  0  0  0  0  0  0
   41.5470   25.5230   35.7150 H   0  0  0  0  0  0  0  0  0  0  0  0
   41.1000   26.3630   34.0950 H   0  0  0  0  0  0  0  0  0  0  0  0
  1  7  1  0  0  0  0
  1  6  1  0  0  0  0
  2  1  2  0  0  0  0
  3  2  1  0  0  0  0
  3  4  2  0  0  0  0
  4  5  1  0  0  0  0
  5  8  1  0  0  0  0
  5  6  2  0  0  0  0
  9  2  1  0  0  0  0
 10  9  1  0  0  0  0
 10 11  2  0  0  0  0
 12 10  1  0  0  0  0
 13  9  1  0  0  0  0
 14 11  1  0  0  0  0
 15 12  1  0  0  0  0
 16 12  1  0  0  0  0
 17 20  1  0  0  0  0
 17  3  1  0  0  0  0
 18 17  1  0  0  0  0
 19 17  1  0  0  0  0
 20 22  1  0  0  0  0
 21 20  1  0  0  0  0
 23 20  1  0  0  0  0
M  END
>  <minimizedAffinity>
-3.84417462

>  <minimizedRMSD>
4.54516268

$$$$
