
 OpenBabel03262516573D

 24 25  0  0  0  0  0  0  0  0999 V2000
   39.4190   22.8740   37.2790 C   0  0  0  0  0  0  0  0  0  0  0  0
   38.5330   23.6610   36.5560 C   0  0  0  0  0  0  0  0  0  0  0  0
   37.6190   24.1140   37.4720 N   0  0  0  0  0  0  0  0  0  0  0  0
   37.9680   23.6090   38.6700 C   0  0  0  0  0  0  0  0  0  0  0  0
   39.0470   22.8630   38.5670 N   0  0  0  0  0  0  0  0  0  0  0  0
   37.4010   23.8160   39.5880 H   0  0  0  0  0  0  0  0  0  0  0  0
   39.5660   22.3340   39.3070 H   0  0  0  0  0  0  0  0  0  0  0  0
   42.5310   20.8400   36.9640 C   0  0  0  0  0  0  0  0  0  0  0  0
   41.4350   21.5000   37.5280 C   0  0  0  0  0  0  0  0  0  0  0  0
   40.5530   22.1940   36.6850 C   0  0  0  0  0  0  0  0  0  0  0  0
   40.8340   22.1780   35.3500 N   0  0  0  0  0  0  0  0  0  0  0  0
   41.8960   21.5340   34.8480 C   0  0  0  0  0  0  0  0  0  0  0  0
   42.7340   20.8740   35.6420 N   0  0  0  0  0  0  0  0  0  0  0  0
   43.1670   20.3250   37.6880 H   0  0  0  0  0  0  0  0  0  0  0  0
   41.2370   21.4950   38.5940 H   0  0  0  0  0  0  0  0  0  0  0  0
   42.0130   21.5940   33.7680 H   0  0  0  0  0  0  0  0  0  0  0  0
   38.4780   23.9950   35.1810 N   0  0  0  0  0  0  0  0  0  0  0  0
   38.0580   25.2720   34.7180 C   0  0  0  0  0  0  0  0  0  0  0  0
   38.2280   26.2860   35.5290 N   0  0  0  0  0  0  0  0  0  0  0  0
   37.4880   25.3580   33.4210 N   0  0  0  0  0  0  0  0  0  0  0  0
   38.7520   23.2890   34.4590 H   0  0  0  0  0  0  0  0  0  0  0  0
   37.9240   27.2300   35.2020 H   0  0  0  0  0  0  0  0  0  0  0  0
   37.9760   24.8450   32.6310 H   0  0  0  0  0  0  0  0  0  0  0  0
   36.6300   25.9580   33.4970 H   0  0  0  0  0  0  0  0  0  0  0  0
  1  5  1  0  0  0  0
  2  1  2  0  0  0  0
  2  3  1  0  0  0  0
  3  4  2  0  0  0  0
  4  6  1  0  0  0  0
  5  4  1  0  0  0  0
  5  7  1  0  0  0  0
  8  9  1  0  0  0  0
  8 14  1  0  0  0  0
  9 15  1  0  0  0  0
 10  1  1  0  0  0  0
 10  9  2  0  0  0  0
 11 10  1  0  0  0  0
 12 11  2  0  0  0  0
 12 13  1  0  0  0  0
 13  8  2  0  0  0  0
 16 12  1  0  0  0  0
 17  2  1  0  0  0  0
 18 17  1  0  0  0  0
 18 19  2  0  0  0  0
 20 24  1  0  0  0  0
 20 18  1  0  0  0  0
 21 17  1  0  0  0  0
 22 19  1  0  0  0  0
 23 20  1  0  0  0  0
M  END
>  <minimizedAffinity>
-4.39773226

>  <minimizedRMSD>
0.197239518

$$$$
