
 OpenBabel03262519493D

 23 23  0  0  0  0  0  0  0  0999 V2000
   37.9810   24.3540   36.5660 C   0  0  0  0  0  0  0  0  0  0  0  0
   39.0050   23.5570   35.9500 C   0  0  0  0  0  0  0  0  0  0  0  0
   39.7720   22.8470   36.8480 C   0  0  0  0  0  0  0  0  0  0  0  0
   39.5300   22.9250   38.2180 N   0  0  0  0  0  0  0  0  0  0  0  0
   38.5650   23.6760   38.7290 C   0  0  0  0  0  0  0  0  0  0  0  0
   37.7750   24.4040   37.9120 N   0  0  0  0  0  0  0  0  0  0  0  0
   37.2240   25.0340   36.2200 H   0  0  0  0  0  0  0  0  0  0  0  0
   38.6130   23.5400   39.7850 H   0  0  0  0  0  0  0  0  0  0  0  0
   38.9020   23.6490   34.5480 N   0  0  0  0  0  0  0  0  0  0  0  0
   37.9400   23.1030   33.6590 C   0  0  0  0  0  0  0  0  0  0  0  0
   37.7210   21.8300   33.9170 N   0  0  0  0  0  0  0  0  0  0  0  0
   37.3240   23.8960   32.6180 N   0  0  0  0  0  0  0  0  0  0  0  0
   39.5810   24.1510   33.9000 H   0  0  0  0  0  0  0  0  0  0  0  0
   37.0480   21.3020   33.3560 H   0  0  0  0  0  0  0  0  0  0  0  0
   37.7830   24.3360   31.8160 H   0  0  0  0  0  0  0  0  0  0  0  0
   36.2900   23.9280   32.8540 H   0  0  0  0  0  0  0  0  0  0  0  0
   40.8390   22.0910   36.1400 C   0  0  0  0  0  0  0  0  0  0  0  0
   41.4650   22.7370   35.5000 H   0  0  0  0  0  0  0  0  0  0  0  0
   40.3070   21.3140   35.5670 H   0  0  0  0  0  0  0  0  0  0  0  0
   41.7140   21.4000   37.1840 C   0  0  0  0  0  0  0  0  0  0  0  0
   41.5470   20.2750   36.9770 H   0  0  0  0  0  0  0  0  0  0  0  0
   41.3420   21.5080   38.1900 H   0  0  0  0  0  0  0  0  0  0  0  0
   42.7820   21.4900   36.9830 H   0  0  0  0  0  0  0  0  0  0  0  0
  1  6  1  0  0  0  0
  2  1  2  0  0  0  0
  2  3  1  0  0  0  0
  3  4  2  0  0  0  0
  4  5  1  0  0  0  0
  5  8  1  0  0  0  0
  6  5  2  0  0  0  0
  7  1  1  0  0  0  0
  9  2  1  0  0  0  0
 10 11  2  0  0  0  0
 10  9  1  0  0  0  0
 12 16  1  0  0  0  0
 12 10  1  0  0  0  0
 13  9  1  0  0  0  0
 14 11  1  0  0  0  0
 15 12  1  0  0  0  0
 17  3  1  0  0  0  0
 17 20  1  0  0  0  0
 18 17  1  0  0  0  0
 19 17  1  0  0  0  0
 20 22  1  0  0  0  0
 21 20  1  0  0  0  0
 23 20  1  0  0  0  0
M  END
>  <minimizedAffinity>
-3.35860324

>  <minimizedRMSD>
4.89139223

$$$$
