
 OpenBabel03262519273D

 32 34  0  0  0  0  0  0  0  0999 V2000
   40.7020   21.9960   37.5190 O   0  0  0  0  0  0  0  0  0  0  0  0
   39.6590   22.8440   37.2720 C   0  0  0  0  0  0  0  0  0  0  0  0
   38.9460   23.3230   38.3890 C   0  0  0  0  0  0  0  0  0  0  0  0
   37.8830   24.1880   38.1290 C   0  0  0  0  0  0  0  0  0  0  0  0
   37.5960   24.5160   36.8550 N   0  0  0  0  0  0  0  0  0  0  0  0
   38.3070   24.0340   35.8000 C   0  0  0  0  0  0  0  0  0  0  0  0
   39.3360   23.2010   36.0050 N   0  0  0  0  0  0  0  0  0  0  0  0
   39.2010   23.0410   39.3840 H   0  0  0  0  0  0  0  0  0  0  0  0
   37.2860   24.5990   38.9340 H   0  0  0  0  0  0  0  0  0  0  0  0
   37.9620   24.4130   34.4730 N   0  0  0  0  0  0  0  0  0  0  0  0
   37.6710   25.7750   34.1300 C   0  0  0  0  0  0  0  0  0  0  0  0
   37.0910   26.4920   35.0550 N   0  0  0  0  0  0  0  0  0  0  0  0
   38.0400   26.2140   32.8180 N   0  0  0  0  0  0  0  0  0  0  0  0
   37.9170   23.6720   33.7240 H   0  0  0  0  0  0  0  0  0  0  0  0
   36.8780   27.4920   34.8020 H   0  0  0  0  0  0  0  0  0  0  0  0
   37.6960   25.9280   31.8770 H   0  0  0  0  0  0  0  0  0  0  0  0
   38.7870   26.9410   32.9480 H   0  0  0  0  0  0  0  0  0  0  0  0
   41.9520   22.0610   36.9780 C   0  0  0  0  0  0  0  0  0  0  0  0
   42.5670   23.1970   36.4680 C   0  0  0  0  0  0  0  0  0  0  0  0
   43.8050   22.9150   36.0100 N   0  0  0  0  0  0  0  0  0  0  0  0
   44.0480   21.6080   36.1970 C   0  0  0  0  0  0  0  0  0  0  0  0
   45.1390   20.8080   35.9170 C   0  0  0  0  0  0  0  0  0  0  0  0
   45.1040   19.4530   36.2320 C   0  0  0  0  0  0  0  0  0  0  0  0
   43.9600   18.9100   36.8340 C   0  0  0  0  0  0  0  0  0  0  0  0
   42.8780   19.7360   37.1050 C   0  0  0  0  0  0  0  0  0  0  0  0
   42.9130   21.0830   36.7910 C   0  0  0  0  0  0  0  0  0  0  0  0
   42.1760   24.2180   36.4060 H   0  0  0  0  0  0  0  0  0  0  0  0
   44.5030   23.5590   35.5740 H   0  0  0  0  0  0  0  0  0  0  0  0
   46.0370   21.1900   35.4540 H   0  0  0  0  0  0  0  0  0  0  0  0
   45.9040   18.7450   36.0530 H   0  0  0  0  0  0  0  0  0  0  0  0
   43.8630   17.8670   37.1060 H   0  0  0  0  0  0  0  0  0  0  0  0
   41.9900   19.3170   37.5710 H   0  0  0  0  0  0  0  0  0  0  0  0
  2  1  1  0  0  0  0
  2  3  1  0  0  0  0
  3  8  1  0  0  0  0
  4  3  2  0  0  0  0
  4  9  1  0  0  0  0
  5  4  1  0  0  0  0
  6  7  1  0  0  0  0
  6  5  2  0  0  0  0
  7  2  2  0  0  0  0
 10  6  1  0  0  0  0
 11 10  1  0  0  0  0
 11 12  2  0  0  0  0
 13 17  1  0  0  0  0
 13 11  1  0  0  0  0
 14 10  1  0  0  0  0
 15 12  1  0  0  0  0
 16 13  1  0  0  0  0
 18  1  1  0  0  0  0
 19 18  2  0  0  0  0
 20 21  1  0  0  0  0
 20 19  1  0  0  0  0
 21 26  1  0  0  0  0
 22 21  2  0  0  0  0
 22 23  1  0  0  0  0
 23 24  2  0  0  0  0
 24 25  1  0  0  0  0
 24 31  1  0  0  0  0
 25 32  1  0  0  0  0
 26 18  1  0  0  0  0
 26 25  2  0  0  0  0
 27 19  1  0  0  0  0
 28 20  1  0  0  0  0
 29 22  1  0  0  0  0
 30 23  1  0  0  0  0
M  END
>  <minimizedAffinity>
-5.04641962

>  <minimizedRMSD>
0.604631066

$$$$
