
 OpenBabel03262519553D

 31 33  0  0  1  0  0  0  0  0999 V2000
   38.0430   23.8080   34.4490 C   0  0  0  0  0  0  0  0  0  0  0  0
   38.1370   25.0500   33.8210 C   0  0  0  0  0  0  0  0  0  0  0  0
   37.6880   24.7930   32.5520 N   0  0  0  0  0  0  0  0  0  0  0  0
   37.3700   23.5120   32.4800 C   0  0  0  0  0  0  0  0  0  0  0  0
   37.5770   22.8600   33.6450 N   0  0  0  0  0  0  0  0  0  0  0  0
   38.4760   25.9910   34.2180 H   0  0  0  0  0  0  0  0  0  0  0  0
   36.9850   23.0820   31.5520 H   0  0  0  0  0  0  0  0  0  0  0  0
   38.4110   23.5650   35.8330 C   0  0  0  0  0  0  0  0  0  0  0  0
   39.6400   22.9790   36.1520 C   0  0  0  0  0  0  0  0  0  0  0  0
   39.9440   22.7670   37.5140 C   0  0  0  0  0  0  0  0  0  0  0  0
   39.0310   23.1410   38.4300 N   0  0  0  0  0  0  0  0  0  0  0  0
   37.8500   23.7050   38.1010 C   0  0  0  0  0  0  0  0  0  0  0  0
   37.5310   23.9210   36.8100 N   0  0  0  0  0  0  0  0  0  0  0  0
   40.3390   22.6960   35.3830 H   0  0  0  0  0  0  0  0  0  0  0  0
   40.8650   22.3250   37.8070 H   0  0  0  0  0  0  0  0  0  0  0  0
   37.1020   24.0130   38.8220 H   0  0  0  0  0  0  0  0  0  0  0  0
   37.3170   21.4680   33.8430 C   0  0  1  0  0  0  0  0  0  0  0  0
   36.1100   20.9940   34.5280 C   0  0  0  0  0  0  0  0  0  0  0  0
   36.1480   20.9540   33.0050 C   0  0  2  0  0  0  0  0  0  0  0  0
   38.2120   20.8130   33.8760 H   0  0  0  0  0  0  0  0  0  0  0  0
   36.1760   20.0790   35.1170 H   0  0  0  0  0  0  0  0  0  0  0  0
   35.3500   21.6970   34.9140 H   0  0  0  0  0  0  0  0  0  0  0  0
   35.5460   21.6580   32.4350 H   0  0  0  0  0  0  0  0  0  0  0  0
   36.2300   19.5920   32.5100 N   0  0  0  0  0  0  0  0  0  0  0  0
   35.0060   18.9110   32.2610 C   0  0  0  0  0  0  0  0  0  0  0  0
   33.9560   19.5240   31.8480 N   0  0  0  0  0  0  0  0  0  0  0  0
   34.8820   17.4900   32.4590 N   0  0  0  0  0  0  0  0  0  0  0  0
   37.1120   19.0680   32.3210 H   0  0  0  0  0  0  0  0  0  0  0  0
   33.8610   20.5290   31.6540 H   0  0  0  0  0  0  0  0  0  0  0  0
   34.9700   16.7080   33.1410 H   0  0  0  0  0  0  0  0  0  0  0  0
   34.5860   16.8670   31.6650 H   0  0  0  0  0  0  0  0  0  0  0  0
  1  8  1  0  0  0  0
  2  6  1  0  0  0  0
  2  1  2  0  0  0  0
  3  2  1  0  0  0  0
  4  3  2  0  0  0  0
  4  5  1  0  0  0  0
  5 17  1  0  0  0  0
  5  1  1  0  0  0  0
  7  4  1  0  0  0  0
  8  9  2  0  0  0  0
  8 13  1  0  0  0  0
  9 10  1  0  0  0  0
 10 15  1  0  0  0  0
 10 11  2  0  0  0  0
 12 11  1  0  0  0  0
 12 16  1  0  0  0  0
 13 12  2  0  0  0  0
 14  9  1  0  0  0  0
 17 20  1  1  0  0  0
 17 18  1  0  0  0  0
 18 22  1  0  0  0  0
 18 21  1  0  0  0  0
 19 23  1  6  0  0  0
 19 17  1  0  0  0  0
 19 18  1  0  0  0  0
 24 19  1  0  0  0  0
 25 27  1  0  0  0  0
 25 24  1  0  0  0  0
 26 25  2  0  0  0  0
 27 30  1  0  0  0  0
 28 24  1  0  0  0  0
 29 26  1  0  0  0  0
 31 27  1  0  0  0  0
M  END
>  <minimizedAffinity>
-5.00208282

>  <minimizedRMSD>
1.35983491

$$$$
