
 OpenBabel03262519463D

 40 42  0  0  1  0  0  0  0  0999 V2000
   37.3810   25.7860   32.9090 N   0  0  0  0  0  0  0  0  0  0  0  0
   36.8990   24.6850   32.3340 C   0  0  0  0  0  0  0  0  0  0  0  0
   35.8600   24.9150   31.4670 C   0  0  0  0  0  0  0  0  0  0  0  0
   35.6880   26.2370   31.5090 N   0  0  0  0  0  0  0  0  0  0  0  0
   36.6020   26.7650   32.3750 C   0  0  0  0  0  0  0  0  0  0  0  0
   37.3270   23.6930   32.5600 H   0  0  0  0  0  0  0  0  0  0  0  0
   35.3480   24.1400   30.9140 H   0  0  0  0  0  0  0  0  0  0  0  0
   36.6440   28.2580   32.5840 C   0  0  1  0  0  0  0  0  0  0  0  0
   35.4630   29.0300   32.1390 C   0  0  0  0  0  0  0  0  0  0  0  0
   35.6720   28.8140   33.6140 C   0  0  2  0  0  0  0  0  0  0  0  0
   37.6340   28.7440   32.5170 H   0  0  0  0  0  0  0  0  0  0  0  0
   35.5230   30.0260   31.7050 H   0  0  0  0  0  0  0  0  0  0  0  0
   34.5840   28.4290   31.7600 H   0  0  0  0  0  0  0  0  0  0  0  0
   35.0690   28.1070   34.1780 H   0  0  0  0  0  0  0  0  0  0  0  0
   36.1580   30.0060   34.2800 N   0  0  0  0  0  0  0  0  0  0  0  0
   35.3040   30.6590   35.2080 C   0  0  0  0  0  0  0  0  0  0  0  0
   34.0190   30.5340   35.1840 N   0  0  0  0  0  0  0  0  0  0  0  0
   35.8690   31.4840   36.2070 N   0  0  0  0  0  0  0  0  0  0  0  0
   37.1150   30.4170   34.1130 H   0  0  0  0  0  0  0  0  0  0  0  0
   33.6530   29.9150   34.4280 H   0  0  0  0  0  0  0  0  0  0  0  0
   36.3040   32.0900   36.9350 H   0  0  0  0  0  0  0  0  0  0  0  0
   36.8560   31.7580   36.2300 H   0  0  0  0  0  0  0  0  0  0  0  0
   38.4030   26.0640   33.8500 C   0  0  0  0  0  0  0  0  0  0  0  0
   38.9000   27.0410   33.6150 H   0  0  0  0  0  0  0  0  0  0  0  0
   39.2120   25.3060   33.7600 H   0  0  0  0  0  0  0  0  0  0  0  0
   37.9290   26.0410   35.2570 C   0  0  1  0  0  0  0  0  0  0  0  0
   36.8270   25.8590   35.2740 H   0  0  0  0  0  0  0  0  0  0  0  0
   38.5340   23.4850   37.9840 C   0  0  0  0  0  0  0  0  0  0  0  0
   37.9250   24.5700   37.3260 C   0  0  0  0  0  0  0  0  0  0  0  0
   38.5000   24.9200   36.0510 C   0  0  0  0  0  0  0  0  0  0  0  0
   39.5750   24.2120   35.5460 N   0  0  0  0  0  0  0  0  0  0  0  0
   40.0910   23.1940   36.2400 C   0  0  0  0  0  0  0  0  0  0  0  0
   39.5710   22.8280   37.4590 N   0  0  0  0  0  0  0  0  0  0  0  0
   38.0560   23.2770   38.9280 H   0  0  0  0  0  0  0  0  0  0  0  0
   37.0960   25.1470   37.6730 H   0  0  0  0  0  0  0  0  0  0  0  0
   40.9310   22.6080   35.8890 H   0  0  0  0  0  0  0  0  0  0  0  0
   38.2310   27.3730   35.9360 C   0  0  0  0  0  0  0  0  0  0  0  0
   39.0380   27.9230   35.4200 H   0  0  0  0  0  0  0  0  0  0  0  0
   37.2830   27.9450   35.9490 H   0  0  0  0  0  0  0  0  0  0  0  0
   38.4600   27.1470   36.9980 H   0  0  0  0  0  0  0  0  0  0  0  0
  1 23  1  0  0  0  0
  2  6  1  0  0  0  0
  2  1  1  0  0  0  0
  3  4  1  0  0  0  0
  3  2  2  0  0  0  0
  4  5  2  0  0  0  0
  5  8  1  0  0  0  0
  5  1  1  0  0  0  0
  7  3  1  0  0  0  0
  8 11  1  6  0  0  0
  8 10  1  0  0  0  0
  9  8  1  0  0  0  0
  9 10  1  0  0  0  0
 10 14  1  1  0  0  0
 10 15  1  0  0  0  0
 12  9  1  0  0  0  0
 13  9  1  0  0  0  0
 15 16  1  0  0  0  0
 16 18  1  0  0  0  0
 17 16  2  0  0  0  0
 18 22  1  0  0  0  0
 18 21  1  0  0  0  0
 19 15  1  0  0  0  0
 20 17  1  0  0  0  0
 23 26  1  0  0  0  0
 24 23  1  0  0  0  0
 25 23  1  0  0  0  0
 26 27  1  6  0  0  0
 26 37  1  0  0  0  0
 26 30  1  0  0  0  0
 28 34  1  0  0  0  0
 29 35  1  0  0  0  0
 29 28  2  0  0  0  0
 30 29  1  0  0  0  0
 31 30  2  0  0  0  0
 31 32  1  0  0  0  0
 32 33  2  0  0  0  0
 33 28  1  0  0  0  0
 36 32  1  0  0  0  0
 37 39  1  0  0  0  0
 37 40  1  0  0  0  0
 38 37  1  0  0  0  0
M  END
>  <minimizedAffinity>
-5.06058598

>  <minimizedRMSD>
1.2218051

$$$$
