
 OpenBabel03262519103D

 30 33  0  0  0  0  0  0  0  0999 V2000
   38.0120   25.5400   35.2150 C   0  0  0  0  0  0  0  0  0  0  0  0
   37.6510   26.8630   35.4750 C   0  0  0  0  0  0  0  0  0  0  0  0
   37.1080   27.6060   34.4950 C   0  0  0  0  0  0  0  0  0  0  0  0
   36.9360   26.9570   33.2140 C   0  0  0  0  0  0  0  0  0  0  0  0
   37.5870   25.2470   33.4860 S   0  0  0  0  0  0  0  0  0  0  0  0
   37.8040   27.2930   36.4530 H   0  0  0  0  0  0  0  0  0  0  0  0
   36.7710   28.6280   34.5090 H   0  0  0  0  0  0  0  0  0  0  0  0
   38.0660   24.2980   37.3870 C   0  0  0  0  0  0  0  0  0  0  0  0
   38.5930   24.6020   36.1170 C   0  0  0  0  0  0  0  0  0  0  0  0
   39.7320   23.9550   35.7270 C   0  0  0  0  0  0  0  0  0  0  0  0
   40.2920   23.0550   36.5830 N   0  0  0  0  0  0  0  0  0  0  0  0
   39.7680   22.7840   37.7910 C   0  0  0  0  0  0  0  0  0  0  0  0
   38.6650   23.4080   38.1720 N   0  0  0  0  0  0  0  0  0  0  0  0
   37.1620   24.8310   37.6630 H   0  0  0  0  0  0  0  0  0  0  0  0
   40.1900   24.1490   34.7500 H   0  0  0  0  0  0  0  0  0  0  0  0
   40.2960   22.0510   38.3920 H   0  0  0  0  0  0  0  0  0  0  0  0
   36.4330   27.3480   31.9560 C   0  0  0  0  0  0  0  0  0  0  0  0
   35.4580   26.6630   31.4930 O   0  0  0  0  0  0  0  0  0  0  0  0
   36.7450   28.3880   30.9860 C   0  0  0  0  0  0  0  0  0  0  0  0
   37.2980   27.9840   29.8030 N   0  0  0  0  0  0  0  0  0  0  0  0
   37.6240   28.8910   28.8330 C   0  0  0  0  0  0  0  0  0  0  0  0
   37.4160   30.2290   28.9990 N   0  0  0  0  0  0  0  0  0  0  0  0
   36.8740   30.6970   30.1440 C   0  0  0  0  0  0  0  0  0  0  0  0
   36.6690   32.0280   30.3450 C   0  0  0  0  0  0  0  0  0  0  0  0
   36.1400   32.4950   31.5120 C   0  0  0  0  0  0  0  0  0  0  0  0
   35.9910   33.5560   31.6370 H   0  0  0  0  0  0  0  0  0  0  0  0
   35.8170   31.5520   32.4910 C   0  0  0  0  0  0  0  0  0  0  0  0
   35.3980   31.9400   33.4100 H   0  0  0  0  0  0  0  0  0  0  0  0
   36.0430   30.2200   32.2380 C   0  0  0  0  0  0  0  0  0  0  0  0
   36.5750   29.7290   31.0690 C   0  0  0  0  0  0  0  0  0  0  0  0
  1  2  2  0  0  0  0
  1  9  1  0  0  0  0
  2  6  1  0  0  0  0
  3  7  1  0  0  0  0
  3  2  1  0  0  0  0
  4  5  1  0  0  0  0
  4  3  2  0  0  0  0
  5  1  1  0  0  0  0
  8 14  1  0  0  0  0
  8 13  1  0  0  0  0
  9  8  2  0  0  0  0
 10  9  1  0  0  0  0
 10 11  2  0  0  0  0
 11 12  1  0  0  0  0
 12 13  2  0  0  0  0
 12 16  1  0  0  0  0
 15 10  1  0  0  0  0
 17  4  1  0  0  0  0
 18 17  2  0  0  0  0
 19 30  1  0  0  0  0
 19 17  1  0  0  0  0
 20 19  2  0  0  0  0
 21 22  2  0  0  0  0
 21 20  1  0  0  0  0
 22 23  1  0  0  0  0
 23 24  2  0  0  0  0
 23 30  1  0  0  0  0
 24 25  1  0  0  0  0
 25 26  1  0  0  0  0
 25 27  2  0  0  0  0
 27 28  1  0  0  0  0
 29 27  1  0  0  0  0
 30 29  2  0  0  0  0
M  END
>  <minimizedAffinity>
-5.6524477

>  <minimizedRMSD>
0.595891654

$$$$
