
 OpenBabel03262519243D

 44 48  0  0  0  0  0  0  0  0999 V2000
   38.8440   24.0480   32.3220 C   0  0  0  0  0  0  0  0  0  0  0  0
   39.4440   22.8050   32.4780 C   0  0  0  0  0  0  0  0  0  0  0  0
   38.7610   21.6110   32.2600 C   0  0  0  0  0  0  0  0  0  0  0  0
   37.4330   21.6390   31.8730 C   0  0  0  0  0  0  0  0  0  0  0  0
   36.8090   22.8590   31.7090 C   0  0  0  0  0  0  0  0  0  0  0  0
   35.4960   22.9200   31.3160 C   0  0  0  0  0  0  0  0  0  0  0  0
   34.8170   24.0940   31.1270 C   0  0  0  0  0  0  0  0  0  0  0  0
   35.5270   25.2590   31.3540 C   0  0  0  0  0  0  0  0  0  0  0  0
   36.8420   25.1980   31.7470 C   0  0  0  0  0  0  0  0  0  0  0  0
   37.5140   24.0310   31.9330 C   0  0  0  0  0  0  0  0  0  0  0  0
   40.4780   22.7980   32.7800 H   0  0  0  0  0  0  0  0  0  0  0  0
   39.3380   20.7160   32.4150 H   0  0  0  0  0  0  0  0  0  0  0  0
   36.9340   20.7030   31.7130 H   0  0  0  0  0  0  0  0  0  0  0  0
   35.0230   21.9750   31.1660 H   0  0  0  0  0  0  0  0  0  0  0  0
   33.7970   24.0090   30.8200 H   0  0  0  0  0  0  0  0  0  0  0  0
   34.8830   26.1150   31.1920 H   0  0  0  0  0  0  0  0  0  0  0  0
   39.5940   25.2540   32.5500 C   0  0  0  0  0  0  0  0  0  0  0  0
   39.7450   25.8150   33.8290 C   0  0  0  0  0  0  0  0  0  0  0  0
   40.4820   27.0010   33.9320 C   0  0  0  0  0  0  0  0  0  0  0  0
   41.0220   27.5660   32.8210 N   0  0  0  0  0  0  0  0  0  0  0  0
   40.8570   26.9930   31.5960 C   0  0  0  0  0  0  0  0  0  0  0  0
   40.1670   25.8730   31.4670 N   0  0  0  0  0  0  0  0  0  0  0  0
   40.5910   27.4250   34.9220 H   0  0  0  0  0  0  0  0  0  0  0  0
   41.3410   27.5500   30.8070 H   0  0  0  0  0  0  0  0  0  0  0  0
   39.1750   25.2040   34.9290 N   0  0  0  0  0  0  0  0  0  0  0  0
   37.9260   25.4220   35.4140 C   0  0  0  0  0  0  0  0  0  0  0  0
   37.6770   24.6640   36.5010 N   0  0  0  0  0  0  0  0  0  0  0  0
   38.8040   23.9340   36.7210 C   0  0  0  0  0  0  0  0  0  0  0  0
   39.1620   23.0020   37.6560 C   0  0  0  0  0  0  0  0  0  0  0  0
   40.3660   22.3890   37.6870 N   0  0  0  0  0  0  0  0  0  0  0  0
   41.2400   22.7590   36.7030 C   0  0  0  0  0  0  0  0  0  0  0  0
   40.8830   23.6650   35.7990 N   0  0  0  0  0  0  0  0  0  0  0  0
   39.7070   24.2880   35.7380 C   0  0  0  0  0  0  0  0  0  0  0  0
   37.1970   26.1120   35.0030 H   0  0  0  0  0  0  0  0  0  0  0  0
   38.4120   22.7650   38.4000 H   0  0  0  0  0  0  0  0  0  0  0  0
   42.2390   22.3640   36.5880 H   0  0  0  0  0  0  0  0  0  0  0  0
   37.3450   26.4890   32.0170 N   0  0  0  0  0  0  0  0  0  0  0  0
   36.9150   27.6660   31.2770 C   0  0  0  0  0  0  0  0  0  0  0  0
   36.7080   27.6320   29.9760 N   0  0  0  0  0  0  0  0  0  0  0  0
   36.6810   28.9960   31.8110 N   0  0  0  0  0  0  0  0  0  0  0  0
   37.9450   27.0710   32.6110 H   0  0  0  0  0  0  0  0  0  0  0  0
   36.8280   26.7930   29.3860 H   0  0  0  0  0  0  0  0  0  0  0  0
   37.3860   29.5290   32.3980 H   0  0  0  0  0  0  0  0  0  0  0  0
   35.7440   29.4400   31.5870 H   0  0  0  0  0  0  0  0  0  0  0  0
  1  2  1  0  0  0  0
  1 17  1  0  0  0  0
  2 11  1  0  0  0  0
  3 12  1  0  0  0  0
  3  2  2  0  0  0  0
  4  3  1  0  0  0  0
  5  4  2  0  0  0  0
  5 10  1  0  0  0  0
  6  5  1  0  0  0  0
  7  6  2  0  0  0  0
  7  8  1  0  0  0  0
  8  9  2  0  0  0  0
  9 10  1  0  0  0  0
  9 37  1  0  0  0  0
 10  1  2  0  0  0  0
 13  4  1  0  0  0  0
 14  6  1  0  0  0  0
 15  7  1  0  0  0  0
 16  8  1  0  0  0  0
 17 18  1  0  0  0  0
 18 19  2  0  0  0  0
 18 25  1  0  0  0  0
 19 23  1  0  0  0  0
 20 19  1  0  0  0  0
 21 20  2  0  0  0  0
 22 21  1  0  0  0  0
 22 17  2  0  0  0  0
 24 21  1  0  0  0  0
 25 26  1  0  0  0  0
 25 33  1  0  0  0  0
 26 27  2  0  0  0  0
 27 28  1  0  0  0  0
 28 29  1  0  0  0  0
 29 30  2  0  0  0  0
 29 35  1  0  0  0  0
 31 30  1  0  0  0  0
 32 31  2  0  0  0  0
 33 32  1  0  0  0  0
 33 28  2  0  0  0  0
 34 26  1  0  0  0  0
 36 31  1  0  0  0  0
 37 41  1  0  0  0  0
 38 40  1  0  0  0  0
 38 37  1  0  0  0  0
 39 38  2  0  0  0  0
 40 43  1  0  0  0  0
 42 39  1  0  0  0  0
 44 40  1  0  0  0  0
M  END
>  <minimizedAffinity>
-6.11480618

>  <minimizedRMSD>
0.744473279

$$$$
