
 OpenBabel03262519543D

 31 33  0  0  1  0  0  0  0  0999 V2000
   37.9620   23.4150   34.6220 C   0  0  0  0  0  0  0  0  0  0  0  0
   38.1880   24.4960   33.7690 C   0  0  0  0  0  0  0  0  0  0  0  0
   37.6590   24.0700   32.5790 N   0  0  0  0  0  0  0  0  0  0  0  0
   37.1790   22.8510   32.7540 C   0  0  0  0  0  0  0  0  0  0  0  0
   37.3480   22.4050   34.0180 N   0  0  0  0  0  0  0  0  0  0  0  0
   38.6580   25.4410   33.9760 H   0  0  0  0  0  0  0  0  0  0  0  0
   36.7070   22.3100   31.9300 H   0  0  0  0  0  0  0  0  0  0  0  0
   38.3500   23.3860   36.0210 C   0  0  0  0  0  0  0  0  0  0  0  0
   39.5540   22.7940   36.4150 C   0  0  0  0  0  0  0  0  0  0  0  0
   39.8800   22.7950   37.7890 C   0  0  0  0  0  0  0  0  0  0  0  0
   39.0100   23.3680   38.6420 N   0  0  0  0  0  0  0  0  0  0  0  0
   37.8530   23.9350   38.2420 C   0  0  0  0  0  0  0  0  0  0  0  0
   37.5150   23.9490   36.9370 N   0  0  0  0  0  0  0  0  0  0  0  0
   40.2180   22.3470   35.6940 H   0  0  0  0  0  0  0  0  0  0  0  0
   40.7830   22.3570   38.1380 H   0  0  0  0  0  0  0  0  0  0  0  0
   37.1410   24.4000   38.9120 H   0  0  0  0  0  0  0  0  0  0  0  0
   36.9220   21.1200   34.4800 C   0  0  1  0  0  0  0  0  0  0  0  0
   35.6520   20.9330   35.1900 C   0  0  0  0  0  0  0  0  0  0  0  0
   35.7190   20.5780   33.7090 C   0  0  2  0  0  0  0  0  0  0  0  0
   37.7330   20.3900   34.6840 H   0  0  0  0  0  0  0  0  0  0  0  0
   35.5970   20.1560   35.9530 H   0  0  0  0  0  0  0  0  0  0  0  0
   34.9720   21.7800   35.3920 H   0  0  0  0  0  0  0  0  0  0  0  0
   35.2160   21.2130   32.9830 H   0  0  0  0  0  0  0  0  0  0  0  0
   35.6510   19.1430   33.5010 N   0  0  0  0  0  0  0  0  0  0  0  0
   35.3510   18.6840   32.1900 C   0  0  0  0  0  0  0  0  0  0  0  0
   35.7360   19.3160   31.1410 N   0  0  0  0  0  0  0  0  0  0  0  0
   34.5950   17.4780   31.9690 N   0  0  0  0  0  0  0  0  0  0  0  0
   35.8040   18.4180   34.2360 H   0  0  0  0  0  0  0  0  0  0  0  0
   36.2810   20.1890   31.1070 H   0  0  0  0  0  0  0  0  0  0  0  0
   33.6990   16.9810   32.1540 H   0  0  0  0  0  0  0  0  0  0  0  0
   35.0030   16.6930   31.4000 H   0  0  0  0  0  0  0  0  0  0  0  0
  1  8  1  0  0  0  0
  2  6  1  0  0  0  0
  2  1  2  0  0  0  0
  3  4  2  0  0  0  0
  3  2  1  0  0  0  0
  4  5  1  0  0  0  0
  5 17  1  0  0  0  0
  5  1  1  0  0  0  0
  7  4  1  0  0  0  0
  8  9  2  0  0  0  0
  8 13  1  0  0  0  0
  9 10  1  0  0  0  0
 10 15  1  0  0  0  0
 10 11  2  0  0  0  0
 12 11  1  0  0  0  0
 12 16  1  0  0  0  0
 13 12  2  0  0  0  0
 14  9  1  0  0  0  0
 17 20  1  1  0  0  0
 17 18  1  0  0  0  0
 18 22  1  0  0  0  0
 18 21  1  0  0  0  0
 19 23  1  6  0  0  0
 19 17  1  0  0  0  0
 19 18  1  0  0  0  0
 24 19  1  0  0  0  0
 24 28  1  0  0  0  0
 25 24  1  0  0  0  0
 26 25  2  0  0  0  0
 27 30  1  0  0  0  0
 27 25  1  0  0  0  0
 29 26  1  0  0  0  0
 31 27  1  0  0  0  0
M  END
>  <minimizedAffinity>
-4.84059477

>  <minimizedRMSD>
0.421139747

$$$$
