
 OpenBabel03262519543D

 27 29  0  0  1  0  0  0  0  0999 V2000
   37.9960   23.6000   34.2600 C   0  0  0  0  0  0  0  0  0  0  0  0
   38.1070   24.8080   33.5810 C   0  0  0  0  0  0  0  0  0  0  0  0
   37.5070   24.5570   32.3750 N   0  0  0  0  0  0  0  0  0  0  0  0
   37.0950   23.3090   32.3790 C   0  0  0  0  0  0  0  0  0  0  0  0
   37.3760   22.6730   33.5310 N   0  0  0  0  0  0  0  0  0  0  0  0
   38.5630   25.7280   33.9370 H   0  0  0  0  0  0  0  0  0  0  0  0
   36.5790   22.8700   31.5150 H   0  0  0  0  0  0  0  0  0  0  0  0
   38.4940   23.3560   35.6130 C   0  0  0  0  0  0  0  0  0  0  0  0
   39.7480   22.7710   35.8070 C   0  0  0  0  0  0  0  0  0  0  0  0
   40.1820   22.5570   37.1350 C   0  0  0  0  0  0  0  0  0  0  0  0
   39.3650   22.9270   38.1290 N   0  0  0  0  0  0  0  0  0  0  0  0
   38.1480   23.4960   37.9080 C   0  0  0  0  0  0  0  0  0  0  0  0
   37.7090   23.7100   36.6510 N   0  0  0  0  0  0  0  0  0  0  0  0
   40.3560   22.4960   34.9720 H   0  0  0  0  0  0  0  0  0  0  0  0
   41.1430   22.1080   37.3090 H   0  0  0  0  0  0  0  0  0  0  0  0
   37.4990   23.7890   38.7300 H   0  0  0  0  0  0  0  0  0  0  0  0
   37.0430   21.3060   33.8100 C   0  0  1  0  0  0  0  0  0  0  0  0
   35.8900   20.9040   34.5970 C   0  0  0  0  0  0  0  0  0  0  0  0
   35.8030   20.8300   33.0780 C   0  0  2  0  0  0  0  0  0  0  0  0
   37.9320   20.6470   33.8310 H   0  0  0  0  0  0  0  0  0  0  0  0
   35.2320   21.6990   35.0350 H   0  0  0  0  0  0  0  0  0  0  0  0
   35.8780   19.9790   35.1790 H   0  0  0  0  0  0  0  0  0  0  0  0
   35.1460   21.5230   32.5530 H   0  0  0  0  0  0  0  0  0  0  0  0
   35.9230   19.4390   32.5260 C   0  0  0  0  0  0  0  0  0  0  0  0
   34.9150   18.6770   32.5160 O   0  0  0  0  0  0  0  0  0  0  0  0
   37.1590   19.0220   32.0330 O   0  0  0  0  0  0  0  0  0  0  0  0
   37.2940   18.0450   31.7310 H   0  0  0  0  0  0  0  0  0  0  0  0
  1  8  1  0  0  0  0
  2  6  1  0  0  0  0
  2  1  2  0  0  0  0
  3  4  2  0  0  0  0
  3  2  1  0  0  0  0
  4  5  1  0  0  0  0
  5 17  1  0  0  0  0
  5  1  1  0  0  0  0
  7  4  1  0  0  0  0
  8  9  2  0  0  0  0
  8 13  1  0  0  0  0
  9 10  1  0  0  0  0
 10 15  1  0  0  0  0
 10 11  2  0  0  0  0
 12 11  1  0  0  0  0
 12 16  1  0  0  0  0
 13 12  2  0  0  0  0
 14  9  1  0  0  0  0
 17 20  1  1  0  0  0
 17 18  1  0  0  0  0
 18 21  1  0  0  0  0
 18 22  1  0  0  0  0
 19 23  1  6  0  0  0
 19 17  1  0  0  0  0
 19 18  1  0  0  0  0
 24 19  1  0  0  0  0
 25 24  2  0  0  0  0
 26 24  1  0  0  0  0
 27 26  1  0  0  0  0
M  END
>  <minimizedAffinity>
-4.14968681

>  <minimizedRMSD>
0.782414019

$$$$
