
 OpenBabel03262518043D

 28 30  0  0  0  0  0  0  0  0999 V2000
   43.6200   19.7230   37.0880 C   0  0  0  0  0  0  0  0  0  0  0  0
   42.4800   20.4990   37.3080 C   0  0  0  0  0  0  0  0  0  0  0  0
   41.9550   21.2180   36.2350 C   0  0  0  0  0  0  0  0  0  0  0  0
   42.5960   21.1170   35.0290 N   0  0  0  0  0  0  0  0  0  0  0  0
   43.6780   20.3700   34.8540 C   0  0  0  0  0  0  0  0  0  0  0  0
   44.1930   19.6680   35.8910 N   0  0  0  0  0  0  0  0  0  0  0  0
   43.9910   19.1790   37.9560 H   0  0  0  0  0  0  0  0  0  0  0  0
   41.9980   20.5630   38.2560 H   0  0  0  0  0  0  0  0  0  0  0  0
   44.3390   20.2920   33.5270 C   0  0  0  0  0  0  0  0  0  0  0  0
   45.7130   20.0320   33.3660 C   0  0  0  0  0  0  0  0  0  0  0  0
   46.1920   19.9900   32.0990 C   0  0  0  0  0  0  0  0  0  0  0  0
   45.3830   20.1870   30.9910 C   0  0  0  0  0  0  0  0  0  0  0  0
   43.7400   20.4730   31.8220 S   0  0  0  0  0  0  0  0  0  0  0  0
   46.3780   19.8720   34.2040 H   0  0  0  0  0  0  0  0  0  0  0  0
   47.1810   19.8110   31.7680 H   0  0  0  0  0  0  0  0  0  0  0  0
   45.4540   20.2270   29.5790 C   0  0  0  0  0  0  0  0  0  0  0  0
   45.9620   21.2230   29.0090 O   0  0  0  0  0  0  0  0  0  0  0  0
   44.9490   19.1420   28.8850 O   0  0  0  0  0  0  0  0  0  0  0  0
   44.9650   19.1050   27.8560 H   0  0  0  0  0  0  0  0  0  0  0  0
   40.7650   22.0550   36.3790 C   0  0  0  0  0  0  0  0  0  0  0  0
   39.9150   22.6510   35.5000 N   0  0  0  0  0  0  0  0  0  0  0  0
   39.0010   23.2940   36.1700 O   0  0  0  0  0  0  0  0  0  0  0  0
   39.2180   23.1440   37.4740 C   0  0  0  0  0  0  0  0  0  0  0  0
   40.3020   22.3820   37.5950 N   0  0  0  0  0  0  0  0  0  0  0  0
   38.4170   23.7080   38.5740 C   0  0  0  0  0  0  0  0  0  0  0  0
   39.2450   23.8830   39.6870 F   0  0  0  0  0  0  0  0  0  0  0  0
   37.3780   22.8710   38.9220 F   0  0  0  0  0  0  0  0  0  0  0  0
   37.9350   24.9500   38.2340 F   0  0  0  0  0  0  0  0  0  0  0  0
  1  2  1  0  0  0  0
  1  7  1  0  0  0  0
  2  8  1  0  0  0  0
  3 20  1  0  0  0  0
  3  2  2  0  0  0  0
  4  3  1  0  0  0  0
  5  4  2  0  0  0  0
  5  6  1  0  0  0  0
  6  1  2  0  0  0  0
  9  5  1  0  0  0  0
 10  9  2  0  0  0  0
 10 14  1  0  0  0  0
 11 10  1  0  0  0  0
 12 13  1  0  0  0  0
 12 11  2  0  0  0  0
 13  9  1  0  0  0  0
 15 11  1  0  0  0  0
 16 12  1  0  0  0  0
 17 16  2  0  0  0  0
 18 16  1  0  0  0  0
 19 18  1  0  0  0  0
 20 24  1  0  0  0  0
 21 22  1  0  0  0  0
 21 20  2  0  0  0  0
 22 23  1  0  0  0  0
 23 24  2  0  0  0  0
 23 25  1  0  0  0  0
 25 27  1  0  0  0  0
 25 26  1  0  0  0  0
 28 25  1  0  0  0  0
M  END
>  <minimizedAffinity>
-3.88806891

>  <minimizedRMSD>
0.0188451651

$$$$
