
 OpenBabel03262518253D

 23 24  0  0  0  0  0  0  0  0999 V2000
   37.4770   24.8150   36.4910 O   0  0  0  0  0  0  0  0  0  0  0  0
   39.3900   22.7080   38.5800 N   0  0  0  0  0  0  0  0  0  0  0  0
   38.3850   23.5170   38.3040 N   0  0  0  0  0  0  0  0  0  0  0  0
   38.4500   23.9370   37.0180 C   0  0  0  0  0  0  0  0  0  0  0  0
   39.5650   23.3640   36.4310 C   0  0  0  0  0  0  0  0  0  0  0  0
   40.1150   22.6110   37.4390 C   0  0  0  0  0  0  0  0  0  0  0  0
   39.6400   22.2100   39.4670 H   0  0  0  0  0  0  0  0  0  0  0  0
   39.8430   23.5360   35.4160 H   0  0  0  0  0  0  0  0  0  0  0  0
   41.3240   21.8100   37.2940 C   0  0  0  0  0  0  0  0  0  0  0  0
   42.1770   22.0430   36.3710 O   0  0  0  0  0  0  0  0  0  0  0  0
   41.6450   20.7560   38.1200 O   0  0  0  0  0  0  0  0  0  0  0  0
   42.0900   19.8980   37.8240 H   0  0  0  0  0  0  0  0  0  0  0  0
   37.8550   26.0180   35.9010 C   0  0  0  0  0  0  0  0  0  0  0  0
   38.5250   26.8650   36.5000 O   0  0  0  0  0  0  0  0  0  0  0  0
   37.4330   26.2810   34.5090 C   0  0  0  0  0  0  0  0  0  0  0  0
   37.6140   25.2790   33.5650 C   0  0  0  0  0  0  0  0  0  0  0  0
   37.2210   25.5120   32.2470 C   0  0  0  0  0  0  0  0  0  0  0  0
   36.6810   26.7260   31.9750 N   0  0  0  0  0  0  0  0  0  0  0  0
   36.5170   27.6690   32.8900 C   0  0  0  0  0  0  0  0  0  0  0  0
   36.8860   27.4800   34.1780 N   0  0  0  0  0  0  0  0  0  0  0  0
   38.0530   24.3380   33.8650 H   0  0  0  0  0  0  0  0  0  0  0  0
   37.3490   24.7520   31.4920 H   0  0  0  0  0  0  0  0  0  0  0  0
   36.0940   28.6510   32.7270 H   0  0  0  0  0  0  0  0  0  0  0  0
  1  4  1  0  0  0  0
  2  7  1  0  0  0  0
  3  2  1  0  0  0  0
  4  3  2  0  0  0  0
  5  4  1  0  0  0  0
  5  6  2  0  0  0  0
  6  2  1  0  0  0  0
  8  5  1  0  0  0  0
  9  6  1  0  0  0  0
  9 11  1  0  0  0  0
 10  9  2  0  0  0  0
 12 11  1  0  0  0  0
 13  1  1  0  0  0  0
 13 14  2  0  0  0  0
 15 13  1  0  0  0  0
 16 21  1  0  0  0  0
 16 15  2  0  0  0  0
 17 16  1  0  0  0  0
 18 17  2  0  0  0  0
 18 19  1  0  0  0  0
 19 20  2  0  0  0  0
 20 15  1  0  0  0  0
 22 17  1  0  0  0  0
 23 19  1  0  0  0  0
M  END
>  <minimizedAffinity>
-4.9606514

>  <minimizedRMSD>
1.05385685

$$$$
