
 OpenBabel03262519593D

 30 32  0  0  1  0  0  0  0  0999 V2000
   38.2040   23.5820   33.5060 C   0  0  0  0  0  0  0  0  0  0  0  0
   37.2940   22.6100   33.0940 C   0  0  0  0  0  0  0  0  0  0  0  0
   38.0140   21.4530   33.1410 N   0  0  0  0  0  0  0  0  0  0  0  0
   39.2440   21.7540   33.5520 C   0  0  0  0  0  0  0  0  0  0  0  0
   39.3860   23.0550   33.7830 N   0  0  0  0  0  0  0  0  0  0  0  0
   36.2550   22.8200   32.8140 H   0  0  0  0  0  0  0  0  0  0  0  0
   39.9980   20.9660   33.6630 H   0  0  0  0  0  0  0  0  0  0  0  0
   37.9030   25.0000   33.6110 C   0  0  0  0  0  0  0  0  0  0  0  0
   38.0630   25.8310   32.4810 C   0  0  0  0  0  0  0  0  0  0  0  0
   37.7530   27.2020   32.6260 C   0  0  0  0  0  0  0  0  0  0  0  0
   37.3230   27.6260   33.8450 N   0  0  0  0  0  0  0  0  0  0  0  0
   37.1850   26.7930   34.9020 C   0  0  0  0  0  0  0  0  0  0  0  0
   37.4720   25.4880   34.7890 N   0  0  0  0  0  0  0  0  0  0  0  0
   38.4110   25.4010   31.5560 H   0  0  0  0  0  0  0  0  0  0  0  0
   37.8690   27.8530   31.7760 H   0  0  0  0  0  0  0  0  0  0  0  0
   36.8340   27.2880   35.7940 H   0  0  0  0  0  0  0  0  0  0  0  0
   40.5980   23.6320   34.2330 C   0  0  1  0  0  0  0  0  0  0  0  0
   40.7420   24.7430   35.1310 C   0  0  0  0  0  0  0  0  0  0  0  0
   40.9790   23.2900   35.6330 C   0  0  2  0  0  0  0  0  0  0  0  0
   41.4200   23.5300   33.4420 H   0  0  0  0  0  0  0  0  0  0  0  0
   39.8630   25.2450   35.5620 H   0  0  0  0  0  0  0  0  0  0  0  0
   41.6310   25.3950   35.1090 H   0  0  0  0  0  0  0  0  0  0  0  0
   42.4450   23.0440   35.9180 C   0  0  0  0  0  0  0  0  0  0  0  0
   42.6890   21.6890   36.0150 F   0  0  0  0  0  0  0  0  0  0  0  0
   43.2010   23.4480   34.7390 F   0  0  0  0  0  0  0  0  0  0  0  0
   42.9330   23.7630   36.9390 F   0  0  0  0  0  0  0  0  0  0  0  0
   40.0760   23.0990   36.8060 C   0  0  0  0  0  0  0  0  0  0  0  0
   40.3080   22.3030   37.7530 O   0  0  0  0  0  0  0  0  0  0  0  0
   38.8980   23.8230   36.8970 O   0  0  0  0  0  0  0  0  0  0  0  0
   38.5040   24.0930   37.8120 H   0  0  0  0  0  0  0  0  0  0  0  0
  1  8  1  0  0  0  0
  1  5  1  0  0  0  0
  2  3  1  0  0  0  0
  2  1  2  0  0  0  0
  3  4  2  0  0  0  0
  4  7  1  0  0  0  0
  4  5  1  0  0  0  0
  5 17  1  0  0  0  0
  6  2  1  0  0  0  0
  8 13  1  0  0  0  0
  9 10  1  0  0  0  0
  9  8  2  0  0  0  0
 10 11  2  0  0  0  0
 11 12  1  0  0  0  0
 12 16  1  0  0  0  0
 13 12  2  0  0  0  0
 14  9  1  0  0  0  0
 15 10  1  0  0  0  0
 17 20  1  6  0  0  0
 17 18  1  0  0  0  0
 17 19  1  0  0  0  0
 18 21  1  0  0  0  0
 18 19  1  0  0  0  0
 19 23  1  0  0  0  0
 19 27  1  1  0  0  0
 22 18  1  0  0  0  0
 23 24  1  0  0  0  0
 23 26  1  0  0  0  0
 25 23  1  0  0  0  0
 27 29  1  0  0  0  0
 27 28  2  0  0  0  0
 29 30  1  0  0  0  0
M  END
>  <minimizedAffinity>
-3.948452

>  <minimizedRMSD>
3.29612684

$$$$
