
 OpenBabel03262517263D

 44 46  0  0  0  0  0  0  0  0999 V2000
   38.8580   24.3170   33.7820 N   0  0  0  0  0  0  0  0  0  0  0  0
   39.0000   23.6430   32.6430 N   0  0  0  0  0  0  0  0  0  0  0  0
   38.6470   24.3950   31.6010 C   0  0  0  0  0  0  0  0  0  0  0  0
   38.2640   25.6120   32.1450 C   0  0  0  0  0  0  0  0  0  0  0  0
   38.3950   25.5690   33.5180 C   0  0  0  0  0  0  0  0  0  0  0  0
   38.7140   23.9690   30.6080 H   0  0  0  0  0  0  0  0  0  0  0  0
   38.0880   23.5560   35.9520 C   0  0  0  0  0  0  0  0  0  0  0  0
   39.1490   23.8020   35.0710 C   0  0  0  0  0  0  0  0  0  0  0  0
   40.4470   23.5470   35.4540 C   0  0  0  0  0  0  0  0  0  0  0  0
   40.6340   23.0530   36.7120 N   0  0  0  0  0  0  0  0  0  0  0  0
   39.6120   22.8180   37.5550 C   0  0  0  0  0  0  0  0  0  0  0  0
   38.3350   23.0700   37.1740 N   0  0  0  0  0  0  0  0  0  0  0  0
   37.0540   23.7370   35.7020 H   0  0  0  0  0  0  0  0  0  0  0  0
   41.2980   23.7280   34.7900 H   0  0  0  0  0  0  0  0  0  0  0  0
   39.8700   22.4280   38.5230 H   0  0  0  0  0  0  0  0  0  0  0  0
   38.0920   26.6380   34.4000 N   0  0  0  0  0  0  0  0  0  0  0  0
   39.0300   27.1150   35.3770 C   0  0  0  0  0  0  0  0  0  0  0  0
   40.2990   27.1170   34.9850 N   0  0  0  0  0  0  0  0  0  0  0  0
   38.5320   27.5280   36.6420 N   0  0  0  0  0  0  0  0  0  0  0  0
   40.9620   27.4730   35.7000 H   0  0  0  0  0  0  0  0  0  0  0  0
   37.1430   27.0910   34.3250 H   0  0  0  0  0  0  0  0  0  0  0  0
   38.5240   28.5280   36.9660 H   0  0  0  0  0  0  0  0  0  0  0  0
   38.1360   26.8160   37.3240 H   0  0  0  0  0  0  0  0  0  0  0  0
   37.8240   26.6590   31.3060 N   0  0  0  0  0  0  0  0  0  0  0  0
   36.5660   27.1580   31.0320 C   0  0  0  0  0  0  0  0  0  0  0  0
   36.7560   28.1970   30.1250 C   0  0  0  0  0  0  0  0  0  0  0  0
   38.0810   28.3120   29.8700 N   0  0  0  0  0  0  0  0  0  0  0  0
   38.7470   27.3660   30.5950 C   0  0  0  0  0  0  0  0  0  0  0  0
   35.7300   26.6980   31.5240 H   0  0  0  0  0  0  0  0  0  0  0  0
   35.9060   28.7460   29.7600 H   0  0  0  0  0  0  0  0  0  0  0  0
   40.2090   27.3410   30.4420 C   0  0  0  0  0  0  0  0  0  0  0  0
   40.6720   26.1980   29.5180 C   0  0  0  0  0  0  0  0  0  0  0  0
   41.6500   26.5050   29.0390 H   0  0  0  0  0  0  0  0  0  0  0  0
   39.9450   26.0090   28.7230 H   0  0  0  0  0  0  0  0  0  0  0  0
   40.9570   25.3030   30.1160 H   0  0  0  0  0  0  0  0  0  0  0  0
   41.0080   27.2140   31.6760 C   0  0  0  0  0  0  0  0  0  0  0  0
   42.0680   27.4040   31.3820 H   0  0  0  0  0  0  0  0  0  0  0  0
   40.9720   26.2100   32.0820 H   0  0  0  0  0  0  0  0  0  0  0  0
   40.7380   28.0240   32.3550 H   0  0  0  0  0  0  0  0  0  0  0  0
   40.5940   28.5980   29.6370 C   0  0  0  0  0  0  0  0  0  0  0  0
   40.4460   28.3360   28.5670 H   0  0  0  0  0  0  0  0  0  0  0  0
   39.8590   29.3920   29.9000 H   0  0  0  0  0  0  0  0  0  0  0  0
   42.2800   29.0840   30.0160 S   0  0  0  0  0  0  0  0  0  0  0  0
   42.7570   30.0370   29.0700 H   0  0  0  0  0  0  0  0  0  0  0  0
  1  8  1  0  0  0  0
  2  1  1  0  0  0  0
  3  4  1  0  0  0  0
  3  2  2  0  0  0  0
  4  5  2  0  0  0  0
  5  1  1  0  0  0  0
  5 16  1  0  0  0  0
  6  3  1  0  0  0  0
  7 12  1  0  0  0  0
  8  9  1  0  0  0  0
  8  7  2  0  0  0  0
  9 10  2  0  0  0  0
 10 11  1  0  0  0  0
 11 15  1  0  0  0  0
 12 11  2  0  0  0  0
 13  7  1  0  0  0  0
 14  9  1  0  0  0  0
 16 17  1  0  0  0  0
 17 19  1  0  0  0  0
 18 17  2  0  0  0  0
 18 20  1  0  0  0  0
 19 22  1  0  0  0  0
 19 23  1  0  0  0  0
 21 16  1  0  0  0  0
 24  4  1  0  0  0  0
 25 24  1  0  0  0  0
 25 29  1  0  0  0  0
 26 25  2  0  0  0  0
 27 26  1  0  0  0  0
 27 28  2  0  0  0  0
 28 24  1  0  0  0  0
 30 26  1  0  0  0  0
 31 28  1  0  0  0  0
 31 36  1  0  0  0  0
 32 35  1  0  0  0  0
 32 31  1  0  0  0  0
 33 32  1  0  0  0  0
 34 32  1  0  0  0  0
 36 38  1  0  0  0  0
 36 39  1  0  0  0  0
 37 36  1  0  0  0  0
 40 42  1  0  0  0  0
 40 43  1  0  0  0  0
 40 31  1  0  0  0  0
 41 40  1  0  0  0  0
 44 43  1  0  0  0  0
M  END
>  <minimizedAffinity>
-4.75522041

>  <minimizedRMSD>
0.497947484

$$$$
