
 OpenBabel03262519553D

 27 29  0  0  1  0  0  0  0  0999 V2000
   37.8210   23.4440   33.8510 C   0  0  0  0  0  0  0  0  0  0  0  0
   37.8840   24.6620   33.1850 C   0  0  0  0  0  0  0  0  0  0  0  0
   37.1650   24.4420   32.0400 N   0  0  0  0  0  0  0  0  0  0  0  0
   36.7360   23.1990   32.0630 C   0  0  0  0  0  0  0  0  0  0  0  0
   37.1190   22.5380   33.1710 N   0  0  0  0  0  0  0  0  0  0  0  0
   38.3870   25.5690   33.5090 H   0  0  0  0  0  0  0  0  0  0  0  0
   36.1310   22.7840   31.2470 H   0  0  0  0  0  0  0  0  0  0  0  0
   38.4470   23.1680   35.1440 C   0  0  0  0  0  0  0  0  0  0  0  0
   39.6600   22.4780   35.2080 C   0  0  0  0  0  0  0  0  0  0  0  0
   40.2210   22.2380   36.4820 C   0  0  0  0  0  0  0  0  0  0  0  0
   39.5560   22.6850   37.5550 N   0  0  0  0  0  0  0  0  0  0  0  0
   38.3740   23.3550   37.4600 C   0  0  0  0  0  0  0  0  0  0  0  0
   37.8170   23.5970   36.2570 N   0  0  0  0  0  0  0  0  0  0  0  0
   40.1440   22.1460   34.3140 H   0  0  0  0  0  0  0  0  0  0  0  0
   41.1540   21.7100   36.5550 H   0  0  0  0  0  0  0  0  0  0  0  0
   37.8490   23.7090   38.3440 H   0  0  0  0  0  0  0  0  0  0  0  0
   36.7930   21.1710   33.4580 C   0  0  1  0  0  0  0  0  0  0  0  0
   35.7030   20.7710   34.3310 C   0  0  0  0  0  0  0  0  0  0  0  0
   35.4930   20.7180   32.8220 C   0  0  2  0  0  0  0  0  0  0  0  0
   37.6740   20.5020   33.3980 H   0  0  0  0  0  0  0  0  0  0  0  0
   35.0920   21.5660   34.8300 H   0  0  0  0  0  0  0  0  0  0  0  0
   35.7290   19.8370   34.9000 H   0  0  0  0  0  0  0  0  0  0  0  0
   34.8050   21.4250   32.3610 H   0  0  0  0  0  0  0  0  0  0  0  0
   35.5530   19.3340   32.2450 C   0  0  0  0  0  0  0  0  0  0  0  0
   36.6720   18.7780   32.0560 O   0  0  0  0  0  0  0  0  0  0  0  0
   34.3570   18.6920   31.9280 O   0  0  0  0  0  0  0  0  0  0  0  0
   34.3690   17.7790   31.4480 H   0  0  0  0  0  0  0  0  0  0  0  0
  1  8  1  0  0  0  0
  2  6  1  0  0  0  0
  2  1  2  0  0  0  0
  3  4  2  0  0  0  0
  3  2  1  0  0  0  0
  4  5  1  0  0  0  0
  5 17  1  0  0  0  0
  5  1  1  0  0  0  0
  7  4  1  0  0  0  0
  8  9  2  0  0  0  0
  8 13  1  0  0  0  0
  9 10  1  0  0  0  0
 10 15  1  0  0  0  0
 10 11  2  0  0  0  0
 12 11  1  0  0  0  0
 12 16  1  0  0  0  0
 13 12  2  0  0  0  0
 14  9  1  0  0  0  0
 17 20  1  6  0  0  0
 17 18  1  0  0  0  0
 18 21  1  0  0  0  0
 18 22  1  0  0  0  0
 19 23  1  6  0  0  0
 19 17  1  0  0  0  0
 19 18  1  0  0  0  0
 24 19  1  0  0  0  0
 25 24  2  0  0  0  0
 26 24  1  0  0  0  0
 27 26  1  0  0  0  0
M  END
>  <minimizedAffinity>
-4.49066067

>  <minimizedRMSD>
1.11367595

$$$$
