
 OpenBabel03262519513D

 29 30  0  0  1  0  0  0  0  0999 V2000
   40.8230   23.9480   34.5550 C   0  0  0  0  0  0  0  0  0  0  0  0
   40.3630   23.0020   34.4730 H   0  0  0  0  0  0  0  0  0  0  0  0
   41.1660   24.0790   33.4570 H   0  0  0  0  0  0  0  0  0  0  0  0
   43.5870   23.6520   36.8170 C   0  0  0  0  0  0  0  0  0  0  0  0
   42.3310   23.3230   36.2310 C   0  0  0  0  0  0  0  0  0  0  0  0
   42.0280   24.1890   35.2470 C   0  0  0  0  0  0  0  0  0  0  0  0
   42.8680   25.2470   34.8940 N   0  0  0  0  0  0  0  0  0  0  0  0
   44.0150   25.4820   35.4890 C   0  0  0  0  0  0  0  0  0  0  0  0
   44.3750   24.6750   36.4600 N   0  0  0  0  0  0  0  0  0  0  0  0
   44.0150   23.0580   37.6460 H   0  0  0  0  0  0  0  0  0  0  0  0
   44.5620   26.3310   35.1170 H   0  0  0  0  0  0  0  0  0  0  0  0
   41.6790   22.1850   36.7740 C   0  0  0  0  0  0  0  0  0  0  0  0
   40.9350   22.5090   37.9350 F   0  0  0  0  0  0  0  0  0  0  0  0
   42.3590   21.2500   37.4770 F   0  0  0  0  0  0  0  0  0  0  0  0
   40.5550   21.6940   36.1370 F   0  0  0  0  0  0  0  0  0  0  0  0
   39.8310   24.9900   34.7180 C   0  0  0  0  0  0  0  0  0  0  0  0
   39.5040   25.5340   33.8080 H   0  0  0  0  0  0  0  0  0  0  0  0
   40.2430   25.7890   35.3840 H   0  0  0  0  0  0  0  0  0  0  0  0
   38.6240   24.3880   35.4530 C   0  0  2  0  0  0  0  0  0  0  0  0
   37.7570   25.3860   36.1330 C   0  0  0  0  0  0  0  0  0  0  0  0
   38.5130   24.3050   36.8710 C   0  0  1  0  0  0  0  0  0  0  0  0
   38.0580   23.7240   34.7850 H   0  0  0  0  0  0  0  0  0  0  0  0
   36.6330   25.2390   36.1220 H   0  0  0  0  0  0  0  0  0  0  0  0
   38.0250   26.4120   36.0530 H   0  0  0  0  0  0  0  0  0  0  0  0
   38.8190   24.6840   37.7760 H   0  0  0  0  0  0  0  0  0  0  0  0
   37.6720   23.0940   37.2910 C   0  0  0  0  0  0  0  0  0  0  0  0
   37.1340   22.3490   36.4700 O   0  0  0  0  0  0  0  0  0  0  0  0
   37.4470   22.7360   38.6090 O   0  0  0  0  0  0  0  0  0  0  0  0
   36.6710   22.1660   38.8910 H   0  0  0  0  0  0  0  0  0  0  0  0
  1 16  1  0  0  0  0
  1  6  1  0  0  0  0
  2  1  1  0  0  0  0
  3  1  1  0  0  0  0
  4 10  1  0  0  0  0
  5 12  1  0  0  0  0
  5  4  2  0  0  0  0
  6  5  1  0  0  0  0
  7  6  2  0  0  0  0
  7  8  1  0  0  0  0
  8  9  2  0  0  0  0
  9  4  1  0  0  0  0
 11  8  1  0  0  0  0
 12 14  1  0  0  0  0
 12 13  1  0  0  0  0
 15 12  1  0  0  0  0
 16 18  1  0  0  0  0
 16 19  1  0  0  0  0
 17 16  1  0  0  0  0
 19 22  1  6  0  0  0
 19 20  1  0  0  0  0
 19 21  1  0  0  0  0
 20 21  1  0  0  0  0
 21 26  1  0  0  0  0
 21 25  1  1  0  0  0
 23 20  1  0  0  0  0
 24 20  1  0  0  0  0
 26 28  1  0  0  0  0
 27 26  2  0  0  0  0
 28 29  1  0  0  0  0
M  END
>  <minimizedAffinity>
-4.2167058

>  <minimizedRMSD>
1.27779293

$$$$
