
 OpenBabel03262519133D

 24 25  0  0  0  0  0  0  0  0999 V2000
   37.2650   26.8570   33.9150 C   0  0  0  0  0  0  0  0  0  0  0  0
   36.5240   27.9690   34.3260 C   0  0  0  0  0  0  0  0  0  0  0  0
   36.1110   28.8420   33.3790 C   0  0  0  0  0  0  0  0  0  0  0  0
   36.4540   28.5720   32.0490 C   0  0  0  0  0  0  0  0  0  0  0  0
   37.4180   26.9880   32.1610 S   0  0  0  0  0  0  0  0  0  0  0  0
   36.2750   28.1460   35.3720 H   0  0  0  0  0  0  0  0  0  0  0  0
   35.5360   29.7470   33.5000 H   0  0  0  0  0  0  0  0  0  0  0  0
   37.9500   25.9760   36.1750 C   0  0  0  0  0  0  0  0  0  0  0  0
   37.7850   25.8410   34.7940 C   0  0  0  0  0  0  0  0  0  0  0  0
   38.1590   24.6400   34.1730 C   0  0  0  0  0  0  0  0  0  0  0  0
   38.6700   23.6670   34.9740 N   0  0  0  0  0  0  0  0  0  0  0  0
   38.8130   23.8490   36.3340 C   0  0  0  0  0  0  0  0  0  0  0  0
   38.4530   24.9940   36.9030 N   0  0  0  0  0  0  0  0  0  0  0  0
   37.6310   26.9400   36.5640 H   0  0  0  0  0  0  0  0  0  0  0  0
   38.0580   24.4670   33.1090 H   0  0  0  0  0  0  0  0  0  0  0  0
   39.3670   22.7830   37.1620 C   0  0  0  0  0  0  0  0  0  0  0  0
   40.1340   21.9070   36.6860 O   0  0  0  0  0  0  0  0  0  0  0  0
   39.0630   22.6910   38.5250 O   0  0  0  0  0  0  0  0  0  0  0  0
   38.8680   21.7710   38.9330 H   0  0  0  0  0  0  0  0  0  0  0  0
   36.2260   29.2060   30.8140 C   0  0  0  0  0  0  0  0  0  0  0  0
   36.7460   28.7980   29.7820 O   0  0  0  0  0  0  0  0  0  0  0  0
   35.3690   30.3630   30.7230 N   0  0  0  0  0  0  0  0  0  0  0  0
   34.6960   30.5670   31.5160 H   0  0  0  0  0  0  0  0  0  0  0  0
   35.3760   31.0230   29.9040 H   0  0  0  0  0  0  0  0  0  0  0  0
  1  2  2  0  0  0  0
  1  9  1  0  0  0  0
  2  6  1  0  0  0  0
  3  7  1  0  0  0  0
  3  2  1  0  0  0  0
  4  5  1  0  0  0  0
  4  3  2  0  0  0  0
  5  1  1  0  0  0  0
  8 14  1  0  0  0  0
  8 13  1  0  0  0  0
  9  8  2  0  0  0  0
 10  9  1  0  0  0  0
 10 11  2  0  0  0  0
 11 12  1  0  0  0  0
 12 13  2  0  0  0  0
 12 16  1  0  0  0  0
 15 10  1  0  0  0  0
 16 18  1  0  0  0  0
 17 16  2  0  0  0  0
 18 19  1  0  0  0  0
 20  4  1  0  0  0  0
 21 20  2  0  0  0  0
 22 20  1  0  0  0  0
 22 23  1  0  0  0  0
 24 22  1  0  0  0  0
M  END
>  <minimizedAffinity>
-4.78081989

>  <minimizedRMSD>
2.28531265

$$$$
