
 OpenBabel03262519333D

 14 14  0  0  0  0  0  0  0  0999 V2000
   41.5910   21.6010   36.2790 C   0  0  0  0  0  0  0  0  0  0  0  0
   40.9850   21.9850   37.4970 C   0  0  0  0  0  0  0  0  0  0  0  0
   39.8110   22.7410   37.4280 C   0  0  0  0  0  0  0  0  0  0  0  0
   39.3120   23.0700   36.1870 N   0  0  0  0  0  0  0  0  0  0  0  0
   39.9320   22.6760   35.0560 C   0  0  0  0  0  0  0  0  0  0  0  0
   41.0550   21.9530   35.1080 N   0  0  0  0  0  0  0  0  0  0  0  0
   42.4980   21.0160   36.3330 H   0  0  0  0  0  0  0  0  0  0  0  0
   41.3900   21.7180   38.4660 H   0  0  0  0  0  0  0  0  0  0  0  0
   39.5420   22.9340   34.0750 H   0  0  0  0  0  0  0  0  0  0  0  0
   39.1150   23.1830   38.6780 C   0  0  0  0  0  0  0  0  0  0  0  0
   38.6300   22.3630   39.2190 H   0  0  0  0  0  0  0  0  0  0  0  0
   39.8900   23.6720   39.2950 H   0  0  0  0  0  0  0  0  0  0  0  0
   37.8520   24.4510   38.3170 S   0  0  0  0  0  0  0  0  0  0  0  0
   38.5150   25.6980   38.2950 H   0  0  0  0  0  0  0  0  0  0  0  0
  1  7  1  0  0  0  0
  1  2  1  0  0  0  0
  2  8  1  0  0  0  0
  3  2  2  0  0  0  0
  3 10  1  0  0  0  0
  4  3  1  0  0  0  0
  5  6  1  0  0  0  0
  5  4  2  0  0  0  0
  6  1  2  0  0  0  0
  9  5  1  0  0  0  0
 10 11  1  0  0  0  0
 10 12  1  0  0  0  0
 13 10  1  0  0  0  0
 14 13  1  0  0  0  0
M  END
>  <minimizedAffinity>
-2.29866695

>  <minimizedRMSD>
1.49051547

$$$$
