
 OpenBabel03262519593D

 30 32  0  0  1  0  0  0  0  0999 V2000
   38.5010   23.9730   33.9950 C   0  0  0  0  0  0  0  0  0  0  0  0
   37.9110   22.8050   34.4770 C   0  0  0  0  0  0  0  0  0  0  0  0
   38.4970   21.8190   33.7390 N   0  0  0  0  0  0  0  0  0  0  0  0
   39.3560   22.3930   32.9010 C   0  0  0  0  0  0  0  0  0  0  0  0
   39.3780   23.7150   33.0380 N   0  0  0  0  0  0  0  0  0  0  0  0
   37.1570   22.7810   35.2710 H   0  0  0  0  0  0  0  0  0  0  0  0
   39.9440   21.7810   32.2060 H   0  0  0  0  0  0  0  0  0  0  0  0
   38.1890   25.3100   34.4710 C   0  0  0  0  0  0  0  0  0  0  0  0
   37.2440   26.0950   33.7750 C   0  0  0  0  0  0  0  0  0  0  0  0
   36.9670   27.3860   34.2770 C   0  0  0  0  0  0  0  0  0  0  0  0
   37.6300   27.7840   35.3950 N   0  0  0  0  0  0  0  0  0  0  0  0
   38.5300   26.9990   36.0300 C   0  0  0  0  0  0  0  0  0  0  0  0
   38.8100   25.7690   35.5740 N   0  0  0  0  0  0  0  0  0  0  0  0
   36.7690   25.6900   32.8960 H   0  0  0  0  0  0  0  0  0  0  0  0
   36.2480   28.0000   33.7600 H   0  0  0  0  0  0  0  0  0  0  0  0
   38.9670   27.4640   36.9000 H   0  0  0  0  0  0  0  0  0  0  0  0
   40.2120   24.5590   32.2660 C   0  0  1  0  0  0  0  0  0  0  0  0
   40.8550   24.2320   31.0240 C   0  0  0  0  0  0  0  0  0  0  0  0
   39.5790   25.1220   31.0390 C   0  0  2  0  0  0  0  0  0  0  0  0
   40.7780   25.2980   32.9320 H   0  0  0  0  0  0  0  0  0  0  0  0
   40.7260   23.2440   30.5580 H   0  0  0  0  0  0  0  0  0  0  0  0
   41.7840   24.7310   30.7040 H   0  0  0  0  0  0  0  0  0  0  0  0
   39.9080   26.5540   30.6770 C   0  0  0  0  0  0  0  0  0  0  0  0
   38.8600   27.1220   29.9820 F   0  0  0  0  0  0  0  0  0  0  0  0
   39.9600   27.3250   31.9140 F   0  0  0  0  0  0  0  0  0  0  0  0
   41.1040   26.7100   30.0900 F   0  0  0  0  0  0  0  0  0  0  0  0
   38.5960   24.4610   30.1310 C   0  0  0  0  0  0  0  0  0  0  0  0
   38.9050   23.8960   29.0480 O   0  0  0  0  0  0  0  0  0  0  0  0
   37.2520   24.4420   30.4620 O   0  0  0  0  0  0  0  0  0  0  0  0
   36.6400   23.6630   30.1760 H   0  0  0  0  0  0  0  0  0  0  0  0
  1  8  1  0  0  0  0
  1  2  2  0  0  0  0
  2  6  1  0  0  0  0
  3  2  1  0  0  0  0
  4  5  1  0  0  0  0
  4  3  2  0  0  0  0
  5  1  1  0  0  0  0
  7  4  1  0  0  0  0
  8 13  1  0  0  0  0
  9 10  1  0  0  0  0
  9  8  2  0  0  0  0
 10 11  2  0  0  0  0
 11 12  1  0  0  0  0
 12 16  1  0  0  0  0
 13 12  2  0  0  0  0
 14  9  1  0  0  0  0
 15 10  1  0  0  0  0
 17 20  1  1  0  0  0
 17  5  1  0  0  0  0
 18 19  1  0  0  0  0
 18 17  1  0  0  0  0
 19 27  1  6  0  0  0
 19 17  1  0  0  0  0
 21 18  1  0  0  0  0
 22 18  1  0  0  0  0
 23 19  1  0  0  0  0
 23 25  1  0  0  0  0
 24 23  1  0  0  0  0
 26 23  1  0  0  0  0
 27 29  1  0  0  0  0
 28 27  2  0  0  0  0
 30 29  1  0  0  0  0
M  END
>  <minimizedAffinity>
-3.72348428

>  <minimizedRMSD>
5.6269002

$$$$
