
 OpenBabel03262519583D

 30 32  0  0  1  0  0  0  0  0999 V2000
   39.1810   23.1550   33.7030 C   0  0  0  0  0  0  0  0  0  0  0  0
   38.5830   22.1060   34.4000 C   0  0  0  0  0  0  0  0  0  0  0  0
   37.3540   21.9910   33.8190 N   0  0  0  0  0  0  0  0  0  0  0  0
   37.2680   22.9120   32.8620 C   0  0  0  0  0  0  0  0  0  0  0  0
   38.3770   23.6390   32.7710 N   0  0  0  0  0  0  0  0  0  0  0  0
   39.0670   21.5560   35.2150 H   0  0  0  0  0  0  0  0  0  0  0  0
   36.3560   23.0000   32.2600 H   0  0  0  0  0  0  0  0  0  0  0  0
   40.5160   23.6650   33.9680 C   0  0  0  0  0  0  0  0  0  0  0  0
   40.6810   24.7590   34.8450 C   0  0  0  0  0  0  0  0  0  0  0  0
   41.9970   25.2180   35.0790 C   0  0  0  0  0  0  0  0  0  0  0  0
   43.0120   24.5750   34.4430 N   0  0  0  0  0  0  0  0  0  0  0  0
   42.8070   23.5300   33.6090 C   0  0  0  0  0  0  0  0  0  0  0  0
   41.5680   23.0750   33.3710 N   0  0  0  0  0  0  0  0  0  0  0  0
   39.8120   25.2030   35.3020 H   0  0  0  0  0  0  0  0  0  0  0  0
   42.1440   26.0520   35.7450 H   0  0  0  0  0  0  0  0  0  0  0  0
   43.7170   23.1340   33.1870 H   0  0  0  0  0  0  0  0  0  0  0  0
   38.5410   24.6820   31.8270 C   0  0  1  0  0  0  0  0  0  0  0  0
   37.5000   25.4390   31.1900 C   0  0  0  0  0  0  0  0  0  0  0  0
   38.3170   26.0570   32.3600 C   0  0  2  0  0  0  0  0  0  0  0  0
   39.4870   24.5260   31.2020 H   0  0  0  0  0  0  0  0  0  0  0  0
   36.4390   25.2510   31.4130 H   0  0  0  0  0  0  0  0  0  0  0  0
   37.6460   25.9070   30.2020 H   0  0  0  0  0  0  0  0  0  0  0  0
   39.2340   27.1550   31.8650 C   0  0  0  0  0  0  0  0  0  0  0  0
   40.0380   27.6020   32.8930 F   0  0  0  0  0  0  0  0  0  0  0  0
   40.1740   26.5600   30.9240 F   0  0  0  0  0  0  0  0  0  0  0  0
   38.6050   28.1330   31.1960 F   0  0  0  0  0  0  0  0  0  0  0  0
   37.3220   26.4900   33.3830 C   0  0  0  0  0  0  0  0  0  0  0  0
   36.4150   27.3380   33.1710 O   0  0  0  0  0  0  0  0  0  0  0  0
   37.3610   25.9520   34.6580 O   0  0  0  0  0  0  0  0  0  0  0  0
   36.5010   25.8330   35.2170 H   0  0  0  0  0  0  0  0  0  0  0  0
  1  8  1  0  0  0  0
  1  2  2  0  0  0  0
  2  6  1  0  0  0  0
  3  2  1  0  0  0  0
  4  3  2  0  0  0  0
  5  4  1  0  0  0  0
  5  1  1  0  0  0  0
  7  4  1  0  0  0  0
  8  9  1  0  0  0  0
  9 10  2  0  0  0  0
  9 14  1  0  0  0  0
 10 15  1  0  0  0  0
 11 10  1  0  0  0  0
 12 11  2  0  0  0  0
 13 12  1  0  0  0  0
 13  8  2  0  0  0  0
 16 12  1  0  0  0  0
 17 20  1  6  0  0  0
 17 19  1  0  0  0  0
 17  5  1  0  0  0  0
 18 21  1  0  0  0  0
 18 17  1  0  0  0  0
 18 19  1  0  0  0  0
 19 27  1  1  0  0  0
 22 18  1  0  0  0  0
 23 19  1  0  0  0  0
 23 24  1  0  0  0  0
 25 23  1  0  0  0  0
 26 23  1  0  0  0  0
 27 29  1  0  0  0  0
 28 27  2  0  0  0  0
 29 30  1  0  0  0  0
M  END
>  <minimizedAffinity>
-3.39498878

>  <minimizedRMSD>
5.14649439

$$$$
