
 OpenBabel03262519073D

 32 34  0  0  1  0  0  0  0  0999 V2000
   37.4760   23.3300   30.8030 C   0  0  2  0  0  0  0  0  0  0  0  0
   38.6090   24.1530   31.2980 C   0  0  0  0  0  0  0  0  0  0  0  0
   37.3110   24.8020   30.9220 C   0  0  2  0  0  0  0  0  0  0  0  0
   37.4420   22.9500   29.7860 H   0  0  0  0  0  0  0  0  0  0  0  0
   39.5000   24.2790   30.6210 H   0  0  0  0  0  0  0  0  0  0  0  0
   38.9110   24.0570   32.3590 H   0  0  0  0  0  0  0  0  0  0  0  0
   37.3750   25.3970   29.9750 H   0  0  0  0  0  0  0  0  0  0  0  0
   36.8260   21.3880   33.8470 C   0  0  0  0  0  0  0  0  0  0  0  0
   35.5750   20.7830   33.6220 C   0  0  0  0  0  0  0  0  0  0  0  0
   34.9620   21.0810   32.3680 C   0  0  0  0  0  0  0  0  0  0  0  0
   35.6030   21.8990   31.5070 N   0  0  0  0  0  0  0  0  0  0  0  0
   36.8220   22.4550   31.7900 C   0  0  0  0  0  0  0  0  0  0  0  0
   37.4400   22.1920   32.9820 N   0  0  0  0  0  0  0  0  0  0  0  0
   37.2210   21.1120   34.8160 H   0  0  0  0  0  0  0  0  0  0  0  0
   35.0790   20.1410   34.3070 H   0  0  0  0  0  0  0  0  0  0  0  0
   34.0050   20.6720   32.0900 H   0  0  0  0  0  0  0  0  0  0  0  0
   36.6680   25.5180   32.0360 C   0  0  0  0  0  0  0  0  0  0  0  0
   37.0790   25.3010   33.0440 H   0  0  0  0  0  0  0  0  0  0  0  0
   35.6030   25.1520   32.0930 H   0  0  0  0  0  0  0  0  0  0  0  0
   36.5660   26.9820   31.8620 C   0  0  0  0  0  0  0  0  0  0  0  0
   36.1330   27.9520   32.7440 C   0  0  0  0  0  0  0  0  0  0  0  0
   36.0840   29.2970   32.4500 C   0  0  0  0  0  0  0  0  0  0  0  0
   36.5030   29.6710   31.1770 C   0  0  0  0  0  0  0  0  0  0  0  0
   36.9240   28.6850   30.3290 C   0  0  0  0  0  0  0  0  0  0  0  0
   36.9660   27.3790   30.6300 N   0  0  0  0  0  0  0  0  0  0  0  0
   35.8340   27.5380   33.6990 H   0  0  0  0  0  0  0  0  0  0  0  0
   35.7290   29.9640   33.2170 H   0  0  0  0  0  0  0  0  0  0  0  0
   36.4700   30.7260   30.9330 H   0  0  0  0  0  0  0  0  0  0  0  0
   37.3450   29.1610   29.0130 C   0  0  0  0  0  0  0  0  0  0  0  0
   37.3140   30.3600   28.7170 O   0  0  0  0  0  0  0  0  0  0  0  0
   37.8070   28.3140   28.0140 O   0  0  0  0  0  0  0  0  0  0  0  0
   37.4800   28.3910   27.0430 H   0  0  0  0  0  0  0  0  0  0  0  0
  1  4  1  6  0  0  0
  1  3  1  0  0  0  0
  1  2  1  0  0  0  0
  1 12  1  0  0  0  0
  2  6  1  0  0  0  0
  3  7  1  6  0  0  0
  3  2  1  0  0  0  0
  3 17  1  0  0  0  0
  5  2  1  0  0  0  0
  8 14  1  0  0  0  0
  9  8  1  0  0  0  0
  9 15  1  0  0  0  0
 10  9  2  0  0  0  0
 11 12  2  0  0  0  0
 11 10  1  0  0  0  0
 12 13  1  0  0  0  0
 13  8  2  0  0  0  0
 16 10  1  0  0  0  0
 17 19  1  0  0  0  0
 17 18  1  0  0  0  0
 20 17  1  0  0  0  0
 20 21  1  0  0  0  0
 21 26  1  0  0  0  0
 22 21  2  0  0  0  0
 22 27  1  0  0  0  0
 23 22  1  0  0  0  0
 24 25  1  0  0  0  0
 24 23  2  0  0  0  0
 25 20  2  0  0  0  0
 28 23  1  0  0  0  0
 29 24  1  0  0  0  0
 30 29  2  0  0  0  0
 31 29  1  0  0  0  0
 32 31  1  0  0  0  0
M  END
>  <minimizedAffinity>
-4.46467686

>  <minimizedRMSD>
0.323230177

$$$$
