
 OpenBabel03262519593D

 30 32  0  0  1  0  0  0  0  0999 V2000
   39.4050   23.3560   33.9020 C   0  0  0  0  0  0  0  0  0  0  0  0
   38.9170   22.1160   33.4920 C   0  0  0  0  0  0  0  0  0  0  0  0
   40.0450   21.3950   33.2320 N   0  0  0  0  0  0  0  0  0  0  0  0
   41.0940   22.1760   33.4800 C   0  0  0  0  0  0  0  0  0  0  0  0
   40.7280   23.3850   33.8920 N   0  0  0  0  0  0  0  0  0  0  0  0
   37.8520   21.8660   33.4240 H   0  0  0  0  0  0  0  0  0  0  0  0
   42.1130   21.7960   33.3360 H   0  0  0  0  0  0  0  0  0  0  0  0
   38.5710   24.4830   34.2840 C   0  0  0  0  0  0  0  0  0  0  0  0
   37.9430   25.2550   33.2820 C   0  0  0  0  0  0  0  0  0  0  0  0
   37.1360   26.3380   33.6990 C   0  0  0  0  0  0  0  0  0  0  0  0
   37.0210   26.5610   35.0350 N   0  0  0  0  0  0  0  0  0  0  0  0
   37.6420   25.7960   35.9610 C   0  0  0  0  0  0  0  0  0  0  0  0
   38.4130   24.7620   35.5910 N   0  0  0  0  0  0  0  0  0  0  0  0
   38.0950   24.9990   32.2470 H   0  0  0  0  0  0  0  0  0  0  0  0
   36.6480   26.9400   32.9500 H   0  0  0  0  0  0  0  0  0  0  0  0
   37.4480   26.1070   36.9760 H   0  0  0  0  0  0  0  0  0  0  0  0
   41.6540   24.4020   34.2260 C   0  0  1  0  0  0  0  0  0  0  0  0
   42.9570   24.6020   33.6550 C   0  0  0  0  0  0  0  0  0  0  0  0
   41.7650   25.5070   33.2310 C   0  0  2  0  0  0  0  0  0  0  0  0
   41.5470   24.7130   35.3230 H   0  0  0  0  0  0  0  0  0  0  0  0
   43.3410   23.9390   32.8640 H   0  0  0  0  0  0  0  0  0  0  0  0
   43.7650   25.1010   34.2150 H   0  0  0  0  0  0  0  0  0  0  0  0
   41.9320   26.9130   33.7650 C   0  0  0  0  0  0  0  0  0  0  0  0
   41.4460   27.8290   32.8540 F   0  0  0  0  0  0  0  0  0  0  0  0
   41.0450   27.0620   34.9120 F   0  0  0  0  0  0  0  0  0  0  0  0
   43.1670   27.1870   34.2110 F   0  0  0  0  0  0  0  0  0  0  0  0
   41.6740   25.4120   31.7450 C   0  0  0  0  0  0  0  0  0  0  0  0
   40.6480   25.0290   31.1230 O   0  0  0  0  0  0  0  0  0  0  0  0
   42.7630   25.7560   30.9610 O   0  0  0  0  0  0  0  0  0  0  0  0
   42.6400   26.1530   30.0170 H   0  0  0  0  0  0  0  0  0  0  0  0
  1  8  1  0  0  0  0
  2  1  2  0  0  0  0
  3  4  2  0  0  0  0
  3  2  1  0  0  0  0
  4  5  1  0  0  0  0
  5  1  1  0  0  0  0
  5 17  1  0  0  0  0
  6  2  1  0  0  0  0
  7  4  1  0  0  0  0
  8 13  1  0  0  0  0
  9 10  1  0  0  0  0
  9  8  2  0  0  0  0
 10 11  2  0  0  0  0
 11 12  1  0  0  0  0
 12 16  1  0  0  0  0
 13 12  2  0  0  0  0
 14  9  1  0  0  0  0
 15 10  1  0  0  0  0
 17 20  1  1  0  0  0
 18 22  1  0  0  0  0
 18 17  1  0  0  0  0
 19 27  1  6  0  0  0
 19 18  1  0  0  0  0
 19 23  1  0  0  0  0
 19 17  1  0  0  0  0
 21 18  1  0  0  0  0
 23 26  1  0  0  0  0
 23 25  1  0  0  0  0
 24 23  1  0  0  0  0
 28 27  2  0  0  0  0
 29 27  1  0  0  0  0
 30 29  1  0  0  0  0
M  END
>  <minimizedAffinity>
-3.2020936

>  <minimizedRMSD>
5.27052975

$$$$
