
 OpenBabel03262518403D

 22 23  0  0  0  0  0  0  0  0999 V2000
   36.9170   21.8390   33.3780 C   0  0  0  0  0  0  0  0  0  0  0  0
   36.9790   23.0080   32.5800 C   0  0  0  0  0  0  0  0  0  0  0  0
   37.9030   23.9920   32.9090 C   0  0  0  0  0  0  0  0  0  0  0  0
   38.7110   23.7700   34.0020 N   0  0  0  0  0  0  0  0  0  0  0  0
   38.6230   22.6570   34.7290 C   0  0  0  0  0  0  0  0  0  0  0  0
   37.7350   21.6890   34.4300 N   0  0  0  0  0  0  0  0  0  0  0  0
   39.5270   22.5420   35.8410 N   0  0  0  0  0  0  0  0  0  0  0  0
   40.6770   22.0520   35.5050 N   0  0  0  0  0  0  0  0  0  0  0  0
   41.4340   21.9970   36.6510 C   0  0  0  0  0  0  0  0  0  0  0  0
   40.6900   22.4780   37.7090 C   0  0  0  0  0  0  0  0  0  0  0  0
   39.4900   22.8130   37.1610 C   0  0  0  0  0  0  0  0  0  0  0  0
   35.9760   20.8440   33.0330 N   0  0  0  0  0  0  0  0  0  0  0  0
   36.2960   23.0870   31.7400 H   0  0  0  0  0  0  0  0  0  0  0  0
   37.9640   24.8800   32.3190 H   0  0  0  0  0  0  0  0  0  0  0  0
   42.4680   21.6360   36.7470 H   0  0  0  0  0  0  0  0  0  0  0  0
   40.9420   22.5890   38.7550 H   0  0  0  0  0  0  0  0  0  0  0  0
   34.9350   20.8190   33.0980 H   0  0  0  0  0  0  0  0  0  0  0  0
   36.5080   20.0110   32.6500 H   0  0  0  0  0  0  0  0  0  0  0  0
   38.3110   23.3620   37.7520 C   0  0  0  0  0  0  0  0  0  0  0  0
   38.0870   24.5860   37.5590 O   0  0  0  0  0  0  0  0  0  0  0  0
   37.3850   22.6800   38.5190 O   0  0  0  0  0  0  0  0  0  0  0  0
   36.4090   22.9910   38.5230 H   0  0  0  0  0  0  0  0  0  0  0  0
  1  6  1  0  0  0  0
  2  3  1  0  0  0  0
  2  1  2  0  0  0  0
  3  4  2  0  0  0  0
  4  5  1  0  0  0  0
  5  7  1  0  0  0  0
  6  5  2  0  0  0  0
  7 11  1  0  0  0  0
  8  7  1  0  0  0  0
  8  9  2  0  0  0  0
  9 15  1  0  0  0  0
  9 10  1  0  0  0  0
 10 16  1  0  0  0  0
 11 10  2  0  0  0  0
 11 19  1  0  0  0  0
 12 17  1  0  0  0  0
 12  1  1  0  0  0  0
 13  2  1  0  0  0  0
 14  3  1  0  0  0  0
 18 12  1  0  0  0  0
 19 21  1  0  0  0  0
 20 19  2  0  0  0  0
 21 22  1  0  0  0  0
M  END
>  <minimizedAffinity>
-4.27462721

>  <minimizedRMSD>
1.52543652

$$$$
