
 OpenBabel03262519593D

 30 32  0  0  1  0  0  0  0  0999 V2000
   38.4640   23.4510   34.0610 C   0  0  0  0  0  0  0  0  0  0  0  0
   37.9190   22.5580   34.9830 C   0  0  0  0  0  0  0  0  0  0  0  0
   37.1980   21.6960   34.2100 N   0  0  0  0  0  0  0  0  0  0  0  0
   37.3280   22.0790   32.9420 C   0  0  0  0  0  0  0  0  0  0  0  0
   38.1010   23.1540   32.8240 N   0  0  0  0  0  0  0  0  0  0  0  0
   38.0870   22.6120   36.0640 H   0  0  0  0  0  0  0  0  0  0  0  0
   36.8260   21.5230   32.1420 H   0  0  0  0  0  0  0  0  0  0  0  0
   39.3160   24.5760   34.4090 C   0  0  0  0  0  0  0  0  0  0  0  0
   38.7340   25.7600   34.9130 C   0  0  0  0  0  0  0  0  0  0  0  0
   39.6010   26.8260   35.2440 C   0  0  0  0  0  0  0  0  0  0  0  0
   40.9340   26.6380   35.0550 N   0  0  0  0  0  0  0  0  0  0  0  0
   41.4480   25.4850   34.5680 C   0  0  0  0  0  0  0  0  0  0  0  0
   40.6470   24.4580   34.2470 N   0  0  0  0  0  0  0  0  0  0  0  0
   37.6640   25.8130   35.0270 H   0  0  0  0  0  0  0  0  0  0  0  0
   39.1760   27.7390   35.6290 H   0  0  0  0  0  0  0  0  0  0  0  0
   42.5230   25.4990   34.4790 H   0  0  0  0  0  0  0  0  0  0  0  0
   38.4010   23.7570   31.5790 C   0  0  1  0  0  0  0  0  0  0  0  0
   37.5200   23.8920   30.4520 C   0  0  0  0  0  0  0  0  0  0  0  0
   37.8110   25.1110   31.3740 C   0  0  2  0  0  0  0  0  0  0  0  0
   39.5110   23.6420   31.3230 H   0  0  0  0  0  0  0  0  0  0  0  0
   36.4860   23.5190   30.4890 H   0  0  0  0  0  0  0  0  0  0  0  0
   37.9050   23.9670   29.4220 H   0  0  0  0  0  0  0  0  0  0  0  0
   38.6600   26.1430   30.6620 C   0  0  0  0  0  0  0  0  0  0  0  0
   39.5330   26.7350   31.5520 F   0  0  0  0  0  0  0  0  0  0  0  0
   39.5360   25.4360   29.7360 F   0  0  0  0  0  0  0  0  0  0  0  0
   37.9580   27.0130   29.9220 F   0  0  0  0  0  0  0  0  0  0  0  0
   36.4840   25.6100   31.8390 C   0  0  0  0  0  0  0  0  0  0  0  0
   36.3250   26.6480   32.5350 O   0  0  0  0  0  0  0  0  0  0  0  0
   35.3300   24.9190   31.5090 O   0  0  0  0  0  0  0  0  0  0  0  0
   34.4310   25.4080   31.3790 H   0  0  0  0  0  0  0  0  0  0  0  0
  1  8  1  0  0  0  0
  1  2  2  0  0  0  0
  2  6  1  0  0  0  0
  3  2  1  0  0  0  0
  4  3  2  0  0  0  0
  5  4  1  0  0  0  0
  5  1  1  0  0  0  0
  7  4  1  0  0  0  0
  8  9  1  0  0  0  0
  9 14  1  0  0  0  0
  9 10  2  0  0  0  0
 10 15  1  0  0  0  0
 11 10  1  0  0  0  0
 12 11  2  0  0  0  0
 13  8  2  0  0  0  0
 13 12  1  0  0  0  0
 16 12  1  0  0  0  0
 17 20  1  6  0  0  0
 17  5  1  0  0  0  0
 18 21  1  0  0  0  0
 18 19  1  0  0  0  0
 18 17  1  0  0  0  0
 19 17  1  0  0  0  0
 19 27  1  1  0  0  0
 22 18  1  0  0  0  0
 23 19  1  0  0  0  0
 23 24  1  0  0  0  0
 25 23  1  0  0  0  0
 26 23  1  0  0  0  0
 27 28  2  0  0  0  0
 29 27  1  0  0  0  0
 30 29  1  0  0  0  0
M  END
>  <minimizedAffinity>
-3.71758699

>  <minimizedRMSD>
5.26767111

$$$$
