
 OpenBabel03262519013D

 36 39  0  0  0  0  0  0  0  0999 V2000
   37.7130   27.2190   35.1260 C   0  0  0  0  0  0  0  0  0  0  0  0
   37.0460   27.0150   35.9670 H   0  0  0  0  0  0  0  0  0  0  0  0
   38.0530   28.2910   35.3190 H   0  0  0  0  0  0  0  0  0  0  0  0
   38.9570   26.4570   35.0640 C   0  0  0  0  0  0  0  0  0  0  0  0
   40.0680   26.9840   34.4110 C   0  0  0  0  0  0  0  0  0  0  0  0
   41.2470   26.2810   34.3590 C   0  0  0  0  0  0  0  0  0  0  0  0
   41.3640   25.0290   34.9530 C   0  0  0  0  0  0  0  0  0  0  0  0
   40.2610   24.5050   35.6020 C   0  0  0  0  0  0  0  0  0  0  0  0
   40.3540   23.2650   36.2010 C   0  0  0  0  0  0  0  0  0  0  0  0
   39.2830   22.7040   36.8600 C   0  0  0  0  0  0  0  0  0  0  0  0
   38.0800   23.4120   36.9160 C   0  0  0  0  0  0  0  0  0  0  0  0
   38.0160   24.6650   36.3010 C   0  0  0  0  0  0  0  0  0  0  0  0
   39.0780   25.2400   35.6380 C   0  0  0  0  0  0  0  0  0  0  0  0
   40.0700   27.9470   33.9210 H   0  0  0  0  0  0  0  0  0  0  0  0
   42.1180   26.6860   33.8510 H   0  0  0  0  0  0  0  0  0  0  0  0
   42.2820   24.4480   34.9290 H   0  0  0  0  0  0  0  0  0  0  0  0
   41.2880   22.7180   36.1550 H   0  0  0  0  0  0  0  0  0  0  0  0
   39.3410   21.7300   37.3360 H   0  0  0  0  0  0  0  0  0  0  0  0
   37.2410   22.9690   37.4340 H   0  0  0  0  0  0  0  0  0  0  0  0
   37.0430   25.1260   36.4000 H   0  0  0  0  0  0  0  0  0  0  0  0
   36.1140   28.7690   32.2180 C   0  0  0  0  0  0  0  0  0  0  0  0
   35.7570   27.7080   31.4120 C   0  0  0  0  0  0  0  0  0  0  0  0
   36.0680   26.4090   31.8740 C   0  0  0  0  0  0  0  0  0  0  0  0
   36.6970   26.2670   33.0780 N   0  0  0  0  0  0  0  0  0  0  0  0
   37.0160   27.3210   33.8100 C   0  0  0  0  0  0  0  0  0  0  0  0
   36.7270   28.5680   33.3860 N   0  0  0  0  0  0  0  0  0  0  0  0
   35.8610   29.7500   31.8330 H   0  0  0  0  0  0  0  0  0  0  0  0
   35.2540   27.8200   30.4470 H   0  0  0  0  0  0  0  0  0  0  0  0
   35.7190   25.2410   31.0750 C   0  0  0  0  0  0  0  0  0  0  0  0
   34.5970   25.2020   30.5110 O   0  0  0  0  0  0  0  0  0  0  0  0
   36.6260   24.1240   30.9100 C   0  0  0  0  0  0  0  0  0  0  0  0
   36.3130   22.8510   31.2150 N   0  0  0  0  0  0  0  0  0  0  0  0
   37.3340   22.0920   30.9550 O   0  0  0  0  0  0  0  0  0  0  0  0
   38.2840   22.8360   30.4950 C   0  0  0  0  0  0  0  0  0  0  0  0
   39.2840   22.5700   30.1690 H   0  0  0  0  0  0  0  0  0  0  0  0
   37.8880   24.1180   30.4490 N   0  0  0  0  0  0  0  0  0  0  0  0
  1  3  1  0  0  0  0
  1  2  1  0  0  0  0
  4  1  1  0  0  0  0
  4 13  1  0  0  0  0
  5  4  2  0  0  0  0
  6  5  1  0  0  0  0
  6  7  2  0  0  0  0
  7  8  1  0  0  0  0
  8 13  2  0  0  0  0
  8  9  1  0  0  0  0
  9 10  2  0  0  0  0
 10 11  1  0  0  0  0
 10 18  1  0  0  0  0
 11 19  1  0  0  0  0
 12 20  1  0  0  0  0
 12 11  2  0  0  0  0
 13 12  1  0  0  0  0
 14  5  1  0  0  0  0
 15  6  1  0  0  0  0
 16  7  1  0  0  0  0
 17  9  1  0  0  0  0
 21 26  1  0  0  0  0
 22 23  1  0  0  0  0
 22 21  2  0  0  0  0
 23 24  2  0  0  0  0
 24 25  1  0  0  0  0
 25  1  1  0  0  0  0
 26 25  2  0  0  0  0
 27 21  1  0  0  0  0
 28 22  1  0  0  0  0
 29 23  1  0  0  0  0
 30 29  2  0  0  0  0
 31 29  1  0  0  0  0
 31 32  2  0  0  0  0
 33 32  1  0  0  0  0
 34 33  1  0  0  0  0
 35 34  1  0  0  0  0
 36 34  2  0  0  0  0
 36 31  1  0  0  0  0
M  END
>  <minimizedAffinity>
-5.83811617

>  <minimizedRMSD>
1.66849637

$$$$
