
 OpenBabel03262519593D

 29 31  0  0  1  0  0  0  0  0999 V2000
   38.0770   23.5260   33.4040 C   0  0  0  0  0  0  0  0  0  0  0  0
   37.1170   22.6930   32.8300 C   0  0  0  0  0  0  0  0  0  0  0  0
   37.6800   21.4510   32.9200 N   0  0  0  0  0  0  0  0  0  0  0  0
   38.8730   21.5830   33.5030 C   0  0  0  0  0  0  0  0  0  0  0  0
   39.1360   22.8470   33.8090 N   0  0  0  0  0  0  0  0  0  0  0  0
   36.1440   22.9770   32.4100 H   0  0  0  0  0  0  0  0  0  0  0  0
   39.4930   20.6890   33.6690 H   0  0  0  0  0  0  0  0  0  0  0  0
   37.9380   24.9630   33.5360 C   0  0  0  0  0  0  0  0  0  0  0  0
   38.3720   25.8160   32.5000 C   0  0  0  0  0  0  0  0  0  0  0  0
   38.2020   27.2060   32.6870 C   0  0  0  0  0  0  0  0  0  0  0  0
   37.6360   27.6350   33.8470 N   0  0  0  0  0  0  0  0  0  0  0  0
   37.2320   26.7780   34.8200 C   0  0  0  0  0  0  0  0  0  0  0  0
   37.3760   25.4530   34.6790 N   0  0  0  0  0  0  0  0  0  0  0  0
   38.7930   25.3300   31.6580 H   0  0  0  0  0  0  0  0  0  0  0  0
   38.5350   27.8270   31.8920 H   0  0  0  0  0  0  0  0  0  0  0  0
   36.8010   27.2700   35.6800 H   0  0  0  0  0  0  0  0  0  0  0  0
   40.3390   23.2560   34.4350 C   0  0  1  0  0  0  0  0  0  0  0  0
   40.5040   24.3610   35.3400 C   0  0  0  0  0  0  0  0  0  0  0  0
   40.4430   22.8990   35.8830 C   0  0  2  0  0  0  0  0  0  0  0  0
   41.2430   23.0080   33.7980 H   0  0  0  0  0  0  0  0  0  0  0  0
   41.4970   24.8610   35.4170 H   0  0  0  0  0  0  0  0  0  0  0  0
   39.6940   24.9950   35.7130 H   0  0  0  0  0  0  0  0  0  0  0  0
   41.7940   22.4600   36.3980 C   0  0  0  0  0  0  0  0  0  0  0  0
   41.6870   21.2550   37.0580 F   0  0  0  0  0  0  0  0  0  0  0  0
   42.6230   22.1320   35.2390 F   0  0  0  0  0  0  0  0  0  0  0  0
   42.4650   23.4040   37.0730 F   0  0  0  0  0  0  0  0  0  0  0  0
   39.3340   22.8440   36.8920 C   0  0  0  0  0  0  0  0  0  0  0  0
   38.2670   22.7810   36.8280 H   0  0  0  0  0  0  0  0  0  0  0  0
   39.8890   22.8920   38.0010 O   0  0  0  0  0  0  0  0  0  0  0  0
  1  8  1  0  0  0  0
  1  5  1  0  0  0  0
  2  3  1  0  0  0  0
  2  1  2  0  0  0  0
  3  4  2  0  0  0  0
  4  7  1  0  0  0  0
  4  5  1  0  0  0  0
  5 17  1  0  0  0  0
  6  2  1  0  0  0  0
  8 13  1  0  0  0  0
  9 10  1  0  0  0  0
  9  8  2  0  0  0  0
 10 11  2  0  0  0  0
 11 12  1  0  0  0  0
 12 16  1  0  0  0  0
 13 12  2  0  0  0  0
 14  9  1  0  0  0  0
 15 10  1  0  0  0  0
 17 20  1  6  0  0  0
 17 18  1  0  0  0  0
 17 19  1  0  0  0  0
 18 21  1  0  0  0  0
 18 22  1  0  0  0  0
 18 19  1  0  0  0  0
 19 23  1  0  0  0  0
 19 27  1  1  0  0  0
 23 24  1  0  0  0  0
 23 26  1  0  0  0  0
 25 23  1  0  0  0  0
 27 29  2  0  0  0  0
 28 27  1  0  0  0  0
M  END
>  <minimizedAffinity>
-3.78127003

>  <minimizedRMSD>
2.88963723

$$$$
