
 OpenBabel03262518423D

 26 28  0  0  0  0  0  0  0  0999 V2000
   36.5190   25.6240   31.3980 C   0  0  0  0  0  0  0  0  0  0  0  0
   35.7200   26.7650   31.2550 C   0  0  0  0  0  0  0  0  0  0  0  0
   36.2600   27.9950   31.6140 C   0  0  0  0  0  0  0  0  0  0  0  0
   37.5470   28.0130   32.0860 N   0  0  0  0  0  0  0  0  0  0  0  0
   38.2700   26.8910   32.2030 C   0  0  0  0  0  0  0  0  0  0  0  0
   37.7810   25.6980   31.8680 N   0  0  0  0  0  0  0  0  0  0  0  0
   39.5990   27.0400   32.7080 N   0  0  0  0  0  0  0  0  0  0  0  0
   40.4640   27.3560   31.8000 N   0  0  0  0  0  0  0  0  0  0  0  0
   41.6890   27.4730   32.3820 C   0  0  0  0  0  0  0  0  0  0  0  0
   41.5520   27.2150   33.7100 C   0  0  0  0  0  0  0  0  0  0  0  0
   40.2140   26.9400   33.9080 C   0  0  0  0  0  0  0  0  0  0  0  0
   35.9620   24.3600   31.0280 N   0  0  0  0  0  0  0  0  0  0  0  0
   34.6980   26.7050   30.8740 H   0  0  0  0  0  0  0  0  0  0  0  0
   35.6950   28.9240   31.5280 H   0  0  0  0  0  0  0  0  0  0  0  0
   42.6440   27.7230   31.9440 H   0  0  0  0  0  0  0  0  0  0  0  0
   42.2130   27.1840   34.5650 H   0  0  0  0  0  0  0  0  0  0  0  0
   35.4190   24.0920   31.8950 H   0  0  0  0  0  0  0  0  0  0  0  0
   36.1320   23.9240   30.0890 H   0  0  0  0  0  0  0  0  0  0  0  0
   39.3670   26.5870   35.0500 C   0  0  0  0  0  0  0  0  0  0  0  0
   38.7550   27.2950   35.9830 N   0  0  0  0  0  0  0  0  0  0  0  0
   38.1050   26.5060   36.8030 O   0  0  0  0  0  0  0  0  0  0  0  0
   38.3110   25.2820   36.3780 C   0  0  0  0  0  0  0  0  0  0  0  0
   39.0980   25.2730   35.2780 N   0  0  0  0  0  0  0  0  0  0  0  0
   37.7610   24.0860   37.0130 C   0  0  0  0  0  0  0  0  0  0  0  0
   37.4410   24.0990   38.0470 H   0  0  0  0  0  0  0  0  0  0  0  0
   37.6560   23.0210   36.3500 O   0  0  0  0  0  0  0  0  0  0  0  0
  1  6  1  0  0  0  0
  2  1  2  0  0  0  0
  2  3  1  0  0  0  0
  3  4  2  0  0  0  0
  4  5  1  0  0  0  0
  5  7  1  0  0  0  0
  6  5  2  0  0  0  0
  7 11  1  0  0  0  0
  8  9  2  0  0  0  0
  8  7  1  0  0  0  0
  9 10  1  0  0  0  0
 10 11  2  0  0  0  0
 10 16  1  0  0  0  0
 11 19  1  0  0  0  0
 12  1  1  0  0  0  0
 12 17  1  0  0  0  0
 13  2  1  0  0  0  0
 14  3  1  0  0  0  0
 15  9  1  0  0  0  0
 18 12  1  0  0  0  0
 19 23  1  0  0  0  0
 19 20  2  0  0  0  0
 20 21  1  0  0  0  0
 22 21  1  0  0  0  0
 22 24  1  0  0  0  0
 23 22  2  0  0  0  0
 24 25  1  0  0  0  0
 26 24  2  0  0  0  0
M  END
>  <minimizedAffinity>
-4.74047661

>  <minimizedRMSD>
6.50777483

$$$$
