
 OpenBabel03262518433D

 33 36  0  0  1  0  0  0  0  0999 V2000
   36.7090   23.9220   30.9800 C   0  0  0  0  0  0  0  0  0  0  0  0
   35.4570   24.5540   31.1410 C   0  0  0  0  0  0  0  0  0  0  0  0
   35.3930   25.9390   31.0670 C   0  0  0  0  0  0  0  0  0  0  0  0
   36.5560   26.6130   30.8430 N   0  0  0  0  0  0  0  0  0  0  0  0
   37.7220   25.9800   30.6970 C   0  0  0  0  0  0  0  0  0  0  0  0
   37.8200   24.6440   30.7620 N   0  0  0  0  0  0  0  0  0  0  0  0
   38.8730   26.8040   30.4650 N   0  0  0  0  0  0  0  0  0  0  0  0
   39.0400   27.1280   29.2160 N   0  0  0  0  0  0  0  0  0  0  0  0
   40.1450   27.9020   29.1040 C   0  0  0  0  0  0  0  0  0  0  0  0
   40.6720   28.0530   30.3430 C   0  0  0  0  0  0  0  0  0  0  0  0
   39.8510   27.3480   31.2040 C   0  0  0  0  0  0  0  0  0  0  0  0
   34.5560   23.9890   31.3160 H   0  0  0  0  0  0  0  0  0  0  0  0
   34.4880   26.4860   31.1780 H   0  0  0  0  0  0  0  0  0  0  0  0
   40.5890   28.3510   28.2240 H   0  0  0  0  0  0  0  0  0  0  0  0
   41.5230   28.5660   30.7500 H   0  0  0  0  0  0  0  0  0  0  0  0
   39.8160   27.0850   32.6320 C   0  0  0  0  0  0  0  0  0  0  0  0
   40.7530   27.1720   33.5820 N   0  0  0  0  0  0  0  0  0  0  0  0
   40.2630   26.8360   34.7340 O   0  0  0  0  0  0  0  0  0  0  0  0
   38.9770   26.5270   34.5100 C   0  0  0  0  0  0  0  0  0  0  0  0
   38.6520   26.6670   33.2180 N   0  0  0  0  0  0  0  0  0  0  0  0
   37.9910   26.0760   35.5620 C   0  0  2  0  0  0  0  0  0  0  0  0
   38.1950   26.5130   36.9790 C   0  0  0  0  0  0  0  0  0  0  0  0
   38.4160   25.0580   36.5630 C   0  0  1  0  0  0  0  0  0  0  0  0
   36.9390   26.0480   35.2170 H   0  0  0  0  0  0  0  0  0  0  0  0
   37.2920   26.7950   37.5320 H   0  0  0  0  0  0  0  0  0  0  0  0
   39.0920   27.1120   37.2420 H   0  0  0  0  0  0  0  0  0  0  0  0
   39.4870   24.7540   36.5600 H   0  0  0  0  0  0  0  0  0  0  0  0
   37.4950   24.0190   37.0400 C   0  0  0  0  0  0  0  0  0  0  0  0
   36.4210   24.0410   36.9010 H   0  0  0  0  0  0  0  0  0  0  0  0
   38.0880   23.1120   37.6190 O   0  0  0  0  0  0  0  0  0  0  0  0
   36.7890   22.5010   31.0550 N   0  0  0  0  0  0  0  0  0  0  0  0
   36.2230   21.9670   30.3730 H   0  0  0  0  0  0  0  0  0  0  0  0
   37.4160   22.0800   31.7950 H   0  0  0  0  0  0  0  0  0  0  0  0
  1 31  1  0  0  0  0
  1  2  1  0  0  0  0
  2 12  1  0  0  0  0
  3  2  2  0  0  0  0
  3 13  1  0  0  0  0
  4  3  1  0  0  0  0
  5  6  1  0  0  0  0
  5  4  2  0  0  0  0
  6  1  2  0  0  0  0
  7  5  1  0  0  0  0
  7 11  1  0  0  0  0
  8  7  1  0  0  0  0
  9  8  2  0  0  0  0
  9 10  1  0  0  0  0
 10 15  1  0  0  0  0
 10 11  2  0  0  0  0
 11 16  1  0  0  0  0
 14  9  1  0  0  0  0
 16 20  1  0  0  0  0
 16 17  2  0  0  0  0
 17 18  1  0  0  0  0
 19 18  1  0  0  0  0
 19 21  1  0  0  0  0
 20 19  2  0  0  0  0
 21 24  1  6  0  0  0
 21 23  1  0  0  0  0
 21 22  1  0  0  0  0
 22 26  1  0  0  0  0
 22 25  1  0  0  0  0
 23 27  1  6  0  0  0
 23 22  1  0  0  0  0
 23 28  1  0  0  0  0
 28 30  2  0  0  0  0
 29 28  1  0  0  0  0
 31 33  1  0  0  0  0
 32 31  1  0  0  0  0
M  END
>  <minimizedAffinity>
-4.63448715

>  <minimizedRMSD>
2.69189262

$$$$
