
 OpenBabel03262517023D

 29 31  0  0  0  0  0  0  0  0999 V2000
   39.4750   22.8630   37.3060 C   0  0  0  0  0  0  0  0  0  0  0  0
   38.6310   23.6810   36.5780 C   0  0  0  0  0  0  0  0  0  0  0  0
   37.7040   24.1190   37.4640 N   0  0  0  0  0  0  0  0  0  0  0  0
   37.9960   23.5770   38.6660 C   0  0  0  0  0  0  0  0  0  0  0  0
   39.0630   22.8120   38.6020 N   0  0  0  0  0  0  0  0  0  0  0  0
   37.4890   23.6860   39.6280 H   0  0  0  0  0  0  0  0  0  0  0  0
   39.5700   22.2440   39.3180 H   0  0  0  0  0  0  0  0  0  0  0  0
   38.6780   24.0290   35.1730 C   0  0  0  0  0  0  0  0  0  0  0  0
   39.3300   25.2190   34.8860 C   0  0  0  0  0  0  0  0  0  0  0  0
   39.4330   25.6490   33.5690 C   0  0  0  0  0  0  0  0  0  0  0  0
   38.9010   24.9210   32.5270 C   0  0  0  0  0  0  0  0  0  0  0  0
   38.2510   23.7290   32.8490 C   0  0  0  0  0  0  0  0  0  0  0  0
   38.1390   23.2860   34.1450 C   0  0  0  0  0  0  0  0  0  0  0  0
   39.7830   25.8700   35.6120 H   0  0  0  0  0  0  0  0  0  0  0  0
   39.9350   26.5750   33.2920 H   0  0  0  0  0  0  0  0  0  0  0  0
   38.9350   25.1780   31.4800 H   0  0  0  0  0  0  0  0  0  0  0  0
   37.8010   23.0860   32.1020 H   0  0  0  0  0  0  0  0  0  0  0  0
   37.4660   22.0460   34.4980 C   0  0  0  0  0  0  0  0  0  0  0  0
   37.5370   21.5540   35.4540 H   0  0  0  0  0  0  0  0  0  0  0  0
   36.7410   21.4910   33.6340 O   0  0  0  0  0  0  0  0  0  0  0  0
   42.5720   20.7990   37.0320 C   0  0  0  0  0  0  0  0  0  0  0  0
   41.4760   21.4520   37.6030 C   0  0  0  0  0  0  0  0  0  0  0  0
   40.6440   22.1590   36.7450 C   0  0  0  0  0  0  0  0  0  0  0  0
   40.9270   22.1860   35.4000 N   0  0  0  0  0  0  0  0  0  0  0  0
   42.0070   21.5290   34.9150 C   0  0  0  0  0  0  0  0  0  0  0  0
   42.8130   20.8500   35.7160 N   0  0  0  0  0  0  0  0  0  0  0  0
   43.2200   20.2460   37.7100 H   0  0  0  0  0  0  0  0  0  0  0  0
   41.2850   21.4090   38.6680 H   0  0  0  0  0  0  0  0  0  0  0  0
   42.1440   21.6110   33.8440 H   0  0  0  0  0  0  0  0  0  0  0  0
  1  5  1  0  0  0  0
  2  1  2  0  0  0  0
  2  3  1  0  0  0  0
  3  4  2  0  0  0  0
  4  6  1  0  0  0  0
  5  4  1  0  0  0  0
  5  7  1  0  0  0  0
  8  2  1  0  0  0  0
  9  8  1  0  0  0  0
  9 14  1  0  0  0  0
 10  9  2  0  0  0  0
 11 12  2  0  0  0  0
 11 10  1  0  0  0  0
 12 13  1  0  0  0  0
 13 18  1  0  0  0  0
 13  8  2  0  0  0  0
 15 10  1  0  0  0  0
 16 11  1  0  0  0  0
 17 12  1  0  0  0  0
 18 19  1  0  0  0  0
 20 18  2  0  0  0  0
 21 22  1  0  0  0  0
 21 27  1  0  0  0  0
 22 28  1  0  0  0  0
 23  1  1  0  0  0  0
 23 22  2  0  0  0  0
 24 23  1  0  0  0  0
 25 24  2  0  0  0  0
 25 26  1  0  0  0  0
 26 21  2  0  0  0  0
 29 25  1  0  0  0  0
M  END
>  <minimizedAffinity>
-4.82828808

>  <minimizedRMSD>
0.184480608

$$$$
