
 OpenBabel03262519583D

 29 31  0  0  1  0  0  0  0  0999 V2000
   38.1600   22.7800   34.8430 C   0  0  0  0  0  0  0  0  0  0  0  0
   37.2130   21.8410   34.4350 C   0  0  0  0  0  0  0  0  0  0  0  0
   37.2780   21.8950   33.0710 N   0  0  0  0  0  0  0  0  0  0  0  0
   38.1970   22.8030   32.7410 C   0  0  0  0  0  0  0  0  0  0  0  0
   38.7520   23.3580   33.8120 N   0  0  0  0  0  0  0  0  0  0  0  0
   36.5730   21.2130   35.0680 H   0  0  0  0  0  0  0  0  0  0  0  0
   38.4030   22.9990   31.6790 H   0  0  0  0  0  0  0  0  0  0  0  0
   38.4580   23.0930   36.2270 C   0  0  0  0  0  0  0  0  0  0  0  0
   37.5980   23.9320   36.9650 C   0  0  0  0  0  0  0  0  0  0  0  0
   37.9400   24.1930   38.3110 C   0  0  0  0  0  0  0  0  0  0  0  0
   39.0710   23.6240   38.8090 N   0  0  0  0  0  0  0  0  0  0  0  0
   39.8710   22.8210   38.0630 C   0  0  0  0  0  0  0  0  0  0  0  0
   39.5800   22.5500   36.7830 N   0  0  0  0  0  0  0  0  0  0  0  0
   36.7560   24.2990   36.4360 H   0  0  0  0  0  0  0  0  0  0  0  0
   37.2760   24.8260   38.8460 H   0  0  0  0  0  0  0  0  0  0  0  0
   40.7300   22.4450   38.5990 H   0  0  0  0  0  0  0  0  0  0  0  0
   39.7570   24.3530   33.7340 C   0  0  1  0  0  0  0  0  0  0  0  0
   40.0270   25.2140   32.6160 C   0  0  0  0  0  0  0  0  0  0  0  0
   39.2560   25.7560   33.8610 C   0  0  2  0  0  0  0  0  0  0  0  0
   40.6540   24.0880   34.3740 H   0  0  0  0  0  0  0  0  0  0  0  0
   41.0540   25.6200   32.4740 H   0  0  0  0  0  0  0  0  0  0  0  0
   39.4390   25.2520   31.6930 H   0  0  0  0  0  0  0  0  0  0  0  0
   40.1080   26.7340   34.6360 C   0  0  0  0  0  0  0  0  0  0  0  0
   39.4190   27.2050   35.7330 F   0  0  0  0  0  0  0  0  0  0  0  0
   41.2100   25.9800   35.2350 F   0  0  0  0  0  0  0  0  0  0  0  0
   40.6810   27.6880   33.8890 F   0  0  0  0  0  0  0  0  0  0  0  0
   37.9500   26.3080   33.3710 C   0  0  0  0  0  0  0  0  0  0  0  0
   37.6230   26.7560   32.4530 H   0  0  0  0  0  0  0  0  0  0  0  0
   37.1520   26.1630   34.3110 O   0  0  0  0  0  0  0  0  0  0  0  0
  1  8  1  0  0  0  0
  2  1  2  0  0  0  0
  2  6  1  0  0  0  0
  3  2  1  0  0  0  0
  4  3  2  0  0  0  0
  4  5  1  0  0  0  0
  5  1  1  0  0  0  0
  7  4  1  0  0  0  0
  8 13  2  0  0  0  0
  8  9  1  0  0  0  0
  9 10  2  0  0  0  0
 10 11  1  0  0  0  0
 10 15  1  0  0  0  0
 12 16  1  0  0  0  0
 12 11  2  0  0  0  0
 13 12  1  0  0  0  0
 14  9  1  0  0  0  0
 17  5  1  0  0  0  0
 17 19  1  0  0  0  0
 17 20  1  1  0  0  0
 18 17  1  0  0  0  0
 18 19  1  0  0  0  0
 19 27  1  6  0  0  0
 19 23  1  0  0  0  0
 21 18  1  0  0  0  0
 22 18  1  0  0  0  0
 23 25  1  0  0  0  0
 23 24  1  0  0  0  0
 26 23  1  0  0  0  0
 27 29  2  0  0  0  0
 28 27  1  0  0  0  0
M  END
>  <minimizedAffinity>
-4.61151075

>  <minimizedRMSD>
4.71340132

$$$$
