
 OpenBabel03262519593D

 29 31  0  0  1  0  0  0  0  0999 V2000
   39.6820   25.1760   33.6600 C   0  0  0  0  0  0  0  0  0  0  0  0
   40.8080   24.8030   32.9260 C   0  0  0  0  0  0  0  0  0  0  0  0
   41.6770   24.3580   33.8830 N   0  0  0  0  0  0  0  0  0  0  0  0
   41.0770   24.4770   35.0680 C   0  0  0  0  0  0  0  0  0  0  0  0
   39.8520   24.9760   34.9550 N   0  0  0  0  0  0  0  0  0  0  0  0
   40.9520   24.8580   31.8400 H   0  0  0  0  0  0  0  0  0  0  0  0
   41.6140   24.1690   35.9770 H   0  0  0  0  0  0  0  0  0  0  0  0
   38.4730   25.7250   33.0770 C   0  0  0  0  0  0  0  0  0  0  0  0
   38.2820   27.1220   33.0230 C   0  0  0  0  0  0  0  0  0  0  0  0
   37.0860   27.5930   32.4380 C   0  0  0  0  0  0  0  0  0  0  0  0
   36.1960   26.6780   31.9650 N   0  0  0  0  0  0  0  0  0  0  0  0
   36.4200   25.3410   32.0380 C   0  0  0  0  0  0  0  0  0  0  0  0
   37.5430   24.8560   32.5860 N   0  0  0  0  0  0  0  0  0  0  0  0
   39.0670   27.7040   33.4330 H   0  0  0  0  0  0  0  0  0  0  0  0
   36.9660   28.6480   32.4070 H   0  0  0  0  0  0  0  0  0  0  0  0
   35.6220   24.7450   31.6200 H   0  0  0  0  0  0  0  0  0  0  0  0
   39.0030   25.2020   36.0660 C   0  0  1  0  0  0  0  0  0  0  0  0
   37.5660   25.1670   36.0710 C   0  0  0  0  0  0  0  0  0  0  0  0
   38.3870   23.9680   36.6430 C   0  0  2  0  0  0  0  0  0  0  0  0
   39.4770   25.9140   36.8110 H   0  0  0  0  0  0  0  0  0  0  0  0
   37.0070   25.7690   36.8230 H   0  0  0  0  0  0  0  0  0  0  0  0
   36.9410   24.8940   35.2150 H   0  0  0  0  0  0  0  0  0  0  0  0
   38.2510   23.8930   38.1450 C   0  0  0  0  0  0  0  0  0  0  0  0
   37.3170   22.9430   38.4950 F   0  0  0  0  0  0  0  0  0  0  0  0
   39.4990   23.3420   38.6740 F   0  0  0  0  0  0  0  0  0  0  0  0
   38.0900   25.0780   38.7500 F   0  0  0  0  0  0  0  0  0  0  0  0
   37.9480   22.7370   35.9070 C   0  0  0  0  0  0  0  0  0  0  0  0
   37.0570   22.4560   35.3820 H   0  0  0  0  0  0  0  0  0  0  0  0
   38.8970   21.9420   35.9900 O   0  0  0  0  0  0  0  0  0  0  0  0
  1  5  1  0  0  0  0
  2  1  2  0  0  0  0
  2  3  1  0  0  0  0
  3  4  2  0  0  0  0
  4  7  1  0  0  0  0
  5  4  1  0  0  0  0
  5 17  1  0  0  0  0
  6  2  1  0  0  0  0
  8  1  1  0  0  0  0
  9  8  1  0  0  0  0
  9 14  1  0  0  0  0
 10  9  2  0  0  0  0
 11 12  2  0  0  0  0
 11 10  1  0  0  0  0
 12 13  1  0  0  0  0
 13  8  2  0  0  0  0
 15 10  1  0  0  0  0
 16 12  1  0  0  0  0
 17 18  1  0  0  0  0
 17 19  1  0  0  0  0
 17 20  1  1  0  0  0
 18 19  1  0  0  0  0
 18 21  1  0  0  0  0
 19 27  1  6  0  0  0
 19 23  1  0  0  0  0
 22 18  1  0  0  0  0
 23 24  1  0  0  0  0
 23 25  1  0  0  0  0
 23 26  1  0  0  0  0
 27 29  2  0  0  0  0
 28 27  1  0  0  0  0
M  END
>  <minimizedAffinity>
-4.7269578

>  <minimizedRMSD>
2.35590577

$$$$
