
 OpenBabel03262518493D

 33 35  0  0  0  0  0  0  0  0999 V2000
   39.0660   20.8470   31.5180 C   0  0  0  0  0  0  0  0  0  0  0  0
   37.8730   21.0240   32.1420 C   0  0  0  0  0  0  0  0  0  0  0  0
   37.8220   21.5050   33.4300 C   0  0  0  0  0  0  0  0  0  0  0  0
   38.9600   21.8270   34.1320 C   0  0  0  0  0  0  0  0  0  0  0  0
   40.1980   21.6490   33.4940 C   0  0  0  0  0  0  0  0  0  0  0  0
   40.2720   21.1650   32.1970 C   0  0  0  0  0  0  0  0  0  0  0  0
   36.8710   21.6440   33.9240 H   0  0  0  0  0  0  0  0  0  0  0  0
   41.1280   21.8830   33.9890 H   0  0  0  0  0  0  0  0  0  0  0  0
   41.2460   21.0450   31.7420 H   0  0  0  0  0  0  0  0  0  0  0  0
   39.7810   22.7800   37.5820 C   0  0  0  0  0  0  0  0  0  0  0  0
   38.6160   23.3800   38.0260 C   0  0  0  0  0  0  0  0  0  0  0  0
   37.5660   23.4490   37.1320 C   0  0  0  0  0  0  0  0  0  0  0  0
   37.7110   22.9380   35.8820 N   0  0  0  0  0  0  0  0  0  0  0  0
   38.9000   22.3520   35.5010 C   0  0  0  0  0  0  0  0  0  0  0  0
   39.9120   22.2730   36.3280 N   0  0  0  0  0  0  0  0  0  0  0  0
   40.6540   22.6830   38.2180 H   0  0  0  0  0  0  0  0  0  0  0  0
   38.5500   23.7730   39.0300 H   0  0  0  0  0  0  0  0  0  0  0  0
   36.6340   23.9050   37.4190 H   0  0  0  0  0  0  0  0  0  0  0  0
   39.1690   20.0920   30.0060 S   0  0  0  0  0  0  0  0  0  0  0  0
   39.1640   21.1880   28.9000 O   0  0  0  0  0  0  0  0  0  0  0  0
   40.4460   19.3250   29.9850 O   0  0  0  0  0  0  0  0  0  0  0  0
   38.2410   18.8840   29.3510 C   0  0  0  0  0  0  0  0  0  0  0  0
   37.4880   18.9990   28.1580 C   0  0  0  0  0  0  0  0  0  0  0  0
   36.7020   18.0430   27.5610 C   0  0  0  0  0  0  0  0  0  0  0  0
   36.6530   16.8460   28.2090 C   0  0  0  0  0  0  0  0  0  0  0  0
   36.0580   16.0360   27.8090 H   0  0  0  0  0  0  0  0  0  0  0  0
   37.3470   16.6540   29.3570 C   0  0  0  0  0  0  0  0  0  0  0  0
   38.0790   17.6210   29.8660 N   0  0  0  0  0  0  0  0  0  0  0  0
   36.3360   20.7010   31.3150 S   0  0  0  0  0  0  0  0  0  0  0  0
   34.9180   20.8560   32.4110 C   0  0  0  0  0  0  0  0  0  0  0  0
   33.8170   20.1990   31.9420 F   0  0  0  0  0  0  0  0  0  0  0  0
   35.2550   20.2120   33.5980 F   0  0  0  0  0  0  0  0  0  0  0  0
   34.6790   22.1620   32.7510 F   0  0  0  0  0  0  0  0  0  0  0  0
  1  2  2  0  0  0  0
  1  6  1  0  0  0  0
  2  3  1  0  0  0  0
  3  7  1  0  0  0  0
  3  4  2  0  0  0  0
  4 14  1  0  0  0  0
  5  8  1  0  0  0  0
  5  4  1  0  0  0  0
  6  5  2  0  0  0  0
  9  6  1  0  0  0  0
 10 11  1  0  0  0  0
 10 16  1  0  0  0  0
 11 17  1  0  0  0  0
 12 18  1  0  0  0  0
 12 11  2  0  0  0  0
 13 12  1  0  0  0  0
 14 13  2  0  0  0  0
 14 15  1  0  0  0  0
 15 10  2  0  0  0  0
 19  1  1  0  0  0  0
 20 19  2  0  0  0  0
 21 19  2  0  0  0  0
 22 28  1  0  0  0  0
 22 19  1  0  0  0  0
 23 22  2  0  0  0  0
 24 23  1  0  0  0  0
 24 25  2  0  0  0  0
 25 27  1  0  0  0  0
 26 25  1  0  0  0  0
 27 28  2  0  0  0  0
 29  2  1  0  0  0  0
 29 30  1  0  0  0  0
 30 33  1  0  0  0  0
 30 32  1  0  0  0  0
 31 30  1  0  0  0  0
M  END
>  <minimizedAffinity>
-4.75599194

>  <minimizedRMSD>
1.92820168

$$$$
