
 OpenBabel03262519593D

 29 31  0  0  1  0  0  0  0  0999 V2000
   39.7420   25.0420   33.7780 C   0  0  0  0  0  0  0  0  0  0  0  0
   40.8540   24.6160   33.0520 C   0  0  0  0  0  0  0  0  0  0  0  0
   41.6980   24.1380   34.0150 N   0  0  0  0  0  0  0  0  0  0  0  0
   41.0980   24.2890   35.1970 C   0  0  0  0  0  0  0  0  0  0  0  0
   39.8970   24.8410   35.0750 N   0  0  0  0  0  0  0  0  0  0  0  0
   41.0050   24.6590   31.9660 H   0  0  0  0  0  0  0  0  0  0  0  0
   41.6170   23.9630   36.1100 H   0  0  0  0  0  0  0  0  0  0  0  0
   38.5610   25.6400   33.1870 C   0  0  0  0  0  0  0  0  0  0  0  0
   38.4290   27.0440   33.1310 C   0  0  0  0  0  0  0  0  0  0  0  0
   37.2570   27.5640   32.5370 C   0  0  0  0  0  0  0  0  0  0  0  0
   36.3340   26.6870   32.0590 N   0  0  0  0  0  0  0  0  0  0  0  0
   36.5010   25.3410   32.1330 C   0  0  0  0  0  0  0  0  0  0  0  0
   37.5990   24.8100   32.6900 N   0  0  0  0  0  0  0  0  0  0  0  0
   39.2340   27.5930   33.5460 H   0  0  0  0  0  0  0  0  0  0  0  0
   37.1820   28.6230   32.5050 H   0  0  0  0  0  0  0  0  0  0  0  0
   35.6820   24.7780   31.7110 H   0  0  0  0  0  0  0  0  0  0  0  0
   39.0540   25.1100   36.1810 C   0  0  1  0  0  0  0  0  0  0  0  0
   37.6160   25.1330   36.1790 C   0  0  0  0  0  0  0  0  0  0  0  0
   38.3860   23.9070   36.7640 C   0  0  2  0  0  0  0  0  0  0  0  0
   39.5530   25.8070   36.9220 H   0  0  0  0  0  0  0  0  0  0  0  0
   37.0790   25.7620   36.9250 H   0  0  0  0  0  0  0  0  0  0  0  0
   36.9840   24.8790   35.3240 H   0  0  0  0  0  0  0  0  0  0  0  0
   38.2410   23.8490   38.2670 C   0  0  0  0  0  0  0  0  0  0  0  0
   37.3160   22.8920   38.6230 F   0  0  0  0  0  0  0  0  0  0  0  0
   39.4920   23.3190   38.8100 F   0  0  0  0  0  0  0  0  0  0  0  0
   38.0620   25.0390   38.8550 F   0  0  0  0  0  0  0  0  0  0  0  0
   37.9000   22.6890   36.0360 C   0  0  0  0  0  0  0  0  0  0  0  0
   36.9850   22.4240   35.5480 H   0  0  0  0  0  0  0  0  0  0  0  0
   38.8420   21.8810   36.0700 O   0  0  0  0  0  0  0  0  0  0  0  0
  1  5  1  0  0  0  0
  2  1  2  0  0  0  0
  2  3  1  0  0  0  0
  3  4  2  0  0  0  0
  4  7  1  0  0  0  0
  5  4  1  0  0  0  0
  5 17  1  0  0  0  0
  6  2  1  0  0  0  0
  8  1  1  0  0  0  0
  9  8  1  0  0  0  0
  9 14  1  0  0  0  0
 10  9  2  0  0  0  0
 11 12  2  0  0  0  0
 11 10  1  0  0  0  0
 12 13  1  0  0  0  0
 13  8  2  0  0  0  0
 15 10  1  0  0  0  0
 16 12  1  0  0  0  0
 17 19  1  0  0  0  0
 17 20  1  1  0  0  0
 18 17  1  0  0  0  0
 18 19  1  0  0  0  0
 18 21  1  0  0  0  0
 19 27  1  6  0  0  0
 19 23  1  0  0  0  0
 22 18  1  0  0  0  0
 23 24  1  0  0  0  0
 23 25  1  0  0  0  0
 23 26  1  0  0  0  0
 27 29  2  0  0  0  0
 28 27  1  0  0  0  0
M  END
>  <minimizedAffinity>
-4.75013208

>  <minimizedRMSD>
2.30257392

$$$$
