
 OpenBabel03262519583D

 29 31  0  0  1  0  0  0  0  0999 V2000
   38.8250   23.3520   34.0750 C   0  0  0  0  0  0  0  0  0  0  0  0
   38.3030   22.5050   35.0520 C   0  0  0  0  0  0  0  0  0  0  0  0
   37.3280   21.8160   34.3880 N   0  0  0  0  0  0  0  0  0  0  0  0
   37.3080   22.2490   33.1260 C   0  0  0  0  0  0  0  0  0  0  0  0
   38.2190   23.1910   32.9120 N   0  0  0  0  0  0  0  0  0  0  0  0
   38.6090   22.4210   36.1030 H   0  0  0  0  0  0  0  0  0  0  0  0
   36.5860   21.8150   32.4190 H   0  0  0  0  0  0  0  0  0  0  0  0
   39.8980   24.3000   34.3040 C   0  0  0  0  0  0  0  0  0  0  0  0
   39.6060   25.6150   34.7220 C   0  0  0  0  0  0  0  0  0  0  0  0
   40.6960   26.4880   34.9330 C   0  0  0  0  0  0  0  0  0  0  0  0
   41.9530   26.0120   34.7230 N   0  0  0  0  0  0  0  0  0  0  0  0
   42.1900   24.7370   34.3210 C   0  0  0  0  0  0  0  0  0  0  0  0
   41.1810   23.8790   34.1090 N   0  0  0  0  0  0  0  0  0  0  0  0
   38.5760   25.8350   34.8420 H   0  0  0  0  0  0  0  0  0  0  0  0
   40.4500   27.4730   35.2490 H   0  0  0  0  0  0  0  0  0  0  0  0
   43.2380   24.5090   34.1980 H   0  0  0  0  0  0  0  0  0  0  0  0
   38.4020   23.8170   31.6550 C   0  0  1  0  0  0  0  0  0  0  0  0
   37.4280   23.9350   30.6040 C   0  0  0  0  0  0  0  0  0  0  0  0
   37.7490   25.1560   31.5240 C   0  0  2  0  0  0  0  0  0  0  0  0
   39.4820   23.7580   31.3160 H   0  0  0  0  0  0  0  0  0  0  0  0
   37.7710   24.0270   29.5490 H   0  0  0  0  0  0  0  0  0  0  0  0
   36.3870   23.6060   30.6720 H   0  0  0  0  0  0  0  0  0  0  0  0
   38.4940   26.2240   30.7580 C   0  0  0  0  0  0  0  0  0  0  0  0
   39.4760   26.7820   31.5460 F   0  0  0  0  0  0  0  0  0  0  0  0
   39.2550   25.5590   29.7010 F   0  0  0  0  0  0  0  0  0  0  0  0
   37.7080   27.1150   30.1370 F   0  0  0  0  0  0  0  0  0  0  0  0
   36.4550   25.6050   32.1360 C   0  0  0  0  0  0  0  0  0  0  0  0
   35.4220   25.3960   31.9400 H   0  0  0  0  0  0  0  0  0  0  0  0
   36.7700   26.3810   33.0520 O   0  0  0  0  0  0  0  0  0  0  0  0
  1  8  1  0  0  0  0
  1  2  2  0  0  0  0
  2  6  1  0  0  0  0
  3  2  1  0  0  0  0
  4  3  2  0  0  0  0
  5  4  1  0  0  0  0
  5  1  1  0  0  0  0
  7  4  1  0  0  0  0
  8  9  1  0  0  0  0
  9 14  1  0  0  0  0
  9 10  2  0  0  0  0
 10 15  1  0  0  0  0
 11 10  1  0  0  0  0
 12 11  2  0  0  0  0
 13  8  2  0  0  0  0
 13 12  1  0  0  0  0
 16 12  1  0  0  0  0
 17 20  1  6  0  0  0
 17  5  1  0  0  0  0
 18 22  1  0  0  0  0
 18 19  1  0  0  0  0
 18 17  1  0  0  0  0
 19 17  1  0  0  0  0
 19 27  1  1  0  0  0
 21 18  1  0  0  0  0
 23 19  1  0  0  0  0
 23 24  1  0  0  0  0
 25 23  1  0  0  0  0
 26 23  1  0  0  0  0
 27 29  2  0  0  0  0
 28 27  1  0  0  0  0
M  END
>  <minimizedAffinity>
-3.43432593

>  <minimizedRMSD>
5.31285906

$$$$
