
 OpenBabel03262519583D

 29 31  0  0  1  0  0  0  0  0999 V2000
   39.7410   25.0420   33.7780 C   0  0  0  0  0  0  0  0  0  0  0  0
   40.8530   24.6160   33.0520 C   0  0  0  0  0  0  0  0  0  0  0  0
   41.6970   24.1380   34.0140 N   0  0  0  0  0  0  0  0  0  0  0  0
   41.0970   24.2890   35.1960 C   0  0  0  0  0  0  0  0  0  0  0  0
   39.8960   24.8410   35.0740 N   0  0  0  0  0  0  0  0  0  0  0  0
   41.0040   24.6580   31.9650 H   0  0  0  0  0  0  0  0  0  0  0  0
   41.6170   23.9620   36.1090 H   0  0  0  0  0  0  0  0  0  0  0  0
   38.5600   25.6410   33.1870 C   0  0  0  0  0  0  0  0  0  0  0  0
   38.4280   27.0440   33.1310 C   0  0  0  0  0  0  0  0  0  0  0  0
   37.2570   27.5650   32.5380 C   0  0  0  0  0  0  0  0  0  0  0  0
   36.3340   26.6880   32.0590 N   0  0  0  0  0  0  0  0  0  0  0  0
   36.5010   25.3430   32.1330 C   0  0  0  0  0  0  0  0  0  0  0  0
   37.5980   24.8110   32.6890 N   0  0  0  0  0  0  0  0  0  0  0  0
   39.2340   27.5930   33.5470 H   0  0  0  0  0  0  0  0  0  0  0  0
   37.1820   28.6240   32.5060 H   0  0  0  0  0  0  0  0  0  0  0  0
   35.6820   24.7800   31.7100 H   0  0  0  0  0  0  0  0  0  0  0  0
   39.0540   25.1100   36.1800 C   0  0  1  0  0  0  0  0  0  0  0  0
   37.6160   25.1330   36.1800 C   0  0  0  0  0  0  0  0  0  0  0  0
   38.3850   23.9070   36.7640 C   0  0  2  0  0  0  0  0  0  0  0  0
   39.5530   25.8080   36.9210 H   0  0  0  0  0  0  0  0  0  0  0  0
   37.0790   25.7620   36.9250 H   0  0  0  0  0  0  0  0  0  0  0  0
   36.9830   24.8780   35.3240 H   0  0  0  0  0  0  0  0  0  0  0  0
   38.2410   23.8490   38.2670 C   0  0  0  0  0  0  0  0  0  0  0  0
   37.3160   22.8920   38.6230 F   0  0  0  0  0  0  0  0  0  0  0  0
   39.4920   23.3200   38.8100 F   0  0  0  0  0  0  0  0  0  0  0  0
   38.0620   25.0400   38.8550 F   0  0  0  0  0  0  0  0  0  0  0  0
   37.9000   22.6880   36.0360 C   0  0  0  0  0  0  0  0  0  0  0  0
   36.9840   22.4240   35.5480 H   0  0  0  0  0  0  0  0  0  0  0  0
   38.8430   21.8810   36.0710 O   0  0  0  0  0  0  0  0  0  0  0  0
  1  5  1  0  0  0  0
  2  1  2  0  0  0  0
  2  3  1  0  0  0  0
  3  4  2  0  0  0  0
  4  7  1  0  0  0  0
  5  4  1  0  0  0  0
  5 17  1  0  0  0  0
  6  2  1  0  0  0  0
  8  1  1  0  0  0  0
  9  8  1  0  0  0  0
  9 14  1  0  0  0  0
 10  9  2  0  0  0  0
 11 12  2  0  0  0  0
 11 10  1  0  0  0  0
 12 13  1  0  0  0  0
 13  8  2  0  0  0  0
 15 10  1  0  0  0  0
 16 12  1  0  0  0  0
 17 19  1  0  0  0  0
 17 20  1  1  0  0  0
 18 17  1  0  0  0  0
 18 19  1  0  0  0  0
 18 21  1  0  0  0  0
 19 27  1  6  0  0  0
 19 23  1  0  0  0  0
 22 18  1  0  0  0  0
 23 24  1  0  0  0  0
 23 25  1  0  0  0  0
 23 26  1  0  0  0  0
 27 29  2  0  0  0  0
 28 27  1  0  0  0  0
M  END
>  <minimizedAffinity>
-4.75025177

>  <minimizedRMSD>
2.30881429

$$$$
