
 OpenBabel03262518513D

 22 23  0  0  0  0  0  0  0  0999 V2000
   39.8950   22.7270   37.2190 C   0  0  0  0  0  0  0  0  0  0  0  0
   39.2700   23.4340   38.2960 C   0  0  0  0  0  0  0  0  0  0  0  0
   37.8740   23.5230   38.2800 C   0  0  0  0  0  0  0  0  0  0  0  0
   37.1940   22.9440   37.2630 N   0  0  0  0  0  0  0  0  0  0  0  0
   37.8150   22.2850   36.2640 C   0  0  0  0  0  0  0  0  0  0  0  0
   39.1650   22.1690   36.2290 N   0  0  0  0  0  0  0  0  0  0  0  0
   37.1160   21.6630   35.1730 N   0  0  0  0  0  0  0  0  0  0  0  0
   37.6480   21.8210   33.9330 C   0  0  0  0  0  0  0  0  0  0  0  0
   36.9730   21.2200   32.8860 C   0  0  0  0  0  0  0  0  0  0  0  0
   35.8130   20.5040   33.1480 C   0  0  0  0  0  0  0  0  0  0  0  0
   35.2200   19.9660   32.1650 O   0  0  0  0  0  0  0  0  0  0  0  0
   35.3360   20.3820   34.3960 N   0  0  0  0  0  0  0  0  0  0  0  0
   35.9890   20.9670   35.4350 C   0  0  0  0  0  0  0  0  0  0  0  0
   35.6160   20.9040   36.6120 O   0  0  0  0  0  0  0  0  0  0  0  0
   40.9680   22.6320   37.1870 H   0  0  0  0  0  0  0  0  0  0  0  0
   39.9030   23.8620   39.0640 H   0  0  0  0  0  0  0  0  0  0  0  0
   37.3930   24.0440   39.0710 H   0  0  0  0  0  0  0  0  0  0  0  0
   38.5580   22.3910   33.7810 H   0  0  0  0  0  0  0  0  0  0  0  0
   34.4660   19.8420   34.5830 H   0  0  0  0  0  0  0  0  0  0  0  0
   37.5480   21.3920   31.5570 C   0  0  0  0  0  0  0  0  0  0  0  0
   38.2150   20.6540   31.1200 H   0  0  0  0  0  0  0  0  0  0  0  0
   37.3280   22.3880   30.8160 O   0  0  0  0  0  0  0  0  0  0  0  0
  1  2  1  0  0  0  0
  2 16  1  0  0  0  0
  3  2  2  0  0  0  0
  3 17  1  0  0  0  0
  4  3  1  0  0  0  0
  5  4  2  0  0  0  0
  6  5  1  0  0  0  0
  6  1  2  0  0  0  0
  7 13  1  0  0  0  0
  7  5  1  0  0  0  0
  8  7  1  0  0  0  0
  9 10  1  0  0  0  0
  9  8  2  0  0  0  0
 10 12  1  0  0  0  0
 11 10  2  0  0  0  0
 12 19  1  0  0  0  0
 12 13  1  0  0  0  0
 13 14  2  0  0  0  0
 15  1  1  0  0  0  0
 18  8  1  0  0  0  0
 20  9  1  0  0  0  0
 21 20  1  0  0  0  0
 22 20  2  0  0  0  0
M  END
>  <minimizedAffinity>
-4.8507762

>  <minimizedRMSD>
0.251428068

$$$$
