
 OpenBabel03262518143D

 35 37  0  0  1  0  0  0  0  0999 V2000
   42.5710   21.9570   33.5870 C   0  0  1  0  0  0  0  0  0  0  0  0
   41.8420   20.9130   32.7910 C   0  0  0  0  0  0  0  0  0  0  0  0
   41.9560   21.0890   31.3070 C   0  0  0  0  0  0  0  0  0  0  0  0
   41.9540   22.5310   30.9000 C   0  0  0  0  0  0  0  0  0  0  0  0
   41.3530   23.3790   31.9680 C   0  0  0  0  0  0  0  0  0  0  0  0
   42.2180   23.3780   33.1910 C   0  0  2  0  0  0  0  0  0  0  0  0
   43.6540   21.7850   33.4600 H   0  0  0  0  0  0  0  0  0  0  0  0
   40.7510   21.0140   33.0490 H   0  0  0  0  0  0  0  0  0  0  0  0
   42.1960   19.9380   33.1410 H   0  0  0  0  0  0  0  0  0  0  0  0
   41.0640   20.6040   30.8540 H   0  0  0  0  0  0  0  0  0  0  0  0
   42.8300   20.5470   30.8800 H   0  0  0  0  0  0  0  0  0  0  0  0
   41.4720   22.6820   29.9120 H   0  0  0  0  0  0  0  0  0  0  0  0
   43.0160   22.8280   30.7720 H   0  0  0  0  0  0  0  0  0  0  0  0
   41.2090   24.4090   31.6030 H   0  0  0  0  0  0  0  0  0  0  0  0
   40.3690   22.9300   32.2830 H   0  0  0  0  0  0  0  0  0  0  0  0
   41.6420   23.9170   33.9820 H   0  0  0  0  0  0  0  0  0  0  0  0
   42.5030   20.8120   37.0510 C   0  0  0  0  0  0  0  0  0  0  0  0
   41.3820   21.4400   37.5780 C   0  0  0  0  0  0  0  0  0  0  0  0
   40.6260   22.2700   36.7600 C   0  0  0  0  0  0  0  0  0  0  0  0
   41.0380   22.4200   35.4560 N   0  0  0  0  0  0  0  0  0  0  0  0
   42.1310   21.7870   35.0010 C   0  0  0  0  0  0  0  0  0  0  0  0
   42.8530   20.9980   35.7730 N   0  0  0  0  0  0  0  0  0  0  0  0
   43.0800   20.1680   37.7080 H   0  0  0  0  0  0  0  0  0  0  0  0
   41.1360   21.2640   38.6120 H   0  0  0  0  0  0  0  0  0  0  0  0
   39.4470   22.9330   37.3080 C   0  0  0  0  0  0  0  0  0  0  0  0
   38.5730   23.7210   36.5680 C   0  0  0  0  0  0  0  0  0  0  0  0
   37.6240   24.1390   37.4560 N   0  0  0  0  0  0  0  0  0  0  0  0
   37.9510   23.6060   38.6490 C   0  0  0  0  0  0  0  0  0  0  0  0
   39.0340   22.8780   38.6080 N   0  0  0  0  0  0  0  0  0  0  0  0
   38.6140   23.9670   35.5150 H   0  0  0  0  0  0  0  0  0  0  0  0
   37.3110   23.8190   39.5060 H   0  0  0  0  0  0  0  0  0  0  0  0
   39.4970   22.3560   39.3980 H   0  0  0  0  0  0  0  0  0  0  0  0
   43.4310   24.2190   32.9570 C   0  0  0  0  0  0  0  0  0  0  0  0
   43.7750   24.4360   31.9510 H   0  0  0  0  0  0  0  0  0  0  0  0
   44.1160   24.7160   33.8620 O   0  0  0  0  0  0  0  0  0  0  0  0
  1  7  1  6  0  0  0
  1 21  1  0  0  0  0
  2  8  1  0  0  0  0
  2  9  1  0  0  0  0
  2  1  1  0  0  0  0
  3  2  1  0  0  0  0
  4  3  1  0  0  0  0
  4  5  1  0  0  0  0
  5 15  1  0  0  0  0
  5  6  1  0  0  0  0
  6  1  1  0  0  0  0
  6 16  1  1  0  0  0
 10  3  1  0  0  0  0
 11  3  1  0  0  0  0
 12  4  1  0  0  0  0
 13  4  1  0  0  0  0
 14  5  1  0  0  0  0
 17 18  1  0  0  0  0
 17 23  1  0  0  0  0
 18 24  1  0  0  0  0
 19 25  1  0  0  0  0
 19 18  2  0  0  0  0
 20 19  1  0  0  0  0
 21 20  2  0  0  0  0
 21 22  1  0  0  0  0
 22 17  2  0  0  0  0
 25 29  1  0  0  0  0
 26 25  2  0  0  0  0
 26 27  1  0  0  0  0
 27 28  2  0  0  0  0
 28 31  1  0  0  0  0
 29 28  1  0  0  0  0
 29 32  1  0  0  0  0
 30 26  1  0  0  0  0
 33  6  1  0  0  0  0
 33 35  2  0  0  0  0
 34 33  1  0  0  0  0
M  END
>  <minimizedAffinity>
-3.74953485

>  <minimizedRMSD>
0.819214284

$$$$
