
 OpenBabel03262519593D

 29 31  0  0  1  0  0  0  0  0999 V2000
   38.9050   23.3820   33.6930 C   0  0  0  0  0  0  0  0  0  0  0  0
   37.8500   22.8750   34.4510 C   0  0  0  0  0  0  0  0  0  0  0  0
   37.6590   21.6240   33.9350 N   0  0  0  0  0  0  0  0  0  0  0  0
   38.5460   21.4460   32.9550 C   0  0  0  0  0  0  0  0  0  0  0  0
   39.3210   22.5120   32.7900 N   0  0  0  0  0  0  0  0  0  0  0  0
   37.3080   23.3710   35.2670 H   0  0  0  0  0  0  0  0  0  0  0  0
   38.5580   20.4940   32.4060 H   0  0  0  0  0  0  0  0  0  0  0  0
   39.4740   24.7040   33.8650 C   0  0  0  0  0  0  0  0  0  0  0  0
   38.8870   25.8180   33.2280 C   0  0  0  0  0  0  0  0  0  0  0  0
   39.4850   27.0790   33.4410 C   0  0  0  0  0  0  0  0  0  0  0  0
   40.5830   27.1440   34.2420 N   0  0  0  0  0  0  0  0  0  0  0  0
   41.1160   26.0460   34.8360 C   0  0  0  0  0  0  0  0  0  0  0  0
   40.5770   24.8320   34.6580 N   0  0  0  0  0  0  0  0  0  0  0  0
   38.0350   25.6050   32.6360 H   0  0  0  0  0  0  0  0  0  0  0  0
   39.0240   27.9020   32.9520 H   0  0  0  0  0  0  0  0  0  0  0  0
   41.9850   26.2590   35.4410 H   0  0  0  0  0  0  0  0  0  0  0  0
   40.3440   22.5790   31.8120 C   0  0  1  0  0  0  0  0  0  0  0  0
   40.3540   21.9220   30.5330 C   0  0  0  0  0  0  0  0  0  0  0  0
   40.0260   23.4450   30.6350 C   0  0  2  0  0  0  0  0  0  0  0  0
   41.3600   22.7420   32.2860 H   0  0  0  0  0  0  0  0  0  0  0  0
   41.3280   21.6720   30.0550 H   0  0  0  0  0  0  0  0  0  0  0  0
   39.5310   21.3290   30.1240 H   0  0  0  0  0  0  0  0  0  0  0  0
   41.1470   24.2760   30.0560 C   0  0  0  0  0  0  0  0  0  0  0  0
   40.7410   25.5830   29.8940 F   0  0  0  0  0  0  0  0  0  0  0  0
   42.1920   24.3770   31.0750 F   0  0  0  0  0  0  0  0  0  0  0  0
   41.7380   23.7410   28.9790 F   0  0  0  0  0  0  0  0  0  0  0  0
   38.6870   23.6560   29.9910 C   0  0  0  0  0  0  0  0  0  0  0  0
   37.6800   23.6960   30.3550 H   0  0  0  0  0  0  0  0  0  0  0  0
   38.9180   23.8020   28.7800 O   0  0  0  0  0  0  0  0  0  0  0  0
  1  8  1  0  0  0  0
  1  2  2  0  0  0  0
  2  6  1  0  0  0  0
  3  2  1  0  0  0  0
  4  3  2  0  0  0  0
  5  4  1  0  0  0  0
  5  1  1  0  0  0  0
  7  4  1  0  0  0  0
  8 13  1  0  0  0  0
  9 10  1  0  0  0  0
  9  8  2  0  0  0  0
 10 11  2  0  0  0  0
 11 12  1  0  0  0  0
 12 16  1  0  0  0  0
 13 12  2  0  0  0  0
 14  9  1  0  0  0  0
 15 10  1  0  0  0  0
 17 20  1  1  0  0  0
 17  5  1  0  0  0  0
 18 19  1  0  0  0  0
 18 17  1  0  0  0  0
 19 27  1  6  0  0  0
 19 17  1  0  0  0  0
 21 18  1  0  0  0  0
 22 18  1  0  0  0  0
 23 19  1  0  0  0  0
 23 25  1  0  0  0  0
 24 23  1  0  0  0  0
 26 23  1  0  0  0  0
 27 28  1  0  0  0  0
 29 27  2  0  0  0  0
M  END
>  <minimizedAffinity>
-2.47018909

>  <minimizedRMSD>
5.91568851

$$$$
