
 OpenBabel03262519463D

 35 37  0  0  1  0  0  0  0  0999 V2000
   38.5490   25.8350   34.0620 C   0  0  0  0  0  0  0  0  0  0  0  0
   39.0710   26.8070   33.8510 H   0  0  0  0  0  0  0  0  0  0  0  0
   39.3580   25.0600   33.9830 H   0  0  0  0  0  0  0  0  0  0  0  0
   37.5570   25.5850   33.0870 N   0  0  0  0  0  0  0  0  0  0  0  0
   37.1070   24.4970   32.4620 C   0  0  0  0  0  0  0  0  0  0  0  0
   36.0840   24.7460   31.5710 C   0  0  0  0  0  0  0  0  0  0  0  0
   35.8970   26.0640   31.6560 N   0  0  0  0  0  0  0  0  0  0  0  0
   36.7800   26.5730   32.5650 C   0  0  0  0  0  0  0  0  0  0  0  0
   37.5330   23.5010   32.6590 H   0  0  0  0  0  0  0  0  0  0  0  0
   35.6070   23.9650   30.9810 H   0  0  0  0  0  0  0  0  0  0  0  0
   36.8030   28.0560   32.8330 C   0  0  1  0  0  0  0  0  0  0  0  0
   35.7190   28.8690   32.2410 C   0  0  0  0  0  0  0  0  0  0  0  0
   35.6760   28.5790   33.7230 C   0  0  2  0  0  0  0  0  0  0  0  0
   37.7750   28.5160   33.0600 H   0  0  0  0  0  0  0  0  0  0  0  0
   35.9230   29.8740   31.8590 H   0  0  0  0  0  0  0  0  0  0  0  0
   34.9350   28.2900   31.6690 H   0  0  0  0  0  0  0  0  0  0  0  0
   34.9460   27.8760   34.1210 H   0  0  0  0  0  0  0  0  0  0  0  0
   35.9530   29.8000   34.5300 C   0  0  0  0  0  0  0  0  0  0  0  0
   36.9590   30.1690   34.7000 H   0  0  0  0  0  0  0  0  0  0  0  0
   35.2220   30.5950   35.1300 O   0  0  0  0  0  0  0  0  0  0  0  0
   38.0330   25.8300   35.4520 C   0  0  1  0  0  0  0  0  0  0  0  0
   36.9280   25.7070   35.4580 H   0  0  0  0  0  0  0  0  0  0  0  0
   38.6490   23.3980   38.2830 C   0  0  0  0  0  0  0  0  0  0  0  0
   38.0440   24.4530   37.5780 C   0  0  0  0  0  0  0  0  0  0  0  0
   38.6060   24.7520   36.2840 C   0  0  0  0  0  0  0  0  0  0  0  0
   39.6770   24.0110   35.8090 N   0  0  0  0  0  0  0  0  0  0  0  0
   40.2050   23.0230   36.5270 C   0  0  0  0  0  0  0  0  0  0  0  0
   39.6880   22.7110   37.7760 N   0  0  0  0  0  0  0  0  0  0  0  0
   38.2200   23.1930   39.2370 H   0  0  0  0  0  0  0  0  0  0  0  0
   37.2210   25.0370   37.9200 H   0  0  0  0  0  0  0  0  0  0  0  0
   41.0250   22.4140   36.2290 H   0  0  0  0  0  0  0  0  0  0  0  0
   38.2760   27.1840   36.1120 C   0  0  0  0  0  0  0  0  0  0  0  0
   37.3700   27.8220   36.1040 H   0  0  0  0  0  0  0  0  0  0  0  0
   38.4700   26.9750   37.1830 H   0  0  0  0  0  0  0  0  0  0  0  0
   39.1770   27.6940   35.7180 H   0  0  0  0  0  0  0  0  0  0  0  0
  1 21  1  0  0  0  0
  2  1  1  0  0  0  0
  3  1  1  0  0  0  0
  4  1  1  0  0  0  0
  5  9  1  0  0  0  0
  5  4  1  0  0  0  0
  6  7  1  0  0  0  0
  6  5  2  0  0  0  0
  7  8  2  0  0  0  0
  8 11  1  0  0  0  0
  8  4  1  0  0  0  0
 10  6  1  0  0  0  0
 11 14  1  1  0  0  0
 11 13  1  0  0  0  0
 12 11  1  0  0  0  0
 12 13  1  0  0  0  0
 13 17  1  1  0  0  0
 13 18  1  0  0  0  0
 15 12  1  0  0  0  0
 16 12  1  0  0  0  0
 18 19  1  0  0  0  0
 18 20  2  0  0  0  0
 21 22  1  6  0  0  0
 21 32  1  0  0  0  0
 21 25  1  0  0  0  0
 23 29  1  0  0  0  0
 24 30  1  0  0  0  0
 24 23  2  0  0  0  0
 25 24  1  0  0  0  0
 26 25  2  0  0  0  0
 26 27  1  0  0  0  0
 27 28  2  0  0  0  0
 28 23  1  0  0  0  0
 31 27  1  0  0  0  0
 32 34  1  0  0  0  0
 33 32  1  0  0  0  0
 35 32  1  0  0  0  0
M  END
>  <minimizedAffinity>
-4.67144394

>  <minimizedRMSD>
0.502690971

$$$$
