
 OpenBabel03262515113D

 26 28  0  0  0  0  0  0  0  0999 V2000
   38.0730   23.1030   33.7790 C   0  0  0  0  0  0  0  0  0  0  0  0
   38.2990   24.1310   32.9380 N   0  0  0  0  0  0  0  0  0  0  0  0
   37.6410   24.3600   31.8060 C   0  0  0  0  0  0  0  0  0  0  0  0
   36.6540   23.5400   31.4010 N   0  0  0  0  0  0  0  0  0  0  0  0
   36.3470   22.4830   32.1700 C   0  0  0  0  0  0  0  0  0  0  0  0
   35.3280   21.6570   31.7320 C   0  0  0  0  0  0  0  0  0  0  0  0
   34.9740   20.5630   32.4760 C   0  0  0  0  0  0  0  0  0  0  0  0
   35.6660   20.3320   33.6550 C   0  0  0  0  0  0  0  0  0  0  0  0
   36.6690   21.1900   34.0360 C   0  0  0  0  0  0  0  0  0  0  0  0
   37.0540   22.2810   33.3370 C   0  0  0  0  0  0  0  0  0  0  0  0
   37.9150   25.2280   31.2040 H   0  0  0  0  0  0  0  0  0  0  0  0
   34.8180   21.8830   30.8010 H   0  0  0  0  0  0  0  0  0  0  0  0
   34.1780   19.8970   32.1550 H   0  0  0  0  0  0  0  0  0  0  0  0
   35.3940   19.4690   34.2530 H   0  0  0  0  0  0  0  0  0  0  0  0
   37.1830   20.9540   34.9830 H   0  0  0  0  0  0  0  0  0  0  0  0
   40.4260   22.1490   36.5470 C   0  0  0  0  0  0  0  0  0  0  0  0
   39.7450   22.6680   37.6350 C   0  0  0  0  0  0  0  0  0  0  0  0
   38.5330   23.3060   37.3540 C   0  0  0  0  0  0  0  0  0  0  0  0
   38.1400   23.3600   36.0700 N   0  0  0  0  0  0  0  0  0  0  0  0
   38.8020   22.8570   35.0280 C   0  0  0  0  0  0  0  0  0  0  0  0
   39.9330   22.2680   35.3390 N   0  0  0  0  0  0  0  0  0  0  0  0
   41.3650   21.6410   36.6610 H   0  0  0  0  0  0  0  0  0  0  0  0
   40.1250   22.5860   38.6420 H   0  0  0  0  0  0  0  0  0  0  0  0
   37.7360   23.8920   38.4540 C   0  0  0  0  0  0  0  0  0  0  0  0
   36.8780   23.3190   38.7740 H   0  0  0  0  0  0  0  0  0  0  0  0
   38.1040   24.9940   38.9290 O   0  0  0  0  0  0  0  0  0  0  0  0
  1 20  1  0  0  0  0
  2  1  2  0  0  0  0
  3  2  1  0  0  0  0
  4  3  2  0  0  0  0
  4  5  1  0  0  0  0
  5 10  1  0  0  0  0
  6  5  2  0  0  0  0
  6  7  1  0  0  0  0
  7  8  2  0  0  0  0
  8  9  1  0  0  0  0
  8 14  1  0  0  0  0
  9 15  1  0  0  0  0
 10  1  1  0  0  0  0
 10  9  2  0  0  0  0
 11  3  1  0  0  0  0
 12  6  1  0  0  0  0
 13  7  1  0  0  0  0
 16 22  1  0  0  0  0
 16 17  1  0  0  0  0
 17 23  1  0  0  0  0
 18 17  2  0  0  0  0
 18 24  1  0  0  0  0
 19 18  1  0  0  0  0
 20 21  1  0  0  0  0
 20 19  2  0  0  0  0
 21 16  2  0  0  0  0
 24 25  1  0  0  0  0
 24 26  2  0  0  0  0
M  END
>  <minimizedAffinity>
-5.02918625

>  <minimizedRMSD>
0.939903378

$$$$
