
 OpenBabel03262519583D

 29 31  0  0  1  0  0  0  0  0999 V2000
   37.9140   25.0310   32.4880 C   0  0  0  0  0  0  0  0  0  0  0  0
   37.8670   23.6370   32.4830 C   0  0  0  0  0  0  0  0  0  0  0  0
   37.4850   23.3360   31.2070 N   0  0  0  0  0  0  0  0  0  0  0  0
   37.3280   24.4840   30.5450 C   0  0  0  0  0  0  0  0  0  0  0  0
   37.5870   25.5370   31.3120 N   0  0  0  0  0  0  0  0  0  0  0  0
   38.0870   22.9540   33.3140 H   0  0  0  0  0  0  0  0  0  0  0  0
   37.0190   24.4600   29.4900 H   0  0  0  0  0  0  0  0  0  0  0  0
   38.2710   25.8330   33.6420 C   0  0  0  0  0  0  0  0  0  0  0  0
   37.2640   26.4050   34.4470 C   0  0  0  0  0  0  0  0  0  0  0  0
   37.6770   27.1700   35.5610 C   0  0  0  0  0  0  0  0  0  0  0  0
   39.0110   27.3080   35.7880 N   0  0  0  0  0  0  0  0  0  0  0  0
   39.9480   26.7390   34.9870 C   0  0  0  0  0  0  0  0  0  0  0  0
   39.5950   26.0070   33.9210 N   0  0  0  0  0  0  0  0  0  0  0  0
   36.2690   26.2060   34.1400 H   0  0  0  0  0  0  0  0  0  0  0  0
   36.9000   27.5890   36.1530 H   0  0  0  0  0  0  0  0  0  0  0  0
   40.9630   26.9390   35.2970 H   0  0  0  0  0  0  0  0  0  0  0  0
   37.4930   26.8720   30.8490 C   0  0  1  0  0  0  0  0  0  0  0  0
   38.0950   28.0320   31.4470 C   0  0  0  0  0  0  0  0  0  0  0  0
   38.7230   27.3860   30.1720 C   0  0  2  0  0  0  0  0  0  0  0  0
   36.5160   27.0540   30.3050 H   0  0  0  0  0  0  0  0  0  0  0  0
   37.6250   29.0310   31.2970 H   0  0  0  0  0  0  0  0  0  0  0  0
   38.7640   28.0190   32.3130 H   0  0  0  0  0  0  0  0  0  0  0  0
   38.5350   28.2800   28.9690 C   0  0  0  0  0  0  0  0  0  0  0  0
   38.8700   27.6070   27.8140 F   0  0  0  0  0  0  0  0  0  0  0  0
   37.1000   28.5140   28.8120 F   0  0  0  0  0  0  0  0  0  0  0  0
   39.0920   29.4940   29.0840 F   0  0  0  0  0  0  0  0  0  0  0  0
   40.1500   27.0560   30.4960 C   0  0  0  0  0  0  0  0  0  0  0  0
   40.8820   27.4730   31.1580 H   0  0  0  0  0  0  0  0  0  0  0  0
   40.4370   26.0800   29.7870 O   0  0  0  0  0  0  0  0  0  0  0  0
  1  8  1  0  0  0  0
  2  1  2  0  0  0  0
  2  6  1  0  0  0  0
  3  2  1  0  0  0  0
  4  3  2  0  0  0  0
  4  5  1  0  0  0  0
  5  1  1  0  0  0  0
  7  4  1  0  0  0  0
  8 13  2  0  0  0  0
  8  9  1  0  0  0  0
  9 10  2  0  0  0  0
 10 11  1  0  0  0  0
 10 15  1  0  0  0  0
 12 16  1  0  0  0  0
 12 11  2  0  0  0  0
 13 12  1  0  0  0  0
 14  9  1  0  0  0  0
 17 20  1  6  0  0  0
 17  5  1  0  0  0  0
 17 18  1  0  0  0  0
 18 22  1  0  0  0  0
 19 27  1  1  0  0  0
 19 17  1  0  0  0  0
 19 18  1  0  0  0  0
 21 18  1  0  0  0  0
 23 26  1  0  0  0  0
 23 19  1  0  0  0  0
 24 23  1  0  0  0  0
 25 23  1  0  0  0  0
 27 28  1  0  0  0  0
 29 27  2  0  0  0  0
M  END
>  <minimizedAffinity>
-3.69204235

>  <minimizedRMSD>
6.70877314

$$$$
