
     RDKit          3D

 47 51  0  0  1  0  0  0  0  0999 V2000
   44.4780   35.7520   44.5890 C   0  0  0  0  0  0  0  0  0  0  0  0
   44.6370   35.2240   43.3050 C   0  0  0  0  0  0  0  0  0  0  0  0
   45.2090   33.9720   43.1660 C   0  0  0  0  0  0  0  0  0  0  0  0
   45.5850   33.3190   44.2760 N   0  0  0  0  0  0  0  0  0  0  0  0
   45.4200   33.8580   45.5220 C   0  0  0  0  0  0  0  0  0  0  0  0
   44.8730   35.0600   45.6910 N   0  0  0  0  0  0  0  0  0  0  0  0
   45.8670   33.0570   46.6610 C   0  0  0  0  0  0  0  0  0  0  0  0
   45.0820   32.9430   47.7830 C   0  0  0  0  0  0  0  0  0  0  0  0
   45.7220   32.1420   48.7040 C   0  0  0  0  0  0  0  0  0  0  0  0
   46.8760   31.7870   48.1260 N   0  0  0  0  0  0  0  0  0  0  0  0
   46.9740   32.3240   46.9120 N   0  0  0  0  0  0  0  0  0  0  0  0
   49.3190   29.2900   48.9860 N   0  0  0  0  0  0  0  0  0  0  0  0
   48.1640   29.6280   48.4200 N   0  0  0  0  0  0  0  0  0  0  0  0
   47.9640   30.9730   48.5660 C   0  0  0  0  0  0  0  0  0  0  0  0
   49.0390   31.4750   49.2490 C   0  0  0  0  0  0  0  0  0  0  0  0
   49.8670   30.4000   49.4970 C   0  0  0  0  0  0  0  0  0  0  0  0
   45.4080   33.3480   41.8300 C   0  0  0  0  0  0  0  0  0  0  0  0
   46.0320   34.3830   40.9320 C   0  0  0  0  0  0  0  0  0  0  0  0
   47.4400   34.1430   40.5400 C   0  0  1  0  0  0  0  0  0  0  0  0
   48.4520   35.1880   41.0150 C   0  0  0  0  0  0  0  0  0  0  0  0
   48.4780   33.7550   41.5090 C   0  0  2  0  0  0  0  0  0  0  0  0
   49.6560   33.0300   41.1550 N   0  0  0  0  0  0  0  0  0  0  0  0
   49.4830   32.2200   40.0700 C   0  0  0  0  0  0  0  0  0  0  0  0
   50.5240   31.4290   39.5700 C   0  0  0  0  0  0  0  0  0  0  0  0
   51.7330   31.5070   40.2260 C   0  0  0  0  0  0  0  0  0  0  0  0
   52.7200   30.8260   39.8370 O   0  0  0  0  0  0  0  0  0  0  0  0
   51.8860   32.3110   41.2940 N   0  0  0  0  0  0  0  0  0  0  0  0
   50.8550   33.0660   41.7530 C   0  0  0  0  0  0  0  0  0  0  0  0
   50.9380   33.8340   42.7450 O   0  0  0  0  0  0  0  0  0  0  0  0
   44.0245   36.7467   44.7107 H   0  0  0  0  0  0  0  0  0  0  0  0
   44.3134   35.7933   42.4212 H   0  0  0  0  0  0  0  0  0  0  0  0
   44.0989   33.4159   47.9238 H   0  0  0  0  0  0  0  0  0  0  0  0
   45.3609   31.8551   49.7027 H   0  0  0  0  0  0  0  0  0  0  0  0
   49.7209   28.3424   49.0245 H   0  0  0  0  0  0  0  0  0  0  0  0
   49.2080   32.5221   49.5406 H   0  0  0  0  0  0  0  0  0  0  0  0
   50.8275   30.4471   50.0311 H   0  0  0  0  0  0  0  0  0  0  0  0
   46.0744   32.4773   41.9183 H   0  0  0  0  0  0  0  0  0  0  0  0
   44.4476   33.0065   41.4164 H   0  0  0  0  0  0  0  0  0  0  0  0
   45.4314   34.4355   40.0119 H   0  0  0  0  0  0  0  0  0  0  0  0
   46.0434   35.3139   41.5180 H   0  0  0  0  0  0  0  0  0  0  0  0
   47.1191   33.6944   39.5883 H   0  0  0  0  0  0  0  0  0  0  0  0
   49.2333   35.5554   40.3334 H   0  0  0  0  0  0  0  0  0  0  0  0
   48.4011   36.1837   41.4798 H   0  0  0  0  0  0  0  0  0  0  0  0
   48.3985   33.2124   42.4626 H   0  0  0  0  0  0  0  0  0  0  0  0
   48.5007   32.1881   39.5761 H   0  0  0  0  0  0  0  0  0  0  0  0
   50.3836   30.7766   38.6955 H   0  0  0  0  0  0  0  0  0  0  0  0
   52.7983   32.3544   41.7702 H   0  0  0  0  0  0  0  0  0  0  0  0
  1  6  2  0
  2  1  1  0
  3  2  2  0
  3  4  1  0
  4  5  2  0
  5  6  1  0
  5  7  1  0
  7 11  2  0
  7  8  1  0
  8  9  2  0
 10 14  1  0
 10  9  1  0
 11 10  1  0
 12 16  1  0
 13 14  2  0
 13 12  1  0
 14 15  1  0
 15 16  2  0
 17  3  1  0
 18 17  1  0
 19 18  1  0
 19 20  1  0
 19 21  1  0
 20 21  1  0
 22 21  1  0
 22 28  1  0
 23 22  1  0
 24 23  2  0
 24 25  1  0
 25 27  1  0
 26 25  2  0
 27 28  1  0
 28 29  2  0
  1 30  1  0
  2 31  1  0
  8 32  1  0
  9 33  1  0
 12 34  1  0
 15 35  1  0
 16 36  1  0
 17 37  1  0
 17 38  1  0
 18 39  1  0
 18 40  1  0
 19 41  1  6
 20 42  1  0
 20 43  1  0
 21 44  1  1
 23 45  1  0
 24 46  1  0
 27 47  1  0
M  END
>  <Score>  (1) 
-7.2653

$$$$
