
     RDKit          3D

 42 46  0  0  1  0  0  0  0  0999 V2000
   45.7600   33.7950   45.4670 C   0  0  0  0  0  0  0  0  0  0  0  0
   46.5480   33.8220   44.3190 C   0  0  0  0  0  0  0  0  0  0  0  0
   46.3310   34.8150   43.3700 C   0  0  0  0  0  0  0  0  0  0  0  0
   45.3580   35.7250   43.5930 N   0  0  0  0  0  0  0  0  0  0  0  0
   44.5990   35.6870   44.7130 C   0  0  0  0  0  0  0  0  0  0  0  0
   44.8070   34.7250   45.6370 N   0  0  0  0  0  0  0  0  0  0  0  0
   47.1670   34.8260   42.1770 C   0  0  0  0  0  0  0  0  0  0  0  0
   48.4210   35.4330   42.0500 C   0  0  0  0  0  0  0  0  0  0  0  0
   48.8960   35.2410   40.8160 N   0  0  0  0  0  0  0  0  0  0  0  0
   47.9630   34.5170   40.1430 C   0  0  0  0  0  0  0  0  0  0  0  0
   47.9570   34.0490   38.8400 C   0  0  0  0  0  0  0  0  0  0  0  0
   46.8860   33.3290   38.3890 C   0  0  0  0  0  0  0  0  0  0  0  0
   45.7730   33.0320   39.1820 C   0  0  0  0  0  0  0  0  0  0  0  0
   45.8430   33.5270   40.4650 C   0  0  0  0  0  0  0  0  0  0  0  0
   46.8710   34.2430   40.9670 C   0  0  0  0  0  0  0  0  0  0  0  0
   45.9220   32.8370   46.4510 O   0  0  0  0  0  0  0  0  0  0  0  0
   45.1580   32.7360   47.6120 C   0  0  1  0  0  0  0  0  0  0  0  0
   44.8980   31.3620   48.1170 C   0  0  0  0  0  0  0  0  0  0  0  0
   45.9030   32.2850   48.8290 C   0  0  1  0  0  0  0  0  0  0  0  0
   47.3420   31.8900   48.6530 C   0  0  0  0  0  0  0  0  0  0  0  0
   48.1530   32.7330   48.1850 O   0  0  0  0  0  0  0  0  0  0  0  0
   47.9200   30.6940   48.9300 O   0  0  0  0  0  0  0  0  0  0  0  0
   49.0370   30.6520   49.7730 C   0  0  0  0  0  0  0  0  0  0  0  0
   49.9710   31.6140   49.9880 C   0  0  0  0  0  0  0  0  0  0  0  0
   50.8420   31.0810   50.8910 N   0  0  0  0  0  0  0  0  0  0  0  0
   50.4140   29.8260   51.1920 C   0  0  0  0  0  0  0  0  0  0  0  0
   49.2860   29.5290   50.5090 N   0  0  0  0  0  0  0  0  0  0  0  0
   47.3328   33.0668   44.1648 H   0  0  0  0  0  0  0  0  0  0  0  0
   43.8127   36.4400   44.8703 H   0  0  0  0  0  0  0  0  0  0  0  0
   48.9389   35.9861   42.8474 H   0  0  0  0  0  0  0  0  0  0  0  0
   49.7964   35.5771   40.4457 H   0  0  0  0  0  0  0  0  0  0  0  0
   48.8072   34.2549   38.1730 H   0  0  0  0  0  0  0  0  0  0  0  0
   46.9004   32.9653   37.3510 H   0  0  0  0  0  0  0  0  0  0  0  0
   44.9145   32.4522   38.8122 H   0  0  0  0  0  0  0  0  0  0  0  0
   44.9938   33.3227   41.1337 H   0  0  0  0  0  0  0  0  0  0  0  0
   44.5105   33.5929   47.3744 H   0  0  0  0  0  0  0  0  0  0  0  0
   43.9359   31.1217   48.5931 H   0  0  0  0  0  0  0  0  0  0  0  0
   44.9342   30.3505   47.6863 H   0  0  0  0  0  0  0  0  0  0  0  0
   46.0433   32.6927   49.8410 H   0  0  0  0  0  0  0  0  0  0  0  0
   50.0154   32.6131   49.5299 H   0  0  0  0  0  0  0  0  0  0  0  0
   50.9168   29.1456   51.8950 H   0  0  0  0  0  0  0  0  0  0  0  0
   48.7398   28.6562   50.5372 H   0  0  0  0  0  0  0  0  0  0  0  0
  1  6  1  0
  1 16  1  0
  2  1  2  0
  3  4  2  0
  3  2  1  0
  4  5  1  0
  5  6  2  0
  7  3  1  0
  8  7  2  0
  9  8  1  0
 10  9  1  0
 10 15  2  0
 11 10  1  0
 12 11  2  0
 12 13  1  0
 13 14  2  0
 14 15  1  0
 15  7  1  0
 16 17  1  0
 17 18  1  0
 17 19  1  0
 18 19  1  0
 20 19  1  0
 20 22  1  0
 21 20  2  0
 22 23  1  0
 23 24  2  0
 23 27  1  0
 24 25  1  0
 25 26  2  0
 27 26  1  0
  2 28  1  0
  5 29  1  0
  8 30  1  0
  9 31  1  0
 11 32  1  0
 12 33  1  0
 13 34  1  0
 14 35  1  0
 17 36  1  1
 18 37  1  0
 18 38  1  0
 19 39  1  1
 24 40  1  0
 26 41  1  0
 27 42  1  0
M  END
>  <Score>  (1) 
-7.1141

$$$$
