
     RDKit          3D

 30 31  0  0  0  0  0  0  0  0999 V2000
   45.6660   35.3100   42.6920 C   0  0  0  0  0  0  0  0  0  0  0  0
   46.8430   34.9810   41.9900 C   0  0  0  0  0  0  0  0  0  0  0  0
   47.7450   34.1180   42.5940 C   0  0  0  0  0  0  0  0  0  0  0  0
   47.4360   33.6470   43.8170 N   0  0  0  0  0  0  0  0  0  0  0  0
   46.3030   33.9620   44.4940 C   0  0  0  0  0  0  0  0  0  0  0  0
   45.4130   34.8030   43.9190 N   0  0  0  0  0  0  0  0  0  0  0  0
   46.0980   33.3940   45.7830 N   0  0  0  0  0  0  0  0  0  0  0  0
   46.8740   32.3380   46.1670 C   0  0  0  0  0  0  0  0  0  0  0  0
   46.5670   31.8900   47.4360 C   0  0  0  0  0  0  0  0  0  0  0  0
   47.3790   30.7280   47.9350 C   0  0  0  0  0  0  0  0  0  0  0  0
   45.5930   32.4250   48.2480 C   0  0  0  0  0  0  0  0  0  0  0  0
   45.4270   31.9090   49.3830 O   0  0  0  0  0  0  0  0  0  0  0  0
   44.8720   33.4710   47.7850 N   0  0  0  0  0  0  0  0  0  0  0  0
   45.1480   33.9300   46.5500 C   0  0  0  0  0  0  0  0  0  0  0  0
   44.4660   34.9030   46.1400 O   0  0  0  0  0  0  0  0  0  0  0  0
   48.9700   33.6950   42.0100 N   0  0  0  0  0  0  0  0  0  0  0  0
   50.2330   34.0960   42.5060 C   0  0  0  0  0  0  0  0  0  0  0  0
   50.3010   35.2820   43.0160 N   0  0  0  0  0  0  0  0  0  0  0  0
   51.3140   33.1730   42.4030 N   0  0  0  0  0  0  0  0  0  0  0  0
   51.2290   35.5640   43.3830 H   0  0  0  0  0  0  0  0  0  0  0  0
   44.9379   35.9939   42.2315 H   0  0  0  0  0  0  0  0  0  0  0  0
   47.0406   35.3971   40.9911 H   0  0  0  0  0  0  0  0  0  0  0  0
   47.6570   31.8936   45.5350 H   0  0  0  0  0  0  0  0  0  0  0  0
   47.3799   30.7268   49.0350 H   0  0  0  0  0  0  0  0  0  0  0  0
   46.9395   29.7889   47.5676 H   0  0  0  0  0  0  0  0  0  0  0  0
   48.4119   30.8178   47.5676 H   0  0  0  0  0  0  0  0  0  0  0  0
   44.1344   33.9032   48.3595 H   0  0  0  0  0  0  0  0  0  0  0  0
   48.9368   33.0705   41.1916 H   0  0  0  0  0  0  0  0  0  0  0  0
   52.2472   33.4317   42.7538 H   0  0  0  0  0  0  0  0  0  0  0  0
   51.1620   32.2473   41.9777 H   0  0  0  0  0  0  0  0  0  0  0  0
  1  6  2  0
  2  3  2  0
  2  1  1  0
  3  4  1  0
  4  5  2  0
  5  7  1  0
  6  5  1  0
  7  8  1  0
  7 14  1  0
  8  9  2  0
  9 10  1  0
  9 11  1  0
 11 12  2  0
 13 11  1  0
 14 13  1  0
 15 14  2  0
 16 17  1  0
 16  3  1  0
 17 18  2  0
 18 20  1  0
 19 17  1  0
  1 21  1  0
  2 22  1  0
  8 23  1  0
 10 24  1  0
 10 25  1  0
 10 26  1  0
 13 27  1  0
 16 28  1  0
 19 29  1  0
 19 30  1  0
M  END
>  <Score>  (1) 
-7.67184

$$$$
