
     RDKit          3D

 37 40  0  0  0  0  0  0  0  0999 V2000
   47.0070   34.8380   42.0260 C   0  0  0  0  0  0  0  0  0  0  0  0
   48.2150   35.4860   42.0090 C   0  0  0  0  0  0  0  0  0  0  0  0
   48.9270   35.4210   40.8520 C   0  0  0  0  0  0  0  0  0  0  0  0
   48.4510   34.7490   39.7930 N   0  0  0  0  0  0  0  0  0  0  0  0
   47.2470   34.1120   39.8330 C   0  0  0  0  0  0  0  0  0  0  0  0
   46.5370   34.1740   40.9780 N   0  0  0  0  0  0  0  0  0  0  0  0
   46.8330   33.4280   38.6590 N   0  0  0  0  0  0  0  0  0  0  0  0
   45.9330   32.4220   38.9130 C   0  0  0  0  0  0  0  0  0  0  0  0
   45.4350   31.6550   37.8490 C   0  0  0  0  0  0  0  0  0  0  0  0
   45.9100   31.9910   36.6040 C   0  0  0  0  0  0  0  0  0  0  0  0
   45.4360   31.2710   35.6630 O   0  0  0  0  0  0  0  0  0  0  0  0
   46.7890   32.9740   36.3640 N   0  0  0  0  0  0  0  0  0  0  0  0
   47.2440   33.6900   37.4120 C   0  0  0  0  0  0  0  0  0  0  0  0
   48.0590   34.6100   37.2460 O   0  0  0  0  0  0  0  0  0  0  0  0
   44.4710   35.8650   44.5750 C   0  0  0  0  0  0  0  0  0  0  0  0
   45.2210   35.8640   43.3660 C   0  0  0  0  0  0  0  0  0  0  0  0
   46.2180   34.8820   43.2380 C   0  0  0  0  0  0  0  0  0  0  0  0
   46.3970   34.0180   44.2550 N   0  0  0  0  0  0  0  0  0  0  0  0
   45.6610   34.0520   45.3930 C   0  0  0  0  0  0  0  0  0  0  0  0
   44.6940   34.9770   45.5560 N   0  0  0  0  0  0  0  0  0  0  0  0
   45.9530   33.0590   46.4200 C   0  0  0  0  0  0  0  0  0  0  0  0
   45.1990   32.9840   47.5740 C   0  0  0  0  0  0  0  0  0  0  0  0
   45.5550   32.0040   48.4950 C   0  0  0  0  0  0  0  0  0  0  0  0
   46.6160   31.1590   48.2430 C   0  0  0  0  0  0  0  0  0  0  0  0
   47.3510   31.2540   47.0860 C   0  0  0  0  0  0  0  0  0  0  0  0
   46.9760   32.2140   46.2210 N   0  0  0  0  0  0  0  0  0  0  0  0
   48.5899   36.0315   42.8876 H   0  0  0  0  0  0  0  0  0  0  0  0
   49.9027   35.9244   40.7839 H   0  0  0  0  0  0  0  0  0  0  0  0
   45.6050   32.2192   39.9432 H   0  0  0  0  0  0  0  0  0  0  0  0
   44.7128   30.8394   38.0011 H   0  0  0  0  0  0  0  0  0  0  0  0
   47.1080   33.1768   35.4058 H   0  0  0  0  0  0  0  0  0  0  0  0
   43.6817   36.6192   44.7101 H   0  0  0  0  0  0  0  0  0  0  0  0
   45.0294   36.5974   42.5689 H   0  0  0  0  0  0  0  0  0  0  0  0
   44.3563   33.6670   47.7567 H   0  0  0  0  0  0  0  0  0  0  0  0
   44.9863   31.9021   49.4311 H   0  0  0  0  0  0  0  0  0  0  0  0
   46.8797   30.3914   48.9855 H   0  0  0  0  0  0  0  0  0  0  0  0
   48.1979   30.5833   46.8787 H   0  0  0  0  0  0  0  0  0  0  0  0
  1 17  1  0
  2  1  2  0
  3  2  1  0
  4  5  1  0
  4  3  2  0
  5  6  2  0
  6  1  1  0
  7  8  1  0
  7  5  1  0
  9  8  2  0
 10  9  1  0
 11 10  2  0
 12 10  1  0
 12 13  1  0
 13  7  1  0
 14 13  2  0
 15 20  2  0
 16 15  1  0
 17 16  2  0
 17 18  1  0
 18 19  2  0
 19 20  1  0
 19 21  1  0
 21 22  2  0
 22 23  1  0
 24 23  2  0
 25 24  1  0
 26 21  1  0
 26 25  2  0
  2 27  1  0
  3 28  1  0
  8 29  1  0
  9 30  1  0
 12 31  1  0
 15 32  1  0
 16 33  1  0
 22 34  1  0
 23 35  1  0
 24 36  1  0
 25 37  1  0
M  END
>  <Score>  (1) 
-7.47016

$$$$
