
     RDKit          3D

 48 53  0  0  0  0  0  0  0  0999 V2000
   48.6870   30.6450   39.9940 C   0  0  0  0  0  0  0  0  0  0  0  0
   47.6620   29.9910   39.4460 C   0  0  0  0  0  0  0  0  0  0  0  0
   47.3740   30.0950   38.1140 C   0  0  0  0  0  0  0  0  0  0  0  0
   48.2090   30.9220   37.3510 C   0  0  0  0  0  0  0  0  0  0  0  0
   49.4230   31.5460   38.6240 S   0  0  0  0  0  0  0  0  0  0  0  0
   48.2690   31.3060   35.9790 C   0  0  0  0  0  0  0  0  0  0  0  0
   48.5430   32.6080   35.6440 C   0  0  0  0  0  0  0  0  0  0  0  0
   48.5290   32.6370   34.2360 C   0  0  0  0  0  0  0  0  0  0  0  0
   48.2420   31.3250   33.8390 C   0  0  0  0  0  0  0  0  0  0  0  0
   48.0940   30.5630   34.9250 O   0  0  0  0  0  0  0  0  0  0  0  0
   48.1280   30.8800   32.4730 N   0  0  0  0  0  0  0  0  0  0  0  0
   47.5700   29.7290   32.0880 C   0  0  0  0  0  0  0  0  0  0  0  0
   47.6560   29.6790   30.7270 N   0  0  0  0  0  0  0  0  0  0  0  0
   48.2670   30.8090   30.3430 C   0  0  0  0  0  0  0  0  0  0  0  0
   48.5910   31.2360   29.0610 C   0  0  0  0  0  0  0  0  0  0  0  0
   49.2090   32.4240   28.9260 N   0  0  0  0  0  0  0  0  0  0  0  0
   49.5210   33.2040   30.0020 C   0  0  0  0  0  0  0  0  0  0  0  0
   49.2020   32.7800   31.2380 N   0  0  0  0  0  0  0  0  0  0  0  0
   48.5870   31.6120   31.4430 C   0  0  0  0  0  0  0  0  0  0  0  0
   49.2450   30.7480   41.3240 C   0  0  0  0  0  0  0  0  0  0  0  0
   47.8670   33.6860   42.9080 N   0  0  0  0  0  0  0  0  0  0  0  0
   48.9660   34.5240   42.9600 C   0  0  0  0  0  0  0  0  0  0  0  0
   50.1910   34.1290   42.4690 C   0  0  0  0  0  0  0  0  0  0  0  0
   50.2980   32.8440   41.9090 C   0  0  0  0  0  0  0  0  0  0  0  0
   51.3930   32.4610   41.4580 O   0  0  0  0  0  0  0  0  0  0  0  0
   49.1730   32.0840   41.8970 N   0  0  0  0  0  0  0  0  0  0  0  0
   48.0070   32.5020   42.3810 C   0  0  0  0  0  0  0  0  0  0  0  0
   46.9820   31.8590   42.3900 O   0  0  0  0  0  0  0  0  0  0  0  0
   44.9850   35.9580   43.2710 C   0  0  0  0  0  0  0  0  0  0  0  0
   46.1080   35.3260   42.7320 C   0  0  0  0  0  0  0  0  0  0  0  0
   46.7270   34.3160   43.4730 C   0  0  0  0  0  0  0  0  0  0  0  0
   46.2090   33.9900   44.6900 N   0  0  0  0  0  0  0  0  0  0  0  0
   45.1160   34.6210   45.1920 C   0  0  0  0  0  0  0  0  0  0  0  0
   44.5090   35.6080   44.4700 N   0  0  0  0  0  0  0  0  0  0  0  0
   47.0324   29.3516   40.0822 H   0  0  0  0  0  0  0  0  0  0  0  0
   46.5280   29.5558   37.6630 H   0  0  0  0  0  0  0  0  0  0  0  0
   48.7328   33.4484   36.3280 H   0  0  0  0  0  0  0  0  0  0  0  0
   48.7060   33.5063   33.5857 H   0  0  0  0  0  0  0  0  0  0  0  0
   47.1254   28.9660   32.7438 H   0  0  0  0  0  0  0  0  0  0  0  0
   48.3493   30.6208   28.1817 H   0  0  0  0  0  0  0  0  0  0  0  0
   50.0282   34.1696   29.8597 H   0  0  0  0  0  0  0  0  0  0  0  0
   48.6961   30.0594   41.9832 H   0  0  0  0  0  0  0  0  0  0  0  0
   50.3125   30.4959   41.2404 H   0  0  0  0  0  0  0  0  0  0  0  0
   48.8598   35.5256   43.4021 H   0  0  0  0  0  0  0  0  0  0  0  0
   51.0612   34.8004   42.5139 H   0  0  0  0  0  0  0  0  0  0  0  0
   44.4853   36.7549   42.7007 H   0  0  0  0  0  0  0  0  0  0  0  0
   46.4968   35.6172   41.7451 H   0  0  0  0  0  0  0  0  0  0  0  0
   44.7206   34.3373   46.1785 H   0  0  0  0  0  0  0  0  0  0  0  0
  1 20  1  0
  2  1  2  0
  3  2  1  0
  4  3  2  0
  4  5  1  0
  5  1  1  0
  6  4  1  0
  7  6  2  0
  8  7  1  0
  9  8  2  0
  9 10  1  0
 10  6  1  0
 11  9  1  0
 12 11  1  0
 13 12  2  0
 14 13  1  0
 14 19  2  0
 15 14  1  0
 16 15  2  0
 16 17  1  0
 17 18  2  0
 18 19  1  0
 19 11  1  0
 20 26  1  0
 21 22  1  0
 21 31  1  0
 23 22  2  0
 24 23  1  0
 25 24  2  0
 26 24  1  0
 26 27  1  0
 27 28  2  0
 27 21  1  0
 29 34  2  0
 30 29  1  0
 30 31  2  0
 31 32  1  0
 32 33  2  0
 34 33  1  0
  2 35  1  0
  3 36  1  0
  7 37  1  0
  8 38  1  0
 12 39  1  0
 15 40  1  0
 17 41  1  0
 20 42  1  0
 20 43  1  0
 22 44  1  0
 23 45  1  0
 29 46  1  0
 30 47  1  0
 33 48  1  0
M  END
>  <Score>  (1) 
-7.22365

$$$$
