
     RDKit          3D

 38 41  0  0  0  0  0  0  0  0999 V2000
   44.9550   33.8240   40.2510 N   0  0  0  0  0  0  0  0  0  0  0  0
   45.8570   34.4020   41.0980 C   0  0  0  0  0  0  0  0  0  0  0  0
   47.1930   34.4320   40.7020 C   0  0  0  0  0  0  0  0  0  0  0  0
   47.5020   33.8740   39.4870 C   0  0  0  0  0  0  0  0  0  0  0  0
   48.8350   33.8460   38.9820 N   0  0  0  0  0  0  0  0  0  0  0  0
   46.5800   33.3070   38.6710 N   0  0  0  0  0  0  0  0  0  0  0  0
   45.2690   33.2780   39.0570 C   0  0  0  0  0  0  0  0  0  0  0  0
   44.3830   32.7580   38.3260 O   0  0  0  0  0  0  0  0  0  0  0  0
   41.3270   34.6450   40.7790 C   0  0  0  0  0  0  0  0  0  0  0  0
   42.6590   34.7970   40.3860 C   0  0  0  0  0  0  0  0  0  0  0  0
   43.5710   33.7770   40.6090 C   0  0  0  0  0  0  0  0  0  0  0  0
   43.1000   32.6630   41.2120 N   0  0  0  0  0  0  0  0  0  0  0  0
   41.8270   32.5130   41.5880 C   0  0  0  0  0  0  0  0  0  0  0  0
   40.9360   33.5040   41.3730 N   0  0  0  0  0  0  0  0  0  0  0  0
   41.3380   31.3410   42.2240 N   0  0  0  0  0  0  0  0  0  0  0  0
   40.1680   30.8270   42.5390 N   0  0  0  0  0  0  0  0  0  0  0  0
   40.3190   29.6580   43.1750 C   0  0  0  0  0  0  0  0  0  0  0  0
   41.6900   29.4100   43.2710 C   0  0  0  0  0  0  0  0  0  0  0  0
   42.3050   30.5000   42.6560 C   0  0  0  0  0  0  0  0  0  0  0  0
   45.3590   34.9020   42.3710 C   0  0  0  0  0  0  0  0  0  0  0  0
   45.1910   34.3750   43.6580 C   0  0  0  0  0  0  0  0  0  0  0  0
   44.6770   35.3360   44.5000 C   0  0  0  0  0  0  0  0  0  0  0  0
   44.5360   36.4300   43.7310 N   0  0  0  0  0  0  0  0  0  0  0  0
   44.9370   36.1550   42.5040 N   0  0  0  0  0  0  0  0  0  0  0  0
   48.2440   35.0420   41.5400 C   0  0  0  0  0  0  0  0  0  0  0  0
   47.7080   35.7390   42.5920 F   0  0  0  0  0  0  0  0  0  0  0  0
   48.9810   35.9110   40.7200 F   0  0  0  0  0  0  0  0  0  0  0  0
   49.1350   34.0550   41.9000 F   0  0  0  0  0  0  0  0  0  0  0  0
   49.0296   33.4185   38.0653 H   0  0  0  0  0  0  0  0  0  0  0  0
   49.6034   34.2533   39.5338 H   0  0  0  0  0  0  0  0  0  0  0  0
   40.6025   35.4539   40.6035 H   0  0  0  0  0  0  0  0  0  0  0  0
   42.9848   35.7278   39.8987 H   0  0  0  0  0  0  0  0  0  0  0  0
   39.5121   29.0124   43.5521 H   0  0  0  0  0  0  0  0  0  0  0  0
   42.1801   28.5404   43.7331 H   0  0  0  0  0  0  0  0  0  0  0  0
   43.3888   30.6498   42.5420 H   0  0  0  0  0  0  0  0  0  0  0  0
   45.4342   33.3436   43.9532 H   0  0  0  0  0  0  0  0  0  0  0  0
   44.4348   35.2315   45.5679 H   0  0  0  0  0  0  0  0  0  0  0  0
   44.1723   37.3395   44.0494 H   0  0  0  0  0  0  0  0  0  0  0  0
  1 11  1  0
  1  2  1  0
  2 20  1  0
  3  2  2  0
  3 25  1  0
  4  3  1  0
  5  4  1  0
  6  7  1  0
  6  4  2  0
  7  1  1  0
  8  7  2  0
  9 14  2  0
 10 11  2  0
 10  9  1  0
 11 12  1  0
 12 13  2  0
 13 15  1  0
 14 13  1  0
 15 16  1  0
 15 19  1  0
 16 17  2  0
 17 18  1  0
 19 18  2  0
 20 24  2  0
 20 21  1  0
 21 22  2  0
 23 22  1  0
 24 23  1  0
 25 28  1  0
 25 26  1  0
 27 25  1  0
  5 29  1  0
  5 30  1  0
  9 31  1  0
 10 32  1  0
 17 33  1  0
 18 34  1  0
 19 35  1  0
 21 36  1  0
 22 37  1  0
 23 38  1  0
M  END
>  <Score>  (1) 
-7.03791

$$$$
