
     RDKit          3D

 52 56  0  0  0  0  0  0  0  0999 V2000
   44.4980   35.1690   46.1010 C   0  0  0  0  0  0  0  0  0  0  0  0
   44.7600   35.1610   44.7180 C   0  0  0  0  0  0  0  0  0  0  0  0
   45.4140   34.0520   44.1590 C   0  0  0  0  0  0  0  0  0  0  0  0
   45.7590   33.0440   44.9880 N   0  0  0  0  0  0  0  0  0  0  0  0
   45.4910   33.0870   46.3140 C   0  0  0  0  0  0  0  0  0  0  0  0
   44.8650   34.1420   46.8690 N   0  0  0  0  0  0  0  0  0  0  0  0
   45.6530   34.0870   42.7780 N   0  0  0  0  0  0  0  0  0  0  0  0
   44.9120   33.9130   41.6740 C   0  0  0  0  0  0  0  0  0  0  0  0
   45.6650   34.0640   40.5720 N   0  0  0  0  0  0  0  0  0  0  0  0
   46.9190   34.3420   40.9570 C   0  0  0  0  0  0  0  0  0  0  0  0
   48.0670   34.5840   40.2190 C   0  0  0  0  0  0  0  0  0  0  0  0
   48.0820   34.5720   38.9690 O   0  0  0  0  0  0  0  0  0  0  0  0
   49.2310   34.8450   40.8440 N   0  0  0  0  0  0  0  0  0  0  0  0
   49.1990   34.8530   42.1860 C   0  0  0  0  0  0  0  0  0  0  0  0
   50.3560   35.1150   42.9680 N   0  0  0  0  0  0  0  0  0  0  0  0
   48.1000   34.6220   42.9000 N   0  0  0  0  0  0  0  0  0  0  0  0
   46.9010   34.3540   42.3350 C   0  0  0  0  0  0  0  0  0  0  0  0
   45.8690   31.9840   47.2360 C   0  0  0  0  0  0  0  0  0  0  0  0
   47.2850   32.1820   47.7290 C   0  0  0  0  0  0  0  0  0  0  0  0
   44.9220   31.8620   48.4050 C   0  0  0  0  0  0  0  0  0  0  0  0
   45.8470   30.7200   46.4150 C   0  0  0  0  0  0  0  0  0  0  0  0
   46.8950   29.7520   46.6790 C   0  0  0  0  0  0  0  0  0  0  0  0
   48.2580   29.8460   46.5040 C   0  0  0  0  0  0  0  0  0  0  0  0
   49.1490   28.8440   46.7960 C   0  0  0  0  0  0  0  0  0  0  0  0
   48.6860   27.6480   47.3000 C   0  0  0  0  0  0  0  0  0  0  0  0
   47.3260   27.5250   47.4860 C   0  0  0  0  0  0  0  0  0  0  0  0
   46.9200   26.3000   47.9960 C   0  0  0  0  0  0  0  0  0  0  0  0
   45.5800   26.0650   48.2230 C   0  0  0  0  0  0  0  0  0  0  0  0
   44.6690   27.0640   47.9350 C   0  0  0  0  0  0  0  0  0  0  0  0
   45.0930   28.2740   47.4280 C   0  0  0  0  0  0  0  0  0  0  0  0
   46.4290   28.5350   47.1920 C   0  0  0  0  0  0  0  0  0  0  0  0
   43.9854   36.0309   46.5530 H   0  0  0  0  0  0  0  0  0  0  0  0
   44.4574   36.0092   44.0863 H   0  0  0  0  0  0  0  0  0  0  0  0
   43.8371   33.6792   41.6712 H   0  0  0  0  0  0  0  0  0  0  0  0
   50.0989   35.0286   40.3206 H   0  0  0  0  0  0  0  0  0  0  0  0
   50.2940   35.1129   43.9961 H   0  0  0  0  0  0  0  0  0  0  0  0
   51.2567   35.3070   42.5068 H   0  0  0  0  0  0  0  0  0  0  0  0
   47.2935   32.1832   48.8290 H   0  0  0  0  0  0  0  0  0  0  0  0
   47.9201   31.3639   47.3583 H   0  0  0  0  0  0  0  0  0  0  0  0
   47.6713   33.1429   47.3583 H   0  0  0  0  0  0  0  0  0  0  0  0
   45.4886   31.9350   49.3450 H   0  0  0  0  0  0  0  0  0  0  0  0
   44.1789   32.6718   48.3610 H   0  0  0  0  0  0  0  0  0  0  0  0
   44.4084   30.8903   48.3610 H   0  0  0  0  0  0  0  0  0  0  0  0
   45.9197   31.0092   45.3562 H   0  0  0  0  0  0  0  0  0  0  0  0
   44.9102   30.2134   46.6902 H   0  0  0  0  0  0  0  0  0  0  0  0
   48.6596   30.7883   46.1029 H   0  0  0  0  0  0  0  0  0  0  0  0
   50.2257   28.9946   46.6288 H   0  0  0  0  0  0  0  0  0  0  0  0
   49.3739   26.8250   47.5439 H   0  0  0  0  0  0  0  0  0  0  0  0
   47.6633   25.5201   48.2182 H   0  0  0  0  0  0  0  0  0  0  0  0
   45.2420   25.0991   48.6264 H   0  0  0  0  0  0  0  0  0  0  0  0
   43.5970   26.8922   48.1118 H   0  0  0  0  0  0  0  0  0  0  0  0
   44.3479   29.0521   47.2055 H   0  0  0  0  0  0  0  0  0  0  0  0
  1  6  2  0
  2  1  1  0
  3  2  2  0
  3  4  1  0
  4  5  2  0
  5  6  1  0
  5 18  1  0
  7  3  1  0
  8  7  1  0
  9 10  1  0
  9  8  2  0
 10 17  2  0
 11 13  1  0
 11 10  1  0
 12 11  2  0
 13 14  1  0
 14 16  2  0
 14 15  1  0
 17  7  1  0
 17 16  1  0
 18 19  1  0
 18 20  1  0
 21 22  1  0
 21 18  1  0
 22 31  1  0
 23 22  2  0
 23 24  1  0
 24 25  2  0
 25 26  1  0
 26 27  2  0
 27 28  1  0
 29 28  2  0
 30 29  1  0
 31 30  2  0
 31 26  1  0
  1 32  1  0
  2 33  1  0
  8 34  1  0
 13 35  1  0
 15 36  1  0
 15 37  1  0
 19 38  1  0
 19 39  1  0
 19 40  1  0
 20 41  1  0
 20 42  1  0
 20 43  1  0
 21 44  1  0
 21 45  1  0
 23 46  1  0
 24 47  1  0
 25 48  1  0
 27 49  1  0
 28 50  1  0
 29 51  1  0
 30 52  1  0
M  END
>  <Score>  (1) 
-7.5132

$$$$
