
     RDKit          3D

 37 40  0  0  0  0  0  0  0  0999 V2000
   44.4460   36.0140   44.7350 C   0  0  0  0  0  0  0  0  0  0  0  0
   45.0800   35.9830   43.5010 C   0  0  0  0  0  0  0  0  0  0  0  0
   46.0030   35.0040   43.1440 C   0  0  0  0  0  0  0  0  0  0  0  0
   46.2200   34.0740   44.1310 N   0  0  0  0  0  0  0  0  0  0  0  0
   45.6050   34.1010   45.3310 C   0  0  0  0  0  0  0  0  0  0  0  0
   44.7380   35.0570   45.6140 N   0  0  0  0  0  0  0  0  0  0  0  0
   46.7480   34.8230   41.9300 C   0  0  0  0  0  0  0  0  0  0  0  0
   48.0090   35.3950   41.8610 C   0  0  0  0  0  0  0  0  0  0  0  0
   48.8310   35.2960   40.7670 C   0  0  0  0  0  0  0  0  0  0  0  0
   48.4040   34.6000   39.6700 C   0  0  0  0  0  0  0  0  0  0  0  0
   47.1590   34.0030   39.6660 C   0  0  0  0  0  0  0  0  0  0  0  0
   46.7010   33.2950   38.5770 C   0  0  0  0  0  0  0  0  0  0  0  0
   45.4710   32.6930   38.5460 C   0  0  0  0  0  0  0  0  0  0  0  0
   44.7040   32.8400   39.6870 C   0  0  0  0  0  0  0  0  0  0  0  0
   45.1610   33.5380   40.7560 C   0  0  0  0  0  0  0  0  0  0  0  0
   46.3850   34.1410   40.7980 C   0  0  0  0  0  0  0  0  0  0  0  0
   45.9360   33.0400   46.2850 C   0  0  0  0  0  0  0  0  0  0  0  0
   46.8360   32.0470   45.9470 C   0  0  0  0  0  0  0  0  0  0  0  0
   47.1430   31.0350   46.8630 C   0  0  0  0  0  0  0  0  0  0  0  0
   46.5100   31.0980   48.0710 C   0  0  0  0  0  0  0  0  0  0  0  0
   45.5910   32.0610   48.4930 C   0  0  0  0  0  0  0  0  0  0  0  0
   45.3410   33.0230   47.5350 C   0  0  0  0  0  0  0  0  0  0  0  0
   44.4410   34.0350   47.8480 O   0  0  0  0  0  0  0  0  0  0  0  0
   43.7232   36.8061   44.9801 H   0  0  0  0  0  0  0  0  0  0  0  0
   44.8418   36.7697   42.7700 H   0  0  0  0  0  0  0  0  0  0  0  0
   48.3709   35.9601   42.7326 H   0  0  0  0  0  0  0  0  0  0  0  0
   49.8230   35.7714   40.7722 H   0  0  0  0  0  0  0  0  0  0  0  0
   49.0550   34.5154   38.7873 H   0  0  0  0  0  0  0  0  0  0  0  0
   47.3512   33.2093   37.6939 H   0  0  0  0  0  0  0  0  0  0  0  0
   45.1165   32.1293   37.6704 H   0  0  0  0  0  0  0  0  0  0  0  0
   43.7046   32.3823   39.7283 H   0  0  0  0  0  0  0  0  0  0  0  0
   44.5094   33.6230   41.6381 H   0  0  0  0  0  0  0  0  0  0  0  0
   47.3121   32.0524   44.9554 H   0  0  0  0  0  0  0  0  0  0  0  0
   47.8557   30.2322   46.6229 H   0  0  0  0  0  0  0  0  0  0  0  0
   46.7505   30.3023   48.7914 H   0  0  0  0  0  0  0  0  0  0  0  0
   45.1159   32.0538   49.4851 H   0  0  0  0  0  0  0  0  0  0  0  0
   44.0001   34.0487   48.7343 H   0  0  0  0  0  0  0  0  0  0  0  0
  1  6  2  0
  2  1  1  0
  3  2  2  0
  3  4  1  0
  4  5  2  0
  5  6  1  0
  5 17  1  0
  7  3  1  0
  8  7  2  0
  9  8  1  0
 10  9  2  0
 11 10  1  0
 11 16  2  0
 12 11  1  0
 13 12  2  0
 13 14  1  0
 14 15  2  0
 15 16  1  0
 16  7  1  0
 17 22  1  0
 18 17  2  0
 18 19  1  0
 19 20  2  0
 20 21  1  0
 22 23  1  0
 22 21  2  0
  1 24  1  0
  2 25  1  0
  8 26  1  0
  9 27  1  0
 10 28  1  0
 12 29  1  0
 13 30  1  0
 14 31  1  0
 15 32  1  0
 18 33  1  0
 19 34  1  0
 20 35  1  0
 21 36  1  0
 23 37  1  0
M  END
>  <Score>  (1) 
-8.02535

$$$$
