
     RDKit          3D

 52 57  0  0  1  0  0  0  0  0999 V2000
   44.3740   35.1800   41.9070 C   0  0  0  0  0  0  0  0  0  0  0  0
   43.2570   35.9130   41.5540 C   0  0  0  0  0  0  0  0  0  0  0  0
   42.6150   35.1930   40.5640 C   0  0  0  0  0  0  0  0  0  0  0  0
   43.3880   34.1000   40.4030 N   0  0  0  0  0  0  0  0  0  0  0  0
   44.4450   34.0370   41.1720 N   0  0  0  0  0  0  0  0  0  0  0  0
   43.2590   33.4260   38.0850 N   0  0  0  0  0  0  0  0  0  0  0  0
   44.6210   33.1850   37.6750 C   0  0  0  0  0  0  0  0  0  0  0  0
   45.1980   32.1280   38.5710 C   0  0  0  0  0  0  0  0  0  0  0  0
   44.1500   31.9020   39.6400 C   0  0  0  0  0  0  0  0  0  0  0  0
   43.1370   32.9900   39.4530 C   0  0  1  0  0  0  0  0  0  0  0  0
   41.7890   32.4270   39.7410 C   0  0  0  0  0  0  0  0  0  0  0  0
   41.6210   31.4300   40.6540 N   0  0  0  0  0  0  0  0  0  0  0  0
   40.4080   30.9300   40.9240 C   0  0  0  0  0  0  0  0  0  0  0  0
   39.2800   31.3610   40.3300 N   0  0  0  0  0  0  0  0  0  0  0  0
   39.3810   32.3460   39.4180 C   0  0  0  0  0  0  0  0  0  0  0  0
   38.2380   32.7990   38.7960 C   0  0  0  0  0  0  0  0  0  0  0  0
   38.3660   33.8060   37.8600 C   0  0  0  0  0  0  0  0  0  0  0  0
   39.6070   34.3550   37.5470 C   0  0  0  0  0  0  0  0  0  0  0  0
   40.7520   33.8840   38.1870 C   0  0  0  0  0  0  0  0  0  0  0  0
   40.6280   32.8630   39.1370 C   0  0  0  0  0  0  0  0  0  0  0  0
   45.3340   35.6020   42.9420 C   0  0  0  0  0  0  0  0  0  0  0  0
   45.9080   36.6770   42.8480 O   0  0  0  0  0  0  0  0  0  0  0  0
   44.8280   34.9500   45.2200 C   0  0  0  0  0  0  0  0  0  0  0  0
   45.5970   34.7390   44.0730 C   0  0  0  0  0  0  0  0  0  0  0  0
   46.5300   33.7560   44.0840 C   0  0  0  0  0  0  0  0  0  0  0  0
   46.6810   33.0090   45.2160 N   0  0  0  0  0  0  0  0  0  0  0  0
   45.9480   33.2050   46.3190 C   0  0  0  0  0  0  0  0  0  0  0  0
   45.0030   34.1940   46.3250 N   0  0  0  0  0  0  0  0  0  0  0  0
   46.2190   32.3570   47.4050 N   0  0  0  0  0  0  0  0  0  0  0  0
   47.2690   31.6970   47.8270 N   0  0  0  0  0  0  0  0  0  0  0  0
   46.9610   31.0110   48.9740 C   0  0  0  0  0  0  0  0  0  0  0  0
   45.6340   31.2790   49.2600 C   0  0  0  0  0  0  0  0  0  0  0  0
   45.1890   32.1440   48.2340 C   0  0  0  0  0  0  0  0  0  0  0  0
   42.9413   36.8781   41.9770 H   0  0  0  0  0  0  0  0  0  0  0  0
   41.6882   35.4518   40.0310 H   0  0  0  0  0  0  0  0  0  0  0  0
   42.6117   32.8931   37.4867 H   0  0  0  0  0  0  0  0  0  0  0  0
   44.6404   32.8398   36.6308 H   0  0  0  0  0  0  0  0  0  0  0  0
   45.2106   34.1107   37.7492 H   0  0  0  0  0  0  0  0  0  0  0  0
   45.3806   31.2013   38.0072 H   0  0  0  0  0  0  0  0  0  0  0  0
   46.1643   32.4331   38.9991 H   0  0  0  0  0  0  0  0  0  0  0  0
   43.6804   30.9153   39.5139 H   0  0  0  0  0  0  0  0  0  0  0  0
   44.5882   31.9250   40.6487 H   0  0  0  0  0  0  0  0  0  0  0  0
   40.3299   30.1254   41.6700 H   0  0  0  0  0  0  0  0  0  0  0  0
   37.2537   32.3715   39.0377 H   0  0  0  0  0  0  0  0  0  0  0  0
   37.4673   34.1832   37.3500 H   0  0  0  0  0  0  0  0  0  0  0  0
   39.6832   35.1569   36.7979 H   0  0  0  0  0  0  0  0  0  0  0  0
   41.7387   34.3082   37.9492 H   0  0  0  0  0  0  0  0  0  0  0  0
   44.0676   35.7449   45.2230 H   0  0  0  0  0  0  0  0  0  0  0  0
   47.1531   33.5641   43.1981 H   0  0  0  0  0  0  0  0  0  0  0  0
   47.6396   30.3699   49.5557 H   0  0  0  0  0  0  0  0  0  0  0  0
   45.0473   30.8983   50.1090 H   0  0  0  0  0  0  0  0  0  0  0  0
   44.1782   32.5663   48.1345 H   0  0  0  0  0  0  0  0  0  0  0  0
  1 21  1  0
  2  1  1  0
  3  2  2  0
  4  3  1  0
  4  5  1  0
  5  1  2  0
  6 10  1  0
  7  6  1  0
  7  8  1  0
  8  9  1  0
 10  9  1  0
 10 11  1  0
 10  4  1  1
 11 12  2  0
 12 13  1  0
 14 13  2  0
 15 14  1  0
 16 15  2  0
 17 16  1  0
 18 17  2  0
 18 19  1  0
 19 20  2  0
 20 15  1  0
 20 11  1  0
 21 24  1  0
 22 21  2  0
 23 28  2  0
 24 25  2  0
 24 23  1  0
 25 26  1  0
 26 27  2  0
 27 28  1  0
 27 29  1  0
 29 30  1  0
 29 33  1  0
 30 31  2  0
 31 32  1  0
 33 32  2  0
  2 34  1  0
  3 35  1  0
  6 36  1  0
  7 37  1  0
  7 38  1  0
  8 39  1  0
  8 40  1  0
  9 41  1  0
  9 42  1  0
 13 43  1  0
 16 44  1  0
 17 45  1  0
 18 46  1  0
 19 47  1  0
 23 48  1  0
 25 49  1  0
 31 50  1  0
 32 51  1  0
 33 52  1  0
M  END
>  <Score>  (1) 
-7.67604

$$$$
