
     RDKit          3D

 44 48  0  0  1  0  0  0  0  0999 V2000
   45.7570   33.8390   45.4950 C   0  0  0  0  0  0  0  0  0  0  0  0
   46.5500   33.8400   44.3460 C   0  0  0  0  0  0  0  0  0  0  0  0
   46.3270   34.8160   43.3770 C   0  0  0  0  0  0  0  0  0  0  0  0
   45.3490   35.7260   43.5800 N   0  0  0  0  0  0  0  0  0  0  0  0
   44.5910   35.7080   44.7000 C   0  0  0  0  0  0  0  0  0  0  0  0
   44.8000   34.7670   45.6460 N   0  0  0  0  0  0  0  0  0  0  0  0
   47.1630   34.8050   42.1860 C   0  0  0  0  0  0  0  0  0  0  0  0
   48.4380   35.3840   42.0620 C   0  0  0  0  0  0  0  0  0  0  0  0
   48.9070   35.1760   40.8240 N   0  0  0  0  0  0  0  0  0  0  0  0
   47.9590   34.4770   40.1550 C   0  0  0  0  0  0  0  0  0  0  0  0
   47.9480   34.0150   38.8590 C   0  0  0  0  0  0  0  0  0  0  0  0
   46.8540   33.3160   38.3920 C   0  0  0  0  0  0  0  0  0  0  0  0
   45.7300   33.0510   39.1950 C   0  0  0  0  0  0  0  0  0  0  0  0
   45.8110   33.5420   40.4750 C   0  0  0  0  0  0  0  0  0  0  0  0
   46.8580   34.2300   40.9770 C   0  0  0  0  0  0  0  0  0  0  0  0
   45.9180   32.9080   46.4970 O   0  0  0  0  0  0  0  0  0  0  0  0
   45.1180   32.7750   47.6280 C   0  0  1  0  0  0  0  0  0  0  0  0
   44.8290   31.3830   48.0730 C   0  0  0  0  0  0  0  0  0  0  0  0
   45.8100   32.2740   48.8540 C   0  0  1  0  0  0  0  0  0  0  0  0
   47.2510   31.8840   48.7350 C   0  0  0  0  0  0  0  0  0  0  0  0
   48.0460   32.6550   48.1340 O   0  0  0  0  0  0  0  0  0  0  0  0
   47.8380   30.7500   49.2080 O   0  0  0  0  0  0  0  0  0  0  0  0
   49.1870   30.6600   49.4550 C   0  0  0  0  0  0  0  0  0  0  0  0
   49.8220   29.7080   48.6540 C   0  0  0  0  0  0  0  0  0  0  0  0
   51.1970   29.5110   48.7990 C   0  0  0  0  0  0  0  0  0  0  0  0
   51.9190   30.2420   49.7170 C   0  0  0  0  0  0  0  0  0  0  0  0
   51.1980   31.1690   50.4700 C   0  0  0  0  0  0  0  0  0  0  0  0
   49.8750   31.3810   50.3520 N   0  0  0  0  0  0  0  0  0  0  0  0
   47.3368   33.0837   44.2082 H   0  0  0  0  0  0  0  0  0  0  0  0
   43.8023   36.4617   44.8408 H   0  0  0  0  0  0  0  0  0  0  0  0
   48.9693   35.9249   42.8590 H   0  0  0  0  0  0  0  0  0  0  0  0
   49.8153   35.4882   40.4520 H   0  0  0  0  0  0  0  0  0  0  0  0
   48.8074   34.2021   38.1983 H   0  0  0  0  0  0  0  0  0  0  0  0
   46.8611   32.9527   37.3538 H   0  0  0  0  0  0  0  0  0  0  0  0
   44.8554   32.4946   38.8269 H   0  0  0  0  0  0  0  0  0  0  0  0
   44.9561   33.3604   41.1430 H   0  0  0  0  0  0  0  0  0  0  0  0
   44.4899   33.6488   47.3999 H   0  0  0  0  0  0  0  0  0  0  0  0
   43.8478   31.1329   48.5027 H   0  0  0  0  0  0  0  0  0  0  0  0
   44.8757   30.3869   47.6086 H   0  0  0  0  0  0  0  0  0  0  0  0
   45.9115   32.6435   49.8851 H   0  0  0  0  0  0  0  0  0  0  0  0
   49.2481   29.1227   47.9205 H   0  0  0  0  0  0  0  0  0  0  0  0
   51.7089   28.7645   48.1739 H   0  0  0  0  0  0  0  0  0  0  0  0
   53.0022   30.1026   49.8487 H   0  0  0  0  0  0  0  0  0  0  0  0
   51.7489   31.7673   51.2106 H   0  0  0  0  0  0  0  0  0  0  0  0
  1  6  1  0
  1 16  1  0
  2  1  2  0
  3  4  2  0
  3  2  1  0
  4  5  1  0
  5  6  2  0
  7  3  1  0
  8  7  2  0
  9  8  1  0
 10  9  1  0
 10 15  2  0
 11 10  1  0
 12 11  2  0
 12 13  1  0
 13 14  2  0
 14 15  1  0
 15  7  1  0
 16 17  1  0
 17 18  1  0
 17 19  1  0
 18 19  1  0
 20 19  1  0
 20 22  1  0
 21 20  2  0
 22 23  1  0
 23 28  2  0
 24 25  2  0
 24 23  1  0
 25 26  1  0
 26 27  2  0
 28 27  1  0
  2 29  1  0
  5 30  1  0
  8 31  1  0
  9 32  1  0
 11 33  1  0
 12 34  1  0
 13 35  1  0
 14 36  1  0
 17 37  1  1
 18 38  1  0
 18 39  1  0
 19 40  1  1
 24 41  1  0
 25 42  1  0
 26 43  1  0
 27 44  1  0
M  END
>  <Score>  (1) 
-7.03562

$$$$
