
     RDKit          3D

 49 54  0  0  0  0  0  0  0  0999 V2000
   44.6180   35.6400   44.8280 C   0  0  0  0  0  0  0  0  0  0  0  0
   45.4150   35.3670   43.7020 C   0  0  0  0  0  0  0  0  0  0  0  0
   46.2770   34.3200   43.6620 C   0  0  0  0  0  0  0  0  0  0  0  0
   46.3620   33.5220   44.7460 N   0  0  0  0  0  0  0  0  0  0  0  0
   45.5750   33.8010   45.8450 C   0  0  0  0  0  0  0  0  0  0  0  0
   44.7440   34.8100   45.8880 N   0  0  0  0  0  0  0  0  0  0  0  0
   45.8230   32.8010   46.9310 C   0  0  0  0  0  0  0  0  0  0  0  0
   45.0610   32.6040   48.1720 C   0  0  0  0  0  0  0  0  0  0  0  0
   46.0330   31.2330   48.8640 S   0  0  0  0  0  0  0  0  0  0  0  0
   47.2520   31.1690   47.4100 C   0  0  0  0  0  0  0  0  0  0  0  0
   46.8710   32.1210   46.5570 N   0  0  0  0  0  0  0  0  0  0  0  0
   48.2540   30.1660   47.5480 N   0  0  0  0  0  0  0  0  0  0  0  0
   48.5780   29.1980   46.6760 C   0  0  0  0  0  0  0  0  0  0  0  0
   49.5820   28.4610   47.1960 N   0  0  0  0  0  0  0  0  0  0  0  0
   49.8870   28.9720   48.3950 C   0  0  0  0  0  0  0  0  0  0  0  0
   50.7990   28.6640   49.3820 C   0  0  0  0  0  0  0  0  0  0  0  0
   50.8820   29.3670   50.5090 N   0  0  0  0  0  0  0  0  0  0  0  0
   50.0680   30.4330   50.7530 C   0  0  0  0  0  0  0  0  0  0  0  0
   49.1610   30.7530   49.7950 N   0  0  0  0  0  0  0  0  0  0  0  0
   49.0500   30.0600   48.6380 C   0  0  0  0  0  0  0  0  0  0  0  0
   47.0890   34.0700   42.4760 C   0  0  0  0  0  0  0  0  0  0  0  0
   46.6250   34.6870   41.2090 C   0  0  0  0  0  0  0  0  0  0  0  0
   45.6300   33.7670   40.5830 C   0  0  0  0  0  0  0  0  0  0  0  0
   45.8020   32.4010   40.5300 C   0  0  0  0  0  0  0  0  0  0  0  0
   44.9570   31.4860   39.9850 C   0  0  0  0  0  0  0  0  0  0  0  0
   43.8260   32.0210   39.4410 N   0  0  0  0  0  0  0  0  0  0  0  0
   43.6160   33.3530   39.4710 C   0  0  0  0  0  0  0  0  0  0  0  0
   44.4780   34.2450   40.0220 N   0  0  0  0  0  0  0  0  0  0  0  0
   42.3870   33.8430   38.8710 C   0  0  0  0  0  0  0  0  0  0  0  0
   42.2700   35.1960   38.5130 C   0  0  0  0  0  0  0  0  0  0  0  0
   41.1100   35.6540   37.9470 C   0  0  0  0  0  0  0  0  0  0  0  0
   40.0790   34.8290   37.7290 N   0  0  0  0  0  0  0  0  0  0  0  0
   40.2140   33.5380   38.0800 C   0  0  0  0  0  0  0  0  0  0  0  0
   41.3480   33.0270   38.6470 N   0  0  0  0  0  0  0  0  0  0  0  0
   43.9222   36.4918   44.8457 H   0  0  0  0  0  0  0  0  0  0  0  0
   45.3369   36.0247   42.8238 H   0  0  0  0  0  0  0  0  0  0  0  0
   44.1748   33.1259   48.5622 H   0  0  0  0  0  0  0  0  0  0  0  0
   48.1029   29.0326   45.6978 H   0  0  0  0  0  0  0  0  0  0  0  0
   51.4784   27.8117   49.2336 H   0  0  0  0  0  0  0  0  0  0  0  0
   50.1430   31.0095   51.6868 H   0  0  0  0  0  0  0  0  0  0  0  0
   48.1017   34.4480   42.6796 H   0  0  0  0  0  0  0  0  0  0  0  0
   47.0291   32.9846   42.3080 H   0  0  0  0  0  0  0  0  0  0  0  0
   46.1543   35.6590   41.4180 H   0  0  0  0  0  0  0  0  0  0  0  0
   47.4751   34.8485   40.5298 H   0  0  0  0  0  0  0  0  0  0  0  0
   46.7258   32.0069   40.9786 H   0  0  0  0  0  0  0  0  0  0  0  0
   45.1673   30.4063   39.9828 H   0  0  0  0  0  0  0  0  0  0  0  0
   43.1084   35.8865   38.6869 H   0  0  0  0  0  0  0  0  0  0  0  0
   41.0245   36.7145   37.6677 H   0  0  0  0  0  0  0  0  0  0  0  0
   39.3681   32.8579   37.9016 H   0  0  0  0  0  0  0  0  0  0  0  0
  1  6  2  0
  2  1  1  0
  3  2  2  0
  3  4  1  0
  4  5  2  0
  5  6  1  0
  5  7  1  0
  7  8  2  0
  8  9  1  0
 10 12  1  0
 10  9  1  0
 11  7  1  0
 11 10  2  0
 12 20  1  0
 13 14  2  0
 13 12  1  0
 14 15  1  0
 15 20  2  0
 15 16  1  0
 16 17  2  0
 17 18  1  0
 19 18  2  0
 20 19  1  0
 21  3  1  0
 22 21  1  0
 23 22  1  0
 24 23  2  0
 25 24  1  0
 26 27  1  0
 26 25  2  0
 27 28  2  0
 28 23  1  0
 29 27  1  0
 30 29  2  0
 31 30  1  0
 32 31  2  0
 32 33  1  0
 33 34  2  0
 34 29  1  0
  1 35  1  0
  2 36  1  0
  8 37  1  0
 13 38  1  0
 16 39  1  0
 18 40  1  0
 21 41  1  0
 21 42  1  0
 22 43  1  0
 22 44  1  0
 24 45  1  0
 25 46  1  0
 30 47  1  0
 31 48  1  0
 33 49  1  0
M  END
>  <Score>  (1) 
-7.14975

$$$$
