
     RDKit          3D

 50 55  0  0  0  0  0  0  0  0999 V2000
   46.5780   34.6810   42.0790 C   0  0  0  0  0  0  0  0  0  0  0  0
   47.7850   35.3220   41.9090 C   0  0  0  0  0  0  0  0  0  0  0  0
   48.5070   35.1970   40.7030 C   0  0  0  0  0  0  0  0  0  0  0  0
   47.9710   34.4000   39.6730 C   0  0  0  0  0  0  0  0  0  0  0  0
   46.7540   33.7560   39.8520 C   0  0  0  0  0  0  0  0  0  0  0  0
   46.0860   33.9140   41.0580 C   0  0  0  0  0  0  0  0  0  0  0  0
   44.8350   33.2480   41.2300 N   0  0  0  0  0  0  0  0  0  0  0  0
   44.6180   31.9950   41.6650 C   0  0  0  0  0  0  0  0  0  0  0  0
   43.3460   31.5010   41.7750 C   0  0  0  0  0  0  0  0  0  0  0  0
   42.2600   32.2700   41.4440 C   0  0  0  0  0  0  0  0  0  0  0  0
   41.0940   31.7820   41.5580 O   0  0  0  0  0  0  0  0  0  0  0  0
   42.5010   33.5380   41.0050 N   0  0  0  0  0  0  0  0  0  0  0  0
   43.7460   34.0150   40.9000 C   0  0  0  0  0  0  0  0  0  0  0  0
   43.8430   35.2080   40.4810 O   0  0  0  0  0  0  0  0  0  0  0  0
   41.3540   34.3050   40.6730 C   0  0  0  0  0  0  0  0  0  0  0  0
   41.3070   35.6440   41.0340 C   0  0  0  0  0  0  0  0  0  0  0  0
   40.0870   36.1520   40.5930 C   0  0  0  0  0  0  0  0  0  0  0  0
   39.4420   35.1260   39.9870 N   0  0  0  0  0  0  0  0  0  0  0  0
   40.1940   34.0430   40.0380 N   0  0  0  0  0  0  0  0  0  0  0  0
   44.5210   36.0260   44.9350 C   0  0  0  0  0  0  0  0  0  0  0  0
   45.1170   35.9450   43.6780 C   0  0  0  0  0  0  0  0  0  0  0  0
   45.9090   34.8700   43.3520 C   0  0  0  0  0  0  0  0  0  0  0  0
   46.0890   33.8900   44.3010 N   0  0  0  0  0  0  0  0  0  0  0  0
   45.4920   33.9990   45.5250 C   0  0  0  0  0  0  0  0  0  0  0  0
   44.7200   35.0510   45.8330 N   0  0  0  0  0  0  0  0  0  0  0  0
   45.7650   32.9060   46.4160 N   0  0  0  0  0  0  0  0  0  0  0  0
   45.2580   32.7600   47.6660 C   0  0  0  0  0  0  0  0  0  0  0  0
   45.7540   31.6030   48.1790 N   0  0  0  0  0  0  0  0  0  0  0  0
   46.5430   31.0590   47.2600 C   0  0  0  0  0  0  0  0  0  0  0  0
   47.3180   29.9210   47.1690 C   0  0  0  0  0  0  0  0  0  0  0  0
   48.0530   29.5760   46.0980 N   0  0  0  0  0  0  0  0  0  0  0  0
   48.0560   30.3920   45.0030 C   0  0  0  0  0  0  0  0  0  0  0  0
   47.3120   31.5120   45.0570 N   0  0  0  0  0  0  0  0  0  0  0  0
   46.5790   31.8480   46.1310 C   0  0  0  0  0  0  0  0  0  0  0  0
   47.3710   29.0180   48.2660 N   0  0  0  0  0  0  0  0  0  0  0  0
   48.1915   35.9393   42.7237 H   0  0  0  0  0  0  0  0  0  0  0  0
   49.4698   35.7121   40.5700 H   0  0  0  0  0  0  0  0  0  0  0  0
   48.5175   34.2875   38.7250 H   0  0  0  0  0  0  0  0  0  0  0  0
   46.3273   33.1322   39.0527 H   0  0  0  0  0  0  0  0  0  0  0  0
   45.4732   31.3584   41.9360 H   0  0  0  0  0  0  0  0  0  0  0  0
   43.1929   30.4726   42.1340 H   0  0  0  0  0  0  0  0  0  0  0  0
   42.0892   36.2018   41.5698 H   0  0  0  0  0  0  0  0  0  0  0  0
   39.7200   37.1820   40.7130 H   0  0  0  0  0  0  0  0  0  0  0  0
   38.5093   35.1827   39.5537 H   0  0  0  0  0  0  0  0  0  0  0  0
   43.8881   36.8888   45.1899 H   0  0  0  0  0  0  0  0  0  0  0  0
   44.9527   36.7461   42.9423 H   0  0  0  0  0  0  0  0  0  0  0  0
   44.5699   33.4527   48.1727 H   0  0  0  0  0  0  0  0  0  0  0  0
   48.6457   30.1426   44.1085 H   0  0  0  0  0  0  0  0  0  0  0  0
   47.9475   28.1666   48.2048 H   0  0  0  0  0  0  0  0  0  0  0  0
   46.8329   29.2152   49.1218 H   0  0  0  0  0  0  0  0  0  0  0  0
  1 22  1  0
  2  1  2  0
  3  2  1  0
  4  5  1  0
  4  3  2  0
  5  6  2  0
  6  7  1  0
  6  1  1  0
  7  8  1  0
  8  9  2  0
 10 11  2  0
 10  9  1  0
 12 10  1  0
 13 12  1  0
 13  7  1  0
 14 13  2  0
 15 12  1  0
 15 16  1  0
 17 16  2  0
 18 19  1  0
 18 17  1  0
 19 15  2  0
 20 25  2  0
 21 20  1  0
 22 21  2  0
 22 23  1  0
 23 24  2  0
 24 25  1  0
 24 26  1  0
 26 27  1  0
 27 28  2  0
 29 28  1  0
 30 29  2  0
 30 35  1  0
 31 30  1  0
 32 33  1  0
 32 31  2  0
 33 34  2  0
 34 26  1  0
 34 29  1  0
  2 36  1  0
  3 37  1  0
  4 38  1  0
  5 39  1  0
  8 40  1  0
  9 41  1  0
 16 42  1  0
 17 43  1  0
 18 44  1  0
 20 45  1  0
 21 46  1  0
 27 47  1  0
 32 48  1  0
 35 49  1  0
 35 50  1  0
M  END
>  <Score>  (1) 
-9.70565

$$$$
