
     RDKit          3D

 51 56  0  0  0  0  0  0  0  0999 V2000
   48.5360   31.8750   38.7110 C   0  0  0  0  0  0  0  0  0  0  0  0
   48.5240   33.1010   38.1870 C   0  0  0  0  0  0  0  0  0  0  0  0
   48.4790   33.3120   36.8360 C   0  0  0  0  0  0  0  0  0  0  0  0
   48.4470   32.1580   36.0280 C   0  0  0  0  0  0  0  0  0  0  0  0
   48.4830   30.7940   37.2840 S   0  0  0  0  0  0  0  0  0  0  0  0
   48.4000   31.9210   34.6300 C   0  0  0  0  0  0  0  0  0  0  0  0
   48.7840   32.8940   33.7410 C   0  0  0  0  0  0  0  0  0  0  0  0
   48.6260   32.3660   32.4630 C   0  0  0  0  0  0  0  0  0  0  0  0
   48.1420   31.0740   32.6850 C   0  0  0  0  0  0  0  0  0  0  0  0
   48.0190   30.8450   34.0040 O   0  0  0  0  0  0  0  0  0  0  0  0
   47.8020   30.0800   31.7170 N   0  0  0  0  0  0  0  0  0  0  0  0
   48.5110   29.6270   30.6750 C   0  0  0  0  0  0  0  0  0  0  0  0
   47.7840   28.6870   30.0410 N   0  0  0  0  0  0  0  0  0  0  0  0
   46.6110   28.5600   30.7030 C   0  0  0  0  0  0  0  0  0  0  0  0
   45.5570   27.7060   30.4010 C   0  0  0  0  0  0  0  0  0  0  0  0
   45.6080   26.9300   29.4250 O   0  0  0  0  0  0  0  0  0  0  0  0
   44.4670   27.7300   31.1890 N   0  0  0  0  0  0  0  0  0  0  0  0
   44.4760   28.5990   32.2350 C   0  0  0  0  0  0  0  0  0  0  0  0
   43.3480   28.6710   33.1070 N   0  0  0  0  0  0  0  0  0  0  0  0
   45.4860   29.4340   32.5450 N   0  0  0  0  0  0  0  0  0  0  0  0
   46.6020   29.4480   31.7840 C   0  0  0  0  0  0  0  0  0  0  0  0
   48.5740   31.3420   40.0510 C   0  0  0  0  0  0  0  0  0  0  0  0
   47.6300   33.7270   42.6010 N   0  0  0  0  0  0  0  0  0  0  0  0
   48.8660   34.1900   43.0180 C   0  0  0  0  0  0  0  0  0  0  0  0
   50.0370   33.7150   42.4560 C   0  0  0  0  0  0  0  0  0  0  0  0
   49.9330   32.7480   41.4470 C   0  0  0  0  0  0  0  0  0  0  0  0
   50.9780   32.3040   40.9250 O   0  0  0  0  0  0  0  0  0  0  0  0
   48.6930   32.3490   41.0980 N   0  0  0  0  0  0  0  0  0  0  0  0
   47.5860   32.8270   41.6610 C   0  0  0  0  0  0  0  0  0  0  0  0
   46.4560   32.4980   41.3780 O   0  0  0  0  0  0  0  0  0  0  0  0
   45.0030   36.1620   43.4550 C   0  0  0  0  0  0  0  0  0  0  0  0
   46.0280   35.5170   42.7550 C   0  0  0  0  0  0  0  0  0  0  0  0
   46.5950   34.3640   43.3240 C   0  0  0  0  0  0  0  0  0  0  0  0
   46.1300   33.9190   44.5300 N   0  0  0  0  0  0  0  0  0  0  0  0
   45.1320   34.5740   45.1790 C   0  0  0  0  0  0  0  0  0  0  0  0
   44.5720   35.6950   44.6370 N   0  0  0  0  0  0  0  0  0  0  0  0
   48.5511   33.9694   38.8616 H   0  0  0  0  0  0  0  0  0  0  0  0
   48.4684   34.3241   36.4053 H   0  0  0  0  0  0  0  0  0  0  0  0
   49.1480   33.9013   33.9916 H   0  0  0  0  0  0  0  0  0  0  0  0
   48.8343   32.8538   31.4993 H   0  0  0  0  0  0  0  0  0  0  0  0
   49.5169   29.9654   30.3859 H   0  0  0  0  0  0  0  0  0  0  0  0
   43.6599   27.1163   31.0078 H   0  0  0  0  0  0  0  0  0  0  0  0
   43.3514   29.3280   33.9002 H   0  0  0  0  0  0  0  0  0  0  0  0
   42.5308   28.0659   32.9429 H   0  0  0  0  0  0  0  0  0  0  0  0
   47.6464   30.7760   40.2222 H   0  0  0  0  0  0  0  0  0  0  0  0
   49.4767   30.7166   40.1139 H   0  0  0  0  0  0  0  0  0  0  0  0
   48.9178   34.9501   43.8114 H   0  0  0  0  0  0  0  0  0  0  0  0
   51.0179   34.0841   42.7900 H   0  0  0  0  0  0  0  0  0  0  0  0
   44.5430   37.0663   43.0299 H   0  0  0  0  0  0  0  0  0  0  0  0
   46.3803   35.9015   41.7865 H   0  0  0  0  0  0  0  0  0  0  0  0
   44.7726   34.1983   46.1483 H   0  0  0  0  0  0  0  0  0  0  0  0
  1 22  1  0
  2  1  2  0
  3  2  1  0
  4  3  2  0
  4  5  1  0
  5  1  1  0
  6  4  1  0
  7  6  2  0
  8  9  2  0
  8  7  1  0
  9 10  1  0
 10  6  1  0
 11 21  1  0
 11  9  1  0
 12 11  1  0
 13 12  2  0
 13 14  1  0
 14 21  2  0
 15 14  1  0
 15 17  1  0
 16 15  2  0
 17 18  1  0
 18 20  2  0
 18 19  1  0
 21 20  1  0
 22 28  1  0
 23 24  1  0
 23 33  1  0
 25 24  2  0
 26 25  1  0
 27 26  2  0
 28 26  1  0
 28 29  1  0
 29 23  1  0
 30 29  2  0
 31 36  2  0
 32 33  2  0
 32 31  1  0
 33 34  1  0
 34 35  2  0
 36 35  1  0
  2 37  1  0
  3 38  1  0
  7 39  1  0
  8 40  1  0
 12 41  1  0
 17 42  1  0
 19 43  1  0
 19 44  1  0
 22 45  1  0
 22 46  1  0
 24 47  1  0
 25 48  1  0
 31 49  1  0
 32 50  1  0
 35 51  1  0
M  END
>  <Score>  (1) 
-7.36804

$$$$
