
     RDKit          3D

 48 53  0  0  1  0  0  0  0  0999 V2000
   46.1060   34.3430   41.6530 N   0  0  0  0  0  0  0  0  0  0  0  0
   47.5270   34.2430   41.4290 C   0  0  0  0  0  0  0  0  0  0  0  0
   47.8100   33.3920   40.2360 C   0  0  0  0  0  0  0  0  0  0  0  0
   47.0170   33.9070   39.1250 N   0  0  0  0  0  0  0  0  0  0  0  0
   45.6790   33.4680   39.3950 C   0  0  0  0  0  0  0  0  0  0  0  0
   45.1070   34.1140   40.6360 C   0  0  1  0  0  0  0  0  0  0  0  0
   44.5560   36.1430   44.5290 C   0  0  0  0  0  0  0  0  0  0  0  0
   44.9850   35.8820   43.2250 C   0  0  0  0  0  0  0  0  0  0  0  0
   45.6400   34.6830   42.9400 C   0  0  0  0  0  0  0  0  0  0  0  0
   45.8020   33.8490   43.9970 N   0  0  0  0  0  0  0  0  0  0  0  0
   45.3910   34.0980   45.2440 C   0  0  0  0  0  0  0  0  0  0  0  0
   44.7680   35.2390   45.5210 N   0  0  0  0  0  0  0  0  0  0  0  0
   45.6560   33.0920   46.2250 N   0  0  0  0  0  0  0  0  0  0  0  0
   45.1400   33.0190   47.4780 C   0  0  0  0  0  0  0  0  0  0  0  0
   45.6400   31.9090   48.0960 N   0  0  0  0  0  0  0  0  0  0  0  0
   46.4490   31.3160   47.2300 C   0  0  0  0  0  0  0  0  0  0  0  0
   47.2510   30.1990   47.1900 C   0  0  0  0  0  0  0  0  0  0  0  0
   47.9980   29.8130   46.1390 N   0  0  0  0  0  0  0  0  0  0  0  0
   47.9930   30.5540   44.9990 C   0  0  0  0  0  0  0  0  0  0  0  0
   47.2220   31.6480   45.0060 N   0  0  0  0  0  0  0  0  0  0  0  0
   46.4850   32.0240   46.0500 C   0  0  0  0  0  0  0  0  0  0  0  0
   47.3230   29.3620   48.3270 N   0  0  0  0  0  0  0  0  0  0  0  0
   43.9610   33.3860   41.0890 N   0  0  0  0  0  0  0  0  0  0  0  0
   43.8660   32.1780   41.6330 C   0  0  0  0  0  0  0  0  0  0  0  0
   42.5810   31.8290   41.9340 N   0  0  0  0  0  0  0  0  0  0  0  0
   41.8050   32.8680   41.5660 C   0  0  0  0  0  0  0  0  0  0  0  0
   40.4540   33.1550   41.5940 C   0  0  0  0  0  0  0  0  0  0  0  0
   39.9890   34.3380   41.1270 N   0  0  0  0  0  0  0  0  0  0  0  0
   40.8660   35.2470   40.6250 C   0  0  0  0  0  0  0  0  0  0  0  0
   42.1780   34.9890   40.5870 N   0  0  0  0  0  0  0  0  0  0  0  0
   42.6610   33.8020   41.0550 C   0  0  0  0  0  0  0  0  0  0  0  0
   47.9387   35.2492   41.2616 H   0  0  0  0  0  0  0  0  0  0  0  0
   47.9947   33.7837   42.3124 H   0  0  0  0  0  0  0  0  0  0  0  0
   48.8802   33.4407   39.9865 H   0  0  0  0  0  0  0  0  0  0  0  0
   47.5500   32.3430   40.4409 H   0  0  0  0  0  0  0  0  0  0  0  0
   47.3519   33.5211   38.2307 H   0  0  0  0  0  0  0  0  0  0  0  0
   45.0416   33.7245   38.5360 H   0  0  0  0  0  0  0  0  0  0  0  0
   45.7068   32.3811   39.5616 H   0  0  0  0  0  0  0  0  0  0  0  0
   44.7567   35.1239   40.3764 H   0  0  0  0  0  0  0  0  0  0  0  0
   44.0419   37.0890   44.7545 H   0  0  0  0  0  0  0  0  0  0  0  0
   44.8073   36.6180   42.4270 H   0  0  0  0  0  0  0  0  0  0  0  0
   44.4347   33.7364   47.9228 H   0  0  0  0  0  0  0  0  0  0  0  0
   48.5896   30.2700   44.1196 H   0  0  0  0  0  0  0  0  0  0  0  0
   47.9193   28.5223   48.3114 H   0  0  0  0  0  0  0  0  0  0  0  0
   46.7791   29.5919   49.1710 H   0  0  0  0  0  0  0  0  0  0  0  0
   44.7323   31.5268   41.8213 H   0  0  0  0  0  0  0  0  0  0  0  0
   39.7486   32.4149   41.9999 H   0  0  0  0  0  0  0  0  0  0  0  0
   40.4914   36.2087   40.2445 H   0  0  0  0  0  0  0  0  0  0  0  0
  1  9  1  0
  2  1  1  0
  3  2  1  0
  4  5  1  0
  4  3  1  0
  5  6  1  0
  6 23  1  0
  6  1  1  0
  7 12  2  0
  8  7  1  0
  9  8  2  0
  9 10  1  0
 10 11  2  0
 11 12  1  0
 11 13  1  0
 13 14  1  0
 14 15  2  0
 16 15  1  0
 17 16  2  0
 17 22  1  0
 18 17  1  0
 19 20  1  0
 19 18  2  0
 20 21  2  0
 21 13  1  0
 21 16  1  0
 23 24  1  0
 24 25  2  0
 26 27  2  0
 26 25  1  0
 28 27  1  0
 29 28  2  0
 30 29  1  0
 30 31  2  0
 31 23  1  0
 31 26  1  0
  2 32  1  0
  2 33  1  0
  3 34  1  0
  3 35  1  0
  4 36  1  0
  5 37  1  0
  5 38  1  0
  6 39  1  6
  7 40  1  0
  8 41  1  0
 14 42  1  0
 19 43  1  0
 22 44  1  0
 22 45  1  0
 24 46  1  0
 27 47  1  0
 29 48  1  0
M  END
>  <Score>  (1) 
-7.64372

$$$$
