
     RDKit          3D

 48 51  0  0  1  0  0  0  0  0999 V2000
   45.7110   33.3480   41.1590 N   0  0  0  0  0  0  0  0  0  0  0  0
   46.8770   33.2960   40.2830 C   0  0  0  0  0  0  0  0  0  0  0  0
   46.2020   33.3080   38.9330 C   0  0  0  0  0  0  0  0  0  0  0  0
   45.1620   32.2360   39.1330 C   0  0  0  0  0  0  0  0  0  0  0  0
   44.7000   32.4840   40.5310 C   0  0  2  0  0  0  0  0  0  0  0  0
   45.0080   36.0340   43.6180 C   0  0  0  0  0  0  0  0  0  0  0  0
   45.1710   35.3940   42.3800 C   0  0  0  0  0  0  0  0  0  0  0  0
   45.5320   34.0490   42.3500 C   0  0  0  0  0  0  0  0  0  0  0  0
   45.7050   33.4360   43.5530 N   0  0  0  0  0  0  0  0  0  0  0  0
   45.5460   34.0590   44.7400 C   0  0  0  0  0  0  0  0  0  0  0  0
   45.1980   35.3580   44.7550 N   0  0  0  0  0  0  0  0  0  0  0  0
   45.7390   33.3780   45.9750 N   0  0  0  0  0  0  0  0  0  0  0  0
   46.6410   32.3860   46.0080 C   0  0  0  0  0  0  0  0  0  0  0  0
   46.9340   31.6370   47.1320 C   0  0  0  0  0  0  0  0  0  0  0  0
   47.9440   30.5420   47.1260 C   0  0  0  0  0  0  0  0  0  0  0  0
   46.2060   31.9960   48.2570 C   0  0  0  0  0  0  0  0  0  0  0  0
   46.4200   31.3490   49.3390 O   0  0  0  0  0  0  0  0  0  0  0  0
   45.2990   32.9810   48.2580 N   0  0  0  0  0  0  0  0  0  0  0  0
   45.0750   33.6610   47.1190 C   0  0  0  0  0  0  0  0  0  0  0  0
   44.2290   34.6040   47.0550 O   0  0  0  0  0  0  0  0  0  0  0  0
   43.3670   32.9400   40.6880 N   0  0  0  0  0  0  0  0  0  0  0  0
   42.7540   33.9110   40.0100 C   0  0  0  0  0  0  0  0  0  0  0  0
   41.4390   34.2840   40.2400 C   0  0  0  0  0  0  0  0  0  0  0  0
   40.7170   33.6270   41.2170 C   0  0  0  0  0  0  0  0  0  0  0  0
   39.4970   33.9220   41.4800 O   0  0  0  0  0  0  0  0  0  0  0  0
   41.3330   32.6460   41.9030 N   0  0  0  0  0  0  0  0  0  0  0  0
   42.5950   32.3330   41.6360 C   0  0  0  0  0  0  0  0  0  0  0  0
   43.0890   31.3950   42.3370 O   0  0  0  0  0  0  0  0  0  0  0  0
   40.7810   35.3560   39.4830 C   0  0  0  0  0  0  0  0  0  0  0  0
   47.5282   34.1719   40.4200 H   0  0  0  0  0  0  0  0  0  0  0  0
   47.5446   32.4390   40.4560 H   0  0  0  0  0  0  0  0  0  0  0  0
   46.9033   33.0474   38.1266 H   0  0  0  0  0  0  0  0  0  0  0  0
   45.7984   34.2861   38.6323 H   0  0  0  0  0  0  0  0  0  0  0  0
   44.3349   32.3470   38.4163 H   0  0  0  0  0  0  0  0  0  0  0  0
   45.5481   31.2182   38.9748 H   0  0  0  0  0  0  0  0  0  0  0  0
   44.6265   31.5168   41.0498 H   0  0  0  0  0  0  0  0  0  0  0  0
   44.7228   37.0958   43.6528 H   0  0  0  0  0  0  0  0  0  0  0  0
   45.0153   35.9486   41.4429 H   0  0  0  0  0  0  0  0  0  0  0  0
   47.1832   32.1532   45.0796 H   0  0  0  0  0  0  0  0  0  0  0  0
   48.1954   30.2694   48.1616 H   0  0  0  0  0  0  0  0  0  0  0  0
   47.5310   29.6651   46.6060 H   0  0  0  0  0  0  0  0  0  0  0  0
   48.8514   30.8830   46.6060 H   0  0  0  0  0  0  0  0  0  0  0  0
   44.7810   33.2144   49.1172 H   0  0  0  0  0  0  0  0  0  0  0  0
   43.3196   34.4419   39.2301 H   0  0  0  0  0  0  0  0  0  0  0  0
   40.8228   32.1361   42.6382 H   0  0  0  0  0  0  0  0  0  0  0  0
   40.3369   36.0795   40.1825 H   0  0  0  0  0  0  0  0  0  0  0  0
   41.5220   35.8657   38.8496 H   0  0  0  0  0  0  0  0  0  0  0  0
   39.9911   34.9260   38.8496 H   0  0  0  0  0  0  0  0  0  0  0  0
  1  8  1  0
  2  1  1  0
  3  4  1  0
  3  2  1  0
  4  5  1  0
  5 21  1  0
  5  1  1  0
  6 11  2  0
  7  6  1  0
  8  7  2  0
  8  9  1  0
  9 10  2  0
 10 11  1  0
 10 12  1  0
 12 13  1  0
 12 19  1  0
 13 14  2  0
 14 16  1  0
 15 14  1  0
 16 18  1  0
 16 17  2  0
 19 18  1  0
 20 19  2  0
 21 27  1  0
 22 23  2  0
 22 21  1  0
 23 24  1  0
 24 25  2  0
 24 26  1  0
 27 26  1  0
 27 28  2  0
 29 23  1  0
  2 30  1  0
  2 31  1  0
  3 32  1  0
  3 33  1  0
  4 34  1  0
  4 35  1  0
  5 36  1  1
  6 37  1  0
  7 38  1  0
 13 39  1  0
 15 40  1  0
 15 41  1  0
 15 42  1  0
 18 43  1  0
 22 44  1  0
 26 45  1  0
 29 46  1  0
 29 47  1  0
 29 48  1  0
M  END
>  <Score>  (1) 
-7.26402

$$$$
