
     RDKit          3D

 40 44  0  0  0  0  0  0  0  0999 V2000
   44.6630   36.1750   44.4780 C   0  0  0  0  0  0  0  0  0  0  0  0
   45.4090   36.0510   43.2720 C   0  0  0  0  0  0  0  0  0  0  0  0
   46.2170   34.9020   43.1180 C   0  0  0  0  0  0  0  0  0  0  0  0
   46.2040   34.0310   44.1300 N   0  0  0  0  0  0  0  0  0  0  0  0
   45.5130   34.1400   45.2510 C   0  0  0  0  0  0  0  0  0  0  0  0
   44.7310   35.2160   45.4440 N   0  0  0  0  0  0  0  0  0  0  0  0
   45.7210   33.0440   46.1170 N   0  0  0  0  0  0  0  0  0  0  0  0
   45.1630   32.7100   47.3040 C   0  0  0  0  0  0  0  0  0  0  0  0
   45.7550   31.5310   47.7260 C   0  0  0  0  0  0  0  0  0  0  0  0
   46.6470   31.2020   46.7730 N   0  0  0  0  0  0  0  0  0  0  0  0
   46.6310   32.1230   45.7870 C   0  0  0  0  0  0  0  0  0  0  0  0
   47.5420   31.8450   44.7530 N   0  0  0  0  0  0  0  0  0  0  0  0
   48.0000   32.6750   43.7920 C   0  0  0  0  0  0  0  0  0  0  0  0
   48.9020   32.2270   42.8450 C   0  0  0  0  0  0  0  0  0  0  0  0
   49.3140   30.9130   42.9160 C   0  0  0  0  0  0  0  0  0  0  0  0
   50.1400   30.5180   42.0420 O   0  0  0  0  0  0  0  0  0  0  0  0
   48.8580   30.0910   43.8710 N   0  0  0  0  0  0  0  0  0  0  0  0
   47.9700   30.5710   44.7850 C   0  0  0  0  0  0  0  0  0  0  0  0
   47.6320   29.6780   45.6220 O   0  0  0  0  0  0  0  0  0  0  0  0
   46.9350   34.8110   41.9200 N   0  0  0  0  0  0  0  0  0  0  0  0
   48.1240   35.4280   41.7190 C   0  0  0  0  0  0  0  0  0  0  0  0
   48.5600   35.1520   40.4760 N   0  0  0  0  0  0  0  0  0  0  0  0
   47.6480   34.3520   39.8710 C   0  0  0  0  0  0  0  0  0  0  0  0
   47.6280   33.8030   38.6180 C   0  0  0  0  0  0  0  0  0  0  0  0
   46.5540   33.0410   38.3180 N   0  0  0  0  0  0  0  0  0  0  0  0
   45.5590   32.8350   39.2090 C   0  0  0  0  0  0  0  0  0  0  0  0
   45.5840   33.3820   40.4520 N   0  0  0  0  0  0  0  0  0  0  0  0
   46.6460   34.1530   40.7880 C   0  0  0  0  0  0  0  0  0  0  0  0
   48.6800   34.0260   37.6880 N   0  0  0  0  0  0  0  0  0  0  0  0
   44.0232   37.0564   44.6323 H   0  0  0  0  0  0  0  0  0  0  0  0
   45.3583   36.8215   42.4886 H   0  0  0  0  0  0  0  0  0  0  0  0
   44.3818   33.2723   47.8365 H   0  0  0  0  0  0  0  0  0  0  0  0
   45.5400   30.9765   48.6514 H   0  0  0  0  0  0  0  0  0  0  0  0
   47.6521   33.7181   43.7621 H   0  0  0  0  0  0  0  0  0  0  0  0
   49.2793   32.8979   42.0592 H   0  0  0  0  0  0  0  0  0  0  0  0
   49.1742   29.1116   43.9131 H   0  0  0  0  0  0  0  0  0  0  0  0
   48.6495   36.0548   42.4545 H   0  0  0  0  0  0  0  0  0  0  0  0
   44.7042   32.2062   38.9192 H   0  0  0  0  0  0  0  0  0  0  0  0
   48.6383   33.5997   36.7513 H   0  0  0  0  0  0  0  0  0  0  0  0
   49.4839   34.6138   37.9510 H   0  0  0  0  0  0  0  0  0  0  0  0
  1  6  2  0
  2  1  1  0
  3  2  2  0
  3  4  1  0
  4  5  2  0
  5  6  1  0
  5  7  1  0
  7  8  1  0
  8  9  2  0
 10  9  1  0
 11  7  1  0
 11 10  2  0
 12 18  1  0
 12 11  1  0
 13 12  1  0
 14 15  1  0
 14 13  2  0
 15 17  1  0
 16 15  2  0
 17 18  1  0
 18 19  2  0
 20  3  1  0
 21 20  1  0
 22 21  2  0
 23 22  1  0
 23 28  2  0
 24 23  1  0
 25 24  2  0
 25 26  1  0
 26 27  2  0
 27 28  1  0
 28 20  1  0
 29 24  1  0
  1 30  1  0
  2 31  1  0
  8 32  1  0
  9 33  1  0
 13 34  1  0
 14 35  1  0
 17 36  1  0
 21 37  1  0
 26 38  1  0
 29 39  1  0
 29 40  1  0
M  END
>  <Score>  (1) 
-7.26324

$$$$
