
     RDKit          3D

 48 50  0  0  0  0  0  0  0  0999 V2000
   50.7520   33.0810   42.0450 C   0  0  0  0  0  0  0  0  0  0  0  0
   50.7600   31.6910   41.9460 C   0  0  0  0  0  0  0  0  0  0  0  0
   49.6360   31.0200   42.4070 C   0  0  0  0  0  0  0  0  0  0  0  0
   48.6020   31.7520   42.9250 N   0  0  0  0  0  0  0  0  0  0  0  0
   48.6360   33.0930   43.0030 C   0  0  0  0  0  0  0  0  0  0  0  0
   49.6930   33.7240   42.5690 N   0  0  0  0  0  0  0  0  0  0  0  0
   47.4820   33.6860   43.5660 N   0  0  0  0  0  0  0  0  0  0  0  0
   47.0880   33.2010   44.7580 C   0  0  0  0  0  0  0  0  0  0  0  0
   45.9770   33.7060   45.4080 C   0  0  0  0  0  0  0  0  0  0  0  0
   45.2630   34.7370   44.8070 C   0  0  0  0  0  0  0  0  0  0  0  0
   44.2500   35.2280   45.3600 O   0  0  0  0  0  0  0  0  0  0  0  0
   45.6780   35.2130   43.6060 N   0  0  0  0  0  0  0  0  0  0  0  0
   46.7630   34.6940   43.0030 C   0  0  0  0  0  0  0  0  0  0  0  0
   47.1760   35.1100   41.8880 O   0  0  0  0  0  0  0  0  0  0  0  0
   45.5490   33.1470   46.7250 C   0  0  0  0  0  0  0  0  0  0  0  0
   44.9170   36.2790   43.0090 C   0  0  0  0  0  0  0  0  0  0  0  0
   44.0050   35.7290   41.9940 C   0  0  0  0  0  0  0  0  0  0  0  0
   42.7000   35.2900   42.4250 N   0  0  0  0  0  0  0  0  0  0  0  0
   41.5940   35.3240   41.5660 C   0  0  0  0  0  0  0  0  0  0  0  0
   40.9490   36.4020   41.1960 O   0  0  0  0  0  0  0  0  0  0  0  0
   40.9370   34.1620   40.9210 N   0  0  0  0  0  0  0  0  0  0  0  0
   39.6740   33.5580   41.2750 C   0  0  0  0  0  0  0  0  0  0  0  0
   38.6510   33.9560   40.2470 C   0  0  0  0  0  0  0  0  0  0  0  0
   39.2120   33.7380   38.8610 C   0  0  0  0  0  0  0  0  0  0  0  0
   40.4770   32.9090   38.8980 C   0  0  0  0  0  0  0  0  0  0  0  0
   41.5370   33.4740   39.8000 C   0  0  0  0  0  0  0  0  0  0  0  0
   51.6195   33.6576   41.6915 H   0  0  0  0  0  0  0  0  0  0  0  0
   51.6186   31.1500   41.5216 H   0  0  0  0  0  0  0  0  0  0  0  0
   49.5774   29.9227   42.3571 H   0  0  0  0  0  0  0  0  0  0  0  0
   47.6614   32.3864   45.2246 H   0  0  0  0  0  0  0  0  0  0  0  0
   45.9999   33.7359   47.5373 H   0  0  0  0  0  0  0  0  0  0  0  0
   44.4528   33.1927   46.8039 H   0  0  0  0  0  0  0  0  0  0  0  0
   45.8790   32.1006   46.8039 H   0  0  0  0  0  0  0  0  0  0  0  0
   44.3320   36.7909   43.7872 H   0  0  0  0  0  0  0  0  0  0  0  0
   45.6036   36.9942   42.5325 H   0  0  0  0  0  0  0  0  0  0  0  0
   44.5072   34.8636   41.5371 H   0  0  0  0  0  0  0  0  0  0  0  0
   43.8025   36.5736   41.3189 H   0  0  0  0  0  0  0  0  0  0  0  0
   42.5787   34.9433   43.3873 H   0  0  0  0  0  0  0  0  0  0  0  0
   39.7777   32.4630   41.2910 H   0  0  0  0  0  0  0  0  0  0  0  0
   39.3591   33.8989   42.2723 H   0  0  0  0  0  0  0  0  0  0  0  0
   37.7458   33.3443   40.3757 H   0  0  0  0  0  0  0  0  0  0  0  0
   38.3991   35.0190   40.3755 H   0  0  0  0  0  0  0  0  0  0  0  0
   39.4383   34.7152   38.4094 H   0  0  0  0  0  0  0  0  0  0  0  0
   38.4617   33.1958   38.2668 H   0  0  0  0  0  0  0  0  0  0  0  0
   40.2213   31.8991   39.2511 H   0  0  0  0  0  0  0  0  0  0  0  0
   40.8895   32.9022   37.8783 H   0  0  0  0  0  0  0  0  0  0  0  0
   42.1677   32.6542   40.1744 H   0  0  0  0  0  0  0  0  0  0  0  0
   42.1446   34.1906   39.2279 H   0  0  0  0  0  0  0  0  0  0  0  0
  1  6  2  0
  2  1  1  0
  2  3  2  0
  3  4  1  0
  4  5  2  0
  5  7  1  0
  6  5  1  0
  7  8  1  0
  8  9  2  0
  9 15  1  0
 10 11  2  0
 10  9  1  0
 12 10  1  0
 13  7  1  0
 13 12  1  0
 14 13  2  0
 16 12  1  0
 17 18  1  0
 17 16  1  0
 19 18  1  0
 20 19  2  0
 21 22  1  0
 21 19  1  0
 23 22  1  0
 24 25  1  0
 24 23  1  0
 25 26  1  0
 26 21  1  0
  1 27  1  0
  2 28  1  0
  3 29  1  0
  8 30  1  0
 15 31  1  0
 15 32  1  0
 15 33  1  0
 16 34  1  0
 16 35  1  0
 17 36  1  0
 17 37  1  0
 18 38  1  0
 22 39  1  0
 22 40  1  0
 23 41  1  0
 23 42  1  0
 24 43  1  0
 24 44  1  0
 25 45  1  0
 25 46  1  0
 26 47  1  0
 26 48  1  0
M  END
>  <Score>  (1) 
-7.18635

$$$$
