
     RDKit          3D

 54 59  0  0  1  0  0  0  0  0999 V2000
   46.2470   33.5870   44.7070 C   0  0  2  0  0  0  0  0  0  0  0  0
   45.0220   34.4880   44.8700 C   0  0  0  0  0  0  0  0  0  0  0  0
   44.9550   35.6210   43.9840 C   0  0  0  0  0  0  0  0  0  0  0  0
   45.9990   35.8940   42.9900 C   0  0  0  0  0  0  0  0  0  0  0  0
   47.1010   34.9210   42.9250 C   0  0  1  0  0  0  0  0  0  0  0  0
   46.7150   33.5560   43.2940 C   0  0  0  0  0  0  0  0  0  0  0  0
   47.6550   34.8830   41.5460 C   0  0  0  0  0  0  0  0  0  0  0  0
   48.8000   35.5220   41.0890 C   0  0  0  0  0  0  0  0  0  0  0  0
   48.8710   35.1810   39.7960 N   0  0  0  0  0  0  0  0  0  0  0  0
   47.8540   34.3760   39.4110 C   0  0  0  0  0  0  0  0  0  0  0  0
   47.6050   33.8250   38.1540 C   0  0  0  0  0  0  0  0  0  0  0  0
   46.4860   33.0430   38.0960 C   0  0  0  0  0  0  0  0  0  0  0  0
   45.6370   32.7870   39.1560 C   0  0  0  0  0  0  0  0  0  0  0  0
   45.9740   33.3830   40.3610 C   0  0  0  0  0  0  0  0  0  0  0  0
   47.0810   34.1940   40.5480 C   0  0  0  0  0  0  0  0  0  0  0  0
   45.7730   32.1300   46.6550 C   0  0  0  0  0  0  0  0  0  0  0  0
   45.9250   32.2570   45.2750 C   0  0  0  0  0  0  0  0  0  0  0  0
   45.7840   31.0970   44.4640 C   0  0  0  0  0  0  0  0  0  0  0  0
   45.5090   29.9300   45.1060 N   0  0  0  0  0  0  0  0  0  0  0  0
   45.3680   29.8310   46.4270 C   0  0  0  0  0  0  0  0  0  0  0  0
   45.4990   30.9180   47.1810 N   0  0  0  0  0  0  0  0  0  0  0  0
   45.0770   28.4540   46.8070 C   0  0  0  0  0  0  0  0  0  0  0  0
   45.9580   27.6780   47.5240 C   0  0  0  0  0  0  0  0  0  0  0  0
   45.7280   26.3740   47.9050 C   0  0  0  0  0  0  0  0  0  0  0  0
   44.5470   25.7590   47.5670 C   0  0  0  0  0  0  0  0  0  0  0  0
   43.6260   26.4870   46.8480 C   0  0  0  0  0  0  0  0  0  0  0  0
   42.4510   25.8500   46.5210 C   0  0  0  0  0  0  0  0  0  0  0  0
   41.4770   26.5080   45.8020 C   0  0  0  0  0  0  0  0  0  0  0  0
   41.7300   27.8220   45.4280 C   0  0  0  0  0  0  0  0  0  0  0  0
   42.9260   28.3970   45.7890 C   0  0  0  0  0  0  0  0  0  0  0  0
   43.9260   27.7850   46.5020 C   0  0  0  0  0  0  0  0  0  0  0  0
   47.1048   33.9883   45.2665 H   0  0  0  0  0  0  0  0  0  0  0  0
   44.2411   34.2833   45.6172 H   0  0  0  0  0  0  0  0  0  0  0  0
   44.0947   36.3028   44.0545 H   0  0  0  0  0  0  0  0  0  0  0  0
   45.5204   35.9264   42.0001 H   0  0  0  0  0  0  0  0  0  0  0  0
   46.4607   36.8433   43.2994 H   0  0  0  0  0  0  0  0  0  0  0  0
   47.8445   35.2646   43.6593 H   0  0  0  0  0  0  0  0  0  0  0  0
   45.9047   33.2051   42.6381 H   0  0  0  0  0  0  0  0  0  0  0  0
   47.5681   32.8703   43.1846 H   0  0  0  0  0  0  0  0  0  0  0  0
   49.4904   36.1616   41.6585 H   0  0  0  0  0  0  0  0  0  0  0  0
   49.6192   35.4974   39.1628 H   0  0  0  0  0  0  0  0  0  0  0  0
   48.2538   34.0046   37.2841 H   0  0  0  0  0  0  0  0  0  0  0  0
   46.2414   32.5803   37.1285 H   0  0  0  0  0  0  0  0  0  0  0  0
   44.7474   32.1487   39.0497 H   0  0  0  0  0  0  0  0  0  0  0  0
   45.3192   33.1999   41.2257 H   0  0  0  0  0  0  0  0  0  0  0  0
   45.8754   33.0089   47.3084 H   0  0  0  0  0  0  0  0  0  0  0  0
   45.8922   31.1416   43.3702 H   0  0  0  0  0  0  0  0  0  0  0  0
   46.9168   28.1320   47.8146 H   0  0  0  0  0  0  0  0  0  0  0  0
   46.4894   25.8259   48.4793 H   0  0  0  0  0  0  0  0  0  0  0  0
   44.3439   24.7187   47.8613 H   0  0  0  0  0  0  0  0  0  0  0  0
   42.2882   24.8086   46.8356 H   0  0  0  0  0  0  0  0  0  0  0  0
   40.5331   26.0109   45.5338 H   0  0  0  0  0  0  0  0  0  0  0  0
   40.9862   28.3928   44.8528 H   0  0  0  0  0  0  0  0  0  0  0  0
   43.0958   29.4387   45.4791 H   0  0  0  0  0  0  0  0  0  0  0  0
  1  2  1  0
  1 17  1  0
  3  2  2  0
  4  3  1  0
  5  4  1  0
  5  6  1  0
  6  1  1  0
  7  5  1  0
  8  7  2  0
  9  8  1  0
 10  9  1  0
 10 15  2  0
 11 10  1  0
 12 11  2  0
 12 13  1  0
 13 14  2  0
 14 15  1  0
 15  7  1  0
 16 21  2  0
 17 16  1  0
 18 19  1  0
 18 17  2  0
 19 20  2  0
 20 22  1  0
 20 21  1  0
 22 23  2  0
 23 24  1  0
 25 24  2  0
 26 25  1  0
 27 26  2  0
 28 27  1  0
 29 30  1  0
 29 28  2  0
 30 31  2  0
 31 22  1  0
 31 26  1  0
  1 32  1  1
  2 33  1  0
  3 34  1  0
  4 35  1  0
  4 36  1  0
  5 37  1  1
  6 38  1  0
  6 39  1  0
  8 40  1  0
  9 41  1  0
 11 42  1  0
 12 43  1  0
 13 44  1  0
 14 45  1  0
 16 46  1  0
 18 47  1  0
 23 48  1  0
 24 49  1  0
 25 50  1  0
 27 51  1  0
 28 52  1  0
 29 53  1  0
 30 54  1  0
M  END
>  <Score>  (1) 
-7.52934

$$$$
