
     RDKit          3D

 50 54  0  0  1  0  0  0  0  0999 V2000
   43.8970   34.3640   40.4980 C   0  0  2  0  0  0  0  0  0  0  0  0
   42.3560   34.5710   40.4720 C   0  0  0  0  0  0  0  0  0  0  0  0
   42.2390   35.0440   39.0190 C   0  0  0  0  0  0  0  0  0  0  0  0
   43.1360   34.1040   38.3070 C   0  0  0  0  0  0  0  0  0  0  0  0
   44.0480   33.4690   39.3680 C   0  0  1  0  0  0  0  0  0  0  0  0
   45.1090   34.8280   42.5910 C   0  0  0  0  0  0  0  0  0  0  0  0
   44.3910   33.9210   41.8000 C   0  0  0  0  0  0  0  0  0  0  0  0
   44.1770   32.6070   42.2640 C   0  0  0  0  0  0  0  0  0  0  0  0
   44.6810   32.2540   43.4820 N   0  0  0  0  0  0  0  0  0  0  0  0
   45.3800   33.1740   44.2270 C   0  0  0  0  0  0  0  0  0  0  0  0
   45.5940   34.4500   43.7890 N   0  0  0  0  0  0  0  0  0  0  0  0
   45.8950   32.7720   45.4960 N   0  0  0  0  0  0  0  0  0  0  0  0
   46.7470   31.7080   45.4770 C   0  0  0  0  0  0  0  0  0  0  0  0
   47.2760   31.2750   46.6820 C   0  0  0  0  0  0  0  0  0  0  0  0
   48.2100   30.1030   46.6130 C   0  0  0  0  0  0  0  0  0  0  0  0
   46.9970   31.8500   47.9090 C   0  0  0  0  0  0  0  0  0  0  0  0
   47.4870   31.4410   48.9820 O   0  0  0  0  0  0  0  0  0  0  0  0
   46.1560   32.8800   47.8210 N   0  0  0  0  0  0  0  0  0  0  0  0
   45.6120   33.3430   46.6800 C   0  0  0  0  0  0  0  0  0  0  0  0
   44.8180   34.3190   46.6230 O   0  0  0  0  0  0  0  0  0  0  0  0
   45.3650   33.2760   38.8300 N   0  0  0  0  0  0  0  0  0  0  0  0
   46.5060   33.2750   39.5580 C   0  0  0  0  0  0  0  0  0  0  0  0
   47.5620   33.0760   38.7720 N   0  0  0  0  0  0  0  0  0  0  0  0
   47.0720   32.9490   37.5220 C   0  0  0  0  0  0  0  0  0  0  0  0
   47.7660   32.7310   36.3520 C   0  0  0  0  0  0  0  0  0  0  0  0
   49.0290   32.6210   36.3420 O   0  0  0  0  0  0  0  0  0  0  0  0
   47.0440   32.6430   35.2220 N   0  0  0  0  0  0  0  0  0  0  0  0
   45.6790   32.7620   35.2280 C   0  0  0  0  0  0  0  0  0  0  0  0
   45.0410   32.6530   33.9560 N   0  0  0  0  0  0  0  0  0  0  0  0
   45.0350   32.9760   36.4030 N   0  0  0  0  0  0  0  0  0  0  0  0
   45.6970   33.0730   37.5530 C   0  0  0  0  0  0  0  0  0  0  0  0
   44.5228   35.2622   40.3901 H   0  0  0  0  0  0  0  0  0  0  0  0
   41.8053   33.6362   40.6532 H   0  0  0  0  0  0  0  0  0  0  0  0
   41.9427   35.2442   41.2375 H   0  0  0  0  0  0  0  0  0  0  0  0
   41.2044   34.9601   38.6550 H   0  0  0  0  0  0  0  0  0  0  0  0
   42.5074   36.1013   38.8773 H   0  0  0  0  0  0  0  0  0  0  0  0
   42.5448   33.3262   37.8016 H   0  0  0  0  0  0  0  0  0  0  0  0
   43.7273   34.6271   37.5410 H   0  0  0  0  0  0  0  0  0  0  0  0
   43.7980   32.4484   39.6933 H   0  0  0  0  0  0  0  0  0  0  0  0
   45.2772   35.8539   42.2315 H   0  0  0  0  0  0  0  0  0  0  0  0
   43.6155   31.8816   41.6569 H   0  0  0  0  0  0  0  0  0  0  0  0
   47.0069   31.2078   44.5324 H   0  0  0  0  0  0  0  0  0  0  0  0
   48.4680   29.7793   47.6321 H   0  0  0  0  0  0  0  0  0  0  0  0
   47.7210   29.2755   46.0781 H   0  0  0  0  0  0  0  0  0  0  0  0
   49.1258   30.3950   46.0781 H   0  0  0  0  0  0  0  0  0  0  0  0
   45.9019   33.3603   48.6960 H   0  0  0  0  0  0  0  0  0  0  0  0
   46.5541   33.4186   40.6475 H   0  0  0  0  0  0  0  0  0  0  0  0
   47.5294   32.4819   34.3280 H   0  0  0  0  0  0  0  0  0  0  0  0
   44.0165   32.7326   33.8852 H   0  0  0  0  0  0  0  0  0  0  0  0
   45.6050   32.4947   33.1088 H   0  0  0  0  0  0  0  0  0  0  0  0
  1  7  1  0
  2  1  1  0
  3  2  1  0
  4  3  1  0
  4  5  1  0
  5  1  1  0
  6 11  2  0
  7  8  2  0
  7  6  1  0
  8  9  1  0
  9 10  2  0
 10 12  1  0
 11 10  1  0
 12 19  1  0
 13 12  1  0
 13 14  2  0
 14 16  1  0
 15 14  1  0
 16 17  2  0
 18 16  1  0
 19 18  1  0
 20 19  2  0
 21  5  1  0
 21 22  1  0
 23 22  2  0
 24 31  2  0
 24 23  1  0
 25 24  1  0
 26 25  2  0
 27 28  1  0
 27 25  1  0
 28 30  2  0
 29 28  1  0
 30 31  1  0
 31 21  1  0
  1 32  1  6
  2 33  1  0
  2 34  1  0
  3 35  1  0
  3 36  1  0
  4 37  1  0
  4 38  1  0
  5 39  1  1
  6 40  1  0
  8 41  1  0
 13 42  1  0
 15 43  1  0
 15 44  1  0
 15 45  1  0
 18 46  1  0
 22 47  1  0
 27 48  1  0
 29 49  1  0
 29 50  1  0
M  END
>  <Score>  (1) 
-7.79622

$$$$
