
     RDKit          3D

 37 40  0  0  0  0  0  0  0  0999 V2000
   44.4730   35.8330   44.6470 C   0  0  0  0  0  0  0  0  0  0  0  0
   45.2360   35.7500   43.4540 C   0  0  0  0  0  0  0  0  0  0  0  0
   46.2190   34.7790   43.3760 C   0  0  0  0  0  0  0  0  0  0  0  0
   46.4170   33.9410   44.4460 N   0  0  0  0  0  0  0  0  0  0  0  0
   45.6630   34.0590   45.5630 C   0  0  0  0  0  0  0  0  0  0  0  0
   44.7010   34.9850   45.6810 N   0  0  0  0  0  0  0  0  0  0  0  0
   45.9250   33.1580   46.6320 N   0  0  0  0  0  0  0  0  0  0  0  0
   44.9580   33.0120   47.7070 C   0  0  0  0  0  0  0  0  0  0  0  0
   45.2190   31.6810   48.4100 C   0  0  0  0  0  0  0  0  0  0  0  0
   46.5150   31.7540   49.0080 N   0  0  0  0  0  0  0  0  0  0  0  0
   47.5690   32.0320   48.0810 C   0  0  0  0  0  0  0  0  0  0  0  0
   47.1300   32.3660   46.6940 C   0  0  0  0  0  0  0  0  0  0  0  0
   46.9700   34.7150   42.1710 N   0  0  0  0  0  0  0  0  0  0  0  0
   48.2080   35.2650   42.0640 C   0  0  0  0  0  0  0  0  0  0  0  0
   48.6600   35.0400   40.8110 N   0  0  0  0  0  0  0  0  0  0  0  0
   47.7190   34.3550   40.1320 C   0  0  0  0  0  0  0  0  0  0  0  0
   47.7020   33.8910   38.8340 C   0  0  0  0  0  0  0  0  0  0  0  0
   46.5820   33.2260   38.4550 N   0  0  0  0  0  0  0  0  0  0  0  0
   45.5430   33.0280   39.2960 C   0  0  0  0  0  0  0  0  0  0  0  0
   45.5860   33.4980   40.5770 N   0  0  0  0  0  0  0  0  0  0  0  0
   46.6620   34.1540   40.9920 C   0  0  0  0  0  0  0  0  0  0  0  0
   48.8140   34.1110   37.9590 N   0  0  0  0  0  0  0  0  0  0  0  0
   43.6853   36.5958   44.7349 H   0  0  0  0  0  0  0  0  0  0  0  0
   45.0517   36.4375   42.6153 H   0  0  0  0  0  0  0  0  0  0  0  0
   45.0705   33.8392   48.4233 H   0  0  0  0  0  0  0  0  0  0  0  0
   43.9354   33.0324   47.3021 H   0  0  0  0  0  0  0  0  0  0  0  0
   44.4574   31.5108   49.1853 H   0  0  0  0  0  0  0  0  0  0  0  0
   45.1717   30.8493   47.6916 H   0  0  0  0  0  0  0  0  0  0  0  0
   46.5026   32.5004   49.7177 H   0  0  0  0  0  0  0  0  0  0  0  0
   48.1461   32.8844   48.4689 H   0  0  0  0  0  0  0  0  0  0  0  0
   48.1531   31.1036   47.9988 H   0  0  0  0  0  0  0  0  0  0  0  0
   46.9535   31.4254   46.1516 H   0  0  0  0  0  0  0  0  0  0  0  0
   47.9310   32.9715   46.2449 H   0  0  0  0  0  0  0  0  0  0  0  0
   48.7479   35.8001   42.8590 H   0  0  0  0  0  0  0  0  0  0  0  0
   44.6542   32.4830   38.9451 H   0  0  0  0  0  0  0  0  0  0  0  0
   48.7860   33.7580   36.9918 H   0  0  0  0  0  0  0  0  0  0  0  0
   49.6419   34.6223   38.2968 H   0  0  0  0  0  0  0  0  0  0  0  0
  1  6  2  0
  2  1  1  0
  3  2  2  0
  3  4  1  0
  4  5  2  0
  5  6  1  0
  5  7  1  0
  7 12  1  0
  7  8  1  0
  8  9  1  0
  9 10  1  0
 11 10  1  0
 12 11  1  0
 13  3  1  0
 14 13  1  0
 15 14  2  0
 16 15  1  0
 16 21  2  0
 17 16  1  0
 18 17  2  0
 18 19  1  0
 19 20  2  0
 20 21  1  0
 21 13  1  0
 22 17  1  0
  1 23  1  0
  2 24  1  0
  8 25  1  0
  8 26  1  0
  9 27  1  0
  9 28  1  0
 10 29  1  0
 11 30  1  0
 11 31  1  0
 12 32  1  0
 12 33  1  0
 14 34  1  0
 19 35  1  0
 22 36  1  0
 22 37  1  0
M  END
>  <Score>  (1) 
-7.06596

$$$$
