
     RDKit          3D

 52 56  0  0  0  0  0  0  0  0999 V2000
   46.2280   31.8270   47.2490 C   0  0  0  0  0  0  0  0  0  0  0  0
   44.5830   34.9140   46.2020 C   0  0  0  0  0  0  0  0  0  0  0  0
   44.8010   34.9500   44.8160 C   0  0  0  0  0  0  0  0  0  0  0  0
   45.5260   33.8950   44.2310 C   0  0  0  0  0  0  0  0  0  0  0  0
   45.9670   32.9130   45.0360 N   0  0  0  0  0  0  0  0  0  0  0  0
   45.7320   32.9160   46.3830 C   0  0  0  0  0  0  0  0  0  0  0  0
   45.0490   33.9080   46.9500 N   0  0  0  0  0  0  0  0  0  0  0  0
   45.7210   33.9700   42.8390 N   0  0  0  0  0  0  0  0  0  0  0  0
   44.9550   33.7980   41.7650 C   0  0  0  0  0  0  0  0  0  0  0  0
   45.6800   34.0010   40.6370 N   0  0  0  0  0  0  0  0  0  0  0  0
   46.9290   34.3090   40.9920 C   0  0  0  0  0  0  0  0  0  0  0  0
   48.0470   34.6050   40.2240 C   0  0  0  0  0  0  0  0  0  0  0  0
   48.0260   34.6220   38.9930 O   0  0  0  0  0  0  0  0  0  0  0  0
   49.2160   34.8880   40.8270 N   0  0  0  0  0  0  0  0  0  0  0  0
   49.2270   34.8660   42.1740 C   0  0  0  0  0  0  0  0  0  0  0  0
   50.4050   35.1480   42.9360 N   0  0  0  0  0  0  0  0  0  0  0  0
   48.1630   34.5840   42.9150 N   0  0  0  0  0  0  0  0  0  0  0  0
   46.9630   34.2920   42.3760 C   0  0  0  0  0  0  0  0  0  0  0  0
   47.3400   32.3200   48.1460 C   0  0  0  0  0  0  0  0  0  0  0  0
   45.1320   31.2330   48.1090 C   0  0  0  0  0  0  0  0  0  0  0  0
   46.8080   30.7560   46.3420 C   0  0  0  0  0  0  0  0  0  0  0  0
   46.2650   29.3890   46.6800 C   0  0  0  0  0  0  0  0  0  0  0  0
   47.0730   28.5100   47.3170 C   0  0  0  0  0  0  0  0  0  0  0  0
   46.0630   26.9910   47.5450 S   0  0  0  0  0  0  0  0  0  0  0  0
   44.6340   27.8750   46.6810 C   0  0  0  0  0  0  0  0  0  0  0  0
   45.0870   28.9140   46.4380 N   0  0  0  0  0  0  0  0  0  0  0  0
   43.2460   27.1960   46.4430 C   0  0  0  0  0  0  0  0  0  0  0  0
   42.4720   27.8880   45.5630 C   0  0  0  0  0  0  0  0  0  0  0  0
   41.2630   27.3120   45.3460 C   0  0  0  0  0  0  0  0  0  0  0  0
   40.8530   26.1250   45.9610 C   0  0  0  0  0  0  0  0  0  0  0  0
   41.7430   25.5090   46.8470 C   0  0  0  0  0  0  0  0  0  0  0  0
   43.0070   26.0450   47.1210 C   0  0  0  0  0  0  0  0  0  0  0  0
   44.0189   35.7275   46.6815 H   0  0  0  0  0  0  0  0  0  0  0  0
   44.4161   35.7793   44.2043 H   0  0  0  0  0  0  0  0  0  0  0  0
   43.8884   33.5300   41.7885 H   0  0  0  0  0  0  0  0  0  0  0  0
   50.0626   35.1110   40.2844 H   0  0  0  0  0  0  0  0  0  0  0  0
   50.3715   35.1207   43.9651 H   0  0  0  0  0  0  0  0  0  0  0  0
   51.2864   35.3783   42.4554 H   0  0  0  0  0  0  0  0  0  0  0  0
   47.0471   32.1901   49.1983 H   0  0  0  0  0  0  0  0  0  0  0  0
   48.2551   31.7433   47.9463 H   0  0  0  0  0  0  0  0  0  0  0  0
   47.5271   33.3854   47.9463 H   0  0  0  0  0  0  0  0  0  0  0  0
   45.3844   31.3698   49.1709 H   0  0  0  0  0  0  0  0  0  0  0  0
   44.1798   31.7385   47.8904 H   0  0  0  0  0  0  0  0  0  0  0  0
   45.0357   30.1593   47.8904 H   0  0  0  0  0  0  0  0  0  0  0  0
   47.9019   30.7443   46.4574 H   0  0  0  0  0  0  0  0  0  0  0  0
   46.5252   30.9923   45.3056 H   0  0  0  0  0  0  0  0  0  0  0  0
   48.1146   28.6706   47.6320 H   0  0  0  0  0  0  0  0  0  0  0  0
   42.7943   28.8205   45.0766 H   0  0  0  0  0  0  0  0  0  0  0  0
   40.5686   27.8047   44.6495 H   0  0  0  0  0  0  0  0  0  0  0  0
   39.8638   25.6903   45.7550 H   0  0  0  0  0  0  0  0  0  0  0  0
   41.4406   24.5752   47.3435 H   0  0  0  0  0  0  0  0  0  0  0  0
   43.7283   25.5831   47.8112 H   0  0  0  0  0  0  0  0  0  0  0  0
  1 20  1  0
  1 19  1  0
  2  7  2  0
  3  2  1  0
  4  3  2  0
  4  5  1  0
  5  6  2  0
  6  7  1  0
  6  1  1  0
  8  4  1  0
  9  8  1  0
 10 11  1  0
 10  9  2  0
 11 18  2  0
 12 14  1  0
 12 11  1  0
 13 12  2  0
 14 15  1  0
 15 17  2  0
 15 16  1  0
 18  8  1  0
 18 17  1  0
 21 22  1  0
 21  1  1  0
 22 23  2  0
 23 24  1  0
 25 24  1  0
 26 22  1  0
 26 25  2  0
 27 25  1  0
 27 32  1  0
 28 27  2  0
 29 28  1  0
 29 30  2  0
 30 31  1  0
 31 32  2  0
  2 33  1  0
  3 34  1  0
  9 35  1  0
 14 36  1  0
 16 37  1  0
 16 38  1  0
 19 39  1  0
 19 40  1  0
 19 41  1  0
 20 42  1  0
 20 43  1  0
 20 44  1  0
 21 45  1  0
 21 46  1  0
 23 47  1  0
 28 48  1  0
 29 49  1  0
 30 50  1  0
 31 51  1  0
 32 52  1  0
M  END
>  <Score>  (1) 
-7.72724

$$$$
