
     RDKit          3D

 33 36  0  0  0  0  0  0  0  0999 V2000
   45.4670   34.0260   41.7000 N   0  0  0  0  0  0  0  0  0  0  0  0
   46.6360   34.2290   41.1050 C   0  0  0  0  0  0  0  0  0  0  0  0
   46.4940   33.7000   39.8500 C   0  0  0  0  0  0  0  0  0  0  0  0
   45.2440   33.2010   39.7440 N   0  0  0  0  0  0  0  0  0  0  0  0
   44.6030   33.4040   40.9010 C   0  0  0  0  0  0  0  0  0  0  0  0
   43.2510   33.0100   41.1710 N   0  0  0  0  0  0  0  0  0  0  0  0
   42.6640   32.0030   41.8430 C   0  0  0  0  0  0  0  0  0  0  0  0
   41.3240   32.1530   41.7520 N   0  0  0  0  0  0  0  0  0  0  0  0
   41.0800   33.2520   41.0250 C   0  0  0  0  0  0  0  0  0  0  0  0
   39.8460   33.7760   40.6870 C   0  0  0  0  0  0  0  0  0  0  0  0
   39.8740   34.9090   39.9360 N   0  0  0  0  0  0  0  0  0  0  0  0
   41.0320   35.4700   39.5550 C   0  0  0  0  0  0  0  0  0  0  0  0
   42.1970   34.9410   39.8990 N   0  0  0  0  0  0  0  0  0  0  0  0
   42.2710   33.8070   40.6490 C   0  0  0  0  0  0  0  0  0  0  0  0
   44.4160   35.9810   44.7120 C   0  0  0  0  0  0  0  0  0  0  0  0
   44.6080   35.6770   43.3330 C   0  0  0  0  0  0  0  0  0  0  0  0
   45.2180   34.4470   43.0510 C   0  0  0  0  0  0  0  0  0  0  0  0
   45.5740   33.6520   44.0850 N   0  0  0  0  0  0  0  0  0  0  0  0
   45.3810   33.9670   45.3680 C   0  0  0  0  0  0  0  0  0  0  0  0
   44.7980   35.1390   45.6770 N   0  0  0  0  0  0  0  0  0  0  0  0
   45.8500   32.9440   46.3370 C   0  0  0  0  0  0  0  0  0  0  0  0
   47.1340   33.1650   46.7740 F   0  0  0  0  0  0  0  0  0  0  0  0
   45.7080   31.6970   45.7450 F   0  0  0  0  0  0  0  0  0  0  0  0
   45.0250   32.9700   47.4320 F   0  0  0  0  0  0  0  0  0  0  0  0
   38.5920   33.2230   41.0610 N   0  0  0  0  0  0  0  0  0  0  0  0
   47.5264   34.7167   41.5285 H   0  0  0  0  0  0  0  0  0  0  0  0
   47.2643   33.6843   39.0649 H   0  0  0  0  0  0  0  0  0  0  0  0
   43.1862   31.1948   42.3760 H   0  0  0  0  0  0  0  0  0  0  0  0
   41.0136   36.3858   38.9459 H   0  0  0  0  0  0  0  0  0  0  0  0
   43.9410   36.9336   44.9894 H   0  0  0  0  0  0  0  0  0  0  0  0
   44.2955   36.3677   42.5360 H   0  0  0  0  0  0  0  0  0  0  0  0
   37.7183   33.6807   40.7644 H   0  0  0  0  0  0  0  0  0  0  0  0
   38.5566   32.3644   41.6288 H   0  0  0  0  0  0  0  0  0  0  0  0
  1 17  1  0
  2  1  1  0
  3  2  2  0
  4  3  1  0
  4  5  2  0
  5  6  1  0
  5  1  1  0
  6  7  1  0
  8  7  2  0
  9  8  1  0
 10  9  2  0
 10 25  1  0
 11 10  1  0
 12 13  1  0
 12 11  2  0
 13 14  2  0
 14  9  1  0
 14  6  1  0
 15 20  2  0
 16 15  1  0
 17 16  2  0
 17 18  1  0
 18 19  2  0
 19 20  1  0
 19 21  1  0
 21 22  1  0
 21 24  1  0
 23 21  1  0
  2 26  1  0
  3 27  1  0
  7 28  1  0
 12 29  1  0
 15 30  1  0
 16 31  1  0
 25 32  1  0
 25 33  1  0
M  END
>  <Score>  (1) 
-7.05647

$$$$
