
     RDKit          3D

 46 51  0  0  0  0  0  0  0  0999 V2000
   44.5990   35.5990   44.6150 C   0  0  0  0  0  0  0  0  0  0  0  0
   44.3080   35.4360   43.2460 C   0  0  0  0  0  0  0  0  0  0  0  0
   44.7310   34.2720   42.6650 C   0  0  0  0  0  0  0  0  0  0  0  0
   45.3850   33.4020   43.4640 N   0  0  0  0  0  0  0  0  0  0  0  0
   45.6780   33.5290   44.7700 C   0  0  0  0  0  0  0  0  0  0  0  0
   45.2420   34.6500   45.2290 N   0  0  0  0  0  0  0  0  0  0  0  0
   46.3840   32.3970   45.3000 C   0  0  0  0  0  0  0  0  0  0  0  0
   47.2440   31.6300   44.5190 C   0  0  0  0  0  0  0  0  0  0  0  0
   47.9250   30.5410   44.9940 C   0  0  0  0  0  0  0  0  0  0  0  0
   47.7940   30.1410   46.2940 C   0  0  0  0  0  0  0  0  0  0  0  0
   46.9660   30.8660   47.0810 C   0  0  0  0  0  0  0  0  0  0  0  0
   46.8340   30.4560   48.4040 C   0  0  0  0  0  0  0  0  0  0  0  0
   46.0090   31.1430   49.2680 C   0  0  0  0  0  0  0  0  0  0  0  0
   45.3170   32.2480   48.7880 C   0  0  0  0  0  0  0  0  0  0  0  0
   45.5030   32.5820   47.4750 C   0  0  0  0  0  0  0  0  0  0  0  0
   46.2980   31.9470   46.5780 C   0  0  0  0  0  0  0  0  0  0  0  0
   44.4750   34.0040   41.2580 C   0  0  0  0  0  0  0  0  0  0  0  0
   45.4550   33.2780   40.4750 C   0  0  0  0  0  0  0  0  0  0  0  0
   44.6340   33.2080   38.7760 S   0  0  0  0  0  0  0  0  0  0  0  0
   43.1650   34.1560   39.4640 C   0  0  0  0  0  0  0  0  0  0  0  0
   43.4240   34.3320   40.5300 N   0  0  0  0  0  0  0  0  0  0  0  0
   41.9570   34.5470   38.6750 C   0  0  0  0  0  0  0  0  0  0  0  0
   41.8320   35.6780   37.8970 C   0  0  0  0  0  0  0  0  0  0  0  0
   40.5910   35.6060   37.3880 N   0  0  0  0  0  0  0  0  0  0  0  0
   39.9330   34.5080   37.7950 C   0  0  0  0  0  0  0  0  0  0  0  0
   38.6360   34.0990   37.4750 C   0  0  0  0  0  0  0  0  0  0  0  0
   38.2330   32.9130   38.0510 C   0  0  0  0  0  0  0  0  0  0  0  0
   39.0460   32.1750   38.8860 C   0  0  0  0  0  0  0  0  0  0  0  0
   40.3150   32.6630   39.1420 C   0  0  0  0  0  0  0  0  0  0  0  0
   40.8070   33.8280   38.6190 C   0  0  0  0  0  0  0  0  0  0  0  0
   44.2895   36.5078   45.1519 H   0  0  0  0  0  0  0  0  0  0  0  0
   43.7685   36.2051   42.6739 H   0  0  0  0  0  0  0  0  0  0  0  0
   47.3838   31.9134   43.4654 H   0  0  0  0  0  0  0  0  0  0  0  0
   48.5876   29.9797   44.3188 H   0  0  0  0  0  0  0  0  0  0  0  0
   48.3379   29.2678   46.6836 H   0  0  0  0  0  0  0  0  0  0  0  0
   47.3916   29.5781   48.7625 H   0  0  0  0  0  0  0  0  0  0  0  0
   45.9007   30.8234   50.3150 H   0  0  0  0  0  0  0  0  0  0  0  0
   44.6469   32.8304   49.4375 H   0  0  0  0  0  0  0  0  0  0  0  0
   44.9492   33.4585   47.1073 H   0  0  0  0  0  0  0  0  0  0  0  0
   46.4276   32.8719   40.7898 H   0  0  0  0  0  0  0  0  0  0  0  0
   42.5822   36.4650   37.7300 H   0  0  0  0  0  0  0  0  0  0  0  0
   40.1891   36.3134   36.7564 H   0  0  0  0  0  0  0  0  0  0  0  0
   37.9821   34.6824   36.8101 H   0  0  0  0  0  0  0  0  0  0  0  0
   37.2209   32.5397   37.8357 H   0  0  0  0  0  0  0  0  0  0  0  0
   38.6977   31.2319   39.3325 H   0  0  0  0  0  0  0  0  0  0  0  0
   40.9685   32.0788   39.8066 H   0  0  0  0  0  0  0  0  0  0  0  0
  1  6  2  0
  2  1  1  0
  3  2  2  0
  3  4  1  0
  4  5  2  0
  5  6  1  0
  5  7  1  0
  7 16  2  0
  8  9  2  0
  8  7  1  0
  9 10  1  0
 10 11  2  0
 11 12  1  0
 12 13  2  0
 14 13  1  0
 15 14  2  0
 16 11  1  0
 16 15  1  0
 17  3  1  0
 18 17  2  0
 19 20  1  0
 19 18  1  0
 20 21  2  0
 21 17  1  0
 22 20  1  0
 23 22  2  0
 24 25  1  0
 24 23  1  0
 25 30  2  0
 26 25  1  0
 26 27  2  0
 27 28  1  0
 28 29  2  0
 30 22  1  0
 30 29  1  0
  1 31  1  0
  2 32  1  0
  8 33  1  0
  9 34  1  0
 10 35  1  0
 12 36  1  0
 13 37  1  0
 14 38  1  0
 15 39  1  0
 18 40  1  0
 23 41  1  0
 24 42  1  0
 26 43  1  0
 27 44  1  0
 28 45  1  0
 29 46  1  0
M  END
>  <Score>  (1) 
-8.13488

$$$$
