
     RDKit          3D

 41 45  0  0  0  0  0  0  0  0999 V2000
   46.0220   34.0810   40.9060 C   0  0  0  0  0  0  0  0  0  0  0  0
   46.5200   34.8150   42.0000 C   0  0  0  0  0  0  0  0  0  0  0  0
   47.8020   35.3340   41.9670 C   0  0  0  0  0  0  0  0  0  0  0  0
   48.5410   35.1050   40.8530 N   0  0  0  0  0  0  0  0  0  0  0  0
   48.0410   34.3870   39.7970 C   0  0  0  0  0  0  0  0  0  0  0  0
   46.7980   33.8950   39.8500 N   0  0  0  0  0  0  0  0  0  0  0  0
   45.7840   35.0770   43.1830 N   0  0  0  0  0  0  0  0  0  0  0  0
   44.8920   36.0040   43.5880 C   0  0  0  0  0  0  0  0  0  0  0  0
   44.5030   35.7650   44.8540 N   0  0  0  0  0  0  0  0  0  0  0  0
   45.1470   34.6680   45.2870 C   0  0  0  0  0  0  0  0  0  0  0  0
   45.0380   34.0790   46.5240 C   0  0  0  0  0  0  0  0  0  0  0  0
   45.7980   32.9760   46.7080 N   0  0  0  0  0  0  0  0  0  0  0  0
   46.6020   32.5170   45.7030 C   0  0  0  0  0  0  0  0  0  0  0  0
   46.6680   33.1380   44.5080 N   0  0  0  0  0  0  0  0  0  0  0  0
   45.9300   34.2580   44.2460 C   0  0  0  0  0  0  0  0  0  0  0  0
   44.6560   33.5960   41.0850 C   0  0  0  0  0  0  0  0  0  0  0  0
   43.6420   34.4550   40.3470 C   0  0  0  0  0  0  0  0  0  0  0  0
   42.3440   33.7740   40.4720 C   0  0  0  0  0  0  0  0  0  0  0  0
   42.1380   32.8770   41.4560 N   0  0  0  0  0  0  0  0  0  0  0  0
   40.9740   32.2150   41.5660 C   0  0  0  0  0  0  0  0  0  0  0  0
   39.9360   32.4010   40.7050 N   0  0  0  0  0  0  0  0  0  0  0  0
   40.1120   33.2820   39.7230 C   0  0  0  0  0  0  0  0  0  0  0  0
   39.0860   33.5260   38.8120 C   0  0  0  0  0  0  0  0  0  0  0  0
   39.2360   34.4520   37.7750 C   0  0  0  0  0  0  0  0  0  0  0  0
   40.4340   35.1170   37.6830 C   0  0  0  0  0  0  0  0  0  0  0  0
   41.4650   34.9080   38.5540 C   0  0  0  0  0  0  0  0  0  0  0  0
   41.3010   33.9930   39.5670 C   0  0  0  0  0  0  0  0  0  0  0  0
   48.2066   35.9104   42.8120 H   0  0  0  0  0  0  0  0  0  0  0  0
   48.6624   34.2155   38.9057 H   0  0  0  0  0  0  0  0  0  0  0  0
   44.5324   36.8395   42.9694 H   0  0  0  0  0  0  0  0  0  0  0  0
   44.3786   34.4771   47.3093 H   0  0  0  0  0  0  0  0  0  0  0  0
   47.2114   31.6172   45.8733 H   0  0  0  0  0  0  0  0  0  0  0  0
   44.5926   32.5662   40.7037 H   0  0  0  0  0  0  0  0  0  0  0  0
   44.4193   33.6399   42.1583 H   0  0  0  0  0  0  0  0  0  0  0  0
   43.9220   34.5466   39.2872 H   0  0  0  0  0  0  0  0  0  0  0  0
   43.5998   35.4699   40.7692 H   0  0  0  0  0  0  0  0  0  0  0  0
   40.8547   31.4921   42.3865 H   0  0  0  0  0  0  0  0  0  0  0  0
   38.1373   32.9781   38.9109 H   0  0  0  0  0  0  0  0  0  0  0  0
   38.4232   34.6411   37.0583 H   0  0  0  0  0  0  0  0  0  0  0  0
   40.5690   35.8492   36.8733 H   0  0  0  0  0  0  0  0  0  0  0  0
   42.4094   35.4617   38.4470 H   0  0  0  0  0  0  0  0  0  0  0  0
  1 16  1  0
  1  2  1  0
  2  7  1  0
  3  2  2  0
  4  3  1  0
  5  6  1  0
  5  4  2  0
  6  1  2  0
  7  8  1  0
  7 15  1  0
  8  9  2  0
  9 10  1  0
 10 11  2  0
 11 12  1  0
 13 12  2  0
 14 13  1  0
 15 14  2  0
 15 10  1  0
 17 18  1  0
 17 16  1  0
 18 19  2  0
 19 20  1  0
 21 20  2  0
 22 21  1  0
 23 22  2  0
 24 23  1  0
 25 24  2  0
 25 26  1  0
 26 27  2  0
 27 22  1  0
 27 18  1  0
  3 28  1  0
  5 29  1  0
  8 30  1  0
 11 31  1  0
 13 32  1  0
 16 33  1  0
 16 34  1  0
 17 35  1  0
 17 36  1  0
 20 37  1  0
 23 38  1  0
 24 39  1  0
 25 40  1  0
 26 41  1  0
M  END
>  <Score>  (1) 
-7.1129

$$$$
