
     RDKit          3D

 52 56  0  0  1  0  0  0  0  0999 V2000
   48.3400   30.9030   48.0110 C   0  0  2  0  0  0  0  0  0  0  0  0
   46.9400   32.1330   46.3110 C   0  0  2  0  0  0  0  0  0  0  0  0
   46.5150   30.6920   46.1250 C   0  0  0  0  0  0  0  0  0  0  0  0
   47.0240   31.1270   47.4300 C   0  0  1  0  0  0  0  0  0  0  0  0
   45.8320   33.1630   46.4370 C   0  0  0  0  0  0  0  0  0  0  0  0
   45.1520   33.0970   47.5210 O   0  0  0  0  0  0  0  0  0  0  0  0
   44.5110   35.9750   44.5520 C   0  0  0  0  0  0  0  0  0  0  0  0
   45.1690   35.8870   43.3190 C   0  0  0  0  0  0  0  0  0  0  0  0
   46.0810   34.8340   43.1700 C   0  0  0  0  0  0  0  0  0  0  0  0
   46.2450   34.0030   44.2200 N   0  0  0  0  0  0  0  0  0  0  0  0
   45.5910   34.1220   45.3940 C   0  0  0  0  0  0  0  0  0  0  0  0
   44.6990   35.1270   45.5770 N   0  0  0  0  0  0  0  0  0  0  0  0
   49.0420   29.6890   47.4450 C   0  0  0  0  0  0  0  0  0  0  0  0
   48.2650   30.7260   49.5040 C   0  0  0  0  0  0  0  0  0  0  0  0
   49.5340   30.3450   50.1420 C   0  0  0  0  0  0  0  0  0  0  0  0
   50.1230   29.1110   50.2870 C   0  0  0  0  0  0  0  0  0  0  0  0
   51.3140   28.9560   50.9080 C   0  0  0  0  0  0  0  0  0  0  0  0
   51.9240   30.0370   51.3890 N   0  0  0  0  0  0  0  0  0  0  0  0
   51.4030   31.2850   51.2840 C   0  0  0  0  0  0  0  0  0  0  0  0
   50.2100   31.3910   50.6540 N   0  0  0  0  0  0  0  0  0  0  0  0
   51.9490   32.5640   51.7570 C   0  0  0  0  0  0  0  0  0  0  0  0
   52.3180   33.5590   50.8420 C   0  0  0  0  0  0  0  0  0  0  0  0
   52.8320   34.7720   51.2180 C   0  0  0  0  0  0  0  0  0  0  0  0
   53.0130   35.0690   52.5450 C   0  0  0  0  0  0  0  0  0  0  0  0
   52.6680   34.1330   53.4770 C   0  0  0  0  0  0  0  0  0  0  0  0
   52.8500   34.4350   54.8100 C   0  0  0  0  0  0  0  0  0  0  0  0
   52.5220   33.5290   55.7960 C   0  0  0  0  0  0  0  0  0  0  0  0
   51.9990   32.3010   55.3750 C   0  0  0  0  0  0  0  0  0  0  0  0
   51.8360   32.0470   54.0330 C   0  0  0  0  0  0  0  0  0  0  0  0
   52.1570   32.9350   53.0440 C   0  0  0  0  0  0  0  0  0  0  0  0
   48.9157   31.8044   47.7541 H   0  0  0  0  0  0  0  0  0  0  0  0
   47.6340   32.8168   45.8003 H   0  0  0  0  0  0  0  0  0  0  0  0
   45.4494   30.4458   46.0068 H   0  0  0  0  0  0  0  0  0  0  0  0
   46.7811   29.8921   45.4184 H   0  0  0  0  0  0  0  0  0  0  0  0
   46.6153   30.9499   48.4358 H   0  0  0  0  0  0  0  0  0  0  0  0
   43.7907   36.7947   44.6909 H   0  0  0  0  0  0  0  0  0  0  0  0
   44.9796   36.6073   42.5095 H   0  0  0  0  0  0  0  0  0  0  0  0
   46.6410   34.6905   42.2342 H   0  0  0  0  0  0  0  0  0  0  0  0
   49.4065   29.0586   48.2695 H   0  0  0  0  0  0  0  0  0  0  0  0
   48.3375   29.1131   46.8269 H   0  0  0  0  0  0  0  0  0  0  0  0
   49.8926   30.0123   46.8269 H   0  0  0  0  0  0  0  0  0  0  0  0
   47.9314   31.6767   49.9454 H   0  0  0  0  0  0  0  0  0  0  0  0
   47.5654   29.8964   49.6838 H   0  0  0  0  0  0  0  0  0  0  0  0
   49.6104   28.2242   49.8861 H   0  0  0  0  0  0  0  0  0  0  0  0
   51.7683   27.9598   51.0133 H   0  0  0  0  0  0  0  0  0  0  0  0
   52.1886   33.3561   49.7686 H   0  0  0  0  0  0  0  0  0  0  0  0
   53.1014   35.5127   50.4507 H   0  0  0  0  0  0  0  0  0  0  0  0
   53.4273   36.0408   52.8516 H   0  0  0  0  0  0  0  0  0  0  0  0
   53.2636   35.4147   55.0913 H   0  0  0  0  0  0  0  0  0  0  0  0
   52.6644   33.7601   56.8620 H   0  0  0  0  0  0  0  0  0  0  0  0
   51.7184   31.5391   56.1171 H   0  0  0  0  0  0  0  0  0  0  0  0
   51.4227   31.0713   53.7378 H   0  0  0  0  0  0  0  0  0  0  0  0
  1 14  1  0
  2  5  1  0
  2  4  1  0
  3  2  1  0
  3  4  1  0
  4  1  1  0
  5  6  2  0
  7 12  2  0
  8  7  1  0
  9  8  2  0
  9 10  1  0
 10 11  2  0
 11 12  1  0
 11  5  1  0
 13  1  1  0
 14 15  1  0
 15 16  2  0
 15 20  1  0
 16 17  1  0
 17 18  2  0
 19 18  1  0
 19 21  1  0
 20 19  2  0
 21 30  2  0
 22 23  2  0
 22 21  1  0
 23 24  1  0
 24 25  2  0
 25 26  1  0
 26 27  2  0
 28 27  1  0
 29 28  2  0
 30 25  1  0
 30 29  1  0
  1 31  1  1
  2 32  1  6
  3 33  1  0
  3 34  1  0
  4 35  1  1
  7 36  1  0
  8 37  1  0
  9 38  1  0
 13 39  1  0
 13 40  1  0
 13 41  1  0
 14 42  1  0
 14 43  1  0
 16 44  1  0
 17 45  1  0
 22 46  1  0
 23 47  1  0
 24 48  1  0
 26 49  1  0
 27 50  1  0
 28 51  1  0
 29 52  1  0
M  END
>  <Score>  (1) 
-7.18213

$$$$
