
     RDKit          3D

 41 43  0  0  0  0  0  0  0  0999 V2000
   44.6410   35.6590   44.6770 C   0  0  0  0  0  0  0  0  0  0  0  0
   45.3700   35.7310   43.4640 C   0  0  0  0  0  0  0  0  0  0  0  0
   46.2930   34.7380   43.2110 C   0  0  0  0  0  0  0  0  0  0  0  0
   46.4420   33.7670   44.1270 N   0  0  0  0  0  0  0  0  0  0  0  0
   45.7390   33.7050   45.2880 C   0  0  0  0  0  0  0  0  0  0  0  0
   44.8310   34.6640   45.5590 N   0  0  0  0  0  0  0  0  0  0  0  0
   47.0630   34.7680   41.9860 C   0  0  0  0  0  0  0  0  0  0  0  0
   48.2330   35.5060   41.9690 C   0  0  0  0  0  0  0  0  0  0  0  0
   48.9240   35.5070   40.7980 C   0  0  0  0  0  0  0  0  0  0  0  0
   48.4820   34.8250   39.7260 N   0  0  0  0  0  0  0  0  0  0  0  0
   47.3410   34.1150   39.7660 C   0  0  0  0  0  0  0  0  0  0  0  0
   46.6370   34.1010   40.9230 N   0  0  0  0  0  0  0  0  0  0  0  0
   46.9290   33.4170   38.5980 N   0  0  0  0  0  0  0  0  0  0  0  0
   46.1070   32.3690   38.8200 C   0  0  0  0  0  0  0  0  0  0  0  0
   45.6310   31.5990   37.7520 C   0  0  0  0  0  0  0  0  0  0  0  0
   46.0610   31.9940   36.5060 C   0  0  0  0  0  0  0  0  0  0  0  0
   45.6080   31.2720   35.5670 O   0  0  0  0  0  0  0  0  0  0  0  0
   46.8790   33.0350   36.2760 N   0  0  0  0  0  0  0  0  0  0  0  0
   47.3040   33.7370   37.3470 C   0  0  0  0  0  0  0  0  0  0  0  0
   48.0670   34.7160   37.1860 O   0  0  0  0  0  0  0  0  0  0  0  0
   46.0000   32.5750   46.2160 C   0  0  0  0  0  0  0  0  0  0  0  0
   45.3510   32.8500   47.5820 C   0  0  0  0  0  0  0  0  0  0  0  0
   46.2820   32.5430   48.6510 N   0  0  0  0  0  0  0  0  0  0  0  0
   46.4440   31.2120   49.0760 C   0  0  0  0  0  0  0  0  0  0  0  0
   45.4710   30.3900   48.9810 N   0  0  0  0  0  0  0  0  0  0  0  0
   47.7180   30.8050   49.6110 N   0  0  0  0  0  0  0  0  0  0  0  0
   45.6160   29.4050   49.3020 H   0  0  0  0  0  0  0  0  0  0  0  0
   43.8992   36.4393   44.9024 H   0  0  0  0  0  0  0  0  0  0  0  0
   45.2054   36.5505   42.7490 H   0  0  0  0  0  0  0  0  0  0  0  0
   48.5841   36.0601   42.8520 H   0  0  0  0  0  0  0  0  0  0  0  0
   49.8624   36.0764   40.7258 H   0  0  0  0  0  0  0  0  0  0  0  0
   45.8088   32.1181   39.8487 H   0  0  0  0  0  0  0  0  0  0  0  0
   44.9608   30.7392   37.8986 H   0  0  0  0  0  0  0  0  0  0  0  0
   47.1699   33.2869   35.3206 H   0  0  0  0  0  0  0  0  0  0  0  0
   45.5779   31.6518   45.7923 H   0  0  0  0  0  0  0  0  0  0  0  0
   47.0861   32.4639   46.3502 H   0  0  0  0  0  0  0  0  0  0  0  0
   45.0664   33.9108   47.6418 H   0  0  0  0  0  0  0  0  0  0  0  0
   44.4595   32.2147   47.6897 H   0  0  0  0  0  0  0  0  0  0  0  0
   46.8228   33.2973   49.0975 H   0  0  0  0  0  0  0  0  0  0  0  0
   47.8573   29.8349   49.9278 H   0  0  0  0  0  0  0  0  0  0  0  0
   48.4896   31.4841   49.6767 H   0  0  0  0  0  0  0  0  0  0  0  0
  1  6  2  0
  2  1  1  0
  3  2  2  0
  3  4  1  0
  4  5  2  0
  5  6  1  0
  5 21  1  0
  7  3  1  0
  8  7  2  0
  9  8  1  0
 10 11  1  0
 10  9  2  0
 11 12  2  0
 12  7  1  0
 13 14  1  0
 13 11  1  0
 15 14  2  0
 16 15  1  0
 17 16  2  0
 18 16  1  0
 18 19  1  0
 19 13  1  0
 20 19  2  0
 21 22  1  0
 22 23  1  0
 23 24  1  0
 24 26  1  0
 25 24  2  0
 25 27  1  0
  1 28  1  0
  2 29  1  0
  8 30  1  0
  9 31  1  0
 14 32  1  0
 15 33  1  0
 18 34  1  0
 21 35  1  0
 21 36  1  0
 22 37  1  0
 22 38  1  0
 23 39  1  0
 26 40  1  0
 26 41  1  0
M  END
>  <Score>  (1) 
-7.3518

$$$$
