
     RDKit          3D

 41 46  0  0  0  0  0  0  0  0999 V2000
   48.1940   33.9800   38.3730 C   0  0  0  0  0  0  0  0  0  0  0  0
   48.4350   34.7940   37.3750 N   0  0  0  0  0  0  0  0  0  0  0  0
   48.7160   33.9880   36.3610 O   0  0  0  0  0  0  0  0  0  0  0  0
   48.6490   32.7370   36.7210 C   0  0  0  0  0  0  0  0  0  0  0  0
   48.3070   32.6980   38.0440 N   0  0  0  0  0  0  0  0  0  0  0  0
   46.8160   34.7590   42.1440 C   0  0  0  0  0  0  0  0  0  0  0  0
   48.0310   35.2830   41.9130 C   0  0  0  0  0  0  0  0  0  0  0  0
   48.6050   35.0940   40.6880 C   0  0  0  0  0  0  0  0  0  0  0  0
   47.8260   34.3440   39.7780 C   0  0  0  0  0  0  0  0  0  0  0  0
   46.3070   33.9400   40.7110 S   0  0  0  0  0  0  0  0  0  0  0  0
   44.4810   35.8270   44.9190 C   0  0  0  0  0  0  0  0  0  0  0  0
   45.1310   35.8690   43.6680 C   0  0  0  0  0  0  0  0  0  0  0  0
   46.0540   34.8610   43.3940 C   0  0  0  0  0  0  0  0  0  0  0  0
   46.2650   33.9300   44.3170 N   0  0  0  0  0  0  0  0  0  0  0  0
   45.6300   33.9190   45.4980 C   0  0  0  0  0  0  0  0  0  0  0  0
   44.7430   34.8620   45.7970 N   0  0  0  0  0  0  0  0  0  0  0  0
   48.8820   31.5410   35.9240 C   0  0  0  0  0  0  0  0  0  0  0  0
   48.4180   30.2800   36.0820 C   0  0  0  0  0  0  0  0  0  0  0  0
   48.9620   29.5360   35.0260 C   0  0  0  0  0  0  0  0  0  0  0  0
   49.7280   30.3930   34.2850 C   0  0  0  0  0  0  0  0  0  0  0  0
   49.6670   31.5570   34.8260 O   0  0  0  0  0  0  0  0  0  0  0  0
   50.6760   30.0370   32.8130 S   0  0  0  0  0  0  0  0  0  0  0  0
   47.2560   29.3350   29.2900 N   0  0  0  0  0  0  0  0  0  0  0  0
   47.4630   28.2660   30.0910 C   0  0  0  0  0  0  0  0  0  0  0  0
   48.4070   28.6220   30.9770 N   0  0  0  0  0  0  0  0  0  0  0  0
   48.7980   29.8890   30.7530 C   0  0  0  0  0  0  0  0  0  0  0  0
   49.7320   30.6590   31.4100 C   0  0  0  0  0  0  0  0  0  0  0  0
   49.8900   31.9040   30.9310 N   0  0  0  0  0  0  0  0  0  0  0  0
   49.1940   32.3860   29.8840 C   0  0  0  0  0  0  0  0  0  0  0  0
   48.2780   31.5960   29.2590 N   0  0  0  0  0  0  0  0  0  0  0  0
   48.0640   30.3400   29.6780 C   0  0  0  0  0  0  0  0  0  0  0  0
   48.5536   35.8532   42.6951 H   0  0  0  0  0  0  0  0  0  0  0  0
   49.5965   35.4944   40.4298 H   0  0  0  0  0  0  0  0  0  0  0  0
   43.7456   36.6046   45.1730 H   0  0  0  0  0  0  0  0  0  0  0  0
   44.9183   36.6644   42.9386 H   0  0  0  0  0  0  0  0  0  0  0  0
   45.8453   33.1225   46.2255 H   0  0  0  0  0  0  0  0  0  0  0  0
   47.7508   29.9138   36.8762 H   0  0  0  0  0  0  0  0  0  0  0  0
   48.8029   28.4653   34.8303 H   0  0  0  0  0  0  0  0  0  0  0  0
   46.5871   29.3745   28.5078 H   0  0  0  0  0  0  0  0  0  0  0  0
   46.9557   27.2919   30.0289 H   0  0  0  0  0  0  0  0  0  0  0  0
   49.3649   33.4149   29.5346 H   0  0  0  0  0  0  0  0  0  0  0  0
  1  9  1  0
  2  1  2  0
  3  4  1  0
  3  2  1  0
  4  5  2  0
  5  1  1  0
  6 13  1  0
  7  6  2  0
  8  7  1  0
  9  8  2  0
  9 10  1  0
 10  6  1  0
 11 16  2  0
 12 11  1  0
 13 12  2  0
 13 14  1  0
 14 15  2  0
 15 16  1  0
 17 18  2  0
 17  4  1  0
 19 18  1  0
 20 21  1  0
 20 19  2  0
 21 17  1  0
 22 20  1  0
 23 31  1  0
 23 24  1  0
 24 25  2  0
 26 25  1  0
 26 27  2  0
 27 22  1  0
 28 27  1  0
 29 28  2  0
 30 31  2  0
 30 29  1  0
 31 26  1  0
  7 32  1  0
  8 33  1  0
 11 34  1  0
 12 35  1  0
 15 36  1  0
 18 37  1  0
 19 38  1  0
 23 39  1  0
 24 40  1  0
 29 41  1  0
M  END
>  <Score>  (1) 
-7.57006

$$$$
