
     RDKit          3D

 47 51  0  0  0  0  0  0  0  0999 V2000
   44.8100   35.6730   44.4500 C   0  0  0  0  0  0  0  0  0  0  0  0
   44.1420   35.4440   43.2280 C   0  0  0  0  0  0  0  0  0  0  0  0
   44.2070   34.1740   42.7320 C   0  0  0  0  0  0  0  0  0  0  0  0
   44.8760   33.1990   43.3810 N   0  0  0  0  0  0  0  0  0  0  0  0
   45.5180   33.4370   44.5640 C   0  0  0  0  0  0  0  0  0  0  0  0
   45.4740   34.7020   45.0940 N   0  0  0  0  0  0  0  0  0  0  0  0
   46.2400   32.4040   45.2690 C   0  0  0  0  0  0  0  0  0  0  0  0
   47.2030   31.5420   44.7490 C   0  0  0  0  0  0  0  0  0  0  0  0
   47.6060   30.7570   45.7360 N   0  0  0  0  0  0  0  0  0  0  0  0
   46.9570   31.0680   46.8510 C   0  0  0  0  0  0  0  0  0  0  0  0
   47.0310   30.5330   48.1490 C   0  0  0  0  0  0  0  0  0  0  0  0
   46.2410   31.0230   49.1950 C   0  0  0  0  0  0  0  0  0  0  0  0
   45.3880   32.0410   48.9260 C   0  0  0  0  0  0  0  0  0  0  0  0
   45.2750   32.6120   47.6490 C   0  0  0  0  0  0  0  0  0  0  0  0
   46.0570   32.1230   46.6260 C   0  0  0  0  0  0  0  0  0  0  0  0
   43.5480   33.9560   41.5090 C   0  0  0  0  0  0  0  0  0  0  0  0
   44.1160   34.0410   40.2730 C   0  0  0  0  0  0  0  0  0  0  0  0
   43.5290   33.8200   39.0880 C   0  0  0  0  0  0  0  0  0  0  0  0
   42.0700   33.4460   39.3550 C   0  0  0  0  0  0  0  0  0  0  0  0
   41.8750   33.4970   41.2290 S   0  0  0  0  0  0  0  0  0  0  0  0
   40.8580   33.0860   38.6010 C   0  0  0  0  0  0  0  0  0  0  0  0
   40.3680   34.3170   37.8980 C   0  0  0  0  0  0  0  0  0  0  0  0
   38.9030   34.4100   37.6920 C   0  0  0  0  0  0  0  0  0  0  0  0
   38.1610   33.1040   37.9500 C   0  0  0  0  0  0  0  0  0  0  0  0
   38.4810   32.8260   39.4250 C   0  0  0  0  0  0  0  0  0  0  0  0
   39.8950   32.3350   39.4270 C   0  0  0  0  0  0  0  0  0  0  0  0
   44.7852   36.6814   44.8887 H   0  0  0  0  0  0  0  0  0  0  0  0
   43.5991   36.2446   42.7043 H   0  0  0  0  0  0  0  0  0  0  0  0
   47.5624   31.5180   43.7096 H   0  0  0  0  0  0  0  0  0  0  0  0
   48.3165   30.0162   45.6512 H   0  0  0  0  0  0  0  0  0  0  0  0
   47.7291   29.7065   48.3479 H   0  0  0  0  0  0  0  0  0  0  0  0
   46.3104   30.5945   50.2057 H   0  0  0  0  0  0  0  0  0  0  0  0
   44.7605   32.4346   49.7392 H   0  0  0  0  0  0  0  0  0  0  0  0
   44.5719   33.4383   47.4676 H   0  0  0  0  0  0  0  0  0  0  0  0
   45.1787   34.3235   40.2443 H   0  0  0  0  0  0  0  0  0  0  0  0
   44.0100   33.8943   38.1015 H   0  0  0  0  0  0  0  0  0  0  0  0
   41.0641   32.3541   37.8061 H   0  0  0  0  0  0  0  0  0  0  0  0
   40.6802   35.1894   38.4908 H   0  0  0  0  0  0  0  0  0  0  0  0
   40.8064   34.2762   36.8900 H   0  0  0  0  0  0  0  0  0  0  0  0
   38.5048   35.1756   38.3742 H   0  0  0  0  0  0  0  0  0  0  0  0
   38.7440   34.6649   36.6338 H   0  0  0  0  0  0  0  0  0  0  0  0
   37.0788   33.2241   37.7938 H   0  0  0  0  0  0  0  0  0  0  0  0
   38.4606   32.2887   37.2751 H   0  0  0  0  0  0  0  0  0  0  0  0
   38.3901   33.7462   40.0207 H   0  0  0  0  0  0  0  0  0  0  0  0
   37.7885   32.0952   39.8681 H   0  0  0  0  0  0  0  0  0  0  0  0
   39.8873   31.2954   39.0677 H   0  0  0  0  0  0  0  0  0  0  0  0
   40.2431   32.4606   40.4629 H   0  0  0  0  0  0  0  0  0  0  0  0
  1  6  2  0
  2  1  1  0
  3  2  2  0
  3  4  1  0
  4  5  2  0
  5  6  1  0
  5  7  1  0
  7 15  1  0
  8  7  2  0
  8  9  1  0
  9 10  1  0
 10 11  2  0
 11 12  1  0
 13 12  2  0
 14 13  1  0
 15 10  1  0
 15 14  2  0
 16  3  1  0
 17 16  2  0
 18 19  2  0
 18 17  1  0
 19 20  1  0
 20 16  1  0
 21 19  1  0
 21 26  1  0
 22 21  1  0
 23 22  1  0
 23 24  1  0
 24 25  1  0
 25 26  1  0
  1 27  1  0
  2 28  1  0
  8 29  1  0
  9 30  1  0
 11 31  1  0
 12 32  1  0
 13 33  1  0
 14 34  1  0
 17 35  1  0
 18 36  1  0
 21 37  1  0
 22 38  1  0
 22 39  1  0
 23 40  1  0
 23 41  1  0
 24 42  1  0
 24 43  1  0
 25 44  1  0
 25 45  1  0
 26 46  1  0
 26 47  1  0
M  END
>  <Score>  (1) 
-7.04005

$$$$
