
     RDKit          3D

 51 56  0  0  1  0  0  0  0  0999 V2000
   46.9310   34.6290   42.2880 N   0  0  0  0  0  0  0  0  0  0  0  0
   48.3730   34.6700   42.4340 C   0  0  0  0  0  0  0  0  0  0  0  0
   49.0290   33.9290   41.3250 C   0  0  0  0  0  0  0  0  0  0  0  0
   48.4950   34.4790   40.0690 N   0  0  0  0  0  0  0  0  0  0  0  0
   47.1700   33.9130   39.9490 C   0  0  0  0  0  0  0  0  0  0  0  0
   46.2500   34.4000   41.0430 C   0  0  1  0  0  0  0  0  0  0  0  0
   45.1110   33.5420   41.1450 N   0  0  0  0  0  0  0  0  0  0  0  0
   45.0300   32.2510   41.4730 C   0  0  0  0  0  0  0  0  0  0  0  0
   43.7580   31.7850   41.4580 N   0  0  0  0  0  0  0  0  0  0  0  0
   42.9620   32.8170   41.1030 C   0  0  0  0  0  0  0  0  0  0  0  0
   41.6050   33.0190   40.9070 C   0  0  0  0  0  0  0  0  0  0  0  0
   41.1300   34.2400   40.5390 N   0  0  0  0  0  0  0  0  0  0  0  0
   41.9960   35.2630   40.3650 C   0  0  0  0  0  0  0  0  0  0  0  0
   43.3170   35.1020   40.5470 N   0  0  0  0  0  0  0  0  0  0  0  0
   43.8120   33.8860   40.9150 C   0  0  0  0  0  0  0  0  0  0  0  0
   44.4980   35.9770   44.7690 C   0  0  0  0  0  0  0  0  0  0  0  0
   45.2410   35.8780   43.5980 C   0  0  0  0  0  0  0  0  0  0  0  0
   46.1260   34.8240   43.4390 C   0  0  0  0  0  0  0  0  0  0  0  0
   46.1720   33.9580   44.5040 N   0  0  0  0  0  0  0  0  0  0  0  0
   45.4650   34.0500   45.6190 C   0  0  0  0  0  0  0  0  0  0  0  0
   44.6360   35.0600   45.7410 N   0  0  0  0  0  0  0  0  0  0  0  0
   45.7750   32.9420   46.5320 C   0  0  0  0  0  0  0  0  0  0  0  0
   45.2990   32.9020   47.8220 C   0  0  0  0  0  0  0  0  0  0  0  0
   45.5540   31.8900   48.7230 C   0  0  0  0  0  0  0  0  0  0  0  0
   46.3370   30.8220   48.3480 C   0  0  0  0  0  0  0  0  0  0  0  0
   46.8370   30.8170   47.0660 C   0  0  0  0  0  0  0  0  0  0  0  0
   47.6160   29.7380   46.7110 C   0  0  0  0  0  0  0  0  0  0  0  0
   48.1530   29.6590   45.4420 C   0  0  0  0  0  0  0  0  0  0  0  0
   47.8730   30.7000   44.5580 C   0  0  0  0  0  0  0  0  0  0  0  0
   47.0870   31.7490   44.9790 C   0  0  0  0  0  0  0  0  0  0  0  0
   46.5370   31.8610   46.2310 C   0  0  0  0  0  0  0  0  0  0  0  0
   48.7089   35.7173   42.4183 H   0  0  0  0  0  0  0  0  0  0  0  0
   48.6478   34.1983   43.3890 H   0  0  0  0  0  0  0  0  0  0  0  0
   50.1189   34.0717   41.3673 H   0  0  0  0  0  0  0  0  0  0  0  0
   48.8281   32.8501   41.3993 H   0  0  0  0  0  0  0  0  0  0  0  0
   48.4473   35.5069   40.1148 H   0  0  0  0  0  0  0  0  0  0  0  0
   46.7474   34.1997   38.9747 H   0  0  0  0  0  0  0  0  0  0  0  0
   47.2563   32.8199   40.0368 H   0  0  0  0  0  0  0  0  0  0  0  0
   45.8763   35.3965   40.7649 H   0  0  0  0  0  0  0  0  0  0  0  0
   45.9025   31.6316   41.7282 H   0  0  0  0  0  0  0  0  0  0  0  0
   40.9043   32.1833   41.0505 H   0  0  0  0  0  0  0  0  0  0  0  0
   41.6104   36.2494   40.0677 H   0  0  0  0  0  0  0  0  0  0  0  0
   43.7930   36.8111   44.9003 H   0  0  0  0  0  0  0  0  0  0  0  0
   45.1271   36.6307   42.8040 H   0  0  0  0  0  0  0  0  0  0  0  0
   44.6690   33.7383   48.1593 H   0  0  0  0  0  0  0  0  0  0  0  0
   45.1330   31.9360   49.7382 H   0  0  0  0  0  0  0  0  0  0  0  0
   46.5552   30.0019   49.0479 H   0  0  0  0  0  0  0  0  0  0  0  0
   47.8105   28.9377   47.4402 H   0  0  0  0  0  0  0  0  0  0  0  0
   48.7786   28.8064   45.1394 H   0  0  0  0  0  0  0  0  0  0  0  0
   48.2759   30.6834   43.5346 H   0  0  0  0  0  0  0  0  0  0  0  0
   46.8853   32.5560   44.2593 H   0  0  0  0  0  0  0  0  0  0  0  0
  1  2  1  0
  1 18  1  0
  3  2  1  0
  4  3  1  0
  5  4  1  0
  5  6  1  0
  6  7  1  0
  6  1  1  0
  7  8  1  0
  9  8  2  0
 10  9  1  0
 11 10  2  0
 12 11  1  0
 13 12  2  0
 13 14  1  0
 14 15  2  0
 15 10  1  0
 15  7  1  0
 16 21  2  0
 17 16  1  0
 18 17  2  0
 18 19  1  0
 19 20  2  0
 20 21  1  0
 20 22  1  0
 22 23  2  0
 23 24  1  0
 25 24  2  0
 26 25  1  0
 27 26  2  0
 28 27  1  0
 29 30  1  0
 29 28  2  0
 30 31  2  0
 31 22  1  0
 31 26  1  0
  2 32  1  0
  2 33  1  0
  3 34  1  0
  3 35  1  0
  4 36  1  0
  5 37  1  0
  5 38  1  0
  6 39  1  6
  8 40  1  0
 11 41  1  0
 13 42  1  0
 16 43  1  0
 17 44  1  0
 23 45  1  0
 24 46  1  0
 25 47  1  0
 27 48  1  0
 28 49  1  0
 29 50  1  0
 30 51  1  0
M  END
>  <Score>  (1) 
-7.84319

$$$$
