
     RDKit          3D

 48 52  0  0  0  0  0  0  0  0999 V2000
   44.5160   35.0470   46.1560 C   0  0  0  0  0  0  0  0  0  0  0  0
   44.7500   35.0500   44.7760 C   0  0  0  0  0  0  0  0  0  0  0  0
   45.4670   33.9790   44.2200 C   0  0  0  0  0  0  0  0  0  0  0  0
   45.8940   33.0010   45.0390 N   0  0  0  0  0  0  0  0  0  0  0  0
   45.6410   33.0400   46.3810 C   0  0  0  0  0  0  0  0  0  0  0  0
   44.9620   34.0480   46.9300 N   0  0  0  0  0  0  0  0  0  0  0  0
   45.6790   34.0260   42.8240 N   0  0  0  0  0  0  0  0  0  0  0  0
   44.9240   33.8400   41.7360 C   0  0  0  0  0  0  0  0  0  0  0  0
   45.6640   34.0130   40.6190 N   0  0  0  0  0  0  0  0  0  0  0  0
   46.9160   34.3140   40.9850 C   0  0  0  0  0  0  0  0  0  0  0  0
   48.0400   34.5800   40.2290 C   0  0  0  0  0  0  0  0  0  0  0  0
   48.0480   34.5770   38.9920 O   0  0  0  0  0  0  0  0  0  0  0  0
   49.2100   34.8620   40.8270 N   0  0  0  0  0  0  0  0  0  0  0  0
   49.2060   34.8670   42.1720 C   0  0  0  0  0  0  0  0  0  0  0  0
   50.3720   35.1470   42.9590 N   0  0  0  0  0  0  0  0  0  0  0  0
   48.1270   34.6110   42.9060 N   0  0  0  0  0  0  0  0  0  0  0  0
   46.9220   34.3200   42.3620 C   0  0  0  0  0  0  0  0  0  0  0  0
   46.1070   31.9710   47.2780 C   0  0  0  0  0  0  0  0  0  0  0  0
   47.2800   32.4430   48.1190 C   0  0  0  0  0  0  0  0  0  0  0  0
   45.0280   31.4620   48.1930 C   0  0  0  0  0  0  0  0  0  0  0  0
   46.6090   30.8410   46.4010 C   0  0  0  0  0  0  0  0  0  0  0  0
   45.8460   29.5700   46.6300 C   0  0  0  0  0  0  0  0  0  0  0  0
   46.3510   28.6310   47.4570 C   0  0  0  0  0  0  0  0  0  0  0  0
   45.1390   27.2660   47.4610 S   0  0  0  0  0  0  0  0  0  0  0  0
   44.0690   28.2590   46.2570 C   0  0  0  0  0  0  0  0  0  0  0  0
   44.7070   29.2270   46.1180 N   0  0  0  0  0  0  0  0  0  0  0  0
   42.7780   27.9280   45.6440 N   0  0  0  0  0  0  0  0  0  0  0  0
   42.1220   26.7710   45.8400 C   0  0  0  0  0  0  0  0  0  0  0  0
   41.0020   26.8850   45.1030 N   0  0  0  0  0  0  0  0  0  0  0  0
   40.9520   28.0680   44.4650 C   0  0  0  0  0  0  0  0  0  0  0  0
   42.0760   28.7160   44.8140 N   0  0  0  0  0  0  0  0  0  0  0  0
   43.9574   35.8775   46.6123 H   0  0  0  0  0  0  0  0  0  0  0  0
   44.3814   35.8708   44.1433 H   0  0  0  0  0  0  0  0  0  0  0  0
   43.8545   33.5831   41.7487 H   0  0  0  0  0  0  0  0  0  0  0  0
   50.0626   35.0632   40.2853 H   0  0  0  0  0  0  0  0  0  0  0  0
   50.3137   35.1377   43.9873 H   0  0  0  0  0  0  0  0  0  0  0  0
   51.2676   35.3573   42.4958 H   0  0  0  0  0  0  0  0  0  0  0  0
   47.0304   32.3426   49.1856 H   0  0  0  0  0  0  0  0  0  0  0  0
   48.1649   31.8310   47.8903 H   0  0  0  0  0  0  0  0  0  0  0  0
   47.4944   33.4974   47.8903 H   0  0  0  0  0  0  0  0  0  0  0  0
   45.3357   31.6071   49.2391 H   0  0  0  0  0  0  0  0  0  0  0  0
   44.0963   32.0155   48.0047 H   0  0  0  0  0  0  0  0  0  0  0  0
   44.8626   30.3909   48.0047 H   0  0  0  0  0  0  0  0  0  0  0  0
   47.6711   30.6628   46.6249 H   0  0  0  0  0  0  0  0  0  0  0  0
   46.4677   31.1374   45.3512 H   0  0  0  0  0  0  0  0  0  0  0  0
   47.2983   28.6783   48.0142 H   0  0  0  0  0  0  0  0  0  0  0  0
   42.4320   25.9200   46.4643 H   0  0  0  0  0  0  0  0  0  0  0  0
   40.1566   28.4296   43.7967 H   0  0  0  0  0  0  0  0  0  0  0  0
  1  6  2  0
  2  1  1  0
  3  2  2  0
  3  4  1  0
  4  5  2  0
  5  6  1  0
  5 18  1  0
  7  3  1  0
  8  7  1  0
  9 10  1  0
  9  8  2  0
 10 17  2  0
 11 13  1  0
 11 10  1  0
 12 11  2  0
 13 14  1  0
 14 16  2  0
 14 15  1  0
 17  7  1  0
 17 16  1  0
 18 19  1  0
 18 20  1  0
 21 22  1  0
 21 18  1  0
 22 23  2  0
 23 24  1  0
 25 24  1  0
 26 25  2  0
 26 22  1  0
 27 28  1  0
 27 25  1  0
 29 28  2  0
 30 31  2  0
 30 29  1  0
 31 27  1  0
  1 32  1  0
  2 33  1  0
  8 34  1  0
 13 35  1  0
 15 36  1  0
 15 37  1  0
 19 38  1  0
 19 39  1  0
 19 40  1  0
 20 41  1  0
 20 42  1  0
 20 43  1  0
 21 44  1  0
 21 45  1  0
 23 46  1  0
 28 47  1  0
 30 48  1  0
M  END
>  <Score>  (1) 
-7.49651

$$$$
