
     RDKit          3D

 41 45  0  0  0  0  0  0  0  0999 V2000
   45.9580   34.2230   40.8580 C   0  0  0  0  0  0  0  0  0  0  0  0
   46.4970   34.8520   42.0080 C   0  0  0  0  0  0  0  0  0  0  0  0
   47.8450   35.2120   42.0370 C   0  0  0  0  0  0  0  0  0  0  0  0
   48.5840   34.9360   40.9390 N   0  0  0  0  0  0  0  0  0  0  0  0
   48.0390   34.3240   39.8380 C   0  0  0  0  0  0  0  0  0  0  0  0
   46.7550   33.9950   39.8400 N   0  0  0  0  0  0  0  0  0  0  0  0
   45.7530   35.1620   43.1840 N   0  0  0  0  0  0  0  0  0  0  0  0
   44.9090   36.1190   43.5750 C   0  0  0  0  0  0  0  0  0  0  0  0
   44.4970   35.9020   44.8330 N   0  0  0  0  0  0  0  0  0  0  0  0
   45.0810   34.7860   45.2700 C   0  0  0  0  0  0  0  0  0  0  0  0
   44.9360   34.1960   46.5130 C   0  0  0  0  0  0  0  0  0  0  0  0
   45.6430   33.0580   46.7100 N   0  0  0  0  0  0  0  0  0  0  0  0
   46.4270   32.5720   45.7210 C   0  0  0  0  0  0  0  0  0  0  0  0
   46.5460   33.1670   44.5250 N   0  0  0  0  0  0  0  0  0  0  0  0
   45.8590   34.3230   44.2530 C   0  0  0  0  0  0  0  0  0  0  0  0
   44.5370   33.9140   40.9890 C   0  0  0  0  0  0  0  0  0  0  0  0
   43.6720   34.9060   40.2440 C   0  0  0  0  0  0  0  0  0  0  0  0
   42.2350   34.7750   40.6050 C   0  0  0  0  0  0  0  0  0  0  0  0
   41.7570   34.8370   41.9080 C   0  0  0  0  0  0  0  0  0  0  0  0
   40.4000   34.6770   41.8550 N   0  0  0  0  0  0  0  0  0  0  0  0
   40.0370   34.5200   40.5510 C   0  0  0  0  0  0  0  0  0  0  0  0
   38.7970   34.3270   39.9720 C   0  0  0  0  0  0  0  0  0  0  0  0
   38.7460   34.1990   38.5990 C   0  0  0  0  0  0  0  0  0  0  0  0
   39.8500   34.2550   37.8100 C   0  0  0  0  0  0  0  0  0  0  0  0
   41.1100   34.4490   38.3870 C   0  0  0  0  0  0  0  0  0  0  0  0
   41.1650   34.5780   39.7600 C   0  0  0  0  0  0  0  0  0  0  0  0
   48.2882   35.7004   42.9173 H   0  0  0  0  0  0  0  0  0  0  0  0
   48.6641   34.1078   38.9591 H   0  0  0  0  0  0  0  0  0  0  0  0
   44.5945   36.9689   42.9514 H   0  0  0  0  0  0  0  0  0  0  0  0
   44.2876   34.6241   47.2917 H   0  0  0  0  0  0  0  0  0  0  0  0
   46.9926   31.6469   45.9059 H   0  0  0  0  0  0  0  0  0  0  0  0
   44.3533   32.9079   40.5841 H   0  0  0  0  0  0  0  0  0  0  0  0
   44.2741   33.9669   42.0558 H   0  0  0  0  0  0  0  0  0  0  0  0
   43.7837   34.7331   39.1634 H   0  0  0  0  0  0  0  0  0  0  0  0
   44.0007   35.9184   40.5215 H   0  0  0  0  0  0  0  0  0  0  0  0
   42.3597   34.9873   42.8159 H   0  0  0  0  0  0  0  0  0  0  0  0
   39.7612   34.6754   42.6630 H   0  0  0  0  0  0  0  0  0  0  0  0
   37.8839   34.2772   40.5834 H   0  0  0  0  0  0  0  0  0  0  0  0
   37.7669   34.0446   38.1220 H   0  0  0  0  0  0  0  0  0  0  0  0
   39.7539   34.1481   36.7194 H   0  0  0  0  0  0  0  0  0  0  0  0
   42.0201   34.4968   37.7710 H   0  0  0  0  0  0  0  0  0  0  0  0
  1 16  1  0
  1  2  1  0
  2  3  2  0
  2  7  1  0
  4  3  1  0
  5  6  1  0
  5  4  2  0
  6  1  2  0
  7  8  1  0
  7 15  1  0
  8  9  2  0
  9 10  1  0
 10 11  2  0
 11 12  1  0
 13 12  2  0
 14 13  1  0
 15 14  2  0
 15 10  1  0
 17 18  1  0
 17 16  1  0
 18 19  2  0
 20 19  1  0
 21 20  1  0
 22 21  2  0
 23 22  1  0
 24 25  1  0
 24 23  2  0
 25 26  2  0
 26 21  1  0
 26 18  1  0
  3 27  1  0
  5 28  1  0
  8 29  1  0
 11 30  1  0
 13 31  1  0
 16 32  1  0
 16 33  1  0
 17 34  1  0
 17 35  1  0
 19 36  1  0
 20 37  1  0
 22 38  1  0
 23 39  1  0
 24 40  1  0
 25 41  1  0
M  END
>  <Score>  (1) 
-7.23129

$$$$
