
     RDKit          3D

 50 54  0  0  1  0  0  0  0  0999 V2000
   47.1570   34.4430   42.6280 N   0  0  0  0  0  0  0  0  0  0  0  0
   48.6020   34.4790   42.7090 C   0  0  0  0  0  0  0  0  0  0  0  0
   49.2110   34.0120   41.4360 C   0  0  0  0  0  0  0  0  0  0  0  0
   48.6130   34.7980   40.3520 N   0  0  0  0  0  0  0  0  0  0  0  0
   47.2960   34.2310   40.1890 C   0  0  0  0  0  0  0  0  0  0  0  0
   46.4260   34.4680   41.3950 C   0  0  1  0  0  0  0  0  0  0  0  0
   44.7350   35.1820   45.3860 C   0  0  0  0  0  0  0  0  0  0  0  0
   45.4330   35.3180   44.1860 C   0  0  0  0  0  0  0  0  0  0  0  0
   46.4010   34.3790   43.8310 C   0  0  0  0  0  0  0  0  0  0  0  0
   46.5940   33.3620   44.7240 N   0  0  0  0  0  0  0  0  0  0  0  0
   45.9140   33.2490   45.8720 C   0  0  0  0  0  0  0  0  0  0  0  0
   44.9990   34.1420   46.2000 N   0  0  0  0  0  0  0  0  0  0  0  0
   46.1850   32.1540   46.7410 N   0  0  0  0  0  0  0  0  0  0  0  0
   46.9400   32.3130   47.9700 C   0  0  0  0  0  0  0  0  0  0  0  0
   45.9520   32.2340   49.1140 C   0  0  0  0  0  0  0  0  0  0  0  0
   44.8790   31.2410   48.7290 C   0  0  0  0  0  0  0  0  0  0  0  0
   45.4670   30.1580   47.8330 C   0  0  0  0  0  0  0  0  0  0  0  0
   45.7440   30.8040   46.4900 C   0  0  0  0  0  0  0  0  0  0  0  0
   45.2750   33.6080   41.3620 N   0  0  0  0  0  0  0  0  0  0  0  0
   45.2120   32.2730   41.3810 C   0  0  0  0  0  0  0  0  0  0  0  0
   43.9450   31.8070   41.3350 N   0  0  0  0  0  0  0  0  0  0  0  0
   43.1320   32.8870   41.2830 C   0  0  0  0  0  0  0  0  0  0  0  0
   41.7670   33.1150   41.2210 C   0  0  0  0  0  0  0  0  0  0  0  0
   41.2780   34.3790   41.1800 N   0  0  0  0  0  0  0  0  0  0  0  0
   42.1330   35.4140   41.1990 C   0  0  0  0  0  0  0  0  0  0  0  0
   43.4650   35.2400   41.2580 N   0  0  0  0  0  0  0  0  0  0  0  0
   43.9700   33.9770   41.3000 C   0  0  0  0  0  0  0  0  0  0  0  0
   48.9270   35.5110   42.9076 H   0  0  0  0  0  0  0  0  0  0  0  0
   48.9275   33.8134   43.5220 H   0  0  0  0  0  0  0  0  0  0  0  0
   50.2994   34.1699   41.4593 H   0  0  0  0  0  0  0  0  0  0  0  0
   49.0252   32.9382   41.2865 H   0  0  0  0  0  0  0  0  0  0  0  0
   48.5529   35.7928   40.6122 H   0  0  0  0  0  0  0  0  0  0  0  0
   46.8181   34.6898   39.3108 H   0  0  0  0  0  0  0  0  0  0  0  0
   47.4078   33.1444   40.0593 H   0  0  0  0  0  0  0  0  0  0  0  0
   46.0439   35.4984   41.3468 H   0  0  0  0  0  0  0  0  0  0  0  0
   43.9711   35.9221   45.6667 H   0  0  0  0  0  0  0  0  0  0  0  0
   45.2197   36.1665   43.5192 H   0  0  0  0  0  0  0  0  0  0  0  0
   47.6867   31.5103   48.0604 H   0  0  0  0  0  0  0  0  0  0  0  0
   47.4733   33.2750   47.9796 H   0  0  0  0  0  0  0  0  0  0  0  0
   46.4634   31.8971   50.0277 H   0  0  0  0  0  0  0  0  0  0  0  0
   45.5096   33.2220   49.3090 H   0  0  0  0  0  0  0  0  0  0  0  0
   44.4683   30.7779   49.6383 H   0  0  0  0  0  0  0  0  0  0  0  0
   44.0807   31.7659   48.1839 H   0  0  0  0  0  0  0  0  0  0  0  0
   46.4010   29.7726   48.2678 H   0  0  0  0  0  0  0  0  0  0  0  0
   44.7721   29.3118   47.7283 H   0  0  0  0  0  0  0  0  0  0  0  0
   44.8271   30.8153   45.8824 H   0  0  0  0  0  0  0  0  0  0  0  0
   46.5129   30.2411   45.9406 H   0  0  0  0  0  0  0  0  0  0  0  0
   46.0980   31.6228   41.4290 H   0  0  0  0  0  0  0  0  0  0  0  0
   41.0727   32.2619   41.2049 H   0  0  0  0  0  0  0  0  0  0  0  0
   41.7309   36.4373   41.1652 H   0  0  0  0  0  0  0  0  0  0  0  0
  1  2  1  0
  1  9  1  0
  3  2  1  0
  4  3  1  0
  5  4  1  0
  5  6  1  0
  6  1  1  0
  7 12  2  0
  8  7  1  0
  9  8  2  0
  9 10  1  0
 10 11  2  0
 11 12  1  0
 11 13  1  0
 13 14  1  0
 14 15  1  0
 16 15  1  0
 17 16  1  0
 18 13  1  0
 18 17  1  0
 19 20  1  0
 19  6  1  0
 21 20  2  0
 22 27  2  0
 22 21  1  0
 23 22  1  0
 24 25  1  0
 24 23  2  0
 25 26  2  0
 26 27  1  0
 27 19  1  0
  2 28  1  0
  2 29  1  0
  3 30  1  0
  3 31  1  0
  4 32  1  0
  5 33  1  0
  5 34  1  0
  6 35  1  6
  7 36  1  0
  8 37  1  0
 14 38  1  0
 14 39  1  0
 15 40  1  0
 15 41  1  0
 16 42  1  0
 16 43  1  0
 17 44  1  0
 17 45  1  0
 18 46  1  0
 18 47  1  0
 20 48  1  0
 23 49  1  0
 25 50  1  0
M  END
>  <Score>  (1) 
-7.28739

$$$$
