
     RDKit          3D

 48 52  0  0  1  0  0  0  0  0999 V2000
   41.7660   34.2310   41.3030 N   0  0  0  0  0  0  0  0  0  0  0  0
   40.7400   35.1680   41.6420 C   0  0  0  0  0  0  0  0  0  0  0  0
   40.0790   35.7190   40.4180 C   0  0  0  0  0  0  0  0  0  0  0  0
   39.5740   34.6290   39.5380 C   0  0  0  0  0  0  0  0  0  0  0  0
   40.5250   33.5200   39.3020 C   0  0  0  0  0  0  0  0  0  0  0  0
   41.3530   33.1250   40.4830 C   0  0  2  0  0  0  0  0  0  0  0  0
   40.8170   31.9740   41.2230 C   0  0  0  0  0  0  0  0  0  0  0  0
   41.7880   31.3630   42.0330 C   0  0  0  0  0  0  0  0  0  0  0  0
   41.2170   30.2920   42.6340 N   0  0  0  0  0  0  0  0  0  0  0  0
   39.9300   30.1520   42.2780 C   0  0  0  0  0  0  0  0  0  0  0  0
   38.8590   29.3220   42.5280 C   0  0  0  0  0  0  0  0  0  0  0  0
   37.6320   29.5800   41.9050 C   0  0  0  0  0  0  0  0  0  0  0  0
   37.4320   30.6530   41.0290 C   0  0  0  0  0  0  0  0  0  0  0  0
   38.5150   31.4700   40.7910 C   0  0  0  0  0  0  0  0  0  0  0  0
   39.7100   31.1980   41.4110 C   0  0  0  0  0  0  0  0  0  0  0  0
   42.8310   34.9500   40.6460 C   0  0  0  0  0  0  0  0  0  0  0  0
   46.0030   35.0990   42.3430 N   0  0  0  0  0  0  0  0  0  0  0  0
   45.2990   35.9710   43.0510 C   0  0  0  0  0  0  0  0  0  0  0  0
   44.0550   36.0850   42.5930 N   0  0  0  0  0  0  0  0  0  0  0  0
   43.9840   35.2340   41.5400 C   0  0  0  0  0  0  0  0  0  0  0  0
   45.1890   34.6220   41.3830 N   0  0  0  0  0  0  0  0  0  0  0  0
   49.7160   34.7450   42.1670 C   0  0  0  0  0  0  0  0  0  0  0  0
   48.4790   35.3730   42.1180 C   0  0  0  0  0  0  0  0  0  0  0  0
   47.3290   34.5880   42.3620 C   0  0  0  0  0  0  0  0  0  0  0  0
   47.5250   33.2760   42.6260 N   0  0  0  0  0  0  0  0  0  0  0  0
   48.7290   32.6840   42.6700 C   0  0  0  0  0  0  0  0  0  0  0  0
   49.8210   33.4290   42.4390 N   0  0  0  0  0  0  0  0  0  0  0  0
   39.9837   34.6626   42.2606 H   0  0  0  0  0  0  0  0  0  0  0  0
   41.2002   36.0018   42.1925 H   0  0  0  0  0  0  0  0  0  0  0  0
   39.2340   36.3542   40.7223 H   0  0  0  0  0  0  0  0  0  0  0  0
   40.8223   36.3029   39.8553 H   0  0  0  0  0  0  0  0  0  0  0  0
   38.6691   34.2089   40.0013 H   0  0  0  0  0  0  0  0  0  0  0  0
   39.3907   35.0890   38.5558 H   0  0  0  0  0  0  0  0  0  0  0  0
   39.9479   32.6399   38.9821 H   0  0  0  0  0  0  0  0  0  0  0  0
   41.2329   33.8832   38.5424 H   0  0  0  0  0  0  0  0  0  0  0  0
   42.2961   32.7509   40.0582 H   0  0  0  0  0  0  0  0  0  0  0  0
   42.8291   31.6957   42.1574 H   0  0  0  0  0  0  0  0  0  0  0  0
   41.7093   29.6626   43.2839 H   0  0  0  0  0  0  0  0  0  0  0  0
   38.9669   28.4656   43.2099 H   0  0  0  0  0  0  0  0  0  0  0  0
   36.7862   28.9084   42.1137 H   0  0  0  0  0  0  0  0  0  0  0  0
   36.4569   30.8351   40.5535 H   0  0  0  0  0  0  0  0  0  0  0  0
   38.4239   32.3306   40.1120 H   0  0  0  0  0  0  0  0  0  0  0  0
   43.1870   34.3484   39.7967 H   0  0  0  0  0  0  0  0  0  0  0  0
   42.4212   35.9185   40.3233 H   0  0  0  0  0  0  0  0  0  0  0  0
   45.6945   36.5312   43.9111 H   0  0  0  0  0  0  0  0  0  0  0  0
   50.6273   35.3321   41.9804 H   0  0  0  0  0  0  0  0  0  0  0  0
   48.3963   36.4473   41.8964 H   0  0  0  0  0  0  0  0  0  0  0  0
   48.8187   31.6101   42.8909 H   0  0  0  0  0  0  0  0  0  0  0  0
  1  2  1  0
  3  2  1  0
  4  3  1  0
  5  4  1  0
  5  6  1  0
  6  7  1  0
  6  1  1  0
  7 15  1  0
  7  8  2  0
  8  9  1  0
 10 11  2  0
 10  9  1  0
 12 11  1  0
 13 12  2  0
 14 13  1  0
 14 15  2  0
 15 10  1  0
 16  1  1  0
 16 20  1  0
 17 24  1  0
 17 18  1  0
 19 18  2  0
 20 19  1  0
 21 20  2  0
 21 17  1  0
 22 27  2  0
 23 22  1  0
 23 24  2  0
 24 25  1  0
 25 26  2  0
 27 26  1  0
  2 28  1  0
  2 29  1  0
  3 30  1  0
  3 31  1  0
  4 32  1  0
  4 33  1  0
  5 34  1  0
  5 35  1  0
  6 36  1  6
  8 37  1  0
  9 38  1  0
 11 39  1  0
 12 40  1  0
 13 41  1  0
 14 42  1  0
 16 43  1  0
 16 44  1  0
 18 45  1  0
 22 46  1  0
 23 47  1  0
 26 48  1  0
M  END
>  <Score>  (1) 
-7.05972

$$$$
