
     RDKit          3D

 39 42  0  0  0  0  0  0  0  0999 V2000
   44.5900   35.7620   44.5810 C   0  0  0  0  0  0  0  0  0  0  0  0
   45.1320   35.6490   43.2940 C   0  0  0  0  0  0  0  0  0  0  0  0
   46.0080   34.6160   43.0470 C   0  0  0  0  0  0  0  0  0  0  0  0
   46.3050   33.7520   44.0620 N   0  0  0  0  0  0  0  0  0  0  0  0
   45.7590   33.8930   45.3020 C   0  0  0  0  0  0  0  0  0  0  0  0
   44.8950   34.9070   45.5590 N   0  0  0  0  0  0  0  0  0  0  0  0
   46.0910   32.9500   46.3550 C   0  0  0  0  0  0  0  0  0  0  0  0
   45.3940   32.9730   47.5510 C   0  0  0  0  0  0  0  0  0  0  0  0
   45.6150   32.1080   48.5950 C   0  0  0  0  0  0  0  0  0  0  0  0
   46.5930   31.2140   48.3470 C   0  0  0  0  0  0  0  0  0  0  0  0
   47.3420   31.1280   47.1660 C   0  0  0  0  0  0  0  0  0  0  0  0
   47.0370   32.0310   46.2100 N   0  0  0  0  0  0  0  0  0  0  0  0
   44.3840   33.9800   47.7060 N   0  0  0  0  0  0  0  0  0  0  0  0
   46.5880   34.4810   41.6910 C   0  0  0  0  0  0  0  0  0  0  0  0
   47.8640   35.2760   41.5500 C   0  0  0  0  0  0  0  0  0  0  0  0
   49.0630   34.4410   41.7350 C   0  0  0  0  0  0  0  0  0  0  0  0
   49.9950   34.7440   42.6360 N   0  0  0  0  0  0  0  0  0  0  0  0
   50.9200   33.8530   42.5820 O   0  0  0  0  0  0  0  0  0  0  0  0
   50.6450   32.9480   41.6670 C   0  0  0  0  0  0  0  0  0  0  0  0
   49.4690   33.3250   41.1340 N   0  0  0  0  0  0  0  0  0  0  0  0
   51.4760   31.7950   41.3390 C   0  0  0  0  0  0  0  0  0  0  0  0
   51.1840   30.4810   41.6330 C   0  0  0  0  0  0  0  0  0  0  0  0
   52.1610   29.6670   41.1900 N   0  0  0  0  0  0  0  0  0  0  0  0
   53.0920   30.4680   40.6050 C   0  0  0  0  0  0  0  0  0  0  0  0
   52.6650   31.7480   40.7020 N   0  0  0  0  0  0  0  0  0  0  0  0
   43.8894   36.5833   44.7924 H   0  0  0  0  0  0  0  0  0  0  0  0
   44.8651   36.3655   42.5031 H   0  0  0  0  0  0  0  0  0  0  0  0
   45.0506   32.1415   49.5386 H   0  0  0  0  0  0  0  0  0  0  0  0
   46.8231   30.4886   49.1412 H   0  0  0  0  0  0  0  0  0  0  0  0
   48.1290   30.3722   47.0266 H   0  0  0  0  0  0  0  0  0  0  0  0
   43.8407   34.0343   48.5793 H   0  0  0  0  0  0  0  0  0  0  0  0
   44.2022   34.6487   46.9439 H   0  0  0  0  0  0  0  0  0  0  0  0
   46.8057   33.4198   41.5000 H   0  0  0  0  0  0  0  0  0  0  0  0
   45.8588   34.8696   40.9649 H   0  0  0  0  0  0  0  0  0  0  0  0
   47.8944   35.7218   40.5448 H   0  0  0  0  0  0  0  0  0  0  0  0
   47.8677   36.0501   42.3315 H   0  0  0  0  0  0  0  0  0  0  0  0
   50.2778   30.1434   42.1573 H   0  0  0  0  0  0  0  0  0  0  0  0
   54.0286   30.1333   40.1351 H   0  0  0  0  0  0  0  0  0  0  0  0
   53.1737   32.5680   40.3418 H   0  0  0  0  0  0  0  0  0  0  0  0
  1  6  2  0
  2  1  1  0
  3  2  2  0
  3  4  1  0
  4  5  2  0
  5  6  1  0
  5  7  1  0
  7  8  2  0
  8 13  1  0
  8  9  1  0
 10  9  2  0
 11 10  1  0
 12  7  1  0
 12 11  2  0
 14  3  1  0
 15 14  1  0
 15 16  1  0
 16 17  2  0
 18 17  1  0
 19 18  1  0
 20 19  2  0
 20 16  1  0
 21 22  2  0
 21 19  1  0
 23 22  1  0
 24 25  1  0
 24 23  2  0
 25 21  1  0
  1 26  1  0
  2 27  1  0
  9 28  1  0
 10 29  1  0
 11 30  1  0
 13 31  1  0
 13 32  1  0
 14 33  1  0
 14 34  1  0
 15 35  1  0
 15 36  1  0
 22 37  1  0
 24 38  1  0
 25 39  1  0
M  END
>  <Score>  (1) 
-7.05156

$$$$
