
     RDKit          3D

 53 58  0  0  0  0  0  0  0  0999 V2000
   46.9190   34.8460   41.5050 C   0  0  0  0  0  0  0  0  0  0  0  0
   48.1210   35.5590   41.5330 C   0  0  0  0  0  0  0  0  0  0  0  0
   49.0490   35.5710   40.5140 C   0  0  0  0  0  0  0  0  0  0  0  0
   48.7870   34.8370   39.3890 C   0  0  0  0  0  0  0  0  0  0  0  0
   47.6200   34.1030   39.2830 C   0  0  0  0  0  0  0  0  0  0  0  0
   47.3650   33.3740   38.1570 C   0  0  0  0  0  0  0  0  0  0  0  0
   46.2020   32.6330   38.0230 C   0  0  0  0  0  0  0  0  0  0  0  0
   45.3260   32.6860   39.1010 C   0  0  0  0  0  0  0  0  0  0  0  0
   45.6200   33.4300   40.2130 C   0  0  0  0  0  0  0  0  0  0  0  0
   46.7560   34.1500   40.3430 C   0  0  0  0  0  0  0  0  0  0  0  0
   44.3620   35.7380   44.1570 C   0  0  0  0  0  0  0  0  0  0  0  0
   45.0590   35.7900   42.9700 C   0  0  0  0  0  0  0  0  0  0  0  0
   46.0910   34.9300   42.6520 C   0  0  0  0  0  0  0  0  0  0  0  0
   46.3390   34.0220   43.6600 N   0  0  0  0  0  0  0  0  0  0  0  0
   45.6780   33.9530   44.8140 C   0  0  0  0  0  0  0  0  0  0  0  0
   44.6960   34.8170   45.0430 N   0  0  0  0  0  0  0  0  0  0  0  0
   46.0390   32.9490   45.7580 N   0  0  0  0  0  0  0  0  0  0  0  0
   45.2490   32.7640   46.8440 C   0  0  0  0  0  0  0  0  0  0  0  0
   45.6130   31.7870   47.7470 C   0  0  0  0  0  0  0  0  0  0  0  0
   46.7620   31.0600   47.4840 C   0  0  0  0  0  0  0  0  0  0  0  0
   47.1070   30.1570   48.3100 O   0  0  0  0  0  0  0  0  0  0  0  0
   47.5060   31.2870   46.3880 N   0  0  0  0  0  0  0  0  0  0  0  0
   47.1340   32.2350   45.5330 C   0  0  0  0  0  0  0  0  0  0  0  0
   47.8590   32.4090   44.5280 O   0  0  0  0  0  0  0  0  0  0  0  0
   44.8220   31.5050   48.9620 C   0  0  0  0  0  0  0  0  0  0  0  0
   44.4650   33.2830   41.0960 C   0  0  0  0  0  0  0  0  0  0  0  0
   44.0550   32.5690   42.2100 C   0  0  0  0  0  0  0  0  0  0  0  0
   42.7880   32.8640   42.5490 N   0  0  0  0  0  0  0  0  0  0  0  0
   42.2920   33.7760   41.6960 C   0  0  0  0  0  0  0  0  0  0  0  0
   41.0410   34.3480   41.6820 C   0  0  0  0  0  0  0  0  0  0  0  0
   40.7790   35.2690   40.6890 C   0  0  0  0  0  0  0  0  0  0  0  0
   41.7460   35.5840   39.7600 C   0  0  0  0  0  0  0  0  0  0  0  0
   42.9830   34.9800   39.8200 C   0  0  0  0  0  0  0  0  0  0  0  0
   43.3210   34.0500   40.7830 C   0  0  0  0  0  0  0  0  0  0  0  0
   48.3420   36.1527   42.4322 H   0  0  0  0  0  0  0  0  0  0  0  0
   49.9766   36.1556   40.6027 H   0  0  0  0  0  0  0  0  0  0  0  0
   49.5116   34.8309   38.5614 H   0  0  0  0  0  0  0  0  0  0  0  0
   48.0993   33.3750   37.3380 H   0  0  0  0  0  0  0  0  0  0  0  0
   45.9858   32.0409   37.1216 H   0  0  0  0  0  0  0  0  0  0  0  0
   44.3825   32.1220   39.0605 H   0  0  0  0  0  0  0  0  0  0  0  0
   43.5463   36.4469   44.3623 H   0  0  0  0  0  0  0  0  0  0  0  0
   44.7779   36.5589   42.2353 H   0  0  0  0  0  0  0  0  0  0  0  0
   44.3467   33.3735   47.0000 H   0  0  0  0  0  0  0  0  0  0  0  0
   48.3558   30.7322   46.2121 H   0  0  0  0  0  0  0  0  0  0  0  0
   45.4292   31.7215   49.8533 H   0  0  0  0  0  0  0  0  0  0  0  0
   43.9222   32.1377   48.9688 H   0  0  0  0  0  0  0  0  0  0  0  0
   44.5254   30.4458   48.9688 H   0  0  0  0  0  0  0  0  0  0  0  0
   44.6879   31.8496   42.7504 H   0  0  0  0  0  0  0  0  0  0  0  0
   42.2753   32.4532   43.3423 H   0  0  0  0  0  0  0  0  0  0  0  0
   40.2811   34.0820   42.4315 H   0  0  0  0  0  0  0  0  0  0  0  0
   39.7931   35.7542   40.6388 H   0  0  0  0  0  0  0  0  0  0  0  0
   41.5306   36.3182   38.9697 H   0  0  0  0  0  0  0  0  0  0  0  0
   43.7362   35.2513   39.0657 H   0  0  0  0  0  0  0  0  0  0  0  0
  1  2  2  0
  1 13  1  0
  3  2  1  0
  4  3  2  0
  5  4  1  0
  5 10  2  0
  6  5  1  0
  7  6  2  0
  7  8  1  0
  8  9  2  0
  9 10  1  0
  9 26  1  0
 10  1  1  0
 11 16  2  0
 12 11  1  0
 13 12  2  0
 13 14  1  0
 14 15  2  0
 15 16  1  0
 15 17  1  0
 17 18  1  0
 18 19  2  0
 19 25  1  0
 20 19  1  0
 20 21  2  0
 22 20  1  0
 23 17  1  0
 23 22  1  0
 24 23  2  0
 26 27  2  0
 27 28  1  0
 29 28  1  0
 30 29  2  0
 31 30  1  0
 32 33  1  0
 32 31  2  0
 33 34  2  0
 34 26  1  0
 34 29  1  0
  2 35  1  0
  3 36  1  0
  4 37  1  0
  6 38  1  0
  7 39  1  0
  8 40  1  0
 11 41  1  0
 12 42  1  0
 18 43  1  0
 22 44  1  0
 25 45  1  0
 25 46  1  0
 25 47  1  0
 27 48  1  0
 28 49  1  0
 30 50  1  0
 31 51  1  0
 32 52  1  0
 33 53  1  0
M  END
>  <Score>  (1) 
-7.94218

$$$$
