
     RDKit          3D

 42 46  0  0  0  0  0  0  0  0999 V2000
   48.2740   33.6010   37.9710 S   0  0  0  0  0  0  0  0  0  0  0  0
   48.7900   34.9170   37.3670 O   0  0  0  0  0  0  0  0  0  0  0  0
   49.3940   32.6220   38.0930 O   0  0  0  0  0  0  0  0  0  0  0  0
   47.0080   32.9780   36.9560 C   0  0  0  0  0  0  0  0  0  0  0  0
   45.7060   33.3020   36.8400 N   0  0  0  0  0  0  0  0  0  0  0  0
   45.1250   32.5860   35.9590 O   0  0  0  0  0  0  0  0  0  0  0  0
   46.0000   31.7380   35.4290 C   0  0  0  0  0  0  0  0  0  0  0  0
   47.1680   31.9920   36.0580 N   0  0  0  0  0  0  0  0  0  0  0  0
   45.7370   30.7730   34.4130 N   0  0  0  0  0  0  0  0  0  0  0  0
   44.7220   29.9230   34.1750 C   0  0  0  0  0  0  0  0  0  0  0  0
   44.9890   29.2140   33.0430 N   0  0  0  0  0  0  0  0  0  0  0  0
   46.1850   29.6310   32.5800 C   0  0  0  0  0  0  0  0  0  0  0  0
   46.8920   29.2200   31.4620 C   0  0  0  0  0  0  0  0  0  0  0  0
   46.4840   28.3360   30.6720 O   0  0  0  0  0  0  0  0  0  0  0  0
   48.0840   29.7870   31.1930 N   0  0  0  0  0  0  0  0  0  0  0  0
   48.5580   30.7510   32.0300 C   0  0  0  0  0  0  0  0  0  0  0  0
   49.8120   31.4430   31.8700 N   0  0  0  0  0  0  0  0  0  0  0  0
   47.8450   31.1270   33.1070 N   0  0  0  0  0  0  0  0  0  0  0  0
   46.6550   30.6130   33.4440 C   0  0  0  0  0  0  0  0  0  0  0  0
   47.5990   33.9770   39.5410 C   0  0  0  0  0  0  0  0  0  0  0  0
   46.3820   33.4880   39.9070 C   0  0  0  0  0  0  0  0  0  0  0  0
   45.7940   33.7460   41.1280 C   0  0  0  0  0  0  0  0  0  0  0  0
   46.4600   34.5360   42.0290 C   0  0  0  0  0  0  0  0  0  0  0  0
   47.6900   35.0320   41.6630 C   0  0  0  0  0  0  0  0  0  0  0  0
   48.2850   34.7890   40.4680 C   0  0  0  0  0  0  0  0  0  0  0  0
   44.4570   36.0720   44.8470 C   0  0  0  0  0  0  0  0  0  0  0  0
   45.0360   35.9260   43.5560 C   0  0  0  0  0  0  0  0  0  0  0  0
   45.8200   34.7930   43.3060 C   0  0  0  0  0  0  0  0  0  0  0  0
   46.0000   33.8830   44.2960 N   0  0  0  0  0  0  0  0  0  0  0  0
   45.4260   34.0610   45.5220 C   0  0  0  0  0  0  0  0  0  0  0  0
   44.6650   35.1530   45.7740 N   0  0  0  0  0  0  0  0  0  0  0  0
   43.8200   29.8173   34.7957 H   0  0  0  0  0  0  0  0  0  0  0  0
   48.6278   29.4963   30.3680 H   0  0  0  0  0  0  0  0  0  0  0  0
   50.0946   32.1611   32.5522 H   0  0  0  0  0  0  0  0  0  0  0  0
   50.4256   31.2195   31.0735 H   0  0  0  0  0  0  0  0  0  0  0  0
   45.8389   32.8536   39.1911 H   0  0  0  0  0  0  0  0  0  0  0  0
   44.8080   33.3252   41.3743 H   0  0  0  0  0  0  0  0  0  0  0  0
   48.2252   35.6660   42.3852 H   0  0  0  0  0  0  0  0  0  0  0  0
   49.2719   35.2122   40.2296 H   0  0  0  0  0  0  0  0  0  0  0  0
   43.8355   36.9507   45.0742 H   0  0  0  0  0  0  0  0  0  0  0  0
   44.8723   36.6829   42.7748 H   0  0  0  0  0  0  0  0  0  0  0  0
   45.5828   33.3114   46.3117 H   0  0  0  0  0  0  0  0  0  0  0  0
  1  3  2  0
  1 20  1  0
  2  1  2  0
  4  1  1  0
  5  4  2  0
  6  5  1  0
  7  6  1  0
  7  8  2  0
  8  4  1  0
  9  7  1  0
 10  9  1  0
 11 10  2  0
 12 11  1  0
 12 19  2  0
 13 12  1  0
 14 13  2  0
 15 13  1  0
 15 16  1  0
 16 18  2  0
 17 16  1  0
 18 19  1  0
 19  9  1  0
 20 21  2  0
 20 25  1  0
 21 22  1  0
 22 23  2  0
 23 28  1  0
 24 23  1  0
 25 24  2  0
 26 31  2  0
 27 26  1  0
 28 27  2  0
 28 29  1  0
 29 30  2  0
 30 31  1  0
 10 32  1  0
 15 33  1  0
 17 34  1  0
 17 35  1  0
 21 36  1  0
 22 37  1  0
 24 38  1  0
 25 39  1  0
 26 40  1  0
 27 41  1  0
 30 42  1  0
M  END
>  <Score>  (1) 
-7.73306

$$$$
