
     RDKit          3D

 42 46  0  0  0  0  0  0  0  0999 V2000
   44.6500   35.6210   45.0550 C   0  0  0  0  0  0  0  0  0  0  0  0
   44.0560   35.5250   43.7880 C   0  0  0  0  0  0  0  0  0  0  0  0
   44.3190   34.4100   43.0030 C   0  0  0  0  0  0  0  0  0  0  0  0
   45.1480   33.4910   43.5480 N   0  0  0  0  0  0  0  0  0  0  0  0
   45.7120   33.5920   44.7560 C   0  0  0  0  0  0  0  0  0  0  0  0
   45.4400   34.6700   45.4820 N   0  0  0  0  0  0  0  0  0  0  0  0
   46.4970   32.4620   44.7970 C   0  0  0  0  0  0  0  0  0  0  0  0
   47.2480   31.4300   44.7380 N   0  0  0  0  0  0  0  0  0  0  0  0
   47.9360   30.4600   44.7480 C   0  0  0  0  0  0  0  0  0  0  0  0
   47.8120   30.1390   46.0230 N   0  0  0  0  0  0  0  0  0  0  0  0
   47.0090   30.9540   46.8060 C   0  0  0  0  0  0  0  0  0  0  0  0
   46.9310   30.5200   48.1430 C   0  0  0  0  0  0  0  0  0  0  0  0
   46.1490   31.2470   48.9630 C   0  0  0  0  0  0  0  0  0  0  0  0
   45.4640   32.3330   48.5500 C   0  0  0  0  0  0  0  0  0  0  0  0
   45.6320   32.6480   47.2220 C   0  0  0  0  0  0  0  0  0  0  0  0
   46.3860   32.0680   46.1750 C   0  0  0  0  0  0  0  0  0  0  0  0
   43.7290   34.3270   41.7290 N   0  0  0  0  0  0  0  0  0  0  0  0
   42.4060   34.3270   41.5440 C   0  0  0  0  0  0  0  0  0  0  0  0
   42.2380   34.2230   40.1680 C   0  0  0  0  0  0  0  0  0  0  0  0
   43.4550   34.1640   39.5560 N   0  0  0  0  0  0  0  0  0  0  0  0
   44.3850   34.2290   40.5400 C   0  0  0  0  0  0  0  0  0  0  0  0
   45.8030   34.2040   40.4080 N   0  0  0  0  0  0  0  0  0  0  0  0
   40.9430   34.1860   39.4940 C   0  0  0  0  0  0  0  0  0  0  0  0
   40.8470   34.5820   38.1760 C   0  0  0  0  0  0  0  0  0  0  0  0
   39.5820   34.5180   37.6030 C   0  0  0  0  0  0  0  0  0  0  0  0
   38.5050   34.0740   38.3530 C   0  0  0  0  0  0  0  0  0  0  0  0
   38.6350   33.6780   39.6870 C   0  0  0  0  0  0  0  0  0  0  0  0
   39.8780   33.7580   40.1960 N   0  0  0  0  0  0  0  0  0  0  0  0
   44.4513   36.4969   45.6901 H   0  0  0  0  0  0  0  0  0  0  0  0
   43.3915   36.3213   43.4215 H   0  0  0  0  0  0  0  0  0  0  0  0
   48.5040   29.9764   43.9396 H   0  0  0  0  0  0  0  0  0  0  0  0
   47.4792   29.6350   48.4983 H   0  0  0  0  0  0  0  0  0  0  0  0
   46.0650   30.9418   50.0165 H   0  0  0  0  0  0  0  0  0  0  0  0
   44.8216   32.9204   49.2225 H   0  0  0  0  0  0  0  0  0  0  0  0
   45.0618   33.5350   46.9089 H   0  0  0  0  0  0  0  0  0  0  0  0
   41.6215   34.3945   42.3121 H   0  0  0  0  0  0  0  0  0  0  0  0
   46.3993   34.2614   41.2459 H   0  0  0  0  0  0  0  0  0  0  0  0
   46.2321   34.1285   39.4747 H   0  0  0  0  0  0  0  0  0  0  0  0
   41.7235   34.9294   37.6094 H   0  0  0  0  0  0  0  0  0  0  0  0
   39.4363   34.8196   36.5552 H   0  0  0  0  0  0  0  0  0  0  0  0
   37.5120   34.0316   37.8816 H   0  0  0  0  0  0  0  0  0  0  0  0
   37.7790   33.3248   40.2807 H   0  0  0  0  0  0  0  0  0  0  0  0
  1  6  2  0
  2  1  1  0
  3  4  1  0
  3  2  2  0
  4  5  2  0
  5  7  1  0
  5  6  1  0
  7 16  2  0
  8  9  2  0
  8  7  1  0
  9 10  1  0
 10 11  2  0
 11 12  1  0
 12 13  2  0
 14 13  1  0
 15 14  2  0
 16 11  1  0
 16 15  1  0
 17  3  1  0
 18 17  1  0
 19 18  2  0
 20 19  1  0
 20 21  2  0
 21 17  1  0
 22 21  1  0
 23 19  1  0
 23 28  1  0
 24 23  2  0
 25 24  1  0
 25 26  2  0
 26 27  1  0
 27 28  2  0
  1 29  1  0
  2 30  1  0
  9 31  1  0
 12 32  1  0
 13 33  1  0
 14 34  1  0
 15 35  1  0
 18 36  1  0
 22 37  1  0
 22 38  1  0
 24 39  1  0
 25 40  1  0
 26 41  1  0
 27 42  1  0
M  END
>  <Score>  (1) 
-7.33315

$$$$
