
     RDKit          3D

 36 38  0  0  0  0  0  0  0  0999 V2000
   46.4150   34.7070   42.1350 C   0  0  0  0  0  0  0  0  0  0  0  0
   47.7240   35.0680   41.9990 C   0  0  0  0  0  0  0  0  0  0  0  0
   48.4350   34.8370   40.8140 C   0  0  0  0  0  0  0  0  0  0  0  0
   47.7920   34.2150   39.7230 C   0  0  0  0  0  0  0  0  0  0  0  0
   46.4830   33.8630   39.8830 C   0  0  0  0  0  0  0  0  0  0  0  0
   45.8150   34.1070   41.0660 C   0  0  0  0  0  0  0  0  0  0  0  0
   44.4540   33.7180   41.1710 N   0  0  0  0  0  0  0  0  0  0  0  0
   43.6250   34.6540   40.6060 C   0  0  0  0  0  0  0  0  0  0  0  0
   42.2480   34.4790   40.5950 C   0  0  0  0  0  0  0  0  0  0  0  0
   41.7470   33.3280   41.1730 C   0  0  0  0  0  0  0  0  0  0  0  0
   40.5080   33.1000   41.2010 O   0  0  0  0  0  0  0  0  0  0  0  0
   42.5880   32.4300   41.7190 N   0  0  0  0  0  0  0  0  0  0  0  0
   43.9130   32.6120   41.7220 C   0  0  0  0  0  0  0  0  0  0  0  0
   44.7670   31.8400   42.2000 O   0  0  0  0  0  0  0  0  0  0  0  0
   41.3280   35.4810   39.9880 C   0  0  0  0  0  0  0  0  0  0  0  0
   44.4100   36.2700   44.9050 C   0  0  0  0  0  0  0  0  0  0  0  0
   44.9890   36.1120   43.6530 C   0  0  0  0  0  0  0  0  0  0  0  0
   45.7620   34.9840   43.3940 C   0  0  0  0  0  0  0  0  0  0  0  0
   45.9090   34.0890   44.3910 N   0  0  0  0  0  0  0  0  0  0  0  0
   45.3300   34.2710   45.6020 C   0  0  0  0  0  0  0  0  0  0  0  0
   44.5870   35.3500   45.8610 N   0  0  0  0  0  0  0  0  0  0  0  0
   45.5330   33.2600   46.6340 C   0  0  0  0  0  0  0  0  0  0  0  0
   46.2200   32.2310   46.4040 O   0  0  0  0  0  0  0  0  0  0  0  0
   44.9750   33.4020   47.8960 O   0  0  0  0  0  0  0  0  0  0  0  0
   48.2352   35.5539   42.8432 H   0  0  0  0  0  0  0  0  0  0  0  0
   49.4897   35.1392   40.7346 H   0  0  0  0  0  0  0  0  0  0  0  0
   48.3248   34.0213   38.7803 H   0  0  0  0  0  0  0  0  0  0  0  0
   45.9502   33.3755   39.0533 H   0  0  0  0  0  0  0  0  0  0  0  0
   44.0588   35.5582   40.1542 H   0  0  0  0  0  0  0  0  0  0  0  0
   42.1997   31.5775   42.1471 H   0  0  0  0  0  0  0  0  0  0  0  0
   40.8157   36.0389   40.7857 H   0  0  0  0  0  0  0  0  0  0  0  0
   41.9060   36.1794   39.3650 H   0  0  0  0  0  0  0  0  0  0  0  0
   40.5829   34.9646   39.3650 H   0  0  0  0  0  0  0  0  0  0  0  0
   43.7993   37.1608   45.1135 H   0  0  0  0  0  0  0  0  0  0  0  0
   44.8380   36.8720   42.8723 H   0  0  0  0  0  0  0  0  0  0  0  0
   45.1233   32.7058   48.5840 H   0  0  0  0  0  0  0  0  0  0  0  0
  1 18  1  0
  2  1  2  0
  3  2  1  0
  4  5  1  0
  4  3  2  0
  5  6  2  0
  6  7  1  0
  6  1  1  0
  7 13  1  0
  8  7  1  0
  9  8  2  0
  9 10  1  0
 10 11  2  0
 10 12  1  0
 12 13  1  0
 13 14  2  0
 15  9  1  0
 16 21  2  0
 17 16  1  0
 18 17  2  0
 18 19  1  0
 19 20  2  0
 20 21  1  0
 20 22  1  0
 22 24  1  0
 23 22  2  0
  2 25  1  0
  3 26  1  0
  4 27  1  0
  5 28  1  0
  8 29  1  0
 12 30  1  0
 15 31  1  0
 15 32  1  0
 15 33  1  0
 16 34  1  0
 17 35  1  0
 24 36  1  0
M  END
>  <Score>  (1) 
-7.21575

$$$$
