
     RDKit          3D

 45 49  0  0  0  0  0  0  0  0999 V2000
   45.6830   34.6700   43.6970 C   0  0  0  0  0  0  0  0  0  0  0  0
   46.8990   34.2350   43.2460 C   0  0  0  0  0  0  0  0  0  0  0  0
   47.5100   33.2440   44.0230 C   0  0  0  0  0  0  0  0  0  0  0  0
   46.8850   32.7820   45.1410 N   0  0  0  0  0  0  0  0  0  0  0  0
   45.6820   33.2630   45.5180 C   0  0  0  0  0  0  0  0  0  0  0  0
   45.0840   34.2150   44.7840 N   0  0  0  0  0  0  0  0  0  0  0  0
   47.5820   34.6530   42.0760 N   0  0  0  0  0  0  0  0  0  0  0  0
   48.4700   35.6160   41.8780 C   0  0  0  0  0  0  0  0  0  0  0  0
   48.8210   35.6040   40.5500 N   0  0  0  0  0  0  0  0  0  0  0  0
   48.1430   34.6250   39.9210 C   0  0  0  0  0  0  0  0  0  0  0  0
   48.0980   34.1720   38.6210 C   0  0  0  0  0  0  0  0  0  0  0  0
   47.2900   33.1460   38.3060 N   0  0  0  0  0  0  0  0  0  0  0  0
   46.5040   32.5320   39.2390 C   0  0  0  0  0  0  0  0  0  0  0  0
   46.5660   32.9920   40.5000 N   0  0  0  0  0  0  0  0  0  0  0  0
   47.3520   34.0120   40.8810 C   0  0  0  0  0  0  0  0  0  0  0  0
   48.8820   34.7770   37.6220 N   0  0  0  0  0  0  0  0  0  0  0  0
   45.0320   35.6140   42.8460 C   0  0  0  0  0  0  0  0  0  0  0  0
   45.0640   36.8560   42.8570 O   0  0  0  0  0  0  0  0  0  0  0  0
   44.2080   35.2210   41.8110 O   0  0  0  0  0  0  0  0  0  0  0  0
   43.3810   34.1760   41.7050 C   0  0  0  0  0  0  0  0  0  0  0  0
   42.5520   34.6010   40.4480 C   0  0  0  0  0  0  0  0  0  0  0  0
   43.0230   35.3330   39.3850 C   0  0  0  0  0  0  0  0  0  0  0  0
   42.1550   35.6140   38.3550 C   0  0  0  0  0  0  0  0  0  0  0  0
   40.8580   35.1940   38.3550 C   0  0  0  0  0  0  0  0  0  0  0  0
   40.3550   34.4600   39.4000 C   0  0  0  0  0  0  0  0  0  0  0  0
   39.0480   34.0160   39.4420 C   0  0  0  0  0  0  0  0  0  0  0  0
   38.5590   33.2800   40.5010 C   0  0  0  0  0  0  0  0  0  0  0  0
   39.4190   33.0020   41.5210 C   0  0  0  0  0  0  0  0  0  0  0  0
   40.7240   33.4460   41.4800 C   0  0  0  0  0  0  0  0  0  0  0  0
   41.2330   34.1890   40.4170 C   0  0  0  0  0  0  0  0  0  0  0  0
   48.4908   32.8402   43.7317 H   0  0  0  0  0  0  0  0  0  0  0  0
   45.1926   32.8763   46.4241 H   0  0  0  0  0  0  0  0  0  0  0  0
   48.8582   36.3045   42.6430 H   0  0  0  0  0  0  0  0  0  0  0  0
   45.8456   31.6933   38.9686 H   0  0  0  0  0  0  0  0  0  0  0  0
   48.8399   34.4295   36.6533 H   0  0  0  0  0  0  0  0  0  0  0  0
   49.4982   35.5675   37.8592 H   0  0  0  0  0  0  0  0  0  0  0  0
   43.9300   33.2385   41.5324 H   0  0  0  0  0  0  0  0  0  0  0  0
   42.7812   33.9708   42.6040 H   0  0  0  0  0  0  0  0  0  0  0  0
   44.0649   35.6846   39.3581 H   0  0  0  0  0  0  0  0  0  0  0  0
   42.5215   36.1998   37.4991 H   0  0  0  0  0  0  0  0  0  0  0  0
   40.2058   35.4468   37.5060 H   0  0  0  0  0  0  0  0  0  0  0  0
   38.3761   34.2568   38.6050 H   0  0  0  0  0  0  0  0  0  0  0  0
   37.5160   32.9312   40.5215 H   0  0  0  0  0  0  0  0  0  0  0  0
   39.0690   32.4181   42.3850 H   0  0  0  0  0  0  0  0  0  0  0  0
   41.3903   33.2036   42.3210 H   0  0  0  0  0  0  0  0  0  0  0  0
  1  6  2  0
  2  1  1  0
  2  3  2  0
  3  4  1  0
  4  5  2  0
  6  5  1  0
  7  2  1  0
  8  7  1  0
  9  8  2  0
 10  9  1  0
 10 15  2  0
 11 10  1  0
 12 11  2  0
 12 13  1  0
 13 14  2  0
 14 15  1  0
 15  7  1  0
 16 11  1  0
 17 18  2  0
 17  1  1  0
 19 17  1  0
 20 19  1  0
 21 20  1  0
 22 21  2  0
 23 22  1  0
 24 23  2  0
 24 25  1  0
 25 26  1  0
 25 30  2  0
 26 27  2  0
 27 28  1  0
 29 28  2  0
 30 21  1  0
 30 29  1  0
  3 31  1  0
  5 32  1  0
  8 33  1  0
 13 34  1  0
 16 35  1  0
 16 36  1  0
 20 37  1  0
 20 38  1  0
 22 39  1  0
 23 40  1  0
 24 41  1  0
 26 42  1  0
 27 43  1  0
 28 44  1  0
 29 45  1  0
M  END
>  <Score>  (1) 
-7.45252

$$$$
