
     RDKit          3D

 46 49  0  0  1  0  0  0  0  0999 V2000
   46.0560   33.6190   41.6190 N   0  0  0  0  0  0  0  0  0  0  0  0
   47.3310   33.7660   40.9300 C   0  0  0  0  0  0  0  0  0  0  0  0
   46.8530   34.0040   39.5180 C   0  0  0  0  0  0  0  0  0  0  0  0
   45.8760   32.8700   39.3720 C   0  0  0  0  0  0  0  0  0  0  0  0
   45.2100   32.8380   40.7080 C   0  0  2  0  0  0  0  0  0  0  0  0
   44.6000   35.7010   44.3290 C   0  0  0  0  0  0  0  0  0  0  0  0
   44.9610   35.2990   43.0370 C   0  0  0  0  0  0  0  0  0  0  0  0
   45.6610   34.0900   42.8700 C   0  0  0  0  0  0  0  0  0  0  0  0
   45.9370   33.3940   44.0000 N   0  0  0  0  0  0  0  0  0  0  0  0
   45.5860   33.7900   45.2350 C   0  0  0  0  0  0  0  0  0  0  0  0
   44.9210   34.9380   45.3930 N   0  0  0  0  0  0  0  0  0  0  0  0
   45.8920   33.0340   46.4000 N   0  0  0  0  0  0  0  0  0  0  0  0
   46.8660   32.1030   46.2150 C   0  0  0  0  0  0  0  0  0  0  0  0
   47.3050   31.2630   47.2410 C   0  0  0  0  0  0  0  0  0  0  0  0
   46.7150   31.4020   48.4820 C   0  0  0  0  0  0  0  0  0  0  0  0
   47.1410   30.5600   49.5450 N   0  0  0  0  0  0  0  0  0  0  0  0
   45.7440   32.3440   48.6280 N   0  0  0  0  0  0  0  0  0  0  0  0
   45.3390   33.1410   47.6220 C   0  0  0  0  0  0  0  0  0  0  0  0
   44.4580   34.0080   47.7310 O   0  0  0  0  0  0  0  0  0  0  0  0
   43.8290   33.1960   40.7390 N   0  0  0  0  0  0  0  0  0  0  0  0
   43.2300   34.1630   40.0470 C   0  0  0  0  0  0  0  0  0  0  0  0
   41.8730   34.4350   40.1470 C   0  0  0  0  0  0  0  0  0  0  0  0
   41.0880   33.6750   41.0000 C   0  0  0  0  0  0  0  0  0  0  0  0
   39.8430   33.8760   41.1330 O   0  0  0  0  0  0  0  0  0  0  0  0
   41.7100   32.7020   41.6910 N   0  0  0  0  0  0  0  0  0  0  0  0
   43.0100   32.4860   41.5580 C   0  0  0  0  0  0  0  0  0  0  0  0
   43.4920   31.5400   42.2590 O   0  0  0  0  0  0  0  0  0  0  0  0
   41.2290   35.5120   39.3710 C   0  0  0  0  0  0  0  0  0  0  0  0
   47.9044   34.6223   41.3147 H   0  0  0  0  0  0  0  0  0  0  0  0
   48.0159   32.9130   41.0451 H   0  0  0  0  0  0  0  0  0  0  0  0
   46.3603   34.9820   39.4143 H   0  0  0  0  0  0  0  0  0  0  0  0
   47.6493   34.0271   38.7594 H   0  0  0  0  0  0  0  0  0  0  0  0
   45.1496   33.0726   38.5712 H   0  0  0  0  0  0  0  0  0  0  0  0
   46.3510   31.9166   39.0976 H   0  0  0  0  0  0  0  0  0  0  0  0
   45.1391   31.7907   41.0369 H   0  0  0  0  0  0  0  0  0  0  0  0
   44.0521   36.6434   44.4763 H   0  0  0  0  0  0  0  0  0  0  0  0
   44.7013   35.9189   42.1662 H   0  0  0  0  0  0  0  0  0  0  0  0
   47.3253   32.0080   45.2200 H   0  0  0  0  0  0  0  0  0  0  0  0
   48.0937   30.5163   47.0666 H   0  0  0  0  0  0  0  0  0  0  0  0
   46.7118   30.6501   50.4770 H   0  0  0  0  0  0  0  0  0  0  0  0
   47.8789   29.8598   49.3833 H   0  0  0  0  0  0  0  0  0  0  0  0
   43.8388   34.7744   39.3647 H   0  0  0  0  0  0  0  0  0  0  0  0
   41.1641   32.1134   42.3363 H   0  0  0  0  0  0  0  0  0  0  0  0
   40.7890   36.2478   40.0602 H   0  0  0  0  0  0  0  0  0  0  0  0
   41.9798   36.0065   38.7371 H   0  0  0  0  0  0  0  0  0  0  0  0
   40.4381   35.0846   38.7371 H   0  0  0  0  0  0  0  0  0  0  0  0
  1  8  1  0
  2  1  1  0
  3  2  1  0
  4  3  1  0
  4  5  1  0
  5 20  1  0
  5  1  1  0
  6 11  2  0
  7  6  1  0
  8  7  2  0
  8  9  1  0
  9 10  2  0
 10 11  1  0
 10 12  1  0
 12 18  1  0
 13 12  1  0
 13 14  2  0
 14 15  1  0
 15 17  2  0
 15 16  1  0
 18 19  2  0
 18 17  1  0
 20 26  1  0
 21 22  2  0
 21 20  1  0
 22 23  1  0
 23 24  2  0
 23 25  1  0
 26 25  1  0
 26 27  2  0
 28 22  1  0
  2 29  1  0
  2 30  1  0
  3 31  1  0
  3 32  1  0
  4 33  1  0
  4 34  1  0
  5 35  1  1
  6 36  1  0
  7 37  1  0
 13 38  1  0
 14 39  1  0
 16 40  1  0
 16 41  1  0
 21 42  1  0
 25 43  1  0
 28 44  1  0
 28 45  1  0
 28 46  1  0
M  END
>  <Score>  (1) 
-7.30815

$$$$
