
     RDKit          3D

 40 43  0  0  0  0  0  0  0  0999 V2000
   46.9740   34.7250   42.0110 C   0  0  0  0  0  0  0  0  0  0  0  0
   48.2160   35.3040   41.7640 C   0  0  0  0  0  0  0  0  0  0  0  0
   48.4740   34.9480   40.4470 C   0  0  0  0  0  0  0  0  0  0  0  0
   47.4170   34.1970   39.9740 C   0  0  0  0  0  0  0  0  0  0  0  0
   46.5390   34.0950   40.9670 O   0  0  0  0  0  0  0  0  0  0  0  0
   47.2840   33.6380   38.6790 N   0  0  0  0  0  0  0  0  0  0  0  0
   46.4400   32.6050   38.5050 C   0  0  0  0  0  0  0  0  0  0  0  0
   46.2760   32.0280   37.2620 C   0  0  0  0  0  0  0  0  0  0  0  0
   46.9980   32.5350   36.1970 C   0  0  0  0  0  0  0  0  0  0  0  0
   46.8320   31.9950   35.0790 O   0  0  0  0  0  0  0  0  0  0  0  0
   47.8330   33.5750   36.4280 N   0  0  0  0  0  0  0  0  0  0  0  0
   47.9690   34.1140   37.6550 C   0  0  0  0  0  0  0  0  0  0  0  0
   48.7660   35.0850   37.8030 O   0  0  0  0  0  0  0  0  0  0  0  0
   45.3220   30.8920   37.1640 C   0  0  0  0  0  0  0  0  0  0  0  0
   44.5520   35.7890   44.6230 C   0  0  0  0  0  0  0  0  0  0  0  0
   45.2690   35.7630   43.3890 C   0  0  0  0  0  0  0  0  0  0  0  0
   46.2250   34.7840   43.2490 C   0  0  0  0  0  0  0  0  0  0  0  0
   46.4200   33.9280   44.2660 N   0  0  0  0  0  0  0  0  0  0  0  0
   45.7220   33.9730   45.4340 C   0  0  0  0  0  0  0  0  0  0  0  0
   44.7870   34.9110   45.6020 N   0  0  0  0  0  0  0  0  0  0  0  0
   46.0090   32.9940   46.4840 C   0  0  0  0  0  0  0  0  0  0  0  0
   47.0620   32.1200   46.3360 C   0  0  0  0  0  0  0  0  0  0  0  0
   47.2550   31.2230   47.3940 C   0  0  0  0  0  0  0  0  0  0  0  0
   46.4610   31.1940   48.5180 C   0  0  0  0  0  0  0  0  0  0  0  0
   45.4150   32.0770   48.6400 C   0  0  0  0  0  0  0  0  0  0  0  0
   45.2110   32.9700   47.6080 C   0  0  0  0  0  0  0  0  0  0  0  0
   48.8409   35.8989   42.4464 H   0  0  0  0  0  0  0  0  0  0  0  0
   49.3731   35.2198   39.8746 H   0  0  0  0  0  0  0  0  0  0  0  0
   45.8737   32.2155   39.3638 H   0  0  0  0  0  0  0  0  0  0  0  0
   48.3783   33.9642   35.6456 H   0  0  0  0  0  0  0  0  0  0  0  0
   45.0427   30.5595   38.1747 H   0  0  0  0  0  0  0  0  0  0  0  0
   44.4209   31.2156   36.6224 H   0  0  0  0  0  0  0  0  0  0  0  0
   45.7965   30.0604   36.6224 H   0  0  0  0  0  0  0  0  0  0  0  0
   43.7799   36.5580   44.7729 H   0  0  0  0  0  0  0  0  0  0  0  0
   45.0669   36.4904   42.5890 H   0  0  0  0  0  0  0  0  0  0  0  0
   47.7087   32.1257   45.4462 H   0  0  0  0  0  0  0  0  0  0  0  0
   48.0845   30.5040   47.3231 H   0  0  0  0  0  0  0  0  0  0  0  0
   46.6633   30.4655   49.3170 H   0  0  0  0  0  0  0  0  0  0  0  0
   44.7647   32.0721   49.5272 H   0  0  0  0  0  0  0  0  0  0  0  0
   44.3818   33.6886   47.6849 H   0  0  0  0  0  0  0  0  0  0  0  0
  1 17  1  0
  2  1  2  0
  3  2  1  0
  4  3  2  0
  4  5  1  0
  5  1  1  0
  6  4  1  0
  7  6  1  0
  8  7  2  0
  9 11  1  0
  9  8  1  0
 10  9  2  0
 11 12  1  0
 12 13  2  0
 12  6  1  0
 14  8  1  0
 15 20  2  0
 16 15  1  0
 17 16  2  0
 17 18  1  0
 18 19  2  0
 19 20  1  0
 19 21  1  0
 21 26  1  0
 22 21  2  0
 22 23  1  0
 23 24  2  0
 24 25  1  0
 26 25  2  0
  2 27  1  0
  3 28  1  0
  7 29  1  0
 11 30  1  0
 14 31  1  0
 14 32  1  0
 14 33  1  0
 15 34  1  0
 16 35  1  0
 22 36  1  0
 23 37  1  0
 24 38  1  0
 25 39  1  0
 26 40  1  0
M  END
>  <Score>  (1) 
-7.62374

$$$$
