
     RDKit          3D

 42 45  0  0  0  0  0  0  0  0999 V2000
   44.5800   35.8470   44.5410 C   0  0  0  0  0  0  0  0  0  0  0  0
   45.1620   35.7770   43.2710 C   0  0  0  0  0  0  0  0  0  0  0  0
   46.0570   34.7690   43.0160 C   0  0  0  0  0  0  0  0  0  0  0  0
   46.3350   33.8850   44.0110 N   0  0  0  0  0  0  0  0  0  0  0  0
   45.7640   33.9620   45.2410 C   0  0  0  0  0  0  0  0  0  0  0  0
   44.8770   34.9620   45.4920 N   0  0  0  0  0  0  0  0  0  0  0  0
   46.0760   33.0120   46.2770 C   0  0  0  0  0  0  0  0  0  0  0  0
   45.3880   33.0450   47.4820 C   0  0  0  0  0  0  0  0  0  0  0  0
   45.6340   32.1630   48.5280 C   0  0  0  0  0  0  0  0  0  0  0  0
   46.6140   31.2630   48.2610 C   0  0  0  0  0  0  0  0  0  0  0  0
   47.3320   31.1870   47.0730 C   0  0  0  0  0  0  0  0  0  0  0  0
   47.0040   32.0920   46.1360 N   0  0  0  0  0  0  0  0  0  0  0  0
   44.3740   34.0380   47.6550 N   0  0  0  0  0  0  0  0  0  0  0  0
   46.6830   34.6830   41.6720 C   0  0  0  0  0  0  0  0  0  0  0  0
   48.0610   35.3090   41.6480 C   0  0  0  0  0  0  0  0  0  0  0  0
   49.1280   34.3330   41.9530 C   0  0  0  0  0  0  0  0  0  0  0  0
   50.3230   34.6860   42.4390 N   0  0  0  0  0  0  0  0  0  0  0  0
   51.0340   33.6150   42.6000 O   0  0  0  0  0  0  0  0  0  0  0  0
   50.3340   32.5520   42.2300 C   0  0  0  0  0  0  0  0  0  0  0  0
   49.1280   32.9950   41.8190 N   0  0  0  0  0  0  0  0  0  0  0  0
   50.9130   31.2600   42.3200 N   0  0  0  0  0  0  0  0  0  0  0  0
   50.8500   30.2870   43.2400 N   0  0  0  0  0  0  0  0  0  0  0  0
   51.5970   29.2440   42.8430 C   0  0  0  0  0  0  0  0  0  0  0  0
   52.1560   29.5820   41.6110 C   0  0  0  0  0  0  0  0  0  0  0  0
   51.6980   30.8710   41.3120 C   0  0  0  0  0  0  0  0  0  0  0  0
   52.1150   31.5420   40.0450 C   0  0  0  0  0  0  0  0  0  0  0  0
   43.8612   36.6504   44.7596 H   0  0  0  0  0  0  0  0  0  0  0  0
   44.9079   36.5134   42.4944 H   0  0  0  0  0  0  0  0  0  0  0  0
   45.0863   32.1919   49.4815 H   0  0  0  0  0  0  0  0  0  0  0  0
   46.8601   30.5350   49.0480 H   0  0  0  0  0  0  0  0  0  0  0  0
   48.1178   30.4345   46.9108 H   0  0  0  0  0  0  0  0  0  0  0  0
   43.8466   34.0871   48.5384 H   0  0  0  0  0  0  0  0  0  0  0  0
   44.1709   34.7043   46.8963 H   0  0  0  0  0  0  0  0  0  0  0  0
   46.7689   33.6240   41.3872 H   0  0  0  0  0  0  0  0  0  0  0  0
   46.0465   35.2346   40.9644 H   0  0  0  0  0  0  0  0  0  0  0  0
   48.2412   35.7283   40.6472 H   0  0  0  0  0  0  0  0  0  0  0  0
   48.0886   36.0895   42.4227 H   0  0  0  0  0  0  0  0  0  0  0  0
   51.7410   28.2994   43.3879 H   0  0  0  0  0  0  0  0  0  0  0  0
   52.8236   28.9601   40.9966 H   0  0  0  0  0  0  0  0  0  0  0  0
   52.6819   32.4542   40.2826 H   0  0  0  0  0  0  0  0  0  0  0  0
   52.7480   30.8590   39.4595 H   0  0  0  0  0  0  0  0  0  0  0  0
   51.2223   31.8071   39.4595 H   0  0  0  0  0  0  0  0  0  0  0  0
  1  6  2  0
  2  1  1  0
  3  2  2  0
  3  4  1  0
  4  5  2  0
  5  6  1  0
  5  7  1  0
  7  8  2  0
  8 13  1  0
  8  9  1  0
 10  9  2  0
 11 10  1  0
 12  7  1  0
 12 11  2  0
 14  3  1  0
 15 14  1  0
 15 16  1  0
 16 17  2  0
 17 18  1  0
 19 21  1  0
 19 18  1  0
 20 16  1  0
 20 19  2  0
 21 22  1  0
 23 22  2  0
 24 23  1  0
 25 24  2  0
 25 21  1  0
 26 25  1  0
  1 27  1  0
  2 28  1  0
  9 29  1  0
 10 30  1  0
 11 31  1  0
 13 32  1  0
 13 33  1  0
 14 34  1  0
 14 35  1  0
 15 36  1  0
 15 37  1  0
 23 38  1  0
 24 39  1  0
 26 40  1  0
 26 41  1  0
 26 42  1  0
M  END
>  <Score>  (1) 
-7.19183

$$$$
