
     RDKit          3D

 53 57  0  0  1  0  0  0  0  0999 V2000
   48.7600   34.4350   41.8490 C   0  0  0  0  0  0  0  0  0  0  0  0
   46.5070   33.6500   44.6230 C   0  0  0  0  0  0  0  0  0  0  0  0
   45.4030   34.4590   44.2310 C   0  0  0  0  0  0  0  0  0  0  0  0
   46.0980   35.2060   42.6330 S   0  0  0  0  0  0  0  0  0  0  0  0
   47.7220   34.2680   42.8430 C   0  0  0  0  0  0  0  0  0  0  0  0
   47.5280   33.7140   43.7930 N   0  0  0  0  0  0  0  0  0  0  0  0
   47.0520   31.0490   47.1100 C   0  0  0  0  0  0  0  0  0  0  0  0
   46.1470   31.3970   48.1270 C   0  0  0  0  0  0  0  0  0  0  0  0
   45.3630   32.5070   47.9710 C   0  0  0  0  0  0  0  0  0  0  0  0
   45.5190   33.2150   46.8090 N   0  0  0  0  0  0  0  0  0  0  0  0
   46.3870   32.8780   45.8360 C   0  0  0  0  0  0  0  0  0  0  0  0
   47.1660   31.7910   45.9700 N   0  0  0  0  0  0  0  0  0  0  0  0
   50.0850   33.9020   42.4660 C   0  0  0  0  0  0  0  0  0  0  0  0
   48.9890   35.8860   41.5500 C   0  0  0  0  0  0  0  0  0  0  0  0
   48.6230   33.6420   40.6230 C   0  0  0  0  0  0  0  0  0  0  0  0
   47.9750   34.2710   39.5870 O   0  0  0  0  0  0  0  0  0  0  0  0
   48.2620   33.6710   38.3750 C   0  0  2  0  0  0  0  0  0  0  0  0
   48.4250   34.5670   37.1990 C   0  0  0  0  0  0  0  0  0  0  0  0
   47.3160   33.6420   37.2370 C   0  0  1  0  0  0  0  0  0  0  0  0
   47.4470   32.4640   36.2970 C   0  0  0  0  0  0  0  0  0  0  0  0
   48.3490   31.5480   36.4620 O   0  0  0  0  0  0  0  0  0  0  0  0
   46.5940   32.3060   35.2080 O   0  0  0  0  0  0  0  0  0  0  0  0
   47.0360   31.6270   34.0790 C   0  0  0  0  0  0  0  0  0  0  0  0
   46.6240   30.3300   33.7500 C   0  0  0  0  0  0  0  0  0  0  0  0
   47.2280   29.9790   32.6210 N   0  0  0  0  0  0  0  0  0  0  0  0
   48.0250   30.9480   32.1530 C   0  0  0  0  0  0  0  0  0  0  0  0
   48.8650   31.1400   31.0660 C   0  0  0  0  0  0  0  0  0  0  0  0
   49.5370   32.3370   30.9460 C   0  0  0  0  0  0  0  0  0  0  0  0
   49.4340   33.3820   31.8440 C   0  0  0  0  0  0  0  0  0  0  0  0
   48.5950   33.1800   32.9210 C   0  0  0  0  0  0  0  0  0  0  0  0
   47.9070   31.9790   33.0630 C   0  0  0  0  0  0  0  0  0  0  0  0
   44.4270   34.6079   44.7160 H   0  0  0  0  0  0  0  0  0  0  0  0
   47.6837   30.1573   47.2356 H   0  0  0  0  0  0  0  0  0  0  0  0
   46.0699   30.7844   49.0374 H   0  0  0  0  0  0  0  0  0  0  0  0
   44.6418   32.8162   48.7419 H   0  0  0  0  0  0  0  0  0  0  0  0
   50.0157   33.9299   43.5635 H   0  0  0  0  0  0  0  0  0  0  0  0
   50.2529   32.8664   42.1354 H   0  0  0  0  0  0  0  0  0  0  0  0
   50.9233   34.5329   42.1354 H   0  0  0  0  0  0  0  0  0  0  0  0
   49.0773   36.4452   42.4931 H   0  0  0  0  0  0  0  0  0  0  0  0
   49.9161   35.9987   40.9687 H   0  0  0  0  0  0  0  0  0  0  0  0
   48.1417   36.2788   40.9687 H   0  0  0  0  0  0  0  0  0  0  0  0
   49.6320   33.3713   40.2786 H   0  0  0  0  0  0  0  0  0  0  0  0
   48.0013   32.7745   40.8893 H   0  0  0  0  0  0  0  0  0  0  0  0
   48.8292   32.8886   38.9004 H   0  0  0  0  0  0  0  0  0  0  0  0
   49.2531   34.4014   36.4942 H   0  0  0  0  0  0  0  0  0  0  0  0
   48.5221   35.6540   37.0615 H   0  0  0  0  0  0  0  0  0  0  0  0
   46.2230   33.7290   37.1483 H   0  0  0  0  0  0  0  0  0  0  0  0
   45.9220   29.7097   34.3266 H   0  0  0  0  0  0  0  0  0  0  0  0
   47.0986   29.0676   32.1589 H   0  0  0  0  0  0  0  0  0  0  0  0
   48.9926   30.3494   30.3119 H   0  0  0  0  0  0  0  0  0  0  0  0
   50.1993   32.4693   30.0778 H   0  0  0  0  0  0  0  0  0  0  0  0
   49.9893   34.3218   31.7082 H   0  0  0  0  0  0  0  0  0  0  0  0
   48.4694   33.9737   33.6721 H   0  0  0  0  0  0  0  0  0  0  0  0
  1 13  1  0
  1  5  1  0
  2 11  1  0
  3  2  2  0
  4  5  1  0
  4  3  1  0
  5  6  2  0
  6  2  1  0
  7  8  2  0
  9  8  1  0
 10  9  2  0
 11 12  2  0
 11 10  1  0
 12  7  1  0
 14  1  1  0
 15  1  1  0
 16 15  1  0
 17 16  1  0
 18 19  1  0
 18 17  1  0
 19 17  1  0
 20 21  2  0
 20 19  1  0
 22 20  1  0
 23 22  1  0
 24 23  2  0
 25 24  1  0
 26 25  1  0
 26 31  2  0
 27 26  1  0
 28 27  2  0
 28 29  1  0
 29 30  2  0
 30 31  1  0
 31 23  1  0
  3 32  1  0
  7 33  1  0
  8 34  1  0
  9 35  1  0
 13 36  1  0
 13 37  1  0
 13 38  1  0
 14 39  1  0
 14 40  1  0
 14 41  1  0
 15 42  1  0
 15 43  1  0
 17 44  1  1
 18 45  1  0
 18 46  1  0
 19 47  1  1
 24 48  1  0
 25 49  1  0
 27 50  1  0
 28 51  1  0
 29 52  1  0
 30 53  1  0
M  END
>  <Score>  (1) 
-7.02171

$$$$
