
     RDKit          3D

 34 37  0  0  0  0  0  0  0  0999 V2000
   48.5470   35.1760   40.7540 C   0  0  0  0  0  0  0  0  0  0  0  0
   48.3430   34.0090   39.9910 C   0  0  0  0  0  0  0  0  0  0  0  0
   47.3080   33.1660   40.3850 C   0  0  0  0  0  0  0  0  0  0  0  0
   46.5400   33.4990   41.4820 N   0  0  0  0  0  0  0  0  0  0  0  0
   46.7950   34.6390   42.1660 C   0  0  0  0  0  0  0  0  0  0  0  0
   47.7820   35.4670   41.8120 N   0  0  0  0  0  0  0  0  0  0  0  0
   45.9620   34.9390   43.3050 N   0  0  0  0  0  0  0  0  0  0  0  0
   45.0600   35.9020   43.5800 C   0  0  0  0  0  0  0  0  0  0  0  0
   44.5710   35.7060   44.8130 N   0  0  0  0  0  0  0  0  0  0  0  0
   45.1780   34.5940   45.3290 C   0  0  0  0  0  0  0  0  0  0  0  0
   45.0080   33.9880   46.5650 C   0  0  0  0  0  0  0  0  0  0  0  0
   45.7420   32.8880   46.8200 N   0  0  0  0  0  0  0  0  0  0  0  0
   46.6060   32.4000   45.9010 C   0  0  0  0  0  0  0  0  0  0  0  0
   46.7500   33.0060   44.7130 N   0  0  0  0  0  0  0  0  0  0  0  0
   46.0590   34.1060   44.3790 C   0  0  0  0  0  0  0  0  0  0  0  0
   47.3470   31.2330   46.2460 N   0  0  0  0  0  0  0  0  0  0  0  0
   47.7000   30.1790   45.4950 C   0  0  0  0  0  0  0  0  0  0  0  0
   48.4290   29.1610   46.0740 C   0  0  0  0  0  0  0  0  0  0  0  0
   48.7960   29.2100   47.4020 C   0  0  0  0  0  0  0  0  0  0  0  0
   49.5540   28.1120   47.9320 N   0  0  0  0  0  0  0  0  0  0  0  0
   48.4370   30.2740   48.1570 N   0  0  0  0  0  0  0  0  0  0  0  0
   47.7200   31.2610   47.5530 C   0  0  0  0  0  0  0  0  0  0  0  0
   47.4530   32.1950   48.3820 O   0  0  0  0  0  0  0  0  0  0  0  0
   44.1090   34.4910   47.5240 N   0  0  0  0  0  0  0  0  0  0  0  0
   49.3564   35.8656   40.4722 H   0  0  0  0  0  0  0  0  0  0  0  0
   48.9745   33.7744   39.1215 H   0  0  0  0  0  0  0  0  0  0  0  0
   47.1037   32.2410   39.8259 H   0  0  0  0  0  0  0  0  0  0  0  0
   44.7712   36.7182   42.9014 H   0  0  0  0  0  0  0  0  0  0  0  0
   47.4127   30.1273   44.4344 H   0  0  0  0  0  0  0  0  0  0  0  0
   48.7230   28.2937   45.4646 H   0  0  0  0  0  0  0  0  0  0  0  0
   49.8447   28.1163   48.9201 H   0  0  0  0  0  0  0  0  0  0  0  0
   49.8071   27.3200   47.3241 H   0  0  0  0  0  0  0  0  0  0  0  0
   44.0067   34.0168   48.4326 H   0  0  0  0  0  0  0  0  0  0  0  0
   43.5534   35.3333   47.3172 H   0  0  0  0  0  0  0  0  0  0  0  0
  1  6  2  0
  2  3  2  0
  2  1  1  0
  3  4  1  0
  4  5  2  0
  5  7  1  0
  6  5  1  0
  7  8  1  0
  7 15  1  0
  8  9  2  0
  9 10  1  0
 10 11  2  0
 11 12  1  0
 11 24  1  0
 13 16  1  0
 13 12  2  0
 14 13  1  0
 15 14  2  0
 15 10  1  0
 16 22  1  0
 17 18  2  0
 17 16  1  0
 18 19  1  0
 19 20  1  0
 19 21  2  0
 22 21  1  0
 22 23  2  0
  1 25  1  0
  2 26  1  0
  3 27  1  0
  8 28  1  0
 17 29  1  0
 18 30  1  0
 20 31  1  0
 20 32  1  0
 24 33  1  0
 24 34  1  0
M  END
>  <Score>  (1) 
-7.18062

$$$$
