
     RDKit          3D

 33 35  0  0  0  0  0  0  0  0999 V2000
   46.9190   34.7110   41.9010 C   0  0  0  0  0  0  0  0  0  0  0  0
   48.1990   35.2140   41.6550 C   0  0  0  0  0  0  0  0  0  0  0  0
   48.4450   34.8280   40.3370 C   0  0  0  0  0  0  0  0  0  0  0  0
   47.3250   34.1300   39.8710 C   0  0  0  0  0  0  0  0  0  0  0  0
   46.4440   34.0910   40.8520 O   0  0  0  0  0  0  0  0  0  0  0  0
   47.1730   33.5680   38.5750 N   0  0  0  0  0  0  0  0  0  0  0  0
   46.3130   32.5450   38.4230 C   0  0  0  0  0  0  0  0  0  0  0  0
   46.1300   31.9690   37.1930 C   0  0  0  0  0  0  0  0  0  0  0  0
   46.8430   32.4560   36.1130 C   0  0  0  0  0  0  0  0  0  0  0  0
   46.6430   31.8970   34.9980 O   0  0  0  0  0  0  0  0  0  0  0  0
   47.6830   33.4740   36.3200 N   0  0  0  0  0  0  0  0  0  0  0  0
   47.8550   34.0360   37.5460 C   0  0  0  0  0  0  0  0  0  0  0  0
   48.6550   34.9920   37.6860 O   0  0  0  0  0  0  0  0  0  0  0  0
   45.1360   30.8420   37.1340 C   0  0  0  0  0  0  0  0  0  0  0  0
   44.5690   35.9880   44.4830 C   0  0  0  0  0  0  0  0  0  0  0  0
   45.2860   35.8930   43.2520 C   0  0  0  0  0  0  0  0  0  0  0  0
   46.1720   34.8350   43.1440 C   0  0  0  0  0  0  0  0  0  0  0  0
   46.3140   33.9730   44.1610 N   0  0  0  0  0  0  0  0  0  0  0  0
   45.6180   34.0890   45.3190 C   0  0  0  0  0  0  0  0  0  0  0  0
   44.7430   35.1020   45.4770 N   0  0  0  0  0  0  0  0  0  0  0  0
   45.8120   33.1090   46.4170 C   0  0  0  0  0  0  0  0  0  0  0  0
   44.8850   33.3120   47.4070 F   0  0  0  0  0  0  0  0  0  0  0  0
   45.6420   31.8570   45.8540 F   0  0  0  0  0  0  0  0  0  0  0  0
   47.1170   33.1600   46.9200 F   0  0  0  0  0  0  0  0  0  0  0  0
   48.8541   35.7777   42.3355 H   0  0  0  0  0  0  0  0  0  0  0  0
   49.3604   35.0362   39.7636 H   0  0  0  0  0  0  0  0  0  0  0  0
   45.7530   32.1683   39.2916 H   0  0  0  0  0  0  0  0  0  0  0  0
   48.2190   33.8461   35.5230 H   0  0  0  0  0  0  0  0  0  0  0  0
   44.8667   30.5367   38.1559 H   0  0  0  0  0  0  0  0  0  0  0  0
   44.2335   31.1766   36.6015 H   0  0  0  0  0  0  0  0  0  0  0  0
   45.5807   29.9884   36.6015 H   0  0  0  0  0  0  0  0  0  0  0  0
   43.8528   36.8114   44.6213 H   0  0  0  0  0  0  0  0  0  0  0  0
   45.1427   36.6180   42.4372 H   0  0  0  0  0  0  0  0  0  0  0  0
  1 17  1  0
  2  1  2  0
  3  2  1  0
  4  3  2  0
  4  5  1  0
  5  1  1  0
  6  4  1  0
  7  6  1  0
  8  7  2  0
  9 11  1  0
  9  8  1  0
 10  9  2  0
 11 12  1  0
 12 13  2  0
 12  6  1  0
 14  8  1  0
 15 20  2  0
 16 15  1  0
 17 16  2  0
 17 18  1  0
 18 19  2  0
 19 20  1  0
 19 21  1  0
 21 24  1  0
 21 22  1  0
 23 21  1  0
  2 25  1  0
  3 26  1  0
  7 27  1  0
 11 28  1  0
 14 29  1  0
 14 30  1  0
 14 31  1  0
 15 32  1  0
 16 33  1  0
M  END
>  <Score>  (1) 
-7.01284

$$$$
