
     RDKit          3D

 52 56  0  0  1  0  0  0  0  0999 V2000
   41.0930   33.8120   39.1500 C   0  0  2  0  0  0  0  0  0  0  0  0
   40.2120   34.6640   38.2340 C   0  0  0  0  0  0  0  0  0  0  0  0
   38.8930   34.0360   37.9060 C   0  0  0  0  0  0  0  0  0  0  0  0
   38.0840   33.9840   39.1920 C   0  0  0  0  0  0  0  0  0  0  0  0
   39.0280   33.8620   40.3930 C   0  0  0  0  0  0  0  0  0  0  0  0
   40.2470   33.0350   39.9650 C   0  0  2  0  0  0  0  0  0  0  0  0
   40.5440   31.9850   40.9230 C   0  0  0  0  0  0  0  0  0  0  0  0
   41.7420   31.7640   41.6100 C   0  0  0  0  0  0  0  0  0  0  0  0
   42.0550   30.8170   42.5370 C   0  0  0  0  0  0  0  0  0  0  0  0
   41.0540   29.9570   42.8430 C   0  0  0  0  0  0  0  0  0  0  0  0
   39.8100   30.0320   42.2600 C   0  0  0  0  0  0  0  0  0  0  0  0
   38.8510   29.1200   42.6420 C   0  0  0  0  0  0  0  0  0  0  0  0
   37.5980   29.1840   42.0830 C   0  0  0  0  0  0  0  0  0  0  0  0
   37.3200   30.1720   41.1370 C   0  0  0  0  0  0  0  0  0  0  0  0
   38.3310   31.0510   40.8060 C   0  0  0  0  0  0  0  0  0  0  0  0
   39.5980   31.0290   41.3330 C   0  0  0  0  0  0  0  0  0  0  0  0
   42.4010   34.6320   41.2290 C   0  0  1  0  0  0  0  0  0  0  0  0
   41.7370   35.8770   40.5870 C   0  0  0  0  0  0  0  0  0  0  0  0
   42.0790   34.7120   39.8400 C   0  0  2  0  0  0  0  0  0  0  0  0
   46.0840   34.6260   41.3330 C   0  0  0  0  0  0  0  0  0  0  0  0
   46.3500   35.1770   42.6150 C   0  0  0  0  0  0  0  0  0  0  0  0
   45.2490   35.5650   43.4160 C   0  0  0  0  0  0  0  0  0  0  0  0
   43.9930   35.3920   42.9200 N   0  0  0  0  0  0  0  0  0  0  0  0
   43.8010   34.8630   41.6950 C   0  0  0  0  0  0  0  0  0  0  0  0
   44.8230   34.4720   40.8800 N   0  0  0  0  0  0  0  0  0  0  0  0
   47.2370   34.2190   40.5150 C   0  0  0  0  0  0  0  0  0  0  0  0
   41.7218   33.0820   38.6193 H   0  0  0  0  0  0  0  0  0  0  0  0
   40.0232   35.6264   38.7321 H   0  0  0  0  0  0  0  0  0  0  0  0
   40.7557   34.7796   37.2848 H   0  0  0  0  0  0  0  0  0  0  0  0
   38.3652   34.6404   37.1536 H   0  0  0  0  0  0  0  0  0  0  0  0
   39.0346   33.0259   37.4942 H   0  0  0  0  0  0  0  0  0  0  0  0
   37.4890   34.9043   39.2869 H   0  0  0  0  0  0  0  0  0  0  0  0
   37.4145   33.1116   39.1655 H   0  0  0  0  0  0  0  0  0  0  0  0
   39.3518   34.8628   40.7148 H   0  0  0  0  0  0  0  0  0  0  0  0
   38.5127   33.3715   41.2320 H   0  0  0  0  0  0  0  0  0  0  0  0
   40.2245   32.2493   39.1955 H   0  0  0  0  0  0  0  0  0  0  0  0
   42.5558   32.4619   41.3638 H   0  0  0  0  0  0  0  0  0  0  0  0
   43.0491   30.7548   43.0038 H   0  0  0  0  0  0  0  0  0  0  0  0
   41.2430   29.1684   43.5862 H   0  0  0  0  0  0  0  0  0  0  0  0
   39.0866   28.3471   43.3883 H   0  0  0  0  0  0  0  0  0  0  0  0
   36.8210   28.4635   42.3780 H   0  0  0  0  0  0  0  0  0  0  0  0
   36.3268   30.2475   40.6703 H   0  0  0  0  0  0  0  0  0  0  0  0
   38.1039   31.8292   40.0625 H   0  0  0  0  0  0  0  0  0  0  0  0
   42.1937   33.8907   42.0148 H   0  0  0  0  0  0  0  0  0  0  0  0
   40.6838   36.1169   40.7949 H   0  0  0  0  0  0  0  0  0  0  0  0
   41.9589   36.9527   40.5263 H   0  0  0  0  0  0  0  0  0  0  0  0
   42.6710   34.5687   38.9240 H   0  0  0  0  0  0  0  0  0  0  0  0
   47.3822   35.2988   42.9752 H   0  0  0  0  0  0  0  0  0  0  0  0
   45.4048   35.9962   44.4159 H   0  0  0  0  0  0  0  0  0  0  0  0
   48.0682   33.9256   41.1731 H   0  0  0  0  0  0  0  0  0  0  0  0
   46.9535   33.3666   39.8801 H   0  0  0  0  0  0  0  0  0  0  0  0
   47.5514   35.0605   39.8801 H   0  0  0  0  0  0  0  0  0  0  0  0
  1 19  1  0
  1  6  1  0
  2  1  1  0
  3  2  1  0
  3  4  1  0
  4  5  1  0
  6  5  1  0
  6  7  1  0
  7 16  1  0
  7  8  2  0
  8  9  1  0
  9 10  2  0
 11 12  2  0
 11 10  1  0
 13 12  1  0
 14 13  2  0
 15 14  1  0
 15 16  2  0
 16 11  1  0
 17 24  1  0
 18 17  1  0
 19 18  1  0
 19 17  1  0
 20 21  2  0
 21 22  1  0
 23 22  2  0
 24 23  1  0
 25 20  1  0
 25 24  2  0
 26 20  1  0
  1 27  1  6
  2 28  1  0
  2 29  1  0
  3 30  1  0
  3 31  1  0
  4 32  1  0
  4 33  1  0
  5 34  1  0
  5 35  1  0
  6 36  1  6
  8 37  1  0
  9 38  1  0
 10 39  1  0
 12 40  1  0
 13 41  1  0
 14 42  1  0
 15 43  1  0
 17 44  1  1
 18 45  1  0
 18 46  1  0
 19 47  1  6
 21 48  1  0
 22 49  1  0
 26 50  1  0
 26 51  1  0
 26 52  1  0
M  END
>  <Score>  (1) 
-7.0849

$$$$
