
     RDKit          3D

 56 60  0  0  1  0  0  0  0  0999 V2000
   45.5630   34.2130   40.9860 C   0  0  0  0  0  0  0  0  0  0  0  0
   46.6130   33.6750   40.0620 C   0  0  0  0  0  0  0  0  0  0  0  0
   46.1060   33.7560   38.7330 N   0  0  0  0  0  0  0  0  0  0  0  0
   46.9950   33.5060   37.6320 C   0  0  0  0  0  0  0  0  0  0  0  0
   48.2320   34.0050   37.2990 C   0  0  0  0  0  0  0  0  0  0  0  0
   48.5540   33.3610   36.1170 C   0  0  0  0  0  0  0  0  0  0  0  0
   47.5540   32.5350   35.7880 N   0  0  0  0  0  0  0  0  0  0  0  0
   46.5930   32.6090   36.7000 N   0  0  0  0  0  0  0  0  0  0  0  0
   47.4960   31.6910   34.6410 C   0  0  0  0  0  0  0  0  0  0  0  0
   46.7630   30.5680   34.7560 N   0  0  0  0  0  0  0  0  0  0  0  0
   46.6440   29.7060   33.7320 C   0  0  0  0  0  0  0  0  0  0  0  0
   47.2590   29.9300   32.5390 N   0  0  0  0  0  0  0  0  0  0  0  0
   48.0130   31.0540   32.3750 C   0  0  0  0  0  0  0  0  0  0  0  0
   48.6690   31.3400   31.1770 C   0  0  0  0  0  0  0  0  0  0  0  0
   49.4260   32.5120   31.0790 C   0  0  0  0  0  0  0  0  0  0  0  0
   49.5370   33.3980   32.1560 C   0  0  0  0  0  0  0  0  0  0  0  0
   48.8690   33.0730   33.3290 C   0  0  0  0  0  0  0  0  0  0  0  0
   48.1220   31.9260   33.4380 C   0  0  0  0  0  0  0  0  0  0  0  0
   46.1700   34.9610   42.0280 O   0  0  0  0  0  0  0  0  0  0  0  0
   44.6550   35.3550   45.4100 C   0  0  0  0  0  0  0  0  0  0  0  0
   44.9750   35.6700   44.0950 C   0  0  0  0  0  0  0  0  0  0  0  0
   45.7640   34.7950   43.3420 C   0  0  0  0  0  0  0  0  0  0  0  0
   46.1720   33.6580   43.9880 N   0  0  0  0  0  0  0  0  0  0  0  0
   45.8420   33.3840   45.2640 C   0  0  0  0  0  0  0  0  0  0  0  0
   45.0900   34.2320   45.9580 N   0  0  0  0  0  0  0  0  0  0  0  0
   46.2970   32.1830   45.8810 N   0  0  0  0  0  0  0  0  0  0  0  0
   47.3760   31.4100   45.3510 C   0  0  0  0  0  0  0  0  0  0  0  0
   46.9410   29.9720   45.3610 C   0  0  0  0  0  0  0  0  0  0  0  0
   46.6490   29.5120   46.6290 O   0  0  0  0  0  0  0  0  0  0  0  0
   46.5450   30.5090   47.5670 C   0  0  0  0  0  0  0  0  0  0  0  0
   45.6940   31.6760   47.0770 C   0  0  1  0  0  0  0  0  0  0  0  0
   45.4680   32.6580   48.1580 C   0  0  0  0  0  0  0  0  0  0  0  0
   44.9968   33.3760   41.4206 H   0  0  0  0  0  0  0  0  0  0  0  0
   44.8849   34.8680   40.4193 H   0  0  0  0  0  0  0  0  0  0  0  0
   47.5312   34.2743   40.1495 H   0  0  0  0  0  0  0  0  0  0  0  0
   46.8536   32.6328   40.3188 H   0  0  0  0  0  0  0  0  0  0  0  0
   45.1173   33.9902   38.5639 H   0  0  0  0  0  0  0  0  0  0  0  0
   48.8301   34.7476   37.8475 H   0  0  0  0  0  0  0  0  0  0  0  0
   49.4806   33.5047   35.5419 H   0  0  0  0  0  0  0  0  0  0  0  0
   46.0356   28.7987   33.8611 H   0  0  0  0  0  0  0  0  0  0  0  0
   48.5918   30.6530   30.3214 H   0  0  0  0  0  0  0  0  0  0  0  0
   49.9444   32.7417   30.1364 H   0  0  0  0  0  0  0  0  0  0  0  0
   50.1324   34.3195   32.0763 H   0  0  0  0  0  0  0  0  0  0  0  0
   48.9399   33.7511   34.1923 H   0  0  0  0  0  0  0  0  0  0  0  0
   44.0347   36.0453   46.0005 H   0  0  0  0  0  0  0  0  0  0  0  0
   44.6085   36.6056   43.6474 H   0  0  0  0  0  0  0  0  0  0  0  0
   48.2725   31.5367   45.9757 H   0  0  0  0  0  0  0  0  0  0  0  0
   47.6239   31.7353   44.3299 H   0  0  0  0  0  0  0  0  0  0  0  0
   46.0421   29.8720   44.7349 H   0  0  0  0  0  0  0  0  0  0  0  0
   47.7761   29.3699   44.9736 H   0  0  0  0  0  0  0  0  0  0  0  0
   46.0860   30.0933   48.4761 H   0  0  0  0  0  0  0  0  0  0  0  0
   47.5571   30.8904   47.7673 H   0  0  0  0  0  0  0  0  0  0  0  0
   44.6742   31.3632   46.8083 H   0  0  0  0  0  0  0  0  0  0  0  0
   45.5821   32.1624   49.1334 H   0  0  0  0  0  0  0  0  0  0  0  0
   46.2021   33.4727   48.0726 H   0  0  0  0  0  0  0  0  0  0  0  0
   44.4516   33.0699   48.0726 H   0  0  0  0  0  0  0  0  0  0  0  0
  1 19  1  0
  2  1  1  0
  3  2  1  0
  4  3  1  0
  5  4  1  0
  6  5  2  0
  7  6  1  0
  7  8  1  0
  8  4  2  0
  9 10  2  0
  9  7  1  0
 11 10  1  0
 12 11  2  0
 13 12  1  0
 13 18  2  0
 14 13  1  0
 15 14  2  0
 15 16  1  0
 16 17  2  0
 17 18  1  0
 18  9  1  0
 19 22  1  0
 20 25  2  0
 21 20  1  0
 22 23  1  0
 22 21  2  0
 23 24  2  0
 24 26  1  0
 24 25  1  0
 26 31  1  0
 27 28  1  0
 27 26  1  0
 28 29  1  0
 29 30  1  0
 31 30  1  0
 31 32  1  0
  1 33  1  0
  1 34  1  0
  2 35  1  0
  2 36  1  0
  3 37  1  0
  5 38  1  0
  6 39  1  0
 11 40  1  0
 14 41  1  0
 15 42  1  0
 16 43  1  0
 17 44  1  0
 20 45  1  0
 21 46  1  0
 27 47  1  0
 27 48  1  0
 28 49  1  0
 28 50  1  0
 30 51  1  0
 30 52  1  0
 31 53  1  6
 32 54  1  0
 32 55  1  0
 32 56  1  0
M  END
>  <Score>  (1) 
-7.66684

$$$$
