
     RDKit          3D

 37 41  0  0  0  0  0  0  0  0999 V2000
   44.5840   35.6810   45.0600 C   0  0  0  0  0  0  0  0  0  0  0  0
   44.1790   35.6720   43.7170 C   0  0  0  0  0  0  0  0  0  0  0  0
   44.4490   34.5520   42.9400 C   0  0  0  0  0  0  0  0  0  0  0  0
   45.0990   33.5030   43.5130 N   0  0  0  0  0  0  0  0  0  0  0  0
   45.4740   33.5450   44.8130 C   0  0  0  0  0  0  0  0  0  0  0  0
   45.2230   34.6240   45.5910 N   0  0  0  0  0  0  0  0  0  0  0  0
   46.1530   32.4600   45.4350 N   0  0  0  0  0  0  0  0  0  0  0  0
   46.9360   31.5930   44.7630 C   0  0  0  0  0  0  0  0  0  0  0  0
   47.4460   30.6720   45.6220 N   0  0  0  0  0  0  0  0  0  0  0  0
   46.9580   30.9930   46.8320 C   0  0  0  0  0  0  0  0  0  0  0  0
   47.0950   30.4610   48.0960 C   0  0  0  0  0  0  0  0  0  0  0  0
   46.4790   30.9910   49.1680 N   0  0  0  0  0  0  0  0  0  0  0  0
   45.6830   32.0930   49.0490 C   0  0  0  0  0  0  0  0  0  0  0  0
   45.5520   32.6120   47.8150 N   0  0  0  0  0  0  0  0  0  0  0  0
   46.1510   32.1070   46.7280 C   0  0  0  0  0  0  0  0  0  0  0  0
   44.0260   34.5510   41.5440 C   0  0  0  0  0  0  0  0  0  0  0  0
   44.7810   34.1460   40.4400 C   0  0  0  0  0  0  0  0  0  0  0  0
   44.0580   34.2880   39.3280 N   0  0  0  0  0  0  0  0  0  0  0  0
   42.8500   34.7780   39.6910 C   0  0  0  0  0  0  0  0  0  0  0  0
   41.7460   35.0990   38.9120 C   0  0  0  0  0  0  0  0  0  0  0  0
   40.6320   35.5840   39.5420 C   0  0  0  0  0  0  0  0  0  0  0  0
   40.5150   35.7830   40.9120 C   0  0  0  0  0  0  0  0  0  0  0  0
   41.6470   35.4430   41.6320 C   0  0  0  0  0  0  0  0  0  0  0  0
   42.7860   34.9580   41.0770 C   0  0  0  0  0  0  0  0  0  0  0  0
   47.9090   29.3110   48.2920 N   0  0  0  0  0  0  0  0  0  0  0  0
   44.3766   36.5620   45.6852 H   0  0  0  0  0  0  0  0  0  0  0  0
   43.6558   36.5381   43.2856 H   0  0  0  0  0  0  0  0  0  0  0  0
   47.1327   31.6260   43.6812 H   0  0  0  0  0  0  0  0  0  0  0  0
   45.1741   32.5346   49.9185 H   0  0  0  0  0  0  0  0  0  0  0  0
   45.8132   33.7681   40.4816 H   0  0  0  0  0  0  0  0  0  0  0  0
   44.3630   34.0656   38.3697 H   0  0  0  0  0  0  0  0  0  0  0  0
   41.7663   34.9672   37.8201 H   0  0  0  0  0  0  0  0  0  0  0  0
   39.7631   35.8354   38.9160 H   0  0  0  0  0  0  0  0  0  0  0  0
   39.6023   36.1765   41.3833 H   0  0  0  0  0  0  0  0  0  0  0  0
   41.6216   35.5744   42.7238 H   0  0  0  0  0  0  0  0  0  0  0  0
   48.0147   28.9095   49.2346 H   0  0  0  0  0  0  0  0  0  0  0  0
   48.3927   28.8799   47.4913 H   0  0  0  0  0  0  0  0  0  0  0  0
  1  6  2  0
  2  1  1  0
  3  4  1  0
  3  2  2  0
  4  5  2  0
  5  7  1  0
  5  6  1  0
  7 15  1  0
  8  7  1  0
  8  9  2  0
  9 10  1  0
 10 11  2  0
 11 25  1  0
 11 12  1  0
 13 12  2  0
 14 13  1  0
 15 10  1  0
 15 14  2  0
 16  3  1  0
 17 16  2  0
 18 19  1  0
 18 17  1  0
 19 24  2  0
 20 21  2  0
 20 19  1  0
 21 22  1  0
 22 23  2  0
 24 16  1  0
 24 23  1  0
  1 26  1  0
  2 27  1  0
  8 28  1  0
 13 29  1  0
 17 30  1  0
 18 31  1  0
 20 32  1  0
 21 33  1  0
 22 34  1  0
 23 35  1  0
 25 36  1  0
 25 37  1  0
M  END
>  <Score>  (1) 
-7.98818

$$$$
