
     RDKit          3D

 42 44  0  0  1  0  0  0  0  0999 V2000
   46.4890   34.1230   42.4580 N   0  0  0  0  0  0  0  0  0  0  0  0
   47.8600   34.3600   42.0090 C   0  0  0  0  0  0  0  0  0  0  0  0
   47.6440   34.4060   40.5130 C   0  0  0  0  0  0  0  0  0  0  0  0
   46.8390   33.1410   40.3240 C   0  0  0  0  0  0  0  0  0  0  0  0
   45.9220   33.1600   41.5020 C   0  0  2  0  0  0  0  0  0  0  0  0
   44.5460   36.3910   44.6510 C   0  0  0  0  0  0  0  0  0  0  0  0
   45.2110   35.9240   43.5170 C   0  0  0  0  0  0  0  0  0  0  0  0
   45.8090   34.6620   43.5440 C   0  0  0  0  0  0  0  0  0  0  0  0
   45.6950   33.9610   44.7060 N   0  0  0  0  0  0  0  0  0  0  0  0
   45.0480   34.4220   45.8010 C   0  0  0  0  0  0  0  0  0  0  0  0
   44.4790   35.6400   45.7570 N   0  0  0  0  0  0  0  0  0  0  0  0
   44.9630   33.6460   46.9880 N   0  0  0  0  0  0  0  0  0  0  0  0
   45.9980   32.7290   47.3190 C   0  0  0  0  0  0  0  0  0  0  0  0
   47.1930   32.9630   46.8830 N   0  0  0  0  0  0  0  0  0  0  0  0
   45.7470   31.5640   48.1180 N   0  0  0  0  0  0  0  0  0  0  0  0
   48.0220   32.3690   47.0600 H   0  0  0  0  0  0  0  0  0  0  0  0
   44.5430   33.3500   41.2310 N   0  0  0  0  0  0  0  0  0  0  0  0
   43.9950   34.2140   40.3780 C   0  0  0  0  0  0  0  0  0  0  0  0
   42.6260   34.3180   40.1900 C   0  0  0  0  0  0  0  0  0  0  0  0
   41.7670   33.4980   40.9090 C   0  0  0  0  0  0  0  0  0  0  0  0
   40.4990   33.5480   40.7780 O   0  0  0  0  0  0  0  0  0  0  0  0
   42.3300   32.6280   41.7680 N   0  0  0  0  0  0  0  0  0  0  0  0
   43.6490   32.5750   41.9050 C   0  0  0  0  0  0  0  0  0  0  0  0
   44.0740   31.7170   42.7440 O   0  0  0  0  0  0  0  0  0  0  0  0
   42.0410   35.2860   39.2360 C   0  0  0  0  0  0  0  0  0  0  0  0
   48.2564   35.3114   42.3934 H   0  0  0  0  0  0  0  0  0  0  0  0
   48.5934   33.6134   42.3478 H   0  0  0  0  0  0  0  0  0  0  0  0
   47.0779   35.2991   40.2097 H   0  0  0  0  0  0  0  0  0  0  0  0
   48.5648   34.4626   39.9139 H   0  0  0  0  0  0  0  0  0  0  0  0
   46.2741   33.1670   39.3805 H   0  0  0  0  0  0  0  0  0  0  0  0
   47.4575   32.2333   40.2654 H   0  0  0  0  0  0  0  0  0  0  0  0
   45.8863   32.1483   41.9323 H   0  0  0  0  0  0  0  0  0  0  0  0
   44.0731   37.3840   44.6361 H   0  0  0  0  0  0  0  0  0  0  0  0
   45.2639   36.5440   42.6099 H   0  0  0  0  0  0  0  0  0  0  0  0
   44.1490   33.7480   47.6108 H   0  0  0  0  0  0  0  0  0  0  0  0
   46.5168   30.9173   48.3418 H   0  0  0  0  0  0  0  0  0  0  0  0
   44.7970   31.3743   48.4678 H   0  0  0  0  0  0  0  0  0  0  0  0
   44.6576   34.8732   39.7980 H   0  0  0  0  0  0  0  0  0  0  0  0
   41.7327   31.9987   42.3231 H   0  0  0  0  0  0  0  0  0  0  0  0
   41.5502   36.0981   39.7923 H   0  0  0  0  0  0  0  0  0  0  0  0
   42.8376   35.7043   38.6032 H   0  0  0  0  0  0  0  0  0  0  0  0
   41.3003   34.7752   38.6032 H   0  0  0  0  0  0  0  0  0  0  0  0
  1  8  1  0
  2  1  1  0
  3  2  1  0
  4  3  1  0
  4  5  1  0
  5  1  1  0
  6 11  2  0
  7  8  2  0
  7  6  1  0
  8  9  1  0
  9 10  2  0
 10 12  1  0
 11 10  1  0
 12 13  1  0
 13 15  1  0
 14 16  1  0
 14 13  2  0
 17  5  1  0
 17 23  1  0
 18 17  1  0
 19 18  2  0
 19 20  1  0
 20 22  1  0
 21 20  2  0
 22 23  1  0
 23 24  2  0
 25 19  1  0
  2 26  1  0
  2 27  1  0
  3 28  1  0
  3 29  1  0
  4 30  1  0
  4 31  1  0
  5 32  1  1
  6 33  1  0
  7 34  1  0
 12 35  1  0
 15 36  1  0
 15 37  1  0
 18 38  1  0
 22 39  1  0
 25 40  1  0
 25 41  1  0
 25 42  1  0
M  END
>  <Score>  (1) 
-7.10094

$$$$
