
     RDKit          3D

 50 53  0  0  0  0  0  0  0  0999 V2000
   44.6200   35.9580   44.5360 C   0  0  0  0  0  0  0  0  0  0  0  0
   45.3830   35.9650   43.3400 C   0  0  0  0  0  0  0  0  0  0  0  0
   46.2360   34.8950   43.1110 C   0  0  0  0  0  0  0  0  0  0  0  0
   46.2910   33.9160   44.0320 N   0  0  0  0  0  0  0  0  0  0  0  0
   45.5480   33.9300   45.1750 C   0  0  0  0  0  0  0  0  0  0  0  0
   44.7100   34.9590   45.4220 N   0  0  0  0  0  0  0  0  0  0  0  0
   47.0310   34.8670   41.9020 C   0  0  0  0  0  0  0  0  0  0  0  0
   48.2320   35.5360   41.8940 C   0  0  0  0  0  0  0  0  0  0  0  0
   48.9460   35.4830   40.7370 C   0  0  0  0  0  0  0  0  0  0  0  0
   48.4870   34.8070   39.6640 N   0  0  0  0  0  0  0  0  0  0  0  0
   47.3050   34.1580   39.7000 C   0  0  0  0  0  0  0  0  0  0  0  0
   46.5860   34.2020   40.8400 N   0  0  0  0  0  0  0  0  0  0  0  0
   46.8890   33.4650   38.5270 N   0  0  0  0  0  0  0  0  0  0  0  0
   45.9870   32.4670   38.7660 C   0  0  0  0  0  0  0  0  0  0  0  0
   45.4930   31.7040   37.6990 C   0  0  0  0  0  0  0  0  0  0  0  0
   45.9830   32.0460   36.4560 C   0  0  0  0  0  0  0  0  0  0  0  0
   45.5030   31.3250   35.5280 O   0  0  0  0  0  0  0  0  0  0  0  0
   46.8610   33.0200   36.2250 N   0  0  0  0  0  0  0  0  0  0  0  0
   47.3020   33.7210   37.2870 C   0  0  0  0  0  0  0  0  0  0  0  0
   48.1280   34.6460   37.1320 O   0  0  0  0  0  0  0  0  0  0  0  0
   45.7070   32.7760   46.1170 C   0  0  0  0  0  0  0  0  0  0  0  0
   45.2020   33.1860   47.5080 C   0  0  0  0  0  0  0  0  0  0  0  0
   45.9010   32.4160   48.5970 C   0  0  0  0  0  0  0  0  0  0  0  0
   45.1180   31.1430   48.8010 C   0  0  0  0  0  0  0  0  0  0  0  0
   45.7120   29.9360   48.1380 C   0  0  0  0  0  0  0  0  0  0  0  0
   47.1650   29.7130   48.4580 C   0  0  0  0  0  0  0  0  0  0  0  0
   47.8130   30.9460   49.0490 C   0  0  0  0  0  0  0  0  0  0  0  0
   47.3530   32.2070   48.3370 C   0  0  0  0  0  0  0  0  0  0  0  0
   43.9367   36.7954   44.7404 H   0  0  0  0  0  0  0  0  0  0  0  0
   45.3011   36.7911   42.6183 H   0  0  0  0  0  0  0  0  0  0  0  0
   48.5960   36.0845   42.7753 H   0  0  0  0  0  0  0  0  0  0  0  0
   49.9147   36.0006   40.6757 H   0  0  0  0  0  0  0  0  0  0  0  0
   45.6494   32.2629   39.7928 H   0  0  0  0  0  0  0  0  0  0  0  0
   44.7665   30.8907   37.8427 H   0  0  0  0  0  0  0  0  0  0  0  0
   47.1900   33.2291   35.2716 H   0  0  0  0  0  0  0  0  0  0  0  0
   45.1222   31.9192   45.7511 H   0  0  0  0  0  0  0  0  0  0  0  0
   46.7681   32.4924   46.1780 H   0  0  0  0  0  0  0  0  0  0  0  0
   45.3881   34.2603   47.6537 H   0  0  0  0  0  0  0  0  0  0  0  0
   44.1260   32.9643   47.5641 H   0  0  0  0  0  0  0  0  0  0  0  0
   45.9117   32.9957   49.5318 H   0  0  0  0  0  0  0  0  0  0  0  0
   45.0567   30.9465   49.8816 H   0  0  0  0  0  0  0  0  0  0  0  0
   44.1335   31.3028   48.3370 H   0  0  0  0  0  0  0  0  0  0  0  0
   45.6124   30.0557   47.0491 H   0  0  0  0  0  0  0  0  0  0  0  0
   45.1648   29.0619   48.5208 H   0  0  0  0  0  0  0  0  0  0  0  0
   47.2465   28.8882   49.1812 H   0  0  0  0  0  0  0  0  0  0  0  0
   47.6859   29.4733   47.5192 H   0  0  0  0  0  0  0  0  0  0  0  0
   47.5438   31.0170   50.1132 H   0  0  0  0  0  0  0  0  0  0  0  0
   48.9027   30.8571   48.9281 H   0  0  0  0  0  0  0  0  0  0  0  0
   47.5212   32.1005   47.2552 H   0  0  0  0  0  0  0  0  0  0  0  0
   47.9228   33.0705   48.7107 H   0  0  0  0  0  0  0  0  0  0  0  0
  1  6  2  0
  2  1  1  0
  3  2  2  0
  3  4  1  0
  4  5  2  0
  5  6  1  0
  5 21  1  0
  7  3  1  0
  8  7  2  0
  9  8  1  0
 10 11  1  0
 10  9  2  0
 11 12  2  0
 12  7  1  0
 13 14  1  0
 13 11  1  0
 15 14  2  0
 16 15  1  0
 17 16  2  0
 18 16  1  0
 18 19  1  0
 19 13  1  0
 20 19  2  0
 21 22  1  0
 22 23  1  0
 23 24  1  0
 25 26  1  0
 25 24  1  0
 26 27  1  0
 28 23  1  0
 28 27  1  0
  1 29  1  0
  2 30  1  0
  8 31  1  0
  9 32  1  0
 14 33  1  0
 15 34  1  0
 18 35  1  0
 21 36  1  0
 21 37  1  0
 22 38  1  0
 22 39  1  0
 23 40  1  0
 24 41  1  0
 24 42  1  0
 25 43  1  0
 25 44  1  0
 26 45  1  0
 26 46  1  0
 27 47  1  0
 27 48  1  0
 28 49  1  0
 28 50  1  0
M  END
>  <Score>  (1) 
-7.19312

$$$$
