
     RDKit          3D

 44 47  0  0  0  0  0  0  0  0999 V2000
   46.9720   34.6260   42.0720 C   0  0  0  0  0  0  0  0  0  0  0  0
   48.1830   35.2630   41.8030 C   0  0  0  0  0  0  0  0  0  0  0  0
   48.4160   34.9510   40.4630 C   0  0  0  0  0  0  0  0  0  0  0  0
   47.3550   34.1600   40.0110 C   0  0  0  0  0  0  0  0  0  0  0  0
   46.5160   33.9960   41.0190 O   0  0  0  0  0  0  0  0  0  0  0  0
   44.6310   35.5610   44.8030 C   0  0  0  0  0  0  0  0  0  0  0  0
   45.3070   35.5910   43.5460 C   0  0  0  0  0  0  0  0  0  0  0  0
   46.2660   34.6280   43.3370 C   0  0  0  0  0  0  0  0  0  0  0  0
   46.4970   33.7410   44.3140 N   0  0  0  0  0  0  0  0  0  0  0  0
   45.8480   33.7280   45.4980 C   0  0  0  0  0  0  0  0  0  0  0  0
   44.9090   34.6450   45.7400 N   0  0  0  0  0  0  0  0  0  0  0  0
   46.1550   32.7480   46.4840 N   0  0  0  0  0  0  0  0  0  0  0  0
   46.9200   31.5680   46.1290 C   0  0  0  0  0  0  0  0  0  0  0  0
   46.0800   30.3820   46.5790 C   0  0  0  0  0  0  0  0  0  0  0  0
   45.5510   30.5290   47.9000 N   0  0  0  0  0  0  0  0  0  0  0  0
   44.7730   31.7230   48.1020 C   0  0  0  0  0  0  0  0  0  0  0  0
   45.7110   32.9110   47.8570 C   0  0  0  0  0  0  0  0  0  0  0  0
   47.2090   33.6320   38.7030 N   0  0  0  0  0  0  0  0  0  0  0  0
   46.3270   32.6340   38.5200 C   0  0  0  0  0  0  0  0  0  0  0  0
   46.1580   32.0870   37.2640 C   0  0  0  0  0  0  0  0  0  0  0  0
   46.9020   32.5720   36.2040 C   0  0  0  0  0  0  0  0  0  0  0  0
   46.7200   32.0460   35.0740 O   0  0  0  0  0  0  0  0  0  0  0  0
   47.7670   33.5720   36.4540 N   0  0  0  0  0  0  0  0  0  0  0  0
   47.9190   34.0980   37.6930 C   0  0  0  0  0  0  0  0  0  0  0  0
   48.7450   35.0340   37.8650 O   0  0  0  0  0  0  0  0  0  0  0  0
   45.1460   30.9850   37.1490 C   0  0  0  0  0  0  0  0  0  0  0  0
   48.8040   35.8654   42.4824 H   0  0  0  0  0  0  0  0  0  0  0  0
   49.2829   35.2713   39.8664 H   0  0  0  0  0  0  0  0  0  0  0  0
   43.8566   36.3146   45.0088 H   0  0  0  0  0  0  0  0  0  0  0  0
   45.0723   36.3471   42.7823 H   0  0  0  0  0  0  0  0  0  0  0  0
   47.0851   31.5306   45.0421 H   0  0  0  0  0  0  0  0  0  0  0  0
   47.9111   31.5679   46.6062 H   0  0  0  0  0  0  0  0  0  0  0  0
   45.2403   30.2636   45.8783 H   0  0  0  0  0  0  0  0  0  0  0  0
   46.7400   29.5021   46.5896 H   0  0  0  0  0  0  0  0  0  0  0  0
   44.9502   29.7162   48.0982 H   0  0  0  0  0  0  0  0  0  0  0  0
   43.9327   31.7517   47.3928 H   0  0  0  0  0  0  0  0  0  0  0  0
   44.3550   31.7539   49.1190 H   0  0  0  0  0  0  0  0  0  0  0  0
   46.5661   32.8800   48.5482 H   0  0  0  0  0  0  0  0  0  0  0  0
   45.2131   33.8777   48.0231 H   0  0  0  0  0  0  0  0  0  0  0  0
   45.7410   32.2540   39.3698 H   0  0  0  0  0  0  0  0  0  0  0  0
   48.3311   33.9492   35.6791 H   0  0  0  0  0  0  0  0  0  0  0  0
   44.8450   30.6572   38.1549 H   0  0  0  0  0  0  0  0  0  0  0  0
   44.2641   31.3525   36.6039 H   0  0  0  0  0  0  0  0  0  0  0  0
   45.5871   30.1375   36.6039 H   0  0  0  0  0  0  0  0  0  0  0  0
  1  8  1  0
  2  1  2  0
  3  2  1  0
  4  3  2  0
  4  5  1  0
  5  1  1  0
  6 11  2  0
  7  6  1  0
  8  7  2  0
  8  9  1  0
  9 10  2  0
 10 11  1  0
 10 12  1  0
 12 17  1  0
 13 12  1  0
 13 14  1  0
 14 15  1  0
 15 16  1  0
 17 16  1  0
 18  4  1  0
 19 18  1  0
 20 19  2  0
 21 23  1  0
 21 20  1  0
 22 21  2  0
 23 24  1  0
 24 25  2  0
 24 18  1  0
 26 20  1  0
  2 27  1  0
  3 28  1  0
  6 29  1  0
  7 30  1  0
 13 31  1  0
 13 32  1  0
 14 33  1  0
 14 34  1  0
 15 35  1  0
 16 36  1  0
 16 37  1  0
 17 38  1  0
 17 39  1  0
 19 40  1  0
 23 41  1  0
 26 42  1  0
 26 43  1  0
 26 44  1  0
M  END
>  <Score>  (1) 
-7.28957

$$$$
