
     RDKit          3D

 49 54  0  0  1  0  0  0  0  0999 V2000
   48.4170   31.0800   48.7340 C   0  0  0  0  0  0  0  0  0  0  0  0
   49.2070   32.1110   49.2800 C   0  0  0  0  0  0  0  0  0  0  0  0
   50.4140   31.7890   49.8270 C   0  0  0  0  0  0  0  0  0  0  0  0
   50.8130   30.4690   49.8200 C   0  0  0  0  0  0  0  0  0  0  0  0
   49.3880   29.6010   48.9860 S   0  0  0  0  0  0  0  0  0  0  0  0
   44.5740   35.6300   45.2100 C   0  0  0  0  0  0  0  0  0  0  0  0
   45.0330   35.4850   43.8800 C   0  0  0  0  0  0  0  0  0  0  0  0
   45.8000   34.3340   43.5570 C   0  0  0  0  0  0  0  0  0  0  0  0
   46.0540   33.4250   44.5530 N   0  0  0  0  0  0  0  0  0  0  0  0
   45.5920   33.6110   45.8070 C   0  0  0  0  0  0  0  0  0  0  0  0
   44.8510   34.7100   46.1480 N   0  0  0  0  0  0  0  0  0  0  0  0
   45.8990   32.6320   46.7680 N   0  0  0  0  0  0  0  0  0  0  0  0
   45.1000   32.1960   47.8660 C   0  0  0  0  0  0  0  0  0  0  0  0
   46.1380   31.8450   48.8910 C   0  0  0  0  0  0  0  0  0  0  0  0
   47.1090   31.0730   48.0750 C   0  0  1  0  0  0  0  0  0  0  0  0
   47.1610   31.8910   46.7640 C   0  0  0  0  0  0  0  0  0  0  0  0
   52.0080   29.8780   50.3180 N   0  0  0  0  0  0  0  0  0  0  0  0
   52.7590   28.9490   49.7760 C   0  0  0  0  0  0  0  0  0  0  0  0
   53.8030   28.6610   50.5740 N   0  0  0  0  0  0  0  0  0  0  0  0
   53.6910   29.4430   51.6520 C   0  0  0  0  0  0  0  0  0  0  0  0
   52.5620   30.2090   51.4930 N   0  0  0  0  0  0  0  0  0  0  0  0
   54.5850   29.4720   52.7640 N   0  0  0  0  0  0  0  0  0  0  0  0
   55.8280   28.9920   53.0380 C   0  0  0  0  0  0  0  0  0  0  0  0
   56.1610   29.3450   54.2890 N   0  0  0  0  0  0  0  0  0  0  0  0
   55.1310   30.0530   54.8180 C   0  0  0  0  0  0  0  0  0  0  0  0
   55.0500   30.6060   56.0730 C   0  0  0  0  0  0  0  0  0  0  0  0
   55.9610   30.5260   56.9370 O   0  0  0  0  0  0  0  0  0  0  0  0
   53.9340   31.2760   56.4110 N   0  0  0  0  0  0  0  0  0  0  0  0
   52.9580   31.3630   55.4870 C   0  0  0  0  0  0  0  0  0  0  0  0
   51.6970   32.0320   55.6480 N   0  0  0  0  0  0  0  0  0  0  0  0
   53.0760   30.8140   54.2820 N   0  0  0  0  0  0  0  0  0  0  0  0
   54.1470   30.1310   53.8620 C   0  0  0  0  0  0  0  0  0  0  0  0
   48.8575   33.1539   49.2654 H   0  0  0  0  0  0  0  0  0  0  0  0
   51.0566   32.5669   50.2652 H   0  0  0  0  0  0  0  0  0  0  0  0
   43.9783   36.5140   45.4813 H   0  0  0  0  0  0  0  0  0  0  0  0
   44.8023   36.2428   43.1168 H   0  0  0  0  0  0  0  0  0  0  0  0
   46.1798   34.1757   42.5368 H   0  0  0  0  0  0  0  0  0  0  0  0
   44.4411   33.0005   48.2245 H   0  0  0  0  0  0  0  0  0  0  0  0
   44.4239   31.3644   47.6184 H   0  0  0  0  0  0  0  0  0  0  0  0
   46.6003   32.7463   49.3200 H   0  0  0  0  0  0  0  0  0  0  0  0
   45.7442   31.2958   49.7589 H   0  0  0  0  0  0  0  0  0  0  0  0
   46.8360   30.0183   47.9233 H   0  0  0  0  0  0  0  0  0  0  0  0
   47.2233   31.2269   45.8893 H   0  0  0  0  0  0  0  0  0  0  0  0
   48.0413   32.5480   46.7058 H   0  0  0  0  0  0  0  0  0  0  0  0
   52.5625   28.4720   48.8045 H   0  0  0  0  0  0  0  0  0  0  0  0
   56.4566   28.4103   52.3477 H   0  0  0  0  0  0  0  0  0  0  0  0
   53.8297   31.7062   57.3410 H   0  0  0  0  0  0  0  0  0  0  0  0
   51.0160   32.0401   54.8753 H   0  0  0  0  0  0  0  0  0  0  0  0
   51.4739   32.5035   56.5361 H   0  0  0  0  0  0  0  0  0  0  0  0
  1  5  1  0
  1  2  2  0
  2  3  1  0
  4  3  2  0
  4 17  1  0
  5  4  1  0
  6 11  2  0
  7  6  1  0
  8  7  2  0
  8  9  1  0
  9 10  2  0
 10 11  1  0
 10 12  1  0
 12 13  1  0
 13 14  1  0
 15  1  1  0
 15 14  1  0
 16 12  1  0
 16 15  1  0
 17 21  1  0
 18 17  1  0
 18 19  2  0
 19 20  1  0
 20 22  1  0
 21 20  2  0
 22 23  1  0
 22 32  1  0
 23 24  2  0
 24 25  1  0
 25 26  1  0
 26 28  1  0
 26 27  2  0
 29 30  1  0
 29 28  1  0
 31 29  2  0
 32 31  1  0
 32 25  2  0
  2 33  1  0
  3 34  1  0
  6 35  1  0
  7 36  1  0
  8 37  1  0
 13 38  1  0
 13 39  1  0
 14 40  1  0
 14 41  1  0
 15 42  1  6
 16 43  1  0
 16 44  1  0
 18 45  1  0
 23 46  1  0
 28 47  1  0
 30 48  1  0
 30 49  1  0
M  END
>  <Score>  (1) 
-7.59582

$$$$
