
     RDKit          3D

 44 48  0  0  0  0  0  0  0  0999 V2000
   46.5740   34.6760   42.2110 C   0  0  0  0  0  0  0  0  0  0  0  0
   47.7820   35.2970   42.0450 C   0  0  0  0  0  0  0  0  0  0  0  0
   48.5260   35.1620   40.8590 C   0  0  0  0  0  0  0  0  0  0  0  0
   48.0090   34.3720   39.8270 C   0  0  0  0  0  0  0  0  0  0  0  0
   46.7800   33.7370   39.9880 C   0  0  0  0  0  0  0  0  0  0  0  0
   46.0930   33.9040   41.1730 C   0  0  0  0  0  0  0  0  0  0  0  0
   44.8360   33.2490   41.3270 N   0  0  0  0  0  0  0  0  0  0  0  0
   44.6010   31.9930   41.7830 C   0  0  0  0  0  0  0  0  0  0  0  0
   43.3160   31.5210   41.8660 C   0  0  0  0  0  0  0  0  0  0  0  0
   42.2550   32.2890   41.4980 C   0  0  0  0  0  0  0  0  0  0  0  0
   41.0850   31.8100   41.5920 O   0  0  0  0  0  0  0  0  0  0  0  0
   42.5110   33.5420   41.0450 N   0  0  0  0  0  0  0  0  0  0  0  0
   43.7600   34.0030   40.9640 C   0  0  0  0  0  0  0  0  0  0  0  0
   43.8660   35.1890   40.5250 O   0  0  0  0  0  0  0  0  0  0  0  0
   41.3670   34.3150   40.6700 C   0  0  0  0  0  0  0  0  0  0  0  0
   41.3210   35.6510   41.0090 C   0  0  0  0  0  0  0  0  0  0  0  0
   40.1140   36.1670   40.5320 C   0  0  0  0  0  0  0  0  0  0  0  0
   39.4790   35.1270   39.9240 N   0  0  0  0  0  0  0  0  0  0  0  0
   40.2260   34.0380   40.0110 N   0  0  0  0  0  0  0  0  0  0  0  0
   44.4230   36.0200   45.0090 C   0  0  0  0  0  0  0  0  0  0  0  0
   45.0390   35.9270   43.7590 C   0  0  0  0  0  0  0  0  0  0  0  0
   45.8800   34.8750   43.4720 C   0  0  0  0  0  0  0  0  0  0  0  0
   46.0950   33.9250   44.4420 N   0  0  0  0  0  0  0  0  0  0  0  0
   45.4740   34.0470   45.6590 C   0  0  0  0  0  0  0  0  0  0  0  0
   44.6590   35.0610   45.9440 N   0  0  0  0  0  0  0  0  0  0  0  0
   45.7070   33.0150   46.7110 C   0  0  0  0  0  0  0  0  0  0  0  0
   46.0070   31.6040   46.3170 C   0  0  0  0  0  0  0  0  0  0  0  0
   47.0680   32.4530   46.9090 C   0  0  0  0  0  0  0  0  0  0  0  0
   48.1816   35.9179   42.8603 H   0  0  0  0  0  0  0  0  0  0  0  0
   49.4960   35.6681   40.7452 H   0  0  0  0  0  0  0  0  0  0  0  0
   48.5722   34.2525   38.8897 H   0  0  0  0  0  0  0  0  0  0  0  0
   46.3638   33.1126   39.1837 H   0  0  0  0  0  0  0  0  0  0  0  0
   45.4422   31.3524   42.0865 H   0  0  0  0  0  0  0  0  0  0  0  0
   43.1396   30.5008   42.2376 H   0  0  0  0  0  0  0  0  0  0  0  0
   42.0950   36.2093   41.5561 H   0  0  0  0  0  0  0  0  0  0  0  0
   39.7509   37.2009   40.6277 H   0  0  0  0  0  0  0  0  0  0  0  0
   38.5578   35.1799   39.4662 H   0  0  0  0  0  0  0  0  0  0  0  0
   43.7524   36.8621   45.2354 H   0  0  0  0  0  0  0  0  0  0  0  0
   44.8511   36.6993   42.9986 H   0  0  0  0  0  0  0  0  0  0  0  0
   44.9631   33.5030   47.3579 H   0  0  0  0  0  0  0  0  0  0  0  0
   45.5836   30.7693   46.8949 H   0  0  0  0  0  0  0  0  0  0  0  0
   45.9058   31.0152   45.3934 H   0  0  0  0  0  0  0  0  0  0  0  0
   47.9026   32.8036   46.2840 H   0  0  0  0  0  0  0  0  0  0  0  0
   47.7489   32.3561   47.7675 H   0  0  0  0  0  0  0  0  0  0  0  0
  1 22  1  0
  2  1  2  0
  3  2  1  0
  4  5  1  0
  4  3  2  0
  5  6  2  0
  6  7  1  0
  6  1  1  0
  7  8  1  0
  8  9  2  0
 10 11  2  0
 10  9  1  0
 12 10  1  0
 13 12  1  0
 13  7  1  0
 14 13  2  0
 15 16  1  0
 15 12  1  0
 17 16  2  0
 18 19  1  0
 18 17  1  0
 19 15  2  0
 20 25  2  0
 21 20  1  0
 22 21  2  0
 22 23  1  0
 23 24  2  0
 24 25  1  0
 24 26  1  0
 26 28  1  0
 27 26  1  0
 27 28  1  0
  2 29  1  0
  3 30  1  0
  4 31  1  0
  5 32  1  0
  8 33  1  0
  9 34  1  0
 16 35  1  0
 17 36  1  0
 18 37  1  0
 20 38  1  0
 21 39  1  0
 26 40  1  0
 27 41  1  0
 27 42  1  0
 28 43  1  0
 28 44  1  0
M  END
>  <Score>  (1) 
-8.02995

$$$$
