
     RDKit          3D

 37 40  0  0  0  0  0  0  0  0999 V2000
   44.6050   35.9440   44.6340 C   0  0  0  0  0  0  0  0  0  0  0  0
   45.3220   35.9130   43.4150 C   0  0  0  0  0  0  0  0  0  0  0  0
   46.1780   34.8570   43.2210 C   0  0  0  0  0  0  0  0  0  0  0  0
   46.3250   33.8790   44.1750 N   0  0  0  0  0  0  0  0  0  0  0  0
   45.6100   33.9560   45.3350 C   0  0  0  0  0  0  0  0  0  0  0  0
   44.7580   34.9800   45.5610 N   0  0  0  0  0  0  0  0  0  0  0  0
   45.8590   32.8750   46.2400 N   0  0  0  0  0  0  0  0  0  0  0  0
   45.3160   32.7880   47.4740 C   0  0  0  0  0  0  0  0  0  0  0  0
   45.7740   31.6340   48.0400 N   0  0  0  0  0  0  0  0  0  0  0  0
   46.5770   31.0360   47.1670 C   0  0  0  0  0  0  0  0  0  0  0  0
   47.3300   29.8790   47.1310 C   0  0  0  0  0  0  0  0  0  0  0  0
   48.0820   29.5160   46.0550 N   0  0  0  0  0  0  0  0  0  0  0  0
   48.1120   30.3120   44.9500 C   0  0  0  0  0  0  0  0  0  0  0  0
   47.3960   31.4500   44.9340 N   0  0  0  0  0  0  0  0  0  0  0  0
   46.6590   31.7930   46.0060 C   0  0  0  0  0  0  0  0  0  0  0  0
   46.9340   34.7910   41.9780 C   0  0  0  0  0  0  0  0  0  0  0  0
   48.2160   35.2690   41.7660 C   0  0  0  0  0  0  0  0  0  0  0  0
   48.4460   34.9470   40.4160 C   0  0  0  0  0  0  0  0  0  0  0  0
   47.3320   34.3170   39.9070 C   0  0  0  0  0  0  0  0  0  0  0  0
   46.4740   34.2610   40.8970 O   0  0  0  0  0  0  0  0  0  0  0  0
   47.1510   33.8300   38.5850 N   0  0  0  0  0  0  0  0  0  0  0  0
   48.1810   33.8840   37.6250 C   0  0  0  0  0  0  0  0  0  0  0  0
   48.9670   34.9450   37.6390 N   0  0  0  0  0  0  0  0  0  0  0  0
   48.3060   32.7810   36.6960 N   0  0  0  0  0  0  0  0  0  0  0  0
   49.7580   34.9120   36.9560 H   0  0  0  0  0  0  0  0  0  0  0  0
   47.3320   29.0120   48.2620 N   0  0  0  0  0  0  0  0  0  0  0  0
   43.9082   36.7727   44.8284 H   0  0  0  0  0  0  0  0  0  0  0  0
   45.1993   36.6999   42.6562 H   0  0  0  0  0  0  0  0  0  0  0  0
   44.6311   33.5136   47.9370 H   0  0  0  0  0  0  0  0  0  0  0  0
   48.7174   30.0259   44.0773 H   0  0  0  0  0  0  0  0  0  0  0  0
   48.8872   35.7744   42.4760 H   0  0  0  0  0  0  0  0  0  0  0  0
   49.3680   35.1637   39.8565 H   0  0  0  0  0  0  0  0  0  0  0  0
   46.2412   33.4260   38.3207 H   0  0  0  0  0  0  0  0  0  0  0  0
   47.6524   31.9867   36.7487 H   0  0  0  0  0  0  0  0  0  0  0  0
   49.0485   32.7905   35.9822 H   0  0  0  0  0  0  0  0  0  0  0  0
   47.8899   28.1463   48.2463 H   0  0  0  0  0  0  0  0  0  0  0  0
   46.7755   29.2510   49.0951 H   0  0  0  0  0  0  0  0  0  0  0  0
  1  6  2  0
  2  1  1  0
  3  2  2  0
  3  4  1  0
  4  5  2  0
  5  6  1  0
  5  7  1  0
  7  8  1  0
  8  9  2  0
 10  9  1  0
 11 10  2  0
 11 26  1  0
 12 11  1  0
 13 12  2  0
 14 13  1  0
 14 15  2  0
 15  7  1  0
 15 10  1  0
 16  3  1  0
 17 16  2  0
 18 17  1  0
 19 18  2  0
 19 20  1  0
 20 16  1  0
 21 19  1  0
 22 23  2  0
 22 21  1  0
 24 22  1  0
 25 23  1  0
  1 27  1  0
  2 28  1  0
  8 29  1  0
 13 30  1  0
 17 31  1  0
 18 32  1  0
 21 33  1  0
 24 34  1  0
 24 35  1  0
 26 36  1  0
 26 37  1  0
M  END
>  <Score>  (1) 
-7.70693

$$$$
