
     RDKit          3D

 56 61  0  0  0  0  0  0  0  0999 V2000
   45.2710   33.9170   41.8120 C   0  0  0  0  0  0  0  0  0  0  0  0
   44.2130   33.4370   41.0940 C   0  0  0  0  0  0  0  0  0  0  0  0
   44.9800   33.2110   39.4230 S   0  0  0  0  0  0  0  0  0  0  0  0
   46.6360   33.8260   40.0230 C   0  0  0  0  0  0  0  0  0  0  0  0
   46.3880   34.0460   41.1230 N   0  0  0  0  0  0  0  0  0  0  0  0
   44.4770   35.7900   44.9900 C   0  0  0  0  0  0  0  0  0  0  0  0
   44.5770   35.4890   43.6380 C   0  0  0  0  0  0  0  0  0  0  0  0
   45.1500   34.2660   43.2560 C   0  0  0  0  0  0  0  0  0  0  0  0
   45.5810   33.4310   44.2240 N   0  0  0  0  0  0  0  0  0  0  0  0
   45.4730   33.7440   45.5290 C   0  0  0  0  0  0  0  0  0  0  0  0
   44.9300   34.9060   45.9040 N   0  0  0  0  0  0  0  0  0  0  0  0
   45.9590   32.7990   46.5240 C   0  0  0  0  0  0  0  0  0  0  0  0
   46.9940   31.9340   46.2330 C   0  0  0  0  0  0  0  0  0  0  0  0
   47.5020   31.0210   47.1160 C   0  0  0  0  0  0  0  0  0  0  0  0
   46.9780   30.9500   48.3320 N   0  0  0  0  0  0  0  0  0  0  0  0
   45.9690   31.7870   48.6320 C   0  0  0  0  0  0  0  0  0  0  0  0
   45.4430   32.7150   47.7560 N   0  0  0  0  0  0  0  0  0  0  0  0
   45.2620   31.8710   49.9000 N   0  0  0  0  0  0  0  0  0  0  0  0
   47.8070   33.9170   39.1350 C   0  0  0  0  0  0  0  0  0  0  0  0
   48.2300   32.5130   38.7390 C   0  0  0  0  0  0  0  0  0  0  0  0
   47.9380   32.3760   37.2870 C   0  0  0  0  0  0  0  0  0  0  0  0
   48.8200   33.0120   36.4310 C   0  0  0  0  0  0  0  0  0  0  0  0
   48.5590   32.8840   35.0930 C   0  0  0  0  0  0  0  0  0  0  0  0
   47.5150   32.1890   34.6300 N   0  0  0  0  0  0  0  0  0  0  0  0
   46.6620   31.5750   35.4770 C   0  0  0  0  0  0  0  0  0  0  0  0
   46.9350   31.7120   36.7680 N   0  0  0  0  0  0  0  0  0  0  0  0
   45.5860   30.8650   34.8100 C   0  0  0  0  0  0  0  0  0  0  0  0
   44.2810   31.0190   35.2520 C   0  0  0  0  0  0  0  0  0  0  0  0
   43.2040   30.3840   34.6760 C   0  0  0  0  0  0  0  0  0  0  0  0
   43.3730   29.5400   33.6020 C   0  0  0  0  0  0  0  0  0  0  0  0
   44.6540   29.3620   33.1340 C   0  0  0  0  0  0  0  0  0  0  0  0
   44.8200   28.5220   32.0640 C   0  0  0  0  0  0  0  0  0  0  0  0
   46.0670   28.2900   31.5360 C   0  0  0  0  0  0  0  0  0  0  0  0
   47.1420   28.9500   32.1410 C   0  0  0  0  0  0  0  0  0  0  0  0
   46.9180   29.7820   33.2130 C   0  0  0  0  0  0  0  0  0  0  0  0
   45.6910   30.0250   33.7520 C   0  0  0  0  0  0  0  0  0  0  0  0
   43.1816   33.2379   41.4205 H   0  0  0  0  0  0  0  0  0  0  0  0
   44.0317   36.7423   45.3139 H   0  0  0  0  0  0  0  0  0  0  0  0
   44.2132   36.1973   42.8791 H   0  0  0  0  0  0  0  0  0  0  0  0
   47.4385   31.9816   45.2279 H   0  0  0  0  0  0  0  0  0  0  0  0
   48.3295   30.3583   46.8228 H   0  0  0  0  0  0  0  0  0  0  0  0
   44.5000   32.5534   50.0206 H   0  0  0  0  0  0  0  0  0  0  0  0
   45.5232   31.2480   50.6776 H   0  0  0  0  0  0  0  0  0  0  0  0
   47.5447   34.4920   38.2347 H   0  0  0  0  0  0  0  0  0  0  0  0
   48.6329   34.4238   39.6556 H   0  0  0  0  0  0  0  0  0  0  0  0
   49.3052   32.3737   38.9249 H   0  0  0  0  0  0  0  0  0  0  0  0
   47.6902   31.7552   39.3259 H   0  0  0  0  0  0  0  0  0  0  0  0
   49.6806   33.5868   36.8038 H   0  0  0  0  0  0  0  0  0  0  0  0
   49.2329   33.3708   34.3727 H   0  0  0  0  0  0  0  0  0  0  0  0
   44.0964   31.6840   36.1086 H   0  0  0  0  0  0  0  0  0  0  0  0
   42.1948   30.5534   35.0795 H   0  0  0  0  0  0  0  0  0  0  0  0
   42.5177   29.0283   33.1365 H   0  0  0  0  0  0  0  0  0  0  0  0
   43.9429   28.0268   31.6219 H   0  0  0  0  0  0  0  0  0  0  0  0
   46.2132   27.6172   30.6782 H   0  0  0  0  0  0  0  0  0  0  0  0
   48.1636   28.8039   31.7603 H   0  0  0  0  0  0  0  0  0  0  0  0
   47.7864   30.2839   33.6645 H   0  0  0  0  0  0  0  0  0  0  0  0
  1  8  1  0
  2  1  2  0
  3  4  1  0
  3  2  1  0
  4  5  2  0
  5  1  1  0
  6 11  2  0
  7  6  1  0
  8  7  2  0
  8  9  1  0
  9 10  2  0
 10 11  1  0
 10 12  1  0
 12 17  1  0
 13 12  2  0
 13 14  1  0
 14 15  2  0
 15 16  1  0
 16 18  1  0
 17 16  2  0
 19  4  1  0
 20 19  1  0
 21 20  1  0
 22 21  2  0
 23 22  1  0
 24 23  2  0
 24 25  1  0
 25 26  2  0
 26 21  1  0
 27 28  2  0
 27 25  1  0
 29 28  1  0
 30 29  2  0
 31 30  1  0
 31 36  2  0
 32 31  1  0
 33 32  2  0
 33 34  1  0
 34 35  2  0
 35 36  1  0
 36 27  1  0
  2 37  1  0
  6 38  1  0
  7 39  1  0
 13 40  1  0
 14 41  1  0
 18 42  1  0
 18 43  1  0
 19 44  1  0
 19 45  1  0
 20 46  1  0
 20 47  1  0
 22 48  1  0
 23 49  1  0
 28 50  1  0
 29 51  1  0
 30 52  1  0
 32 53  1  0
 33 54  1  0
 34 55  1  0
 35 56  1  0
M  END
>  <Score>  (1) 
-7.34135

$$$$
