
     RDKit          3D

 48 52  0  0  0  0  0  0  0  0999 V2000
   46.1500   31.9800   47.2940 C   0  0  0  0  0  0  0  0  0  0  0  0
   44.5140   35.0430   46.1590 C   0  0  0  0  0  0  0  0  0  0  0  0
   44.7460   35.0510   44.7800 C   0  0  0  0  0  0  0  0  0  0  0  0
   45.4770   33.9870   44.2240 C   0  0  0  0  0  0  0  0  0  0  0  0
   45.9130   33.0200   45.0520 N   0  0  0  0  0  0  0  0  0  0  0  0
   45.6640   33.0530   46.3910 C   0  0  0  0  0  0  0  0  0  0  0  0
   44.9720   34.0550   46.9330 N   0  0  0  0  0  0  0  0  0  0  0  0
   45.6900   34.0330   42.8260 N   0  0  0  0  0  0  0  0  0  0  0  0
   44.9310   33.8500   41.7460 C   0  0  0  0  0  0  0  0  0  0  0  0
   45.6630   34.0190   40.6230 N   0  0  0  0  0  0  0  0  0  0  0  0
   46.9220   34.3190   40.9850 C   0  0  0  0  0  0  0  0  0  0  0  0
   48.0520   34.5840   40.2230 C   0  0  0  0  0  0  0  0  0  0  0  0
   48.0360   34.5760   38.9940 O   0  0  0  0  0  0  0  0  0  0  0  0
   49.2210   34.8640   40.8410 N   0  0  0  0  0  0  0  0  0  0  0  0
   49.2180   34.8680   42.1850 C   0  0  0  0  0  0  0  0  0  0  0  0
   50.3880   35.1480   42.9460 N   0  0  0  0  0  0  0  0  0  0  0  0
   48.1380   34.6130   42.9160 N   0  0  0  0  0  0  0  0  0  0  0  0
   46.9350   34.3260   42.3700 C   0  0  0  0  0  0  0  0  0  0  0  0
   47.2900   32.4840   48.1400 C   0  0  0  0  0  0  0  0  0  0  0  0
   45.0510   31.4550   48.1920 C   0  0  0  0  0  0  0  0  0  0  0  0
   46.6800   30.8770   46.4110 C   0  0  0  0  0  0  0  0  0  0  0  0
   45.9630   29.5670   46.6650 C   0  0  0  0  0  0  0  0  0  0  0  0
   46.5360   28.6520   47.4770 C   0  0  0  0  0  0  0  0  0  0  0  0
   45.3670   27.2380   47.5160 S   0  0  0  0  0  0  0  0  0  0  0  0
   44.2380   28.1990   46.3530 C   0  0  0  0  0  0  0  0  0  0  0  0
   44.8220   29.1860   46.1870 N   0  0  0  0  0  0  0  0  0  0  0  0
   42.9010   27.5450   45.9000 C   0  0  0  0  0  0  0  0  0  0  0  0
   42.6450   26.3160   46.4150 C   0  0  0  0  0  0  0  0  0  0  0  0
   41.0260   25.8940   45.6650 S   0  0  0  0  0  0  0  0  0  0  0  0
   41.0100   27.5520   44.7490 C   0  0  0  0  0  0  0  0  0  0  0  0
   42.0210   28.0720   45.0780 N   0  0  0  0  0  0  0  0  0  0  0  0
   43.9437   35.8656   46.6151 H   0  0  0  0  0  0  0  0  0  0  0  0
   44.3669   35.8675   44.1478 H   0  0  0  0  0  0  0  0  0  0  0  0
   43.8606   33.5973   41.7660 H   0  0  0  0  0  0  0  0  0  0  0  0
   50.0772   35.0656   40.3051 H   0  0  0  0  0  0  0  0  0  0  0  0
   50.3467   35.1418   43.9752 H   0  0  0  0  0  0  0  0  0  0  0  0
   51.2759   35.3568   42.4675 H   0  0  0  0  0  0  0  0  0  0  0  0
   47.0348   32.3712   49.2040 H   0  0  0  0  0  0  0  0  0  0  0  0
   48.1970   31.9030   47.9169 H   0  0  0  0  0  0  0  0  0  0  0  0
   47.4707   33.5459   47.9169 H   0  0  0  0  0  0  0  0  0  0  0  0
   45.3400   31.5931   49.2443 H   0  0  0  0  0  0  0  0  0  0  0  0
   44.1199   32.0056   47.9922 H   0  0  0  0  0  0  0  0  0  0  0  0
   44.8942   30.3847   47.9922 H   0  0  0  0  0  0  0  0  0  0  0  0
   47.7528   30.7420   46.6133 H   0  0  0  0  0  0  0  0  0  0  0  0
   46.5113   31.1642   45.3626 H   0  0  0  0  0  0  0  0  0  0  0  0
   47.4984   28.7365   48.0029 H   0  0  0  0  0  0  0  0  0  0  0  0
   43.2564   25.7211   47.1094 H   0  0  0  0  0  0  0  0  0  0  0  0
   40.2388   27.9417   44.0682 H   0  0  0  0  0  0  0  0  0  0  0  0
  1 19  1  0
  1 20  1  0
  2  7  2  0
  3  2  1  0
  4  3  2  0
  4  5  1  0
  5  6  2  0
  6  7  1  0
  6  1  1  0
  8  4  1  0
  9  8  1  0
 10 11  1  0
 10  9  2  0
 11 18  2  0
 12 14  1  0
 12 11  1  0
 13 12  2  0
 14 15  1  0
 15 17  2  0
 15 16  1  0
 18  8  1  0
 18 17  1  0
 21 22  1  0
 21  1  1  0
 22 23  2  0
 23 24  1  0
 25 24  1  0
 26 25  2  0
 26 22  1  0
 27 25  1  0
 27 28  2  0
 29 28  1  0
 30 31  2  0
 30 29  1  0
 31 27  1  0
  2 32  1  0
  3 33  1  0
  9 34  1  0
 14 35  1  0
 16 36  1  0
 16 37  1  0
 19 38  1  0
 19 39  1  0
 19 40  1  0
 20 41  1  0
 20 42  1  0
 20 43  1  0
 21 44  1  0
 21 45  1  0
 23 46  1  0
 28 47  1  0
 30 48  1  0
M  END
>  <Score>  (1) 
-7.11073

$$$$
