
     RDKit          3D

 47 50  0  0  0  0  0  0  0  0999 V2000
   44.5440   34.9940   46.1970 C   0  0  0  0  0  0  0  0  0  0  0  0
   44.7770   35.0210   44.8070 C   0  0  0  0  0  0  0  0  0  0  0  0
   45.4860   33.9600   44.2200 C   0  0  0  0  0  0  0  0  0  0  0  0
   45.9050   32.9730   45.0340 N   0  0  0  0  0  0  0  0  0  0  0  0
   45.6680   32.9740   46.3630 C   0  0  0  0  0  0  0  0  0  0  0  0
   44.9910   33.9790   46.9470 N   0  0  0  0  0  0  0  0  0  0  0  0
   45.6890   34.0350   42.8330 N   0  0  0  0  0  0  0  0  0  0  0  0
   44.9090   33.9030   41.7540 C   0  0  0  0  0  0  0  0  0  0  0  0
   45.6360   34.0790   40.6210 N   0  0  0  0  0  0  0  0  0  0  0  0
   46.9080   34.3290   40.9930 C   0  0  0  0  0  0  0  0  0  0  0  0
   48.0400   34.5790   40.2240 C   0  0  0  0  0  0  0  0  0  0  0  0
   48.0330   34.6080   38.9910 O   0  0  0  0  0  0  0  0  0  0  0  0
   49.2270   34.8050   40.8400 N   0  0  0  0  0  0  0  0  0  0  0  0
   49.2300   34.7730   42.1750 C   0  0  0  0  0  0  0  0  0  0  0  0
   50.4110   34.9950   42.9350 N   0  0  0  0  0  0  0  0  0  0  0  0
   48.1450   34.5330   42.9110 N   0  0  0  0  0  0  0  0  0  0  0  0
   46.9290   34.2990   42.3700 C   0  0  0  0  0  0  0  0  0  0  0  0
   46.1300   31.8870   47.2550 C   0  0  0  0  0  0  0  0  0  0  0  0
   47.3400   32.3190   48.0470 C   0  0  0  0  0  0  0  0  0  0  0  0
   45.0610   31.4180   48.2020 C   0  0  0  0  0  0  0  0  0  0  0  0
   46.5570   30.7410   46.3560 C   0  0  0  0  0  0  0  0  0  0  0  0
   45.9240   29.4950   46.6450 N   0  0  0  0  0  0  0  0  0  0  0  0
   44.6840   29.2940   46.1100 C   0  0  0  0  0  0  0  0  0  0  0  0
   43.9650   28.1280   46.3170 C   0  0  0  0  0  0  0  0  0  0  0  0
   44.5140   27.1080   47.1010 C   0  0  0  0  0  0  0  0  0  0  0  0
   43.7930   25.9040   47.3280 N   0  0  0  0  0  0  0  0  0  0  0  0
   45.7370   27.3380   47.6140 N   0  0  0  0  0  0  0  0  0  0  0  0
   46.4030   28.4840   47.3880 C   0  0  0  0  0  0  0  0  0  0  0  0
   47.5270   28.6390   47.8850 O   0  0  0  0  0  0  0  0  0  0  0  0
   43.9884   35.8165   46.6710 H   0  0  0  0  0  0  0  0  0  0  0  0
   44.4105   35.8573   44.1936 H   0  0  0  0  0  0  0  0  0  0  0  0
   43.8315   33.6831   41.7810 H   0  0  0  0  0  0  0  0  0  0  0  0
   50.0859   34.9925   40.3033 H   0  0  0  0  0  0  0  0  0  0  0  0
   50.3750   34.9625   43.9639 H   0  0  0  0  0  0  0  0  0  0  0  0
   51.3025   35.1883   42.4567 H   0  0  0  0  0  0  0  0  0  0  0  0
   47.1214   32.2410   49.1222 H   0  0  0  0  0  0  0  0  0  0  0  0
   48.1922   31.6696   47.7980 H   0  0  0  0  0  0  0  0  0  0  0  0
   47.5882   33.3613   47.7980 H   0  0  0  0  0  0  0  0  0  0  0  0
   45.3986   31.5661   49.2384 H   0  0  0  0  0  0  0  0  0  0  0  0
   44.1402   31.9948   48.0303 H   0  0  0  0  0  0  0  0  0  0  0  0
   44.8619   30.3499   48.0303 H   0  0  0  0  0  0  0  0  0  0  0  0
   47.6436   30.6072   46.4625 H   0  0  0  0  0  0  0  0  0  0  0  0
   46.2556   31.0156   45.3344 H   0  0  0  0  0  0  0  0  0  0  0  0
   44.2393   30.0875   45.4915 H   0  0  0  0  0  0  0  0  0  0  0  0
   42.9685   28.0051   45.8676 H   0  0  0  0  0  0  0  0  0  0  0  0
   44.2051   25.1582   47.9067 H   0  0  0  0  0  0  0  0  0  0  0  0
   42.8585   25.7774   46.9138 H   0  0  0  0  0  0  0  0  0  0  0  0
  1  6  2  0
  2  1  1  0
  3  2  2  0
  3  4  1  0
  4  5  2  0
  5  6  1  0
  5 18  1  0
  7  3  1  0
  8  7  1  0
  9 10  1  0
  9  8  2  0
 10 17  2  0
 11 13  1  0
 11 10  1  0
 12 11  2  0
 13 14  1  0
 14 16  2  0
 14 15  1  0
 17  7  1  0
 17 16  1  0
 18 19  1  0
 18 20  1  0
 21 22  1  0
 21 18  1  0
 22 28  1  0
 23 24  2  0
 23 22  1  0
 24 25  1  0
 25 26  1  0
 25 27  2  0
 28 27  1  0
 28 29  2  0
  1 30  1  0
  2 31  1  0
  8 32  1  0
 13 33  1  0
 15 34  1  0
 15 35  1  0
 19 36  1  0
 19 37  1  0
 19 38  1  0
 20 39  1  0
 20 40  1  0
 20 41  1  0
 21 42  1  0
 21 43  1  0
 23 44  1  0
 24 45  1  0
 26 46  1  0
 26 47  1  0
M  END
>  <Score>  (1) 
-7.03366

$$$$
