
     RDKit          3D

 51 56  0  0  1  0  0  0  0  0999 V2000
   47.2580   34.9930   41.7310 C   0  0  0  0  0  0  0  0  0  0  0  0
   48.5030   35.6060   41.6250 C   0  0  0  0  0  0  0  0  0  0  0  0
   49.0200   35.3290   40.4230 N   0  0  0  0  0  0  0  0  0  0  0  0
   48.1360   34.5580   39.7680 C   0  0  0  0  0  0  0  0  0  0  0  0
   48.1980   34.0120   38.5060 C   0  0  0  0  0  0  0  0  0  0  0  0
   47.1430   33.2510   38.0720 C   0  0  0  0  0  0  0  0  0  0  0  0
   46.0070   32.9940   38.8290 C   0  0  0  0  0  0  0  0  0  0  0  0
   46.0210   33.5760   40.0820 C   0  0  0  0  0  0  0  0  0  0  0  0
   47.0160   34.3270   40.5650 C   0  0  0  0  0  0  0  0  0  0  0  0
   44.6190   36.1920   44.0900 C   0  0  0  0  0  0  0  0  0  0  0  0
   45.4620   36.1350   42.9800 C   0  0  0  0  0  0  0  0  0  0  0  0
   46.3840   35.0600   42.8800 C   0  0  0  0  0  0  0  0  0  0  0  0
   46.3610   34.1690   43.8990 N   0  0  0  0  0  0  0  0  0  0  0  0
   45.5560   34.2270   44.9560 C   0  0  0  0  0  0  0  0  0  0  0  0
   44.6820   35.2390   45.0540 N   0  0  0  0  0  0  0  0  0  0  0  0
   45.5710   33.2660   46.0030 N   0  0  0  0  0  0  0  0  0  0  0  0
   45.0210   33.6520   47.1870 C   0  0  0  0  0  0  0  0  0  0  0  0
   45.1010   32.6410   48.0990 N   0  0  0  0  0  0  0  0  0  0  0  0
   45.6990   31.6150   47.4980 C   0  0  0  0  0  0  0  0  0  0  0  0
   46.1010   30.3070   47.7930 C   0  0  0  0  0  0  0  0  0  0  0  0
   46.7110   29.5440   46.8590 N   0  0  0  0  0  0  0  0  0  0  0  0
   46.9560   30.0010   45.6150 C   0  0  0  0  0  0  0  0  0  0  0  0
   46.5890   31.2680   45.2600 N   0  0  0  0  0  0  0  0  0  0  0  0
   45.9870   32.0030   46.2060 C   0  0  0  0  0  0  0  0  0  0  0  0
   45.8260   29.8520   49.1250 N   0  0  0  0  0  0  0  0  0  0  0  0
   44.8070   33.2480   40.7970 N   0  0  0  0  0  0  0  0  0  0  0  0
   43.4660   33.7320   40.9940 C   0  0  0  0  0  0  0  0  0  0  0  0
   42.7050   32.5620   41.5650 C   0  0  0  0  0  0  0  0  0  0  0  0
   43.7720   32.0220   42.5010 C   0  0  0  0  0  0  0  0  0  0  0  0
   44.9710   32.0180   41.5900 C   0  0  1  0  0  0  0  0  0  0  0  0
   45.0350   30.8060   40.7760 C   0  0  0  0  0  0  0  0  0  0  0  0
   44.1380   30.2620   40.1280 O   0  0  0  0  0  0  0  0  0  0  0  0
   48.9832   36.2182   42.4026 H   0  0  0  0  0  0  0  0  0  0  0  0
   49.9310   35.6489   40.0644 H   0  0  0  0  0  0  0  0  0  0  0  0
   49.0728   34.1820   37.8611 H   0  0  0  0  0  0  0  0  0  0  0  0
   47.1998   32.8175   37.0626 H   0  0  0  0  0  0  0  0  0  0  0  0
   45.1700   32.3811   38.4631 H   0  0  0  0  0  0  0  0  0  0  0  0
   43.8970   37.0165   44.1847 H   0  0  0  0  0  0  0  0  0  0  0  0
   45.4134   36.9072   42.1981 H   0  0  0  0  0  0  0  0  0  0  0  0
   44.5754   34.6389   47.3806 H   0  0  0  0  0  0  0  0  0  0  0  0
   47.4543   29.3501   44.8815 H   0  0  0  0  0  0  0  0  0  0  0  0
   46.0952   28.8994   49.4097 H   0  0  0  0  0  0  0  0  0  0  0  0
   45.3593   30.4778   49.7969 H   0  0  0  0  0  0  0  0  0  0  0  0
   43.4601   34.5770   41.6982 H   0  0  0  0  0  0  0  0  0  0  0  0
   43.0183   34.0971   40.0579 H   0  0  0  0  0  0  0  0  0  0  0  0
   41.8030   32.8813   42.1076 H   0  0  0  0  0  0  0  0  0  0  0  0
   42.3144   31.8452   40.8277 H   0  0  0  0  0  0  0  0  0  0  0  0
   43.9236   32.6836   43.3667 H   0  0  0  0  0  0  0  0  0  0  0  0
   43.5350   31.0443   42.9460 H   0  0  0  0  0  0  0  0  0  0  0  0
   45.9275   32.0085   42.1332 H   0  0  0  0  0  0  0  0  0  0  0  0
   46.0169   30.3118   40.7359 H   0  0  0  0  0  0  0  0  0  0  0  0
  1 12  1  0
  2  1  2  0
  3  2  1  0
  4  3  1  0
  4  9  2  0
  5  4  1  0
  6  5  2  0
  6  7  1  0
  7  8  2  0
  8  9  1  0
  8 26  1  0
  9  1  1  0
 10 15  2  0
 11 10  1  0
 12 11  2  0
 12 13  1  0
 13 14  2  0
 14 15  1  0
 14 16  1  0
 16 24  1  0
 16 17  1  0
 17 18  2  0
 19 20  2  0
 19 18  1  0
 20 25  1  0
 21 20  1  0
 22 21  2  0
 23 22  1  0
 23 24  2  0
 24 19  1  0
 26 27  1  0
 26 30  1  0
 27 28  1  0
 28 29  1  0
 30 29  1  0
 31 30  1  0
 32 31  2  0
  2 33  1  0
  3 34  1  0
  5 35  1  0
  6 36  1  0
  7 37  1  0
 10 38  1  0
 11 39  1  0
 17 40  1  0
 22 41  1  0
 25 42  1  0
 25 43  1  0
 27 44  1  0
 27 45  1  0
 28 46  1  0
 28 47  1  0
 29 48  1  0
 29 49  1  0
 30 50  1  1
 31 51  1  0
M  END
>  <Score>  (1) 
-7.65862

$$$$
