
     RDKit          3D

 44 49  0  0  0  0  0  0  0  0999 V2000
   44.6490   36.2170   44.4830 C   0  0  0  0  0  0  0  0  0  0  0  0
   45.3810   36.0610   43.2790 C   0  0  0  0  0  0  0  0  0  0  0  0
   46.1600   34.9150   43.1330 C   0  0  0  0  0  0  0  0  0  0  0  0
   46.1590   34.0450   44.1440 N   0  0  0  0  0  0  0  0  0  0  0  0
   45.4830   34.1780   45.2710 C   0  0  0  0  0  0  0  0  0  0  0  0
   44.7150   35.2680   45.4580 N   0  0  0  0  0  0  0  0  0  0  0  0
   45.6780   33.0790   46.1660 N   0  0  0  0  0  0  0  0  0  0  0  0
   45.1100   32.7840   47.3380 C   0  0  0  0  0  0  0  0  0  0  0  0
   45.6760   31.5700   47.7480 C   0  0  0  0  0  0  0  0  0  0  0  0
   46.5580   31.2130   46.7850 N   0  0  0  0  0  0  0  0  0  0  0  0
   46.5540   32.1410   45.8210 C   0  0  0  0  0  0  0  0  0  0  0  0
   47.4570   31.8380   44.7740 N   0  0  0  0  0  0  0  0  0  0  0  0
   47.8620   32.6980   43.8040 C   0  0  0  0  0  0  0  0  0  0  0  0
   48.7320   32.0580   42.9680 N   0  0  0  0  0  0  0  0  0  0  0  0
   48.8840   30.7820   43.4040 C   0  0  0  0  0  0  0  0  0  0  0  0
   49.5830   29.6440   43.0450 C   0  0  0  0  0  0  0  0  0  0  0  0
   50.3110   29.7220   42.0390 O   0  0  0  0  0  0  0  0  0  0  0  0
   49.4750   28.5010   43.7620 N   0  0  0  0  0  0  0  0  0  0  0  0
   48.6900   28.4130   44.8510 C   0  0  0  0  0  0  0  0  0  0  0  0
   48.5910   27.2070   45.5860 N   0  0  0  0  0  0  0  0  0  0  0  0
   47.9930   29.5090   45.2280 N   0  0  0  0  0  0  0  0  0  0  0  0
   48.0790   30.6710   44.5300 C   0  0  0  0  0  0  0  0  0  0  0  0
   46.8770   34.7980   41.9310 N   0  0  0  0  0  0  0  0  0  0  0  0
   48.0990   35.4050   41.7550 C   0  0  0  0  0  0  0  0  0  0  0  0
   48.5470   35.1220   40.5090 N   0  0  0  0  0  0  0  0  0  0  0  0
   47.6420   34.3540   39.8940 C   0  0  0  0  0  0  0  0  0  0  0  0
   47.6130   33.8020   38.6410 C   0  0  0  0  0  0  0  0  0  0  0  0
   46.5090   33.0560   38.3350 N   0  0  0  0  0  0  0  0  0  0  0  0
   45.5140   32.8710   39.2000 C   0  0  0  0  0  0  0  0  0  0  0  0
   45.5490   33.4260   40.4500 N   0  0  0  0  0  0  0  0  0  0  0  0
   46.6170   34.1670   40.7940 C   0  0  0  0  0  0  0  0  0  0  0  0
   48.6790   34.0030   37.7220 N   0  0  0  0  0  0  0  0  0  0  0  0
   44.0238   37.1099   44.6308 H   0  0  0  0  0  0  0  0  0  0  0  0
   45.3354   36.8209   42.4849 H   0  0  0  0  0  0  0  0  0  0  0  0
   44.3516   33.3745   47.8729 H   0  0  0  0  0  0  0  0  0  0  0  0
   45.4486   31.0159   48.6707 H   0  0  0  0  0  0  0  0  0  0  0  0
   47.5400   33.7453   43.7069 H   0  0  0  0  0  0  0  0  0  0  0  0
   50.0105   27.6729   43.4646 H   0  0  0  0  0  0  0  0  0  0  0  0
   47.9847   27.1588   46.4172 H   0  0  0  0  0  0  0  0  0  0  0  0
   49.1253   26.3778   45.2895 H   0  0  0  0  0  0  0  0  0  0  0  0
   48.6245   36.0180   42.5020 H   0  0  0  0  0  0  0  0  0  0  0  0
   44.6479   32.2607   38.9042 H   0  0  0  0  0  0  0  0  0  0  0  0
   48.6374   33.5788   36.7843 H   0  0  0  0  0  0  0  0  0  0  0  0
   49.4928   34.5728   37.9939 H   0  0  0  0  0  0  0  0  0  0  0  0
  1  6  2  0
  2  1  1  0
  3  2  2  0
  3  4  1  0
  4  5  2  0
  5  6  1  0
  5  7  1  0
  7  8  1  0
  8  9  2  0
 10  9  1  0
 11  7  1  0
 11 10  2  0
 12 11  1  0
 13 12  1  0
 14 15  1  0
 14 13  2  0
 15 22  2  0
 16 15  1  0
 16 18  1  0
 17 16  2  0
 18 19  1  0
 19 21  2  0
 19 20  1  0
 22 12  1  0
 22 21  1  0
 23  3  1  0
 24 23  1  0
 25 24  2  0
 26 25  1  0
 26 31  2  0
 27 26  1  0
 28 27  2  0
 28 29  1  0
 29 30  2  0
 30 31  1  0
 31 23  1  0
 32 27  1  0
  1 33  1  0
  2 34  1  0
  8 35  1  0
  9 36  1  0
 13 37  1  0
 18 38  1  0
 20 39  1  0
 20 40  1  0
 24 41  1  0
 29 42  1  0
 32 43  1  0
 32 44  1  0
M  END
>  <Score>  (1) 
-7.35552

$$$$
