
     RDKit          3D

 39 42  0  0  0  0  0  0  0  0999 V2000
   44.5700   35.8260   44.5580 C   0  0  0  0  0  0  0  0  0  0  0  0
   45.1790   35.7770   43.2940 C   0  0  0  0  0  0  0  0  0  0  0  0
   46.0980   34.7870   43.0500 C   0  0  0  0  0  0  0  0  0  0  0  0
   46.3770   33.8970   44.0450 N   0  0  0  0  0  0  0  0  0  0  0  0
   45.7770   33.9600   45.2630 C   0  0  0  0  0  0  0  0  0  0  0  0
   44.8640   34.9420   45.5080 N   0  0  0  0  0  0  0  0  0  0  0  0
   46.0870   33.0090   46.3000 C   0  0  0  0  0  0  0  0  0  0  0  0
   45.3870   33.0370   47.5100 C   0  0  0  0  0  0  0  0  0  0  0  0
   45.6320   32.1530   48.5550 C   0  0  0  0  0  0  0  0  0  0  0  0
   46.6210   31.2600   48.2770 C   0  0  0  0  0  0  0  0  0  0  0  0
   47.3480   31.1790   47.1060 C   0  0  0  0  0  0  0  0  0  0  0  0
   47.0260   32.0860   46.1630 N   0  0  0  0  0  0  0  0  0  0  0  0
   44.3780   34.0250   47.6640 N   0  0  0  0  0  0  0  0  0  0  0  0
   46.7520   34.7220   41.7180 C   0  0  0  0  0  0  0  0  0  0  0  0
   48.1150   35.3990   41.7230 C   0  0  0  0  0  0  0  0  0  0  0  0
   49.2080   34.4110   41.8250 C   0  0  0  0  0  0  0  0  0  0  0  0
   50.2890   34.6440   42.5830 N   0  0  0  0  0  0  0  0  0  0  0  0
   51.0780   33.6170   42.4880 O   0  0  0  0  0  0  0  0  0  0  0  0
   50.5470   32.7150   41.6890 C   0  0  0  0  0  0  0  0  0  0  0  0
   49.3530   33.1930   41.2500 N   0  0  0  0  0  0  0  0  0  0  0  0
   51.2260   31.4900   41.4230 N   0  0  0  0  0  0  0  0  0  0  0  0
   51.1310   30.2570   41.9210 N   0  0  0  0  0  0  0  0  0  0  0  0
   52.0240   29.4540   41.3090 C   0  0  0  0  0  0  0  0  0  0  0  0
   52.7150   30.2340   40.3790 C   0  0  0  0  0  0  0  0  0  0  0  0
   52.1830   31.5240   40.4770 C   0  0  0  0  0  0  0  0  0  0  0  0
   43.8320   36.6142   44.7680 H   0  0  0  0  0  0  0  0  0  0  0  0
   44.9258   36.5142   42.5178 H   0  0  0  0  0  0  0  0  0  0  0  0
   45.0832   32.1732   49.5081 H   0  0  0  0  0  0  0  0  0  0  0  0
   46.8653   30.5305   49.0633 H   0  0  0  0  0  0  0  0  0  0  0  0
   48.1355   30.4262   46.9535 H   0  0  0  0  0  0  0  0  0  0  0  0
   43.8395   34.0790   48.5404 H   0  0  0  0  0  0  0  0  0  0  0  0
   44.1849   34.6874   46.8993 H   0  0  0  0  0  0  0  0  0  0  0  0
   46.1082   35.2236   40.9805 H   0  0  0  0  0  0  0  0  0  0  0  0
   46.8978   33.6626   41.4604 H   0  0  0  0  0  0  0  0  0  0  0  0
   48.2344   35.9696   40.7902 H   0  0  0  0  0  0  0  0  0  0  0  0
   48.1675   36.0643   42.5975 H   0  0  0  0  0  0  0  0  0  0  0  0
   52.1797   28.3830   41.5055 H   0  0  0  0  0  0  0  0  0  0  0  0
   53.5172   29.9005   39.7043 H   0  0  0  0  0  0  0  0  0  0  0  0
   52.4896   32.4025   39.8903 H   0  0  0  0  0  0  0  0  0  0  0  0
  1  6  2  0
  2  1  1  0
  3  2  2  0
  3  4  1  0
  4  5  2  0
  5  6  1  0
  5  7  1  0
  7  8  2  0
  8 13  1  0
  8  9  1  0
 10  9  2  0
 11 10  1  0
 12  7  1  0
 12 11  2  0
 14 15  1  0
 14  3  1  0
 15 16  1  0
 16 17  2  0
 18 17  1  0
 19 18  1  0
 20 19  2  0
 20 16  1  0
 21 19  1  0
 21 22  1  0
 23 22  2  0
 24 25  2  0
 24 23  1  0
 25 21  1  0
  1 26  1  0
  2 27  1  0
  9 28  1  0
 10 29  1  0
 11 30  1  0
 13 31  1  0
 13 32  1  0
 14 33  1  0
 14 34  1  0
 15 35  1  0
 15 36  1  0
 23 37  1  0
 24 38  1  0
 25 39  1  0
M  END
>  <Score>  (1) 
-7.23504

$$$$
