
     RDKit          3D

 35 38  0  0  0  0  0  0  0  0999 V2000
   46.9580   34.7820   41.9500 C   0  0  0  0  0  0  0  0  0  0  0  0
   48.2400   35.2860   41.7450 C   0  0  0  0  0  0  0  0  0  0  0  0
   48.5290   34.8970   40.4360 C   0  0  0  0  0  0  0  0  0  0  0  0
   47.4190   34.1960   39.9490 C   0  0  0  0  0  0  0  0  0  0  0  0
   46.5010   34.1560   40.9020 O   0  0  0  0  0  0  0  0  0  0  0  0
   47.3130   33.6330   38.6510 N   0  0  0  0  0  0  0  0  0  0  0  0
   46.4930   32.5790   38.4860 C   0  0  0  0  0  0  0  0  0  0  0  0
   46.3490   31.9850   37.2420 C   0  0  0  0  0  0  0  0  0  0  0  0
   47.0640   32.4960   36.1770 C   0  0  0  0  0  0  0  0  0  0  0  0
   46.9270   31.9510   35.0540 O   0  0  0  0  0  0  0  0  0  0  0  0
   47.8700   33.5550   36.4070 N   0  0  0  0  0  0  0  0  0  0  0  0
   47.9940   34.1160   37.6270 C   0  0  0  0  0  0  0  0  0  0  0  0
   48.7670   35.1020   37.7650 O   0  0  0  0  0  0  0  0  0  0  0  0
   45.4220   30.8290   37.1560 C   0  0  0  0  0  0  0  0  0  0  0  0
   44.5040   35.9780   44.4820 C   0  0  0  0  0  0  0  0  0  0  0  0
   45.2420   35.9180   43.2500 C   0  0  0  0  0  0  0  0  0  0  0  0
   46.1700   34.9060   43.1700 C   0  0  0  0  0  0  0  0  0  0  0  0
   46.3240   34.0590   44.2230 N   0  0  0  0  0  0  0  0  0  0  0  0
   45.6080   34.1530   45.3610 C   0  0  0  0  0  0  0  0  0  0  0  0
   44.6900   35.1260   45.4830 N   0  0  0  0  0  0  0  0  0  0  0  0
   45.9510   33.1320   46.3460 C   0  0  0  0  0  0  0  0  0  0  0  0
   46.9040   32.1890   46.4520 N   0  0  0  0  0  0  0  0  0  0  0  0
   46.7560   31.5270   47.5600 O   0  0  0  0  0  0  0  0  0  0  0  0
   45.7140   32.0270   48.1820 C   0  0  0  0  0  0  0  0  0  0  0  0
   45.1790   33.0370   47.4540 N   0  0  0  0  0  0  0  0  0  0  0  0
   48.8715   35.8530   42.4448 H   0  0  0  0  0  0  0  0  0  0  0  0
   49.4595   35.1036   39.8869 H   0  0  0  0  0  0  0  0  0  0  0  0
   45.9318   32.1852   39.3462 H   0  0  0  0  0  0  0  0  0  0  0  0
   48.4093   33.9482   35.6225 H   0  0  0  0  0  0  0  0  0  0  0  0
   45.1554   30.4966   38.1701 H   0  0  0  0  0  0  0  0  0  0  0  0
   44.5111   31.1287   36.6171 H   0  0  0  0  0  0  0  0  0  0  0  0
   45.9125   30.0050   36.6171 H   0  0  0  0  0  0  0  0  0  0  0  0
   43.7483   36.7684   44.6012 H   0  0  0  0  0  0  0  0  0  0  0  0
   45.0763   36.6312   42.4291 H   0  0  0  0  0  0  0  0  0  0  0  0
   45.3311   31.6774   49.1521 H   0  0  0  0  0  0  0  0  0  0  0  0
  1 17  1  0
  2  1  2  0
  3  2  1  0
  4  3  2  0
  4  5  1  0
  5  1  1  0
  6  4  1  0
  7  6  1  0
  8  7  2  0
  9 11  1  0
  9  8  1  0
 10  9  2  0
 11 12  1  0
 12 13  2  0
 12  6  1  0
 14  8  1  0
 15 20  2  0
 16 15  1  0
 17 16  2  0
 17 18  1  0
 18 19  2  0
 19 20  1  0
 19 21  1  0
 21 22  2  0
 21 25  1  0
 22 23  1  0
 23 24  1  0
 25 24  2  0
  2 26  1  0
  3 27  1  0
  7 28  1  0
 11 29  1  0
 14 30  1  0
 14 31  1  0
 14 32  1  0
 15 33  1  0
 16 34  1  0
 24 35  1  0
M  END
>  <Score>  (1) 
-7.09775

$$$$
