
     RDKit          3D

 47 51  0  0  0  0  0  0  0  0999 V2000
   46.3320   32.2030   44.5400 C   0  0  0  0  0  0  0  0  0  0  0  0
   46.8820   31.3440   43.5930 C   0  0  0  0  0  0  0  0  0  0  0  0
   47.5110   30.3210   44.2110 N   0  0  0  0  0  0  0  0  0  0  0  0
   47.3500   30.5470   45.5480 C   0  0  0  0  0  0  0  0  0  0  0  0
   46.6350   31.6880   45.7490 N   0  0  0  0  0  0  0  0  0  0  0  0
   47.8730   29.6840   46.5520 N   0  0  0  0  0  0  0  0  0  0  0  0
   48.4460   30.1790   47.6700 C   0  0  0  0  0  0  0  0  0  0  0  0
   48.8690   29.1600   48.4760 N   0  0  0  0  0  0  0  0  0  0  0  0
   48.5560   28.0060   47.8560 C   0  0  0  0  0  0  0  0  0  0  0  0
   48.6990   26.6530   48.1150 C   0  0  0  0  0  0  0  0  0  0  0  0
   49.2520   26.3130   49.1830 O   0  0  0  0  0  0  0  0  0  0  0  0
   48.2420   25.7520   47.2190 N   0  0  0  0  0  0  0  0  0  0  0  0
   47.6430   26.0910   46.0620 C   0  0  0  0  0  0  0  0  0  0  0  0
   47.2060   25.0470   45.2010 N   0  0  0  0  0  0  0  0  0  0  0  0
   47.5020   27.4160   45.8060 N   0  0  0  0  0  0  0  0  0  0  0  0
   47.9430   28.3510   46.6720 C   0  0  0  0  0  0  0  0  0  0  0  0
   44.9290   35.5740   44.9920 C   0  0  0  0  0  0  0  0  0  0  0  0
   44.1510   35.7380   43.8200 C   0  0  0  0  0  0  0  0  0  0  0  0
   44.1340   34.6960   42.9200 C   0  0  0  0  0  0  0  0  0  0  0  0
   44.8330   33.5560   43.1460 N   0  0  0  0  0  0  0  0  0  0  0  0
   45.5800   33.4140   44.2860 C   0  0  0  0  0  0  0  0  0  0  0  0
   45.6150   34.4320   45.1930 N   0  0  0  0  0  0  0  0  0  0  0  0
   43.3470   34.8720   41.7410 N   0  0  0  0  0  0  0  0  0  0  0  0
   42.0650   35.2450   41.6740 C   0  0  0  0  0  0  0  0  0  0  0  0
   41.4430   35.3710   40.4520 C   0  0  0  0  0  0  0  0  0  0  0  0
   42.1160   35.1190   39.2730 C   0  0  0  0  0  0  0  0  0  0  0  0
   41.5560   35.2320   38.1600 O   0  0  0  0  0  0  0  0  0  0  0  0
   43.3930   34.7490   39.3760 N   0  0  0  0  0  0  0  0  0  0  0  0
   44.0040   34.6260   40.5900 C   0  0  0  0  0  0  0  0  0  0  0  0
   45.2240   34.2650   40.5240 O   0  0  0  0  0  0  0  0  0  0  0  0
   40.0300   35.7840   40.4000 C   0  0  0  0  0  0  0  0  0  0  0  0
   46.2500   32.2740   47.0200 C   0  0  0  0  0  0  0  0  0  0  0  0
   46.0950   31.2730   48.0120 F   0  0  0  0  0  0  0  0  0  0  0  0
   45.0610   32.9840   46.9350 F   0  0  0  0  0  0  0  0  0  0  0  0
   47.2590   33.0850   47.5070 F   0  0  0  0  0  0  0  0  0  0  0  0
   46.8144   31.4783   42.5033 H   0  0  0  0  0  0  0  0  0  0  0  0
   48.5564   31.2492   47.8991 H   0  0  0  0  0  0  0  0  0  0  0  0
   48.3580   24.7510   47.4324 H   0  0  0  0  0  0  0  0  0  0  0  0
   46.7443   25.2745   44.3088 H   0  0  0  0  0  0  0  0  0  0  0  0
   47.3511   24.0633   45.4696 H   0  0  0  0  0  0  0  0  0  0  0  0
   44.9732   36.3801   45.7392 H   0  0  0  0  0  0  0  0  0  0  0  0
   43.5826   36.6616   43.6359 H   0  0  0  0  0  0  0  0  0  0  0  0
   41.5052   35.4519   42.5980 H   0  0  0  0  0  0  0  0  0  0  0  0
   43.9304   34.5516   38.5198 H   0  0  0  0  0  0  0  0  0  0  0  0
   39.6431   35.8971   41.4235 H   0  0  0  0  0  0  0  0  0  0  0  0
   39.9478   36.7437   39.8688 H   0  0  0  0  0  0  0  0  0  0  0  0
   39.4439   35.0196   39.8688 H   0  0  0  0  0  0  0  0  0  0  0  0
  1  5  1  0
  2  3  1  0
  2  1  2  0
  3  4  2  0
  4  5  1  0
  4  6  1  0
  5 32  1  0
  6 16  1  0
  6  7  1  0
  7  8  2  0
  9 10  1  0
  9  8  1  0
 10 11  2  0
 12 10  1  0
 13 12  1  0
 14 13  1  0
 15 13  2  0
 15 16  1  0
 16  9  2  0
 17 22  2  0
 18 17  1  0
 19 20  1  0
 19 18  2  0
 20 21  2  0
 21  1  1  0
 21 22  1  0
 23 19  1  0
 24 23  1  0
 25 24  2  0
 26 28  1  0
 26 25  1  0
 27 26  2  0
 28 29  1  0
 29 23  1  0
 30 29  2  0
 31 25  1  0
 32 35  1  0
 32 33  1  0
 34 32  1  0
  2 36  1  0
  7 37  1  0
 12 38  1  0
 14 39  1  0
 14 40  1  0
 17 41  1  0
 18 42  1  0
 24 43  1  0
 28 44  1  0
 31 45  1  0
 31 46  1  0
 31 47  1  0
M  END
>  <Score>  (1) 
-7.03848

$$$$
