
     RDKit          3D

 34 37  0  0  0  0  0  0  0  0999 V2000
   46.9760   34.8580   41.9930 C   0  0  0  0  0  0  0  0  0  0  0  0
   48.2080   35.4850   41.9880 C   0  0  0  0  0  0  0  0  0  0  0  0
   48.9330   35.4040   40.8420 C   0  0  0  0  0  0  0  0  0  0  0  0
   48.4570   34.7380   39.7750 N   0  0  0  0  0  0  0  0  0  0  0  0
   47.2490   34.1290   39.7970 C   0  0  0  0  0  0  0  0  0  0  0  0
   46.5170   34.2080   40.9430 N   0  0  0  0  0  0  0  0  0  0  0  0
   46.8140   33.4460   38.6280 N   0  0  0  0  0  0  0  0  0  0  0  0
   45.8840   32.4730   38.8700 C   0  0  0  0  0  0  0  0  0  0  0  0
   45.3790   31.7300   37.8000 C   0  0  0  0  0  0  0  0  0  0  0  0
   45.8710   32.0450   36.5590 C   0  0  0  0  0  0  0  0  0  0  0  0
   45.3830   31.3430   35.6160 O   0  0  0  0  0  0  0  0  0  0  0  0
   46.7830   32.9990   36.3250 N   0  0  0  0  0  0  0  0  0  0  0  0
   47.2540   33.7020   37.3810 C   0  0  0  0  0  0  0  0  0  0  0  0
   48.0990   34.5980   37.2280 O   0  0  0  0  0  0  0  0  0  0  0  0
   44.4680   35.9510   44.5360 C   0  0  0  0  0  0  0  0  0  0  0  0
   45.2250   35.9270   43.3360 C   0  0  0  0  0  0  0  0  0  0  0  0
   46.1770   34.9270   43.2010 C   0  0  0  0  0  0  0  0  0  0  0  0
   46.3380   34.0290   44.2110 N   0  0  0  0  0  0  0  0  0  0  0  0
   45.5820   34.0990   45.3440 C   0  0  0  0  0  0  0  0  0  0  0  0
   44.6550   35.0490   45.5110 N   0  0  0  0  0  0  0  0  0  0  0  0
   45.9150   33.0300   46.3170 C   0  0  0  0  0  0  0  0  0  0  0  0
   46.9390   32.0780   46.0270 C   0  0  0  0  0  0  0  0  0  0  0  0
   46.9120   31.0360   47.5330 S   0  0  0  0  0  0  0  0  0  0  0  0
   45.5130   32.0770   48.2930 C   0  0  0  0  0  0  0  0  0  0  0  0
   45.3000   32.8820   47.5020 N   0  0  0  0  0  0  0  0  0  0  0  0
   48.5835   36.0240   42.8703 H   0  0  0  0  0  0  0  0  0  0  0  0
   49.9192   35.8880   40.7862 H   0  0  0  0  0  0  0  0  0  0  0  0
   45.5375   32.2775   39.8955 H   0  0  0  0  0  0  0  0  0  0  0  0
   44.6297   30.9377   37.9445 H   0  0  0  0  0  0  0  0  0  0  0  0
   47.1156   33.1914   35.3693 H   0  0  0  0  0  0  0  0  0  0  0  0
   43.7054   36.7323   44.6706 H   0  0  0  0  0  0  0  0  0  0  0  0
   45.0632   36.6725   42.5435 H   0  0  0  0  0  0  0  0  0  0  0  0
   47.5761   31.9929   45.1344 H   0  0  0  0  0  0  0  0  0  0  0  0
   45.0207   31.9395   49.2670 H   0  0  0  0  0  0  0  0  0  0  0  0
  1 17  1  0
  2  1  2  0
  3  2  1  0
  4  5  1  0
  4  3  2  0
  5  6  2  0
  6  1  1  0
  7  8  1  0
  7  5  1  0
  9  8  2  0
 10  9  1  0
 11 10  2  0
 12 10  1  0
 12 13  1  0
 13  7  1  0
 14 13  2  0
 15 20  2  0
 16 15  1  0
 17 16  2  0
 17 18  1  0
 18 19  2  0
 19 20  1  0
 19 21  1  0
 21 25  1  0
 22 21  2  0
 22 23  1  0
 23 24  1  0
 25 24  2  0
  2 26  1  0
  3 27  1  0
  8 28  1  0
  9 29  1  0
 12 30  1  0
 15 31  1  0
 16 32  1  0
 22 33  1  0
 24 34  1  0
M  END
>  <Score>  (1) 
-7.09492

$$$$
