
     RDKit          3D

 48 52  0  0  0  0  0  0  0  0999 V2000
   44.6740   35.5720   44.7090 C   0  0  0  0  0  0  0  0  0  0  0  0
   45.3940   35.6660   43.4920 C   0  0  0  0  0  0  0  0  0  0  0  0
   46.3300   34.6790   43.2150 C   0  0  0  0  0  0  0  0  0  0  0  0
   46.4910   33.7010   44.1210 N   0  0  0  0  0  0  0  0  0  0  0  0
   45.7960   33.6200   45.2860 C   0  0  0  0  0  0  0  0  0  0  0  0
   44.8780   34.5690   45.5780 N   0  0  0  0  0  0  0  0  0  0  0  0
   47.0880   34.7300   41.9920 C   0  0  0  0  0  0  0  0  0  0  0  0
   48.2460   35.4960   41.9830 C   0  0  0  0  0  0  0  0  0  0  0  0
   48.9400   35.5230   40.8060 C   0  0  0  0  0  0  0  0  0  0  0  0
   48.5040   34.8360   39.7320 N   0  0  0  0  0  0  0  0  0  0  0  0
   47.3780   34.1060   39.7820 C   0  0  0  0  0  0  0  0  0  0  0  0
   46.6770   34.0660   40.9330 N   0  0  0  0  0  0  0  0  0  0  0  0
   46.9770   33.4020   38.5990 N   0  0  0  0  0  0  0  0  0  0  0  0
   46.1710   32.3270   38.8260 C   0  0  0  0  0  0  0  0  0  0  0  0
   45.7140   31.5600   37.7580 C   0  0  0  0  0  0  0  0  0  0  0  0
   46.1320   31.9710   36.5110 C   0  0  0  0  0  0  0  0  0  0  0  0
   45.7000   31.2550   35.5540 O   0  0  0  0  0  0  0  0  0  0  0  0
   46.9240   33.0280   36.2900 N   0  0  0  0  0  0  0  0  0  0  0  0
   47.3330   33.7260   37.3550 C   0  0  0  0  0  0  0  0  0  0  0  0
   48.0790   34.7290   37.1910 O   0  0  0  0  0  0  0  0  0  0  0  0
   46.0670   32.4810   46.2130 C   0  0  0  0  0  0  0  0  0  0  0  0
   46.9450   32.9390   47.3760 C   0  0  0  0  0  0  0  0  0  0  0  0
   47.4770   31.8170   48.0800 N   0  0  0  0  0  0  0  0  0  0  0  0
   46.9930   30.5590   48.1590 C   0  0  0  0  0  0  0  0  0  0  0  0
   47.8240   29.8240   48.9390 N   0  0  0  0  0  0  0  0  0  0  0  0
   48.8320   30.6100   49.3530 C   0  0  0  0  0  0  0  0  0  0  0  0
   49.8850   30.2560   50.1580 C   0  0  0  0  0  0  0  0  0  0  0  0
   50.0450   29.1030   50.6280 O   0  0  0  0  0  0  0  0  0  0  0  0
   50.8050   31.1830   50.4690 N   0  0  0  0  0  0  0  0  0  0  0  0
   50.5970   32.4020   49.9460 C   0  0  0  0  0  0  0  0  0  0  0  0
   51.4980   33.4630   50.2040 N   0  0  0  0  0  0  0  0  0  0  0  0
   49.5560   32.7500   49.1520 N   0  0  0  0  0  0  0  0  0  0  0  0
   48.6050   31.8530   48.8100 C   0  0  0  0  0  0  0  0  0  0  0  0
   43.9267   36.3428   44.9485 H   0  0  0  0  0  0  0  0  0  0  0  0
   45.2170   36.4940   42.7898 H   0  0  0  0  0  0  0  0  0  0  0  0
   48.5851   36.0489   42.8714 H   0  0  0  0  0  0  0  0  0  0  0  0
   49.8658   36.1128   40.7346 H   0  0  0  0  0  0  0  0  0  0  0  0
   45.8812   32.0650   39.8543 H   0  0  0  0  0  0  0  0  0  0  0  0
   45.0630   30.6847   37.9000 H   0  0  0  0  0  0  0  0  0  0  0  0
   47.2074   33.2934   35.3360 H   0  0  0  0  0  0  0  0  0  0  0  0
   45.1135   32.0994   46.6070 H   0  0  0  0  0  0  0  0  0  0  0  0
   46.5918   31.6879   45.6602 H   0  0  0  0  0  0  0  0  0  0  0  0
   47.7747   33.5460   46.9846 H   0  0  0  0  0  0  0  0  0  0  0  0
   46.3313   33.5326   48.0695 H   0  0  0  0  0  0  0  0  0  0  0  0
   46.0776   30.1917   47.6721 H   0  0  0  0  0  0  0  0  0  0  0  0
   51.6159   30.9732   51.0685 H   0  0  0  0  0  0  0  0  0  0  0  0
   51.3277   34.3938   49.7971 H   0  0  0  0  0  0  0  0  0  0  0  0
   52.3239   33.3042   50.7986 H   0  0  0  0  0  0  0  0  0  0  0  0
  1  6  2  0
  2  1  1  0
  3  2  2  0
  3  4  1  0
  4  5  2  0
  5  6  1  0
  5 21  1  0
  7  3  1  0
  8  7  2  0
  9  8  1  0
 10 11  1  0
 10  9  2  0
 11 12  2  0
 12  7  1  0
 13 14  1  0
 13 11  1  0
 15 14  2  0
 16 15  1  0
 17 16  2  0
 18 16  1  0
 18 19  1  0
 19 13  1  0
 20 19  2  0
 21 22  1  0
 22 23  1  0
 23 24  1  0
 23 33  1  0
 24 25  2  0
 25 26  1  0
 26 27  1  0
 27 29  1  0
 27 28  2  0
 30 31  1  0
 30 29  1  0
 32 30  2  0
 33 32  1  0
 33 26  2  0
  1 34  1  0
  2 35  1  0
  8 36  1  0
  9 37  1  0
 14 38  1  0
 15 39  1  0
 18 40  1  0
 21 41  1  0
 21 42  1  0
 22 43  1  0
 22 44  1  0
 24 45  1  0
 29 46  1  0
 31 47  1  0
 31 48  1  0
M  END
>  <Score>  (1) 
-7.11593

$$$$
