
     RDKit          3D

 46 48  0  0  0  0  0  0  0  0999 V2000
   50.8100   33.0360   42.0580 C   0  0  0  0  0  0  0  0  0  0  0  0
   50.8370   31.6430   42.0160 C   0  0  0  0  0  0  0  0  0  0  0  0
   49.7150   30.9800   42.4930 C   0  0  0  0  0  0  0  0  0  0  0  0
   48.6680   31.7180   42.9700 N   0  0  0  0  0  0  0  0  0  0  0  0
   48.6830   33.0630   42.9940 C   0  0  0  0  0  0  0  0  0  0  0  0
   49.7370   33.6880   42.5450 N   0  0  0  0  0  0  0  0  0  0  0  0
   47.5170   33.6650   43.5190 N   0  0  0  0  0  0  0  0  0  0  0  0
   47.1150   33.2280   44.7290 C   0  0  0  0  0  0  0  0  0  0  0  0
   45.9920   33.7420   45.3440 C   0  0  0  0  0  0  0  0  0  0  0  0
   45.2690   34.7350   44.6920 C   0  0  0  0  0  0  0  0  0  0  0  0
   44.2430   35.2320   45.2130 O   0  0  0  0  0  0  0  0  0  0  0  0
   45.6930   35.1610   43.4740 N   0  0  0  0  0  0  0  0  0  0  0  0
   46.7900   34.6370   42.9080 C   0  0  0  0  0  0  0  0  0  0  0  0
   47.2100   35.0100   41.7800 O   0  0  0  0  0  0  0  0  0  0  0  0
   45.5650   33.2340   46.6850 C   0  0  0  0  0  0  0  0  0  0  0  0
   44.9200   36.1910   42.8270 C   0  0  0  0  0  0  0  0  0  0  0  0
   43.9010   35.5800   41.9640 C   0  0  0  0  0  0  0  0  0  0  0  0
   42.5480   35.4930   42.4640 N   0  0  0  0  0  0  0  0  0  0  0  0
   41.4500   35.3740   41.6110 C   0  0  0  0  0  0  0  0  0  0  0  0
   40.9590   36.3310   40.8560 O   0  0  0  0  0  0  0  0  0  0  0  0
   39.0030   31.8690   40.9690 C   0  0  0  0  0  0  0  0  0  0  0  0
   38.5560   33.0730   40.4870 C   0  0  0  0  0  0  0  0  0  0  0  0
   39.3810   34.1410   40.7270 C   0  0  0  0  0  0  0  0  0  0  0  0
   40.6110   34.1390   41.3990 C   0  0  0  0  0  0  0  0  0  0  0  0
   40.9660   32.8880   41.8410 C   0  0  0  0  0  0  0  0  0  0  0  0
   40.2000   31.7810   41.6410 C   0  0  0  0  0  0  0  0  0  0  0  0
   38.0480   30.4450   40.7290 S   0  0  0  0  0  0  0  0  0  0  0  0
   36.7830   30.4540   41.5220 O   0  0  0  0  0  0  0  0  0  0  0  0
   37.7590   30.3120   39.2560 O   0  0  0  0  0  0  0  0  0  0  0  0
   51.6740   33.6086   41.6896 H   0  0  0  0  0  0  0  0  0  0  0  0
   51.7064   31.0952   41.6234 H   0  0  0  0  0  0  0  0  0  0  0  0
   49.6691   29.8810   42.4873 H   0  0  0  0  0  0  0  0  0  0  0  0
   47.6953   32.4440   45.2376 H   0  0  0  0  0  0  0  0  0  0  0  0
   46.0584   33.8210   47.4736 H   0  0  0  0  0  0  0  0  0  0  0  0
   44.4738   33.3316   46.7836 H   0  0  0  0  0  0  0  0  0  0  0  0
   45.8488   32.1758   46.7836 H   0  0  0  0  0  0  0  0  0  0  0  0
   44.4278   36.8119   43.5900 H   0  0  0  0  0  0  0  0  0  0  0  0
   45.5873   36.8156   42.2150 H   0  0  0  0  0  0  0  0  0  0  0  0
   44.2334   34.5553   41.7415 H   0  0  0  0  0  0  0  0  0  0  0  0
   43.8305   36.2589   41.1014 H   0  0  0  0  0  0  0  0  0  0  0  0
   42.3891   35.5196   43.4813 H   0  0  0  0  0  0  0  0  0  0  0  0
   37.6034   33.1742   39.9464 H   0  0  0  0  0  0  0  0  0  0  0  0
   39.0372   35.1145   40.3474 H   0  0  0  0  0  0  0  0  0  0  0  0
   41.9163   32.7753   42.3834 H   0  0  0  0  0  0  0  0  0  0  0  0
   40.5414   30.8066   42.0204 H   0  0  0  0  0  0  0  0  0  0  0  0
   38.7597   29.3641   41.1783 H   0  0  0  0  0  0  0  0  0  0  0  0
  1  6  2  0
  2  1  1  0
  2  3  2  0
  3  4  1  0
  4  5  2  0
  5  7  1  0
  6  5  1  0
  7  8  1  0
  8  9  2  0
  9 15  1  0
 10 11  2  0
 10  9  1  0
 12 10  1  0
 13 12  1  0
 13  7  1  0
 14 13  2  0
 16 12  1  0
 17 18  1  0
 17 16  1  0
 19 18  1  0
 20 19  2  0
 21 26  2  0
 22 23  2  0
 22 21  1  0
 23 24  1  0
 24 19  1  0
 24 25  2  0
 26 25  1  0
 27 21  1  0
 27 28  2  0
 29 27  2  0
  1 30  1  0
  2 31  1  0
  3 32  1  0
  8 33  1  0
 15 34  1  0
 15 35  1  0
 15 36  1  0
 16 37  1  0
 16 38  1  0
 17 39  1  0
 17 40  1  0
 18 41  1  0
 22 42  1  0
 23 43  1  0
 25 44  1  0
 26 45  1  0
 27 46  1  0
M  END
>  <Score>  (1) 
-7.11543

$$$$
