
     RDKit          3D

 55 59  0  0  0  0  0  0  0  0999 V2000
   44.5240   35.0430   46.1680 C   0  0  0  0  0  0  0  0  0  0  0  0
   44.7650   35.0490   44.7860 C   0  0  0  0  0  0  0  0  0  0  0  0
   45.4700   33.9710   44.2280 C   0  0  0  0  0  0  0  0  0  0  0  0
   45.8760   32.9890   45.0550 N   0  0  0  0  0  0  0  0  0  0  0  0
   45.6210   33.0220   46.3910 C   0  0  0  0  0  0  0  0  0  0  0  0
   44.9530   34.0380   46.9360 N   0  0  0  0  0  0  0  0  0  0  0  0
   45.6900   34.0160   42.8360 N   0  0  0  0  0  0  0  0  0  0  0  0
   44.9290   33.8260   41.7510 C   0  0  0  0  0  0  0  0  0  0  0  0
   45.6580   33.9960   40.6250 N   0  0  0  0  0  0  0  0  0  0  0  0
   46.9120   34.2990   40.9890 C   0  0  0  0  0  0  0  0  0  0  0  0
   48.0520   34.5700   40.2360 C   0  0  0  0  0  0  0  0  0  0  0  0
   48.0330   34.5580   38.9980 O   0  0  0  0  0  0  0  0  0  0  0  0
   49.2170   34.8550   40.8470 N   0  0  0  0  0  0  0  0  0  0  0  0
   49.2030   34.8590   42.1880 C   0  0  0  0  0  0  0  0  0  0  0  0
   50.3650   35.1440   42.9620 N   0  0  0  0  0  0  0  0  0  0  0  0
   48.1250   34.6030   42.9270 N   0  0  0  0  0  0  0  0  0  0  0  0
   46.9220   34.3100   42.3750 C   0  0  0  0  0  0  0  0  0  0  0  0
   46.0710   31.9400   47.2850 C   0  0  0  0  0  0  0  0  0  0  0  0
   47.1890   32.4210   48.1790 C   0  0  0  0  0  0  0  0  0  0  0  0
   44.9600   31.4070   48.1490 C   0  0  0  0  0  0  0  0  0  0  0  0
   46.6390   30.8350   46.4010 C   0  0  0  0  0  0  0  0  0  0  0  0
   45.8930   29.5380   46.6010 C   0  0  0  0  0  0  0  0  0  0  0  0
   46.2930   28.6940   47.5780 C   0  0  0  0  0  0  0  0  0  0  0  0
   45.1470   27.2610   47.4950 S   0  0  0  0  0  0  0  0  0  0  0  0
   44.2660   28.1140   46.0530 C   0  0  0  0  0  0  0  0  0  0  0  0
   44.8710   29.0970   45.9390 N   0  0  0  0  0  0  0  0  0  0  0  0
   43.0580   27.6080   45.2580 C   0  0  0  0  0  0  0  0  0  0  0  0
   42.6510   26.2660   45.7440 C   0  0  0  0  0  0  0  0  0  0  0  0
   41.2270   26.4660   46.2550 C   0  0  0  0  0  0  0  0  0  0  0  0
   40.7290   27.5660   45.3260 C   0  0  0  0  0  0  0  0  0  0  0  0
   41.8880   28.5340   45.4080 C   0  0  0  0  0  0  0  0  0  0  0  0
   43.9737   35.8782   46.6258 H   0  0  0  0  0  0  0  0  0  0  0  0
   44.4104   35.8777   44.1554 H   0  0  0  0  0  0  0  0  0  0  0  0
   43.8600   33.5677   41.7726 H   0  0  0  0  0  0  0  0  0  0  0  0
   50.0737   35.0592   40.3130 H   0  0  0  0  0  0  0  0  0  0  0  0
   50.3131   35.1371   43.9907 H   0  0  0  0  0  0  0  0  0  0  0  0
   51.2569   35.3569   42.4928 H   0  0  0  0  0  0  0  0  0  0  0  0
   46.8965   32.2951   49.2319 H   0  0  0  0  0  0  0  0  0  0  0  0
   48.0974   31.8341   47.9782 H   0  0  0  0  0  0  0  0  0  0  0  0
   47.3875   33.4841   47.9782 H   0  0  0  0  0  0  0  0  0  0  0  0
   45.2261   31.5347   49.2087 H   0  0  0  0  0  0  0  0  0  0  0  0
   44.0324   31.9581   47.9349 H   0  0  0  0  0  0  0  0  0  0  0  0
   44.8094   30.3386   47.9349 H   0  0  0  0  0  0  0  0  0  0  0  0
   47.6985   30.6822   46.6540 H   0  0  0  0  0  0  0  0  0  0  0  0
   46.5313   31.1401   45.3497 H   0  0  0  0  0  0  0  0  0  0  0  0
   47.1303   28.8358   48.2771 H   0  0  0  0  0  0  0  0  0  0  0  0
   43.3553   27.5593   44.2001 H   0  0  0  0  0  0  0  0  0  0  0  0
   42.6716   25.5321   44.9248 H   0  0  0  0  0  0  0  0  0  0  0  0
   43.3258   25.8780   46.5212 H   0  0  0  0  0  0  0  0  0  0  0  0
   40.6289   25.5488   46.1502 H   0  0  0  0  0  0  0  0  0  0  0  0
   41.1627   26.7157   47.3243 H   0  0  0  0  0  0  0  0  0  0  0  0
   39.7953   28.0170   45.6931 H   0  0  0  0  0  0  0  0  0  0  0  0
   40.4797   27.2313   44.3082 H   0  0  0  0  0  0  0  0  0  0  0  0
   41.9091   29.0553   46.3764 H   0  0  0  0  0  0  0  0  0  0  0  0
   41.8541   29.3405   44.6607 H   0  0  0  0  0  0  0  0  0  0  0  0
  1  6  2  0
  2  1  1  0
  3  2  2  0
  3  4  1  0
  4  5  2  0
  5  6  1  0
  5 18  1  0
  7  3  1  0
  8  7  1  0
  9 10  1  0
  9  8  2  0
 10 17  2  0
 11 13  1  0
 11 10  1  0
 12 11  2  0
 13 14  1  0
 14 16  2  0
 14 15  1  0
 17  7  1  0
 17 16  1  0
 18 20  1  0
 18 19  1  0
 21 22  1  0
 21 18  1  0
 22 23  2  0
 24 23  1  0
 25 24  1  0
 26 25  2  0
 26 22  1  0
 27 31  1  0
 27 28  1  0
 27 25  1  0
 28 29  1  0
 30 31  1  0
 30 29  1  0
  1 32  1  0
  2 33  1  0
  8 34  1  0
 13 35  1  0
 15 36  1  0
 15 37  1  0
 19 38  1  0
 19 39  1  0
 19 40  1  0
 20 41  1  0
 20 42  1  0
 20 43  1  0
 21 44  1  0
 21 45  1  0
 23 46  1  0
 27 47  1  0
 28 48  1  0
 28 49  1  0
 29 50  1  0
 29 51  1  0
 30 52  1  0
 30 53  1  0
 31 54  1  0
 31 55  1  0
M  END
>  <Score>  (1) 
-7.36216

$$$$
