
     RDKit          3D

 38 41  0  0  1  0  0  0  0  0999 V2000
   44.4680   35.9240   44.8020 C   0  0  0  0  0  0  0  0  0  0  0  0
   44.3570   35.6140   43.4730 C   0  0  0  0  0  0  0  0  0  0  0  0
   44.7460   34.3680   43.0550 C   0  0  0  0  0  0  0  0  0  0  0  0
   45.2230   33.5070   43.9800 N   0  0  0  0  0  0  0  0  0  0  0  0
   45.3300   33.8200   45.2850 C   0  0  0  0  0  0  0  0  0  0  0  0
   44.9490   35.0250   45.6740 N   0  0  0  0  0  0  0  0  0  0  0  0
   44.9010   33.8250   41.7360 C   0  0  0  0  0  0  0  0  0  0  0  0
   45.0350   33.3610   40.6070 N   0  0  0  0  0  0  0  0  0  0  0  0
   45.0240   32.8400   39.4930 C   0  0  0  0  0  0  0  0  0  0  0  0
   46.2620   33.2790   39.2470 N   0  0  0  0  0  0  0  0  0  0  0  0
   46.9130   34.0160   40.1970 C   0  0  0  0  0  0  0  0  0  0  0  0
   48.1870   34.4660   39.7720 C   0  0  0  0  0  0  0  0  0  0  0  0
   48.8560   35.2720   40.6490 C   0  0  0  0  0  0  0  0  0  0  0  0
   48.4040   35.6760   41.8820 C   0  0  0  0  0  0  0  0  0  0  0  0
   47.1580   35.1470   42.1330 C   0  0  0  0  0  0  0  0  0  0  0  0
   46.2430   34.2900   41.4250 C   0  0  0  0  0  0  0  0  0  0  0  0
   45.8570   32.8690   46.2520 C   0  0  0  0  0  0  0  0  0  0  0  0
   46.8360   31.9650   45.8210 C   0  0  0  0  0  0  0  0  0  0  0  0
   47.3920   31.0340   46.6710 C   0  0  0  0  0  0  0  0  0  0  0  0
   46.9960   30.9780   47.9510 N   0  0  0  0  0  0  0  0  0  0  0  0
   46.0400   31.8690   48.3530 C   0  0  0  0  0  0  0  0  0  0  0  0
   45.4630   32.8070   47.5400 N   0  0  0  0  0  0  0  0  0  0  0  0
   45.4850   31.9700   49.6710 N   0  0  0  0  0  0  0  0  0  0  0  0
   44.1603   36.9184   45.1577 H   0  0  0  0  0  0  0  0  0  0  0  0
   43.9639   36.3495   42.7558 H   0  0  0  0  0  0  0  0  0  0  0  0
   44.3854   34.7007   41.3149 H   0  0  0  0  0  0  0  0  0  0  0  0
   45.2739   34.2831   40.2152 H   0  0  0  0  0  0  0  0  0  0  0  0
   44.9372   31.7437   39.5156 H   0  0  0  0  0  0  0  0  0  0  0  0
   44.2115   33.0720   38.7888 H   0  0  0  0  0  0  0  0  0  0  0  0
   46.7213   33.0642   38.3504 H   0  0  0  0  0  0  0  0  0  0  0  0
   48.6111   34.1842   38.7970 H   0  0  0  0  0  0  0  0  0  0  0  0
   49.8486   35.6308   40.3393 H   0  0  0  0  0  0  0  0  0  0  0  0
   48.9591   36.3296   42.5710 H   0  0  0  0  0  0  0  0  0  0  0  0
   46.7658   35.4540   43.1138 H   0  0  0  0  0  0  0  0  0  0  0  0
   47.1707   31.9992   44.7737 H   0  0  0  0  0  0  0  0  0  0  0  0
   48.1591   30.3381   46.3004 H   0  0  0  0  0  0  0  0  0  0  0  0
   44.7656   32.6787   49.8740 H   0  0  0  0  0  0  0  0  0  0  0  0
   45.8056   31.3339   50.4150 H   0  0  0  0  0  0  0  0  0  0  0  0
  1  6  2  0
  2  1  1  0
  3  2  2  0
  3  4  1  0
  4  5  2  0
  5  6  1  0
  5 17  1  0
  7  3  1  0
  8  7  1  0
  9  8  1  0
 10  9  1  0
 10 11  1  0
 11 16  2  0
 12 11  1  0
 12 13  2  0
 13 14  1  0
 14 15  2  0
 16  7  1  0
 16 15  1  0
 17 22  1  0
 18 17  2  0
 18 19  1  0
 19 20  2  0
 20 21  1  0
 21 23  1  0
 22 21  2  0
  1 24  1  0
  2 25  1  0
  7 26  1  0
  8 27  1  0
  9 28  1  0
  9 29  1  0
 10 30  1  0
 12 31  1  0
 13 32  1  0
 14 33  1  0
 15 34  1  0
 18 35  1  0
 19 36  1  0
 23 37  1  0
 23 38  1  0
M  END
>  <Score>  (1) 
-7.27891

$$$$
