
     RDKit          3D

 44 48  0  0  0  0  0  0  0  0999 V2000
   46.5560   34.6610   42.1860 C   0  0  0  0  0  0  0  0  0  0  0  0
   47.7690   35.2770   42.0180 C   0  0  0  0  0  0  0  0  0  0  0  0
   48.5050   35.1400   40.8290 C   0  0  0  0  0  0  0  0  0  0  0  0
   47.9710   34.3470   39.7920 C   0  0  0  0  0  0  0  0  0  0  0  0
   46.7350   33.7230   39.9690 C   0  0  0  0  0  0  0  0  0  0  0  0
   46.0680   33.9020   41.1650 C   0  0  0  0  0  0  0  0  0  0  0  0
   44.7970   33.2490   41.3250 N   0  0  0  0  0  0  0  0  0  0  0  0
   44.5610   32.0010   41.7830 C   0  0  0  0  0  0  0  0  0  0  0  0
   43.2800   31.5310   41.8720 C   0  0  0  0  0  0  0  0  0  0  0  0
   42.2080   32.3100   41.5010 C   0  0  0  0  0  0  0  0  0  0  0  0
   41.0410   31.8310   41.6020 O   0  0  0  0  0  0  0  0  0  0  0  0
   42.4690   33.5610   41.0430 N   0  0  0  0  0  0  0  0  0  0  0  0
   43.7220   34.0120   40.9600 C   0  0  0  0  0  0  0  0  0  0  0  0
   43.8390   35.2050   40.5140 O   0  0  0  0  0  0  0  0  0  0  0  0
   41.3360   34.3320   40.6710 C   0  0  0  0  0  0  0  0  0  0  0  0
   41.3020   35.6790   41.0040 C   0  0  0  0  0  0  0  0  0  0  0  0
   40.0960   36.2020   40.5300 C   0  0  0  0  0  0  0  0  0  0  0  0
   39.4500   35.1540   39.9310 N   0  0  0  0  0  0  0  0  0  0  0  0
   40.1840   34.0720   40.0210 N   0  0  0  0  0  0  0  0  0  0  0  0
   44.4150   36.0040   45.0000 C   0  0  0  0  0  0  0  0  0  0  0  0
   45.0210   35.8940   43.7540 C   0  0  0  0  0  0  0  0  0  0  0  0
   45.8710   34.8670   43.4570 C   0  0  0  0  0  0  0  0  0  0  0  0
   46.1080   33.9360   44.4460 N   0  0  0  0  0  0  0  0  0  0  0  0
   45.5030   34.0600   45.6650 C   0  0  0  0  0  0  0  0  0  0  0  0
   44.6760   35.0680   45.9390 N   0  0  0  0  0  0  0  0  0  0  0  0
   45.7640   33.0850   46.6690 N   0  0  0  0  0  0  0  0  0  0  0  0
   46.9430   32.4280   46.4630 C   0  0  0  0  0  0  0  0  0  0  0  0
   47.1130   31.5030   47.4840 C   0  0  0  0  0  0  0  0  0  0  0  0
   46.0290   31.6230   48.2830 N   0  0  0  0  0  0  0  0  0  0  0  0
   45.2210   32.5830   47.7800 C   0  0  0  0  0  0  0  0  0  0  0  0
   48.1758   35.8932   42.8334 H   0  0  0  0  0  0  0  0  0  0  0  0
   49.4771   35.6406   40.7094 H   0  0  0  0  0  0  0  0  0  0  0  0
   48.5249   34.2211   38.8500 H   0  0  0  0  0  0  0  0  0  0  0  0
   46.3010   33.1013   39.1720 H   0  0  0  0  0  0  0  0  0  0  0  0
   45.4022   31.3601   42.0856 H   0  0  0  0  0  0  0  0  0  0  0  0
   43.1033   30.5120   42.2468 H   0  0  0  0  0  0  0  0  0  0  0  0
   42.0832   36.2345   41.5435 H   0  0  0  0  0  0  0  0  0  0  0  0
   39.7401   37.2390   40.6194 H   0  0  0  0  0  0  0  0  0  0  0  0
   38.5265   35.2078   39.4780 H   0  0  0  0  0  0  0  0  0  0  0  0
   43.7338   36.8397   45.2182 H   0  0  0  0  0  0  0  0  0  0  0  0
   44.8105   36.6539   42.9871 H   0  0  0  0  0  0  0  0  0  0  0  0
   47.6397   32.6021   45.6297 H   0  0  0  0  0  0  0  0  0  0  0  0
   47.9587   30.8121   47.6162 H   0  0  0  0  0  0  0  0  0  0  0  0
   44.2638   32.9013   48.2187 H   0  0  0  0  0  0  0  0  0  0  0  0
  1 22  1  0
  2  1  2  0
  3  2  1  0
  4  5  1  0
  4  3  2  0
  5  6  2  0
  6  7  1  0
  6  1  1  0
  7  8  1  0
  8  9  2  0
 10 11  2  0
 10  9  1  0
 12 10  1  0
 13 12  1  0
 13  7  1  0
 14 13  2  0
 15 16  1  0
 15 12  1  0
 17 16  2  0
 18 19  1  0
 18 17  1  0
 19 15  2  0
 20 25  2  0
 21 20  1  0
 22 21  2  0
 22 23  1  0
 23 24  2  0
 24 25  1  0
 24 26  1  0
 26 30  1  0
 27 26  1  0
 27 28  2  0
 28 29  1  0
 30 29  2  0
  2 31  1  0
  3 32  1  0
  4 33  1  0
  5 34  1  0
  8 35  1  0
  9 36  1  0
 16 37  1  0
 17 38  1  0
 18 39  1  0
 20 40  1  0
 21 41  1  0
 27 42  1  0
 28 43  1  0
 30 44  1  0
M  END
>  <Score>  (1) 
-8.95272

$$$$
