
     RDKit          3D

 50 54  0  0  0  0  0  0  0  0999 V2000
   46.5820   34.6550   42.0250 C   0  0  0  0  0  0  0  0  0  0  0  0
   47.7800   35.2800   41.8510 C   0  0  0  0  0  0  0  0  0  0  0  0
   48.4950   35.1810   40.6330 C   0  0  0  0  0  0  0  0  0  0  0  0
   47.9320   34.4130   39.6020 C   0  0  0  0  0  0  0  0  0  0  0  0
   46.7140   33.7810   39.7860 C   0  0  0  0  0  0  0  0  0  0  0  0
   46.0610   33.9130   40.9930 C   0  0  0  0  0  0  0  0  0  0  0  0
   44.8120   33.2570   41.1670 N   0  0  0  0  0  0  0  0  0  0  0  0
   44.5930   31.9930   41.5970 C   0  0  0  0  0  0  0  0  0  0  0  0
   43.3190   31.5100   41.7090 C   0  0  0  0  0  0  0  0  0  0  0  0
   42.2310   32.2950   41.3870 C   0  0  0  0  0  0  0  0  0  0  0  0
   41.0650   31.8050   41.5060 O   0  0  0  0  0  0  0  0  0  0  0  0
   42.4730   33.5590   40.9560 N   0  0  0  0  0  0  0  0  0  0  0  0
   43.7280   34.0210   40.8520 C   0  0  0  0  0  0  0  0  0  0  0  0
   43.8250   35.2230   40.4360 O   0  0  0  0  0  0  0  0  0  0  0  0
   41.3270   34.3340   40.6350 C   0  0  0  0  0  0  0  0  0  0  0  0
   41.2930   35.6620   41.0100 C   0  0  0  0  0  0  0  0  0  0  0  0
   40.0750   36.1890   40.5820 C   0  0  0  0  0  0  0  0  0  0  0  0
   39.4160   35.1560   39.9600 N   0  0  0  0  0  0  0  0  0  0  0  0
   40.1630   34.0850   40.0020 N   0  0  0  0  0  0  0  0  0  0  0  0
   44.5040   35.9220   44.9170 C   0  0  0  0  0  0  0  0  0  0  0  0
   45.0830   35.8560   43.6490 C   0  0  0  0  0  0  0  0  0  0  0  0
   45.9240   34.8220   43.3200 C   0  0  0  0  0  0  0  0  0  0  0  0
   46.1680   33.8730   44.2730 N   0  0  0  0  0  0  0  0  0  0  0  0
   45.5910   33.9560   45.5120 C   0  0  0  0  0  0  0  0  0  0  0  0
   44.7760   34.9610   45.8240 N   0  0  0  0  0  0  0  0  0  0  0  0
   45.8770   32.9340   46.4850 N   0  0  0  0  0  0  0  0  0  0  0  0
   45.2470   32.6870   47.6450 C   0  0  0  0  0  0  0  0  0  0  0  0
   45.7010   31.6430   48.4250 C   0  0  0  0  0  0  0  0  0  0  0  0
   44.9600   31.4170   49.7060 C   0  0  0  0  0  0  0  0  0  0  0  0
   46.7710   30.8670   48.0330 C   0  0  0  0  0  0  0  0  0  0  0  0
   47.1550   29.9210   48.7750 O   0  0  0  0  0  0  0  0  0  0  0  0
   47.3580   31.1510   46.8790 N   0  0  0  0  0  0  0  0  0  0  0  0
   46.9350   32.1680   46.0950 C   0  0  0  0  0  0  0  0  0  0  0  0
   47.5910   32.3190   45.0260 O   0  0  0  0  0  0  0  0  0  0  0  0
   48.2011   35.8747   42.6750 H   0  0  0  0  0  0  0  0  0  0  0  0
   49.4610   35.6898   40.4990 H   0  0  0  0  0  0  0  0  0  0  0  0
   48.4612   34.3127   38.6429 H   0  0  0  0  0  0  0  0  0  0  0  0
   46.2720   33.1799   38.9777 H   0  0  0  0  0  0  0  0  0  0  0  0
   45.4460   31.3495   41.8583 H   0  0  0  0  0  0  0  0  0  0  0  0
   43.1589   30.4802   42.0611 H   0  0  0  0  0  0  0  0  0  0  0  0
   42.0831   36.2057   41.5486 H   0  0  0  0  0  0  0  0  0  0  0  0
   39.7155   37.2201   40.7150 H   0  0  0  0  0  0  0  0  0  0  0  0
   38.4823   35.2164   39.5294 H   0  0  0  0  0  0  0  0  0  0  0  0
   43.8302   36.7522   45.1753 H   0  0  0  0  0  0  0  0  0  0  0  0
   44.8639   36.6384   42.9075 H   0  0  0  0  0  0  0  0  0  0  0  0
   44.3919   33.3005   47.9649 H   0  0  0  0  0  0  0  0  0  0  0  0
   45.6273   31.6205   50.5564 H   0  0  0  0  0  0  0  0  0  0  0  0
   44.0921   32.0913   49.7514 H   0  0  0  0  0  0  0  0  0  0  0  0
   44.6161   30.3731   49.7514 H   0  0  0  0  0  0  0  0  0  0  0  0
   48.1587   30.5810   46.5710 H   0  0  0  0  0  0  0  0  0  0  0  0
  1 22  1  0
  2  1  2  0
  3  2  1  0
  4  5  1  0
  4  3  2  0
  5  6  2  0
  6  7  1  0
  6  1  1  0
  7  8  1  0
  8  9  2  0
 10 11  2  0
 10  9  1  0
 12 10  1  0
 13 12  1  0
 13  7  1  0
 14 13  2  0
 15 12  1  0
 15 16  1  0
 17 16  2  0
 18 19  1  0
 18 17  1  0
 19 15  2  0
 20 25  2  0
 21 20  1  0
 22 21  2  0
 22 23  1  0
 23 24  2  0
 24 25  1  0
 24 26  1  0
 26 27  1  0
 27 28  2  0
 28 29  1  0
 30 28  1  0
 30 31  2  0
 32 30  1  0
 33 26  1  0
 33 32  1  0
 34 33  2  0
  2 35  1  0
  3 36  1  0
  4 37  1  0
  5 38  1  0
  8 39  1  0
  9 40  1  0
 16 41  1  0
 17 42  1  0
 18 43  1  0
 20 44  1  0
 21 45  1  0
 27 46  1  0
 29 47  1  0
 29 48  1  0
 29 49  1  0
 32 50  1  0
M  END
>  <Score>  (1) 
-9.62882

$$$$
