
     RDKit          3D

 47 50  0  0  0  0  0  0  0  0999 V2000
   50.7290   33.0900   42.0590 C   0  0  0  0  0  0  0  0  0  0  0  0
   50.7860   31.7000   42.0700 C   0  0  0  0  0  0  0  0  0  0  0  0
   49.6790   31.0350   42.5760 C   0  0  0  0  0  0  0  0  0  0  0  0
   48.6160   31.7680   43.0280 N   0  0  0  0  0  0  0  0  0  0  0  0
   48.6030   33.1100   42.9990 C   0  0  0  0  0  0  0  0  0  0  0  0
   49.6510   33.7480   42.5190 N   0  0  0  0  0  0  0  0  0  0  0  0
   47.4300   33.7080   43.5040 N   0  0  0  0  0  0  0  0  0  0  0  0
   47.0370   33.3110   44.7370 C   0  0  0  0  0  0  0  0  0  0  0  0
   45.9050   33.8400   45.3290 C   0  0  0  0  0  0  0  0  0  0  0  0
   45.1700   34.7920   44.6400 C   0  0  0  0  0  0  0  0  0  0  0  0
   44.1400   35.2940   45.1470 O   0  0  0  0  0  0  0  0  0  0  0  0
   45.5850   35.1740   43.4030 N   0  0  0  0  0  0  0  0  0  0  0  0
   46.6890   34.6450   42.8460 C   0  0  0  0  0  0  0  0  0  0  0  0
   47.0920   34.9780   41.7110 O   0  0  0  0  0  0  0  0  0  0  0  0
   45.4970   33.3800   46.6960 C   0  0  0  0  0  0  0  0  0  0  0  0
   44.7900   36.1660   42.7150 C   0  0  0  0  0  0  0  0  0  0  0  0
   43.7650   35.4880   41.8980 C   0  0  0  0  0  0  0  0  0  0  0  0
   42.4480   35.3580   42.4640 N   0  0  0  0  0  0  0  0  0  0  0  0
   41.3060   35.5110   41.6630 C   0  0  0  0  0  0  0  0  0  0  0  0
   40.8430   36.6260   41.1810 O   0  0  0  0  0  0  0  0  0  0  0  0
   40.3340   34.4780   41.1670 C   0  0  0  0  0  0  0  0  0  0  0  0
   39.8190   33.5280   42.0420 C   0  0  0  0  0  0  0  0  0  0  0  0
   38.9570   32.6730   41.4130 N   0  0  0  0  0  0  0  0  0  0  0  0
   38.9280   33.0830   40.1380 C   0  0  0  0  0  0  0  0  0  0  0  0
   38.2560   32.6340   39.0230 C   0  0  0  0  0  0  0  0  0  0  0  0
   38.4150   33.2620   37.8070 C   0  0  0  0  0  0  0  0  0  0  0  0
   39.2620   34.3650   37.6770 C   0  0  0  0  0  0  0  0  0  0  0  0
   39.9640   34.8530   38.7830 C   0  0  0  0  0  0  0  0  0  0  0  0
   39.7370   34.1580   39.9550 C   0  0  0  0  0  0  0  0  0  0  0  0
   51.5828   33.6617   41.6662 H   0  0  0  0  0  0  0  0  0  0  0  0
   51.6654   31.1553   41.6959 H   0  0  0  0  0  0  0  0  0  0  0  0
   49.6561   29.9359   42.6133 H   0  0  0  0  0  0  0  0  0  0  0  0
   47.6274   32.5557   45.2764 H   0  0  0  0  0  0  0  0  0  0  0  0
   46.0248   33.9751   47.4558 H   0  0  0  0  0  0  0  0  0  0  0  0
   44.4115   33.5096   46.8177 H   0  0  0  0  0  0  0  0  0  0  0  0
   45.7553   32.3177   46.8177 H   0  0  0  0  0  0  0  0  0  0  0  0
   44.2997   36.8195   43.4516 H   0  0  0  0  0  0  0  0  0  0  0  0
   45.4383   36.7718   42.0648 H   0  0  0  0  0  0  0  0  0  0  0  0
   44.1328   34.4742   41.6814 H   0  0  0  0  0  0  0  0  0  0  0  0
   43.6314   36.1356   41.0190 H   0  0  0  0  0  0  0  0  0  0  0  0
   42.3427   35.1505   43.4674 H   0  0  0  0  0  0  0  0  0  0  0  0
   40.0741   33.4712   43.1105 H   0  0  0  0  0  0  0  0  0  0  0  0
   38.4416   31.8844   41.8294 H   0  0  0  0  0  0  0  0  0  0  0  0
   37.5858   31.7655   39.1040 H   0  0  0  0  0  0  0  0  0  0  0  0
   37.8683   32.8902   36.9279 H   0  0  0  0  0  0  0  0  0  0  0  0
   39.3774   34.8529   36.6979 H   0  0  0  0  0  0  0  0  0  0  0  0
   40.6407   35.7183   38.7249 H   0  0  0  0  0  0  0  0  0  0  0  0
  1  2  2  0
  1  6  1  0
  2  3  1  0
  3  4  2  0
  5  4  1  0
  5  7  1  0
  6  5  2  0
  7  8  1  0
  8  9  2  0
  9 15  1  0
 10 11  2  0
 10  9  1  0
 12 10  1  0
 13 12  1  0
 13  7  1  0
 14 13  2  0
 16 12  1  0
 17 18  1  0
 17 16  1  0
 19 18  1  0
 20 19  2  0
 21 19  1  0
 21 22  2  0
 23 22  1  0
 24 23  1  0
 25 24  2  0
 26 25  1  0
 27 26  2  0
 27 28  1  0
 28 29  2  0
 29 24  1  0
 29 21  1  0
  1 30  1  0
  2 31  1  0
  3 32  1  0
  8 33  1  0
 15 34  1  0
 15 35  1  0
 15 36  1  0
 16 37  1  0
 16 38  1  0
 17 39  1  0
 17 40  1  0
 18 41  1  0
 22 42  1  0
 23 43  1  0
 25 44  1  0
 26 45  1  0
 27 46  1  0
 28 47  1  0
M  END
>  <Score>  (1) 
-8.13622

$$$$
