
     RDKit          3D

 46 50  0  0  0  0  0  0  0  0999 V2000
   44.5050   35.8950   44.7850 C   0  0  0  0  0  0  0  0  0  0  0  0
   45.1040   35.9090   43.5460 C   0  0  0  0  0  0  0  0  0  0  0  0
   46.0170   34.9460   43.1150 C   0  0  0  0  0  0  0  0  0  0  0  0
   46.2320   34.0040   44.0940 N   0  0  0  0  0  0  0  0  0  0  0  0
   45.6650   33.9730   45.2960 C   0  0  0  0  0  0  0  0  0  0  0  0
   44.8070   34.9240   45.6170 N   0  0  0  0  0  0  0  0  0  0  0  0
   46.0060   32.9140   46.1880 N   0  0  0  0  0  0  0  0  0  0  0  0
   45.2780   32.7790   47.3300 C   0  0  0  0  0  0  0  0  0  0  0  0
   45.6220   31.7560   48.1920 C   0  0  0  0  0  0  0  0  0  0  0  0
   46.6970   30.9300   47.8330 C   0  0  0  0  0  0  0  0  0  0  0  0
   47.0330   29.9850   48.6110 O   0  0  0  0  0  0  0  0  0  0  0  0
   47.3770   31.1190   46.6840 N   0  0  0  0  0  0  0  0  0  0  0  0
   47.0180   32.1150   45.8760 C   0  0  0  0  0  0  0  0  0  0  0  0
   47.6820   32.2490   44.8220 O   0  0  0  0  0  0  0  0  0  0  0  0
   46.7500   34.8380   41.9170 C   0  0  0  0  0  0  0  0  0  0  0  0
   47.9850   35.4540   41.8840 C   0  0  0  0  0  0  0  0  0  0  0  0
   48.8470   35.4250   40.7970 C   0  0  0  0  0  0  0  0  0  0  0  0
   48.4520   34.7360   39.6770 C   0  0  0  0  0  0  0  0  0  0  0  0
   47.2150   34.0950   39.6560 C   0  0  0  0  0  0  0  0  0  0  0  0
   46.8430   33.4110   38.5330 C   0  0  0  0  0  0  0  0  0  0  0  0
   45.6150   32.7520   38.4810 C   0  0  0  0  0  0  0  0  0  0  0  0
   44.8210   32.8490   39.6320 C   0  0  0  0  0  0  0  0  0  0  0  0
   45.2420   33.5400   40.7070 C   0  0  0  0  0  0  0  0  0  0  0  0
   46.4330   34.1780   40.7660 C   0  0  0  0  0  0  0  0  0  0  0  0
   44.2110   33.5200   41.8080 C   0  0  0  0  0  0  0  0  0  0  0  0
   42.8100   34.1350   41.4740 C   0  0  0  0  0  0  0  0  0  0  0  0
   43.0020   32.7320   41.7180 C   0  0  0  0  0  0  0  0  0  0  0  0
   44.9180   31.4940   49.4470 C   0  0  0  0  0  0  0  0  0  0  0  0
   43.7893   36.6793   45.0723 H   0  0  0  0  0  0  0  0  0  0  0  0
   44.8482   36.7264   42.8558 H   0  0  0  0  0  0  0  0  0  0  0  0
   44.4452   33.4604   47.5584 H   0  0  0  0  0  0  0  0  0  0  0  0
   48.1630   30.5018   46.4347 H   0  0  0  0  0  0  0  0  0  0  0  0
   48.3075   36.0050   42.7798 H   0  0  0  0  0  0  0  0  0  0  0  0
   49.8188   35.9392   40.8316 H   0  0  0  0  0  0  0  0  0  0  0  0
   49.1111   34.6901   38.7976 H   0  0  0  0  0  0  0  0  0  0  0  0
   47.5168   33.3800   37.6641 H   0  0  0  0  0  0  0  0  0  0  0  0
   45.2899   32.1912   37.5923 H   0  0  0  0  0  0  0  0  0  0  0  0
   43.8395   32.3530   39.6568 H   0  0  0  0  0  0  0  0  0  0  0  0
   45.0009   33.6249   42.5663 H   0  0  0  0  0  0  0  0  0  0  0  0
   42.5888   34.4990   40.4598 H   0  0  0  0  0  0  0  0  0  0  0  0
   42.1749   34.9322   41.8878 H   0  0  0  0  0  0  0  0  0  0  0  0
   42.5853   32.2882   42.6342 H   0  0  0  0  0  0  0  0  0  0  0  0
   42.7423   31.8353   41.1362 H   0  0  0  0  0  0  0  0  0  0  0  0
   45.5755   31.7387   50.2942 H   0  0  0  0  0  0  0  0  0  0  0  0
   44.0113   32.1149   49.4953 H   0  0  0  0  0  0  0  0  0  0  0  0
   44.6378   30.4314   49.4953 H   0  0  0  0  0  0  0  0  0  0  0  0
  1  6  2  0
  2  1  1  0
  3  2  2  0
  3  4  1  0
  4  5  2  0
  5  6  1  0
  5  7  1  0
  7  8  1  0
  8  9  2  0
  9 28  1  0
 10  9  1  0
 10 11  2  0
 12 10  1  0
 13  7  1  0
 13 12  1  0
 14 13  2  0
 15  3  1  0
 16 15  2  0
 17 16  1  0
 18 17  2  0
 19 18  1  0
 19 24  2  0
 20 19  1  0
 21 20  2  0
 21 22  1  0
 22 23  2  0
 23 24  1  0
 23 25  1  0
 24 15  1  0
 26 27  1  0
 26 25  1  0
 27 25  1  0
  1 29  1  0
  2 30  1  0
  8 31  1  0
 12 32  1  0
 16 33  1  0
 17 34  1  0
 18 35  1  0
 20 36  1  0
 21 37  1  0
 22 38  1  0
 25 39  1  0
 26 40  1  0
 26 41  1  0
 27 42  1  0
 27 43  1  0
 28 44  1  0
 28 45  1  0
 28 46  1  0
M  END
>  <Score>  (1) 
-8.03566

$$$$
