
     RDKit          3D

 54 59  0  0  1  0  0  0  0  0999 V2000
   43.8720   35.3020   42.0000 C   0  0  0  0  0  0  0  0  0  0  0  0
   42.5460   35.6100   42.0520 C   0  0  0  0  0  0  0  0  0  0  0  0
   41.9660   34.9910   40.9740 C   0  0  0  0  0  0  0  0  0  0  0  0
   42.9740   34.3630   40.3590 N   0  0  0  0  0  0  0  0  0  0  0  0
   44.1590   34.5040   40.9200 N   0  0  0  0  0  0  0  0  0  0  0  0
   43.7810   33.9700   38.1120 N   0  0  0  0  0  0  0  0  0  0  0  0
   45.0040   33.2270   38.2720 C   0  0  0  0  0  0  0  0  0  0  0  0
   44.6820   31.9630   38.9840 C   0  0  0  0  0  0  0  0  0  0  0  0
   43.2350   32.1260   39.4180 C   0  0  0  0  0  0  0  0  0  0  0  0
   42.8540   33.5430   39.1310 C   0  0  1  0  0  0  0  0  0  0  0  0
   41.4920   33.7450   38.6290 C   0  0  0  0  0  0  0  0  0  0  0  0
   41.0190   34.8240   37.9180 C   0  0  0  0  0  0  0  0  0  0  0  0
   39.7360   34.9930   37.4430 C   0  0  0  0  0  0  0  0  0  0  0  0
   38.8150   34.0150   37.6830 C   0  0  0  0  0  0  0  0  0  0  0  0
   39.2220   32.9060   38.3920 C   0  0  0  0  0  0  0  0  0  0  0  0
   38.2480   31.9490   38.6070 C   0  0  0  0  0  0  0  0  0  0  0  0
   38.5390   30.8040   39.3010 C   0  0  0  0  0  0  0  0  0  0  0  0
   39.8200   30.6430   39.7710 C   0  0  0  0  0  0  0  0  0  0  0  0
   40.7510   31.6060   39.5400 C   0  0  0  0  0  0  0  0  0  0  0  0
   40.5350   32.7800   38.8520 C   0  0  0  0  0  0  0  0  0  0  0  0
   44.8760   35.7670   42.9780 C   0  0  0  0  0  0  0  0  0  0  0  0
   45.3730   36.8910   42.8560 O   0  0  0  0  0  0  0  0  0  0  0  0
   44.6290   35.1100   45.2870 C   0  0  0  0  0  0  0  0  0  0  0  0
   45.2740   34.9140   44.0710 C   0  0  0  0  0  0  0  0  0  0  0  0
   46.2270   33.9500   43.9810 C   0  0  0  0  0  0  0  0  0  0  0  0
   46.5150   33.2080   45.0900 N   0  0  0  0  0  0  0  0  0  0  0  0
   45.8950   33.3920   46.2650 C   0  0  0  0  0  0  0  0  0  0  0  0
   44.9330   34.3600   46.3680 N   0  0  0  0  0  0  0  0  0  0  0  0
   46.3040   32.5480   47.3090 N   0  0  0  0  0  0  0  0  0  0  0  0
   47.4070   31.8960   47.6140 N   0  0  0  0  0  0  0  0  0  0  0  0
   47.2310   31.2100   48.7860 C   0  0  0  0  0  0  0  0  0  0  0  0
   45.9470   31.4630   49.2130 C   0  0  0  0  0  0  0  0  0  0  0  0
   45.3800   32.3220   48.2450 C   0  0  0  0  0  0  0  0  0  0  0  0
   42.0415   36.2307   42.8071 H   0  0  0  0  0  0  0  0  0  0  0  0
   40.9061   35.0075   40.6803 H   0  0  0  0  0  0  0  0  0  0  0  0
   43.9699   34.9774   38.2133 H   0  0  0  0  0  0  0  0  0  0  0  0
   45.4354   33.0007   37.2857 H   0  0  0  0  0  0  0  0  0  0  0  0
   45.7360   33.8139   38.8462 H   0  0  0  0  0  0  0  0  0  0  0  0
   44.7908   31.0996   38.3111 H   0  0  0  0  0  0  0  0  0  0  0  0
   45.3548   31.7802   39.8348 H   0  0  0  0  0  0  0  0  0  0  0  0
   42.5901   31.4384   38.8512 H   0  0  0  0  0  0  0  0  0  0  0  0
   43.1153   31.8942   40.4866 H   0  0  0  0  0  0  0  0  0  0  0  0
   41.7356   35.6316   37.7079 H   0  0  0  0  0  0  0  0  0  0  0  0
   39.4601   35.8980   36.8818 H   0  0  0  0  0  0  0  0  0  0  0  0
   37.7803   34.1091   37.3218 H   0  0  0  0  0  0  0  0  0  0  0  0
   37.2314   32.1079   38.2179 H   0  0  0  0  0  0  0  0  0  0  0  0
   37.7704   30.0369   39.4766 H   0  0  0  0  0  0  0  0  0  0  0  0
   40.0914   29.7371   40.3328 H   0  0  0  0  0  0  0  0  0  0  0  0
   41.7627   31.4334   39.9359 H   0  0  0  0  0  0  0  0  0  0  0  0
   43.8575   35.8897   45.3699 H   0  0  0  0  0  0  0  0  0  0  0  0
   46.7560   33.7709   43.0333 H   0  0  0  0  0  0  0  0  0  0  0  0
   47.9751   30.5764   49.2909 H   0  0  0  0  0  0  0  0  0  0  0  0
   45.4620   31.0759   50.1213 H   0  0  0  0  0  0  0  0  0  0  0  0
   44.3591   32.7314   48.2602 H   0  0  0  0  0  0  0  0  0  0  0  0
  1  2  1  0
  1 21  1  0
  3  2  2  0
  4  5  1  0
  4  3  1  0
  5  1  2  0
  6  7  1  0
  6 10  1  0
  7  8  1  0
  8  9  1  0
 10 11  1  0
 10  9  1  0
 10  4  1  1
 11 20  1  0
 12 11  2  0
 13 14  2  0
 13 12  1  0
 14 15  1  0
 15 16  1  0
 15 20  2  0
 16 17  2  0
 17 18  1  0
 19 18  2  0
 20 19  1  0
 21 24  1  0
 22 21  2  0
 23 28  2  0
 24 23  1  0
 25 24  2  0
 25 26  1  0
 26 27  2  0
 27 28  1  0
 27 29  1  0
 29 30  1  0
 29 33  1  0
 30 31  2  0
 31 32  1  0
 33 32  2  0
  2 34  1  0
  3 35  1  0
  6 36  1  0
  7 37  1  0
  7 38  1  0
  8 39  1  0
  8 40  1  0
  9 41  1  0
  9 42  1  0
 12 43  1  0
 13 44  1  0
 14 45  1  0
 16 46  1  0
 17 47  1  0
 18 48  1  0
 19 49  1  0
 23 50  1  0
 25 51  1  0
 31 52  1  0
 32 53  1  0
 33 54  1  0
M  END
>  <Score>  (1) 
-8.08822

$$$$
