
     RDKit          3D

 51 56  0  0  0  0  0  0  0  0999 V2000
   46.6790   34.6510   41.9560 C   0  0  0  0  0  0  0  0  0  0  0  0
   48.0100   34.9530   41.6770 C   0  0  0  0  0  0  0  0  0  0  0  0
   48.1530   34.5810   40.3440 C   0  0  0  0  0  0  0  0  0  0  0  0
   46.9150   34.0810   39.9030 C   0  0  0  0  0  0  0  0  0  0  0  0
   46.0870   34.1520   40.9130 O   0  0  0  0  0  0  0  0  0  0  0  0
   44.5190   36.0960   44.6220 C   0  0  0  0  0  0  0  0  0  0  0  0
   45.1810   35.9380   43.3630 C   0  0  0  0  0  0  0  0  0  0  0  0
   45.9920   34.8440   43.2220 C   0  0  0  0  0  0  0  0  0  0  0  0
   46.1190   33.9840   44.2670 N   0  0  0  0  0  0  0  0  0  0  0  0
   45.4870   34.1570   45.4330 C   0  0  0  0  0  0  0  0  0  0  0  0
   44.6810   35.2140   45.6230 N   0  0  0  0  0  0  0  0  0  0  0  0
   45.7310   33.1550   46.4320 N   0  0  0  0  0  0  0  0  0  0  0  0
   45.1520   33.1380   47.6350 N   0  0  0  0  0  0  0  0  0  0  0  0
   45.5690   32.0910   48.3470 C   0  0  0  0  0  0  0  0  0  0  0  0
   46.4690   31.3860   47.5620 C   0  0  0  0  0  0  0  0  0  0  0  0
   46.5690   32.0680   46.3430 C   0  0  0  0  0  0  0  0  0  0  0  0
   46.6650   33.6010   38.6010 N   0  0  0  0  0  0  0  0  0  0  0  0
   45.5390   32.8850   38.4120 C   0  0  0  0  0  0  0  0  0  0  0  0
   45.2200   32.3750   37.1800 C   0  0  0  0  0  0  0  0  0  0  0  0
   46.0780   32.6100   36.1280 C   0  0  0  0  0  0  0  0  0  0  0  0
   45.7790   32.1360   34.9900 O   0  0  0  0  0  0  0  0  0  0  0  0
   47.1910   33.3330   36.3690 N   0  0  0  0  0  0  0  0  0  0  0  0
   47.4860   33.8280   37.5960 C   0  0  0  0  0  0  0  0  0  0  0  0
   48.5290   34.4870   37.7480 O   0  0  0  0  0  0  0  0  0  0  0  0
   43.9650   31.5870   37.0540 C   0  0  0  0  0  0  0  0  0  0  0  0
   43.3770   31.3700   38.4200 C   0  0  0  0  0  0  0  0  0  0  0  0
   43.6500   30.3860   39.3630 C   0  0  0  0  0  0  0  0  0  0  0  0
   42.8300   30.6730   40.4040 N   0  0  0  0  0  0  0  0  0  0  0  0
   42.0860   31.7610   40.1460 C   0  0  0  0  0  0  0  0  0  0  0  0
   41.1300   32.4340   40.8790 C   0  0  0  0  0  0  0  0  0  0  0  0
   40.5210   33.5410   40.3640 C   0  0  0  0  0  0  0  0  0  0  0  0
   40.8080   34.0480   39.1190 C   0  0  0  0  0  0  0  0  0  0  0  0
   41.7760   33.3600   38.3870 C   0  0  0  0  0  0  0  0  0  0  0  0
   42.4100   32.2320   38.8880 C   0  0  0  0  0  0  0  0  0  0  0  0
   48.7669   35.3828   42.3497 H   0  0  0  0  0  0  0  0  0  0  0  0
   49.0704   34.6633   39.7427 H   0  0  0  0  0  0  0  0  0  0  0  0
   43.8595   36.9631   44.7745 H   0  0  0  0  0  0  0  0  0  0  0  0
   45.0445   36.6621   42.5463 H   0  0  0  0  0  0  0  0  0  0  0  0
   45.2565   31.8334   49.3697 H   0  0  0  0  0  0  0  0  0  0  0  0
   47.0027   30.4662   47.8433 H   0  0  0  0  0  0  0  0  0  0  0  0
   47.1952   31.7890   45.4827 H   0  0  0  0  0  0  0  0  0  0  0  0
   44.8636   32.7065   39.2617 H   0  0  0  0  0  0  0  0  0  0  0  0
   47.8412   33.5158   35.5914 H   0  0  0  0  0  0  0  0  0  0  0  0
   43.2470   32.1367   36.4277 H   0  0  0  0  0  0  0  0  0  0  0  0
   44.1847   30.6150   36.5882 H   0  0  0  0  0  0  0  0  0  0  0  0
   44.3706   29.5588   39.2826 H   0  0  0  0  0  0  0  0  0  0  0  0
   42.7838   30.1286   41.2772 H   0  0  0  0  0  0  0  0  0  0  0  0
   40.8577   32.0764   41.8830 H   0  0  0  0  0  0  0  0  0  0  0  0
   39.7631   34.0529   40.9751 H   0  0  0  0  0  0  0  0  0  0  0  0
   40.3046   34.9426   38.7236 H   0  0  0  0  0  0  0  0  0  0  0  0
   42.0444   33.7222   37.3836 H   0  0  0  0  0  0  0  0  0  0  0  0
  1  8  1  0
  2  1  2  0
  3  2  1  0
  4  3  2  0
  4  5  1  0
  5  1  1  0
  6 11  2  0
  7  6  1  0
  8  7  2  0
  8  9  1  0
  9 10  2  0
 10 11  1  0
 10 12  1  0
 12 13  1  0
 13 14  2  0
 15 14  1  0
 16 12  1  0
 16 15  2  0
 17  4  1  0
 18 17  1  0
 19 18  2  0
 20 22  1  0
 20 19  1  0
 21 20  2  0
 22 23  1  0
 23 24  2  0
 23 17  1  0
 25 19  1  0
 25 26  1  0
 26 34  1  0
 26 27  2  0
 27 28  1  0
 29 28  1  0
 29 30  2  0
 31 30  1  0
 32 31  2  0
 33 34  2  0
 33 32  1  0
 34 29  1  0
  2 35  1  0
  3 36  1  0
  6 37  1  0
  7 38  1  0
 14 39  1  0
 15 40  1  0
 16 41  1  0
 18 42  1  0
 22 43  1  0
 25 44  1  0
 25 45  1  0
 27 46  1  0
 28 47  1  0
 30 48  1  0
 31 49  1  0
 32 50  1  0
 33 51  1  0
M  END
>  <Score>  (1) 
-7.89274

$$$$
