
     RDKit          3D

 44 48  0  0  0  0  0  0  0  0999 V2000
   45.2350   34.1450   45.6350 C   0  0  0  0  0  0  0  0  0  0  0  0
   45.6900   34.4350   44.3310 C   0  0  0  0  0  0  0  0  0  0  0  0
   46.8370   33.7780   43.8460 C   0  0  0  0  0  0  0  0  0  0  0  0
   47.4680   32.8770   44.6700 N   0  0  0  0  0  0  0  0  0  0  0  0
   47.0000   32.6260   45.9140 C   0  0  0  0  0  0  0  0  0  0  0  0
   45.9070   33.2460   46.3880 N   0  0  0  0  0  0  0  0  0  0  0  0
   47.3190   34.0710   42.5020 C   0  0  0  0  0  0  0  0  0  0  0  0
   48.2390   35.1050   42.4460 C   0  0  0  0  0  0  0  0  0  0  0  0
   48.8000   35.5210   41.2590 C   0  0  0  0  0  0  0  0  0  0  0  0
   48.4460   34.8910   40.0640 C   0  0  0  0  0  0  0  0  0  0  0  0
   47.5340   33.8710   40.1500 C   0  0  0  0  0  0  0  0  0  0  0  0
   46.9650   33.4460   41.3340 C   0  0  0  0  0  0  0  0  0  0  0  0
   44.8040   35.6230   43.3300 S   0  0  0  0  0  0  0  0  0  0  0  0
   42.6710   33.3150   41.0740 N   0  0  0  0  0  0  0  0  0  0  0  0
   43.4920   33.4910   42.0670 N   0  0  0  0  0  0  0  0  0  0  0  0
   43.7600   34.8240   42.1700 C   0  0  0  0  0  0  0  0  0  0  0  0
   43.0400   35.3730   41.1750 C   0  0  0  0  0  0  0  0  0  0  0  0
   42.3200   34.4320   40.4390 C   0  0  0  0  0  0  0  0  0  0  0  0
   41.5530   34.8160   39.3040 C   0  0  0  0  0  0  0  0  0  0  0  0
   42.0180   35.8500   38.4980 C   0  0  0  0  0  0  0  0  0  0  0  0
   41.3960   36.3190   37.3740 C   0  0  0  0  0  0  0  0  0  0  0  0
   40.2170   35.7580   36.9620 C   0  0  0  0  0  0  0  0  0  0  0  0
   39.7000   34.7300   37.7060 C   0  0  0  0  0  0  0  0  0  0  0  0
   38.5290   34.1550   37.2680 C   0  0  0  0  0  0  0  0  0  0  0  0
   37.9610   33.0940   37.9480 C   0  0  0  0  0  0  0  0  0  0  0  0
   38.6400   32.6520   39.0850 C   0  0  0  0  0  0  0  0  0  0  0  0
   39.7890   33.2670   39.4590 C   0  0  0  0  0  0  0  0  0  0  0  0
   40.3890   34.3210   38.8220 C   0  0  0  0  0  0  0  0  0  0  0  0
   44.3413   34.6462   46.0351 H   0  0  0  0  0  0  0  0  0  0  0  0
   47.5255   31.8990   46.5506 H   0  0  0  0  0  0  0  0  0  0  0  0
   48.5307   35.6097   43.3789 H   0  0  0  0  0  0  0  0  0  0  0  0
   49.5255   36.3478   41.2522 H   0  0  0  0  0  0  0  0  0  0  0  0
   48.8781   35.1983   39.1002 H   0  0  0  0  0  0  0  0  0  0  0  0
   47.2382   33.3613   39.2212 H   0  0  0  0  0  0  0  0  0  0  0  0
   46.2394   32.6193   41.3402 H   0  0  0  0  0  0  0  0  0  0  0  0
   42.3202   32.3860   40.8004 H   0  0  0  0  0  0  0  0  0  0  0  0
   43.0211   36.4523   40.9637 H   0  0  0  0  0  0  0  0  0  0  0  0
   42.9641   36.3300   38.7887 H   0  0  0  0  0  0  0  0  0  0  0  0
   41.8423   37.1457   36.8018 H   0  0  0  0  0  0  0  0  0  0  0  0
   39.7006   36.1214   36.0613 H   0  0  0  0  0  0  0  0  0  0  0  0
   38.0381   34.5451   36.3642 H   0  0  0  0  0  0  0  0  0  0  0  0
   37.0252   32.6237   37.6117 H   0  0  0  0  0  0  0  0  0  0  0  0
   38.2455   31.8105   39.6734 H   0  0  0  0  0  0  0  0  0  0  0  0
   40.2875   32.8825   40.3610 H   0  0  0  0  0  0  0  0  0  0  0  0
  1  6  2  0
  2  1  1  0
  3  2  2  0
  3  4  1  0
  4  5  2  0
  5  6  1  0
  7  3  1  0
  8  7  2  0
  9  8  1  0
 10 11  1  0
 10  9  2  0
 11 12  2  0
 12  7  1  0
 13  2  1  0
 14 15  1  0
 15 16  2  0
 16 13  1  0
 17 16  1  0
 18 14  1  0
 18 17  2  0
 19 18  1  0
 20 19  2  0
 21 20  1  0
 22 21  2  0
 22 23  1  0
 23 28  2  0
 24 23  1  0
 24 25  2  0
 25 26  1  0
 26 27  2  0
 28 19  1  0
 28 27  1  0
  1 29  1  0
  5 30  1  0
  8 31  1  0
  9 32  1  0
 10 33  1  0
 11 34  1  0
 12 35  1  0
 14 36  1  0
 17 37  1  0
 20 38  1  0
 21 39  1  0
 22 40  1  0
 24 41  1  0
 25 42  1  0
 26 43  1  0
 27 44  1  0
M  END
>  <Score>  (1) 
-7.68187

$$$$
