
     RDKit          3D

 52 57  0  0  1  0  0  0  0  0999 V2000
   43.9580   35.3010   42.1950 C   0  0  0  0  0  0  0  0  0  0  0  0
   42.5960   35.4390   42.3210 C   0  0  0  0  0  0  0  0  0  0  0  0
   42.0390   34.8870   41.1890 C   0  0  0  0  0  0  0  0  0  0  0  0
   43.0870   34.4620   40.4730 N   0  0  0  0  0  0  0  0  0  0  0  0
   44.2680   34.6830   41.0280 N   0  0  0  0  0  0  0  0  0  0  0  0
   44.2670   33.9730   38.4120 N   0  0  0  0  0  0  0  0  0  0  0  0
   45.1390   32.8450   38.7240 C   0  0  0  0  0  0  0  0  0  0  0  0
   44.2740   31.7130   39.1950 C   0  0  0  0  0  0  0  0  0  0  0  0
   42.8960   32.3050   39.3280 C   0  0  0  0  0  0  0  0  0  0  0  0
   43.0720   33.7860   39.1570 C   0  0  1  0  0  0  0  0  0  0  0  0
   41.9500   34.4230   38.4190 C   0  0  0  0  0  0  0  0  0  0  0  0
   41.7830   35.6030   37.7290 C   0  0  0  0  0  0  0  0  0  0  0  0
   40.5290   35.6760   37.2450 N   0  0  0  0  0  0  0  0  0  0  0  0
   39.8770   34.5370   37.6220 C   0  0  0  0  0  0  0  0  0  0  0  0
   38.5500   34.2070   37.3280 C   0  0  0  0  0  0  0  0  0  0  0  0
   38.1110   32.9790   37.8280 C   0  0  0  0  0  0  0  0  0  0  0  0
   38.9320   32.1490   38.5630 C   0  0  0  0  0  0  0  0  0  0  0  0
   40.2330   32.5240   38.8240 C   0  0  0  0  0  0  0  0  0  0  0  0
   40.7350   33.7400   38.3520 C   0  0  0  0  0  0  0  0  0  0  0  0
   44.9150   35.7670   43.2020 C   0  0  0  0  0  0  0  0  0  0  0  0
   45.3770   36.9100   43.1340 O   0  0  0  0  0  0  0  0  0  0  0  0
   44.6560   35.0260   45.4900 C   0  0  0  0  0  0  0  0  0  0  0  0
   45.3210   34.8930   44.2720 C   0  0  0  0  0  0  0  0  0  0  0  0
   46.3070   33.9500   44.1650 C   0  0  0  0  0  0  0  0  0  0  0  0
   46.6000   33.1820   45.2500 N   0  0  0  0  0  0  0  0  0  0  0  0
   45.9680   33.3060   46.4140 C   0  0  0  0  0  0  0  0  0  0  0  0
   44.9760   34.2430   46.5430 N   0  0  0  0  0  0  0  0  0  0  0  0
   46.3840   32.4370   47.4470 N   0  0  0  0  0  0  0  0  0  0  0  0
   47.4970   31.8120   47.7430 N   0  0  0  0  0  0  0  0  0  0  0  0
   47.3290   31.0840   48.8900 C   0  0  0  0  0  0  0  0  0  0  0  0
   46.0330   31.2860   49.3060 C   0  0  0  0  0  0  0  0  0  0  0  0
   45.4500   32.1590   48.3600 C   0  0  0  0  0  0  0  0  0  0  0  0
   42.0567   35.9001   43.1615 H   0  0  0  0  0  0  0  0  0  0  0  0
   40.9723   34.8121   40.9311 H   0  0  0  0  0  0  0  0  0  0  0  0
   44.7198   34.8572   38.6841 H   0  0  0  0  0  0  0  0  0  0  0  0
   45.6950   32.5419   37.8246 H   0  0  0  0  0  0  0  0  0  0  0  0
   45.8643   33.1239   39.5025 H   0  0  0  0  0  0  0  0  0  0  0  0
   44.2740   30.8947   38.4599 H   0  0  0  0  0  0  0  0  0  0  0  0
   44.6331   31.2851   40.1426 H   0  0  0  0  0  0  0  0  0  0  0  0
   42.2301   31.9054   38.5490 H   0  0  0  0  0  0  0  0  0  0  0  0
   42.4406   32.0596   40.2988 H   0  0  0  0  0  0  0  0  0  0  0  0
   42.5585   36.3712   37.5936 H   0  0  0  0  0  0  0  0  0  0  0  0
   40.1336   36.4495   36.6916 H   0  0  0  0  0  0  0  0  0  0  0  0
   37.8961   34.8700   36.7424 H   0  0  0  0  0  0  0  0  0  0  0  0
   37.0763   32.6632   37.6291 H   0  0  0  0  0  0  0  0  0  0  0  0
   38.5493   31.1893   38.9404 H   0  0  0  0  0  0  0  0  0  0  0  0
   40.8833   31.8584   39.4105 H   0  0  0  0  0  0  0  0  0  0  0  0
   43.8604   35.7783   45.5948 H   0  0  0  0  0  0  0  0  0  0  0  0
   46.8528   33.8151   43.2195 H   0  0  0  0  0  0  0  0  0  0  0  0
   48.0856   30.4572   49.3847 H   0  0  0  0  0  0  0  0  0  0  0  0
   45.5489   30.8552   50.1948 H   0  0  0  0  0  0  0  0  0  0  0  0
   44.4179   32.5392   48.3732 H   0  0  0  0  0  0  0  0  0  0  0  0
  1  2  1  0
  1 20  1  0
  3  2  2  0
  4  5  1  0
  4  3  1  0
  5  1  2  0
  6  7  1  0
  6 10  1  0
  7  8  1  0
  8  9  1  0
 10 11  1  0
 10  9  1  0
 10  4  1  1
 12 11  2  0
 13 14  1  0
 13 12  1  0
 14 19  2  0
 15 14  1  0
 15 16  2  0
 16 17  1  0
 17 18  2  0
 19 11  1  0
 19 18  1  0
 20 23  1  0
 21 20  2  0
 22 27  2  0
 23 22  1  0
 24 23  2  0
 24 25  1  0
 25 26  2  0
 26 27  1  0
 26 28  1  0
 28 29  1  0
 28 32  1  0
 29 30  2  0
 30 31  1  0
 32 31  2  0
  2 33  1  0
  3 34  1  0
  6 35  1  0
  7 36  1  0
  7 37  1  0
  8 38  1  0
  8 39  1  0
  9 40  1  0
  9 41  1  0
 12 42  1  0
 13 43  1  0
 15 44  1  0
 16 45  1  0
 17 46  1  0
 18 47  1  0
 22 48  1  0
 24 49  1  0
 30 50  1  0
 31 51  1  0
 32 52  1  0
M  END
>  <Score>  (1) 
-7.94795

$$$$
