
     RDKit          3D

 40 43  0  0  0  0  0  0  0  0999 V2000
   46.8030   34.7610   42.1450 C   0  0  0  0  0  0  0  0  0  0  0  0
   48.0200   35.4210   42.0820 C   0  0  0  0  0  0  0  0  0  0  0  0
   48.8320   35.4450   40.9690 C   0  0  0  0  0  0  0  0  0  0  0  0
   48.4310   34.7800   39.8400 C   0  0  0  0  0  0  0  0  0  0  0  0
   47.2360   34.1040   39.8330 C   0  0  0  0  0  0  0  0  0  0  0  0
   46.8180   33.4350   38.6990 C   0  0  0  0  0  0  0  0  0  0  0  0
   45.6210   32.7500   38.6460 C   0  0  0  0  0  0  0  0  0  0  0  0
   44.8680   32.7790   39.8070 C   0  0  0  0  0  0  0  0  0  0  0  0
   45.2980   33.4430   40.9120 C   0  0  0  0  0  0  0  0  0  0  0  0
   46.4760   34.1220   40.9730 C   0  0  0  0  0  0  0  0  0  0  0  0
   44.5250   35.6430   45.0790 C   0  0  0  0  0  0  0  0  0  0  0  0
   45.1480   35.7550   43.8390 C   0  0  0  0  0  0  0  0  0  0  0  0
   46.0720   34.8240   43.3820 C   0  0  0  0  0  0  0  0  0  0  0  0
   46.2950   33.8080   44.2680 N   0  0  0  0  0  0  0  0  0  0  0  0
   45.7080   33.6870   45.4530 C   0  0  0  0  0  0  0  0  0  0  0  0
   44.8340   34.5950   45.8520 N   0  0  0  0  0  0  0  0  0  0  0  0
   46.0240   32.5790   46.2910 N   0  0  0  0  0  0  0  0  0  0  0  0
   46.4170   31.2910   45.7480 C   0  0  0  0  0  0  0  0  0  0  0  0
   46.0650   30.2800   46.8230 C   0  0  0  0  0  0  0  0  0  0  0  0
   44.7670   30.6250   47.3910 N   0  0  0  0  0  0  0  0  0  0  0  0
   44.8740   31.7810   48.2490 C   0  0  0  0  0  0  0  0  0  0  0  0
   45.9560   32.7110   47.7360 C   0  0  0  0  0  0  0  0  0  0  0  0
   48.3597   35.9605   42.9784 H   0  0  0  0  0  0  0  0  0  0  0  0
   49.7875   35.9897   40.9865 H   0  0  0  0  0  0  0  0  0  0  0  0
   49.0651   34.7877   38.9412 H   0  0  0  0  0  0  0  0  0  0  0  0
   47.4617   33.4487   37.8071 H   0  0  0  0  0  0  0  0  0  0  0  0
   45.2882   32.2174   37.7429 H   0  0  0  0  0  0  0  0  0  0  0  0
   43.9019   32.2539   39.8358 H   0  0  0  0  0  0  0  0  0  0  0  0
   44.6584   33.4310   41.8069 H   0  0  0  0  0  0  0  0  0  0  0  0
   43.7974   36.3966   45.4148 H   0  0  0  0  0  0  0  0  0  0  0  0
   44.8992   36.6129   43.1971 H   0  0  0  0  0  0  0  0  0  0  0  0
   45.8628   31.0778   44.8220 H   0  0  0  0  0  0  0  0  0  0  0  0
   47.4865   31.2625   45.4922 H   0  0  0  0  0  0  0  0  0  0  0  0
   46.0190   29.2733   46.3820 H   0  0  0  0  0  0  0  0  0  0  0  0
   46.8317   30.2933   47.6117 H   0  0  0  0  0  0  0  0  0  0  0  0
   44.1081   30.8315   46.6268 H   0  0  0  0  0  0  0  0  0  0  0  0
   43.9121   32.3144   48.2628 H   0  0  0  0  0  0  0  0  0  0  0  0
   45.1337   31.4522   49.2661 H   0  0  0  0  0  0  0  0  0  0  0  0
   46.9240   32.4363   48.1805 H   0  0  0  0  0  0  0  0  0  0  0  0
   45.7238   33.7505   48.0109 H   0  0  0  0  0  0  0  0  0  0  0  0
  1 13  1  0
  2  1  2  0
  3  2  1  0
  4  3  2  0
  5  4  1  0
  5 10  2  0
  6  5  1  0
  7  6  2  0
  7  8  1  0
  8  9  2  0
  9 10  1  0
 10  1  1  0
 11 16  2  0
 12 11  1  0
 13 12  2  0
 13 14  1  0
 14 15  2  0
 15 16  1  0
 15 17  1  0
 17 22  1  0
 18 17  1  0
 18 19  1  0
 19 20  1  0
 20 21  1  0
 22 21  1  0
  2 23  1  0
  3 24  1  0
  4 25  1  0
  6 26  1  0
  7 27  1  0
  8 28  1  0
  9 29  1  0
 11 30  1  0
 12 31  1  0
 18 32  1  0
 18 33  1  0
 19 34  1  0
 19 35  1  0
 20 36  1  0
 21 37  1  0
 21 38  1  0
 22 39  1  0
 22 40  1  0
M  END
>  <Score>  (1) 
-7.20243

$$$$
