
     RDKit          3D

 40 43  0  0  0  0  0  0  0  0999 V2000
   46.4180   34.6810   42.1690 C   0  0  0  0  0  0  0  0  0  0  0  0
   47.7290   35.0340   42.0280 C   0  0  0  0  0  0  0  0  0  0  0  0
   48.4360   34.8200   40.8480 C   0  0  0  0  0  0  0  0  0  0  0  0
   47.7880   34.2170   39.7530 C   0  0  0  0  0  0  0  0  0  0  0  0
   46.4710   33.8620   39.8950 C   0  0  0  0  0  0  0  0  0  0  0  0
   45.8070   34.0980   41.0970 C   0  0  0  0  0  0  0  0  0  0  0  0
   44.4440   33.7140   41.1970 N   0  0  0  0  0  0  0  0  0  0  0  0
   43.6230   34.6530   40.6260 C   0  0  0  0  0  0  0  0  0  0  0  0
   42.2450   34.4800   40.6120 C   0  0  0  0  0  0  0  0  0  0  0  0
   41.7370   33.3260   41.1930 C   0  0  0  0  0  0  0  0  0  0  0  0
   40.4990   33.1070   41.2140 O   0  0  0  0  0  0  0  0  0  0  0  0
   42.5790   32.4340   41.7400 N   0  0  0  0  0  0  0  0  0  0  0  0
   43.9050   32.6140   41.7470 C   0  0  0  0  0  0  0  0  0  0  0  0
   44.7550   31.8390   42.2320 O   0  0  0  0  0  0  0  0  0  0  0  0
   41.3250   35.4780   40.0010 C   0  0  0  0  0  0  0  0  0  0  0  0
   44.3820   36.1820   44.9550 C   0  0  0  0  0  0  0  0  0  0  0  0
   44.9530   36.0450   43.6890 C   0  0  0  0  0  0  0  0  0  0  0  0
   45.7630   34.9460   43.4380 C   0  0  0  0  0  0  0  0  0  0  0  0
   45.9500   34.0740   44.4350 N   0  0  0  0  0  0  0  0  0  0  0  0
   45.3870   34.2190   45.6610 C   0  0  0  0  0  0  0  0  0  0  0  0
   44.5990   35.2870   45.9090 N   0  0  0  0  0  0  0  0  0  0  0  0
   45.6830   33.1860   46.6480 C   0  0  0  0  0  0  0  0  0  0  0  0
   46.8150   32.4210   46.4810 C   0  0  0  0  0  0  0  0  0  0  0  0
   46.8670   31.5190   47.5460 C   0  0  0  0  0  0  0  0  0  0  0  0
   45.7330   31.8090   48.3030 C   0  0  0  0  0  0  0  0  0  0  0  0
   45.0610   32.8010   47.7370 O   0  0  0  0  0  0  0  0  0  0  0  0
   48.2456   35.5046   42.8775 H   0  0  0  0  0  0  0  0  0  0  0  0
   49.4917   35.1194   40.7717 H   0  0  0  0  0  0  0  0  0  0  0  0
   48.3235   34.0356   38.8094 H   0  0  0  0  0  0  0  0  0  0  0  0
   45.9371   33.3895   39.0573 H   0  0  0  0  0  0  0  0  0  0  0  0
   44.0617   35.5545   40.1734 H   0  0  0  0  0  0  0  0  0  0  0  0
   42.1907   31.5819   42.1690 H   0  0  0  0  0  0  0  0  0  0  0  0
   40.8098   36.0368   40.7962 H   0  0  0  0  0  0  0  0  0  0  0  0
   41.9030   36.1761   39.3776 H   0  0  0  0  0  0  0  0  0  0  0  0
   40.5823   34.9586   39.3776 H   0  0  0  0  0  0  0  0  0  0  0  0
   43.7393   37.0495   45.1656 H   0  0  0  0  0  0  0  0  0  0  0  0
   44.7648   36.7934   42.9052 H   0  0  0  0  0  0  0  0  0  0  0  0
   47.5434   32.5045   45.6610 H   0  0  0  0  0  0  0  0  0  0  0  0
   47.6308   30.7524   47.7431 H   0  0  0  0  0  0  0  0  0  0  0  0
   45.4405   31.2929   49.2293 H   0  0  0  0  0  0  0  0  0  0  0  0
  1 18  1  0
  2  1  2  0
  3  2  1  0
  4  5  1  0
  4  3  2  0
  5  6  2  0
  6  7  1  0
  6  1  1  0
  7 13  1  0
  8  7  1  0
  9  8  2  0
  9 10  1  0
 10 11  2  0
 10 12  1  0
 12 13  1  0
 13 14  2  0
 15  9  1  0
 16 21  2  0
 17 16  1  0
 18 17  2  0
 18 19  1  0
 19 20  2  0
 20 21  1  0
 20 22  1  0
 22 26  1  0
 23 22  2  0
 23 24  1  0
 24 25  2  0
 26 25  1  0
  2 27  1  0
  3 28  1  0
  4 29  1  0
  5 30  1  0
  8 31  1  0
 12 32  1  0
 15 33  1  0
 15 34  1  0
 15 35  1  0
 16 36  1  0
 17 37  1  0
 23 38  1  0
 24 39  1  0
 25 40  1  0
M  END
>  <Score>  (1) 
-7.47261

$$$$
