
     RDKit          3D

 47 51  0  0  1  0  0  0  0  0999 V2000
   44.4110   35.9360   44.7370 C   0  0  0  0  0  0  0  0  0  0  0  0
   44.9980   35.7670   43.4700 C   0  0  0  0  0  0  0  0  0  0  0  0
   45.8890   34.7190   43.2930 C   0  0  0  0  0  0  0  0  0  0  0  0
   46.1470   33.9160   44.3450 N   0  0  0  0  0  0  0  0  0  0  0  0
   45.5600   34.1110   45.5540 C   0  0  0  0  0  0  0  0  0  0  0  0
   44.6990   35.1080   45.7620 N   0  0  0  0  0  0  0  0  0  0  0  0
   45.9170   33.1740   46.6290 C   0  0  0  0  0  0  0  0  0  0  0  0
   45.0440   32.9580   47.6690 C   0  0  0  0  0  0  0  0  0  0  0  0
   45.6020   32.0480   48.5360 C   0  0  0  0  0  0  0  0  0  0  0  0
   46.7970   31.7340   48.0040 N   0  0  0  0  0  0  0  0  0  0  0  0
   46.9890   32.4020   46.8700 N   0  0  0  0  0  0  0  0  0  0  0  0
   49.1250   29.1110   48.7460 N   0  0  0  0  0  0  0  0  0  0  0  0
   48.0260   29.5220   48.1320 N   0  0  0  0  0  0  0  0  0  0  0  0
   47.8400   30.8520   48.4290 C   0  0  0  0  0  0  0  0  0  0  0  0
   48.8620   31.2470   49.2480 C   0  0  0  0  0  0  0  0  0  0  0  0
   49.6520   30.1500   49.4340 C   0  0  0  0  0  0  0  0  0  0  0  0
   46.5460   34.4750   41.9930 C   0  0  0  0  0  0  0  0  0  0  0  0
   47.7640   35.3570   41.9200 C   0  0  0  0  0  0  0  0  0  0  0  0
   49.0170   34.7060   41.4810 C   0  0  1  0  0  0  0  0  0  0  0  0
   50.0920   34.5070   42.5260 C   0  0  0  0  0  0  0  0  0  0  0  0
   49.3790   33.3320   41.9060 C   0  0  2  0  0  0  0  0  0  0  0  0
   50.2060   32.4440   41.0940 C   0  0  0  0  0  0  0  0  0  0  0  0
   49.6850   31.9090   39.9340 C   0  0  0  0  0  0  0  0  0  0  0  0
   50.3310   31.0640   39.0690 C   0  0  0  0  0  0  0  0  0  0  0  0
   51.6400   30.7390   39.4340 C   0  0  0  0  0  0  0  0  0  0  0  0
   52.2380   31.2350   40.5840 C   0  0  0  0  0  0  0  0  0  0  0  0
   51.4820   32.0770   41.3730 C   0  0  0  0  0  0  0  0  0  0  0  0
   43.7015   36.7615   44.8954 H   0  0  0  0  0  0  0  0  0  0  0  0
   44.7566   36.4484   42.6409 H   0  0  0  0  0  0  0  0  0  0  0  0
   44.0600   33.4351   47.7881 H   0  0  0  0  0  0  0  0  0  0  0  0
   45.1640   31.6593   49.4672 H   0  0  0  0  0  0  0  0  0  0  0  0
   49.5141   28.1582   48.7064 H   0  0  0  0  0  0  0  0  0  0  0  0
   49.0164   32.2500   49.6725 H   0  0  0  0  0  0  0  0  0  0  0  0
   50.5672   30.1160   50.0433 H   0  0  0  0  0  0  0  0  0  0  0  0
   46.8437   33.4188   41.9166 H   0  0  0  0  0  0  0  0  0  0  0  0
   45.8572   34.7019   41.1659 H   0  0  0  0  0  0  0  0  0  0  0  0
   47.5454   36.1732   41.2157 H   0  0  0  0  0  0  0  0  0  0  0  0
   47.9503   35.6871   42.9526 H   0  0  0  0  0  0  0  0  0  0  0  0
   48.9337   35.1844   40.4940 H   0  0  0  0  0  0  0  0  0  0  0  0
   51.1456   34.7069   42.2809 H   0  0  0  0  0  0  0  0  0  0  0  0
   50.2667   34.8673   43.5505 H   0  0  0  0  0  0  0  0  0  0  0  0
   48.7640   32.4832   42.2397 H   0  0  0  0  0  0  0  0  0  0  0  0
   48.6519   32.1872   39.6785 H   0  0  0  0  0  0  0  0  0  0  0  0
   49.8554   30.6721   38.1578 H   0  0  0  0  0  0  0  0  0  0  0  0
   52.2184   30.0646   38.7854 H   0  0  0  0  0  0  0  0  0  0  0  0
   53.2703   30.9682   40.8547 H   0  0  0  0  0  0  0  0  0  0  0  0
   51.9437   32.4768   42.2878 H   0  0  0  0  0  0  0  0  0  0  0  0
  1  6  2  0
  2  1  1  0
  3  2  2  0
  3  4  1  0
  4  5  2  0
  5  6  1  0
  5  7  1  0
  7 11  2  0
  7  8  1  0
  8  9  2  0
 10 14  1  0
 10  9  1  0
 11 10  1  0
 12 16  1  0
 13 14  2  0
 13 12  1  0
 14 15  1  0
 15 16  2  0
 17  3  1  0
 18 17  1  0
 19 21  1  0
 19 18  1  0
 19 20  1  0
 21 20  1  0
 22 27  1  0
 22 21  1  0
 23 22  2  0
 24 25  2  0
 24 23  1  0
 25 26  1  0
 26 27  2  0
  1 28  1  0
  2 29  1  0
  8 30  1  0
  9 31  1  0
 12 32  1  0
 15 33  1  0
 16 34  1  0
 17 35  1  0
 17 36  1  0
 18 37  1  0
 18 38  1  0
 19 39  1  6
 20 40  1  0
 20 41  1  0
 21 42  1  1
 23 43  1  0
 24 44  1  0
 25 45  1  0
 26 46  1  0
 27 47  1  0
M  END
>  <Score>  (1) 
-7.00991

$$$$
