
     RDKit          3D

 38 41  0  0  0  0  0  0  0  0999 V2000
   47.2350   34.9090   41.9470 C   0  0  0  0  0  0  0  0  0  0  0  0
   48.4770   35.4990   41.8060 C   0  0  0  0  0  0  0  0  0  0  0  0
   48.9450   35.2600   40.5670 N   0  0  0  0  0  0  0  0  0  0  0  0
   48.0150   34.5230   39.9170 C   0  0  0  0  0  0  0  0  0  0  0  0
   48.0210   34.0230   38.6250 C   0  0  0  0  0  0  0  0  0  0  0  0
   46.9360   33.3000   38.2100 C   0  0  0  0  0  0  0  0  0  0  0  0
   45.8150   33.0200   38.9880 C   0  0  0  0  0  0  0  0  0  0  0  0
   45.8790   33.5500   40.2630 C   0  0  0  0  0  0  0  0  0  0  0  0
   46.9310   34.2860   40.7530 C   0  0  0  0  0  0  0  0  0  0  0  0
   44.5470   35.8880   44.3520 C   0  0  0  0  0  0  0  0  0  0  0  0
   45.3670   35.8810   43.2020 C   0  0  0  0  0  0  0  0  0  0  0  0
   46.3790   34.9260   43.1360 C   0  0  0  0  0  0  0  0  0  0  0  0
   46.5360   34.0460   44.1730 N   0  0  0  0  0  0  0  0  0  0  0  0
   45.7280   34.0910   45.2500 C   0  0  0  0  0  0  0  0  0  0  0  0
   44.7390   34.9960   45.3550 N   0  0  0  0  0  0  0  0  0  0  0  0
   45.9460   33.1460   46.2930 N   0  0  0  0  0  0  0  0  0  0  0  0
   45.1210   33.1410   47.4680 C   0  0  0  0  0  0  0  0  0  0  0  0
   45.6690   32.2070   48.4940 C   0  0  0  0  0  0  0  0  0  0  0  0
   46.0900   30.9340   48.0170 N   0  0  0  0  0  0  0  0  0  0  0  0
   46.4150   30.8470   46.6300 C   0  0  0  0  0  0  0  0  0  0  0  0
   47.0170   32.1710   46.1720 C   0  0  0  0  0  0  0  0  0  0  0  0
   49.0006   36.0736   42.5842 H   0  0  0  0  0  0  0  0  0  0  0  0
   49.8461   35.5796   40.1838 H   0  0  0  0  0  0  0  0  0  0  0  0
   48.8729   34.2020   37.9526 H   0  0  0  0  0  0  0  0  0  0  0  0
   46.9501   32.9094   37.1818 H   0  0  0  0  0  0  0  0  0  0  0  0
   44.9598   32.4327   38.6223 H   0  0  0  0  0  0  0  0  0  0  0  0
   45.0262   33.3696   40.9339 H   0  0  0  0  0  0  0  0  0  0  0  0
   43.7389   36.6297   44.4353 H   0  0  0  0  0  0  0  0  0  0  0  0
   45.2120   36.6039   42.3875 H   0  0  0  0  0  0  0  0  0  0  0  0
   45.0845   34.1571   47.8877 H   0  0  0  0  0  0  0  0  0  0  0  0
   44.1109   32.8063   47.1891 H   0  0  0  0  0  0  0  0  0  0  0  0
   46.5363   32.6941   48.9636 H   0  0  0  0  0  0  0  0  0  0  0  0
   44.8376   32.0047   49.1852 H   0  0  0  0  0  0  0  0  0  0  0  0
   46.9269   30.6610   48.5518 H   0  0  0  0  0  0  0  0  0  0  0  0
   47.1433   30.0378   46.4729 H   0  0  0  0  0  0  0  0  0  0  0  0
   45.5049   30.6345   46.0498 H   0  0  0  0  0  0  0  0  0  0  0  0
   47.3553   32.0989   45.1278 H   0  0  0  0  0  0  0  0  0  0  0  0
   47.8941   32.4509   46.7740 H   0  0  0  0  0  0  0  0  0  0  0  0
  1 12  1  0
  2  1  2  0
  3  2  1  0
  4  3  1  0
  4  9  2  0
  5  4  1  0
  6  5  2  0
  6  7  1  0
  7  8  2  0
  8  9  1  0
  9  1  1  0
 10 15  2  0
 11 10  1  0
 12 11  2  0
 12 13  1  0
 13 14  2  0
 14 15  1  0
 14 16  1  0
 16 17  1  0
 17 18  1  0
 19 18  1  0
 20 19  1  0
 21 16  1  0
 21 20  1  0
  2 22  1  0
  3 23  1  0
  5 24  1  0
  6 25  1  0
  7 26  1  0
  8 27  1  0
 10 28  1  0
 11 29  1  0
 17 30  1  0
 17 31  1  0
 18 32  1  0
 18 33  1  0
 19 34  1  0
 20 35  1  0
 20 36  1  0
 21 37  1  0
 21 38  1  0
M  END
>  <Score>  (1) 
-7.17576

$$$$
