
     RDKit          3D

 48 52  0  0  1  0  0  0  0  0999 V2000
   43.6610   35.2050   41.8830 C   0  0  0  0  0  0  0  0  0  0  0  0
   42.3240   35.4280   42.0190 C   0  0  0  0  0  0  0  0  0  0  0  0
   41.7020   34.8220   40.9420 C   0  0  0  0  0  0  0  0  0  0  0  0
   42.7210   34.2830   40.2480 N   0  0  0  0  0  0  0  0  0  0  0  0
   43.9130   34.4730   40.7530 N   0  0  0  0  0  0  0  0  0  0  0  0
   43.4850   34.0040   37.9680 N   0  0  0  0  0  0  0  0  0  0  0  0
   44.7240   33.2650   38.0660 C   0  0  0  0  0  0  0  0  0  0  0  0
   44.4300   31.9710   38.7390 C   0  0  0  0  0  0  0  0  0  0  0  0
   42.9950   32.0890   39.2190 C   0  0  0  0  0  0  0  0  0  0  0  0
   42.5970   33.5070   38.9900 C   0  0  1  0  0  0  0  0  0  0  0  0
   41.2180   33.6900   38.4720 C   0  0  0  0  0  0  0  0  0  0  0  0
   40.5520   32.4590   38.5400 C   0  0  0  0  0  0  0  0  0  0  0  0
   39.2250   32.3410   38.1120 C   0  0  0  0  0  0  0  0  0  0  0  0
   38.5460   33.4320   37.6170 C   0  0  0  0  0  0  0  0  0  0  0  0
   39.2250   34.6380   37.5590 C   0  0  0  0  0  0  0  0  0  0  0  0
   40.5310   34.7740   37.9750 C   0  0  0  0  0  0  0  0  0  0  0  0
   44.6760   35.6900   42.8290 C   0  0  0  0  0  0  0  0  0  0  0  0
   45.1580   36.8080   42.6850 O   0  0  0  0  0  0  0  0  0  0  0  0
   44.6140   35.1610   45.1850 C   0  0  0  0  0  0  0  0  0  0  0  0
   45.1050   34.8550   43.9230 C   0  0  0  0  0  0  0  0  0  0  0  0
   45.9530   33.8000   43.7890 C   0  0  0  0  0  0  0  0  0  0  0  0
   46.2900   33.0800   44.9030 N   0  0  0  0  0  0  0  0  0  0  0  0
   45.8140   33.3760   46.1200 C   0  0  0  0  0  0  0  0  0  0  0  0
   44.9600   34.4350   46.2710 N   0  0  0  0  0  0  0  0  0  0  0  0
   46.2510   32.5440   47.1630 N   0  0  0  0  0  0  0  0  0  0  0  0
   47.3150   31.8000   47.3940 N   0  0  0  0  0  0  0  0  0  0  0  0
   47.2010   31.1900   48.6150 C   0  0  0  0  0  0  0  0  0  0  0  0
   46.0040   31.5870   49.1500 C   0  0  0  0  0  0  0  0  0  0  0  0
   45.4130   32.4530   48.2020 C   0  0  0  0  0  0  0  0  0  0  0  0
   41.8324   35.9842   42.8308 H   0  0  0  0  0  0  0  0  0  0  0  0
   40.6277   34.7887   40.7082 H   0  0  0  0  0  0  0  0  0  0  0  0
   43.6625   35.0079   38.1152 H   0  0  0  0  0  0  0  0  0  0  0  0
   45.1299   33.0800   37.0605 H   0  0  0  0  0  0  0  0  0  0  0  0
   45.4678   33.8365   38.6406 H   0  0  0  0  0  0  0  0  0  0  0  0
   44.5323   31.1358   38.0305 H   0  0  0  0  0  0  0  0  0  0  0  0
   45.1255   31.7712   39.5675 H   0  0  0  0  0  0  0  0  0  0  0  0
   42.3440   31.4126   38.6457 H   0  0  0  0  0  0  0  0  0  0  0  0
   42.9023   31.8122   40.2796 H   0  0  0  0  0  0  0  0  0  0  0  0
   41.0776   31.5766   38.9338 H   0  0  0  0  0  0  0  0  0  0  0  0
   38.7188   31.3662   38.1716 H   0  0  0  0  0  0  0  0  0  0  0  0
   37.5022   33.3488   37.2799 H   0  0  0  0  0  0  0  0  0  0  0  0
   38.7008   35.5214   37.1654 H   0  0  0  0  0  0  0  0  0  0  0  0
   41.0272   35.7536   37.9097 H   0  0  0  0  0  0  0  0  0  0  0  0
   43.9284   36.0130   45.3035 H   0  0  0  0  0  0  0  0  0  0  0  0
   46.3604   33.5305   42.8034 H   0  0  0  0  0  0  0  0  0  0  0  0
   47.9317   30.5105   49.0780 H   0  0  0  0  0  0  0  0  0  0  0  0
   45.5860   31.2908   50.1234 H   0  0  0  0  0  0  0  0  0  0  0  0
   44.4416   32.9596   48.3005 H   0  0  0  0  0  0  0  0  0  0  0  0
  1  2  1  0
  1 17  1  0
  3  2  2  0
  4  5  1  0
  4  3  1  0
  5  1  2  0
  6  7  1  0
  6 10  1  0
  7  8  1  0
  8  9  1  0
 10 11  1  0
 10  9  1  0
 10  4  1  1
 11 12  2  0
 13 12  1  0
 14 13  2  0
 15 14  1  0
 15 16  2  0
 16 11  1  0
 17 20  1  0
 18 17  2  0
 19 24  2  0
 20 19  1  0
 21 20  2  0
 21 22  1  0
 22 23  2  0
 23 24  1  0
 23 25  1  0
 25 26  1  0
 25 29  1  0
 26 27  2  0
 27 28  1  0
 29 28  2  0
  2 30  1  0
  3 31  1  0
  6 32  1  0
  7 33  1  0
  7 34  1  0
  8 35  1  0
  8 36  1  0
  9 37  1  0
  9 38  1  0
 12 39  1  0
 13 40  1  0
 14 41  1  0
 15 42  1  0
 16 43  1  0
 19 44  1  0
 21 45  1  0
 27 46  1  0
 28 47  1  0
 29 48  1  0
M  END
>  <Score>  (1) 
-7.46193

$$$$
