
     RDKit          3D

 51 56  0  0  0  0  0  0  0  0999 V2000
   46.5720   34.7010   42.0700 C   0  0  0  0  0  0  0  0  0  0  0  0
   47.7680   35.3240   41.8840 C   0  0  0  0  0  0  0  0  0  0  0  0
   48.5000   35.1740   40.6820 C   0  0  0  0  0  0  0  0  0  0  0  0
   47.9690   34.3640   39.6730 C   0  0  0  0  0  0  0  0  0  0  0  0
   46.7400   33.7270   39.8710 C   0  0  0  0  0  0  0  0  0  0  0  0
   46.0780   33.9130   41.0630 C   0  0  0  0  0  0  0  0  0  0  0  0
   44.5160   36.1090   44.8990 C   0  0  0  0  0  0  0  0  0  0  0  0
   45.1210   36.0020   43.6550 C   0  0  0  0  0  0  0  0  0  0  0  0
   45.8950   34.9140   43.3350 C   0  0  0  0  0  0  0  0  0  0  0  0
   46.0460   33.9410   44.2910 N   0  0  0  0  0  0  0  0  0  0  0  0
   45.4460   34.0530   45.5200 C   0  0  0  0  0  0  0  0  0  0  0  0
   44.6880   35.1320   45.8100 N   0  0  0  0  0  0  0  0  0  0  0  0
   45.6700   32.9770   46.4440 N   0  0  0  0  0  0  0  0  0  0  0  0
   45.1220   32.8280   47.6850 C   0  0  0  0  0  0  0  0  0  0  0  0
   45.5950   31.6750   48.2280 N   0  0  0  0  0  0  0  0  0  0  0  0
   46.4300   31.1100   47.3380 C   0  0  0  0  0  0  0  0  0  0  0  0
   47.2040   29.9660   47.2930 C   0  0  0  0  0  0  0  0  0  0  0  0
   47.1660   29.2110   48.3190 O   0  0  0  0  0  0  0  0  0  0  0  0
   47.9780   29.6120   46.2520 N   0  0  0  0  0  0  0  0  0  0  0  0
   48.0050   30.4350   45.1630 C   0  0  0  0  0  0  0  0  0  0  0  0
   48.8180   30.0780   44.0490 N   0  0  0  0  0  0  0  0  0  0  0  0
   47.2640   31.5590   45.1670 N   0  0  0  0  0  0  0  0  0  0  0  0
   46.4900   31.9180   46.2040 C   0  0  0  0  0  0  0  0  0  0  0  0
   44.8180   33.2480   41.2430 N   0  0  0  0  0  0  0  0  0  0  0  0
   44.6060   31.9960   41.6940 C   0  0  0  0  0  0  0  0  0  0  0  0
   43.3290   31.5130   41.8070 C   0  0  0  0  0  0  0  0  0  0  0  0
   42.2390   32.2830   41.4660 C   0  0  0  0  0  0  0  0  0  0  0  0
   41.0840   31.7900   41.5890 O   0  0  0  0  0  0  0  0  0  0  0  0
   42.4880   33.5490   41.0130 N   0  0  0  0  0  0  0  0  0  0  0  0
   43.7290   34.0110   40.9050 C   0  0  0  0  0  0  0  0  0  0  0  0
   43.8360   35.1950   40.4750 O   0  0  0  0  0  0  0  0  0  0  0  0
   41.3460   34.3080   40.6740 C   0  0  0  0  0  0  0  0  0  0  0  0
   41.2990   35.6410   41.0250 C   0  0  0  0  0  0  0  0  0  0  0  0
   40.0800   36.1620   40.5820 C   0  0  0  0  0  0  0  0  0  0  0  0
   39.4340   35.1230   39.9780 N   0  0  0  0  0  0  0  0  0  0  0  0
   40.1840   34.0340   40.0350 N   0  0  0  0  0  0  0  0  0  0  0  0
   48.1745   35.9581   42.6857 H   0  0  0  0  0  0  0  0  0  0  0  0
   49.4653   35.6832   40.5444 H   0  0  0  0  0  0  0  0  0  0  0  0
   48.5156   34.2287   38.7281 H   0  0  0  0  0  0  0  0  0  0  0  0
   46.3093   33.0875   39.0865 H   0  0  0  0  0  0  0  0  0  0  0  0
   43.8990   36.9872   45.1400 H   0  0  0  0  0  0  0  0  0  0  0  0
   44.9783   36.8016   42.9132 H   0  0  0  0  0  0  0  0  0  0  0  0
   44.4171   33.5231   48.1646 H   0  0  0  0  0  0  0  0  0  0  0  0
   48.5342   28.7454   46.2755 H   0  0  0  0  0  0  0  0  0  0  0  0
   49.3745   29.2116   44.0742 H   0  0  0  0  0  0  0  0  0  0  0  0
   48.8493   30.6862   43.2184 H   0  0  0  0  0  0  0  0  0  0  0  0
   45.4599   31.3606   41.9719 H   0  0  0  0  0  0  0  0  0  0  0  0
   43.1709   30.4894   42.1776 H   0  0  0  0  0  0  0  0  0  0  0  0
   42.0833   36.1967   41.5598 H   0  0  0  0  0  0  0  0  0  0  0  0
   39.7172   37.1941   40.6964 H   0  0  0  0  0  0  0  0  0  0  0  0
   38.5021   35.1779   39.5428 H   0  0  0  0  0  0  0  0  0  0  0  0
  1  9  1  0
  2  1  2  0
  3  2  1  0
  4  5  1  0
  4  3  2  0
  5  6  2  0
  6 24  1  0
  6  1  1  0
  7 12  2  0
  8  7  1  0
  9  8  2  0
  9 10  1  0
 10 11  2  0
 11 12  1  0
 11 13  1  0
 13 14  1  0
 14 15  2  0
 16 15  1  0
 17 16  1  0
 17 18  2  0
 19 17  1  0
 20 22  2  0
 20 19  1  0
 21 20  1  0
 22 23  1  0
 23 13  1  0
 23 16  2  0
 24 25  1  0
 25 26  2  0
 27 28  2  0
 27 26  1  0
 29 27  1  0
 30 29  1  0
 30 24  1  0
 31 30  2  0
 32 29  1  0
 32 33  1  0
 34 33  2  0
 35 36  1  0
 35 34  1  0
 36 32  2  0
  2 37  1  0
  3 38  1  0
  4 39  1  0
  5 40  1  0
  7 41  1  0
  8 42  1  0
 14 43  1  0
 19 44  1  0
 21 45  1  0
 21 46  1  0
 25 47  1  0
 26 48  1  0
 33 49  1  0
 34 50  1  0
 35 51  1  0
M  END
>  <Score>  (1) 
-9.4277

$$$$
