
     RDKit          3D

 42 45  0  0  0  0  0  0  0  0999 V2000
   46.9730   34.7250   42.0380 C   0  0  0  0  0  0  0  0  0  0  0  0
   48.2010   35.3040   41.7890 C   0  0  0  0  0  0  0  0  0  0  0  0
   48.4650   34.9580   40.4650 C   0  0  0  0  0  0  0  0  0  0  0  0
   47.3890   34.1960   39.9990 C   0  0  0  0  0  0  0  0  0  0  0  0
   46.5220   34.0880   40.9860 O   0  0  0  0  0  0  0  0  0  0  0  0
   44.5920   35.7910   44.6890 C   0  0  0  0  0  0  0  0  0  0  0  0
   45.3060   35.7840   43.4510 C   0  0  0  0  0  0  0  0  0  0  0  0
   46.2240   34.7750   43.2780 C   0  0  0  0  0  0  0  0  0  0  0  0
   46.3880   33.8720   44.2690 N   0  0  0  0  0  0  0  0  0  0  0  0
   45.6970   33.9060   45.4270 C   0  0  0  0  0  0  0  0  0  0  0  0
   44.7950   34.8670   45.6430 N   0  0  0  0  0  0  0  0  0  0  0  0
   45.9500   32.9090   46.3970 N   0  0  0  0  0  0  0  0  0  0  0  0
   47.0500   31.9720   46.5100 C   0  0  0  0  0  0  0  0  0  0  0  0
   47.4560   32.0400   47.9840 C   0  0  0  0  0  0  0  0  0  0  0  0
   46.2020   32.5740   48.6670 C   0  0  0  0  0  0  0  0  0  0  0  0
   45.1530   32.5670   47.5500 C   0  0  0  0  0  0  0  0  0  0  0  0
   47.2640   33.6460   38.6990 N   0  0  0  0  0  0  0  0  0  0  0  0
   46.4100   32.6200   38.5240 C   0  0  0  0  0  0  0  0  0  0  0  0
   46.2480   32.0430   37.2810 C   0  0  0  0  0  0  0  0  0  0  0  0
   46.9860   32.5460   36.2150 C   0  0  0  0  0  0  0  0  0  0  0  0
   46.8230   32.0040   35.0890 O   0  0  0  0  0  0  0  0  0  0  0  0
   47.8300   33.5800   36.4480 N   0  0  0  0  0  0  0  0  0  0  0  0
   47.9610   34.1200   37.6850 C   0  0  0  0  0  0  0  0  0  0  0  0
   48.7600   35.0780   37.8340 O   0  0  0  0  0  0  0  0  0  0  0  0
   45.2860   30.9180   37.1740 C   0  0  0  0  0  0  0  0  0  0  0  0
   48.8240   35.8981   42.4737 H   0  0  0  0  0  0  0  0  0  0  0  0
   49.3603   35.2350   39.8891 H   0  0  0  0  0  0  0  0  0  0  0  0
   43.8488   36.5821   44.8674 H   0  0  0  0  0  0  0  0  0  0  0  0
   45.1304   36.5458   42.6772 H   0  0  0  0  0  0  0  0  0  0  0  0
   46.7252   30.9558   46.2419 H   0  0  0  0  0  0  0  0  0  0  0  0
   47.8819   32.2176   45.8336 H   0  0  0  0  0  0  0  0  0  0  0  0
   47.7194   31.0430   48.3669 H   0  0  0  0  0  0  0  0  0  0  0  0
   48.3425   32.6675   48.1586 H   0  0  0  0  0  0  0  0  0  0  0  0
   45.8971   31.9188   49.4963 H   0  0  0  0  0  0  0  0  0  0  0  0
   46.3478   33.5701   49.1103 H   0  0  0  0  0  0  0  0  0  0  0  0
   44.3688   33.3166   47.7319 H   0  0  0  0  0  0  0  0  0  0  0  0
   44.6121   31.6142   47.4518 H   0  0  0  0  0  0  0  0  0  0  0  0
   45.8355   32.2378   39.3806 H   0  0  0  0  0  0  0  0  0  0  0  0
   48.3838   33.9640   35.6691 H   0  0  0  0  0  0  0  0  0  0  0  0
   44.9997   30.5832   38.1820 H   0  0  0  0  0  0  0  0  0  0  0  0
   44.3900   31.2522   36.6304 H   0  0  0  0  0  0  0  0  0  0  0  0
   45.7552   30.0848   36.6304 H   0  0  0  0  0  0  0  0  0  0  0  0
  1  8  1  0
  2  1  2  0
  3  2  1  0
  4  3  2  0
  4  5  1  0
  5  1  1  0
  6 11  2  0
  7  6  1  0
  8  7  2  0
  8  9  1  0
  9 10  2  0
 10 11  1  0
 10 12  1  0
 12 13  1  0
 12 16  1  0
 13 14  1  0
 14 15  1  0
 16 15  1  0
 17  4  1  0
 18 17  1  0
 19 18  2  0
 20 22  1  0
 20 19  1  0
 21 20  2  0
 22 23  1  0
 23 24  2  0
 23 17  1  0
 25 19  1  0
  2 26  1  0
  3 27  1  0
  6 28  1  0
  7 29  1  0
 13 30  1  0
 13 31  1  0
 14 32  1  0
 14 33  1  0
 15 34  1  0
 15 35  1  0
 16 36  1  0
 16 37  1  0
 18 38  1  0
 22 39  1  0
 25 40  1  0
 25 41  1  0
 25 42  1  0
M  END
>  <Score>  (1) 
-7.4688

$$$$
