
     RDKit          3D

 46 50  0  0  0  0  0  0  0  0999 V2000
   45.9040   33.9270   42.6500 C   0  0  0  0  0  0  0  0  0  0  0  0
   46.1140   34.2720   44.0520 C   0  0  0  0  0  0  0  0  0  0  0  0
   46.7070   33.0580   44.7620 C   0  0  0  0  0  0  0  0  0  0  0  0
   46.8890   31.9880   43.7040 C   0  0  0  0  0  0  0  0  0  0  0  0
   45.9490   32.3730   42.6210 C   0  0  0  0  0  0  0  0  0  0  0  0
   46.9170   34.3620   41.6660 C   0  0  0  0  0  0  0  0  0  0  0  0
   47.8890   35.2960   42.0860 C   0  0  0  0  0  0  0  0  0  0  0  0
   48.8490   35.7080   41.1420 C   0  0  0  0  0  0  0  0  0  0  0  0
   48.7750   35.1760   39.8820 N   0  0  0  0  0  0  0  0  0  0  0  0
   47.8110   34.2770   39.5370 C   0  0  0  0  0  0  0  0  0  0  0  0
   46.8900   33.8710   40.4170 N   0  0  0  0  0  0  0  0  0  0  0  0
   44.5460   34.3090   42.1900 C   0  0  0  0  0  0  0  0  0  0  0  0
   43.7910   35.3960   41.9560 C   0  0  0  0  0  0  0  0  0  0  0  0
   42.5080   35.3200   41.5090 C   0  0  0  0  0  0  0  0  0  0  0  0
   41.9890   34.0560   41.2960 C   0  0  0  0  0  0  0  0  0  0  0  0
   43.3790   32.9770   41.7530 S   0  0  0  0  0  0  0  0  0  0  0  0
   40.7870   33.4550   40.9230 C   0  0  0  0  0  0  0  0  0  0  0  0
   40.2130   32.5030   41.7790 C   0  0  0  0  0  0  0  0  0  0  0  0
   39.0360   31.8350   41.5170 C   0  0  0  0  0  0  0  0  0  0  0  0
   38.3590   32.0830   40.3690 C   0  0  0  0  0  0  0  0  0  0  0  0
   38.8390   32.9980   39.4610 C   0  0  0  0  0  0  0  0  0  0  0  0
   38.1560   33.2150   38.2880 C   0  0  0  0  0  0  0  0  0  0  0  0
   38.6420   34.1020   37.3510 C   0  0  0  0  0  0  0  0  0  0  0  0
   39.8440   34.7470   37.6690 C   0  0  0  0  0  0  0  0  0  0  0  0
   40.4790   34.4880   38.8580 C   0  0  0  0  0  0  0  0  0  0  0  0
   40.0160   33.6160   39.8050 C   0  0  0  0  0  0  0  0  0  0  0  0
   46.8086   35.1217   44.1257 H   0  0  0  0  0  0  0  0  0  0  0  0
   45.1592   34.5547   44.5193 H   0  0  0  0  0  0  0  0  0  0  0  0
   47.6769   33.3168   45.2117 H   0  0  0  0  0  0  0  0  0  0  0  0
   46.0489   32.7095   45.5716 H   0  0  0  0  0  0  0  0  0  0  0  0
   47.9251   31.9786   43.3346 H   0  0  0  0  0  0  0  0  0  0  0  0
   46.6898   30.9780   44.0916 H   0  0  0  0  0  0  0  0  0  0  0  0
   44.9495   31.9550   42.8116 H   0  0  0  0  0  0  0  0  0  0  0  0
   46.2726   31.9903   41.6418 H   0  0  0  0  0  0  0  0  0  0  0  0
   47.8960   35.6877   43.1139 H   0  0  0  0  0  0  0  0  0  0  0  0
   49.6324   36.4331   41.4076 H   0  0  0  0  0  0  0  0  0  0  0  0
   47.7901   33.8767   38.5126 H   0  0  0  0  0  0  0  0  0  0  0  0
   44.2289   36.3894   42.1334 H   0  0  0  0  0  0  0  0  0  0  0  0
   41.9097   36.2246   41.3251 H   0  0  0  0  0  0  0  0  0  0  0  0
   40.7358   32.2750   42.7196 H   0  0  0  0  0  0  0  0  0  0  0  0
   38.6466   31.1017   42.2385 H   0  0  0  0  0  0  0  0  0  0  0  0
   37.4198   31.5491   40.1623 H   0  0  0  0  0  0  0  0  0  0  0  0
   37.2157   32.6776   38.0957 H   0  0  0  0  0  0  0  0  0  0  0  0
   38.1143   34.2928   36.4049 H   0  0  0  0  0  0  0  0  0  0  0  0
   40.2820   35.4660   36.9611 H   0  0  0  0  0  0  0  0  0  0  0  0
   41.4219   35.0162   39.0628 H   0  0  0  0  0  0  0  0  0  0  0  0
  1  2  1  0
  2  3  1  0
  4  3  1  0
  5  1  1  0
  5  4  1  0
  6  7  2  0
  6  1  1  0
  8  7  1  0
  9  8  2  0
 10  9  1  0
 10 11  2  0
 11  6  1  0
 12  1  1  0
 13 12  2  0
 14 13  1  0
 15 14  2  0
 15 16  1  0
 16 12  1  0
 17 15  1  0
 17 18  2  0
 19 18  1  0
 20 19  2  0
 21 26  2  0
 21 20  1  0
 22 21  1  0
 23 24  1  0
 23 22  2  0
 24 25  2  0
 25 26  1  0
 26 17  1  0
  2 27  1  0
  2 28  1  0
  3 29  1  0
  3 30  1  0
  4 31  1  0
  4 32  1  0
  5 33  1  0
  5 34  1  0
  7 35  1  0
  8 36  1  0
 10 37  1  0
 13 38  1  0
 14 39  1  0
 18 40  1  0
 19 41  1  0
 20 42  1  0
 22 43  1  0
 23 44  1  0
 24 45  1  0
 25 46  1  0
M  END
>  <Score>  (1) 
-7.15824

$$$$
