
     RDKit          3D

 41 44  0  0  0  0  0  0  0  0999 V2000
   45.2470   34.0210   41.1740 N   0  0  0  0  0  0  0  0  0  0  0  0
   46.4480   33.9750   40.5470 C   0  0  0  0  0  0  0  0  0  0  0  0
   46.5030   33.5180   39.2340 C   0  0  0  0  0  0  0  0  0  0  0  0
   45.3140   33.1400   38.6600 C   0  0  0  0  0  0  0  0  0  0  0  0
   45.2380   32.6510   37.3120 N   0  0  0  0  0  0  0  0  0  0  0  0
   44.1290   33.1920   39.2990 N   0  0  0  0  0  0  0  0  0  0  0  0
   44.0860   33.6450   40.5950 C   0  0  0  0  0  0  0  0  0  0  0  0
   42.9940   33.7080   41.2260 O   0  0  0  0  0  0  0  0  0  0  0  0
   44.7550   36.1200   44.2360 C   0  0  0  0  0  0  0  0  0  0  0  0
   44.8170   35.7640   42.8800 C   0  0  0  0  0  0  0  0  0  0  0  0
   45.1560   34.4800   42.5090 C   0  0  0  0  0  0  0  0  0  0  0  0
   45.4140   33.6210   43.5240 N   0  0  0  0  0  0  0  0  0  0  0  0
   45.3590   33.9440   44.8150 C   0  0  0  0  0  0  0  0  0  0  0  0
   45.0290   35.1960   45.1740 N   0  0  0  0  0  0  0  0  0  0  0  0
   45.6360   33.0190   45.8600 N   0  0  0  0  0  0  0  0  0  0  0  0
   45.4820   32.9580   47.1680 N   0  0  0  0  0  0  0  0  0  0  0  0
   45.9390   31.8180   47.6600 C   0  0  0  0  0  0  0  0  0  0  0  0
   46.4270   31.0820   46.5920 C   0  0  0  0  0  0  0  0  0  0  0  0
   46.2260   31.8630   45.4500 C   0  0  0  0  0  0  0  0  0  0  0  0
   47.6630   34.3870   41.2090 C   0  0  0  0  0  0  0  0  0  0  0  0
   48.2730   33.3070   41.8400 C   0  0  0  0  0  0  0  0  0  0  0  0
   49.4680   33.4440   42.5540 C   0  0  0  0  0  0  0  0  0  0  0  0
   50.0390   34.7000   42.6170 C   0  0  0  0  0  0  0  0  0  0  0  0
   49.4470   35.7670   42.0000 C   0  0  0  0  0  0  0  0  0  0  0  0
   48.2680   35.6250   41.2980 C   0  0  0  0  0  0  0  0  0  0  0  0
   47.7490   33.4270   38.4610 C   0  0  0  0  0  0  0  0  0  0  0  0
   48.4040   34.6330   38.4030 F   0  0  0  0  0  0  0  0  0  0  0  0
   47.4340   32.9850   37.1740 F   0  0  0  0  0  0  0  0  0  0  0  0
   48.5380   32.4320   39.0170 F   0  0  0  0  0  0  0  0  0  0  0  0
   44.3284   32.3765   36.9143 H   0  0  0  0  0  0  0  0  0  0  0  0
   46.0931   32.5748   36.7428 H   0  0  0  0  0  0  0  0  0  0  0  0
   44.4848   37.1453   44.5290 H   0  0  0  0  0  0  0  0  0  0  0  0
   44.5936   36.5146   42.1076 H   0  0  0  0  0  0  0  0  0  0  0  0
   45.9328   31.5123   48.7167 H   0  0  0  0  0  0  0  0  0  0  0  0
   46.8823   30.0815   46.6344 H   0  0  0  0  0  0  0  0  0  0  0  0
   46.4936   31.5945   44.4174 H   0  0  0  0  0  0  0  0  0  0  0  0
   47.8011   32.3155   41.7753 H   0  0  0  0  0  0  0  0  0  0  0  0
   49.9371   32.5807   43.0486 H   0  0  0  0  0  0  0  0  0  0  0  0
   50.9795   34.8434   43.1691 H   0  0  0  0  0  0  0  0  0  0  0  0
   49.9201   36.7580   42.0647 H   0  0  0  0  0  0  0  0  0  0  0  0
   47.8100   36.4976   40.8093 H   0  0  0  0  0  0  0  0  0  0  0  0
  1 11  1  0
  2  1  1  0
  2 20  1  0
  3  2  2  0
  4  3  1  0
  4  6  2  0
  5  4  1  0
  6  7  1  0
  7  1  1  0
  7  8  2  0
  9 14  2  0
 10  9  1  0
 11 10  2  0
 11 12  1  0
 12 13  2  0
 13 14  1  0
 13 15  1  0
 15 16  1  0
 16 17  2  0
 18 17  1  0
 19 15  1  0
 19 18  2  0
 20 25  1  0
 20 21  2  0
 21 22  1  0
 22 23  2  0
 24 23  1  0
 25 24  2  0
 26 29  1  0
 26  3  1  0
 27 26  1  0
 28 26  1  0
  5 30  1  0
  5 31  1  0
  9 32  1  0
 10 33  1  0
 17 34  1  0
 18 35  1  0
 19 36  1  0
 21 37  1  0
 22 38  1  0
 23 39  1  0
 24 40  1  0
 25 41  1  0
M  END
>  <Score>  (1) 
-7.39738

$$$$
