
     RDKit          3D

 52 58  0  0  1  0  0  0  0  0999 V2000
   48.5110   30.6500   48.9900 N   0  0  0  0  0  0  0  0  0  0  0  0
   49.3130   30.9080   50.0760 C   0  0  0  0  0  0  0  0  0  0  0  0
   50.1550   29.8140   50.2190 C   0  0  0  0  0  0  0  0  0  0  0  0
   49.8430   28.9270   49.2220 N   0  0  0  0  0  0  0  0  0  0  0  0
   48.8570   29.4540   48.5050 C   0  0  0  0  0  0  0  0  0  0  0  0
   46.3680   32.6140   46.9520 C   0  0  0  0  0  0  0  0  0  0  0  0
   45.5060   32.3970   48.0130 C   0  0  0  0  0  0  0  0  0  0  0  0
   46.2300   31.6200   48.9140 C   0  0  0  0  0  0  0  0  0  0  0  0
   47.4630   31.4110   48.3660 C   0  0  0  0  0  0  0  0  0  0  0  0
   47.4720   32.0250   47.2110 O   0  0  0  0  0  0  0  0  0  0  0  0
   46.6730   34.0030   43.6870 C   0  0  0  0  0  0  0  0  0  0  0  0
   45.5490   34.6650   44.1730 C   0  0  0  0  0  0  0  0  0  0  0  0
   45.2970   34.2160   45.4730 C   0  0  0  0  0  0  0  0  0  0  0  0
   46.2630   33.3080   45.7360 N   0  0  0  0  0  0  0  0  0  0  0  0
   47.0830   33.1680   44.6960 N   0  0  0  0  0  0  0  0  0  0  0  0
   48.6680   35.3480   40.9160 C   0  0  0  0  0  0  0  0  0  0  0  0
   48.1090   34.7060   39.8160 C   0  0  0  0  0  0  0  0  0  0  0  0
   47.0520   33.8170   40.0390 C   0  0  0  0  0  0  0  0  0  0  0  0
   46.6080   33.6110   41.3160 N   0  0  0  0  0  0  0  0  0  0  0  0
   47.1880   34.2620   42.3430 C   0  0  0  0  0  0  0  0  0  0  0  0
   48.1930   35.1140   42.1760 N   0  0  0  0  0  0  0  0  0  0  0  0
   48.2490   28.7280   47.3230 C   0  0  1  0  0  0  0  0  0  0  0  0
   47.9820   27.1940   47.5660 C   0  0  0  0  0  0  0  0  0  0  0  0
   46.9420   28.1770   47.3570 C   0  0  2  0  0  0  0  0  0  0  0  0
   45.7730   28.2690   46.5280 C   0  0  0  0  0  0  0  0  0  0  0  0
   45.5600   29.1470   45.4930 N   0  0  0  0  0  0  0  0  0  0  0  0
   44.4760   29.2620   44.7590 C   0  0  0  0  0  0  0  0  0  0  0  0
   43.3930   28.4930   44.9430 N   0  0  0  0  0  0  0  0  0  0  0  0
   43.4570   27.5810   45.9250 C   0  0  0  0  0  0  0  0  0  0  0  0
   42.3650   26.7850   46.1100 C   0  0  0  0  0  0  0  0  0  0  0  0
   42.3840   25.8200   47.0940 C   0  0  0  0  0  0  0  0  0  0  0  0
   43.5190   25.6660   47.8900 C   0  0  0  0  0  0  0  0  0  0  0  0
   44.5620   26.5150   47.6260 C   0  0  0  0  0  0  0  0  0  0  0  0
   44.6210   27.5050   46.6650 C   0  0  0  0  0  0  0  0  0  0  0  0
   49.2916   31.8073   50.7091 H   0  0  0  0  0  0  0  0  0  0  0  0
   50.9291   29.6832   50.9895 H   0  0  0  0  0  0  0  0  0  0  0  0
   44.4731   32.7596   48.1211 H   0  0  0  0  0  0  0  0  0  0  0  0
   45.8750   31.2449   49.8852 H   0  0  0  0  0  0  0  0  0  0  0  0
   44.9585   35.4150   43.6264 H   0  0  0  0  0  0  0  0  0  0  0  0
   44.4835   34.5348   46.1413 H   0  0  0  0  0  0  0  0  0  0  0  0
   49.5011   36.0514   40.7703 H   0  0  0  0  0  0  0  0  0  0  0  0
   48.4871   34.8919   38.7999 H   0  0  0  0  0  0  0  0  0  0  0  0
   46.5828   33.2890   39.1957 H   0  0  0  0  0  0  0  0  0  0  0  0
   48.7633   29.3865   46.6076 H   0  0  0  0  0  0  0  0  0  0  0  0
   48.2185   26.4530   46.7882 H   0  0  0  0  0  0  0  0  0  0  0  0
   48.2371   26.4475   48.3326 H   0  0  0  0  0  0  0  0  0  0  0  0
   46.0060   28.4345   47.8744 H   0  0  0  0  0  0  0  0  0  0  0  0
   44.4563   30.0195   43.9616 H   0  0  0  0  0  0  0  0  0  0  0  0
   41.4741   26.9124   45.4775 H   0  0  0  0  0  0  0  0  0  0  0  0
   41.5076   25.1740   47.2509 H   0  0  0  0  0  0  0  0  0  0  0  0
   43.5738   24.9067   48.6840 H   0  0  0  0  0  0  0  0  0  0  0  0
   45.4574   26.3936   48.2533 H   0  0  0  0  0  0  0  0  0  0  0  0
  1  2  1  0
  2  3  2  0
  4  3  1  0
  5  1  1  0
  5  4  2  0
  6 10  1  0
  6  7  2  0
  7  8  1  0
  9  8  2  0
  9  1  1  0
 10  9  1  0
 11 12  1  0
 11 15  2  0
 12 13  2  0
 13 14  1  0
 14  6  1  0
 15 14  1  0
 16 21  2  0
 17 18  2  0
 17 16  1  0
 18 19  1  0
 19 20  2  0
 20 11  1  0
 21 20  1  0
 22 24  1  0
 22 23  1  0
 22  5  1  0
 24 23  1  0
 25 34  1  0
 25 24  1  0
 26 25  2  0
 27 28  2  0
 27 26  1  0
 28 29  1  0
 29 30  1  0
 29 34  2  0
 30 31  2  0
 31 32  1  0
 33 32  2  0
 34 33  1  0
  2 35  1  0
  3 36  1  0
  7 37  1  0
  8 38  1  0
 12 39  1  0
 13 40  1  0
 16 41  1  0
 17 42  1  0
 18 43  1  0
 22 44  1  6
 23 45  1  0
 23 46  1  0
 24 47  1  1
 27 48  1  0
 30 49  1  0
 31 50  1  0
 32 51  1  0
 33 52  1  0
M  END
>  <Score>  (1) 
-7.2687

$$$$
