
     RDKit          3D

 51 56  0  0  1  0  0  0  0  0999 V2000
   44.0390   34.3600   40.5070 C   0  0  2  0  0  0  0  0  0  0  0  0
   42.4960   34.5920   40.5170 C   0  0  0  0  0  0  0  0  0  0  0  0
   42.3440   35.0450   39.0610 C   0  0  0  0  0  0  0  0  0  0  0  0
   43.2200   34.0980   38.3390 C   0  0  0  0  0  0  0  0  0  0  0  0
   44.1420   33.4490   39.3840 C   0  0  1  0  0  0  0  0  0  0  0  0
   45.4470   33.2340   38.8150 N   0  0  0  0  0  0  0  0  0  0  0  0
   46.5920   33.2080   39.5220 C   0  0  0  0  0  0  0  0  0  0  0  0
   47.6340   32.9940   38.7100 N   0  0  0  0  0  0  0  0  0  0  0  0
   47.1120   32.8850   37.4680 C   0  0  0  0  0  0  0  0  0  0  0  0
   47.7760   32.6660   36.2840 C   0  0  0  0  0  0  0  0  0  0  0  0
   49.0460   32.5300   36.2470 O   0  0  0  0  0  0  0  0  0  0  0  0
   47.0300   32.6010   35.1680 N   0  0  0  0  0  0  0  0  0  0  0  0
   45.6810   32.7450   35.2080 C   0  0  0  0  0  0  0  0  0  0  0  0
   45.0120   32.6610   33.9530 N   0  0  0  0  0  0  0  0  0  0  0  0
   45.0660   32.9610   36.3990 N   0  0  0  0  0  0  0  0  0  0  0  0
   45.7470   33.0360   37.5330 C   0  0  0  0  0  0  0  0  0  0  0  0
   45.3730   34.8150   42.5230 C   0  0  0  0  0  0  0  0  0  0  0  0
   44.5540   33.9250   41.8010 C   0  0  0  0  0  0  0  0  0  0  0  0
   44.2670   32.6520   42.3360 C   0  0  0  0  0  0  0  0  0  0  0  0
   44.7950   32.3220   43.5400 N   0  0  0  0  0  0  0  0  0  0  0  0
   45.5900   33.2130   44.2200 C   0  0  0  0  0  0  0  0  0  0  0  0
   45.8770   34.4500   43.7160 N   0  0  0  0  0  0  0  0  0  0  0  0
   46.1290   32.8050   45.5060 C   0  0  0  0  0  0  0  0  0  0  0  0
   45.8800   33.4740   46.6860 C   0  0  0  0  0  0  0  0  0  0  0  0
   46.5590   32.7730   47.6140 N   0  0  0  0  0  0  0  0  0  0  0  0
   47.2050   31.7210   47.0870 C   0  0  0  0  0  0  0  0  0  0  0  0
   48.0120   30.7280   47.6030 C   0  0  0  0  0  0  0  0  0  0  0  0
   48.5510   29.7530   46.7920 C   0  0  0  0  0  0  0  0  0  0  0  0
   48.2910   29.7460   45.4220 C   0  0  0  0  0  0  0  0  0  0  0  0
   47.4820   30.7410   44.9010 C   0  0  0  0  0  0  0  0  0  0  0  0
   46.9440   31.7210   45.7310 C   0  0  0  0  0  0  0  0  0  0  0  0
   44.6805   35.2434   40.3723 H   0  0  0  0  0  0  0  0  0  0  0  0
   41.9364   33.6687   40.7275 H   0  0  0  0  0  0  0  0  0  0  0  0
   42.1151   35.2844   41.2822 H   0  0  0  0  0  0  0  0  0  0  0  0
   41.3005   34.9573   38.7241 H   0  0  0  0  0  0  0  0  0  0  0  0
   42.6107   36.0999   38.8995 H   0  0  0  0  0  0  0  0  0  0  0  0
   42.6133   33.3276   37.8407 H   0  0  0  0  0  0  0  0  0  0  0  0
   43.8072   34.6179   37.5677 H   0  0  0  0  0  0  0  0  0  0  0  0
   43.8772   32.4361   39.7215 H   0  0  0  0  0  0  0  0  0  0  0  0
   46.6614   33.3433   40.6114 H   0  0  0  0  0  0  0  0  0  0  0  0
   47.4923   32.4383   34.2621 H   0  0  0  0  0  0  0  0  0  0  0  0
   43.9879   32.7611   33.9076 H   0  0  0  0  0  0  0  0  0  0  0  0
   45.5524   32.5002   33.0911 H   0  0  0  0  0  0  0  0  0  0  0  0
   45.6007   35.8093   42.1112 H   0  0  0  0  0  0  0  0  0  0  0  0
   43.6289   31.9428   41.7884 H   0  0  0  0  0  0  0  0  0  0  0  0
   45.2666   34.3748   46.8352 H   0  0  0  0  0  0  0  0  0  0  0  0
   46.5802   33.0165   48.6146 H   0  0  0  0  0  0  0  0  0  0  0  0
   48.2291   30.7144   48.6813 H   0  0  0  0  0  0  0  0  0  0  0  0
   49.1920   28.9733   47.2292 H   0  0  0  0  0  0  0  0  0  0  0  0
   48.7183   28.9688   44.7713 H   0  0  0  0  0  0  0  0  0  0  0  0
   47.2625   30.7576   43.8233 H   0  0  0  0  0  0  0  0  0  0  0  0
  1  2  1  0
  1 18  1  0
  3  2  1  0
  4  3  1  0
  4  5  1  0
  5  1  1  0
  6  5  1  0
  6  7  1  0
  8  7  2  0
  9 16  2  0
  9  8  1  0
 10  9  1  0
 11 10  2  0
 12 13  1  0
 12 10  1  0
 13 15  2  0
 14 13  1  0
 15 16  1  0
 16  6  1  0
 17 22  2  0
 18 19  2  0
 18 17  1  0
 19 20  1  0
 20 21  2  0
 21 23  1  0
 22 21  1  0
 23 31  1  0
 23 24  2  0
 24 25  1  0
 26 27  2  0
 26 25  1  0
 28 27  1  0
 29 28  2  0
 30 29  1  0
 30 31  2  0
 31 26  1  0
  1 32  1  6
  2 33  1  0
  2 34  1  0
  3 35  1  0
  3 36  1  0
  4 37  1  0
  4 38  1  0
  5 39  1  1
  7 40  1  0
 12 41  1  0
 14 42  1  0
 14 43  1  0
 17 44  1  0
 19 45  1  0
 24 46  1  0
 25 47  1  0
 27 48  1  0
 28 49  1  0
 29 50  1  0
 30 51  1  0
M  END
>  <Score>  (1) 
-7.21803

$$$$
