
     RDKit          3D

 51 56  0  0  1  0  0  0  0  0999 V2000
   48.2130   31.1920   48.6290 C   0  0  0  0  0  0  0  0  0  0  0  0
   49.0330   32.2200   49.1340 C   0  0  0  0  0  0  0  0  0  0  0  0
   50.2130   31.8810   49.7460 C   0  0  0  0  0  0  0  0  0  0  0  0
   50.5460   30.5460   49.8370 C   0  0  0  0  0  0  0  0  0  0  0  0
   49.0960   29.6820   49.0040 S   0  0  0  0  0  0  0  0  0  0  0  0
   44.6070   35.8110   44.9380 C   0  0  0  0  0  0  0  0  0  0  0  0
   45.1090   35.6420   43.6250 C   0  0  0  0  0  0  0  0  0  0  0  0
   45.8580   34.4700   43.3430 C   0  0  0  0  0  0  0  0  0  0  0  0
   46.0580   33.5650   44.3510 N   0  0  0  0  0  0  0  0  0  0  0  0
   45.5570   33.7730   45.5870 C   0  0  0  0  0  0  0  0  0  0  0  0
   44.8300   34.8930   45.8890 N   0  0  0  0  0  0  0  0  0  0  0  0
   45.8060   32.7970   46.5680 N   0  0  0  0  0  0  0  0  0  0  0  0
   44.9560   32.3860   47.6370 C   0  0  0  0  0  0  0  0  0  0  0  0
   45.9540   32.0310   48.7060 C   0  0  0  0  0  0  0  0  0  0  0  0
   46.9270   31.2210   47.9290 C   0  0  1  0  0  0  0  0  0  0  0  0
   47.0520   32.0320   46.6180 C   0  0  0  0  0  0  0  0  0  0  0  0
   51.6860   29.9270   50.4040 N   0  0  0  0  0  0  0  0  0  0  0  0
   52.4120   28.9370   49.9520 C   0  0  0  0  0  0  0  0  0  0  0  0
   53.4020   28.6640   50.8340 N   0  0  0  0  0  0  0  0  0  0  0  0
   53.2890   29.5040   51.8580 C   0  0  0  0  0  0  0  0  0  0  0  0
   52.2170   30.2760   51.5670 N   0  0  0  0  0  0  0  0  0  0  0  0
   53.9700   29.7860   53.1210 C   0  0  0  0  0  0  0  0  0  0  0  0
   55.1730   29.2170   53.5180 C   0  0  0  0  0  0  0  0  0  0  0  0
   55.7890   29.5010   54.7100 C   0  0  0  0  0  0  0  0  0  0  0  0
   55.2310   30.3900   55.5980 C   0  0  0  0  0  0  0  0  0  0  0  0
   54.0460   30.9770   55.2500 C   0  0  0  0  0  0  0  0  0  0  0  0
   53.5210   31.8610   56.1660 C   0  0  0  0  0  0  0  0  0  0  0  0
   52.3300   32.5000   55.9030 C   0  0  0  0  0  0  0  0  0  0  0  0
   51.7080   32.2250   54.7190 C   0  0  0  0  0  0  0  0  0  0  0  0
   52.2770   31.3310   53.8370 C   0  0  0  0  0  0  0  0  0  0  0  0
   53.4630   30.6660   54.0500 C   0  0  0  0  0  0  0  0  0  0  0  0
   48.7330   33.2741   49.0395 H   0  0  0  0  0  0  0  0  0  0  0  0
   50.8780   32.6561   50.1546 H   0  0  0  0  0  0  0  0  0  0  0  0
   44.0239   36.7112   45.1820 H   0  0  0  0  0  0  0  0  0  0  0  0
   44.9240   36.3968   42.8465 H   0  0  0  0  0  0  0  0  0  0  0  0
   46.2684   34.2927   42.3379 H   0  0  0  0  0  0  0  0  0  0  0  0
   44.2962   33.2043   47.9611 H   0  0  0  0  0  0  0  0  0  0  0  0
   44.2749   31.5635   47.3731 H   0  0  0  0  0  0  0  0  0  0  0  0
   46.4254   32.9287   49.1325 H   0  0  0  0  0  0  0  0  0  0  0  0
   45.5225   31.5110   49.5740 H   0  0  0  0  0  0  0  0  0  0  0  0
   46.6241   30.1746   47.7761 H   0  0  0  0  0  0  0  0  0  0  0  0
   47.1376   31.3632   45.7489 H   0  0  0  0  0  0  0  0  0  0  0  0
   47.9474   32.6705   46.5935 H   0  0  0  0  0  0  0  0  0  0  0  0
   52.2440   28.4082   49.0022 H   0  0  0  0  0  0  0  0  0  0  0  0
   55.6581   28.4997   52.8397 H   0  0  0  0  0  0  0  0  0  0  0  0
   56.7419   29.0111   54.9588 H   0  0  0  0  0  0  0  0  0  0  0  0
   55.7209   30.6211   56.5554 H   0  0  0  0  0  0  0  0  0  0  0  0
   54.0534   32.0568   57.1084 H   0  0  0  0  0  0  0  0  0  0  0  0
   51.8941   33.2085   56.6228 H   0  0  0  0  0  0  0  0  0  0  0  0
   50.7555   32.7154   54.4695 H   0  0  0  0  0  0  0  0  0  0  0  0
   51.7444   31.1350   52.8947 H   0  0  0  0  0  0  0  0  0  0  0  0
  1  5  1  0
  1  2  2  0
  2  3  1  0
  3  4  2  0
  4 17  1  0
  5  4  1  0
  6 11  2  0
  7  6  1  0
  8  7  2  0
  8  9  1  0
  9 10  2  0
 10 11  1  0
 10 12  1  0
 12 16  1  0
 12 13  1  0
 13 14  1  0
 15  1  1  0
 15 14  1  0
 16 15  1  0
 17 21  1  0
 18 17  1  0
 18 19  2  0
 19 20  1  0
 20 22  1  0
 21 20  2  0
 22 23  2  0
 22 31  1  0
 23 24  1  0
 24 25  2  0
 26 25  1  0
 26 27  2  0
 28 27  1  0
 29 28  2  0
 30 31  2  0
 30 29  1  0
 31 26  1  0
  2 32  1  0
  3 33  1  0
  6 34  1  0
  7 35  1  0
  8 36  1  0
 13 37  1  0
 13 38  1  0
 14 39  1  0
 14 40  1  0
 15 41  1  6
 16 42  1  0
 16 43  1  0
 18 44  1  0
 23 45  1  0
 24 46  1  0
 25 47  1  0
 27 48  1  0
 28 49  1  0
 29 50  1  0
 30 51  1  0
M  END
>  <Score>  (1) 
-7.72149

$$$$
