
     RDKit          3D

 48 53  0  0  1  0  0  0  0  0999 V2000
   43.9430   34.3450   40.5850 C   0  0  2  0  0  0  0  0  0  0  0  0
   42.3920   34.4790   40.5850 C   0  0  0  0  0  0  0  0  0  0  0  0
   42.2330   34.9300   39.1270 C   0  0  0  0  0  0  0  0  0  0  0  0
   43.1570   34.0270   38.4160 C   0  0  0  0  0  0  0  0  0  0  0  0
   44.0980   33.4410   39.4630 C   0  0  1  0  0  0  0  0  0  0  0  0
   45.1230   34.8940   42.6700 C   0  0  0  0  0  0  0  0  0  0  0  0
   44.4680   33.9200   41.8900 C   0  0  0  0  0  0  0  0  0  0  0  0
   44.3570   32.5980   42.3660 C   0  0  0  0  0  0  0  0  0  0  0  0
   44.9010   32.3230   43.5800 N   0  0  0  0  0  0  0  0  0  0  0  0
   45.5270   33.2750   44.3130 C   0  0  0  0  0  0  0  0  0  0  0  0
   45.6390   34.5480   43.8670 N   0  0  0  0  0  0  0  0  0  0  0  0
   46.0300   32.7860   45.5600 N   0  0  0  0  0  0  0  0  0  0  0  0
   45.8460   33.1840   46.8320 C   0  0  0  0  0  0  0  0  0  0  0  0
   46.5650   32.3590   47.6200 N   0  0  0  0  0  0  0  0  0  0  0  0
   47.1960   31.4530   46.8580 C   0  0  0  0  0  0  0  0  0  0  0  0
   48.0280   30.4350   47.2380 C   0  0  0  0  0  0  0  0  0  0  0  0
   48.5420   29.6510   46.2530 N   0  0  0  0  0  0  0  0  0  0  0  0
   48.2150   29.9100   44.9730 C   0  0  0  0  0  0  0  0  0  0  0  0
   47.3950   30.9090   44.5680 N   0  0  0  0  0  0  0  0  0  0  0  0
   46.8680   31.7080   45.5420 C   0  0  0  0  0  0  0  0  0  0  0  0
   45.4190   33.2780   38.9130 N   0  0  0  0  0  0  0  0  0  0  0  0
   46.5630   33.2920   39.6180 C   0  0  0  0  0  0  0  0  0  0  0  0
   47.6120   33.1160   38.8180 N   0  0  0  0  0  0  0  0  0  0  0  0
   47.1020   32.9860   37.5700 C   0  0  0  0  0  0  0  0  0  0  0  0
   47.7830   32.7860   36.3920 C   0  0  0  0  0  0  0  0  0  0  0  0
   49.0490   32.6950   36.3610 O   0  0  0  0  0  0  0  0  0  0  0  0
   47.0450   32.6900   35.2760 N   0  0  0  0  0  0  0  0  0  0  0  0
   45.6860   32.7870   35.3070 C   0  0  0  0  0  0  0  0  0  0  0  0
   45.0300   32.6720   34.0400 N   0  0  0  0  0  0  0  0  0  0  0  0
   45.0500   32.9850   36.4890 N   0  0  0  0  0  0  0  0  0  0  0  0
   45.7360   33.0870   37.6260 C   0  0  0  0  0  0  0  0  0  0  0  0
   44.5342   35.2639   40.4585 H   0  0  0  0  0  0  0  0  0  0  0  0
   41.8885   33.5217   40.7850 H   0  0  0  0  0  0  0  0  0  0  0  0
   41.9586   35.1392   41.3507 H   0  0  0  0  0  0  0  0  0  0  0  0
   41.1982   34.7956   38.7791 H   0  0  0  0  0  0  0  0  0  0  0  0
   42.4514   35.9966   38.9696 H   0  0  0  0  0  0  0  0  0  0  0  0
   42.5934   33.2222   37.9214 H   0  0  0  0  0  0  0  0  0  0  0  0
   43.7190   34.5694   37.6415 H   0  0  0  0  0  0  0  0  0  0  0  0
   43.8770   32.4174   39.7996 H   0  0  0  0  0  0  0  0  0  0  0  0
   45.2126   35.9280   42.3055 H   0  0  0  0  0  0  0  0  0  0  0  0
   43.8497   31.8194   41.7775 H   0  0  0  0  0  0  0  0  0  0  0  0
   45.2238   34.0269   47.1673 H   0  0  0  0  0  0  0  0  0  0  0  0
   48.2708   30.2583   48.2962 H   0  0  0  0  0  0  0  0  0  0  0  0
   48.6467   29.2608   44.1970 H   0  0  0  0  0  0  0  0  0  0  0  0
   46.6241   33.4301   40.7076 H   0  0  0  0  0  0  0  0  0  0  0  0
   47.5172   32.5392   34.3731 H   0  0  0  0  0  0  0  0  0  0  0  0
   44.0035   32.7352   33.9839 H   0  0  0  0  0  0  0  0  0  0  0  0
   45.5845   32.5260   33.1843 H   0  0  0  0  0  0  0  0  0  0  0  0
  1  7  1  0
  2  1  1  0
  3  2  1  0
  4  3  1  0
  4  5  1  0
  5  1  1  0
  6 11  2  0
  7  8  2  0
  7  6  1  0
  8  9  1  0
  9 10  2  0
 10 12  1  0
 11 10  1  0
 12 13  1  0
 13 14  2  0
 15 16  2  0
 15 14  1  0
 17 16  1  0
 18 17  2  0
 19 18  1  0
 19 20  2  0
 20 12  1  0
 20 15  1  0
 21  5  1  0
 21 22  1  0
 23 22  2  0
 24 31  2  0
 24 23  1  0
 25 24  1  0
 26 25  2  0
 27 28  1  0
 27 25  1  0
 28 30  2  0
 29 28  1  0
 30 31  1  0
 31 21  1  0
  1 32  1  6
  2 33  1  0
  2 34  1  0
  3 35  1  0
  3 36  1  0
  4 37  1  0
  4 38  1  0
  5 39  1  1
  6 40  1  0
  8 41  1  0
 13 42  1  0
 16 43  1  0
 18 44  1  0
 22 45  1  0
 27 46  1  0
 29 47  1  0
 29 48  1  0
M  END
>  <Score>  (1) 
-7.26338

$$$$
