
     RDKit          3D

 39 42  0  0  0  0  0  0  0  0999 V2000
   46.8610   34.7260   41.9270 C   0  0  0  0  0  0  0  0  0  0  0  0
   48.1870   35.1410   41.7180 C   0  0  0  0  0  0  0  0  0  0  0  0
   48.4310   34.7480   40.4030 C   0  0  0  0  0  0  0  0  0  0  0  0
   47.2750   34.1360   39.9080 C   0  0  0  0  0  0  0  0  0  0  0  0
   46.3800   34.1560   40.8640 O   0  0  0  0  0  0  0  0  0  0  0  0
   44.5040   36.0870   44.4630 C   0  0  0  0  0  0  0  0  0  0  0  0
   45.2310   35.9640   43.2300 C   0  0  0  0  0  0  0  0  0  0  0  0
   46.0990   34.8940   43.1550 C   0  0  0  0  0  0  0  0  0  0  0  0
   46.2150   34.0440   44.2100 N   0  0  0  0  0  0  0  0  0  0  0  0
   45.5160   34.1930   45.3470 C   0  0  0  0  0  0  0  0  0  0  0  0
   44.6520   35.2270   45.4730 N   0  0  0  0  0  0  0  0  0  0  0  0
   45.7470   33.2160   46.3490 N   0  0  0  0  0  0  0  0  0  0  0  0
   45.1180   33.1670   47.5190 N   0  0  0  0  0  0  0  0  0  0  0  0
   45.5280   32.1340   48.2620 C   0  0  0  0  0  0  0  0  0  0  0  0
   46.5080   31.4560   47.5090 C   0  0  0  0  0  0  0  0  0  0  0  0
   46.6090   32.1690   46.3240 C   0  0  0  0  0  0  0  0  0  0  0  0
   47.1160   33.6010   38.6130 N   0  0  0  0  0  0  0  0  0  0  0  0
   46.2100   32.6330   38.4360 C   0  0  0  0  0  0  0  0  0  0  0  0
   45.9960   32.0720   37.2000 C   0  0  0  0  0  0  0  0  0  0  0  0
   46.7370   32.5240   36.1290 C   0  0  0  0  0  0  0  0  0  0  0  0
   46.5410   32.0100   34.9950 O   0  0  0  0  0  0  0  0  0  0  0  0
   47.6500   33.5110   36.3520 N   0  0  0  0  0  0  0  0  0  0  0  0
   47.8360   34.0440   37.5870 C   0  0  0  0  0  0  0  0  0  0  0  0
   48.6870   34.9500   37.7320 O   0  0  0  0  0  0  0  0  0  0  0  0
   44.9580   31.0380   37.0700 C   0  0  0  0  0  0  0  0  0  0  0  0
   43.8380   31.6950   36.3620 N   0  0  0  0  0  0  0  0  0  0  0  0
   48.8650   35.6501   42.4188 H   0  0  0  0  0  0  0  0  0  0  0  0
   49.3706   34.8940   39.8501 H   0  0  0  0  0  0  0  0  0  0  0  0
   43.7979   36.9224   44.5792 H   0  0  0  0  0  0  0  0  0  0  0  0
   45.1041   36.6756   42.4008 H   0  0  0  0  0  0  0  0  0  0  0  0
   45.1699   31.8651   49.2667 H   0  0  0  0  0  0  0  0  0  0  0  0
   47.0707   30.5563   47.7987 H   0  0  0  0  0  0  0  0  0  0  0  0
   47.2846   31.9232   45.4914 H   0  0  0  0  0  0  0  0  0  0  0  0
   45.6244   32.2789   39.2972 H   0  0  0  0  0  0  0  0  0  0  0  0
   48.2131   33.8614   35.5639 H   0  0  0  0  0  0  0  0  0  0  0  0
   45.3350   30.1850   36.4866 H   0  0  0  0  0  0  0  0  0  0  0  0
   44.6485   30.6428   38.0488 H   0  0  0  0  0  0  0  0  0  0  0  0
   43.1770   32.0827   37.0502 H   0  0  0  0  0  0  0  0  0  0  0  0
   44.2040   32.4553   35.7713 H   0  0  0  0  0  0  0  0  0  0  0  0
  1  8  1  0
  2  1  2  0
  3  2  1  0
  4  3  2  0
  4  5  1  0
  5  1  1  0
  6 11  2  0
  7  6  1  0
  8  7  2  0
  8  9  1  0
  9 10  2  0
 10 11  1  0
 10 12  1  0
 12 13  1  0
 13 14  2  0
 15 14  1  0
 16 12  1  0
 16 15  2  0
 17  4  1  0
 18 17  1  0
 19 18  2  0
 20 22  1  0
 20 19  1  0
 21 20  2  0
 22 23  1  0
 23 24  2  0
 23 17  1  0
 25 19  1  0
 26 25  1  0
  2 27  1  0
  3 28  1  0
  6 29  1  0
  7 30  1  0
 14 31  1  0
 15 32  1  0
 16 33  1  0
 18 34  1  0
 22 35  1  0
 25 36  1  0
 25 37  1  0
 26 38  1  0
 26 39  1  0
M  END
>  <Score>  (1) 
-7.46534

$$$$
