
     RDKit          3D

 35 39  0  0  0  0  0  0  0  0999 V2000
   44.6210   35.9850   44.4030 C   0  0  0  0  0  0  0  0  0  0  0  0
   45.4410   35.9680   43.2470 C   0  0  0  0  0  0  0  0  0  0  0  0
   46.3690   34.9410   43.1350 C   0  0  0  0  0  0  0  0  0  0  0  0
   46.4580   33.9930   44.1300 N   0  0  0  0  0  0  0  0  0  0  0  0
   45.6510   34.0620   45.2070 C   0  0  0  0  0  0  0  0  0  0  0  0
   44.7390   35.0350   45.3620 N   0  0  0  0  0  0  0  0  0  0  0  0
   45.7940   33.0490   46.2020 N   0  0  0  0  0  0  0  0  0  0  0  0
   45.1900   33.0320   47.4070 C   0  0  0  0  0  0  0  0  0  0  0  0
   45.5560   31.9290   48.0790 N   0  0  0  0  0  0  0  0  0  0  0  0
   46.4040   31.2200   47.3110 C   0  0  0  0  0  0  0  0  0  0  0  0
   47.0600   30.0190   47.5380 C   0  0  0  0  0  0  0  0  0  0  0  0
   47.8470   29.5860   46.5410 N   0  0  0  0  0  0  0  0  0  0  0  0
   47.9830   30.2820   45.3980 C   0  0  0  0  0  0  0  0  0  0  0  0
   47.3440   31.4600   45.1660 N   0  0  0  0  0  0  0  0  0  0  0  0
   46.5450   31.9330   46.1350 C   0  0  0  0  0  0  0  0  0  0  0  0
   47.2220   34.9090   41.9500 C   0  0  0  0  0  0  0  0  0  0  0  0
   48.4790   35.4870   41.8070 C   0  0  0  0  0  0  0  0  0  0  0  0
   48.9340   35.2290   40.5590 N   0  0  0  0  0  0  0  0  0  0  0  0
   48.0040   34.5080   39.9190 C   0  0  0  0  0  0  0  0  0  0  0  0
   48.0070   34.0020   38.6320 C   0  0  0  0  0  0  0  0  0  0  0  0
   46.9070   33.2830   38.2230 C   0  0  0  0  0  0  0  0  0  0  0  0
   45.7820   33.0210   39.0030 C   0  0  0  0  0  0  0  0  0  0  0  0
   45.8540   33.5580   40.2710 C   0  0  0  0  0  0  0  0  0  0  0  0
   46.9110   34.2860   40.7600 C   0  0  0  0  0  0  0  0  0  0  0  0
   43.8750   36.7843   44.5239 H   0  0  0  0  0  0  0  0  0  0  0  0
   45.3459   36.7390   42.4682 H   0  0  0  0  0  0  0  0  0  0  0  0
   44.5022   33.8041   47.7824 H   0  0  0  0  0  0  0  0  0  0  0  0
   46.9425   29.4569   48.4762 H   0  0  0  0  0  0  0  0  0  0  0  0
   48.6418   29.8796   44.6143 H   0  0  0  0  0  0  0  0  0  0  0  0
   49.0141   36.0586   42.5796 H   0  0  0  0  0  0  0  0  0  0  0  0
   49.8374   35.5337   40.1693 H   0  0  0  0  0  0  0  0  0  0  0  0
   48.8600   34.1686   37.9577 H   0  0  0  0  0  0  0  0  0  0  0  0
   46.9165   32.8830   37.1983 H   0  0  0  0  0  0  0  0  0  0  0  0
   44.9196   32.4415   38.6418 H   0  0  0  0  0  0  0  0  0  0  0  0
   44.9991   33.3904   40.9426 H   0  0  0  0  0  0  0  0  0  0  0  0
  1  6  2  0
  2  1  1  0
  3  2  2  0
  3  4  1  0
  4  5  2  0
  5  6  1  0
  5  7  1  0
  7  8  1  0
  8  9  2  0
 10 11  2  0
 10  9  1  0
 12 11  1  0
 13 12  2  0
 14 13  1  0
 14 15  2  0
 15  7  1  0
 15 10  1  0
 16  3  1  0
 17 16  2  0
 18 17  1  0
 19 18  1  0
 19 24  2  0
 20 19  1  0
 21 20  2  0
 21 22  1  0
 22 23  2  0
 23 24  1  0
 24 16  1  0
  1 25  1  0
  2 26  1  0
  8 27  1  0
 11 28  1  0
 13 29  1  0
 17 30  1  0
 18 31  1  0
 20 32  1  0
 21 33  1  0
 22 34  1  0
 23 35  1  0
M  END
>  <Score>  (1) 
-7.54668

$$$$
