
     RDKit          3D

 46 50  0  0  0  0  0  0  0  0999 V2000
   46.7360   34.7990   41.7350 C   0  0  0  0  0  0  0  0  0  0  0  0
   44.5730   35.8760   44.5900 C   0  0  0  0  0  0  0  0  0  0  0  0
   45.1800   35.8430   43.3270 C   0  0  0  0  0  0  0  0  0  0  0  0
   46.0840   34.8480   43.0650 C   0  0  0  0  0  0  0  0  0  0  0  0
   46.3540   33.9370   44.0410 N   0  0  0  0  0  0  0  0  0  0  0  0
   45.7570   33.9840   45.2610 C   0  0  0  0  0  0  0  0  0  0  0  0
   44.8540   34.9720   45.5280 N   0  0  0  0  0  0  0  0  0  0  0  0
   46.0580   33.0060   46.2860 C   0  0  0  0  0  0  0  0  0  0  0  0
   45.3590   33.0320   47.4980 C   0  0  0  0  0  0  0  0  0  0  0  0
   45.6000   32.1300   48.5160 C   0  0  0  0  0  0  0  0  0  0  0  0
   46.5710   31.2300   48.2210 C   0  0  0  0  0  0  0  0  0  0  0  0
   47.2950   31.1490   47.0510 C   0  0  0  0  0  0  0  0  0  0  0  0
   46.9790   32.0800   46.1230 N   0  0  0  0  0  0  0  0  0  0  0  0
   44.3690   34.0330   47.6660 N   0  0  0  0  0  0  0  0  0  0  0  0
   48.1720   35.2970   41.7710 C   0  0  0  0  0  0  0  0  0  0  0  0
   49.1310   34.2040   42.0360 C   0  0  0  0  0  0  0  0  0  0  0  0
   50.4150   34.4410   42.3770 N   0  0  0  0  0  0  0  0  0  0  0  0
   51.0050   33.2960   42.5440 O   0  0  0  0  0  0  0  0  0  0  0  0
   50.1350   32.3190   42.3210 C   0  0  0  0  0  0  0  0  0  0  0  0
   48.9440   32.8710   41.9990 N   0  0  0  0  0  0  0  0  0  0  0  0
   50.5520   30.9570   42.4420 N   0  0  0  0  0  0  0  0  0  0  0  0
   50.4550   30.0560   43.4130 N   0  0  0  0  0  0  0  0  0  0  0  0
   51.0150   28.8980   43.0270 C   0  0  0  0  0  0  0  0  0  0  0  0
   51.4880   29.0970   41.7390 C   0  0  0  0  0  0  0  0  0  0  0  0
   51.1780   30.4220   41.3870 C   0  0  0  0  0  0  0  0  0  0  0  0
   51.5700   30.9120   40.0390 C   0  0  0  0  0  0  0  0  0  0  0  0
   50.8230   31.2740   39.0060 C   0  0  0  0  0  0  0  0  0  0  0  0
   51.4170   31.6870   37.8460 C   0  0  0  0  0  0  0  0  0  0  0  0
   52.8340   31.6970   37.8300 C   0  0  0  0  0  0  0  0  0  0  0  0
   53.2480   31.0850   39.5630 S   0  0  0  0  0  0  0  0  0  0  0  0
   46.1623   35.4272   41.0377 H   0  0  0  0  0  0  0  0  0  0  0  0
   46.7551   33.7480   41.4110 H   0  0  0  0  0  0  0  0  0  0  0  0
   43.8448   36.6697   44.8130 H   0  0  0  0  0  0  0  0  0  0  0  0
   44.9363   36.5978   42.5649 H   0  0  0  0  0  0  0  0  0  0  0  0
   45.0573   32.1405   49.4728 H   0  0  0  0  0  0  0  0  0  0  0  0
   46.8053   30.4866   48.9972 H   0  0  0  0  0  0  0  0  0  0  0  0
   48.0698   30.3860   46.8851 H   0  0  0  0  0  0  0  0  0  0  0  0
   43.8330   34.0850   48.5440 H   0  0  0  0  0  0  0  0  0  0  0  0
   44.1859   34.7082   46.9101 H   0  0  0  0  0  0  0  0  0  0  0  0
   48.4138   35.7539   40.8000 H   0  0  0  0  0  0  0  0  0  0  0  0
   48.2572   36.0290   42.5877 H   0  0  0  0  0  0  0  0  0  0  0  0
   51.0848   27.9725   43.6174 H   0  0  0  0  0  0  0  0  0  0  0  0
   52.0075   28.3579   41.1114 H   0  0  0  0  0  0  0  0  0  0  0  0
   49.7261   31.2422   39.0818 H   0  0  0  0  0  0  0  0  0  0  0  0
   50.8260   31.9954   36.9710 H   0  0  0  0  0  0  0  0  0  0  0  0
   53.5155   31.9869   37.0166 H   0  0  0  0  0  0  0  0  0  0  0  0
  1 15  1  0
  1  4  1  0
  2  7  2  0
  3  2  1  0
  4  3  2  0
  4  5  1  0
  5  6  2  0
  6  7  1  0
  6  8  1  0
  8  9  2  0
  9 14  1  0
  9 10  1  0
 11 10  2  0
 12 11  1  0
 13  8  1  0
 13 12  2  0
 15 16  1  0
 16 17  2  0
 17 18  1  0
 19 21  1  0
 19 18  1  0
 20 16  1  0
 20 19  2  0
 21 22  1  0
 23 22  2  0
 24 23  1  0
 25 24  2  0
 25 21  1  0
 26 25  1  0
 27 26  2  0
 28 27  1  0
 29 28  2  0
 29 30  1  0
 30 26  1  0
  1 31  1  0
  1 32  1  0
  2 33  1  0
  3 34  1  0
 10 35  1  0
 11 36  1  0
 12 37  1  0
 14 38  1  0
 14 39  1  0
 15 40  1  0
 15 41  1  0
 23 42  1  0
 24 43  1  0
 27 44  1  0
 28 45  1  0
 29 46  1  0
M  END
>  <Score>  (1) 
-7.47089

$$$$
