
     RDKit          3D

 51 56  0  0  1  0  0  0  0  0999 V2000
   44.4490   35.8460   44.6840 C   0  0  0  0  0  0  0  0  0  0  0  0
   44.9740   35.6080   43.4030 C   0  0  0  0  0  0  0  0  0  0  0  0
   45.8230   34.5180   43.2430 C   0  0  0  0  0  0  0  0  0  0  0  0
   46.0980   33.7530   44.3090 N   0  0  0  0  0  0  0  0  0  0  0  0
   45.5670   34.0190   45.5380 C   0  0  0  0  0  0  0  0  0  0  0  0
   44.7510   35.0520   45.7320 N   0  0  0  0  0  0  0  0  0  0  0  0
   45.9350   33.1180   46.6300 C   0  0  0  0  0  0  0  0  0  0  0  0
   45.0810   32.9390   47.6950 C   0  0  0  0  0  0  0  0  0  0  0  0
   45.6540   32.0500   48.5810 C   0  0  0  0  0  0  0  0  0  0  0  0
   46.8380   31.7110   48.0360 N   0  0  0  0  0  0  0  0  0  0  0  0
   47.0140   32.3430   46.8720 N   0  0  0  0  0  0  0  0  0  0  0  0
   49.1830   29.1070   48.8240 N   0  0  0  0  0  0  0  0  0  0  0  0
   48.0760   29.5170   48.2160 N   0  0  0  0  0  0  0  0  0  0  0  0
   47.8790   30.8390   48.4660 C   0  0  0  0  0  0  0  0  0  0  0  0
   48.9160   31.2750   49.2710 C   0  0  0  0  0  0  0  0  0  0  0  0
   49.7110   30.1690   49.4750 C   0  0  0  0  0  0  0  0  0  0  0  0
   46.4200   34.1970   41.9230 C   0  0  0  0  0  0  0  0  0  0  0  0
   47.4370   35.2910   41.6140 C   0  0  0  0  0  0  0  0  0  0  0  0
   48.8090   34.7790   41.4010 C   0  0  1  0  0  0  0  0  0  0  0  0
   49.8000   35.0300   42.5390 C   0  0  0  0  0  0  0  0  0  0  0  0
   49.3780   33.6500   42.1700 C   0  0  2  0  0  0  0  0  0  0  0  0
   50.2250   32.6240   41.6150 C   0  0  0  0  0  0  0  0  0  0  0  0
   51.2820   32.1700   42.4240 C   0  0  0  0  0  0  0  0  0  0  0  0
   51.9490   31.2120   41.7610 N   0  0  0  0  0  0  0  0  0  0  0  0
   51.4320   30.9770   40.5630 C   0  0  0  0  0  0  0  0  0  0  0  0
   51.6670   30.1610   39.4850 C   0  0  0  0  0  0  0  0  0  0  0  0
   50.8520   30.2420   38.3830 C   0  0  0  0  0  0  0  0  0  0  0  0
   49.7760   31.1300   38.3010 C   0  0  0  0  0  0  0  0  0  0  0  0
   49.5400   31.9500   39.3860 C   0  0  0  0  0  0  0  0  0  0  0  0
   50.3690   31.8510   40.4810 C   0  0  0  0  0  0  0  0  0  0  0  0
   43.7745   36.7015   44.8365 H   0  0  0  0  0  0  0  0  0  0  0  0
   44.7221   36.2617   42.5549 H   0  0  0  0  0  0  0  0  0  0  0  0
   44.1021   33.4252   47.8192 H   0  0  0  0  0  0  0  0  0  0  0  0
   45.2325   31.6932   49.5323 H   0  0  0  0  0  0  0  0  0  0  0  0
   49.5699   28.1526   48.8037 H   0  0  0  0  0  0  0  0  0  0  0  0
   49.0725   32.2901   49.6648 H   0  0  0  0  0  0  0  0  0  0  0  0
   50.6330   30.1518   50.0747 H   0  0  0  0  0  0  0  0  0  0  0  0
   46.9193   33.2177   41.9626 H   0  0  0  0  0  0  0  0  0  0  0  0
   45.6454   34.1504   41.1434 H   0  0  0  0  0  0  0  0  0  0  0  0
   47.1164   35.8170   40.7027 H   0  0  0  0  0  0  0  0  0  0  0  0
   47.4724   35.9562   42.4893 H   0  0  0  0  0  0  0  0  0  0  0  0
   48.7283   34.9730   40.3213 H   0  0  0  0  0  0  0  0  0  0  0  0
   50.8211   35.3744   42.3181 H   0  0  0  0  0  0  0  0  0  0  0  0
   49.8022   35.6308   43.4605 H   0  0  0  0  0  0  0  0  0  0  0  0
   48.9582   32.8061   42.7371 H   0  0  0  0  0  0  0  0  0  0  0  0
   51.5222   32.5385   43.4322 H   0  0  0  0  0  0  0  0  0  0  0  0
   52.7686   30.7163   42.1397 H   0  0  0  0  0  0  0  0  0  0  0  0
   52.5031   29.4465   39.5036 H   0  0  0  0  0  0  0  0  0  0  0  0
   51.0546   29.5798   37.5283 H   0  0  0  0  0  0  0  0  0  0  0  0
   49.1402   31.1739   37.4044 H   0  0  0  0  0  0  0  0  0  0  0  0
   48.7066   32.6679   39.3761 H   0  0  0  0  0  0  0  0  0  0  0  0
  1  6  2  0
  2  1  1  0
  3  2  2  0
  3  4  1  0
  4  5  2  0
  5  6  1  0
  5  7  1  0
  7 11  2  0
  7  8  1  0
  8  9  2  0
 10 14  1  0
 10  9  1  0
 11 10  1  0
 12 16  1  0
 13 14  2  0
 13 12  1  0
 14 15  1  0
 15 16  2  0
 17  3  1  0
 18 17  1  0
 19 18  1  0
 19 21  1  0
 19 20  1  0
 21 20  1  0
 22 21  1  0
 22 23  2  0
 24 23  1  0
 25 24  1  0
 26 25  2  0
 27 26  1  0
 28 27  2  0
 28 29  1  0
 29 30  2  0
 30 25  1  0
 30 22  1  0
  1 31  1  0
  2 32  1  0
  8 33  1  0
  9 34  1  0
 12 35  1  0
 15 36  1  0
 16 37  1  0
 17 38  1  0
 17 39  1  0
 18 40  1  0
 18 41  1  0
 19 42  1  6
 20 43  1  0
 20 44  1  0
 21 45  1  1
 23 46  1  0
 24 47  1  0
 26 48  1  0
 27 49  1  0
 28 50  1  0
 29 51  1  0
M  END
>  <Score>  (1) 
-7.2481

$$$$
