
     RDKit          3D

 46 50  0  0  0  0  0  0  0  0999 V2000
   44.8060   32.9180   41.4490 N   0  0  0  0  0  0  0  0  0  0  0  0
   44.6800   31.7720   42.1710 C   0  0  0  0  0  0  0  0  0  0  0  0
   43.4450   31.2170   42.3320 C   0  0  0  0  0  0  0  0  0  0  0  0
   42.3120   31.7830   41.7820 C   0  0  0  0  0  0  0  0  0  0  0  0
   41.1790   31.2470   41.9470 O   0  0  0  0  0  0  0  0  0  0  0  0
   42.4910   32.9360   41.0630 N   0  0  0  0  0  0  0  0  0  0  0  0
   43.6990   33.4760   40.9080 C   0  0  0  0  0  0  0  0  0  0  0  0
   43.7100   34.5410   40.2190 O   0  0  0  0  0  0  0  0  0  0  0  0
   46.4910   34.5190   42.1100 C   0  0  0  0  0  0  0  0  0  0  0  0
   47.6470   35.1810   41.8230 C   0  0  0  0  0  0  0  0  0  0  0  0
   48.3530   34.9840   40.6270 C   0  0  0  0  0  0  0  0  0  0  0  0
   47.8410   34.0650   39.6920 C   0  0  0  0  0  0  0  0  0  0  0  0
   46.6560   33.3840   39.9820 C   0  0  0  0  0  0  0  0  0  0  0  0
   46.0100   33.6270   41.1820 C   0  0  0  0  0  0  0  0  0  0  0  0
   44.4350   36.0320   44.8770 C   0  0  0  0  0  0  0  0  0  0  0  0
   45.0080   35.8680   43.6150 C   0  0  0  0  0  0  0  0  0  0  0  0
   45.8380   34.7960   43.3740 C   0  0  0  0  0  0  0  0  0  0  0  0
   46.0700   33.9240   44.3940 N   0  0  0  0  0  0  0  0  0  0  0  0
   45.5020   34.0980   45.6270 C   0  0  0  0  0  0  0  0  0  0  0  0
   44.6980   35.1350   45.8610 N   0  0  0  0  0  0  0  0  0  0  0  0
   41.2820   33.4670   40.5230 C   0  0  0  0  0  0  0  0  0  0  0  0
   40.8370   34.5930   41.2050 C   0  0  0  0  0  0  0  0  0  0  0  0
   39.6650   35.2340   40.8010 C   0  0  0  0  0  0  0  0  0  0  0  0
   38.9500   34.7360   39.7130 C   0  0  0  0  0  0  0  0  0  0  0  0
   39.4150   33.6040   39.0410 C   0  0  0  0  0  0  0  0  0  0  0  0
   38.7220   33.0830   37.9470 C   0  0  0  0  0  0  0  0  0  0  0  0
   39.2360   31.9680   37.3350 C   0  0  0  0  0  0  0  0  0  0  0  0
   40.4100   31.3410   37.7540 C   0  0  0  0  0  0  0  0  0  0  0  0
   41.1060   31.8610   38.8470 C   0  0  0  0  0  0  0  0  0  0  0  0
   40.5750   32.9780   39.4490 C   0  0  0  0  0  0  0  0  0  0  0  0
   45.5652   31.2980   42.6202 H   0  0  0  0  0  0  0  0  0  0  0  0
   43.3484   30.2908   42.9175 H   0  0  0  0  0  0  0  0  0  0  0  0
   48.0419   35.8979   42.5579 H   0  0  0  0  0  0  0  0  0  0  0  0
   49.2838   35.5342   40.4249 H   0  0  0  0  0  0  0  0  0  0  0  0
   48.3680   33.8849   38.7434 H   0  0  0  0  0  0  0  0  0  0  0  0
   46.2404   32.6618   39.2638 H   0  0  0  0  0  0  0  0  0  0  0  0
   43.7713   36.8869   45.0738 H   0  0  0  0  0  0  0  0  0  0  0  0
   44.7972   36.5931   42.8151 H   0  0  0  0  0  0  0  0  0  0  0  0
   45.7106   33.3767   46.4308 H   0  0  0  0  0  0  0  0  0  0  0  0
   41.4080   34.9787   42.0625 H   0  0  0  0  0  0  0  0  0  0  0  0
   39.3081   36.1257   41.3372 H   0  0  0  0  0  0  0  0  0  0  0  0
   38.0244   35.2322   39.3856 H   0  0  0  0  0  0  0  0  0  0  0  0
   37.7939   33.5513   37.5873 H   0  0  0  0  0  0  0  0  0  0  0  0
   38.6970   31.5482   36.4729 H   0  0  0  0  0  0  0  0  0  0  0  0
   40.7824   30.4485   37.2299 H   0  0  0  0  0  0  0  0  0  0  0  0
   42.0359   31.3988   39.2099 H   0  0  0  0  0  0  0  0  0  0  0  0
  1  2  1  0
  2  3  2  0
  4  5  2  0
  4  3  1  0
  6  4  1  0
  7  6  1  0
  7  1  1  0
  8  7  2  0
  9 17  1  0
 10  9  2  0
 11 10  1  0
 12 13  1  0
 12 11  2  0
 13 14  2  0
 14  1  1  0
 14  9  1  0
 15 20  2  0
 16 15  1  0
 17 16  2  0
 17 18  1  0
 18 19  2  0
 19 20  1  0
 21  6  1  0
 21 22  2  0
 23 22  1  0
 24 23  2  0
 25 30  2  0
 25 24  1  0
 26 25  1  0
 27 28  1  0
 27 26  2  0
 28 29  2  0
 29 30  1  0
 30 21  1  0
  2 31  1  0
  3 32  1  0
 10 33  1  0
 11 34  1  0
 12 35  1  0
 13 36  1  0
 15 37  1  0
 16 38  1  0
 19 39  1  0
 22 40  1  0
 23 41  1  0
 24 42  1  0
 26 43  1  0
 27 44  1  0
 28 45  1  0
 29 46  1  0
M  END
>  <Score>  (1) 
-7.97616

$$$$
