
     RDKit          3D

 42 45  0  0  0  0  0  0  0  0999 V2000
   44.5900   35.7970   44.5530 C   0  0  0  0  0  0  0  0  0  0  0  0
   45.0980   35.6690   43.2630 C   0  0  0  0  0  0  0  0  0  0  0  0
   45.9520   34.6090   42.9980 C   0  0  0  0  0  0  0  0  0  0  0  0
   46.2550   33.7430   44.0060 N   0  0  0  0  0  0  0  0  0  0  0  0
   45.7390   33.8970   45.2600 C   0  0  0  0  0  0  0  0  0  0  0  0
   44.8990   34.9400   45.5220 N   0  0  0  0  0  0  0  0  0  0  0  0
   46.0740   32.9660   46.3130 C   0  0  0  0  0  0  0  0  0  0  0  0
   45.3940   33.0120   47.5340 C   0  0  0  0  0  0  0  0  0  0  0  0
   45.6620   32.1570   48.5780 C   0  0  0  0  0  0  0  0  0  0  0  0
   46.6420   31.2680   48.3180 C   0  0  0  0  0  0  0  0  0  0  0  0
   47.3530   31.1670   47.1390 C   0  0  0  0  0  0  0  0  0  0  0  0
   47.0130   32.0520   46.1790 N   0  0  0  0  0  0  0  0  0  0  0  0
   44.3770   34.0030   47.6790 N   0  0  0  0  0  0  0  0  0  0  0  0
   46.5010   34.4600   41.6300 C   0  0  0  0  0  0  0  0  0  0  0  0
   47.7690   35.2500   41.4380 C   0  0  0  0  0  0  0  0  0  0  0  0
   48.9850   34.4720   41.7440 C   0  0  0  0  0  0  0  0  0  0  0  0
   49.9580   34.9360   42.5260 N   0  0  0  0  0  0  0  0  0  0  0  0
   50.8760   34.0470   42.6080 O   0  0  0  0  0  0  0  0  0  0  0  0
   50.5530   32.9680   41.8920 C   0  0  0  0  0  0  0  0  0  0  0  0
   49.3400   33.2500   41.3430 N   0  0  0  0  0  0  0  0  0  0  0  0
   51.3390   31.7270   41.7250 C   0  0  0  0  0  0  0  0  0  0  0  0
   52.0640   31.5840   40.5480 C   0  0  0  0  0  0  0  0  0  0  0  0
   52.7990   30.4010   40.4160 C   0  0  0  0  0  0  0  0  0  0  0  0
   52.7650   29.4590   41.4420 C   0  0  0  0  0  0  0  0  0  0  0  0
   52.0330   29.6410   42.5920 C   0  0  0  0  0  0  0  0  0  0  0  0
   51.2930   30.8170   42.7370 C   0  0  0  0  0  0  0  0  0  0  0  0
   43.9117   36.6333   44.7778 H   0  0  0  0  0  0  0  0  0  0  0  0
   44.8294   36.3888   42.4758 H   0  0  0  0  0  0  0  0  0  0  0  0
   45.1256   32.1951   49.5376 H   0  0  0  0  0  0  0  0  0  0  0  0
   46.8983   30.5584   49.1185 H   0  0  0  0  0  0  0  0  0  0  0  0
   48.1432   30.4159   46.9922 H   0  0  0  0  0  0  0  0  0  0  0  0
   43.8496   34.0745   48.5608 H   0  0  0  0  0  0  0  0  0  0  0  0
   44.1706   34.6466   46.9018 H   0  0  0  0  0  0  0  0  0  0  0  0
   46.7149   33.3965   41.4478 H   0  0  0  0  0  0  0  0  0  0  0  0
   45.7525   34.8443   40.9214 H   0  0  0  0  0  0  0  0  0  0  0  0
   47.8198   35.5823   40.3906 H   0  0  0  0  0  0  0  0  0  0  0  0
   47.7369   36.0988   42.1370 H   0  0  0  0  0  0  0  0  0  0  0  0
   52.0601   32.3567   39.7651 H   0  0  0  0  0  0  0  0  0  0  0  0
   53.3975   30.2165   39.5117 H   0  0  0  0  0  0  0  0  0  0  0  0
   53.3470   28.5326   41.3277 H   0  0  0  0  0  0  0  0  0  0  0  0
   52.0303   28.8756   43.3821 H   0  0  0  0  0  0  0  0  0  0  0  0
   50.6924   31.0020   43.6398 H   0  0  0  0  0  0  0  0  0  0  0  0
  1  6  2  0
  2  1  1  0
  3  2  2  0
  3  4  1  0
  4  5  2  0
  5  6  1  0
  5  7  1  0
  7  8  2  0
  8 13  1  0
  8  9  1  0
 10  9  2  0
 11 10  1  0
 12  7  1  0
 12 11  2  0
 14  3  1  0
 15 14  1  0
 15 16  1  0
 16 17  2  0
 17 18  1  0
 19 18  1  0
 20 16  1  0
 20 19  2  0
 21 19  1  0
 21 26  1  0
 22 21  2  0
 23 22  1  0
 23 24  2  0
 24 25  1  0
 25 26  2  0
  1 27  1  0
  2 28  1  0
  9 29  1  0
 10 30  1  0
 11 31  1  0
 13 32  1  0
 13 33  1  0
 14 34  1  0
 14 35  1  0
 15 36  1  0
 15 37  1  0
 22 38  1  0
 23 39  1  0
 24 40  1  0
 25 41  1  0
 26 42  1  0
M  END
>  <Score>  (1) 
-7.01876

$$$$
