
     RDKit          3D

 48 52  0  0  1  0  0  0  0  0999 V2000
   45.6760   34.1490   41.3260 N   0  0  0  0  0  0  0  0  0  0  0  0
   47.0520   34.1870   40.8860 C   0  0  0  0  0  0  0  0  0  0  0  0
   47.2330   33.3600   39.6670 C   0  0  0  0  0  0  0  0  0  0  0  0
   46.2370   33.8110   38.6790 N   0  0  0  0  0  0  0  0  0  0  0  0
   44.9850   33.2470   39.1410 C   0  0  0  0  0  0  0  0  0  0  0  0
   44.5600   33.8300   40.4620 C   0  0  1  0  0  0  0  0  0  0  0  0
   44.4520   35.8030   44.4490 C   0  0  0  0  0  0  0  0  0  0  0  0
   44.6940   35.6020   43.0830 C   0  0  0  0  0  0  0  0  0  0  0  0
   45.3840   34.4400   42.6860 C   0  0  0  0  0  0  0  0  0  0  0  0
   45.7610   33.6000   43.6810 N   0  0  0  0  0  0  0  0  0  0  0  0
   45.5160   33.8160   44.9820 C   0  0  0  0  0  0  0  0  0  0  0  0
   44.8700   34.9020   45.3640 N   0  0  0  0  0  0  0  0  0  0  0  0
   45.9300   32.9070   46.0000 N   0  0  0  0  0  0  0  0  0  0  0  0
   45.4320   32.7560   47.2420 C   0  0  0  0  0  0  0  0  0  0  0  0
   45.9570   31.8250   48.0940 C   0  0  0  0  0  0  0  0  0  0  0  0
   45.3640   31.7070   49.4500 C   0  0  0  0  0  0  0  0  0  0  0  0
   47.0110   31.0080   47.7130 C   0  0  0  0  0  0  0  0  0  0  0  0
   47.5030   30.1490   48.4820 O   0  0  0  0  0  0  0  0  0  0  0  0
   47.4770   31.1950   46.4570 N   0  0  0  0  0  0  0  0  0  0  0  0
   46.9680   32.1160   45.5980 C   0  0  0  0  0  0  0  0  0  0  0  0
   47.5310   32.1450   44.4730 O   0  0  0  0  0  0  0  0  0  0  0  0
   43.5590   33.0080   41.0670 N   0  0  0  0  0  0  0  0  0  0  0  0
   43.6690   31.8210   41.6570 C   0  0  0  0  0  0  0  0  0  0  0  0
   42.4810   31.3470   42.1180 N   0  0  0  0  0  0  0  0  0  0  0  0
   41.5490   32.2730   41.8130 C   0  0  0  0  0  0  0  0  0  0  0  0
   40.1840   32.4140   41.9900 C   0  0  0  0  0  0  0  0  0  0  0  0
   39.5350   33.5280   41.5370 N   0  0  0  0  0  0  0  0  0  0  0  0
   40.2400   34.4970   40.9110 C   0  0  0  0  0  0  0  0  0  0  0  0
   41.5660   34.3910   40.7220 N   0  0  0  0  0  0  0  0  0  0  0  0
   42.2280   33.2810   41.1710 C   0  0  0  0  0  0  0  0  0  0  0  0
   47.3315   35.2271   40.6622 H   0  0  0  0  0  0  0  0  0  0  0  0
   47.6915   33.7851   41.6857 H   0  0  0  0  0  0  0  0  0  0  0  0
   48.2485   33.4966   39.2669 H   0  0  0  0  0  0  0  0  0  0  0  0
   47.0975   32.2929   39.8970 H   0  0  0  0  0  0  0  0  0  0  0  0
   46.4705   33.4582   37.7399 H   0  0  0  0  0  0  0  0  0  0  0  0
   44.2047   33.4535   38.3937 H   0  0  0  0  0  0  0  0  0  0  0  0
   45.1281   32.1648   39.2764 H   0  0  0  0  0  0  0  0  0  0  0  0
   44.0939   34.8084   40.2738 H   0  0  0  0  0  0  0  0  0  0  0  0
   43.9156   36.7047   44.7793 H   0  0  0  0  0  0  0  0  0  0  0  0
   44.3526   36.3354   42.3377 H   0  0  0  0  0  0  0  0  0  0  0  0
   44.5949   33.3878   47.5740 H   0  0  0  0  0  0  0  0  0  0  0  0
   46.1465   31.8627   50.2072 H   0  0  0  0  0  0  0  0  0  0  0  0
   44.5778   32.4663   49.5737 H   0  0  0  0  0  0  0  0  0  0  0  0
   44.9283   30.7046   49.5737 H   0  0  0  0  0  0  0  0  0  0  0  0
   48.2595   30.6078   46.1348 H   0  0  0  0  0  0  0  0  0  0  0  0
   44.6210   31.2798   41.7610 H   0  0  0  0  0  0  0  0  0  0  0  0
   39.6160   31.6221   42.5001 H   0  0  0  0  0  0  0  0  0  0  0  0
   39.7157   35.3932   40.5479 H   0  0  0  0  0  0  0  0  0  0  0  0
  1  9  1  0
  2  1  1  0
  3  2  1  0
  4  5  1  0
  4  3  1  0
  5  6  1  0
  6 22  1  0
  6  1  1  0
  7 12  2  0
  8  7  1  0
  9  8  2  0
  9 10  1  0
 10 11  2  0
 11 12  1  0
 11 13  1  0
 13 14  1  0
 14 15  2  0
 15 16  1  0
 17 15  1  0
 17 18  2  0
 19 17  1  0
 20 13  1  0
 20 19  1  0
 21 20  2  0
 22 30  1  0
 22 23  1  0
 23 24  2  0
 25 26  2  0
 25 24  1  0
 27 26  1  0
 28 27  2  0
 29 28  1  0
 29 30  2  0
 30 25  1  0
  2 31  1  0
  2 32  1  0
  3 33  1  0
  3 34  1  0
  4 35  1  0
  5 36  1  0
  5 37  1  0
  6 38  1  6
  7 39  1  0
  8 40  1  0
 14 41  1  0
 16 42  1  0
 16 43  1  0
 16 44  1  0
 19 45  1  0
 23 46  1  0
 26 47  1  0
 28 48  1  0
M  END
>  <Score>  (1) 
-7.68892

$$$$
