
     RDKit          3D

 48 52  0  0  0  0  0  0  0  0999 V2000
   46.6170   34.5300   41.6510 C   0  0  0  0  0  0  0  0  0  0  0  0
   44.5930   35.8110   44.5350 C   0  0  0  0  0  0  0  0  0  0  0  0
   45.1510   35.6970   43.2510 C   0  0  0  0  0  0  0  0  0  0  0  0
   46.0220   34.6620   43.0020 C   0  0  0  0  0  0  0  0  0  0  0  0
   46.3070   33.7880   44.0150 N   0  0  0  0  0  0  0  0  0  0  0  0
   45.7580   33.9150   45.2490 C   0  0  0  0  0  0  0  0  0  0  0  0
   44.8970   34.9330   45.5040 N   0  0  0  0  0  0  0  0  0  0  0  0
   46.0660   32.9850   46.3070 C   0  0  0  0  0  0  0  0  0  0  0  0
   45.3880   33.0250   47.5090 C   0  0  0  0  0  0  0  0  0  0  0  0
   45.6310   32.1580   48.5660 C   0  0  0  0  0  0  0  0  0  0  0  0
   46.6070   31.2570   48.3150 C   0  0  0  0  0  0  0  0  0  0  0  0
   47.3340   31.1590   47.1270 C   0  0  0  0  0  0  0  0  0  0  0  0
   47.0100   32.0520   46.1710 N   0  0  0  0  0  0  0  0  0  0  0  0
   44.3760   34.0170   47.6670 N   0  0  0  0  0  0  0  0  0  0  0  0
   47.9500   35.2550   41.5480 C   0  0  0  0  0  0  0  0  0  0  0  0
   49.0720   34.3630   41.8850 C   0  0  0  0  0  0  0  0  0  0  0  0
   50.1930   34.8350   42.4190 N   0  0  0  0  0  0  0  0  0  0  0  0
   51.0010   33.8420   42.6250 O   0  0  0  0  0  0  0  0  0  0  0  0
   50.4570   32.7200   42.2490 C   0  0  0  0  0  0  0  0  0  0  0  0
   49.2430   33.0490   41.7800 N   0  0  0  0  0  0  0  0  0  0  0  0
   50.8230   31.3080   42.2170 C   0  0  0  0  0  0  0  0  0  0  0  0
   50.3050   30.3450   43.0700 C   0  0  0  0  0  0  0  0  0  0  0  0
   50.6590   29.0200   43.0280 C   0  0  0  0  0  0  0  0  0  0  0  0
   51.5750   28.5680   42.1070 C   0  0  0  0  0  0  0  0  0  0  0  0
   52.1200   29.4880   41.2370 C   0  0  0  0  0  0  0  0  0  0  0  0
   53.0320   28.9840   40.3350 C   0  0  0  0  0  0  0  0  0  0  0  0
   53.6200   29.8400   39.4320 C   0  0  0  0  0  0  0  0  0  0  0  0
   53.2750   31.1800   39.4610 C   0  0  0  0  0  0  0  0  0  0  0  0
   52.3560   31.6010   40.3920 C   0  0  0  0  0  0  0  0  0  0  0  0
   51.7310   30.8000   41.3220 C   0  0  0  0  0  0  0  0  0  0  0  0
   46.7741   33.4632   41.4338 H   0  0  0  0  0  0  0  0  0  0  0  0
   45.9243   34.9830   40.9264 H   0  0  0  0  0  0  0  0  0  0  0  0
   43.8951   36.6336   44.7502 H   0  0  0  0  0  0  0  0  0  0  0  0
   44.8969   36.4198   42.4617 H   0  0  0  0  0  0  0  0  0  0  0  0
   45.0812   32.2003   49.5178 H   0  0  0  0  0  0  0  0  0  0  0  0
   46.8488   30.5407   49.1140 H   0  0  0  0  0  0  0  0  0  0  0  0
   48.1194   30.4028   46.9810 H   0  0  0  0  0  0  0  0  0  0  0  0
   43.8483   34.0784   48.5494 H   0  0  0  0  0  0  0  0  0  0  0  0
   44.1727   34.6722   46.8987 H   0  0  0  0  0  0  0  0  0  0  0  0
   48.0801   35.6212   40.5189 H   0  0  0  0  0  0  0  0  0  0  0  0
   47.9458   36.0921   42.2616 H   0  0  0  0  0  0  0  0  0  0  0  0
   49.5684   30.6614   43.8232 H   0  0  0  0  0  0  0  0  0  0  0  0
   50.2058   28.3124   43.7378 H   0  0  0  0  0  0  0  0  0  0  0  0
   51.8633   27.5072   42.0660 H   0  0  0  0  0  0  0  0  0  0  0  0
   53.2861   27.9137   40.3368 H   0  0  0  0  0  0  0  0  0  0  0  0
   54.3511   29.4659   38.7002 H   0  0  0  0  0  0  0  0  0  0  0  0
   53.7264   31.8922   38.7546 H   0  0  0  0  0  0  0  0  0  0  0  0
   52.0972   32.6701   40.3947 H   0  0  0  0  0  0  0  0  0  0  0  0
  1  4  1  0
  2  7  2  0
  3  2  1  0
  4  3  2  0
  4  5  1  0
  5  6  2  0
  6  7  1  0
  6  8  1  0
  8  9  2  0
  9 14  1  0
  9 10  1  0
 11 10  2  0
 12 11  1  0
 13  8  1  0
 13 12  2  0
 15  1  1  0
 15 16  1  0
 16 17  2  0
 17 18  1  0
 19 18  1  0
 20 16  1  0
 20 19  2  0
 21 19  1  0
 21 22  2  0
 23 22  1  0
 24 23  2  0
 25 30  2  0
 25 24  1  0
 26 25  1  0
 27 28  1  0
 27 26  2  0
 28 29  2  0
 29 30  1  0
 30 21  1  0
  1 31  1  0
  1 32  1  0
  2 33  1  0
  3 34  1  0
 10 35  1  0
 11 36  1  0
 12 37  1  0
 14 38  1  0
 14 39  1  0
 15 40  1  0
 15 41  1  0
 22 42  1  0
 23 43  1  0
 24 44  1  0
 26 45  1  0
 27 46  1  0
 28 47  1  0
 29 48  1  0
M  END
>  <Score>  (1) 
-7.34543

$$$$
