
     RDKit          3D

 46 50  0  0  0  0  0  0  0  0999 V2000
   44.6050   35.5950   44.8250 C   0  0  0  0  0  0  0  0  0  0  0  0
   44.0770   35.4360   43.5320 C   0  0  0  0  0  0  0  0  0  0  0  0
   44.3890   34.2910   42.8050 C   0  0  0  0  0  0  0  0  0  0  0  0
   45.1950   33.4100   43.4340 N   0  0  0  0  0  0  0  0  0  0  0  0
   45.6970   33.5660   44.6650 C   0  0  0  0  0  0  0  0  0  0  0  0
   45.3800   34.6690   45.3280 N   0  0  0  0  0  0  0  0  0  0  0  0
   46.4960   32.4540   44.7880 C   0  0  0  0  0  0  0  0  0  0  0  0
   47.2610   31.4350   44.8120 N   0  0  0  0  0  0  0  0  0  0  0  0
   47.9650   30.4710   44.9010 C   0  0  0  0  0  0  0  0  0  0  0  0
   47.7880   30.2020   46.1860 N   0  0  0  0  0  0  0  0  0  0  0  0
   46.9390   31.0430   46.8830 C   0  0  0  0  0  0  0  0  0  0  0  0
   46.8060   30.6730   48.2290 C   0  0  0  0  0  0  0  0  0  0  0  0
   45.9850   31.4210   48.9880 C   0  0  0  0  0  0  0  0  0  0  0  0
   45.3090   32.4770   48.5030 C   0  0  0  0  0  0  0  0  0  0  0  0
   45.5250   32.7380   47.1680 C   0  0  0  0  0  0  0  0  0  0  0  0
   46.3290   32.1140   46.1840 C   0  0  0  0  0  0  0  0  0  0  0  0
   43.8690   34.1520   41.5090 N   0  0  0  0  0  0  0  0  0  0  0  0
   42.5610   34.0820   41.2650 C   0  0  0  0  0  0  0  0  0  0  0  0
   42.4620   33.9490   39.8770 C   0  0  0  0  0  0  0  0  0  0  0  0
   43.7170   33.9430   39.3290 N   0  0  0  0  0  0  0  0  0  0  0  0
   44.5860   34.0700   40.3560 C   0  0  0  0  0  0  0  0  0  0  0  0
   46.0060   34.1130   40.2920 N   0  0  0  0  0  0  0  0  0  0  0  0
   41.2350   33.8380   39.1660 N   0  0  0  0  0  0  0  0  0  0  0  0
   40.4810   32.7550   39.2820 C   0  0  0  0  0  0  0  0  0  0  0  0
   39.2820   32.5780   38.6240 C   0  0  0  0  0  0  0  0  0  0  0  0
   38.4730   31.3390   38.7890 C   0  0  0  0  0  0  0  0  0  0  0  0
   38.8100   33.5670   37.7910 C   0  0  0  0  0  0  0  0  0  0  0  0
   37.7390   33.4700   37.1720 O   0  0  0  0  0  0  0  0  0  0  0  0
   39.6080   34.6550   37.7020 N   0  0  0  0  0  0  0  0  0  0  0  0
   40.7890   34.8030   38.3640 C   0  0  0  0  0  0  0  0  0  0  0  0
   41.4730   35.8490   38.2250 O   0  0  0  0  0  0  0  0  0  0  0  0
   44.3674   36.4947   45.4116 H   0  0  0  0  0  0  0  0  0  0  0  0
   43.4241   36.2084   43.0994 H   0  0  0  0  0  0  0  0  0  0  0  0
   48.5765   29.9608   44.1422 H   0  0  0  0  0  0  0  0  0  0  0  0
   47.3480   29.8109   48.6450 H   0  0  0  0  0  0  0  0  0  0  0  0
   45.8617   31.1578   50.0489 H   0  0  0  0  0  0  0  0  0  0  0  0
   44.6355   33.0855   49.1243 H   0  0  0  0  0  0  0  0  0  0  0  0
   44.9604   33.6037   46.7914 H   0  0  0  0  0  0  0  0  0  0  0  0
   41.7394   34.1204   41.9954 H   0  0  0  0  0  0  0  0  0  0  0  0
   46.5577   34.2136   41.1560 H   0  0  0  0  0  0  0  0  0  0  0  0
   46.4828   34.0435   39.3817 H   0  0  0  0  0  0  0  0  0  0  0  0
   40.8323   31.9487   39.9427 H   0  0  0  0  0  0  0  0  0  0  0  0
   38.3366   31.1301   39.8603 H   0  0  0  0  0  0  0  0  0  0  0  0
   37.4903   31.4768   38.3143 H   0  0  0  0  0  0  0  0  0  0  0  0
   38.9944   30.4947   38.3143 H   0  0  0  0  0  0  0  0  0  0  0  0
   39.3014   35.4254   37.0910 H   0  0  0  0  0  0  0  0  0  0  0  0
  1  6  2  0
  2  1  1  0
  3  4  1  0
  3  2  2  0
  4  5  2  0
  5  7  1  0
  5  6  1  0
  7  8  2  0
  7 16  1  0
  8  9  1  0
  9 10  2  0
 10 11  1  0
 11 12  1  0
 12 13  2  0
 14 13  1  0
 15 14  2  0
 16 11  2  0
 16 15  1  0
 17  3  1  0
 18 17  1  0
 19 18  2  0
 20 19  1  0
 20 21  2  0
 21 17  1  0
 22 21  1  0
 23 24  1  0
 23 19  1  0
 25 26  1  0
 25 24  2  0
 27 25  1  0
 28 27  2  0
 29 27  1  0
 29 30  1  0
 30 23  1  0
 31 30  2  0
  1 32  1  0
  2 33  1  0
  9 34  1  0
 12 35  1  0
 13 36  1  0
 14 37  1  0
 15 38  1  0
 18 39  1  0
 22 40  1  0
 22 41  1  0
 24 42  1  0
 26 43  1  0
 26 44  1  0
 26 45  1  0
 29 46  1  0
M  END
>  <Score>  (1) 
-7.75789

$$$$
