
     RDKit          3D

 38 42  0  0  0  0  0  0  0  0999 V2000
   44.5030   35.8080   44.6240 C   0  0  0  0  0  0  0  0  0  0  0  0
   44.9950   35.4730   43.3340 C   0  0  0  0  0  0  0  0  0  0  0  0
   45.7880   34.3570   43.2000 C   0  0  0  0  0  0  0  0  0  0  0  0
   46.0480   33.6460   44.3160 N   0  0  0  0  0  0  0  0  0  0  0  0
   45.5760   33.9700   45.5400 C   0  0  0  0  0  0  0  0  0  0  0  0
   44.8050   35.0440   45.7110 N   0  0  0  0  0  0  0  0  0  0  0  0
   45.9290   33.1210   46.6640 C   0  0  0  0  0  0  0  0  0  0  0  0
   45.0970   32.9720   47.7380 C   0  0  0  0  0  0  0  0  0  0  0  0
   45.6740   32.1150   48.6560 C   0  0  0  0  0  0  0  0  0  0  0  0
   46.8580   31.7580   48.1160 N   0  0  0  0  0  0  0  0  0  0  0  0
   47.0200   32.3500   46.9310 N   0  0  0  0  0  0  0  0  0  0  0  0
   49.2160   29.2020   49.0190 N   0  0  0  0  0  0  0  0  0  0  0  0
   48.0890   29.5860   48.4020 N   0  0  0  0  0  0  0  0  0  0  0  0
   47.8990   30.9030   48.5750 C   0  0  0  0  0  0  0  0  0  0  0  0
   48.9620   31.3940   49.3440 C   0  0  0  0  0  0  0  0  0  0  0  0
   49.7650   30.3090   49.6040 C   0  0  0  0  0  0  0  0  0  0  0  0
   46.3240   33.9410   41.9700 N   0  0  0  0  0  0  0  0  0  0  0  0
   45.6690   33.7730   40.8220 C   0  0  0  0  0  0  0  0  0  0  0  0
   46.4700   33.3650   39.8200 N   0  0  0  0  0  0  0  0  0  0  0  0
   47.7280   33.2580   40.3390 C   0  0  0  0  0  0  0  0  0  0  0  0
   48.9250   32.8880   39.7810 C   0  0  0  0  0  0  0  0  0  0  0  0
   49.0480   32.5610   38.5880 O   0  0  0  0  0  0  0  0  0  0  0  0
   50.0540   32.8700   40.5490 N   0  0  0  0  0  0  0  0  0  0  0  0
   49.9070   33.2270   41.8390 C   0  0  0  0  0  0  0  0  0  0  0  0
   51.1040   33.2050   42.6420 N   0  0  0  0  0  0  0  0  0  0  0  0
   48.7300   33.5920   42.3890 N   0  0  0  0  0  0  0  0  0  0  0  0
   47.5950   33.6220   41.6640 C   0  0  0  0  0  0  0  0  0  0  0  0
   43.8684   36.6980   44.7472 H   0  0  0  0  0  0  0  0  0  0  0  0
   44.7469   36.0934   42.4602 H   0  0  0  0  0  0  0  0  0  0  0  0
   44.1178   33.4596   47.8540 H   0  0  0  0  0  0  0  0  0  0  0  0
   45.2568   31.7925   49.6214 H   0  0  0  0  0  0  0  0  0  0  0  0
   49.5987   28.2462   49.0471 H   0  0  0  0  0  0  0  0  0  0  0  0
   49.1211   32.4320   49.6717 H   0  0  0  0  0  0  0  0  0  0  0  0
   50.6972   30.3283   50.1876 H   0  0  0  0  0  0  0  0  0  0  0  0
   44.5894   33.9488   40.7055 H   0  0  0  0  0  0  0  0  0  0  0  0
   50.9690   32.5979   40.1622 H   0  0  0  0  0  0  0  0  0  0  0  0
   51.0614   33.4670   43.6372 H   0  0  0  0  0  0  0  0  0  0  0  0
   52.0019   32.9273   42.2205 H   0  0  0  0  0  0  0  0  0  0  0  0
  1  6  2  0
  2  1  1  0
  3  2  2  0
  3  4  1  0
  4  5  2  0
  5  6  1  0
  5  7  1  0
  7 11  2  0
  7  8  1  0
  8  9  2  0
 10 14  1  0
 10  9  1  0
 11 10  1  0
 12 16  1  0
 13 14  2  0
 13 12  1  0
 14 15  1  0
 15 16  2  0
 17  3  1  0
 18 17  1  0
 19 20  1  0
 19 18  2  0
 20 27  2  0
 21 20  1  0
 21 23  1  0
 22 21  2  0
 23 24  1  0
 24 26  2  0
 24 25  1  0
 27 17  1  0
 27 26  1  0
  1 28  1  0
  2 29  1  0
  8 30  1  0
  9 31  1  0
 12 32  1  0
 15 33  1  0
 16 34  1  0
 18 35  1  0
 23 36  1  0
 25 37  1  0
 25 38  1  0
M  END
>  <Score>  (1) 
-7.67955

$$$$
