
     RDKit          3D

 53 58  0  0  1  0  0  0  0  0999 V2000
   44.3970   35.9610   44.7580 C   0  0  0  0  0  0  0  0  0  0  0  0
   44.9840   35.8000   43.4920 C   0  0  0  0  0  0  0  0  0  0  0  0
   45.8730   34.7460   43.3330 C   0  0  0  0  0  0  0  0  0  0  0  0
   46.1320   33.9380   44.3740 N   0  0  0  0  0  0  0  0  0  0  0  0
   45.5490   34.1210   45.5800 C   0  0  0  0  0  0  0  0  0  0  0  0
   44.6920   35.1130   45.7850 N   0  0  0  0  0  0  0  0  0  0  0  0
   45.9030   33.1800   46.6410 C   0  0  0  0  0  0  0  0  0  0  0  0
   45.0310   32.9470   47.6790 C   0  0  0  0  0  0  0  0  0  0  0  0
   45.5840   32.0330   48.5400 C   0  0  0  0  0  0  0  0  0  0  0  0
   46.7830   31.7290   48.0060 N   0  0  0  0  0  0  0  0  0  0  0  0
   46.9760   32.4080   46.8780 N   0  0  0  0  0  0  0  0  0  0  0  0
   49.1120   29.0930   48.7270 N   0  0  0  0  0  0  0  0  0  0  0  0
   48.0090   29.5210   48.1190 N   0  0  0  0  0  0  0  0  0  0  0  0
   47.8230   30.8490   48.4250 C   0  0  0  0  0  0  0  0  0  0  0  0
   48.8470   31.2350   49.2430 C   0  0  0  0  0  0  0  0  0  0  0  0
   49.6400   30.1300   49.4210 C   0  0  0  0  0  0  0  0  0  0  0  0
   46.5180   34.5310   42.0100 C   0  0  0  0  0  0  0  0  0  0  0  0
   47.7960   35.3150   41.9740 C   0  0  0  0  0  0  0  0  0  0  0  0
   48.9710   34.5960   41.4200 C   0  0  1  0  0  0  0  0  0  0  0  0
   50.0490   34.2720   42.4620 C   0  0  0  0  0  0  0  0  0  0  0  0
   49.2650   33.1920   41.7020 C   0  0  2  0  0  0  0  0  0  0  0  0
   50.1850   32.4010   40.8460 C   0  0  0  0  0  0  0  0  0  0  0  0
   51.4590   32.0370   41.2930 C   0  0  0  0  0  0  0  0  0  0  0  0
   52.3790   31.3030   40.5770 C   0  0  0  0  0  0  0  0  0  0  0  0
   52.0360   30.8820   39.3120 C   0  0  0  0  0  0  0  0  0  0  0  0
   50.8020   31.1960   38.7940 C   0  0  0  0  0  0  0  0  0  0  0  0
   50.4400   30.7850   37.5340 C   0  0  0  0  0  0  0  0  0  0  0  0
   49.1980   31.0920   36.9930 C   0  0  0  0  0  0  0  0  0  0  0  0
   48.3000   31.8390   37.7630 C   0  0  0  0  0  0  0  0  0  0  0  0
   48.7230   32.2200   39.0160 C   0  0  0  0  0  0  0  0  0  0  0  0
   49.9450   31.9330   39.5780 C   0  0  0  0  0  0  0  0  0  0  0  0
   43.6874   36.7849   44.9241 H   0  0  0  0  0  0  0  0  0  0  0  0
   44.7488   36.4812   42.6609 H   0  0  0  0  0  0  0  0  0  0  0  0
   44.0450   33.4194   47.7998 H   0  0  0  0  0  0  0  0  0  0  0  0
   45.1437   31.6346   49.4660 H   0  0  0  0  0  0  0  0  0  0  0  0
   49.4976   28.1391   48.6786 H   0  0  0  0  0  0  0  0  0  0  0  0
   49.0045   32.2348   49.6739 H   0  0  0  0  0  0  0  0  0  0  0  0
   50.5561   30.0919   50.0287 H   0  0  0  0  0  0  0  0  0  0  0  0
   46.7342   33.4614   41.8714 H   0  0  0  0  0  0  0  0  0  0  0  0
   45.8475   34.8636   41.2039 H   0  0  0  0  0  0  0  0  0  0  0  0
   47.6265   36.2115   41.3596 H   0  0  0  0  0  0  0  0  0  0  0  0
   48.0441   35.5368   43.0224 H   0  0  0  0  0  0  0  0  0  0  0  0
   48.8843   35.1259   40.4600 H   0  0  0  0  0  0  0  0  0  0  0  0
   51.1115   34.4507   42.2404 H   0  0  0  0  0  0  0  0  0  0  0  0
   50.2385   34.5244   43.5158 H   0  0  0  0  0  0  0  0  0  0  0  0
   48.5788   32.3566   41.9048 H   0  0  0  0  0  0  0  0  0  0  0  0
   51.7513   32.3644   42.3016 H   0  0  0  0  0  0  0  0  0  0  0  0
   53.3626   31.0595   41.0052 H   0  0  0  0  0  0  0  0  0  0  0  0
   52.7494   30.2943   38.7157 H   0  0  0  0  0  0  0  0  0  0  0  0
   51.1530   30.1969   36.9375 H   0  0  0  0  0  0  0  0  0  0  0  0
   48.9265   30.7553   35.9816 H   0  0  0  0  0  0  0  0  0  0  0  0
   47.3030   32.1090   37.3848 H   0  0  0  0  0  0  0  0  0  0  0  0
   48.0193   32.8079   39.6236 H   0  0  0  0  0  0  0  0  0  0  0  0
  1  6  2  0
  2  1  1  0
  3  2  2  0
  3  4  1  0
  4  5  2  0
  5  6  1  0
  5  7  1  0
  7 11  2  0
  7  8  1  0
  8  9  2  0
 10 14  1  0
 10  9  1  0
 11 10  1  0
 12 16  1  0
 13 14  2  0
 13 12  1  0
 14 15  1  0
 15 16  2  0
 17  3  1  0
 18 17  1  0
 19 21  1  0
 19 18  1  0
 19 20  1  0
 21 20  1  0
 22 23  2  0
 22 21  1  0
 24 23  1  0
 25 24  2  0
 26 25  1  0
 26 31  2  0
 27 26  1  0
 28 27  2  0
 28 29  1  0
 29 30  2  0
 30 31  1  0
 31 22  1  0
  1 32  1  0
  2 33  1  0
  8 34  1  0
  9 35  1  0
 12 36  1  0
 15 37  1  0
 16 38  1  0
 17 39  1  0
 17 40  1  0
 18 41  1  0
 18 42  1  0
 19 43  1  6
 20 44  1  0
 20 45  1  0
 21 46  1  1
 23 47  1  0
 24 48  1  0
 25 49  1  0
 27 50  1  0
 28 51  1  0
 29 52  1  0
 30 53  1  0
M  END
>  <Score>  (1) 
-7.34091

$$$$
