
     RDKit          3D

 52 57  0  0  0  0  0  0  0  0999 V2000
   44.5990   35.4550   45.2810 C   0  0  0  0  0  0  0  0  0  0  0  0
   45.3230   35.1780   44.1080 C   0  0  0  0  0  0  0  0  0  0  0  0
   46.1340   34.0970   44.0040 C   0  0  0  0  0  0  0  0  0  0  0  0
   46.2290   33.2790   45.0740 N   0  0  0  0  0  0  0  0  0  0  0  0
   45.5230   33.5560   46.2080 C   0  0  0  0  0  0  0  0  0  0  0  0
   44.7360   34.6020   46.3120 N   0  0  0  0  0  0  0  0  0  0  0  0
   45.7760   32.5250   47.2610 C   0  0  0  0  0  0  0  0  0  0  0  0
   44.8980   32.0810   48.3500 C   0  0  0  0  0  0  0  0  0  0  0  0
   45.9850   30.8540   49.1020 S   0  0  0  0  0  0  0  0  0  0  0  0
   47.3920   31.1300   47.8720 C   0  0  0  0  0  0  0  0  0  0  0  0
   46.9830   32.0670   47.0260 N   0  0  0  0  0  0  0  0  0  0  0  0
   48.6450   30.3090   48.0380 C   0  0  0  0  0  0  0  0  0  0  0  0
   48.8950   29.1530   47.3920 C   0  0  0  0  0  0  0  0  0  0  0  0
   50.1270   28.8120   47.8750 N   0  0  0  0  0  0  0  0  0  0  0  0
   50.5640   29.7460   48.7670 C   0  0  0  0  0  0  0  0  0  0  0  0
   51.7510   29.7980   49.4930 C   0  0  0  0  0  0  0  0  0  0  0  0
   51.9360   30.8900   50.3470 C   0  0  0  0  0  0  0  0  0  0  0  0
   50.9550   31.8600   50.4410 C   0  0  0  0  0  0  0  0  0  0  0  0
   49.7680   31.8120   49.7190 C   0  0  0  0  0  0  0  0  0  0  0  0
   49.5940   30.7480   48.8900 C   0  0  0  0  0  0  0  0  0  0  0  0
   46.8750   33.8330   42.7740 C   0  0  0  0  0  0  0  0  0  0  0  0
   46.6950   34.8060   41.6680 C   0  0  0  0  0  0  0  0  0  0  0  0
   45.6790   34.2450   40.7250 C   0  0  0  0  0  0  0  0  0  0  0  0
   46.0020   33.3200   39.7560 C   0  0  0  0  0  0  0  0  0  0  0  0
   45.1570   32.7510   38.8570 C   0  0  0  0  0  0  0  0  0  0  0  0
   43.8590   33.1680   38.9550 N   0  0  0  0  0  0  0  0  0  0  0  0
   43.5060   34.0740   39.8930 C   0  0  0  0  0  0  0  0  0  0  0  0
   44.3710   34.6260   40.7790 N   0  0  0  0  0  0  0  0  0  0  0  0
   42.1080   34.4690   39.9370 C   0  0  0  0  0  0  0  0  0  0  0  0
   41.6960   35.5120   40.7710 C   0  0  0  0  0  0  0  0  0  0  0  0
   40.3740   35.8750   40.8050 C   0  0  0  0  0  0  0  0  0  0  0  0
   39.4700   35.2480   40.0550 N   0  0  0  0  0  0  0  0  0  0  0  0
   39.8910   34.2350   39.2510 C   0  0  0  0  0  0  0  0  0  0  0  0
   41.1940   33.8350   39.1800 N   0  0  0  0  0  0  0  0  0  0  0  0
   43.9449   36.3365   45.3529 H   0  0  0  0  0  0  0  0  0  0  0  0
   45.2284   35.8588   43.2492 H   0  0  0  0  0  0  0  0  0  0  0  0
   43.8820   32.4006   48.6250 H   0  0  0  0  0  0  0  0  0  0  0  0
   48.2676   28.6201   46.6623 H   0  0  0  0  0  0  0  0  0  0  0  0
   50.6516   27.9682   47.6034 H   0  0  0  0  0  0  0  0  0  0  0  0
   52.5135   29.0109   49.3985 H   0  0  0  0  0  0  0  0  0  0  0  0
   52.8576   30.9768   50.9412 H   0  0  0  0  0  0  0  0  0  0  0  0
   51.1218   32.7099   51.1192 H   0  0  0  0  0  0  0  0  0  0  0  0
   49.0047   32.5984   49.8138 H   0  0  0  0  0  0  0  0  0  0  0  0
   47.9452   33.8101   43.0275 H   0  0  0  0  0  0  0  0  0  0  0  0
   46.4741   32.8825   42.3922 H   0  0  0  0  0  0  0  0  0  0  0  0
   46.3421   35.7674   42.0694 H   0  0  0  0  0  0  0  0  0  0  0  0
   47.6490   34.9762   41.1475 H   0  0  0  0  0  0  0  0  0  0  0  0
   47.0560   33.0093   39.7049 H   0  0  0  0  0  0  0  0  0  0  0  0
   45.4904   32.0146   38.1109 H   0  0  0  0  0  0  0  0  0  0  0  0
   42.4296   36.0399   41.3980 H   0  0  0  0  0  0  0  0  0  0  0  0
   40.0553   36.6973   41.4624 H   0  0  0  0  0  0  0  0  0  0  0  0
   39.1475   33.7144   38.6296 H   0  0  0  0  0  0  0  0  0  0  0  0
  1  6  2  0
  2  1  1  0
  3  2  2  0
  3  4  1  0
  4  5  2  0
  5  6  1  0
  5  7  1  0
  7  8  2  0
  8  9  1  0
 10 12  1  0
 10  9  1  0
 11  7  1  0
 11 10  2  0
 12 20  1  0
 13 14  1  0
 13 12  2  0
 14 15  1  0
 15 20  2  0
 15 16  1  0
 16 17  2  0
 17 18  1  0
 19 18  2  0
 20 19  1  0
 21  3  1  0
 22 21  1  0
 23 28  1  0
 23 22  1  0
 24 23  2  0
 25 26  2  0
 25 24  1  0
 26 27  1  0
 27 29  1  0
 27 28  2  0
 29 30  2  0
 30 31  1  0
 32 31  2  0
 33 32  1  0
 34 33  2  0
 34 29  1  0
  1 35  1  0
  2 36  1  0
  8 37  1  0
 13 38  1  0
 14 39  1  0
 16 40  1  0
 17 41  1  0
 18 42  1  0
 19 43  1  0
 21 44  1  0
 21 45  1  0
 22 46  1  0
 22 47  1  0
 24 48  1  0
 25 49  1  0
 30 50  1  0
 31 51  1  0
 33 52  1  0
M  END
>  <Score>  (1) 
-7.19216

$$$$
