
     RDKit          3D

 38 40  0  0  0  0  0  0  0  0999 V2000
   46.9990   34.8380   42.0560 C   0  0  0  0  0  0  0  0  0  0  0  0
   48.2850   35.2530   41.8770 C   0  0  0  0  0  0  0  0  0  0  0  0
   48.5430   34.9230   40.5320 C   0  0  0  0  0  0  0  0  0  0  0  0
   47.4140   34.3420   39.9930 C   0  0  0  0  0  0  0  0  0  0  0  0
   46.5210   34.3170   40.9540 O   0  0  0  0  0  0  0  0  0  0  0  0
   44.5240   36.0090   44.5820 C   0  0  0  0  0  0  0  0  0  0  0  0
   45.2910   35.9710   43.3840 C   0  0  0  0  0  0  0  0  0  0  0  0
   46.1960   34.9290   43.2740 C   0  0  0  0  0  0  0  0  0  0  0  0
   46.3310   34.0010   44.2710 N   0  0  0  0  0  0  0  0  0  0  0  0
   45.5700   34.0950   45.3860 C   0  0  0  0  0  0  0  0  0  0  0  0
   44.6730   35.0830   45.5510 N   0  0  0  0  0  0  0  0  0  0  0  0
   45.7640   33.0950   46.3790 N   0  0  0  0  0  0  0  0  0  0  0  0
   46.7350   32.0340   46.1890 C   0  0  0  0  0  0  0  0  0  0  0  0
   45.9580   30.7350   46.1400 C   0  0  0  0  0  0  0  0  0  0  0  0
   45.1210   30.6140   47.2900 N   0  0  0  0  0  0  0  0  0  0  0  0
   45.2140   31.6630   48.2520 C   0  0  0  0  0  0  0  0  0  0  0  0
   45.0380   33.0390   47.6340 C   0  0  0  0  0  0  0  0  0  0  0  0
   47.2580   33.8670   38.6680 N   0  0  0  0  0  0  0  0  0  0  0  0
   48.2850   33.9430   37.7100 C   0  0  0  0  0  0  0  0  0  0  0  0
   49.0530   35.0160   37.7390 N   0  0  0  0  0  0  0  0  0  0  0  0
   48.4330   32.8520   36.7680 N   0  0  0  0  0  0  0  0  0  0  0  0
   49.8450   35.0050   37.0570 H   0  0  0  0  0  0  0  0  0  0  0  0
   48.9575   35.7295   42.6054 H   0  0  0  0  0  0  0  0  0  0  0  0
   49.4891   35.0996   39.9993 H   0  0  0  0  0  0  0  0  0  0  0  0
   43.7894   36.8158   44.7215 H   0  0  0  0  0  0  0  0  0  0  0  0
   45.1719   36.7250   42.5920 H   0  0  0  0  0  0  0  0  0  0  0  0
   47.2812   32.1846   45.2461 H   0  0  0  0  0  0  0  0  0  0  0  0
   47.4727   32.0227   47.0049 H   0  0  0  0  0  0  0  0  0  0  0  0
   45.3342   30.7193   45.2341 H   0  0  0  0  0  0  0  0  0  0  0  0
   46.6674   29.8944   46.1240 H   0  0  0  0  0  0  0  0  0  0  0  0
   44.1446   30.5722   46.9646 H   0  0  0  0  0  0  0  0  0  0  0  0
   44.4320   31.5151   49.0113 H   0  0  0  0  0  0  0  0  0  0  0  0
   46.2207   31.6222   48.6934 H   0  0  0  0  0  0  0  0  0  0  0  0
   45.4306   33.8036   48.3205 H   0  0  0  0  0  0  0  0  0  0  0  0
   43.9699   33.2283   47.4517 H   0  0  0  0  0  0  0  0  0  0  0  0
   46.3569   33.4494   38.3951 H   0  0  0  0  0  0  0  0  0  0  0  0
   47.7928   32.0462   36.8085 H   0  0  0  0  0  0  0  0  0  0  0  0
   49.1784   32.8823   36.0578 H   0  0  0  0  0  0  0  0  0  0  0  0
  1  8  1  0
  2  1  2  0
  3  2  1  0
  4  3  2  0
  4  5  1  0
  5  1  1  0
  6 11  2  0
  7  6  1  0
  8  7  2  0
  8  9  1  0
  9 10  2  0
 10 11  1  0
 10 12  1  0
 12 17  1  0
 13 12  1  0
 14 13  1  0
 14 15  1  0
 15 16  1  0
 17 16  1  0
 18  4  1  0
 19 20  2  0
 19 18  1  0
 21 19  1  0
 22 20  1  0
  2 23  1  0
  3 24  1  0
  6 25  1  0
  7 26  1  0
 13 27  1  0
 13 28  1  0
 14 29  1  0
 14 30  1  0
 15 31  1  0
 16 32  1  0
 16 33  1  0
 17 34  1  0
 17 35  1  0
 18 36  1  0
 21 37  1  0
 21 38  1  0
M  END
>  <Score>  (1) 
-7.30203

$$$$
