
     RDKit          3D

 40 45  0  0  1  0  0  0  0  0999 V2000
   44.6640   35.6970   44.4400 C   0  0  0  0  0  0  0  0  0  0  0  0
   44.2740   35.5840   43.0980 C   0  0  0  0  0  0  0  0  0  0  0  0
   44.5370   34.3950   42.4710 C   0  0  0  0  0  0  0  0  0  0  0  0
   45.1500   33.4200   43.1660 N   0  0  0  0  0  0  0  0  0  0  0  0
   45.5280   33.5230   44.4500 C   0  0  0  0  0  0  0  0  0  0  0  0
   45.2700   34.6820   45.0680 N   0  0  0  0  0  0  0  0  0  0  0  0
   46.2090   32.4650   45.1820 C   0  0  0  0  0  0  0  0  0  0  0  0
   47.1530   31.5780   44.6360 C   0  0  0  0  0  0  0  0  0  0  0  0
   47.5260   30.7800   45.6490 N   0  0  0  0  0  0  0  0  0  0  0  0
   46.8700   31.1200   46.7860 C   0  0  0  0  0  0  0  0  0  0  0  0
   46.9300   30.5840   48.0660 C   0  0  0  0  0  0  0  0  0  0  0  0
   46.1520   31.1060   49.0920 C   0  0  0  0  0  0  0  0  0  0  0  0
   45.3240   32.1580   48.8230 C   0  0  0  0  0  0  0  0  0  0  0  0
   45.2440   32.7150   47.5410 C   0  0  0  0  0  0  0  0  0  0  0  0
   46.0110   32.2030   46.5270 C   0  0  0  0  0  0  0  0  0  0  0  0
   44.4390   34.0300   41.1280 C   0  0  0  0  0  0  0  0  0  0  0  0
   44.3500   33.6960   39.8980 N   0  0  0  0  0  0  0  0  0  0  0  0
   44.2460   33.3920   38.7470 C   0  0  0  0  0  0  0  0  0  0  0  0
   43.0400   33.9170   38.5230 N   0  0  0  0  0  0  0  0  0  0  0  0
   42.4240   34.5420   39.5850 C   0  0  2  0  0  0  0  0  0  0  0  0
   41.1270   34.9880   39.2410 C   0  0  0  0  0  0  0  0  0  0  0  0
   40.4210   35.5360   40.2670 C   0  0  0  0  0  0  0  0  0  0  0  0
   40.8590   35.6790   41.5590 C   0  0  0  0  0  0  0  0  0  0  0  0
   42.1410   35.1860   41.6850 C   0  0  0  0  0  0  0  0  0  0  0  0
   43.1280   34.5730   40.8240 C   0  0  2  0  0  0  0  0  0  0  0  0
   44.4693   36.6328   44.9844 H   0  0  0  0  0  0  0  0  0  0  0  0
   43.7788   36.4135   42.5720 H   0  0  0  0  0  0  0  0  0  0  0  0
   47.5111   31.5448   43.5964 H   0  0  0  0  0  0  0  0  0  0  0  0
   48.2137   30.0169   45.5733 H   0  0  0  0  0  0  0  0  0  0  0  0
   47.6011   29.7366   48.2697 H   0  0  0  0  0  0  0  0  0  0  0  0
   46.2022   30.6788   50.1044 H   0  0  0  0  0  0  0  0  0  0  0  0
   44.7064   32.5769   49.6311 H   0  0  0  0  0  0  0  0  0  0  0  0
   44.5677   33.5609   47.3482 H   0  0  0  0  0  0  0  0  0  0  0  0
   44.0554   35.0316   40.8838 H   0  0  0  0  0  0  0  0  0  0  0  0
   44.9312   32.8485   38.0799 H   0  0  0  0  0  0  0  0  0  0  0  0
   42.0062   33.5778   39.9101 H   0  0  0  0  0  0  0  0  0  0  0  0
   40.7203   34.8988   38.2228 H   0  0  0  0  0  0  0  0  0  0  0  0
   39.4071   35.8971   40.0398 H   0  0  0  0  0  0  0  0  0  0  0  0
   40.2723   36.1229   42.3768 H   0  0  0  0  0  0  0  0  0  0  0  0
   42.5117   35.2858   42.7158 H   0  0  0  0  0  0  0  0  0  0  0  0
  1  6  2  0
  2  1  1  0
  3  2  2  0
  3  4  1  0
  4  5  2  0
  5  6  1  0
  5  7  1  0
  7 15  1  0
  8  7  2  0
  8  9  1  0
  9 10  1  0
 10 11  2  0
 11 12  1  0
 13 12  2  0
 14 13  1  0
 15 10  1  0
 15 14  2  0
 16  3  1  0
 17 25  1  0
 17 16  1  0
 18 17  1  0
 19 18  2  0
 19 20  1  0
 20 21  1  0
 20 25  1  0
 21 22  2  0
 22 23  1  0
 23 24  2  0
 25 16  1  6
 25 24  1  0
  1 26  1  0
  2 27  1  0
  8 28  1  0
  9 29  1  0
 11 30  1  0
 12 31  1  0
 13 32  1  0
 14 33  1  0
 16 34  1  0
 18 35  1  0
 20 36  1  6
 21 37  1  0
 22 38  1  0
 23 39  1  0
 24 40  1  0
M  END
>  <Score>  (1) 
-7.13298

$$$$
