
     RDKit          3D

 50 53  0  0  1  0  0  0  0  0999 V2000
   46.4590   33.8470   42.3340 N   0  0  0  0  0  0  0  0  0  0  0  0
   47.7720   34.1790   41.7880 C   0  0  0  0  0  0  0  0  0  0  0  0
   47.3970   34.4630   40.3510 C   0  0  0  0  0  0  0  0  0  0  0  0
   46.5660   33.2390   40.0400 C   0  0  0  0  0  0  0  0  0  0  0  0
   45.7920   33.0400   41.3020 C   0  0  2  0  0  0  0  0  0  0  0  0
   44.5730   35.5940   45.0090 C   0  0  0  0  0  0  0  0  0  0  0  0
   45.0940   35.3180   43.7410 C   0  0  0  0  0  0  0  0  0  0  0  0
   45.9010   34.1910   43.5620 C   0  0  0  0  0  0  0  0  0  0  0  0
   46.1220   33.4280   44.6690 N   0  0  0  0  0  0  0  0  0  0  0  0
   45.6180   33.6930   45.8880 C   0  0  0  0  0  0  0  0  0  0  0  0
   44.8430   34.7840   46.0380 N   0  0  0  0  0  0  0  0  0  0  0  0
   45.9020   32.8440   46.9770 N   0  0  0  0  0  0  0  0  0  0  0  0
   47.1470   32.1280   47.0130 C   0  0  0  0  0  0  0  0  0  0  0  0
   47.1010   30.7930   47.6800 C   0  0  0  0  0  0  0  0  0  0  0  0
   45.9260   30.5540   48.5670 C   0  0  0  0  0  0  0  0  0  0  0  0
   45.5530   31.9000   49.1990 C   0  0  0  0  0  0  0  0  0  0  0  0
   44.9490   32.6940   48.0500 C   0  0  0  0  0  0  0  0  0  0  0  0
   44.3910   33.2520   41.2160 N   0  0  0  0  0  0  0  0  0  0  0  0
   43.7500   34.2030   40.5330 C   0  0  0  0  0  0  0  0  0  0  0  0
   42.3760   34.3140   40.5220 C   0  0  0  0  0  0  0  0  0  0  0  0
   41.6030   33.4150   41.2400 C   0  0  0  0  0  0  0  0  0  0  0  0
   40.3210   33.4670   41.2670 O   0  0  0  0  0  0  0  0  0  0  0  0
   42.2500   32.4610   41.9250 N   0  0  0  0  0  0  0  0  0  0  0  0
   43.5760   32.4000   41.9020 C   0  0  0  0  0  0  0  0  0  0  0  0
   44.0910   31.4580   42.5840 O   0  0  0  0  0  0  0  0  0  0  0  0
   41.6800   35.3790   39.7560 C   0  0  0  0  0  0  0  0  0  0  0  0
   48.2062   35.0627   42.2785 H   0  0  0  0  0  0  0  0  0  0  0  0
   48.5383   33.4011   41.9209 H   0  0  0  0  0  0  0  0  0  0  0  0
   46.8088   35.3880   40.2594 H   0  0  0  0  0  0  0  0  0  0  0  0
   48.2507   34.6228   39.6760 H   0  0  0  0  0  0  0  0  0  0  0  0
   45.8951   33.4209   39.1874 H   0  0  0  0  0  0  0  0  0  0  0  0
   47.1674   32.3637   39.7535 H   0  0  0  0  0  0  0  0  0  0  0  0
   45.8113   31.9717   41.5634 H   0  0  0  0  0  0  0  0  0  0  0  0
   43.9391   36.4802   45.1604 H   0  0  0  0  0  0  0  0  0  0  0  0
   44.8708   35.9815   42.8925 H   0  0  0  0  0  0  0  0  0  0  0  0
   47.4816   31.9775   45.9760 H   0  0  0  0  0  0  0  0  0  0  0  0
   47.8321   32.7431   47.6148 H   0  0  0  0  0  0  0  0  0  0  0  0
   47.0940   30.0228   46.8947 H   0  0  0  0  0  0  0  0  0  0  0  0
   47.9841   30.7540   48.3347 H   0  0  0  0  0  0  0  0  0  0  0  0
   45.0814   30.1676   47.9776 H   0  0  0  0  0  0  0  0  0  0  0  0
   46.1671   29.8122   49.3426 H   0  0  0  0  0  0  0  0  0  0  0  0
   44.8192   31.7622   50.0068 H   0  0  0  0  0  0  0  0  0  0  0  0
   46.4166   32.4066   49.6546 H   0  0  0  0  0  0  0  0  0  0  0  0
   44.6556   33.6897   48.4141 H   0  0  0  0  0  0  0  0  0  0  0  0
   44.0704   32.1525   47.6694 H   0  0  0  0  0  0  0  0  0  0  0  0
   44.3424   34.9278   39.9553 H   0  0  0  0  0  0  0  0  0  0  0  0
   41.7151   31.7715   42.4722 H   0  0  0  0  0  0  0  0  0  0  0  0
   41.2155   36.0897   40.4554 H   0  0  0  0  0  0  0  0  0  0  0  0
   42.4063   35.9094   39.1226 H   0  0  0  0  0  0  0  0  0  0  0  0
   40.9026   34.9267   39.1226 H   0  0  0  0  0  0  0  0  0  0  0  0
  1  8  1  0
  2  1  1  0
  3  2  1  0
  4  3  1  0
  4  5  1  0
  5  1  1  0
  6 11  2  0
  7  6  1  0
  8  7  2  0
  8  9  1  0
  9 10  2  0
 10 11  1  0
 10 12  1  0
 12 13  1  0
 12 17  1  0
 13 14  1  0
 14 15  1  0
 15 16  1  0
 17 16  1  0
 18  5  1  0
 18 24  1  0
 19 18  1  0
 20 19  2  0
 20 21  1  0
 21 22  2  0
 21 23  1  0
 24 23  1  0
 24 25  2  0
 26 20  1  0
  2 27  1  0
  2 28  1  0
  3 29  1  0
  3 30  1  0
  4 31  1  0
  4 32  1  0
  5 33  1  1
  6 34  1  0
  7 35  1  0
 13 36  1  0
 13 37  1  0
 14 38  1  0
 14 39  1  0
 15 40  1  0
 15 41  1  0
 16 42  1  0
 16 43  1  0
 17 44  1  0
 17 45  1  0
 19 46  1  0
 23 47  1  0
 26 48  1  0
 26 49  1  0
 26 50  1  0
M  END
>  <Score>  (1) 
-7.09417

$$$$
