
     RDKit          3D

 26 28  0  0  0  0  0  0  0  0999 V2000
   45.8930   33.7110   45.4140 C   0  0  0  0  0  0  0  0  0  0  0  0
   44.9220   34.6180   45.6680 N   0  0  0  0  0  0  0  0  0  0  0  0
   44.5490   35.6030   44.8590 C   0  0  0  0  0  0  0  0  0  0  0  0
   45.1680   35.7540   43.6590 N   0  0  0  0  0  0  0  0  0  0  0  0
   46.1570   34.9090   43.2880 C   0  0  0  0  0  0  0  0  0  0  0  0
   46.7700   35.0800   42.0670 C   0  0  0  0  0  0  0  0  0  0  0  0
   47.7800   34.2290   41.6740 C   0  0  0  0  0  0  0  0  0  0  0  0
   48.1350   33.2220   42.5420 C   0  0  0  0  0  0  0  0  0  0  0  0
   47.4860   33.1000   43.7500 C   0  0  0  0  0  0  0  0  0  0  0  0
   46.4750   33.9200   44.1910 C   0  0  0  0  0  0  0  0  0  0  0  0
   47.6650   32.2830   48.1930 C   0  0  0  0  0  0  0  0  0  0  0  0
   47.2740   30.9520   48.2800 C   0  0  0  0  0  0  0  0  0  0  0  0
   46.3610   30.5090   47.3500 C   0  0  0  0  0  0  0  0  0  0  0  0
   45.9020   31.3640   46.4250 N   0  0  0  0  0  0  0  0  0  0  0  0
   46.2750   32.6340   46.3410 C   0  0  0  0  0  0  0  0  0  0  0  0
   47.1630   33.0650   47.2440 N   0  0  0  0  0  0  0  0  0  0  0  0
   47.8410   30.1660   49.3110 N   0  0  0  0  0  0  0  0  0  0  0  0
   43.7449   36.2914   45.1582 H   0  0  0  0  0  0  0  0  0  0  0  0
   46.4526   35.8980   41.4036 H   0  0  0  0  0  0  0  0  0  0  0  0
   48.2833   34.3500   40.7034 H   0  0  0  0  0  0  0  0  0  0  0  0
   48.9347   32.5168   42.2716 H   0  0  0  0  0  0  0  0  0  0  0  0
   47.8014   32.2820   44.4144 H   0  0  0  0  0  0  0  0  0  0  0  0
   48.3918   32.6896   48.9117 H   0  0  0  0  0  0  0  0  0  0  0  0
   46.0122   29.4659   47.3656 H   0  0  0  0  0  0  0  0  0  0  0  0
   47.5763   29.1753   49.4081 H   0  0  0  0  0  0  0  0  0  0  0  0
   48.5184   30.5845   49.9644 H   0  0  0  0  0  0  0  0  0  0  0  0
  1  2  2  0
  1 15  1  0
  3  2  1  0
  4  3  2  0
  5  4  1  0
  5 10  2  0
  6  5  1  0
  7  6  2  0
  7  8  1  0
  8  9  2  0
  9 10  1  0
 10  1  1  0
 11 12  2  0
 12 17  1  0
 13 12  1  0
 14 13  2  0
 15 14  1  0
 15 16  2  0
 16 11  1  0
  3 18  1  0
  6 19  1  0
  7 20  1  0
  8 21  1  0
  9 22  1  0
 11 23  1  0
 13 24  1  0
 17 25  1  0
 17 26  1  0
M  ISO  7  18  14  19  14  20  14  21  14  22  14  23  14  24  14
M  END
>  <minimizedAffinity>  (1) 
-5.56297874

>  <minimizedRMSD>  (1) 
6.15321589

$$$$
