
     RDKit          3D

 39 43  0  0  0  0  0  0  0  0999 V2000
   47.3630   32.4010   47.9290 C   0  0  0  0  0  0  0  0  0  0  0  0
   46.8390   31.1340   48.0750 C   0  0  0  0  0  0  0  0  0  0  0  0
   45.9380   30.7480   47.1230 C   0  0  0  0  0  0  0  0  0  0  0  0
   45.6060   31.5790   46.1200 N   0  0  0  0  0  0  0  0  0  0  0  0
   46.1120   32.7930   45.9860 C   0  0  0  0  0  0  0  0  0  0  0  0
   46.9900   33.1630   46.9170 N   0  0  0  0  0  0  0  0  0  0  0  0
   45.8990   33.8520   44.9900 C   0  0  0  0  0  0  0  0  0  0  0  0
   44.9400   34.8010   45.0980 N   0  0  0  0  0  0  0  0  0  0  0  0
   44.7090   35.7730   44.2300 C   0  0  0  0  0  0  0  0  0  0  0  0
   45.4790   35.8690   43.1120 N   0  0  0  0  0  0  0  0  0  0  0  0
   46.4650   34.9810   42.8970 C   0  0  0  0  0  0  0  0  0  0  0  0
   47.2480   35.0810   41.7570 C   0  0  0  0  0  0  0  0  0  0  0  0
   48.2570   34.1880   41.5180 C   0  0  0  0  0  0  0  0  0  0  0  0
   48.4610   33.1870   42.4550 C   0  0  0  0  0  0  0  0  0  0  0  0
   47.6610   33.1250   43.5710 C   0  0  0  0  0  0  0  0  0  0  0  0
   46.6450   33.9940   43.8490 C   0  0  0  0  0  0  0  0  0  0  0  0
   44.8160   28.9010   45.9960 C   0  0  0  0  0  0  0  0  0  0  0  0
   45.3180   29.4560   47.1570 C   0  0  0  0  0  0  0  0  0  0  0  0
   45.2270   28.7720   48.3590 C   0  0  0  0  0  0  0  0  0  0  0  0
   44.6120   27.5190   48.3200 C   0  0  0  0  0  0  0  0  0  0  0  0
   44.4050   26.6620   49.3640 N   0  0  0  0  0  0  0  0  0  0  0  0
   43.7900   25.5930   48.8820 N   0  0  0  0  0  0  0  0  0  0  0  0
   43.6010   25.7450   47.5660 C   0  0  0  0  0  0  0  0  0  0  0  0
   44.1110   26.9580   47.1760 C   0  0  0  0  0  0  0  0  0  0  0  0
   44.2090   27.6550   45.9820 C   0  0  0  0  0  0  0  0  0  0  0  0
   47.2220   30.3060   49.1430 N   0  0  0  0  0  0  0  0  0  0  0  0
   48.0947   32.7786   48.6584 H   0  0  0  0  0  0  0  0  0  0  0  0
   43.9012   36.4974   44.4108 H   0  0  0  0  0  0  0  0  0  0  0  0
   47.0556   35.8886   41.0354 H   0  0  0  0  0  0  0  0  0  0  0  0
   48.8827   34.2617   40.6163 H   0  0  0  0  0  0  0  0  0  0  0  0
   49.2597   32.4455   42.3061 H   0  0  0  0  0  0  0  0  0  0  0  0
   47.8531   32.3170   44.2923 H   0  0  0  0  0  0  0  0  0  0  0  0
   44.9004   29.4644   45.0550 H   0  0  0  0  0  0  0  0  0  0  0  0
   45.6192   29.1946   49.2958 H   0  0  0  0  0  0  0  0  0  0  0  0
   44.6772   26.8187   50.3450 H   0  0  0  0  0  0  0  0  0  0  0  0
   43.1146   25.0145   46.9028 H   0  0  0  0  0  0  0  0  0  0  0  0
   43.8150   27.2301   45.0470 H   0  0  0  0  0  0  0  0  0  0  0  0
   46.8185   29.3627   49.2337 H   0  0  0  0  0  0  0  0  0  0  0  0
   47.9064   30.6421   49.8355 H   0  0  0  0  0  0  0  0  0  0  0  0
  1  2  2  0
  2 26  1  0
  3 18  1  0
  3  2  1  0
  4  3  2  0
  5  4  1  0
  5  6  2  0
  6  1  1  0
  7  8  2  0
  7  5  1  0
  9  8  1  0
 10  9  2  0
 11 10  1  0
 11 16  2  0
 12 11  1  0
 13 12  2  0
 13 14  1  0
 14 15  2  0
 15 16  1  0
 16  7  1  0
 17 18  2  0
 18 19  1  0
 20 19  2  0
 20 21  1  0
 22 21  1  0
 23 22  2  0
 24 23  1  0
 24 20  1  0
 25 17  1  0
 25 24  2  0
  1 27  1  0
  9 28  1  0
 12 29  1  0
 13 30  1  0
 14 31  1  0
 15 32  1  0
 17 33  1  0
 19 34  1  0
 21 35  1  0
 23 36  1  0
 25 37  1  0
 26 38  1  0
 26 39  1  0
M  ISO  8  27  14  28  14  29  14  30  14  31  14  32  14  33  14  34  14
M  ISO  3  35   9  36  14  37  14
M  END
>  <minimizedAffinity>  (1) 
-7.06226015

>  <minimizedRMSD>  (1) 
0.830878317

$$$$
