
     RDKit          3D

 37 41  0  0  0  0  0  0  0  0999 V2000
   47.6360   32.2370   48.1080 C   0  0  0  0  0  0  0  0  0  0  0  0
   47.2710   30.9080   48.1590 C   0  0  0  0  0  0  0  0  0  0  0  0
   46.3900   30.4920   47.2060 C   0  0  0  0  0  0  0  0  0  0  0  0
   45.9220   31.3480   46.2860 N   0  0  0  0  0  0  0  0  0  0  0  0
   46.2790   32.6340   46.2450 C   0  0  0  0  0  0  0  0  0  0  0  0
   47.1380   33.0390   47.1710 N   0  0  0  0  0  0  0  0  0  0  0  0
   45.9450   29.1710   47.1530 N   0  0  0  0  0  0  0  0  0  0  0  0
   44.7340   28.6650   46.8530 C   0  0  0  0  0  0  0  0  0  0  0  0
   44.7640   27.3210   46.9280 N   0  0  0  0  0  0  0  0  0  0  0  0
   46.0040   26.9380   47.2800 C   0  0  0  0  0  0  0  0  0  0  0  0
   46.5650   25.6940   47.4920 C   0  0  0  0  0  0  0  0  0  0  0  0
   47.8630   25.6670   47.8410 N   0  0  0  0  0  0  0  0  0  0  0  0
   48.6010   26.7900   47.9830 C   0  0  0  0  0  0  0  0  0  0  0  0
   48.0360   27.9820   47.7720 N   0  0  0  0  0  0  0  0  0  0  0  0
   46.7270   28.0820   47.4160 C   0  0  0  0  0  0  0  0  0  0  0  0
   45.8980   33.7290   45.3430 C   0  0  0  0  0  0  0  0  0  0  0  0
   44.9270   34.6280   45.6260 N   0  0  0  0  0  0  0  0  0  0  0  0
   44.5520   35.6320   44.8380 C   0  0  0  0  0  0  0  0  0  0  0  0
   45.1640   35.8070   43.6490 N   0  0  0  0  0  0  0  0  0  0  0  0
   46.1490   34.9770   43.2490 C   0  0  0  0  0  0  0  0  0  0  0  0
   46.7720   35.1620   42.0280 C   0  0  0  0  0  0  0  0  0  0  0  0
   47.7740   34.3230   41.6190 C   0  0  0  0  0  0  0  0  0  0  0  0
   48.1310   33.2980   42.4620 C   0  0  0  0  0  0  0  0  0  0  0  0
   47.4900   33.1470   43.6650 C   0  0  0  0  0  0  0  0  0  0  0  0
   46.4830   33.9570   44.1220 C   0  0  0  0  0  0  0  0  0  0  0  0
   47.7970   30.0570   49.1470 N   0  0  0  0  0  0  0  0  0  0  0  0
   48.3447   32.6370   48.8482 H   0  0  0  0  0  0  0  0  0  0  0  0
   43.8496   29.2621   46.5858 H   0  0  0  0  0  0  0  0  0  0  0  0
   45.9783   24.7702   47.3807 H   0  0  0  0  0  0  0  0  0  0  0  0
   49.6606   26.7231   48.2706 H   0  0  0  0  0  0  0  0  0  0  0  0
   43.7489   36.3142   45.1537 H   0  0  0  0  0  0  0  0  0  0  0  0
   46.4590   35.9925   41.3781 H   0  0  0  0  0  0  0  0  0  0  0  0
   48.2753   34.4644   40.6502 H   0  0  0  0  0  0  0  0  0  0  0  0
   48.9299   32.5996   42.1722 H   0  0  0  0  0  0  0  0  0  0  0  0
   47.8073   32.3148   44.3106 H   0  0  0  0  0  0  0  0  0  0  0  0
   47.5172   29.0661   49.1754 H   0  0  0  0  0  0  0  0  0  0  0  0
   48.4621   30.4245   49.8423 H   0  0  0  0  0  0  0  0  0  0  0  0
  1  2  2  0
  2 26  1  0
  3  2  1  0
  4  3  2  0
  5  4  1  0
  5  6  2  0
  6  1  1  0
  7  3  1  0
  7 15  1  0
  8  9  2  0
  8  7  1  0
  9 10  1  0
 10 15  2  0
 10 11  1  0
 11 12  2  0
 12 13  1  0
 14 13  2  0
 15 14  1  0
 16 17  2  0
 16  5  1  0
 18 17  1  0
 19 18  2  0
 20 19  1  0
 20 25  2  0
 21 20  1  0
 22 21  2  0
 22 23  1  0
 23 24  2  0
 24 25  1  0
 25 16  1  0
  1 27  1  0
  8 28  1  0
 11 29  1  0
 13 30  1  0
 18 31  1  0
 21 32  1  0
 22 33  1  0
 23 34  1  0
 24 35  1  0
 26 36  1  0
 26 37  1  0
M  ISO  8  27  14  28  14  29  14  30  14  31  14  32  14  33  14  34  14
M  ISO  1  35  14
M  END
>  <minimizedAffinity>  (1) 
-6.80845404

>  <minimizedRMSD>  (1) 
0.168193579

$$$$
