
     RDKit          3D

 36 39  0  0  0  0  0  0  0  0999 V2000
   47.3150   32.3030   47.9270 C   0  0  0  0  0  0  0  0  0  0  0  0
   46.7880   31.0320   48.0230 C   0  0  0  0  0  0  0  0  0  0  0  0
   45.8720   30.6890   47.0710 C   0  0  0  0  0  0  0  0  0  0  0  0
   45.5270   31.5630   46.1090 N   0  0  0  0  0  0  0  0  0  0  0  0
   46.0290   32.7770   46.0150 C   0  0  0  0  0  0  0  0  0  0  0  0
   46.9330   33.1210   46.9510 N   0  0  0  0  0  0  0  0  0  0  0  0
   45.8060   33.8710   45.0750 C   0  0  0  0  0  0  0  0  0  0  0  0
   44.8690   34.8400   45.2410 N   0  0  0  0  0  0  0  0  0  0  0  0
   44.6350   35.8470   44.4100 C   0  0  0  0  0  0  0  0  0  0  0  0
   45.3720   35.9670   43.2820 N   0  0  0  0  0  0  0  0  0  0  0  0
   46.3350   35.0710   42.9950 C   0  0  0  0  0  0  0  0  0  0  0  0
   47.0870   35.1980   41.8380 C   0  0  0  0  0  0  0  0  0  0  0  0
   48.0670   34.2920   41.5400 C   0  0  0  0  0  0  0  0  0  0  0  0
   48.2830   33.2580   42.4240 C   0  0  0  0  0  0  0  0  0  0  0  0
   47.5090   33.1740   43.5640 C   0  0  0  0  0  0  0  0  0  0  0  0
   46.5170   34.0510   43.9090 C   0  0  0  0  0  0  0  0  0  0  0  0
   45.2490   29.3890   47.0640 C   0  0  0  0  0  0  0  0  0  0  0  0
   44.5840   28.9520   45.9120 C   0  0  0  0  0  0  0  0  0  0  0  0
   43.9610   27.7130   45.8290 C   0  0  0  0  0  0  0  0  0  0  0  0
   44.0020   26.8900   46.9250 C   0  0  0  0  0  0  0  0  0  0  0  0
   44.6490   27.2640   48.1060 C   0  0  0  0  0  0  0  0  0  0  0  0
   45.2480   28.5020   48.1280 C   0  0  0  0  0  0  0  0  0  0  0  0
   47.1870   30.1640   49.0480 N   0  0  0  0  0  0  0  0  0  0  0  0
   48.0575   32.6427   48.6641 H   0  0  0  0  0  0  0  0  0  0  0  0
   43.8466   36.5799   44.6366 H   0  0  0  0  0  0  0  0  0  0  0  0
   46.8937   36.0361   41.1523 H   0  0  0  0  0  0  0  0  0  0  0  0
   48.6651   34.3862   40.6216 H   0  0  0  0  0  0  0  0  0  0  0  0
   49.0627   32.5083   42.2240 H   0  0  0  0  0  0  0  0  0  0  0  0
   47.7052   32.3360   44.2490 H   0  0  0  0  0  0  0  0  0  0  0  0
   44.5536   29.6172   45.0364 H   0  0  0  0  0  0  0  0  0  0  0  0
   43.4480   27.4002   44.9076 H   0  0  0  0  0  0  0  0  0  0  0  0
   43.5114   25.9068   46.8732 H   0  0  0  0  0  0  0  0  0  0  0  0
   44.6780   26.5970   48.9803 H   0  0  0  0  0  0  0  0  0  0  0  0
   45.7603   28.8081   49.0520 H   0  0  0  0  0  0  0  0  0  0  0  0
   46.7848   29.2176   49.1071 H   0  0  0  0  0  0  0  0  0  0  0  0
   47.8825   30.4723   49.7424 H   0  0  0  0  0  0  0  0  0  0  0  0
  1  2  2  0
  2 23  1  0
  3  2  1  0
  4  3  2  0
  5  4  1  0
  5  6  2  0
  6  1  1  0
  7  8  2  0
  7  5  1  0
  9  8  1  0
 10  9  2  0
 11 10  1  0
 11 16  2  0
 12 11  1  0
 13 12  2  0
 13 14  1  0
 14 15  2  0
 15 16  1  0
 16  7  1  0
 17  3  1  0
 17 22  1  0
 18 17  2  0
 19 18  1  0
 19 20  2  0
 20 21  1  0
 21 22  2  0
  1 24  1  0
  9 25  1  0
 12 26  1  0
 13 27  1  0
 14 28  1  0
 15 29  1  0
 18 30  1  0
 19 31  1  0
 20 32  1  0
 21 33  1  0
 22 34  1  0
 23 35  1  0
 23 36  1  0
M  ISO  8  24  14  25  14  26  14  27  14  28  14  29  14  30  14  31  14
M  ISO  3  32  14  33  14  34  14
M  END
>  <minimizedAffinity>  (1) 
-6.5068717

>  <minimizedRMSD>  (1) 
0.604815066

$$$$
