
     RDKit          3D

 29 31  0  0  0  0  0  0  0  0999 V2000
   45.8140   33.8330   45.4090 C   0  0  0  0  0  0  0  0  0  0  0  0
   44.8650   34.7880   45.5540 N   0  0  0  0  0  0  0  0  0  0  0  0
   44.5710   35.7260   44.6490 C   0  0  0  0  0  0  0  0  0  0  0  0
   45.2440   35.7690   43.4810 N   0  0  0  0  0  0  0  0  0  0  0  0
   46.2110   34.8760   43.2130 C   0  0  0  0  0  0  0  0  0  0  0  0
   46.8890   34.9330   42.0160 C   0  0  0  0  0  0  0  0  0  0  0  0
   47.8770   34.0290   41.7300 C   0  0  0  0  0  0  0  0  0  0  0  0
   48.1660   33.0680   42.6800 C   0  0  0  0  0  0  0  0  0  0  0  0
   47.4620   33.0530   43.8580 C   0  0  0  0  0  0  0  0  0  0  0  0
   46.4590   33.9390   44.1920 C   0  0  0  0  0  0  0  0  0  0  0  0
   47.6130   32.4330   48.1730 C   0  0  0  0  0  0  0  0  0  0  0  0
   47.0250   31.1970   48.4480 C   0  0  0  0  0  0  0  0  0  0  0  0
   45.9710   30.8280   47.6580 C   0  0  0  0  0  0  0  0  0  0  0  0
   45.5710   31.6490   46.6890 N   0  0  0  0  0  0  0  0  0  0  0  0
   46.1160   32.8180   46.4170 C   0  0  0  0  0  0  0  0  0  0  0  0
   47.1520   33.1890   47.1900 N   0  0  0  0  0  0  0  0  0  0  0  0
   45.3070   29.5520   47.8870 C   0  0  0  0  0  0  0  0  0  0  0  0
   44.7640   29.5200   49.1740 F   0  0  0  0  0  0  0  0  0  0  0  0
   44.2900   29.3890   47.0010 F   0  0  0  0  0  0  0  0  0  0  0  0
   46.1600   28.4670   47.7970 F   0  0  0  0  0  0  0  0  0  0  0  0
   47.5440   30.4140   49.5090 N   0  0  0  0  0  0  0  0  0  0  0  0
   43.7807   36.4625   44.8564 H   0  0  0  0  0  0  0  0  0  0  0  0
   46.6346   35.7122   41.2824 H   0  0  0  0  0  0  0  0  0  0  0  0
   48.4226   34.0666   40.7756 H   0  0  0  0  0  0  0  0  0  0  0  0
   48.9528   32.3222   42.4938 H   0  0  0  0  0  0  0  0  0  0  0  0
   47.7172   32.2746   44.5922 H   0  0  0  0  0  0  0  0  0  0  0  0
   48.4643   32.7802   48.7770 H   0  0  0  0  0  0  0  0  0  0  0  0
   47.1238   29.4993   49.7274 H   0  0  0  0  0  0  0  0  0  0  0  0
   48.3414   30.7596   50.0618 H   0  0  0  0  0  0  0  0  0  0  0  0
  1  2  2  0
  1 15  1  0
  3  2  1  0
  4  3  2  0
  5  4  1  0
  5 10  2  0
  6  5  1  0
  7  6  2  0
  7  8  1  0
  8  9  2  0
  9 10  1  0
 10  1  1  0
 11 12  2  0
 12 21  1  0
 13 17  1  0
 13 12  1  0
 14 13  2  0
 15 14  1  0
 15 16  2  0
 16 11  1  0
 17 18  1  0
 19 17  1  0
 20 17  1  0
  3 22  1  0
  6 23  1  0
  7 24  1  0
  8 25  1  0
  9 26  1  0
 11 27  1  0
 21 28  1  0
 21 29  1  0
M  ISO  6  22  14  23  14  24  14  25  14  26  14  27  14
M  END
>  <minimizedAffinity>  (1) 
-6.47304249

>  <minimizedRMSD>  (1) 
0.510414183

$$$$
