
     RDKit          3D

 36 38  0  0  0  0  0  0  0  0999 V2000
   46.2300   31.8430   47.1170 C   0  0  0  0  0  0  0  0  0  0  0  0
   45.9510   32.4250   48.3440 C   0  0  0  0  0  0  0  0  0  0  0  0
   45.3940   31.7540   49.3970 C   0  0  0  0  0  0  0  0  0  0  0  0
   45.1050   30.4290   49.1970 C   0  0  0  0  0  0  0  0  0  0  0  0
   45.3860   29.8390   47.9620 C   0  0  0  0  0  0  0  0  0  0  0  0
   45.9520   30.5280   46.9030 C   0  0  0  0  0  0  0  0  0  0  0  0
   48.5820   29.3520   45.5750 Cl  0  0  0  0  0  0  0  0  0  0  0  0
   46.9750   28.7390   45.2490 C   0  0  0  0  0  0  0  0  0  0  0  0
   46.0010   29.4430   45.9270 C   0  0  0  0  0  0  0  0  0  0  0  0
   44.6620   29.0680   45.7080 C   0  0  0  0  0  0  0  0  0  0  0  0
   44.3150   28.0370   44.8540 C   0  0  0  0  0  0  0  0  0  0  0  0
   45.3070   27.3480   44.1900 C   0  0  0  0  0  0  0  0  0  0  0  0
   45.0330   26.0220   43.0810 Cl  0  0  0  0  0  0  0  0  0  0  0  0
   46.6150   27.7200   44.4070 C   0  0  0  0  0  0  0  0  0  0  0  0
   46.8310   32.4930   45.9260 C   0  0  0  0  0  0  0  0  0  0  0  0
   45.8960   32.4540   44.7500 C   0  0  0  0  0  0  0  0  0  0  0  0
   44.6180   35.9100   44.8310 C   0  0  0  0  0  0  0  0  0  0  0  0
   45.0370   36.4020   43.5600 C   0  0  0  0  0  0  0  0  0  0  0  0
   45.7570   35.5390   42.7490 C   0  0  0  0  0  0  0  0  0  0  0  0
   46.0280   34.2990   43.1740 N   0  0  0  0  0  0  0  0  0  0  0  0
   45.6040   33.8810   44.3950 C   0  0  0  0  0  0  0  0  0  0  0  0
   44.9180   34.6530   45.2110 N   0  0  0  0  0  0  0  0  0  0  0  0
   46.1921   33.4898   48.4783 H   0  0  0  0  0  0  0  0  0  0  0  0
   45.1882   32.2521   50.3559 H   0  0  0  0  0  0  0  0  0  0  0  0
   44.6543   29.8334   50.0045 H   0  0  0  0  0  0  0  0  0  0  0  0
   45.1456   28.7744   47.8244 H   0  0  0  0  0  0  0  0  0  0  0  0
   43.8646   29.6135   46.2339 H   0  0  0  0  0  0  0  0  0  0  0  0
   43.2583   27.7696   44.7062 H   0  0  0  0  0  0  0  0  0  0  0  0
   47.4093   27.1724   43.8786 H   0  0  0  0  0  0  0  0  0  0  0  0
   47.0590   33.5417   46.1674 H   0  0  0  0  0  0  0  0  0  0  0  0
   47.7471   31.9461   45.6583 H   0  0  0  0  0  0  0  0  0  0  0  0
   46.3725   31.9406   43.9018 H   0  0  0  0  0  0  0  0  0  0  0  0
   44.9733   31.9060   44.9917 H   0  0  0  0  0  0  0  0  0  0  0  0
   44.0452   36.5622   45.5067 H   0  0  0  0  0  0  0  0  0  0  0  0
   44.7983   37.4258   43.2360 H   0  0  0  0  0  0  0  0  0  0  0  0
   46.1044   35.8718   41.7598 H   0  0  0  0  0  0  0  0  0  0  0  0
  1  2  2  0
  2  3  1  0
  4  3  2  0
  5  4  1  0
  6  1  1  0
  6  5  2  0
  8  7  1  0
  8  9  2  0
  9  6  1  0
 10  9  1  0
 11 10  2  0
 12 14  2  0
 12 11  1  0
 13 12  1  0
 14  8  1  0
 15  1  1  0
 16 15  1  0
 17 22  2  0
 18 17  1  0
 19 20  1  0
 19 18  2  0
 20 21  2  0
 21 16  1  0
 21 22  1  0
  2 23  1  0
  3 24  1  0
  4 25  1  0
  5 26  1  0
 10 27  1  0
 11 28  1  0
 14 29  1  0
 15 30  1  0
 15 31  1  0
 16 32  1  0
 16 33  1  0
 17 34  1  0
 18 35  1  0
 19 36  1  0
M  ISO  8  23  14  24  14  25  14  26  14  27  14  28  14  29  14  30   8
M  ISO  6  31   8  32   8  33   8  34  14  35  14  36  14
M  END
>  <minimizedAffinity>  (1) 
-5.0563612

>  <minimizedRMSD>  (1) 
0.780302227

$$$$
