
     RDKit          3D

 33 36  0  0  0  0  0  0  0  0999 V2000
   47.5550   32.3310   48.1170 C   0  0  0  0  0  0  0  0  0  0  0  0
   47.1330   31.0010   48.1980 C   0  0  0  0  0  0  0  0  0  0  0  0
   46.2370   30.5680   47.2400 C   0  0  0  0  0  0  0  0  0  0  0  0
   45.8350   31.4440   46.3060 N   0  0  0  0  0  0  0  0  0  0  0  0
   46.2270   32.6960   46.2250 C   0  0  0  0  0  0  0  0  0  0  0  0
   47.0930   33.1150   47.1480 N   0  0  0  0  0  0  0  0  0  0  0  0
   45.8910   33.7620   45.2830 C   0  0  0  0  0  0  0  0  0  0  0  0
   44.9170   34.6910   45.4970 N   0  0  0  0  0  0  0  0  0  0  0  0
   44.5850   35.6750   44.6640 C   0  0  0  0  0  0  0  0  0  0  0  0
   45.2370   35.8100   43.4900 N   0  0  0  0  0  0  0  0  0  0  0  0
   46.2240   34.9560   43.1530 C   0  0  0  0  0  0  0  0  0  0  0  0
   46.8900   35.0990   41.9480 C   0  0  0  0  0  0  0  0  0  0  0  0
   47.8950   34.2370   41.5990 C   0  0  0  0  0  0  0  0  0  0  0  0
   48.2120   33.2320   42.4850 C   0  0  0  0  0  0  0  0  0  0  0  0
   47.5270   33.1230   43.6700 C   0  0  0  0  0  0  0  0  0  0  0  0
   46.5150   33.9590   44.0680 C   0  0  0  0  0  0  0  0  0  0  0  0
   45.7360   29.2130   47.2300 C   0  0  0  0  0  0  0  0  0  0  0  0
   44.5160   28.6880   46.8760 C   0  0  0  0  0  0  0  0  0  0  0  0
   44.5010   27.3200   47.0330 C   0  0  0  0  0  0  0  0  0  0  0  0
   45.7750   27.0510   47.4980 C   0  0  0  0  0  0  0  0  0  0  0  0
   46.4420   28.1710   47.5920 O   0  0  0  0  0  0  0  0  0  0  0  0
   47.6350   30.1900   49.2310 N   0  0  0  0  0  0  0  0  0  0  0  0
   48.2684   32.7284   48.8540 H   0  0  0  0  0  0  0  0  0  0  0  0
   43.7811   36.3764   44.9319 H   0  0  0  0  0  0  0  0  0  0  0  0
   46.6091   35.9133   41.2639 H   0  0  0  0  0  0  0  0  0  0  0  0
   48.4304   34.3437   40.6441 H   0  0  0  0  0  0  0  0  0  0  0  0
   49.0128   32.5175   42.2439 H   0  0  0  0  0  0  0  0  0  0  0  0
   47.8104   32.3058   44.3496 H   0  0  0  0  0  0  0  0  0  0  0  0
   43.6638   29.2824   46.5148 H   0  0  0  0  0  0  0  0  0  0  0  0
   43.6791   26.6157   46.8370 H   0  0  0  0  0  0  0  0  0  0  0  0
   46.1650   26.0535   47.7488 H   0  0  0  0  0  0  0  0  0  0  0  0
   47.3352   29.2075   49.3063 H   0  0  0  0  0  0  0  0  0  0  0  0
   48.3026   30.5784   49.9125 H   0  0  0  0  0  0  0  0  0  0  0  0
  1  2  2  0
  2 22  1  0
  3  2  1  0
  4  3  2  0
  5  4  1  0
  5  6  2  0
  6  1  1  0
  7  8  2  0
  7  5  1  0
  9  8  1  0
 10  9  2  0
 11 10  1  0
 11 16  2  0
 12 11  1  0
 13 12  2  0
 13 14  1  0
 14 15  2  0
 15 16  1  0
 16  7  1  0
 17  3  1  0
 17 21  1  0
 18 19  1  0
 18 17  2  0
 19 20  2  0
 20 21  1  0
  1 23  1  0
  9 24  1  0
 12 25  1  0
 13 26  1  0
 14 27  1  0
 15 28  1  0
 18 29  1  0
 19 30  1  0
 20 31  1  0
 22 32  1  0
 22 33  1  0
M  ISO  8  23  14  24  14  25  14  26  14  27  14  28  14  29  14  30  14
M  ISO  1  31  14
M  END
>  <minimizedAffinity>  (1) 
-6.24438667

>  <minimizedRMSD>  (1) 
0.210478663

$$$$
