
     RDKit          3D

 27 29  0  0  0  0  0  0  0  0999 V2000
   45.8800   33.7260   45.4090 C   0  0  0  0  0  0  0  0  0  0  0  0
   44.9180   34.6350   45.6530 N   0  0  0  0  0  0  0  0  0  0  0  0
   44.5480   35.6170   44.8480 C   0  0  0  0  0  0  0  0  0  0  0  0
   45.1640   35.7650   43.6570 N   0  0  0  0  0  0  0  0  0  0  0  0
   46.1470   34.9230   43.2860 C   0  0  0  0  0  0  0  0  0  0  0  0
   46.7720   35.0810   42.0670 C   0  0  0  0  0  0  0  0  0  0  0  0
   47.7730   34.2350   41.6740 C   0  0  0  0  0  0  0  0  0  0  0  0
   48.1270   33.2270   42.5410 C   0  0  0  0  0  0  0  0  0  0  0  0
   47.4810   33.1030   43.7460 C   0  0  0  0  0  0  0  0  0  0  0  0
   46.4750   33.9250   44.1800 C   0  0  0  0  0  0  0  0  0  0  0  0
   47.6700   32.3070   48.1850 C   0  0  0  0  0  0  0  0  0  0  0  0
   47.2840   30.9860   48.2890 C   0  0  0  0  0  0  0  0  0  0  0  0
   46.3690   30.5510   47.3730 C   0  0  0  0  0  0  0  0  0  0  0  0
   45.8920   31.3850   46.4350 N   0  0  0  0  0  0  0  0  0  0  0  0
   46.2600   32.6500   46.3330 C   0  0  0  0  0  0  0  0  0  0  0  0
   47.1520   33.0720   47.2290 N   0  0  0  0  0  0  0  0  0  0  0  0
   47.8220   30.1570   49.2970 N   0  0  0  0  0  0  0  0  0  0  0  0
   45.7900   28.8950   47.3870 S   0  0  0  0  0  0  0  0  0  0  0  0
   43.7451   36.3069   45.1470 H   0  0  0  0  0  0  0  0  0  0  0  0
   46.4612   35.8992   41.4007 H   0  0  0  0  0  0  0  0  0  0  0  0
   48.2751   34.3560   40.7028 H   0  0  0  0  0  0  0  0  0  0  0  0
   48.9262   32.5217   42.2691 H   0  0  0  0  0  0  0  0  0  0  0  0
   47.7939   32.2845   44.4109 H   0  0  0  0  0  0  0  0  0  0  0  0
   48.4033   32.7252   48.8903 H   0  0  0  0  0  0  0  0  0  0  0  0
   47.5272   29.1725   49.3659 H   0  0  0  0  0  0  0  0  0  0  0  0
   48.5093   30.5366   49.9636 H   0  0  0  0  0  0  0  0  0  0  0  0
   45.6427   28.4737   48.6823 H   0  0  0  0  0  0  0  0  0  0  0  0
  1  2  2  0
  1 15  1  0
  3  2  1  0
  4  3  2  0
  5  4  1  0
  5 10  2  0
  6  5  1  0
  7  6  2  0
  7  8  1  0
  8  9  2  0
  9 10  1  0
 10  1  1  0
 11 12  2  0
 12 17  1  0
 13 18  1  0
 13 12  1  0
 14 13  2  0
 15 14  1  0
 15 16  2  0
 16 11  1  0
  3 19  1  0
  6 20  1  0
  7 21  1  0
  8 22  1  0
  9 23  1  0
 11 24  1  0
 17 25  1  0
 17 26  1  0
 18 27  1  0
M  ISO  7  19  14  20  14  21  14  22  14  23  14  24  14  27  11
M  END
>  <minimizedAffinity>  (1) 
-5.76553869

>  <minimizedRMSD>  (1) 
0.0206355769

$$$$
