
     RDKit          3D

 27 29  0  0  0  0  0  0  0  0999 V2000
   45.8920   33.7120   45.4060 C   0  0  0  0  0  0  0  0  0  0  0  0
   44.9140   34.6240   45.6690 N   0  0  0  0  0  0  0  0  0  0  0  0
   44.5460   35.6130   44.8530 C   0  0  0  0  0  0  0  0  0  0  0  0
   45.1610   35.7620   43.6630 N   0  0  0  0  0  0  0  0  0  0  0  0
   46.1520   34.9170   43.2850 C   0  0  0  0  0  0  0  0  0  0  0  0
   46.7730   35.0770   42.0680 C   0  0  0  0  0  0  0  0  0  0  0  0
   47.7750   34.2280   41.6760 C   0  0  0  0  0  0  0  0  0  0  0  0
   48.1250   33.2210   42.5430 C   0  0  0  0  0  0  0  0  0  0  0  0
   47.4810   33.0960   43.7470 C   0  0  0  0  0  0  0  0  0  0  0  0
   46.4770   33.9200   44.1770 C   0  0  0  0  0  0  0  0  0  0  0  0
   47.6690   32.3010   48.1860 C   0  0  0  0  0  0  0  0  0  0  0  0
   47.2860   30.9800   48.2960 C   0  0  0  0  0  0  0  0  0  0  0  0
   46.3760   30.5440   47.3750 C   0  0  0  0  0  0  0  0  0  0  0  0
   45.9050   31.3800   46.4360 N   0  0  0  0  0  0  0  0  0  0  0  0
   46.2690   32.6380   46.3300 C   0  0  0  0  0  0  0  0  0  0  0  0
   47.1650   33.0800   47.2340 N   0  0  0  0  0  0  0  0  0  0  0  0
   47.8220   30.1660   49.3080 N   0  0  0  0  0  0  0  0  0  0  0  0
   45.9280   29.2580   47.3890 O   0  0  0  0  0  0  0  0  0  0  0  0
   43.7437   36.3043   45.1502 H   0  0  0  0  0  0  0  0  0  0  0  0
   46.4619   35.8954   41.4021 H   0  0  0  0  0  0  0  0  0  0  0  0
   48.2791   34.3480   40.7057 H   0  0  0  0  0  0  0  0  0  0  0  0
   48.9228   32.5143   42.2708 H   0  0  0  0  0  0  0  0  0  0  0  0
   47.7928   32.2775   44.4125 H   0  0  0  0  0  0  0  0  0  0  0  0
   48.4009   32.7149   48.8953 H   0  0  0  0  0  0  0  0  0  0  0  0
   47.5316   29.1807   49.3843 H   0  0  0  0  0  0  0  0  0  0  0  0
   48.5053   30.5545   49.9736 H   0  0  0  0  0  0  0  0  0  0  0  0
   45.2684   28.9562   46.7152 H   0  0  0  0  0  0  0  0  0  0  0  0
  1  2  2  0
  1 15  1  0
  3  2  1  0
  4  3  2  0
  5  4  1  0
  5 10  2  0
  6  5  1  0
  7  6  2  0
  7  8  1  0
  8  9  2  0
  9 10  1  0
 10  1  1  0
 11 12  2  0
 12 17  1  0
 13 18  1  0
 13 12  1  0
 14 13  2  0
 15 14  1  0
 15 16  2  0
 16 11  1  0
  3 19  1  0
  6 20  1  0
  7 21  1  0
  8 22  1  0
  9 23  1  0
 11 24  1  0
 17 25  1  0
 17 26  1  0
 18 27  1  0
M  ISO  7  19  14  20  14  21  14  22  14  23  14  24  14  27   3
M  END
>  <minimizedAffinity>  (1) 
-5.73585796

>  <minimizedRMSD>  (1) 
0.013008114

$$$$
