
     RDKit          3D

 28 30  0  0  0  0  0  0  0  0999 V2000
   45.8290   33.8230   45.3870 C   0  0  0  0  0  0  0  0  0  0  0  0
   44.8740   34.7700   45.5460 N   0  0  0  0  0  0  0  0  0  0  0  0
   44.5660   35.7080   44.6630 C   0  0  0  0  0  0  0  0  0  0  0  0
   45.2330   35.7690   43.4860 N   0  0  0  0  0  0  0  0  0  0  0  0
   46.2080   34.8780   43.2110 C   0  0  0  0  0  0  0  0  0  0  0  0
   46.8900   34.9380   42.0110 C   0  0  0  0  0  0  0  0  0  0  0  0
   47.8810   34.0390   41.7190 C   0  0  0  0  0  0  0  0  0  0  0  0
   48.1650   33.0860   42.6640 C   0  0  0  0  0  0  0  0  0  0  0  0
   47.4680   33.0560   43.8460 C   0  0  0  0  0  0  0  0  0  0  0  0
   46.4730   33.9290   44.1790 C   0  0  0  0  0  0  0  0  0  0  0  0
   47.5930   32.4300   48.1890 C   0  0  0  0  0  0  0  0  0  0  0  0
   47.0390   31.1850   48.4420 C   0  0  0  0  0  0  0  0  0  0  0  0
   46.0180   30.8020   47.6190 C   0  0  0  0  0  0  0  0  0  0  0  0
   45.6060   31.6050   46.6430 N   0  0  0  0  0  0  0  0  0  0  0  0
   46.1350   32.7970   46.4010 C   0  0  0  0  0  0  0  0  0  0  0  0
   47.1330   33.1840   47.1970 N   0  0  0  0  0  0  0  0  0  0  0  0
   47.5360   30.3970   49.4970 N   0  0  0  0  0  0  0  0  0  0  0  0
   45.3800   29.5370   47.7940 C   0  0  0  0  0  0  0  0  0  0  0  0
   45.8900   28.3990   47.6970 O   0  0  0  0  0  0  0  0  0  0  0  0
   43.7710   36.4351   44.8850 H   0  0  0  0  0  0  0  0  0  0  0  0
   46.6334   35.7188   41.2799 H   0  0  0  0  0  0  0  0  0  0  0  0
   48.4273   34.0795   40.7651 H   0  0  0  0  0  0  0  0  0  0  0  0
   48.9539   32.3434   42.4738 H   0  0  0  0  0  0  0  0  0  0  0  0
   47.7292   32.2748   44.5750 H   0  0  0  0  0  0  0  0  0  0  0  0
   48.4202   32.7965   48.8147 H   0  0  0  0  0  0  0  0  0  0  0  0
   47.1254   29.4716   49.6863 H   0  0  0  0  0  0  0  0  0  0  0  0
   48.3104   30.7458   50.0798 H   0  0  0  0  0  0  0  0  0  0  0  0
   44.3094   29.5666   48.0447 H   0  0  0  0  0  0  0  0  0  0  0  0
  1  2  2  0
  1 15  1  0
  3  2  1  0
  4  3  2  0
  5  4  1  0
  5 10  2  0
  6  5  1  0
  7  6  2  0
  7  8  1  0
  8  9  2  0
  9 10  1  0
 10  1  1  0
 11 12  2  0
 12 17  1  0
 13 18  1  0
 13 12  1  0
 14 13  2  0
 15 14  1  0
 15 16  2  0
 16 11  1  0
 19 18  2  0
  3 20  1  0
  6 21  1  0
  7 22  1  0
  8 23  1  0
  9 24  1  0
 11 25  1  0
 17 26  1  0
 17 27  1  0
 18 28  1  0
M  ISO  7  20  14  21  14  22  14  23  14  24  14  25  14  28   6
M  END
>  <minimizedAffinity>  (1) 
-5.74004173

>  <minimizedRMSD>  (1) 
0.394389629

$$$$
