
     RDKit          3D

 42 45  0  0  0  0  0  0  0  0999 V2000
   47.4540   32.0700   47.8500 C   0  0  0  0  0  0  0  0  0  0  0  0
   46.9240   30.7860   47.8940 C   0  0  0  0  0  0  0  0  0  0  0  0
   45.9560   30.4960   46.9840 C   0  0  0  0  0  0  0  0  0  0  0  0
   45.5560   31.4150   46.0960 N   0  0  0  0  0  0  0  0  0  0  0  0
   46.0650   32.6500   46.0440 C   0  0  0  0  0  0  0  0  0  0  0  0
   47.0170   32.9460   46.9440 N   0  0  0  0  0  0  0  0  0  0  0  0
   45.3470   29.2520   46.9650 N   0  0  0  0  0  0  0  0  0  0  0  0
   44.1390   28.9080   46.1860 C   0  0  0  0  0  0  0  0  0  0  0  0
   43.9840   27.4200   46.3010 C   0  0  0  0  0  0  0  0  0  0  0  0
   44.7110   27.0750   47.5570 C   0  0  0  0  0  0  0  0  0  0  0  0
   45.7780   28.0900   47.6960 C   0  0  0  0  0  0  0  0  0  0  0  0
   45.7980   33.7840   45.1490 C   0  0  0  0  0  0  0  0  0  0  0  0
   44.8710   34.7440   45.4360 N   0  0  0  0  0  0  0  0  0  0  0  0
   44.5940   35.7890   44.6640 C   0  0  0  0  0  0  0  0  0  0  0  0
   45.2580   35.9500   43.4930 N   0  0  0  0  0  0  0  0  0  0  0  0
   46.1970   35.0620   43.1060 C   0  0  0  0  0  0  0  0  0  0  0  0
   46.8430   35.2420   41.9170 C   0  0  0  0  0  0  0  0  0  0  0  0
   47.7940   34.3400   41.5010 C   0  0  0  0  0  0  0  0  0  0  0  0
   48.0660   33.2540   42.3270 C   0  0  0  0  0  0  0  0  0  0  0  0
   47.3690   33.1390   43.5210 C   0  0  0  0  0  0  0  0  0  0  0  0
   46.4250   34.0130   43.9570 C   0  0  0  0  0  0  0  0  0  0  0  0
   47.6860   30.6460   43.5120 C   0  0  0  0  0  0  0  0  0  0  0  0
   47.1950   30.2690   42.4040 O   0  0  0  0  0  0  0  0  0  0  0  0
   47.8240   31.9440   44.1380 N   0  0  0  0  0  0  0  0  0  0  0  0
   47.4500   29.8710   48.7920 N   0  0  0  0  0  0  0  0  0  0  0  0
   48.2365   32.3648   48.5647 H   0  0  0  0  0  0  0  0  0  0  0  0
   44.2674   29.1989   45.1329 H   0  0  0  0  0  0  0  0  0  0  0  0
   43.2513   29.4364   46.5639 H   0  0  0  0  0  0  0  0  0  0  0  0
   42.9222   27.1425   46.3755 H   0  0  0  0  0  0  0  0  0  0  0  0
   44.3782   26.8853   45.4243 H   0  0  0  0  0  0  0  0  0  0  0  0
   44.0283   27.1163   48.4185 H   0  0  0  0  0  0  0  0  0  0  0  0
   45.1236   26.0560   47.5195 H   0  0  0  0  0  0  0  0  0  0  0  0
   46.7206   27.7078   47.2773 H   0  0  0  0  0  0  0  0  0  0  0  0
   45.9545   28.3335   48.7541 H   0  0  0  0  0  0  0  0  0  0  0  0
   43.8310   36.5188   44.9728 H   0  0  0  0  0  0  0  0  0  0  0  0
   46.6018   36.1123   41.2890 H   0  0  0  0  0  0  0  0  0  0  0  0
   48.3228   34.4729   40.5456 H   0  0  0  0  0  0  0  0  0  0  0  0
   48.8170   32.5033   42.0398 H   0  0  0  0  0  0  0  0  0  0  0  0
   48.0873   29.8207   44.1185 H   0  0  0  0  0  0  0  0  0  0  0  0
   48.2687   32.0027   45.0652 H   0  0  0  0  0  0  0  0  0  0  0  0
   47.0681   28.9155   48.8368 H   0  0  0  0  0  0  0  0  0  0  0  0
   48.2228   30.1464   49.4147 H   0  0  0  0  0  0  0  0  0  0  0  0
  1  2  2  0
  2 25  1  0
  3  2  1  0
  4  3  2  0
  5  4  1  0
  5  6  2  0
  6  1  1  0
  7  3  1  0
  7 11  1  0
  8  9  1  0
  8  7  1  0
  9 10  1  0
 10 11  1  0
 12 13  2  0
 12  5  1  0
 14 13  1  0
 15 14  2  0
 16 15  1  0
 16 21  2  0
 17 16  1  0
 18 17  2  0
 18 19  1  0
 19 20  2  0
 20 21  1  0
 20 24  1  0
 21 12  1  0
 22 24  1  0
 23 22  2  0
  1 26  1  0
  8 27  1  0
  8 28  1  0
  9 29  1  0
  9 30  1  0
 10 31  1  0
 10 32  1  0
 11 33  1  0
 11 34  1  0
 14 35  1  0
 17 36  1  0
 18 37  1  0
 19 38  1  0
 22 39  1  0
 24 40  1  0
 25 41  1  0
 25 42  1  0
M  ISO  8  26  14  27  13  28  13  29  13  30  13  31  13  32  13  33  13
M  ISO  6  34  13  35  14  36  14  37  14  38  14  39   6
M  END
>  <minimizedAffinity>  (1) 
-6.25030422

>  <minimizedRMSD>  (1) 
0.222805992

$$$$
