
     RDKit          3D

 53 58  0  0  0  0  0  0  0  0999 V2000
   45.6840   33.6290   45.2190 C   0  0  0  0  0  0  0  0  0  0  0  0
   44.9930   34.6870   45.7210 N   0  0  0  0  0  0  0  0  0  0  0  0
   44.6750   35.7860   45.0420 C   0  0  0  0  0  0  0  0  0  0  0  0
   45.0510   35.8960   43.7450 N   0  0  0  0  0  0  0  0  0  0  0  0
   45.7340   34.9120   43.1540 C   0  0  0  0  0  0  0  0  0  0  0  0
   46.0910   35.0200   41.8220 C   0  0  0  0  0  0  0  0  0  0  0  0
   46.7740   33.9980   41.1960 C   0  0  0  0  0  0  0  0  0  0  0  0
   47.0850   32.8830   41.9380 C   0  0  0  0  0  0  0  0  0  0  0  0
   46.7040   32.8290   43.2660 C   0  0  0  0  0  0  0  0  0  0  0  0
   46.0300   33.8090   43.9140 C   0  0  0  0  0  0  0  0  0  0  0  0
   47.4680   31.7210   47.6800 C   0  0  0  0  0  0  0  0  0  0  0  0
   46.9060   30.4550   47.6960 C   0  0  0  0  0  0  0  0  0  0  0  0
   45.8700   30.2350   46.8540 C   0  0  0  0  0  0  0  0  0  0  0  0
   45.4350   31.2090   46.0450 N   0  0  0  0  0  0  0  0  0  0  0  0
   45.9760   32.4360   46.0130 C   0  0  0  0  0  0  0  0  0  0  0  0
   46.9970   32.6490   46.8590 N   0  0  0  0  0  0  0  0  0  0  0  0
   45.2010   29.0210   46.8230 N   0  0  0  0  0  0  0  0  0  0  0  0
   43.9110   28.7610   46.1560 C   0  0  0  0  0  0  0  0  0  0  0  0
   43.7370   27.2650   46.1710 C   0  0  0  0  0  0  0  0  0  0  0  0
   44.5170   26.8430   47.3810 C   0  0  0  0  0  0  0  0  0  0  0  0
   45.6480   27.8040   47.4600 C   0  0  0  0  0  0  0  0  0  0  0  0
   47.4820   29.4590   48.4800 N   0  0  0  0  0  0  0  0  0  0  0  0
   47.2020   31.5280   43.6950 C   0  0  0  0  0  0  0  0  0  0  0  0
   46.3380   30.4910   43.2650 C   0  0  0  0  0  0  0  0  0  0  0  0
   46.5650   29.1230   43.4550 C   0  0  0  0  0  0  0  0  0  0  0  0
   47.7160   28.7550   44.1110 C   0  0  0  0  0  0  0  0  0  0  0  0
   48.0690   27.4900   44.3660 N   0  0  0  0  0  0  0  0  0  0  0  0
   49.2210   27.1970   45.0190 C   0  0  0  0  0  0  0  0  0  0  0  0
   50.1220   28.1590   45.4720 C   0  0  0  0  0  0  0  0  0  0  0  0
   49.7620   29.4850   45.2100 C   0  0  0  0  0  0  0  0  0  0  0  0
   48.5920   29.7200   44.5510 C   0  0  0  0  0  0  0  0  0  0  0  0
   48.3280   31.0500   44.3420 C   0  0  0  0  0  0  0  0  0  0  0  0
   44.1128   36.5967   45.5284 H   0  0  0  0  0  0  0  0  0  0  0  0
   45.8284   35.9272   41.2580 H   0  0  0  0  0  0  0  0  0  0  0  0
   47.0608   34.0727   40.1367 H   0  0  0  0  0  0  0  0  0  0  0  0
   47.6302   32.0442   41.4807 H   0  0  0  0  0  0  0  0  0  0  0  0
   48.3075   31.9569   48.3505 H   0  0  0  0  0  0  0  0  0  0  0  0
   43.9324   29.1340   45.1214 H   0  0  0  0  0  0  0  0  0  0  0  0
   43.0807   29.2709   46.6665 H   0  0  0  0  0  0  0  0  0  0  0  0
   42.6761   26.9920   46.2703 H   0  0  0  0  0  0  0  0  0  0  0  0
   44.0806   26.7808   45.2450 H   0  0  0  0  0  0  0  0  0  0  0  0
   43.8929   26.9044   48.2847 H   0  0  0  0  0  0  0  0  0  0  0  0
   44.8626   25.8012   47.3088 H   0  0  0  0  0  0  0  0  0  0  0  0
   46.5260   27.4008   46.9342 H   0  0  0  0  0  0  0  0  0  0  0  0
   45.9405   27.9873   48.5044 H   0  0  0  0  0  0  0  0  0  0  0  0
   47.0704   28.5150   48.4976 H   0  0  0  0  0  0  0  0  0  0  0  0
   48.3197   29.6662   49.0424 H   0  0  0  0  0  0  0  0  0  0  0  0
   45.4164   30.7838   42.7407 H   0  0  0  0  0  0  0  0  0  0  0  0
   45.8492   28.3703   43.0930 H   0  0  0  0  0  0  0  0  0  0  0  0
   49.4580   26.1385   45.2017 H   0  0  0  0  0  0  0  0  0  0  0  0
   51.0508   27.8941   45.9985 H   0  0  0  0  0  0  0  0  0  0  0  0
   50.4070   30.3175   45.5278 H   0  0  0  0  0  0  0  0  0  0  0  0
   49.0587   31.7839   44.7127 H   0  0  0  0  0  0  0  0  0  0  0  0
  1  2  2  0
  1 15  1  0
  3  2  1  0
  4  3  2  0
  5  4  1  0
  5 10  2  0
  6  5  1  0
  7  6  2  0
  7  8  1  0
  8  9  2  0
  9 23  1  0
  9 10  1  0
 10  1  1  0
 11 12  2  0
 12 22  1  0
 13 12  1  0
 14 13  2  0
 15 14  1  0
 15 16  2  0
 16 11  1  0
 17 13  1  0
 17 21  1  0
 18 19  1  0
 18 17  1  0
 19 20  1  0
 20 21  1  0
 23 32  2  0
 24 25  2  0
 24 23  1  0
 25 26  1  0
 26 27  2  0
 26 31  1  0
 27 28  1  0
 28 29  2  0
 30 29  1  0
 31 30  2  0
 32 31  1  0
  3 33  1  0
  6 34  1  0
  7 35  1  0
  8 36  1  0
 11 37  1  0
 18 38  1  0
 18 39  1  0
 19 40  1  0
 19 41  1  0
 20 42  1  0
 20 43  1  0
 21 44  1  0
 21 45  1  0
 22 46  1  0
 22 47  1  0
 24 48  1  0
 25 49  1  0
 28 50  1  0
 29 51  1  0
 30 52  1  0
 32 53  1  0
M  ISO  8  33  14  34  14  35  14  36  14  37  14  38  13  39  13  40  13
M  ISO  8  41  13  42  13  43  13  44  13  45  13  48  14  49  14  50  14
M  ISO  3  51  14  52  14  53  14
M  END
>  <minimizedAffinity>  (1) 
-6.13231707

>  <minimizedRMSD>  (1) 
1.04524136

$$$$
