
     RDKit          3D

 50 54  0  0  0  0  0  0  0  0999 V2000
   47.5350   31.8190   47.7640 C   0  0  0  0  0  0  0  0  0  0  0  0
   46.9910   30.5570   47.7980 C   0  0  0  0  0  0  0  0  0  0  0  0
   45.9450   30.3190   46.9760 C   0  0  0  0  0  0  0  0  0  0  0  0
   45.4740   31.2850   46.1630 N   0  0  0  0  0  0  0  0  0  0  0  0
   45.9980   32.5120   46.1180 C   0  0  0  0  0  0  0  0  0  0  0  0
   47.0390   32.7430   46.9450 N   0  0  0  0  0  0  0  0  0  0  0  0
   45.3030   29.0850   46.9320 N   0  0  0  0  0  0  0  0  0  0  0  0
   44.0190   28.7920   46.2680 C   0  0  0  0  0  0  0  0  0  0  0  0
   43.9110   27.2840   46.2430 C   0  0  0  0  0  0  0  0  0  0  0  0
   44.7210   26.8640   47.4360 C   0  0  0  0  0  0  0  0  0  0  0  0
   45.7950   27.8770   47.5430 C   0  0  0  0  0  0  0  0  0  0  0  0
   45.6530   33.6860   45.3210 C   0  0  0  0  0  0  0  0  0  0  0  0
   44.8990   34.7100   45.8170 N   0  0  0  0  0  0  0  0  0  0  0  0
   44.5650   35.8100   45.1450 C   0  0  0  0  0  0  0  0  0  0  0  0
   44.9890   35.9610   43.8700 N   0  0  0  0  0  0  0  0  0  0  0  0
   45.7450   35.0090   43.2720 C   0  0  0  0  0  0  0  0  0  0  0  0
   46.1650   35.1900   41.9870 C   0  0  0  0  0  0  0  0  0  0  0  0
   46.9400   34.2290   41.3750 C   0  0  0  0  0  0  0  0  0  0  0  0
   47.2690   33.0920   42.1050 C   0  0  0  0  0  0  0  0  0  0  0  0
   46.8000   32.9850   43.4100 C   0  0  0  0  0  0  0  0  0  0  0  0
   46.0390   33.9130   44.0360 C   0  0  0  0  0  0  0  0  0  0  0  0
   47.2760   31.7020   43.7660 N   0  0  0  0  0  0  0  0  0  0  0  0
   46.6230   30.3980   43.4980 C   0  0  0  0  0  0  0  0  0  0  0  0
   47.6400   29.6860   42.6020 C   0  0  0  0  0  0  0  0  0  0  0  0
   48.9450   30.1240   43.2450 C   0  0  0  0  0  0  0  0  0  0  0  0
   48.4340   31.0210   44.3710 C   0  0  0  0  0  0  0  0  0  0  0  0
   47.5850   29.5710   48.5780 N   0  0  0  0  0  0  0  0  0  0  0  0
   48.3848   32.0663   48.4173 H   0  0  0  0  0  0  0  0  0  0  0  0
   43.1842   29.2277   46.8365 H   0  0  0  0  0  0  0  0  0  0  0  0
   43.9762   29.2207   45.2559 H   0  0  0  0  0  0  0  0  0  0  0  0
   42.8641   26.9615   46.3432 H   0  0  0  0  0  0  0  0  0  0  0  0
   44.2670   26.8408   45.3013 H   0  0  0  0  0  0  0  0  0  0  0  0
   44.0999   26.8611   48.3439 H   0  0  0  0  0  0  0  0  0  0  0  0
   45.1219   25.8455   47.3265 H   0  0  0  0  0  0  0  0  0  0  0  0
   46.6958   27.5283   47.0168 H   0  0  0  0  0  0  0  0  0  0  0  0
   46.0629   28.0526   48.5953 H   0  0  0  0  0  0  0  0  0  0  0  0
   43.9506   36.5877   45.6221 H   0  0  0  0  0  0  0  0  0  0  0  0
   45.8853   36.1023   41.4397 H   0  0  0  0  0  0  0  0  0  0  0  0
   47.2882   34.3574   40.3395 H   0  0  0  0  0  0  0  0  0  0  0  0
   47.8853   32.2964   41.6610 H   0  0  0  0  0  0  0  0  0  0  0  0
   46.4572   29.8390   44.4307 H   0  0  0  0  0  0  0  0  0  0  0  0
   45.6295   30.4957   43.0361 H   0  0  0  0  0  0  0  0  0  0  0  0
   47.5686   30.0272   41.5587 H   0  0  0  0  0  0  0  0  0  0  0  0
   47.5069   28.5958   42.5405 H   0  0  0  0  0  0  0  0  0  0  0  0
   49.5090   29.2652   43.6380 H   0  0  0  0  0  0  0  0  0  0  0  0
   49.6445   30.6190   42.5553 H   0  0  0  0  0  0  0  0  0  0  0  0
   49.2025   31.7467   44.6757 H   0  0  0  0  0  0  0  0  0  0  0  0
   48.1754   30.4615   45.2821 H   0  0  0  0  0  0  0  0  0  0  0  0
   47.1810   28.6240   48.6066 H   0  0  0  0  0  0  0  0  0  0  0  0
   48.4290   29.7876   49.1272 H   0  0  0  0  0  0  0  0  0  0  0  0
  1  2  2  0
  2 27  1  0
  3  2  1  0
  4  3  2  0
  5  4  1  0
  5  6  2  0
  6  1  1  0
  7  3  1  0
  7 11  1  0
  8  7  1  0
  9  8  1  0
  9 10  1  0
 10 11  1  0
 12 13  2  0
 12  5  1  0
 14 13  1  0
 15 14  2  0
 16 15  1  0
 16 21  2  0
 17 16  1  0
 18 17  2  0
 18 19  1  0
 19 20  2  0
 20 22  1  0
 20 21  1  0
 21 12  1  0
 22 26  1  0
 23 22  1  0
 24 25  1  0
 24 23  1  0
 25 26  1  0
  1 28  1  0
  8 29  1  0
  8 30  1  0
  9 31  1  0
  9 32  1  0
 10 33  1  0
 10 34  1  0
 11 35  1  0
 11 36  1  0
 14 37  1  0
 17 38  1  0
 18 39  1  0
 19 40  1  0
 23 41  1  0
 23 42  1  0
 24 43  1  0
 24 44  1  0
 25 45  1  0
 25 46  1  0
 26 47  1  0
 26 48  1  0
 27 49  1  0
 27 50  1  0
M  ISO  8  28  14  29  13  30  13  31  13  32  13  33  13  34  13  35  13
M  ISO  8  36  13  37  14  38  14  39  14  40  14  41  13  42  13  43  13
M  ISO  5  44  13  45  13  46  13  47  13  48  13
M  END
>  <minimizedAffinity>  (1) 
-5.96394968

>  <minimizedRMSD>  (1) 
1.29537725

$$$$
