
     RDKit          3D

 51 55  0  0  1  0  0  0  0  0999 V2000
   45.7080   33.8340   45.3060 C   0  0  0  0  0  0  0  0  0  0  0  0
   44.7980   34.7500   45.6600 N   0  0  0  0  0  0  0  0  0  0  0  0
   44.4690   35.8210   44.9460 C   0  0  0  0  0  0  0  0  0  0  0  0
   45.0730   36.0510   43.7600 N   0  0  0  0  0  0  0  0  0  0  0  0
   45.9980   35.2100   43.3000 C   0  0  0  0  0  0  0  0  0  0  0  0
   46.6180   35.4430   42.0800 C   0  0  0  0  0  0  0  0  0  0  0  0
   47.5760   34.5820   41.5870 C   0  0  0  0  0  0  0  0  0  0  0  0
   47.8970   33.4800   42.3470 C   0  0  0  0  0  0  0  0  0  0  0  0
   47.2390   33.2970   43.5680 C   0  0  0  0  0  0  0  0  0  0  0  0
   46.2920   34.1210   44.0860 C   0  0  0  0  0  0  0  0  0  0  0  0
   47.5730   32.0330   47.8290 C   0  0  0  0  0  0  0  0  0  0  0  0
   47.0780   30.7260   47.8240 C   0  0  0  0  0  0  0  0  0  0  0  0
   46.0640   30.4510   46.9460 C   0  0  0  0  0  0  0  0  0  0  0  0
   45.6020   31.4150   46.1440 N   0  0  0  0  0  0  0  0  0  0  0  0
   46.0550   32.6510   46.1300 C   0  0  0  0  0  0  0  0  0  0  0  0
   47.0540   32.9450   46.9930 N   0  0  0  0  0  0  0  0  0  0  0  0
   45.5170   29.1900   46.9050 N   0  0  0  0  0  0  0  0  0  0  0  0
   44.2970   28.8380   46.1230 C   0  0  0  0  0  0  0  0  0  0  0  0
   44.2440   27.3330   46.1130 C   0  0  0  0  0  0  0  0  0  0  0  0
   44.9320   26.9720   47.3890 C   0  0  0  0  0  0  0  0  0  0  0  0
   45.9770   28.0180   47.5760 C   0  0  0  0  0  0  0  0  0  0  0  0
   47.6700   29.8130   48.6530 N   0  0  0  0  0  0  0  0  0  0  0  0
   50.9630   33.9660   42.4520 O   0  0  0  0  0  0  0  0  0  0  0  0
   50.2900   33.0800   41.9110 C   0  0  0  0  0  0  0  0  0  0  0  0
   48.9190   32.5860   41.7910 C   0  0  2  0  0  0  0  0  0  0  0  0
   48.7900   32.2190   40.3610 C   0  0  0  0  0  0  0  0  0  0  0  0
   50.1130   31.5060   40.1190 C   0  0  0  0  0  0  0  0  0  0  0  0
   51.0210   32.1520   41.0800 N   0  0  0  0  0  0  0  0  0  0  0  0
   47.7040   32.1060   44.2160 N   0  0  0  0  0  0  0  0  0  0  0  0
   43.7059   36.5193   45.3201 H   0  0  0  0  0  0  0  0  0  0  0  0
   46.3397   36.3319   41.4949 H   0  0  0  0  0  0  0  0  0  0  0  0
   48.0664   34.7693   40.6203 H   0  0  0  0  0  0  0  0  0  0  0  0
   48.3852   32.3130   48.5159 H   0  0  0  0  0  0  0  0  0  0  0  0
   43.3989   29.2508   46.6057 H   0  0  0  0  0  0  0  0  0  0  0  0
   44.3327   29.2513   45.1042 H   0  0  0  0  0  0  0  0  0  0  0  0
   43.2047   26.9727   46.1070 H   0  0  0  0  0  0  0  0  0  0  0  0
   44.7112   26.8855   45.2233 H   0  0  0  0  0  0  0  0  0  0  0  0
   44.2205   26.9827   48.2278 H   0  0  0  0  0  0  0  0  0  0  0  0
   45.3630   25.9606   47.3530 H   0  0  0  0  0  0  0  0  0  0  0  0
   46.9298   27.6825   47.1406 H   0  0  0  0  0  0  0  0  0  0  0  0
   46.1466   28.2177   48.6443 H   0  0  0  0  0  0  0  0  0  0  0  0
   47.3304   28.8408   48.6747 H   0  0  0  0  0  0  0  0  0  0  0  0
   48.4554   30.0977   49.2555 H   0  0  0  0  0  0  0  0  0  0  0  0
   48.7255   31.7074   42.4240 H   0  0  0  0  0  0  0  0  0  0  0  0
   47.9341   31.5490   40.1923 H   0  0  0  0  0  0  0  0  0  0  0  0
   48.6071   33.0716   39.6905 H   0  0  0  0  0  0  0  0  0  0  0  0
   50.0240   30.4287   40.3227 H   0  0  0  0  0  0  0  0  0  0  0  0
   50.4606   31.5811   39.0781 H   0  0  0  0  0  0  0  0  0  0  0  0
   52.0322   31.9688   41.1500 H   0  0  0  0  0  0  0  0  0  0  0  0
   47.3147   31.8310   45.1291 H   0  0  0  0  0  0  0  0  0  0  0  0
   48.4274   31.5252   43.7685 H   0  0  0  0  0  0  0  0  0  0  0  0
  1  2  2  0
  1 15  1  0
  3  2  1  0
  4  3  2  0
  5  4  1  0
  5 10  2  0
  6  5  1  0
  7  6  2  0
  7  8  1  0
  8  9  2  0
  9 10  1  0
  9 29  1  0
 10  1  1  0
 12 11  2  0
 12 22  1  0
 13 12  1  0
 14 13  2  0
 15 14  1  0
 15 16  2  0
 16 11  1  0
 17 13  1  0
 17 21  1  0
 18 17  1  0
 19 18  1  0
 19 20  1  0
 20 21  1  0
 24 23  2  0
 25 24  1  0
 25  8  1  0
 26 25  1  0
 27 26  1  0
 27 28  1  0
 28 24  1  0
  3 30  1  0
  6 31  1  0
  7 32  1  0
 11 33  1  0
 18 34  1  0
 18 35  1  0
 19 36  1  0
 19 37  1  0
 20 38  1  0
 20 39  1  0
 21 40  1  0
 21 41  1  0
 22 42  1  0
 22 43  1  0
 25 44  1  1
 26 45  1  0
 26 46  1  0
 27 47  1  0
 27 48  1  0
 28 49  1  0
 29 50  1  0
 29 51  1  0
M  ISO  8  30  14  31  14  32  14  33  14  34  13  35  13  36  13  37  13
M  ISO  8  38  13  39  13  40  13  41  13  44  13  45  13  46  13  47  13
M  ISO  2  48  13  49  10
M  END
>  <minimizedAffinity>  (1) 
-7.4876833

>  <minimizedRMSD>  (1) 
0.886330783

$$$$
