
     RDKit          3D

 48 52  0  0  0  0  0  0  0  0999 V2000
   47.4390   32.0780   47.8610 C   0  0  0  0  0  0  0  0  0  0  0  0
   46.9120   30.7820   47.8750 C   0  0  0  0  0  0  0  0  0  0  0  0
   45.9430   30.5020   46.9560 C   0  0  0  0  0  0  0  0  0  0  0  0
   45.5430   31.4350   46.0990 N   0  0  0  0  0  0  0  0  0  0  0  0
   46.0250   32.6610   46.0630 C   0  0  0  0  0  0  0  0  0  0  0  0
   46.9850   32.9690   46.9630 N   0  0  0  0  0  0  0  0  0  0  0  0
   45.3700   29.2530   46.9330 N   0  0  0  0  0  0  0  0  0  0  0  0
   44.1800   28.8920   46.1080 C   0  0  0  0  0  0  0  0  0  0  0  0
   44.0860   27.3930   46.1570 C   0  0  0  0  0  0  0  0  0  0  0  0
   44.7380   27.0460   47.4400 C   0  0  0  0  0  0  0  0  0  0  0  0
   45.7710   28.0900   47.6700 C   0  0  0  0  0  0  0  0  0  0  0  0
   45.7440   33.8210   45.1810 C   0  0  0  0  0  0  0  0  0  0  0  0
   44.8340   34.7660   45.4600 N   0  0  0  0  0  0  0  0  0  0  0  0
   44.5650   35.8190   44.6980 C   0  0  0  0  0  0  0  0  0  0  0  0
   45.2380   35.9960   43.5390 N   0  0  0  0  0  0  0  0  0  0  0  0
   46.1770   35.1230   43.1440 C   0  0  0  0  0  0  0  0  0  0  0  0
   46.8580   35.3050   41.9560 C   0  0  0  0  0  0  0  0  0  0  0  0
   47.8040   34.4170   41.5510 C   0  0  0  0  0  0  0  0  0  0  0  0
   48.0670   33.3250   42.3580 C   0  0  0  0  0  0  0  0  0  0  0  0
   47.3620   33.1850   43.5370 C   0  0  0  0  0  0  0  0  0  0  0  0
   46.4020   34.0490   43.9870 C   0  0  0  0  0  0  0  0  0  0  0  0
   49.0790   32.3690   41.9280 C   0  0  0  0  0  0  0  0  0  0  0  0
   50.3970   32.6620   41.7860 C   0  0  0  0  0  0  0  0  0  0  0  0
   51.3320   31.7140   41.3720 C   0  0  0  0  0  0  0  0  0  0  0  0
   50.9530   30.4540   41.0930 N   0  0  0  0  0  0  0  0  0  0  0  0
   49.6380   30.1670   41.2340 C   0  0  0  0  0  0  0  0  0  0  0  0
   48.7540   31.0970   41.6370 N   0  0  0  0  0  0  0  0  0  0  0  0
   47.7570   32.0170   44.2510 N   0  0  0  0  0  0  0  0  0  0  0  0
   47.4310   29.8950   48.7840 N   0  0  0  0  0  0  0  0  0  0  0  0
   48.2199   32.3658   48.5803 H   0  0  0  0  0  0  0  0  0  0  0  0
   44.3151   29.2334   45.0711 H   0  0  0  0  0  0  0  0  0  0  0  0
   43.2642   29.3673   46.4894 H   0  0  0  0  0  0  0  0  0  0  0  0
   43.0362   27.0647   46.1483 H   0  0  0  0  0  0  0  0  0  0  0  0
   44.5590   26.9062   45.2914 H   0  0  0  0  0  0  0  0  0  0  0  0
   44.0012   27.0508   48.2568 H   0  0  0  0  0  0  0  0  0  0  0  0
   45.1820   26.0401   47.4073 H   0  0  0  0  0  0  0  0  0  0  0  0
   46.7498   27.7367   47.3133 H   0  0  0  0  0  0  0  0  0  0  0  0
   45.8625   28.3193   48.7419 H   0  0  0  0  0  0  0  0  0  0  0  0
   43.7982   36.5441   45.0081 H   0  0  0  0  0  0  0  0  0  0  0  0
   46.6317   36.1803   41.3294 H   0  0  0  0  0  0  0  0  0  0  0  0
   48.3466   34.5631   40.6054 H   0  0  0  0  0  0  0  0  0  0  0  0
   50.7396   33.6840   42.0054 H   0  0  0  0  0  0  0  0  0  0  0  0
   52.3897   31.9993   41.2726 H   0  0  0  0  0  0  0  0  0  0  0  0
   49.2838   29.1491   41.0138 H   0  0  0  0  0  0  0  0  0  0  0  0
   47.3114   31.7882   45.1510 H   0  0  0  0  0  0  0  0  0  0  0  0
   48.4882   31.4014   43.8672 H   0  0  0  0  0  0  0  0  0  0  0  0
   47.0705   28.9311   48.8266 H   0  0  0  0  0  0  0  0  0  0  0  0
   48.1811   30.1930   49.4238 H   0  0  0  0  0  0  0  0  0  0  0  0
  1  2  2  0
  2 29  1  0
  3  2  1  0
  4  3  2  0
  5  4  1  0
  5  6  2  0
  6  1  1  0
  7  3  1  0
  7 11  1  0
  8  9  1  0
  8  7  1  0
  9 10  1  0
 10 11  1  0
 12 13  2  0
 12  5  1  0
 14 13  1  0
 15 14  2  0
 16 15  1  0
 16 21  2  0
 17 16  1  0
 18 17  2  0
 18 19  1  0
 19 20  2  0
 20 21  1  0
 20 28  1  0
 21 12  1  0
 22 19  1  0
 23 22  2  0
 24 23  1  0
 25 26  1  0
 25 24  2  0
 26 27  2  0
 27 22  1  0
  1 30  1  0
  8 31  1  0
  8 32  1  0
  9 33  1  0
  9 34  1  0
 10 35  1  0
 10 36  1  0
 11 37  1  0
 11 38  1  0
 14 39  1  0
 17 40  1  0
 18 41  1  0
 23 42  1  0
 24 43  1  0
 26 44  1  0
 28 45  1  0
 28 46  1  0
 29 47  1  0
 29 48  1  0
M  ISO  8  30  14  31  13  32  13  33  13  34  13  35  13  36  13  37  13
M  ISO  7  38  13  39  14  40  14  41  14  42  14  43  14  44  14
M  END
>  <minimizedAffinity>  (1) 
-7.00755262

>  <minimizedRMSD>  (1) 
0.184546426

$$$$
