
     RDKit          3D

 50 54  0  0  0  0  0  0  0  0999 V2000
   45.6670   33.8220   45.4510 C   0  0  0  0  0  0  0  0  0  0  0  0
   44.7700   34.7400   45.8220 N   0  0  0  0  0  0  0  0  0  0  0  0
   44.4270   35.8080   45.1130 C   0  0  0  0  0  0  0  0  0  0  0  0
   45.0040   36.0300   43.9120 N   0  0  0  0  0  0  0  0  0  0  0  0
   45.9160   35.1910   43.4230 C   0  0  0  0  0  0  0  0  0  0  0  0
   46.5140   35.4110   42.1910 C   0  0  0  0  0  0  0  0  0  0  0  0
   47.4500   34.5490   41.6850 C   0  0  0  0  0  0  0  0  0  0  0  0
   47.7820   33.4520   42.4430 C   0  0  0  0  0  0  0  0  0  0  0  0
   47.1560   33.2720   43.6780 C   0  0  0  0  0  0  0  0  0  0  0  0
   46.2300   34.0980   44.2100 C   0  0  0  0  0  0  0  0  0  0  0  0
   47.5710   32.0190   47.9410 C   0  0  0  0  0  0  0  0  0  0  0  0
   47.0790   30.7100   47.9450 C   0  0  0  0  0  0  0  0  0  0  0  0
   46.0520   30.4370   47.0860 C   0  0  0  0  0  0  0  0  0  0  0  0
   45.5740   31.4060   46.2910 N   0  0  0  0  0  0  0  0  0  0  0  0
   46.0290   32.6420   46.2720 C   0  0  0  0  0  0  0  0  0  0  0  0
   47.0440   32.9360   47.1180 N   0  0  0  0  0  0  0  0  0  0  0  0
   45.5030   29.1760   47.0460 N   0  0  0  0  0  0  0  0  0  0  0  0
   44.2910   28.8230   46.2610 C   0  0  0  0  0  0  0  0  0  0  0  0
   44.1850   27.3320   46.3100 C   0  0  0  0  0  0  0  0  0  0  0  0
   44.9260   26.9610   47.5350 C   0  0  0  0  0  0  0  0  0  0  0  0
   45.9620   28.0100   47.7220 C   0  0  0  0  0  0  0  0  0  0  0  0
   47.6940   29.7950   48.7480 N   0  0  0  0  0  0  0  0  0  0  0  0
   50.4700   34.0220   42.6980 F   0  0  0  0  0  0  0  0  0  0  0  0
   50.1110   32.8900   42.0340 C   0  0  0  0  0  0  0  0  0  0  0  0
   48.7810   32.5550   41.8760 C   0  0  0  0  0  0  0  0  0  0  0  0
   48.4890   31.3780   41.1840 C   0  0  0  0  0  0  0  0  0  0  0  0
   49.5060   30.5890   40.6800 C   0  0  0  0  0  0  0  0  0  0  0  0
   50.8250   30.9750   40.8680 C   0  0  0  0  0  0  0  0  0  0  0  0
   51.1630   32.1350   41.5490 C   0  0  0  0  0  0  0  0  0  0  0  0
   47.6340   32.0840   44.3180 N   0  0  0  0  0  0  0  0  0  0  0  0
   43.6751   36.5103   45.5021 H   0  0  0  0  0  0  0  0  0  0  0  0
   46.2297   36.2986   41.6068 H   0  0  0  0  0  0  0  0  0  0  0  0
   47.9194   34.7284   40.7065 H   0  0  0  0  0  0  0  0  0  0  0  0
   48.3938   32.2971   48.6160 H   0  0  0  0  0  0  0  0  0  0  0  0
   44.3972   29.1642   45.2207 H   0  0  0  0  0  0  0  0  0  0  0  0
   43.3913   29.3036   46.6728 H   0  0  0  0  0  0  0  0  0  0  0  0
   43.1334   27.0168   46.3785 H   0  0  0  0  0  0  0  0  0  0  0  0
   44.5889   26.8489   45.4081 H   0  0  0  0  0  0  0  0  0  0  0  0
   44.2466   26.9366   48.3998 H   0  0  0  0  0  0  0  0  0  0  0  0
   45.3768   25.9616   47.4455 H   0  0  0  0  0  0  0  0  0  0  0  0
   46.9184   27.6767   47.2927 H   0  0  0  0  0  0  0  0  0  0  0  0
   46.1238   28.2148   48.7906 H   0  0  0  0  0  0  0  0  0  0  0  0
   47.3557   28.8225   48.7737 H   0  0  0  0  0  0  0  0  0  0  0  0
   48.4967   30.0765   49.3287 H   0  0  0  0  0  0  0  0  0  0  0  0
   47.4413   31.0761   41.0387 H   0  0  0  0  0  0  0  0  0  0  0  0
   49.2713   29.6630   40.1346 H   0  0  0  0  0  0  0  0  0  0  0  0
   51.6282   30.3411   40.4643 H   0  0  0  0  0  0  0  0  0  0  0  0
   52.2104   32.4377   41.6952 H   0  0  0  0  0  0  0  0  0  0  0  0
   47.2663   31.8128   45.2411 H   0  0  0  0  0  0  0  0  0  0  0  0
   48.3456   31.5005   43.8554 H   0  0  0  0  0  0  0  0  0  0  0  0
  1  2  2  0
  1 15  1  0
  3  2  1  0
  4  3  2  0
  5  4  1  0
  5 10  2  0
  6  5  1  0
  7  6  2  0
  7  8  1  0
  8  9  2  0
  9 10  1  0
  9 30  1  0
 10  1  1  0
 11 12  2  0
 12 22  1  0
 13 12  1  0
 14 13  2  0
 15 14  1  0
 15 16  2  0
 16 11  1  0
 17 13  1  0
 17 21  1  0
 18 19  1  0
 18 17  1  0
 19 20  1  0
 20 21  1  0
 24 23  1  0
 25 24  2  0
 25  8  1  0
 26 25  1  0
 27 28  1  0
 27 26  2  0
 28 29  2  0
 29 24  1  0
  3 31  1  0
  6 32  1  0
  7 33  1  0
 11 34  1  0
 18 35  1  0
 18 36  1  0
 19 37  1  0
 19 38  1  0
 20 39  1  0
 20 40  1  0
 21 41  1  0
 21 42  1  0
 22 43  1  0
 22 44  1  0
 26 45  1  0
 27 46  1  0
 28 47  1  0
 29 48  1  0
 30 49  1  0
 30 50  1  0
M  ISO  8  31  14  32  14  33  14  34  14  35  13  36  13  37  13  38  13
M  ISO  8  39  13  40  13  41  13  42  13  45  14  46  14  47  14  48  14
M  END
>  <minimizedAffinity>  (1) 
-7.42286253

>  <minimizedRMSD>  (1) 
0.65865761

$$$$
