
     RDKit          3D

 50 54  0  0  0  0  0  0  0  0999 V2000
   45.6920   33.8100   45.3550 C   0  0  0  0  0  0  0  0  0  0  0  0
   44.8260   34.7580   45.7240 N   0  0  0  0  0  0  0  0  0  0  0  0
   44.4980   35.8200   44.9990 C   0  0  0  0  0  0  0  0  0  0  0  0
   45.0590   36.0050   43.7810 N   0  0  0  0  0  0  0  0  0  0  0  0
   45.9360   35.1310   43.2980 C   0  0  0  0  0  0  0  0  0  0  0  0
   46.5210   35.3050   42.0530 C   0  0  0  0  0  0  0  0  0  0  0  0
   47.4220   34.4200   41.5480 C   0  0  0  0  0  0  0  0  0  0  0  0
   47.7440   33.3230   42.3240 C   0  0  0  0  0  0  0  0  0  0  0  0
   47.1360   33.1860   43.5670 C   0  0  0  0  0  0  0  0  0  0  0  0
   46.2400   34.0440   44.0990 C   0  0  0  0  0  0  0  0  0  0  0  0
   47.5690   32.0270   47.8810 C   0  0  0  0  0  0  0  0  0  0  0  0
   47.0580   30.7250   47.9070 C   0  0  0  0  0  0  0  0  0  0  0  0
   46.0400   30.4470   47.0540 C   0  0  0  0  0  0  0  0  0  0  0  0
   45.5720   31.4030   46.2350 N   0  0  0  0  0  0  0  0  0  0  0  0
   46.0410   32.6360   46.1920 C   0  0  0  0  0  0  0  0  0  0  0  0
   47.0540   32.9340   47.0370 N   0  0  0  0  0  0  0  0  0  0  0  0
   45.4780   29.1920   47.0290 N   0  0  0  0  0  0  0  0  0  0  0  0
   44.2570   28.8380   46.2510 C   0  0  0  0  0  0  0  0  0  0  0  0
   44.1610   27.3370   46.3060 C   0  0  0  0  0  0  0  0  0  0  0  0
   44.8770   26.9920   47.5550 C   0  0  0  0  0  0  0  0  0  0  0  0
   45.9320   28.0320   47.7180 C   0  0  0  0  0  0  0  0  0  0  0  0
   47.6540   29.8260   48.7490 N   0  0  0  0  0  0  0  0  0  0  0  0
   50.6990   33.9430   42.5490 Cl  0  0  0  0  0  0  0  0  0  0  0  0
   50.0920   32.5170   41.7650 C   0  0  0  0  0  0  0  0  0  0  0  0
   48.7100   32.3940   41.7550 C   0  0  0  0  0  0  0  0  0  0  0  0
   48.1270   31.2980   41.1560 C   0  0  0  0  0  0  0  0  0  0  0  0
   48.9040   30.3190   40.5660 C   0  0  0  0  0  0  0  0  0  0  0  0
   50.2790   30.4580   40.5880 C   0  0  0  0  0  0  0  0  0  0  0  0
   50.8740   31.5420   41.1780 C   0  0  0  0  0  0  0  0  0  0  0  0
   47.5920   31.9950   44.2230 N   0  0  0  0  0  0  0  0  0  0  0  0
   43.7713   36.5489   45.3872 H   0  0  0  0  0  0  0  0  0  0  0  0
   46.2478   36.1867   41.4547 H   0  0  0  0  0  0  0  0  0  0  0  0
   47.8775   34.5720   40.5583 H   0  0  0  0  0  0  0  0  0  0  0  0
   48.3936   32.3074   48.5529 H   0  0  0  0  0  0  0  0  0  0  0  0
   44.3536   29.1784   45.2095 H   0  0  0  0  0  0  0  0  0  0  0  0
   43.3580   29.3181   46.6650 H   0  0  0  0  0  0  0  0  0  0  0  0
   43.1113   27.0113   46.3514 H   0  0  0  0  0  0  0  0  0  0  0  0
   44.5868   26.8470   45.4180 H   0  0  0  0  0  0  0  0  0  0  0  0
   44.1857   27.0101   48.4104 H   0  0  0  0  0  0  0  0  0  0  0  0
   45.3083   25.9811   47.5087 H   0  0  0  0  0  0  0  0  0  0  0  0
   46.8798   27.6808   47.2840 H   0  0  0  0  0  0  0  0  0  0  0  0
   46.1098   28.2497   48.7815 H   0  0  0  0  0  0  0  0  0  0  0  0
   47.3071   28.8574   48.7973 H   0  0  0  0  0  0  0  0  0  0  0  0
   48.4495   30.1179   49.3345 H   0  0  0  0  0  0  0  0  0  0  0  0
   47.0313   31.2014   41.1474 H   0  0  0  0  0  0  0  0  0  0  0  0
   48.4368   29.4455   40.0878 H   0  0  0  0  0  0  0  0  0  0  0  0
   50.9073   29.6839   40.1232 H   0  0  0  0  0  0  0  0  0  0  0  0
   51.9700   31.6352   41.1840 H   0  0  0  0  0  0  0  0  0  0  0  0
   47.2325   31.7517   45.1571 H   0  0  0  0  0  0  0  0  0  0  0  0
   48.2790   31.3829   43.7601 H   0  0  0  0  0  0  0  0  0  0  0  0
  1  2  2  0
  1 15  1  0
  3  2  1  0
  4  3  2  0
  5  4  1  0
  5 10  2  0
  6  5  1  0
  7  6  2  0
  7  8  1  0
  8  9  2  0
  9 10  1  0
  9 30  1  0
 10  1  1  0
 11 12  2  0
 12 22  1  0
 13 12  1  0
 14 13  2  0
 15 14  1  0
 15 16  2  0
 16 11  1  0
 17 13  1  0
 17 21  1  0
 18 19  1  0
 18 17  1  0
 19 20  1  0
 20 21  1  0
 24 23  1  0
 25 24  2  0
 25  8  1  0
 26 25  1  0
 27 28  1  0
 27 26  2  0
 28 29  2  0
 29 24  1  0
  3 31  1  0
  6 32  1  0
  7 33  1  0
 11 34  1  0
 18 35  1  0
 18 36  1  0
 19 37  1  0
 19 38  1  0
 20 39  1  0
 20 40  1  0
 21 41  1  0
 21 42  1  0
 22 43  1  0
 22 44  1  0
 26 45  1  0
 27 46  1  0
 28 47  1  0
 29 48  1  0
 30 49  1  0
 30 50  1  0
M  ISO  8  31  14  32  14  33  14  34  14  35  13  36  13  37  13  38  13
M  ISO  8  39  13  40  13  41  13  42  13  45  14  46  14  47  14  48  14
M  END
>  <minimizedAffinity>  (1) 
-7.35048771

>  <minimizedRMSD>  (1) 
0.780920506

$$$$
