
     RDKit          3D

 51 55  0  0  0  0  0  0  0  0999 V2000
   45.6640   33.7760   45.3010 C   0  0  0  0  0  0  0  0  0  0  0  0
   44.8700   34.7740   45.7090 N   0  0  0  0  0  0  0  0  0  0  0  0
   44.5410   35.8390   44.9810 C   0  0  0  0  0  0  0  0  0  0  0  0
   45.0210   35.9720   43.7200 N   0  0  0  0  0  0  0  0  0  0  0  0
   45.8260   35.0410   43.1950 C   0  0  0  0  0  0  0  0  0  0  0  0
   46.3200   35.1680   41.9160 C   0  0  0  0  0  0  0  0  0  0  0  0
   47.1420   34.2290   41.3670 C   0  0  0  0  0  0  0  0  0  0  0  0
   47.4630   33.1360   42.1500 C   0  0  0  0  0  0  0  0  0  0  0  0
   46.9420   33.0500   43.4320 C   0  0  0  0  0  0  0  0  0  0  0  0
   46.1270   33.9610   44.0050 C   0  0  0  0  0  0  0  0  0  0  0  0
   47.5790   31.9850   47.7890 C   0  0  0  0  0  0  0  0  0  0  0  0
   47.0440   30.6950   47.8390 C   0  0  0  0  0  0  0  0  0  0  0  0
   45.9860   30.4310   47.0060 C   0  0  0  0  0  0  0  0  0  0  0  0
   45.5260   31.3850   46.2030 N   0  0  0  0  0  0  0  0  0  0  0  0
   46.0160   32.6050   46.1370 C   0  0  0  0  0  0  0  0  0  0  0  0
   47.0570   32.8890   46.9510 N   0  0  0  0  0  0  0  0  0  0  0  0
   45.4050   29.1850   47.0230 N   0  0  0  0  0  0  0  0  0  0  0  0
   44.1520   28.8470   46.2920 C   0  0  0  0  0  0  0  0  0  0  0  0
   44.0330   27.3490   46.3430 C   0  0  0  0  0  0  0  0  0  0  0  0
   44.7620   27.0030   47.6020 C   0  0  0  0  0  0  0  0  0  0  0  0
   45.8510   28.0140   47.7090 C   0  0  0  0  0  0  0  0  0  0  0  0
   47.6290   29.7910   48.6910 N   0  0  0  0  0  0  0  0  0  0  0  0
   49.6890   32.3940   41.5610 C   0  0  0  0  0  0  0  0  0  0  0  0
   48.3450   32.1520   41.5300 C   0  0  0  0  0  0  0  0  0  0  0  0
   47.8170   31.0210   40.9350 C   0  0  0  0  0  0  0  0  0  0  0  0
   48.6680   30.0980   40.3520 C   0  0  0  0  0  0  0  0  0  0  0  0
   50.0220   30.3710   40.4010 C   0  0  0  0  0  0  0  0  0  0  0  0
   50.5460   31.4870   40.9870 C   0  0  0  0  0  0  0  0  0  0  0  0
   50.6640   34.4850   42.6760 N   0  0  0  0  0  0  0  0  0  0  0  0
   50.2290   33.5600   42.1750 C   0  0  0  0  0  0  0  0  0  0  0  0
   47.3820   31.8480   44.0760 N   0  0  0  0  0  0  0  0  0  0  0  0
   43.8800   36.6107   45.4024 H   0  0  0  0  0  0  0  0  0  0  0  0
   46.0439   36.0511   41.3210 H   0  0  0  0  0  0  0  0  0  0  0  0
   47.5331   34.3366   40.3445 H   0  0  0  0  0  0  0  0  0  0  0  0
   48.4261   32.2566   48.4360 H   0  0  0  0  0  0  0  0  0  0  0  0
   44.2139   29.1901   45.2487 H   0  0  0  0  0  0  0  0  0  0  0  0
   43.2771   29.3361   46.7451 H   0  0  0  0  0  0  0  0  0  0  0  0
   42.9797   27.0365   46.3961 H   0  0  0  0  0  0  0  0  0  0  0  0
   44.4399   26.8486   45.4519 H   0  0  0  0  0  0  0  0  0  0  0  0
   44.0881   27.0678   48.4690 H   0  0  0  0  0  0  0  0  0  0  0  0
   45.1536   25.9752   47.5829 H   0  0  0  0  0  0  0  0  0  0  0  0
   46.7699   27.6299   47.2419 H   0  0  0  0  0  0  0  0  0  0  0  0
   46.0752   28.2384   48.7623 H   0  0  0  0  0  0  0  0  0  0  0  0
   47.2616   28.8308   48.7545 H   0  0  0  0  0  0  0  0  0  0  0  0
   48.4352   30.0730   49.2667 H   0  0  0  0  0  0  0  0  0  0  0  0
   46.7295   30.8561   40.9250 H   0  0  0  0  0  0  0  0  0  0  0  0
   48.2833   29.1868   39.8706 H   0  0  0  0  0  0  0  0  0  0  0  0
   50.7149   29.6499   39.9430 H   0  0  0  0  0  0  0  0  0  0  0  0
   51.6328   31.6565   40.9993 H   0  0  0  0  0  0  0  0  0  0  0  0
   47.0789   31.6385   45.0378 H   0  0  0  0  0  0  0  0  0  0  0  0
   48.0014   31.1935   43.5771 H   0  0  0  0  0  0  0  0  0  0  0  0
  1  2  2  0
  1 15  1  0
  3  2  1  0
  4  3  2  0
  5  4  1  0
  5 10  2  0
  6  5  1  0
  7  6  2  0
  7  8  1  0
  8  9  2  0
  9 10  1  0
  9 31  1  0
 10  1  1  0
 11 12  2  0
 12 22  1  0
 13 17  1  0
 13 12  1  0
 14 13  2  0
 15 14  1  0
 15 16  2  0
 16 11  1  0
 17 21  1  0
 18 19  1  0
 18 17  1  0
 19 20  1  0
 20 21  1  0
 23 30  1  0
 24 23  2  0
 24  8  1  0
 25 24  1  0
 26 27  1  0
 26 25  2  0
 27 28  2  0
 28 23  1  0
 30 29  3  0
  3 32  1  0
  6 33  1  0
  7 34  1  0
 11 35  1  0
 18 36  1  0
 18 37  1  0
 19 38  1  0
 19 39  1  0
 20 40  1  0
 20 41  1  0
 21 42  1  0
 21 43  1  0
 22 44  1  0
 22 45  1  0
 25 46  1  0
 26 47  1  0
 27 48  1  0
 28 49  1  0
 31 50  1  0
 31 51  1  0
M  ISO  8  32  14  33  14  34  14  35  14  36  13  37  13  38  13  39  13
M  ISO  8  40  13  41  13  42  13  43  13  46  14  47  14  48  14  49  14
M  END
>  <minimizedAffinity>  (1) 
-6.93878984

>  <minimizedRMSD>  (1) 
0.615059853

$$$$
