
     RDKit          3D

 41 44  0  0  0  0  0  0  0  0999 V2000
   47.4510   32.0580   47.8660 C   0  0  0  0  0  0  0  0  0  0  0  0
   46.9090   30.7690   47.9050 C   0  0  0  0  0  0  0  0  0  0  0  0
   45.9190   30.4910   47.0040 C   0  0  0  0  0  0  0  0  0  0  0  0
   45.5180   31.4320   46.1390 N   0  0  0  0  0  0  0  0  0  0  0  0
   46.0180   32.6490   46.0850 C   0  0  0  0  0  0  0  0  0  0  0  0
   46.9950   32.9470   46.9700 N   0  0  0  0  0  0  0  0  0  0  0  0
   45.3200   29.2530   46.9950 N   0  0  0  0  0  0  0  0  0  0  0  0
   44.1350   28.8960   46.1670 C   0  0  0  0  0  0  0  0  0  0  0  0
   44.0040   27.4020   46.2560 C   0  0  0  0  0  0  0  0  0  0  0  0
   44.6220   27.0900   47.5800 C   0  0  0  0  0  0  0  0  0  0  0  0
   45.6970   28.1040   47.7540 C   0  0  0  0  0  0  0  0  0  0  0  0
   45.7430   33.7990   45.1920 C   0  0  0  0  0  0  0  0  0  0  0  0
   44.8790   34.7780   45.4880 N   0  0  0  0  0  0  0  0  0  0  0  0
   44.6150   35.8250   44.7120 C   0  0  0  0  0  0  0  0  0  0  0  0
   45.2420   35.9570   43.5220 N   0  0  0  0  0  0  0  0  0  0  0  0
   46.1330   35.0380   43.1110 C   0  0  0  0  0  0  0  0  0  0  0  0
   46.7670   35.1740   41.8980 C   0  0  0  0  0  0  0  0  0  0  0  0
   47.6830   34.2410   41.4590 C   0  0  0  0  0  0  0  0  0  0  0  0
   47.9360   33.1630   42.2880 C   0  0  0  0  0  0  0  0  0  0  0  0
   47.2580   33.0840   43.5050 C   0  0  0  0  0  0  0  0  0  0  0  0
   46.3580   33.9840   43.9600 C   0  0  0  0  0  0  0  0  0  0  0  0
   47.6440   31.9010   44.2150 N   0  0  0  0  0  0  0  0  0  0  0  0
   48.8510   32.2570   41.8180 O   0  0  0  0  0  0  0  0  0  0  0  0
   47.4410   29.8750   48.7880 N   0  0  0  0  0  0  0  0  0  0  0  0
   48.2489   32.3422   48.5679 H   0  0  0  0  0  0  0  0  0  0  0  0
   44.2911   29.2047   45.1228 H   0  0  0  0  0  0  0  0  0  0  0  0
   43.2261   29.4026   46.5239 H   0  0  0  0  0  0  0  0  0  0  0  0
   42.9479   27.0953   46.2303 H   0  0  0  0  0  0  0  0  0  0  0  0
   44.4827   26.8737   45.4183 H   0  0  0  0  0  0  0  0  0  0  0  0
   43.8763   27.1757   48.3841 H   0  0  0  0  0  0  0  0  0  0  0  0
   45.0135   26.0628   47.6205 H   0  0  0  0  0  0  0  0  0  0  0  0
   46.6539   27.7060   47.3852 H   0  0  0  0  0  0  0  0  0  0  0  0
   45.8229   28.3615   48.8160 H   0  0  0  0  0  0  0  0  0  0  0  0
   43.8873   36.5827   45.0381 H   0  0  0  0  0  0  0  0  0  0  0  0
   46.5389   36.0444   41.2653 H   0  0  0  0  0  0  0  0  0  0  0  0
   48.1914   34.3497   40.4896 H   0  0  0  0  0  0  0  0  0  0  0  0
   47.2312   31.6953   45.1360 H   0  0  0  0  0  0  0  0  0  0  0  0
   48.3343   31.2562   43.8045 H   0  0  0  0  0  0  0  0  0  0  0  0
   49.0814   31.4603   42.3586 H   0  0  0  0  0  0  0  0  0  0  0  0
   47.0645   28.9178   48.8415 H   0  0  0  0  0  0  0  0  0  0  0  0
   48.2190   30.1574   49.4010 H   0  0  0  0  0  0  0  0  0  0  0  0
  1  2  2  0
  2 24  1  0
  3  2  1  0
  4  3  2  0
  5  4  1  0
  5  6  2  0
  6  1  1  0
  7  3  1  0
  7 11  1  0
  8  9  1  0
  8  7  1  0
  9 10  1  0
 10 11  1  0
 12 13  2  0
 12  5  1  0
 14 13  1  0
 15 14  2  0
 16 15  1  0
 16 21  2  0
 17 16  1  0
 18 17  2  0
 18 19  1  0
 19 20  2  0
 20 21  1  0
 20 22  1  0
 21 12  1  0
 23 19  1  0
  1 25  1  0
  8 26  1  0
  8 27  1  0
  9 28  1  0
  9 29  1  0
 10 30  1  0
 10 31  1  0
 11 32  1  0
 11 33  1  0
 14 34  1  0
 17 35  1  0
 18 36  1  0
 22 37  1  0
 22 38  1  0
 23 39  1  0
 24 40  1  0
 24 41  1  0
M  ISO  8  25  14  26  13  27  13  28  13  29  13  30  13  31  13  32  13
M  ISO  5  33  13  34  14  35  14  36  14  39   3
M  END
>  <minimizedAffinity>  (1) 
-6.56270027

>  <minimizedRMSD>  (1) 
0.0258008093

$$$$
