
     RDKit          3D

 26 27  0  0  0  0  0  0  0  0999 V2000
   43.3890   33.1390   41.2120 Cl  0  0  0  0  0  0  0  0  0  0  0  0
   44.9810   33.5000   40.6190 C   0  0  0  0  0  0  0  0  0  0  0  0
   45.8800   34.2070   41.3700 C   0  0  0  0  0  0  0  0  0  0  0  0
   47.1250   34.4450   40.8120 C   0  0  0  0  0  0  0  0  0  0  0  0
   47.4390   33.9890   39.5610 C   0  0  0  0  0  0  0  0  0  0  0  0
   46.5480   33.2860   38.8100 C   0  0  0  0  0  0  0  0  0  0  0  0
   45.3180   33.0500   39.3610 C   0  0  0  0  0  0  0  0  0  0  0  0
   44.5780   36.3380   44.2200 C   0  0  0  0  0  0  0  0  0  0  0  0
   44.9560   35.9290   42.9330 C   0  0  0  0  0  0  0  0  0  0  0  0
   45.4800   34.6610   42.6930 C   0  0  0  0  0  0  0  0  0  0  0  0
   45.5970   33.8640   43.7820 N   0  0  0  0  0  0  0  0  0  0  0  0
   45.2360   34.2550   45.0120 C   0  0  0  0  0  0  0  0  0  0  0  0
   44.7290   35.4870   45.2310 N   0  0  0  0  0  0  0  0  0  0  0  0
   48.0070   35.1680   41.6100 O   0  0  0  0  0  0  0  0  0  0  0  0
   49.8850   33.3010   41.5210 O   0  0  0  0  0  0  0  0  0  0  0  0
   49.2130   34.2680   42.4420 P   0  0  0  0  0  0  0  0  0  0  0  0
   50.3850   35.2810   43.1040 O   0  0  0  0  0  0  0  0  0  0  0  0
   48.4360   33.4480   43.7070 O   0  0  0  0  0  0  0  0  0  0  0  0
   48.4385   34.1961   39.1511 H   0  0  0  0  0  0  0  0  0  0  0  0
   46.8054   32.9233   37.8039 H   0  0  0  0  0  0  0  0  0  0  0  0
   44.5747   32.4831   38.7813 H   0  0  0  0  0  0  0  0  0  0  0  0
   44.1646   37.3431   44.3901 H   0  0  0  0  0  0  0  0  0  0  0  0
   44.8356   36.6273   42.0917 H   0  0  0  0  0  0  0  0  0  0  0  0
   45.3547   33.5608   45.8570 H   0  0  0  0  0  0  0  0  0  0  0  0
   50.3371   35.2396   44.0920 H   0  0  0  0  0  0  0  0  0  0  0  0
   48.7637   33.7938   44.5748 H   0  0  0  0  0  0  0  0  0  0  0  0
  2  1  1  0
  2  3  2  0
  3 10  1  0
  4  3  1  0
  4 14  1  0
  5  4  2  0
  6  7  2  0
  6  5  1  0
  7  2  1  0
  8 13  2  0
  9  8  1  0
 10  9  2  0
 10 11  1  0
 11 12  2  0
 12 13  1  0
 14 16  1  0
 15 16  2  0
 16 17  1  0
 16 18  1  0
  5 19  1  0
  6 20  1  0
  7 21  1  0
  8 22  1  0
  9 23  1  0
 12 24  1  0
 17 25  1  0
 18 26  1  0
M  ISO  8  19  14  20  14  21  14  22  14  23  14  24  14  25   3  26   3
M  END
>  <minimizedAffinity>  (1) 
-5.53971148

>  <minimizedRMSD>  (1) 
1.6757648

$$$$
