
     RDKit          3D

 23 24  0  0  0  0  0  0  0  0999 V2000
   44.1390   33.1870   40.9440 Cl  0  0  0  0  0  0  0  0  0  0  0  0
   45.7550   33.7300   40.5880 C   0  0  0  0  0  0  0  0  0  0  0  0
   46.4890   34.4330   41.5020 C   0  0  0  0  0  0  0  0  0  0  0  0
   47.7530   34.8040   41.0960 C   0  0  0  0  0  0  0  0  0  0  0  0
   48.2750   34.5140   39.8820 C   0  0  0  0  0  0  0  0  0  0  0  0
   47.5240   33.8040   38.9670 C   0  0  0  0  0  0  0  0  0  0  0  0
   46.2640   33.4220   39.3420 C   0  0  0  0  0  0  0  0  0  0  0  0
   44.6530   36.1680   44.3090 C   0  0  0  0  0  0  0  0  0  0  0  0
   45.2040   35.9100   43.0460 C   0  0  0  0  0  0  0  0  0  0  0  0
   45.9070   34.7310   42.7970 C   0  0  0  0  0  0  0  0  0  0  0  0
   46.0210   33.8700   43.8330 N   0  0  0  0  0  0  0  0  0  0  0  0
   45.4910   34.1230   45.0400 C   0  0  0  0  0  0  0  0  0  0  0  0
   44.8120   35.2570   45.2860 N   0  0  0  0  0  0  0  0  0  0  0  0
   48.5820   35.5750   42.0780 C   0  0  0  0  0  0  0  0  0  0  0  0
   49.2930   34.8424   39.6254 H   0  0  0  0  0  0  0  0  0  0  0  0
   47.9233   33.5543   37.9729 H   0  0  0  0  0  0  0  0  0  0  0  0
   45.6418   32.8558   38.6333 H   0  0  0  0  0  0  0  0  0  0  0  0
   44.0999   37.0998   44.4980 H   0  0  0  0  0  0  0  0  0  0  0  0
   45.0802   36.6479   42.2396 H   0  0  0  0  0  0  0  0  0  0  0  0
   45.6151   33.3854   45.8466 H   0  0  0  0  0  0  0  0  0  0  0  0
   48.2872   35.3008   43.1017 H   0  0  0  0  0  0  0  0  0  0  0  0
   49.6453   35.3374   41.9265 H   0  0  0  0  0  0  0  0  0  0  0  0
   48.4220   36.6527   41.9265 H   0  0  0  0  0  0  0  0  0  0  0  0
  2  1  1  0
  2  3  2  0
  3 10  1  0
  4  3  1  0
  4 14  1  0
  5  4  2  0
  6  7  2  0
  6  5  1  0
  7  2  1  0
  8 13  2  0
  9  8  1  0
 10  9  2  0
 10 11  1  0
 11 12  2  0
 12 13  1  0
  5 15  1  0
  6 16  1  0
  7 17  1  0
  8 18  1  0
  9 19  1  0
 12 20  1  0
 14 21  1  0
 14 22  1  0
 14 23  1  0
M  ISO  8  15  14  16  14  17  14  18  14  19  14  20  14  21   8  22   8
M  ISO  1  23   8
M  END
>  <minimizedAffinity>  (1) 
-4.90545607

>  <minimizedRMSD>  (1) 
0.77183795

$$$$
