
     RDKit          3D

 40 42  0  0  0  0  0  0  0  0999 V2000
   46.2200   31.9440   47.2740 C   0  0  0  0  0  0  0  0  0  0  0  0
   45.7080   32.3850   48.4880 C   0  0  0  0  0  0  0  0  0  0  0  0
   45.1680   31.5650   49.4420 C   0  0  0  0  0  0  0  0  0  0  0  0
   45.1320   30.2210   49.1690 C   0  0  0  0  0  0  0  0  0  0  0  0
   45.6470   29.7710   47.9480 C   0  0  0  0  0  0  0  0  0  0  0  0
   46.1940   30.6240   46.9990 C   0  0  0  0  0  0  0  0  0  0  0  0
   46.6350   29.6820   46.0350 N   0  0  0  0  0  0  0  0  0  0  0  0
   45.5850   28.8490   45.4270 C   0  0  0  0  0  0  0  0  0  0  0  0
   46.1200   27.5930   44.8190 C   0  0  0  0  0  0  0  0  0  0  0  0
   47.0600   27.8550   43.7430 N   0  0  0  0  0  0  0  0  0  0  0  0
   47.8030   29.0790   43.9820 C   0  0  0  0  0  0  0  0  0  0  0  0
   47.9310   29.3720   45.4600 C   0  0  0  0  0  0  0  0  0  0  0  0
   46.7780   32.7430   46.1680 C   0  0  0  0  0  0  0  0  0  0  0  0
   45.9710   32.6030   44.9070 C   0  0  0  0  0  0  0  0  0  0  0  0
   44.5750   36.0160   44.7800 C   0  0  0  0  0  0  0  0  0  0  0  0
   44.9990   36.4670   43.5090 C   0  0  0  0  0  0  0  0  0  0  0  0
   45.7540   35.5850   42.7570 C   0  0  0  0  0  0  0  0  0  0  0  0
   46.0470   34.3750   43.2480 N   0  0  0  0  0  0  0  0  0  0  0  0
   45.6130   33.9940   44.4770 C   0  0  0  0  0  0  0  0  0  0  0  0
   44.8930   34.7880   45.2350 N   0  0  0  0  0  0  0  0  0  0  0  0
   45.7386   33.4646   48.6964 H   0  0  0  0  0  0  0  0  0  0  0  0
   44.7788   31.9674   50.3889 H   0  0  0  0  0  0  0  0  0  0  0  0
   44.7072   29.5119   49.8947 H   0  0  0  0  0  0  0  0  0  0  0  0
   45.6170   28.6931   47.7305 H   0  0  0  0  0  0  0  0  0  0  0  0
   44.8558   28.5796   46.2053 H   0  0  0  0  0  0  0  0  0  0  0  0
   45.1230   29.4364   44.6198 H   0  0  0  0  0  0  0  0  0  0  0  0
   46.6311   27.0120   45.6008 H   0  0  0  0  0  0  0  0  0  0  0  0
   45.2706   27.0379   44.3943 H   0  0  0  0  0  0  0  0  0  0  0  0
   46.5411   27.9443   42.8578 H   0  0  0  0  0  0  0  0  0  0  0  0
   48.8093   28.9761   43.5499 H   0  0  0  0  0  0  0  0  0  0  0  0
   47.2573   29.9105   43.5121 H   0  0  0  0  0  0  0  0  0  0  0  0
   48.3501   28.4909   45.9679 H   0  0  0  0  0  0  0  0  0  0  0  0
   48.5938   30.2398   45.5927 H   0  0  0  0  0  0  0  0  0  0  0  0
   46.7899   33.8018   46.4660 H   0  0  0  0  0  0  0  0  0  0  0  0
   47.7942   32.3751   45.9629 H   0  0  0  0  0  0  0  0  0  0  0  0
   46.5665   32.1052   44.1275 H   0  0  0  0  0  0  0  0  0  0  0  0
   45.0709   31.9935   45.0752 H   0  0  0  0  0  0  0  0  0  0  0  0
   43.9712   36.6833   45.4126 H   0  0  0  0  0  0  0  0  0  0  0  0
   44.7413   37.4694   43.1366 H   0  0  0  0  0  0  0  0  0  0  0  0
   46.1123   35.8772   41.7589 H   0  0  0  0  0  0  0  0  0  0  0  0
  1  2  2  0
  2  3  1  0
  4  3  2  0
  5  4  1  0
  6  1  1  0
  6  5  2  0
  7  6  1  0
  8  7  1  0
  9  8  1  0
 10 11  1  0
 10  9  1  0
 11 12  1  0
 12  7  1  0
 13  1  1  0
 14 13  1  0
 15 20  2  0
 16 15  1  0
 17 18  1  0
 17 16  2  0
 18 19  2  0
 19 14  1  0
 19 20  1  0
  2 21  1  0
  3 22  1  0
  4 23  1  0
  5 24  1  0
  8 25  1  0
  8 26  1  0
  9 27  1  0
  9 28  1  0
 10 29  1  0
 11 30  1  0
 11 31  1  0
 12 32  1  0
 12 33  1  0
 13 34  1  0
 13 35  1  0
 14 36  1  0
 14 37  1  0
 15 38  1  0
 16 39  1  0
 17 40  1  0
M  ISO  8  21  14  22  14  23  14  24  14  25  13  26  13  27  13  28  13
M  ISO  8  29   5  30  13  31  13  32  13  33  13  34   8  35   8  36   8
M  ISO  4  37   8  38  14  39  14  40  14
M  END
>  <minimizedAffinity>  (1) 
-4.81619787

>  <minimizedRMSD>  (1) 
0.62510246

$$$$
