
     RDKit          3D

 29 31  0  0  0  0  0  0  0  0999 V2000
   42.6010   33.7800   41.1140 Cl  0  0  0  0  0  0  0  0  0  0  0  0
   44.1980   33.6360   40.4120 C   0  0  0  0  0  0  0  0  0  0  0  0
   45.3130   33.9760   41.1060 C   0  0  0  0  0  0  0  0  0  0  0  0
   46.5070   33.8190   40.4480 C   0  0  0  0  0  0  0  0  0  0  0  0
   46.6140   33.3530   39.1780 C   0  0  0  0  0  0  0  0  0  0  0  0
   45.4750   33.0110   38.4840 C   0  0  0  0  0  0  0  0  0  0  0  0
   44.2700   33.1570   39.1160 C   0  0  0  0  0  0  0  0  0  0  0  0
   44.7580   36.2360   44.0890 C   0  0  0  0  0  0  0  0  0  0  0  0
   44.8880   35.7850   42.7730 C   0  0  0  0  0  0  0  0  0  0  0  0
   45.1730   34.4670   42.4590 C   0  0  0  0  0  0  0  0  0  0  0  0
   45.3190   33.6340   43.5310 N   0  0  0  0  0  0  0  0  0  0  0  0
   45.1940   34.0650   44.7970 C   0  0  0  0  0  0  0  0  0  0  0  0
   44.9170   35.3440   45.0870 N   0  0  0  0  0  0  0  0  0  0  0  0
   47.7430   34.1820   41.1780 C   0  0  0  0  0  0  0  0  0  0  0  0
   48.4090   33.1480   41.8470 C   0  0  0  0  0  0  0  0  0  0  0  0
   49.5380   33.5990   42.4870 C   0  0  0  0  0  0  0  0  0  0  0  0
   50.0250   34.8740   42.5210 C   0  0  0  0  0  0  0  0  0  0  0  0
   49.2890   35.8360   41.8240 C   0  0  0  0  0  0  0  0  0  0  0  0
   48.1750   35.4360   41.1810 N   0  0  0  0  0  0  0  0  0  0  0  0
   47.6026   33.2493   38.7068 H   0  0  0  0  0  0  0  0  0  0  0  0
   45.5319   32.6320   37.4529 H   0  0  0  0  0  0  0  0  0  0  0  0
   43.3443   32.8894   38.5854 H   0  0  0  0  0  0  0  0  0  0  0  0
   44.5320   37.2907   44.3049 H   0  0  0  0  0  0  0  0  0  0  0  0
   44.7586   36.5066   41.9529 H   0  0  0  0  0  0  0  0  0  0  0  0
   45.3228   33.3470   45.6203 H   0  0  0  0  0  0  0  0  0  0  0  0
   48.0696   32.1017   41.8588 H   0  0  0  0  0  0  0  0  0  0  0  0
   50.1182   32.8435   43.0371 H   0  0  0  0  0  0  0  0  0  0  0  0
   50.9453   35.1298   43.0666 H   0  0  0  0  0  0  0  0  0  0  0  0
   49.6097   36.8880   41.8011 H   0  0  0  0  0  0  0  0  0  0  0  0
  2  3  2  0
  2  1  1  0
  3 10  1  0
  4  3  1  0
  4 14  1  0
  5  4  2  0
  6  7  2  0
  6  5  1  0
  7  2  1  0
  8 13  2  0
  9  8  1  0
 10  9  2  0
 10 11  1  0
 11 12  2  0
 12 13  1  0
 14 19  1  0
 14 15  2  0
 15 16  1  0
 16 17  2  0
 18 17  1  0
 19 18  2  0
  5 20  1  0
  6 21  1  0
  7 22  1  0
  8 23  1  0
  9 24  1  0
 12 25  1  0
 15 26  1  0
 16 27  1  0
 17 28  1  0
 18 29  1  0
M  ISO  8  20  14  21  14  22  14  23  14  24  14  25  14  26  14  27  14
M  ISO  2  28  14  29  14
M  END
>  <minimizedAffinity>  (1) 
-5.36033869

>  <minimizedRMSD>  (1) 
2.46633697

$$$$
