
     RDKit          3D

 31 33  0  0  0  0  0  0  0  0999 V2000
   42.2400   34.1270   41.2940 Cl  0  0  0  0  0  0  0  0  0  0  0  0
   43.7700   33.7820   40.5160 C   0  0  0  0  0  0  0  0  0  0  0  0
   44.9530   33.9740   41.1590 C   0  0  0  0  0  0  0  0  0  0  0  0
   46.0840   33.6660   40.4400 C   0  0  0  0  0  0  0  0  0  0  0  0
   46.0700   33.1980   39.1670 C   0  0  0  0  0  0  0  0  0  0  0  0
   44.8630   33.0090   38.5300 C   0  0  0  0  0  0  0  0  0  0  0  0
   43.7190   33.3060   39.2190 C   0  0  0  0  0  0  0  0  0  0  0  0
   47.3860   33.8640   41.1060 C   0  0  0  0  0  0  0  0  0  0  0  0
   48.0130   32.7420   41.6370 C   0  0  0  0  0  0  0  0  0  0  0  0
   49.2100   33.0470   42.2300 C   0  0  0  0  0  0  0  0  0  0  0  0
   49.7980   34.2710   42.3350 C   0  0  0  0  0  0  0  0  0  0  0  0
   49.0980   35.3390   41.7750 C   0  0  0  0  0  0  0  0  0  0  0  0
   47.9140   35.0880   41.1800 N   0  0  0  0  0  0  0  0  0  0  0  0
   49.6050   36.6680   41.8180 N   0  0  0  0  0  0  0  0  0  0  0  0
   44.7360   36.2590   44.1570 C   0  0  0  0  0  0  0  0  0  0  0  0
   44.7430   35.8060   42.8340 C   0  0  0  0  0  0  0  0  0  0  0  0
   44.9400   34.4740   42.5150 C   0  0  0  0  0  0  0  0  0  0  0  0
   45.1290   33.6310   43.5740 N   0  0  0  0  0  0  0  0  0  0  0  0
   45.1210   34.0750   44.8440 C   0  0  0  0  0  0  0  0  0  0  0  0
   44.9310   35.3570   45.1530 N   0  0  0  0  0  0  0  0  0  0  0  0
   47.0132   32.9715   38.6482 H   0  0  0  0  0  0  0  0  0  0  0  0
   44.8204   32.6305   37.4980 H   0  0  0  0  0  0  0  0  0  0  0  0
   42.7425   33.1637   38.7330 H   0  0  0  0  0  0  0  0  0  0  0  0
   47.5956   31.7255   41.5867 H   0  0  0  0  0  0  0  0  0  0  0  0
   49.7607   32.2043   42.6733 H   0  0  0  0  0  0  0  0  0  0  0  0
   50.7691   34.4091   42.8329 H   0  0  0  0  0  0  0  0  0  0  0  0
   49.0669   37.4384   41.3963 H   0  0  0  0  0  0  0  0  0  0  0  0
   50.5101   36.8595   42.2709 H   0  0  0  0  0  0  0  0  0  0  0  0
   44.5760   37.3230   44.3858 H   0  0  0  0  0  0  0  0  0  0  0  0
   44.5871   36.5311   42.0216 H   0  0  0  0  0  0  0  0  0  0  0  0
   45.2773   33.3521   45.6582 H   0  0  0  0  0  0  0  0  0  0  0  0
  2  3  2  0
  2  1  1  0
  3 17  1  0
  4  8  1  0
  4  3  1  0
  5  4  2  0
  6  5  1  0
  6  7  2  0
  7  2  1  0
  8 13  1  0
  8  9  2  0
  9 10  1  0
 10 11  2  0
 12 14  1  0
 12 11  1  0
 13 12  2  0
 15 20  2  0
 16 15  1  0
 17 16  2  0
 17 18  1  0
 18 19  2  0
 19 20  1  0
  5 21  1  0
  6 22  1  0
  7 23  1  0
  9 24  1  0
 10 25  1  0
 11 26  1  0
 14 27  1  0
 14 28  1  0
 15 29  1  0
 16 30  1  0
 19 31  1  0
M  ISO  8  21  14  22  14  23  14  24  14  25  14  26  14  29  14  30  14
M  ISO  1  31  14
M  END
>  <minimizedAffinity>  (1) 
-5.23162222

>  <minimizedRMSD>  (1) 
0.462803394

$$$$
