
     RDKit          3D

 31 33  0  0  0  0  0  0  0  0999 V2000
   41.9200   34.9100   41.4030 Cl  0  0  0  0  0  0  0  0  0  0  0  0
   43.2630   34.2320   40.5010 C   0  0  0  0  0  0  0  0  0  0  0  0
   44.4790   34.0680   41.0740 C   0  0  0  0  0  0  0  0  0  0  0  0
   45.4660   33.5250   40.2750 C   0  0  0  0  0  0  0  0  0  0  0  0
   45.2550   33.1690   38.9810 C   0  0  0  0  0  0  0  0  0  0  0  0
   44.0090   33.3440   38.4170 C   0  0  0  0  0  0  0  0  0  0  0  0
   43.0260   33.8770   39.1930 C   0  0  0  0  0  0  0  0  0  0  0  0
   44.7630   36.1260   44.2370 C   0  0  0  0  0  0  0  0  0  0  0  0
   44.5790   35.7600   42.9040 C   0  0  0  0  0  0  0  0  0  0  0  0
   44.6680   34.4610   42.4590 C   0  0  0  0  0  0  0  0  0  0  0  0
   44.9530   33.5370   43.4220 N   0  0  0  0  0  0  0  0  0  0  0  0
   45.1320   33.8780   44.7110 C   0  0  0  0  0  0  0  0  0  0  0  0
   45.0420   35.1500   45.1280 N   0  0  0  0  0  0  0  0  0  0  0  0
   46.8010   33.3320   40.8640 C   0  0  0  0  0  0  0  0  0  0  0  0
   47.2300   32.0110   41.0410 C   0  0  0  0  0  0  0  0  0  0  0  0
   48.4890   31.9550   41.5980 C   0  0  0  0  0  0  0  0  0  0  0  0
   49.2870   33.0130   41.9610 C   0  0  0  0  0  0  0  0  0  0  0  0
   48.7680   34.2800   41.7430 C   0  0  0  0  0  0  0  0  0  0  0  0
   47.5400   34.3690   41.2010 N   0  0  0  0  0  0  0  0  0  0  0  0
   49.5490   35.4510   42.1020 C   0  0  0  0  0  0  0  0  0  0  0  0
   49.3320   36.5570   41.5390 O   0  0  0  0  0  0  0  0  0  0  0  0
   46.0755   32.7426   38.3852 H   0  0  0  0  0  0  0  0  0  0  0  0
   43.8153   33.0614   37.3717 H   0  0  0  0  0  0  0  0  0  0  0  0
   42.0232   34.0268   38.7664 H   0  0  0  0  0  0  0  0  0  0  0  0
   44.6834   37.1766   44.5529 H   0  0  0  0  0  0  0  0  0  0  0  0
   44.3514   36.5489   42.1720 H   0  0  0  0  0  0  0  0  0  0  0  0
   45.3589   33.0906   45.4448 H   0  0  0  0  0  0  0  0  0  0  0  0
   46.6351   31.1267   40.7689 H   0  0  0  0  0  0  0  0  0  0  0  0
   48.9017   30.9502   41.7716 H   0  0  0  0  0  0  0  0  0  0  0  0
   50.2840   32.8628   42.4009 H   0  0  0  0  0  0  0  0  0  0  0  0
   50.3335   35.3717   42.8690 H   0  0  0  0  0  0  0  0  0  0  0  0
  2  3  2  0
  2  1  1  0
  3 10  1  0
  4 14  1  0
  4  3  1  0
  5  4  2  0
  6  5  1  0
  6  7  2  0
  7  2  1  0
  8 13  2  0
  9  8  1  0
 10  9  2  0
 10 11  1  0
 11 12  2  0
 12 13  1  0
 14 15  2  0
 14 19  1  0
 15 16  1  0
 16 17  2  0
 18 17  1  0
 18 20  1  0
 19 18  2  0
 21 20  2  0
  5 22  1  0
  6 23  1  0
  7 24  1  0
  8 25  1  0
  9 26  1  0
 12 27  1  0
 15 28  1  0
 16 29  1  0
 17 30  1  0
 20 31  1  0
M  ISO  8  22  14  23  14  24  14  25  14  26  14  27  14  28  14  29  14
M  ISO  2  30  14  31   6
M  END
>  <minimizedAffinity>  (1) 
-5.04372454

>  <minimizedRMSD>  (1) 
1.32030153

$$$$
