
     RDKit          3D

 39 42  0  0  0  0  0  0  0  0999 V2000
   40.1010   34.6460   42.2010 Cl  0  0  0  0  0  0  0  0  0  0  0  0
   40.2550   34.2440   40.5020 C   0  0  0  0  0  0  0  0  0  0  0  0
   41.2840   33.5020   40.0360 C   0  0  0  0  0  0  0  0  0  0  0  0
   41.3060   33.2460   38.6880 C   0  0  0  0  0  0  0  0  0  0  0  0
   40.3500   33.7070   37.8410 C   0  0  0  0  0  0  0  0  0  0  0  0
   39.3020   34.4620   38.3130 C   0  0  0  0  0  0  0  0  0  0  0  0
   39.2700   34.7230   39.6560 C   0  0  0  0  0  0  0  0  0  0  0  0
   44.2890   33.2950   42.3280 C   0  0  0  0  0  0  0  0  0  0  0  0
   43.3460   33.7860   41.4250 C   0  0  0  0  0  0  0  0  0  0  0  0
   42.2870   33.0280   40.9770 C   0  0  0  0  0  0  0  0  0  0  0  0
   42.2130   31.7480   41.4760 N   0  0  0  0  0  0  0  0  0  0  0  0
   43.1250   31.2820   42.3480 C   0  0  0  0  0  0  0  0  0  0  0  0
   44.1490   32.0280   42.7750 N   0  0  0  0  0  0  0  0  0  0  0  0
   42.4120   32.4420   38.1510 C   0  0  0  0  0  0  0  0  0  0  0  0
   42.0880   31.2040   37.6080 C   0  0  0  0  0  0  0  0  0  0  0  0
   43.2010   30.5410   37.1370 C   0  0  0  0  0  0  0  0  0  0  0  0
   44.5040   30.9800   37.1660 C   0  0  0  0  0  0  0  0  0  0  0  0
   44.7190   32.2270   37.7290 C   0  0  0  0  0  0  0  0  0  0  0  0
   43.6450   32.8950   38.1960 N   0  0  0  0  0  0  0  0  0  0  0  0
   46.3320   31.4290   40.1750 Cl  0  0  0  0  0  0  0  0  0  0  0  0
   46.8490   32.5060   38.8970 C   0  0  0  0  0  0  0  0  0  0  0  0
   46.0410   32.8080   37.8220 C   0  0  0  0  0  0  0  0  0  0  0  0
   46.5830   33.6720   36.8950 C   0  0  0  0  0  0  0  0  0  0  0  0
   47.8480   34.2040   37.0210 C   0  0  0  0  0  0  0  0  0  0  0  0
   48.6370   33.8890   38.1000 C   0  0  0  0  0  0  0  0  0  0  0  0
   48.1190   33.0270   39.0460 C   0  0  0  0  0  0  0  0  0  0  0  0
   40.4144   33.4745   36.7678 H   0  0  0  0  0  0  0  0  0  0  0  0
   38.5206   34.8410   37.6379 H   0  0  0  0  0  0  0  0  0  0  0  0
   38.4471   35.3240   40.0703 H   0  0  0  0  0  0  0  0  0  0  0  0
   45.1254   33.9236   42.6675 H   0  0  0  0  0  0  0  0  0  0  0  0
   43.4522   34.8172   41.0570 H   0  0  0  0  0  0  0  0  0  0  0  0
   43.0249   30.2525   42.7224 H   0  0  0  0  0  0  0  0  0  0  0  0
   41.0654   30.8015   37.5599 H   0  0  0  0  0  0  0  0  0  0  0  0
   43.0279   29.5516   36.6885 H   0  0  0  0  0  0  0  0  0  0  0  0
   45.3297   30.3743   36.7643 H   0  0  0  0  0  0  0  0  0  0  0  0
   45.9803   33.9486   36.0174 H   0  0  0  0  0  0  0  0  0  0  0  0
   48.2299   34.8883   36.2490 H   0  0  0  0  0  0  0  0  0  0  0  0
   49.6479   34.3094   38.2070 H   0  0  0  0  0  0  0  0  0  0  0  0
   48.7221   32.7535   39.9243 H   0  0  0  0  0  0  0  0  0  0  0  0
  2  1  1  0
  3  2  2  0
  3 10  1  0
  4  3  1  0
  5  6  1  0
  5  4  2  0
  6  7  2  0
  7  2  1  0
  8 13  2  0
  9  8  1  0
 10  9  2  0
 10 11  1  0
 11 12  2  0
 12 13  1  0
 14 19  1  0
 14  4  1  0
 15 14  2  0
 16 17  2  0
 16 15  1  0
 17 18  1  0
 18 22  1  0
 18 19  2  0
 21 26  2  0
 21 20  1  0
 22 21  1  0
 23 24  1  0
 23 22  2  0
 24 25  2  0
 25 26  1  0
  5 27  1  0
  6 28  1  0
  7 29  1  0
  8 30  1  0
  9 31  1  0
 12 32  1  0
 15 33  1  0
 16 34  1  0
 17 35  1  0
 23 36  1  0
 24 37  1  0
 25 38  1  0
 26 39  1  0
M  ISO  8  27  14  28  14  29  14  30  14  31  14  32  14  33  14  34  14
M  ISO  5  35  14  36  14  37  14  38  14  39  14
M  END
>  <minimizedAffinity>  (1) 
-4.992033

>  <minimizedRMSD>  (1) 
6.09444809

$$$$
