
     RDKit          3D

 22 22  0  0  0  0  0  0  0  0999 V2000
   46.6140   35.1100   42.6280 C   0  0  0  0  0  0  0  0  0  0  0  0
   46.9480   34.0290   43.4500 C   0  0  0  0  0  0  0  0  0  0  0  0
   46.1870   33.8210   44.6030 C   0  0  0  0  0  0  0  0  0  0  0  0
   45.1680   34.6730   44.8690 N   0  0  0  0  0  0  0  0  0  0  0  0
   44.8690   35.7000   44.0650 C   0  0  0  0  0  0  0  0  0  0  0  0
   45.5910   35.9290   42.9350 N   0  0  0  0  0  0  0  0  0  0  0  0
   48.0140   33.2410   43.0560 O   0  0  0  0  0  0  0  0  0  0  0  0
   50.5200   32.8990   42.3150 O   0  0  0  0  0  0  0  0  0  0  0  0
   49.4300   33.9280   42.3630 P   0  0  0  0  0  0  0  0  0  0  0  0
   49.1230   34.4490   40.7810 O   0  0  0  0  0  0  0  0  0  0  0  0
   49.9500   35.2490   43.2800 O   0  0  0  0  0  0  0  0  0  0  0  0
   46.5570   32.7360   45.3870 O   0  0  0  0  0  0  0  0  0  0  0  0
   46.0150   31.0840   47.3910 O   0  0  0  0  0  0  0  0  0  0  0  0
   46.2080   32.5310   47.0270 P   0  0  0  0  0  0  0  0  0  0  0  0
   47.5360   33.1180   47.9160 O   0  0  0  0  0  0  0  0  0  0  0  0
   44.8780   33.4570   47.5080 O   0  0  0  0  0  0  0  0  0  0  0  0
   47.1979   35.2942   41.7141 H   0  0  0  0  0  0  0  0  0  0  0  0
   44.0312   36.3656   44.3203 H   0  0  0  0  0  0  0  0  0  0  0  0
   48.6206   35.3017   40.8060 H   0  0  0  0  0  0  0  0  0  0  0  0
   49.8660   35.0357   44.2431 H   0  0  0  0  0  0  0  0  0  0  0  0
   47.3476   33.0347   48.8843 H   0  0  0  0  0  0  0  0  0  0  0  0
   44.8363   33.4860   48.4967 H   0  0  0  0  0  0  0  0  0  0  0  0
  1  6  2  0
  1  2  1  0
  2  3  2  0
  3  4  1  0
  3 12  1  0
  5  4  2  0
  6  5  1  0
  7  2  1  0
  8  9  2  0
  9  7  1  0
  9 11  1  0
 10  9  1  0
 12 14  1  0
 14 13  2  0
 14 16  1  0
 14 15  1  0
  1 17  1  0
  5 18  1  0
 10 19  1  0
 11 20  1  0
 15 21  1  0
 16 22  1  0
M  ISO  6  17  14  18  14  19   3  20   3  21   3  22   3
M  END
>  <minimizedAffinity>  (1) 
-5.7253046

>  <minimizedRMSD>  (1) 
1.99990189

$$$$
