
     RDKit          3D

 32 33  0  0  0  0  0  0  0  0999 V2000
   46.5350   35.1260   42.6340 C   0  0  0  0  0  0  0  0  0  0  0  0
   46.9950   34.0420   43.3830 C   0  0  0  0  0  0  0  0  0  0  0  0
   46.3290   33.7610   44.5740 C   0  0  0  0  0  0  0  0  0  0  0  0
   45.2880   34.5340   44.9440 N   0  0  0  0  0  0  0  0  0  0  0  0
   44.8630   35.5730   44.2050 C   0  0  0  0  0  0  0  0  0  0  0  0
   45.4930   35.8740   43.0370 N   0  0  0  0  0  0  0  0  0  0  0  0
   46.8170   32.6030   45.3780 C   0  0  0  0  0  0  0  0  0  0  0  0
   46.6860   32.8400   46.8520 C   0  0  0  0  0  0  0  0  0  0  0  0
   46.9170   31.5700   47.6040 C   0  0  0  0  0  0  0  0  0  0  0  0
   47.6640   30.5680   46.7290 C   0  0  0  0  0  0  0  0  0  0  0  0
   46.7320   30.1630   45.6030 C   0  0  0  0  0  0  0  0  0  0  0  0
   46.0400   31.3500   44.9820 C   0  0  0  0  0  0  0  0  0  0  0  0
   48.0650   33.3370   42.8930 O   0  0  0  0  0  0  0  0  0  0  0  0
   50.5170   33.1370   41.9360 O   0  0  0  0  0  0  0  0  0  0  0  0
   49.4320   34.1300   42.2240 P   0  0  0  0  0  0  0  0  0  0  0  0
   49.0230   34.8760   40.7540 O   0  0  0  0  0  0  0  0  0  0  0  0
   50.0140   35.2890   43.2990 O   0  0  0  0  0  0  0  0  0  0  0  0
   47.0386   35.3752   41.6883 H   0  0  0  0  0  0  0  0  0  0  0  0
   44.0088   36.1780   44.5432 H   0  0  0  0  0  0  0  0  0  0  0  0
   47.8878   32.4713   45.1633 H   0  0  0  0  0  0  0  0  0  0  0  0
   47.4285   33.5882   47.1666 H   0  0  0  0  0  0  0  0  0  0  0  0
   45.6703   33.2034   47.0670 H   0  0  0  0  0  0  0  0  0  0  0  0
   47.5141   31.7834   48.5029 H   0  0  0  0  0  0  0  0  0  0  0  0
   45.9456   31.1413   47.8914 H   0  0  0  0  0  0  0  0  0  0  0  0
   48.5716   31.0329   46.3166 H   0  0  0  0  0  0  0  0  0  0  0  0
   47.9659   29.6890   47.3174 H   0  0  0  0  0  0  0  0  0  0  0  0
   47.3170   29.6479   44.8268 H   0  0  0  0  0  0  0  0  0  0  0  0
   45.9589   29.5039   46.0249 H   0  0  0  0  0  0  0  0  0  0  0  0
   45.0068   31.4174   45.3535 H   0  0  0  0  0  0  0  0  0  0  0  0
   46.0089   31.2472   43.8873 H   0  0  0  0  0  0  0  0  0  0  0  0
   48.5552   35.7293   40.9359 H   0  0  0  0  0  0  0  0  0  0  0  0
   49.8607   34.9837   44.2282 H   0  0  0  0  0  0  0  0  0  0  0  0
  1  6  2  0
  1  2  1  0
  2  3  2  0
  3  4  1  0
  3  7  1  0
  5  4  2  0
  6  5  1  0
  7  8  1  0
  8  9  1  0
 10  9  1  0
 11 10  1  0
 12  7  1  0
 12 11  1  0
 13  2  1  0
 14 15  2  0
 15 13  1  0
 15 17  1  0
 16 15  1  0
  1 18  1  0
  5 19  1  0
  7 20  1  0
  8 21  1  0
  8 22  1  0
  9 23  1  0
  9 24  1  0
 10 25  1  0
 10 26  1  0
 11 27  1  0
 11 28  1  0
 12 29  1  0
 12 30  1  0
 16 31  1  0
 17 32  1  0
M  ISO  8  18  14  19  14  20  13  21  13  22  13  23  13  24  13  25  13
M  ISO  7  26  13  27  13  28  13  29  13  30  13  31   3  32   3
M  END
>  <minimizedAffinity>  (1) 
-5.40847921

>  <minimizedRMSD>  (1) 
0.3125076

$$$$
