
     RDKit          3D

 26 27  0  0  0  0  0  0  0  0999 V2000
   46.7540   34.9990   42.6570 C   0  0  0  0  0  0  0  0  0  0  0  0
   47.0690   33.9610   43.5620 C   0  0  0  0  0  0  0  0  0  0  0  0
   46.2290   33.7590   44.6550 C   0  0  0  0  0  0  0  0  0  0  0  0
   45.1500   34.5650   44.8000 N   0  0  0  0  0  0  0  0  0  0  0  0
   44.8800   35.5460   43.9160 C   0  0  0  0  0  0  0  0  0  0  0  0
   45.6660   35.7730   42.8500 N   0  0  0  0  0  0  0  0  0  0  0  0
   45.2220   31.0750   43.7910 Cl  0  0  0  0  0  0  0  0  0  0  0  0
   46.0190   31.4540   45.3300 C   0  0  0  0  0  0  0  0  0  0  0  0
   46.4520   32.7250   45.6460 C   0  0  0  0  0  0  0  0  0  0  0  0
   47.0310   32.7920   46.8640 C   0  0  0  0  0  0  0  0  0  0  0  0
   47.2000   31.7470   47.7430 C   0  0  0  0  0  0  0  0  0  0  0  0
   46.7510   30.4940   47.3850 C   0  0  0  0  0  0  0  0  0  0  0  0
   46.1560   30.3600   46.1640 C   0  0  0  0  0  0  0  0  0  0  0  0
   48.1930   33.2080   43.3110 O   0  0  0  0  0  0  0  0  0  0  0  0
   50.6670   32.9040   42.4300 O   0  0  0  0  0  0  0  0  0  0  0  0
   49.5410   33.8690   42.4680 P   0  0  0  0  0  0  0  0  0  0  0  0
   49.1240   34.2370   40.8610 O   0  0  0  0  0  0  0  0  0  0  0  0
   50.0540   35.3030   43.2250 O   0  0  0  0  0  0  0  0  0  0  0  0
   47.4022   35.1779   41.7864 H   0  0  0  0  0  0  0  0  0  0  0  0
   43.9928   36.1775   44.0713 H   0  0  0  0  0  0  0  0  0  0  0  0
   47.4032   33.7763   47.1842 H   0  0  0  0  0  0  0  0  0  0  0  0
   47.6860   31.9091   48.7164 H   0  0  0  0  0  0  0  0  0  0  0  0
   46.8680   29.6328   48.0593 H   0  0  0  0  0  0  0  0  0  0  0  0
   45.7835   29.3764   45.8419 H   0  0  0  0  0  0  0  0  0  0  0  0
   48.3817   34.8920   40.8544 H   0  0  0  0  0  0  0  0  0  0  0  0
   50.0136   35.1901   44.2077 H   0  0  0  0  0  0  0  0  0  0  0  0
  1  6  2  0
  1  2  1  0
  2  3  2  0
  3  4  1  0
  3  9  1  0
  5  4  2  0
  6  5  1  0
  7  8  1  0
  8  9  2  0
  8 13  1  0
  9 10  1  0
 10 11  2  0
 12 11  1  0
 13 12  2  0
 14  2  1  0
 15 16  2  0
 16 18  1  0
 16 14  1  0
 17 16  1  0
  1 19  1  0
  5 20  1  0
 10 21  1  0
 11 22  1  0
 12 23  1  0
 13 24  1  0
 17 25  1  0
 18 26  1  0
M  ISO  8  19  14  20  14  21  14  22  14  23  14  24  14  25   3  26   3
M  END
>  <minimizedAffinity>  (1) 
-5.52036905

>  <minimizedRMSD>  (1) 
0.707930982

$$$$
