
     RDKit          3D

 29 30  0  0  0  0  0  0  0  0999 V2000
   46.4490   35.1770   42.6190 C   0  0  0  0  0  0  0  0  0  0  0  0
   46.9120   34.0770   43.3610 C   0  0  0  0  0  0  0  0  0  0  0  0
   46.2960   33.7720   44.5750 C   0  0  0  0  0  0  0  0  0  0  0  0
   45.2600   34.5760   44.9770 N   0  0  0  0  0  0  0  0  0  0  0  0
   44.8400   35.6210   44.2470 C   0  0  0  0  0  0  0  0  0  0  0  0
   45.4340   35.9280   43.0600 N   0  0  0  0  0  0  0  0  0  0  0  0
   46.7330   32.6440   45.3810 C   0  0  0  0  0  0  0  0  0  0  0  0
   46.0580   31.3350   45.0400 C   0  0  0  0  0  0  0  0  0  0  0  0
   46.2500   30.5670   46.3330 C   0  0  0  0  0  0  0  0  0  0  0  0
   45.8370   31.6330   47.3550 C   0  0  0  0  0  0  0  0  0  0  0  0
   46.6940   32.8070   46.8580 C   0  0  0  0  0  0  0  0  0  0  0  0
   47.9640   33.3500   42.8400 O   0  0  0  0  0  0  0  0  0  0  0  0
   50.4220   33.1220   41.8930 O   0  0  0  0  0  0  0  0  0  0  0  0
   49.3560   34.1280   42.1930 P   0  0  0  0  0  0  0  0  0  0  0  0
   48.9900   34.9240   40.7440 O   0  0  0  0  0  0  0  0  0  0  0  0
   49.9470   35.2610   43.3000 O   0  0  0  0  0  0  0  0  0  0  0  0
   46.9289   35.4242   41.6606 H   0  0  0  0  0  0  0  0  0  0  0  0
   44.0053   36.2376   44.6118 H   0  0  0  0  0  0  0  0  0  0  0  0
   47.7930   32.6169   45.0883 H   0  0  0  0  0  0  0  0  0  0  0  0
   44.9920   31.4780   44.8092 H   0  0  0  0  0  0  0  0  0  0  0  0
   46.4640   30.8333   44.1493 H   0  0  0  0  0  0  0  0  0  0  0  0
   45.5967   29.6833   46.3813 H   0  0  0  0  0  0  0  0  0  0  0  0
   47.2615   30.1599   46.4785 H   0  0  0  0  0  0  0  0  0  0  0  0
   44.7617   31.8583   47.3010 H   0  0  0  0  0  0  0  0  0  0  0  0
   45.9894   31.3553   48.4084 H   0  0  0  0  0  0  0  0  0  0  0  0
   47.7079   32.7542   47.2814 H   0  0  0  0  0  0  0  0  0  0  0  0
   46.2818   33.7813   47.1594 H   0  0  0  0  0  0  0  0  0  0  0  0
   48.5850   35.8048   40.9445 H   0  0  0  0  0  0  0  0  0  0  0  0
   49.7797   34.9403   44.2216 H   0  0  0  0  0  0  0  0  0  0  0  0
  1  6  2  0
  1  2  1  0
  2  3  2  0
  3  4  1  0
  3  7  1  0
  5  4  2  0
  6  5  1  0
  7 11  1  0
  8  7  1  0
  8  9  1  0
  9 10  1  0
 11 10  1  0
 12  2  1  0
 13 14  2  0
 14 12  1  0
 14 16  1  0
 15 14  1  0
  1 17  1  0
  5 18  1  0
  7 19  1  0
  8 20  1  0
  8 21  1  0
  9 22  1  0
  9 23  1  0
 10 24  1  0
 10 25  1  0
 11 26  1  0
 11 27  1  0
 15 28  1  0
 16 29  1  0
M  ISO  8  17  14  18  14  19  13  20  13  21  13  22  13  23  13  24  13
M  ISO  5  25  13  26  13  27  13  28   3  29   3
M  END
>  <minimizedAffinity>  (1) 
-5.27517462

>  <minimizedRMSD>  (1) 
0.471949756

$$$$
