
     RDKit          3D

 25 26  0  0  0  0  0  0  0  0999 V2000
   46.8000   34.9180   42.7060 C   0  0  0  0  0  0  0  0  0  0  0  0
   47.1610   33.8870   43.5710 C   0  0  0  0  0  0  0  0  0  0  0  0
   46.3410   33.6380   44.6760 C   0  0  0  0  0  0  0  0  0  0  0  0
   45.2430   34.4030   44.8540 N   0  0  0  0  0  0  0  0  0  0  0  0
   44.9150   35.3910   44.0070 C   0  0  0  0  0  0  0  0  0  0  0  0
   45.6940   35.6500   42.9320 N   0  0  0  0  0  0  0  0  0  0  0  0
   46.7690   32.5480   45.5450 C   0  0  0  0  0  0  0  0  0  0  0  0
   46.9460   31.2360   45.1660 C   0  0  0  0  0  0  0  0  0  0  0  0
   47.3530   30.2610   46.0500 C   0  0  0  0  0  0  0  0  0  0  0  0
   47.5850   30.6630   47.3640 C   0  0  0  0  0  0  0  0  0  0  0  0
   47.4090   31.9720   47.7450 C   0  0  0  0  0  0  0  0  0  0  0  0
   47.0100   32.8810   46.8410 N   0  0  0  0  0  0  0  0  0  0  0  0
   48.3150   33.1690   43.2830 O   0  0  0  0  0  0  0  0  0  0  0  0
   50.7810   32.9590   42.3860 O   0  0  0  0  0  0  0  0  0  0  0  0
   49.6190   33.8820   42.4540 P   0  0  0  0  0  0  0  0  0  0  0  0
   49.1850   34.2910   40.8590 O   0  0  0  0  0  0  0  0  0  0  0  0
   50.1030   35.3020   43.2480 O   0  0  0  0  0  0  0  0  0  0  0  0
   47.4264   35.1359   41.8284 H   0  0  0  0  0  0  0  0  0  0  0  0
   44.0110   35.9912   44.1873 H   0  0  0  0  0  0  0  0  0  0  0  0
   46.7555   30.9564   44.1193 H   0  0  0  0  0  0  0  0  0  0  0  0
   47.4883   29.2161   45.7341 H   0  0  0  0  0  0  0  0  0  0  0  0
   47.9138   29.9218   48.1073 H   0  0  0  0  0  0  0  0  0  0  0  0
   47.5943   32.2736   48.7865 H   0  0  0  0  0  0  0  0  0  0  0  0
   48.4646   34.9699   40.8768 H   0  0  0  0  0  0  0  0  0  0  0  0
   50.0562   35.1648   44.2273 H   0  0  0  0  0  0  0  0  0  0  0  0
  1  6  2  0
  1  2  1  0
  2  3  2  0
  3  4  1  0
  3  7  1  0
  5  4  2  0
  6  5  1  0
  7 12  1  0
  8  7  2  0
  8  9  1  0
  9 10  2  0
 10 11  1  0
 12 11  2  0
 13  2  1  0
 14 15  2  0
 15 17  1  0
 15 13  1  0
 16 15  1  0
  1 18  1  0
  5 19  1  0
  8 20  1  0
  9 21  1  0
 10 22  1  0
 11 23  1  0
 16 24  1  0
 17 25  1  0
M  ISO  8  18  14  19  14  20  14  21  14  22  14  23  14  24   3  25   3
M  END
>  <minimizedAffinity>  (1) 
-5.39570045

>  <minimizedRMSD>  (1) 
0.752709687

$$$$
