
     RDKit          3D

 26 27  0  0  0  0  0  0  0  0999 V2000
   46.7950   35.0790   42.6260 C   0  0  0  0  0  0  0  0  0  0  0  0
   47.0220   34.0310   43.5220 C   0  0  0  0  0  0  0  0  0  0  0  0
   46.1020   33.8060   44.5540 C   0  0  0  0  0  0  0  0  0  0  0  0
   45.0220   34.6320   44.6300 N   0  0  0  0  0  0  0  0  0  0  0  0
   44.8380   35.6290   43.7490 C   0  0  0  0  0  0  0  0  0  0  0  0
   45.7070   35.8660   42.7490 N   0  0  0  0  0  0  0  0  0  0  0  0
   46.3610   32.7280   45.4510 N   0  0  0  0  0  0  0  0  0  0  0  0
   46.9740   32.8260   46.6460 C   0  0  0  0  0  0  0  0  0  0  0  0
   47.1580   31.7000   47.4110 C   0  0  0  0  0  0  0  0  0  0  0  0
   46.7220   30.4680   46.9710 C   0  0  0  0  0  0  0  0  0  0  0  0
   46.8740   29.4110   47.6460 O   0  0  0  0  0  0  0  0  0  0  0  0
   46.1120   30.4170   45.7660 N   0  0  0  0  0  0  0  0  0  0  0  0
   45.9230   31.5270   44.9950 C   0  0  0  0  0  0  0  0  0  0  0  0
   45.3410   31.3660   43.8870 O   0  0  0  0  0  0  0  0  0  0  0  0
   48.1680   33.2680   43.3220 O   0  0  0  0  0  0  0  0  0  0  0  0
   50.6230   32.8830   42.4630 O   0  0  0  0  0  0  0  0  0  0  0  0
   49.5170   33.8750   42.4790 P   0  0  0  0  0  0  0  0  0  0  0  0
   49.0960   34.2370   40.8690 O   0  0  0  0  0  0  0  0  0  0  0  0
   50.0730   35.2990   43.2160 O   0  0  0  0  0  0  0  0  0  0  0  0
   47.5113   35.2639   41.8119 H   0  0  0  0  0  0  0  0  0  0  0  0
   43.9504   36.2711   43.8478 H   0  0  0  0  0  0  0  0  0  0  0  0
   47.3258   33.8034   47.0079 H   0  0  0  0  0  0  0  0  0  0  0  0
   47.6593   31.7821   48.3867 H   0  0  0  0  0  0  0  0  0  0  0  0
   45.7777   29.5074   45.4170 H   0  0  0  0  0  0  0  0  0  0  0  0
   48.3454   34.8824   40.8613 H   0  0  0  0  0  0  0  0  0  0  0  0
   50.0337   35.1983   44.2001 H   0  0  0  0  0  0  0  0  0  0  0  0
  1  6  2  0
  1  2  1  0
  2  3  2  0
  3  4  1  0
  3  7  1  0
  5  4  2  0
  6  5  1  0
  7  8  1  0
  8  9  2  0
 10  9  1  0
 10 11  2  0
 12 10  1  0
 13  7  1  0
 13 12  1  0
 14 13  2  0
 15  2  1  0
 16 17  2  0
 17 19  1  0
 17 15  1  0
 18 17  1  0
  1 20  1  0
  5 21  1  0
  8 22  1  0
  9 23  1  0
 12 24  1  0
 18 25  1  0
 19 26  1  0
M  ISO  7  20  14  21  14  22  14  23  14  24   9  25   3  26   3
M  END
>  <minimizedAffinity>  (1) 
-5.43169069

>  <minimizedRMSD>  (1) 
0.860454977

$$$$
