
     RDKit          3D

 33 35  0  0  0  0  0  0  0  0999 V2000
   46.8290   32.6000   46.0080 C   0  0  0  0  0  0  0  0  0  0  0  0
   46.2590   31.8730   47.1620 C   0  0  0  0  0  0  0  0  0  0  0  0
   45.6570   32.3660   48.3160 C   0  0  0  0  0  0  0  0  0  0  0  0
   45.1000   31.6020   49.3010 C   0  0  0  0  0  0  0  0  0  0  0  0
   45.1530   30.2590   49.1030 C   0  0  0  0  0  0  0  0  0  0  0  0
   45.7380   29.7220   47.9870 C   0  0  0  0  0  0  0  0  0  0  0  0
   46.3120   30.5040   46.9810 C   0  0  0  0  0  0  0  0  0  0  0  0
   46.9240   29.5670   45.9670 C   0  0  0  0  0  0  0  0  0  0  0  0
   48.3740   29.7470   45.5950 C   0  0  0  0  0  0  0  0  0  0  0  0
   48.0830   28.6730   46.5230 C   0  0  0  0  0  0  0  0  0  0  0  0
   45.9200   32.5430   44.8210 C   0  0  0  0  0  0  0  0  0  0  0  0
   44.5910   35.9650   44.8210 C   0  0  0  0  0  0  0  0  0  0  0  0
   45.0130   36.4480   43.5520 C   0  0  0  0  0  0  0  0  0  0  0  0
   45.7550   35.5850   42.7640 C   0  0  0  0  0  0  0  0  0  0  0  0
   46.0450   34.3570   43.2070 N   0  0  0  0  0  0  0  0  0  0  0  0
   45.6110   33.9520   44.4310 C   0  0  0  0  0  0  0  0  0  0  0  0
   44.9050   34.7210   45.2250 N   0  0  0  0  0  0  0  0  0  0  0  0
   46.9840   33.6520   46.2894 H   0  0  0  0  0  0  0  0  0  0  0  0
   47.7822   32.1230   45.7361 H   0  0  0  0  0  0  0  0  0  0  0  0
   45.6276   33.4580   48.4447 H   0  0  0  0  0  0  0  0  0  0  0  0
   44.6387   32.0448   50.1961 H   0  0  0  0  0  0  0  0  0  0  0  0
   44.7159   29.5872   49.8565 H   0  0  0  0  0  0  0  0  0  0  0  0
   45.7568   28.6276   47.8778 H   0  0  0  0  0  0  0  0  0  0  0  0
   45.9872   29.4450   45.4036 H   0  0  0  0  0  0  0  0  0  0  0  0
   48.7027   29.5027   44.5741 H   0  0  0  0  0  0  0  0  0  0  0  0
   49.0597   30.6065   45.6275 H   0  0  0  0  0  0  0  0  0  0  0  0
   48.3871   28.7586   47.5767 H   0  0  0  0  0  0  0  0  0  0  0  0
   48.2874   27.5926   46.5523 H   0  0  0  0  0  0  0  0  0  0  0  0
   46.4183   32.0228   43.9897 H   0  0  0  0  0  0  0  0  0  0  0  0
   44.9978   31.9941   45.0623 H   0  0  0  0  0  0  0  0  0  0  0  0
   44.0001   36.6171   45.4809 H   0  0  0  0  0  0  0  0  0  0  0  0
   44.7609   37.4631   43.2113 H   0  0  0  0  0  0  0  0  0  0  0  0
   46.1061   35.9094   41.7733 H   0  0  0  0  0  0  0  0  0  0  0  0
  1  2  1  0
  2  3  2  0
  3  4  1  0
  5  4  2  0
  6  5  1  0
  7  2  1  0
  7  6  2  0
  8 10  1  0
  8  7  1  0
  9  8  1  0
  9 10  1  0
 11  1  1  0
 12 17  2  0
 13 12  1  0
 14 15  1  0
 14 13  2  0
 15 16  2  0
 16 11  1  0
 16 17  1  0
  1 18  1  0
  1 19  1  0
  3 20  1  0
  4 21  1  0
  5 22  1  0
  6 23  1  0
  8 24  1  0
  9 25  1  0
  9 26  1  0
 10 27  1  0
 10 28  1  0
 11 29  1  0
 11 30  1  0
 12 31  1  0
 13 32  1  0
 14 33  1  0
M  ISO  8  18   8  19   8  20  14  21  14  22  14  23  14  24  13  25  13
M  ISO  8  26  13  27  13  28  13  29   8  30   8  31  14  32  14  33  14
M  END
>  <minimizedAffinity>  (1) 
-4.71431398

>  <minimizedRMSD>  (1) 
0.824165285

$$$$
