
     RDKit          3D

 17 17  0  0  0  0  0  0  0  0999 V2000
   46.3600   35.2450   42.5960 C   0  0  0  0  0  0  0  0  0  0  0  0
   46.8410   34.1170   43.2600 C   0  0  0  0  0  0  0  0  0  0  0  0
   46.2690   33.7660   44.5030 C   0  0  0  0  0  0  0  0  0  0  0  0
   45.2680   34.5640   44.9810 N   0  0  0  0  0  0  0  0  0  0  0  0
   44.8350   35.6400   44.3120 C   0  0  0  0  0  0  0  0  0  0  0  0
   45.3690   36.0010   43.1130 N   0  0  0  0  0  0  0  0  0  0  0  0
   46.8970   32.3260   45.3290 S   0  0  0  0  0  0  0  0  0  0  0  0
   47.8590   33.3990   42.6610 O   0  0  0  0  0  0  0  0  0  0  0  0
   50.3530   33.1700   41.8320 O   0  0  0  0  0  0  0  0  0  0  0  0
   49.3040   34.1770   42.1530 P   0  0  0  0  0  0  0  0  0  0  0  0
   49.0180   35.0950   40.7460 O   0  0  0  0  0  0  0  0  0  0  0  0
   49.8780   35.2050   43.3550 O   0  0  0  0  0  0  0  0  0  0  0  0
   46.7991   35.5253   41.6272 H   0  0  0  0  0  0  0  0  0  0  0  0
   44.0262   36.2485   44.7428 H   0  0  0  0  0  0  0  0  0  0  0  0
   46.8183   32.5065   46.6848 H   0  0  0  0  0  0  0  0  0  0  0  0
   48.7334   36.0085   41.0002 H   0  0  0  0  0  0  0  0  0  0  0  0
   49.6655   34.8244   44.2439 H   0  0  0  0  0  0  0  0  0  0  0  0
  1  6  2  0
  1  2  1  0
  2  3  2  0
  3  4  1  0
  3  7  1  0
  5  4  2  0
  6  5  1  0
  8  2  1  0
  9 10  2  0
 10  8  1  0
 10 12  1  0
 11 10  1  0
  1 13  1  0
  5 14  1  0
  7 15  1  0
 11 16  1  0
 12 17  1  0
M  ISO  5  13  14  14  14  15  11  16   3  17   3
M  END
>  <minimizedAffinity>  (1) 
-4.36765957

>  <minimizedRMSD>  (1) 
0.0574789718

$$$$
