
     RDKit          3D

 18 18  0  0  0  0  0  0  0  0999 V2000
   46.3720   35.1740   42.5940 C   0  0  0  0  0  0  0  0  0  0  0  0
   46.8800   34.0910   43.3430 C   0  0  0  0  0  0  0  0  0  0  0  0
   46.3230   33.8080   44.5940 C   0  0  0  0  0  0  0  0  0  0  0  0
   45.3140   34.6030   45.0190 N   0  0  0  0  0  0  0  0  0  0  0  0
   44.8470   35.6250   44.2920 C   0  0  0  0  0  0  0  0  0  0  0  0
   45.3620   35.9210   43.0860 N   0  0  0  0  0  0  0  0  0  0  0  0
   46.8790   32.6790   45.3350 C   0  0  0  0  0  0  0  0  0  0  0  0
   46.9900   32.6500   46.5890 O   0  0  0  0  0  0  0  0  0  0  0  0
   47.9220   33.3720   42.7630 O   0  0  0  0  0  0  0  0  0  0  0  0
   50.4020   33.1680   41.8860 O   0  0  0  0  0  0  0  0  0  0  0  0
   49.3260   34.1470   42.1850 P   0  0  0  0  0  0  0  0  0  0  0  0
   48.9950   34.9960   40.7530 O   0  0  0  0  0  0  0  0  0  0  0  0
   49.9140   35.2530   43.3330 O   0  0  0  0  0  0  0  0  0  0  0  0
   46.7999   35.4092   41.6083 H   0  0  0  0  0  0  0  0  0  0  0  0
   44.0236   36.2363   44.6900 H   0  0  0  0  0  0  0  0  0  0  0  0
   47.2208   31.8029   44.7644 H   0  0  0  0  0  0  0  0  0  0  0  0
   48.6446   35.8947   40.9757 H   0  0  0  0  0  0  0  0  0  0  0  0
   49.7322   34.9110   44.2441 H   0  0  0  0  0  0  0  0  0  0  0  0
  1  6  2  0
  1  2  1  0
  2  3  2  0
  3  4  1  0
  3  7  1  0
  5  4  2  0
  6  5  1  0
  7  8  2  0
  9  2  1  0
 10 11  2  0
 11  9  1  0
 11 13  1  0
 12 11  1  0
  1 14  1  0
  5 15  1  0
  7 16  1  0
 12 17  1  0
 13 18  1  0
M  ISO  5  14  14  15  14  16   6  17   3  18   3
M  END
>  <minimizedAffinity>  (1) 
-4.48147392

>  <minimizedRMSD>  (1) 
0.209846497

$$$$
