
     RDKit          3D

 17 17  0  0  0  0  0  0  0  0999 V2000
   46.3390   35.1990   42.5910 C   0  0  0  0  0  0  0  0  0  0  0  0
   46.8780   34.1100   43.2730 C   0  0  0  0  0  0  0  0  0  0  0  0
   46.3450   33.7920   44.5350 C   0  0  0  0  0  0  0  0  0  0  0  0
   45.3430   34.5640   45.0080 N   0  0  0  0  0  0  0  0  0  0  0  0
   44.8450   35.6060   44.3270 C   0  0  0  0  0  0  0  0  0  0  0  0
   45.3430   35.9230   43.1200 N   0  0  0  0  0  0  0  0  0  0  0  0
   46.8890   32.7140   45.1950 O   0  0  0  0  0  0  0  0  0  0  0  0
   47.9040   33.4180   42.6530 O   0  0  0  0  0  0  0  0  0  0  0  0
   50.3840   33.1890   41.8240 O   0  0  0  0  0  0  0  0  0  0  0  0
   49.3340   34.1890   42.1390 P   0  0  0  0  0  0  0  0  0  0  0  0
   49.0370   35.1100   40.7430 O   0  0  0  0  0  0  0  0  0  0  0  0
   49.9020   35.2280   43.3610 O   0  0  0  0  0  0  0  0  0  0  0  0
   46.7376   35.4689   41.6019 H   0  0  0  0  0  0  0  0  0  0  0  0
   44.0271   36.2026   44.7573 H   0  0  0  0  0  0  0  0  0  0  0  0
   46.5447   32.4539   46.0860 H   0  0  0  0  0  0  0  0  0  0  0  0
   48.7439   36.0190   41.0035 H   0  0  0  0  0  0  0  0  0  0  0  0
   49.6906   34.8413   44.2475 H   0  0  0  0  0  0  0  0  0  0  0  0
  1  6  2  0
  1  2  1  0
  2  3  2  0
  3  4  1  0
  3  7  1  0
  5  4  2  0
  6  5  1  0
  8  2  1  0
  9 10  2  0
 10  8  1  0
 10 12  1  0
 11 10  1  0
  1 13  1  0
  5 14  1  0
  7 15  1  0
 11 16  1  0
 12 17  1  0
M  ISO  5  13  14  14  14  15   3  16   3  17   3
M  END
>  <minimizedAffinity>  (1) 
-4.35852098

>  <minimizedRMSD>  (1) 
0.017502578

$$$$
