
     RDKit          3D

 23 24  0  0  0  0  0  0  0  0999 V2000
   46.7580   35.0190   42.6630 C   0  0  0  0  0  0  0  0  0  0  0  0
   47.0550   33.9680   43.5560 C   0  0  0  0  0  0  0  0  0  0  0  0
   46.1960   33.7620   44.6420 C   0  0  0  0  0  0  0  0  0  0  0  0
   45.1270   34.5670   44.7940 N   0  0  0  0  0  0  0  0  0  0  0  0
   44.8640   35.5660   43.9270 C   0  0  0  0  0  0  0  0  0  0  0  0
   45.6830   35.7850   42.8660 N   0  0  0  0  0  0  0  0  0  0  0  0
   46.6180   32.6600   45.4630 C   0  0  0  0  0  0  0  0  0  0  0  0
   47.0280   32.6610   46.7920 C   0  0  0  0  0  0  0  0  0  0  0  0
   47.3370   31.4000   47.1620 N   0  0  0  0  0  0  0  0  0  0  0  0
   47.1200   30.6400   46.0740 C   0  0  0  0  0  0  0  0  0  0  0  0
   46.6860   31.3790   45.0350 N   0  0  0  0  0  0  0  0  0  0  0  0
   48.1900   33.2160   43.2780 O   0  0  0  0  0  0  0  0  0  0  0  0
   50.6710   32.9220   42.4370 O   0  0  0  0  0  0  0  0  0  0  0  0
   49.5350   33.8920   42.4580 P   0  0  0  0  0  0  0  0  0  0  0  0
   49.1190   34.2570   40.8510 O   0  0  0  0  0  0  0  0  0  0  0  0
   50.0420   35.3020   43.2330 O   0  0  0  0  0  0  0  0  0  0  0  0
   47.4122   35.2077   41.7990 H   0  0  0  0  0  0  0  0  0  0  0  0
   43.9825   36.2060   44.0798 H   0  0  0  0  0  0  0  0  0  0  0  0
   47.0906   33.5484   47.4390 H   0  0  0  0  0  0  0  0  0  0  0  0
   47.6695   31.0857   48.0848 H   0  0  0  0  0  0  0  0  0  0  0  0
   47.2772   29.5519   46.0372 H   0  0  0  0  0  0  0  0  0  0  0  0
   48.3749   34.9099   40.8429 H   0  0  0  0  0  0  0  0  0  0  0  0
   49.9961   35.1743   44.2137 H   0  0  0  0  0  0  0  0  0  0  0  0
  1  6  2  0
  1  2  1  0
  2  3  2  0
  3  4  1  0
  3  7  1  0
  5  4  2  0
  6  5  1  0
  7  8  2  0
  8  9  1  0
 10  9  1  0
 11  7  1  0
 11 10  2  0
 12  2  1  0
 13 14  2  0
 14 16  1  0
 14 12  1  0
 15 14  1  0
  1 17  1  0
  5 18  1  0
  8 19  1  0
  9 20  1  0
 10 21  1  0
 15 22  1  0
 16 23  1  0
M  ISO  7  17  14  18  14  19  14  20   9  21  14  22   3  23   3
M  END
>  <minimizedAffinity>  (1) 
-4.97885036

>  <minimizedRMSD>  (1) 
0.610509276

$$$$
