
     RDKit          3D

 39 41  0  0  1  0  0  0  0  0999 V2000
   45.1620   33.9880   43.7210 C   0  0  0  0  0  0  0  0  0  0  0  0
   45.6640   32.9300   44.4880 C   0  0  0  0  0  0  0  0  0  0  0  0
   45.6430   33.0350   45.8660 C   0  0  0  0  0  0  0  0  0  0  0  0
   45.1260   34.1740   46.3900 N   0  0  0  0  0  0  0  0  0  0  0  0
   44.6490   35.1780   45.6470 C   0  0  0  0  0  0  0  0  0  0  0  0
   44.6660   35.0870   44.3030 N   0  0  0  0  0  0  0  0  0  0  0  0
   45.2120   31.4270   47.7050 C   0  0  2  0  0  0  0  0  0  0  0  0
   46.2550   31.9470   46.6640 C   0  0  2  0  0  0  0  0  0  0  0  0
   47.3370   32.4020   47.5640 C   0  0  0  0  0  0  0  0  0  0  0  0
   46.9700   32.1300   48.8800 O   0  0  0  0  0  0  0  0  0  0  0  0
   46.2100   30.9580   48.7650 C   0  0  0  0  0  0  0  0  0  0  0  0
   44.5110   30.3320   47.1990 O   0  0  0  0  0  0  0  0  0  0  0  0
   46.1570   31.8190   43.7930 O   0  0  0  0  0  0  0  0  0  0  0  0
   48.5180   30.7170   44.0090 O   0  0  0  0  0  0  0  0  0  0  0  0
   47.7530   31.7250   43.2340 P   0  0  1  0  0  0  0  0  0  0  0  0
   47.7970   31.2810   41.5960 O   0  0  0  0  0  0  0  0  0  0  0  0
   48.4890   33.2550   43.4080 O   0  0  0  0  0  0  0  0  0  0  0  0
   49.0100   33.7130   42.2220 C   0  0  2  0  0  0  0  0  0  0  0  0
   49.9720   34.8640   42.4070 C   0  0  0  0  0  0  0  0  0  0  0  0
   49.3560   35.9900   41.6270 C   0  0  0  0  0  0  0  0  0  0  0  0
   48.3430   35.4900   40.8450 O   0  0  0  0  0  0  0  0  0  0  0  0
   47.9070   34.2900   41.3930 C   0  0  0  0  0  0  0  0  0  0  0  0
   45.1752   33.9153   42.6235 H   0  0  0  0  0  0  0  0  0  0  0  0
   44.2430   36.0776   46.1327 H   0  0  0  0  0  0  0  0  0  0  0  0
   44.4400   32.1435   48.0222 H   0  0  0  0  0  0  0  0  0  0  0  0
   46.6104   31.2247   45.9144 H   0  0  0  0  0  0  0  0  0  0  0  0
   48.2681   31.8686   47.3220 H   0  0  0  0  0  0  0  0  0  0  0  0
   47.4995   33.4825   47.4369 H   0  0  0  0  0  0  0  0  0  0  0  0
   45.7142   30.6929   49.7104 H   0  0  0  0  0  0  0  0  0  0  0  0
   46.7757   30.0485   48.5144 H   0  0  0  0  0  0  0  0  0  0  0  0
   44.1627   29.7879   47.9491 H   0  0  0  0  0  0  0  0  0  0  0  0
   47.8944   30.2985   41.5229 H   0  0  0  0  0  0  0  0  0  0  0  0
   49.5185   32.8511   41.7653 H   0  0  0  0  0  0  0  0  0  0  0  0
   50.0619   35.1299   43.4706 H   0  0  0  0  0  0  0  0  0  0  0  0
   50.9888   34.6217   42.0644 H   0  0  0  0  0  0  0  0  0  0  0  0
   48.9501   36.7407   42.3210 H   0  0  0  0  0  0  0  0  0  0  0  0
   50.1187   36.4623   40.9904 H   0  0  0  0  0  0  0  0  0  0  0  0
   47.0247   34.4704   42.0246 H   0  0  0  0  0  0  0  0  0  0  0  0
   47.6347   33.5885   40.5907 H   0  0  0  0  0  0  0  0  0  0  0  0
  1  6  2  0
  1  2  1  0
  2  3  2  0
  3  4  1  0
  3  8  1  0
  5  4  2  0
  6  5  1  0
  7 11  1  0
  8  9  1  0
  8  7  1  0
  9 10  1  0
 11 10  1  0
 12  7  1  0
 13  2  1  0
 15 17  1  0
 15 13  1  0
 15 14  2  0
 16 15  1  0
 18 19  1  0
 18 17  1  0
 20 19  1  0
 21 22  1  0
 21 20  1  0
 22 18  1  0
  1 23  1  0
  5 24  1  0
  7 25  1  1
  8 26  1  6
  9 27  1  0
  9 28  1  0
 11 29  1  0
 11 30  1  0
 12 31  1  0
 16 32  1  0
 18 33  1  6
 19 34  1  0
 19 35  1  0
 20 36  1  0
 20 37  1  0
 22 38  1  0
 22 39  1  0
M  ISO  8  23  14  24  14  25  13  26  13  27  13  28  13  29  13  30  13
M  ISO  8  31   3  32   3  33  13  34  13  35  13  36  13  37  13  38  13
M  ISO  1  39  13
M  END
>  <minimizedAffinity>  (1) 
-5.10661077

>  <minimizedRMSD>  (1) 
2.63514137

$$$$
