
     RDKit          3D

 39 42  0  0  1  0  0  0  0  0999 V2000
   46.6360   34.4400   42.2900 N   0  0  0  0  0  0  0  0  0  0  0  0
   48.0500   34.1780   42.3090 C   0  0  0  0  0  0  0  0  0  0  0  0
   48.6100   34.8960   41.0860 C   0  0  0  0  0  0  0  0  0  0  0  0
   48.0690   34.3510   39.8160 C   0  0  0  0  0  0  0  0  0  0  0  0
   46.6460   33.8960   39.8890 C   0  0  0  0  0  0  0  0  0  0  0  0
   45.8630   34.3990   41.0560 C   0  0  1  0  0  0  0  0  0  0  0  0
   44.7690   33.4580   41.3110 C   0  0  0  0  0  0  0  0  0  0  0  0
   45.0240   32.1950   41.7320 N   0  0  0  0  0  0  0  0  0  0  0  0
   44.0670   31.2830   41.9840 C   0  0  0  0  0  0  0  0  0  0  0  0
   42.7700   31.5860   41.8260 N   0  0  0  0  0  0  0  0  0  0  0  0
   42.4380   32.8010   41.4170 C   0  0  0  0  0  0  0  0  0  0  0  0
   41.1180   33.1250   41.2500 C   0  0  0  0  0  0  0  0  0  0  0  0
   40.7960   34.3890   40.8250 C   0  0  0  0  0  0  0  0  0  0  0  0
   41.7570   35.3510   40.5570 C   0  0  0  0  0  0  0  0  0  0  0  0
   43.0710   34.9950   40.7340 C   0  0  0  0  0  0  0  0  0  0  0  0
   43.4220   33.7420   41.1560 C   0  0  0  0  0  0  0  0  0  0  0  0
   44.4660   36.1290   44.8300 C   0  0  0  0  0  0  0  0  0  0  0  0
   45.1350   35.9250   43.6060 C   0  0  0  0  0  0  0  0  0  0  0  0
   45.9130   34.7530   43.4820 C   0  0  0  0  0  0  0  0  0  0  0  0
   45.9760   33.8870   44.5440 N   0  0  0  0  0  0  0  0  0  0  0  0
   45.3010   34.1460   45.7040 C   0  0  0  0  0  0  0  0  0  0  0  0
   44.5490   35.2690   45.8370 N   0  0  0  0  0  0  0  0  0  0  0  0
   48.5029   34.5750   43.2295 H   0  0  0  0  0  0  0  0  0  0  0  0
   48.2671   33.0999   42.2861 H   0  0  0  0  0  0  0  0  0  0  0  0
   48.3501   35.9628   41.1523 H   0  0  0  0  0  0  0  0  0  0  0  0
   49.6999   34.7477   41.0785 H   0  0  0  0  0  0  0  0  0  0  0  0
   48.6890   33.4920   39.5197 H   0  0  0  0  0  0  0  0  0  0  0  0
   48.0956   35.1746   39.0873 H   0  0  0  0  0  0  0  0  0  0  0  0
   46.1375   34.2293   38.9723 H   0  0  0  0  0  0  0  0  0  0  0  0
   46.6871   32.8029   40.0052 H   0  0  0  0  0  0  0  0  0  0  0  0
   45.5327   35.4165   40.8000 H   0  0  0  0  0  0  0  0  0  0  0  0
   44.3521   30.2764   42.3238 H   0  0  0  0  0  0  0  0  0  0  0  0
   40.3299   32.3849   41.4530 H   0  0  0  0  0  0  0  0  0  0  0  0
   39.7354   34.6487   40.6920 H   0  0  0  0  0  0  0  0  0  0  0  0
   41.4782   36.3590   40.2162 H   0  0  0  0  0  0  0  0  0  0  0  0
   43.8599   35.7344   40.5318 H   0  0  0  0  0  0  0  0  0  0  0  0
   43.8530   37.0338   44.9547 H   0  0  0  0  0  0  0  0  0  0  0  0
   45.0543   36.6488   42.7816 H   0  0  0  0  0  0  0  0  0  0  0  0
   45.3678   33.4353   46.5410 H   0  0  0  0  0  0  0  0  0  0  0  0
  1  2  1  0
  1 19  1  0
  3  2  1  0
  4  5  1  0
  4  3  1  0
  5  6  1  0
  6  7  1  0
  6  1  1  0
  7  8  2  0
  8  9  1  0
 10  9  2  0
 11 10  1  0
 12 11  2  0
 13 12  1  0
 14 15  1  0
 14 13  2  0
 15 16  2  0
 16  7  1  0
 16 11  1  0
 17 22  2  0
 18 17  1  0
 19 18  2  0
 19 20  1  0
 20 21  2  0
 21 22  1  0
  2 23  1  0
  2 24  1  0
  3 25  1  0
  3 26  1  0
  4 27  1  0
  4 28  1  0
  5 29  1  0
  5 30  1  0
  6 31  1  6
  9 32  1  0
 12 33  1  0
 13 34  1  0
 14 35  1  0
 15 36  1  0
 17 37  1  0
 18 38  1  0
 21 39  1  0
M  ISO  8  23  13  24  13  25  13  26  13  27  13  28  13  29  13  30  13
M  ISO  8  31  13  32  14  33  14  34  14  35  14  36  14  37  14  38  14
M  ISO  1  39  14
M  END
>  <minimizedAffinity>  (1) 
-6.16702557

>  <minimizedRMSD>  (1) 
2.3109746

$$$$
