
     RDKit          3D

 41 43  0  0  1  0  0  0  0  0999 V2000
   46.8400   34.6060   42.3430 N   0  0  0  0  0  0  0  0  0  0  0  0
   48.3010   34.6050   42.4210 C   0  0  0  0  0  0  0  0  0  0  0  0
   48.7520   35.4370   41.2160 C   0  0  0  0  0  0  0  0  0  0  0  0
   48.4070   34.7400   39.9480 C   0  0  0  0  0  0  0  0  0  0  0  0
   47.0690   34.1120   39.9530 C   0  0  0  0  0  0  0  0  0  0  0  0
   46.1780   34.4270   41.1040 C   0  0  1  0  0  0  0  0  0  0  0  0
   44.4580   35.9700   44.8650 C   0  0  0  0  0  0  0  0  0  0  0  0
   45.1900   35.8560   43.6850 C   0  0  0  0  0  0  0  0  0  0  0  0
   46.0830   34.7860   43.5290 C   0  0  0  0  0  0  0  0  0  0  0  0
   46.1990   33.8850   44.5610 N   0  0  0  0  0  0  0  0  0  0  0  0
   45.4530   34.0480   45.6990 C   0  0  0  0  0  0  0  0  0  0  0  0
   44.5950   35.0820   45.8400 N   0  0  0  0  0  0  0  0  0  0  0  0
   45.0280   33.4830   41.0260 C   0  0  0  0  0  0  0  0  0  0  0  0
   45.1820   32.3240   40.0790 C   0  0  0  0  0  0  0  0  0  0  0  0
   44.1070   31.2980   40.4900 C   0  0  0  0  0  0  0  0  0  0  0  0
   42.7380   31.8980   40.3890 C   0  0  0  0  0  0  0  0  0  0  0  0
   42.6190   33.2020   41.1490 C   0  0  0  0  0  0  0  0  0  0  0  0
   43.7170   34.1340   40.6690 C   0  0  0  0  0  0  0  0  0  0  0  0
   48.6402   35.0661   43.3603 H   0  0  0  0  0  0  0  0  0  0  0  0
   48.7192   33.5877   42.4060 H   0  0  0  0  0  0  0  0  0  0  0  0
   48.2482   36.4145   41.2412 H   0  0  0  0  0  0  0  0  0  0  0  0
   49.8425   35.5732   41.2637 H   0  0  0  0  0  0  0  0  0  0  0  0
   49.1569   33.9553   39.7693 H   0  0  0  0  0  0  0  0  0  0  0  0
   48.3974   35.5041   39.1568 H   0  0  0  0  0  0  0  0  0  0  0  0
   46.5506   34.4284   39.0359 H   0  0  0  0  0  0  0  0  0  0  0  0
   47.2611   33.0315   40.0281 H   0  0  0  0  0  0  0  0  0  0  0  0
   45.7625   35.4431   41.0337 H   0  0  0  0  0  0  0  0  0  0  0  0
   43.7567   36.8083   44.9894 H   0  0  0  0  0  0  0  0  0  0  0  0
   45.0685   36.5988   42.8828 H   0  0  0  0  0  0  0  0  0  0  0  0
   45.5552   33.3197   46.5170 H   0  0  0  0  0  0  0  0  0  0  0  0
   45.0228   33.1078   42.0600 H   0  0  0  0  0  0  0  0  0  0  0  0
   46.1861   31.8845   40.1720 H   0  0  0  0  0  0  0  0  0  0  0  0
   45.0611   32.6387   39.0319 H   0  0  0  0  0  0  0  0  0  0  0  0
   44.1685   30.4241   39.8247 H   0  0  0  0  0  0  0  0  0  0  0  0
   44.2855   30.9964   41.5327 H   0  0  0  0  0  0  0  0  0  0  0  0
   42.5124   32.0857   39.3289 H   0  0  0  0  0  0  0  0  0  0  0  0
   42.0273   31.1859   40.8337 H   0  0  0  0  0  0  0  0  0  0  0  0
   41.6355   33.6559   40.9576 H   0  0  0  0  0  0  0  0  0  0  0  0
   42.7195   33.0220   42.2295 H   0  0  0  0  0  0  0  0  0  0  0  0
   43.6305   35.1101   41.1688 H   0  0  0  0  0  0  0  0  0  0  0  0
   43.6436   34.3048   39.5848 H   0  0  0  0  0  0  0  0  0  0  0  0
  1  2  1  0
  1  9  1  0
  3  2  1  0
  4  5  1  0
  4  3  1  0
  5  6  1  0
  6  1  1  0
  7 12  2  0
  8  7  1  0
  9  8  2  0
  9 10  1  0
 10 11  2  0
 11 12  1  0
 13  6  1  0
 14 15  1  0
 14 13  1  0
 16 15  1  0
 16 17  1  0
 18 13  1  0
 18 17  1  0
  2 19  1  0
  2 20  1  0
  3 21  1  0
  3 22  1  0
  4 23  1  0
  4 24  1  0
  5 25  1  0
  5 26  1  0
  6 27  1  6
  7 28  1  0
  8 29  1  0
 11 30  1  0
 13 31  1  0
 14 32  1  0
 14 33  1  0
 15 34  1  0
 15 35  1  0
 16 36  1  0
 16 37  1  0
 17 38  1  0
 17 39  1  0
 18 40  1  0
 18 41  1  0
M  ISO  8  19  13  20  13  21  13  22  13  23  13  24  13  25  13  26  13
M  ISO  8  27  13  28  14  29  14  30  14  31  13  32  13  33  13  34  13
M  ISO  7  35  13  36  13  37  13  38  13  39  13  40  13  41  13
M  END
>  <minimizedAffinity>  (1) 
-5.24369287

>  <minimizedRMSD>  (1) 
0.75188005

$$$$
