
     RDKit          3D

 31 32  0  0  1  0  0  0  0  0999 V2000
   46.9040   34.5910   42.3070 N   0  0  0  0  0  0  0  0  0  0  0  0
   48.3470   34.6570   42.3550 C   0  0  0  0  0  0  0  0  0  0  0  0
   48.7490   35.4690   41.1160 C   0  0  0  0  0  0  0  0  0  0  0  0
   48.3630   34.7630   39.8520 C   0  0  0  0  0  0  0  0  0  0  0  0
   47.1120   33.9620   39.9350 C   0  0  0  0  0  0  0  0  0  0  0  0
   46.2040   34.3250   41.0780 C   0  0  1  0  0  0  0  0  0  0  0  0
   44.4630   35.9290   44.8050 C   0  0  0  0  0  0  0  0  0  0  0  0
   45.1910   35.8350   43.6180 C   0  0  0  0  0  0  0  0  0  0  0  0
   46.1070   34.7870   43.4710 C   0  0  0  0  0  0  0  0  0  0  0  0
   46.2180   33.9250   44.5140 N   0  0  0  0  0  0  0  0  0  0  0  0
   45.5110   34.0190   45.6610 C   0  0  0  0  0  0  0  0  0  0  0  0
   44.6280   35.0390   45.7920 N   0  0  0  0  0  0  0  0  0  0  0  0
   45.3160   33.1280   41.3490 C   0  0  0  0  0  0  0  0  0  0  0  0
   43.9230   33.3390   40.7800 C   0  0  0  0  0  0  0  0  0  0  0  0
   48.6806   35.1623   43.2734 H   0  0  0  0  0  0  0  0  0  0  0  0
   48.8063   33.6575   42.3609 H   0  0  0  0  0  0  0  0  0  0  0  0
   48.2444   36.4459   41.1489 H   0  0  0  0  0  0  0  0  0  0  0  0
   49.8418   35.5942   41.1232 H   0  0  0  0  0  0  0  0  0  0  0  0
   49.1842   34.0853   39.5754 H   0  0  0  0  0  0  0  0  0  0  0  0
   48.1751   35.5494   39.1062 H   0  0  0  0  0  0  0  0  0  0  0  0
   46.5539   34.1012   38.9974 H   0  0  0  0  0  0  0  0  0  0  0  0
   47.4224   32.9206   40.1054 H   0  0  0  0  0  0  0  0  0  0  0  0
   45.6619   35.2360   40.7843 H   0  0  0  0  0  0  0  0  0  0  0  0
   43.7407   36.7488   44.9321 H   0  0  0  0  0  0  0  0  0  0  0  0
   45.0476   36.5708   42.8130 H   0  0  0  0  0  0  0  0  0  0  0  0
   45.6485   33.2856   46.4692 H   0  0  0  0  0  0  0  0  0  0  0  0
   45.7627   32.2369   40.8838 H   0  0  0  0  0  0  0  0  0  0  0  0
   45.2318   32.9954   42.4377 H   0  0  0  0  0  0  0  0  0  0  0  0
   43.2029   33.4481   41.6043 H   0  0  0  0  0  0  0  0  0  0  0  0
   43.9133   34.2489   40.1619 H   0  0  0  0  0  0  0  0  0  0  0  0
   43.6443   32.4728   40.1619 H   0  0  0  0  0  0  0  0  0  0  0  0
  1  2  1  0
  1  9  1  0
  3  2  1  0
  4  5  1  0
  4  3  1  0
  5  6  1  0
  6 13  1  0
  6  1  1  0
  7 12  2  0
  8  7  1  0
  9  8  2  0
  9 10  1  0
 10 11  2  0
 11 12  1  0
 14 13  1  0
  2 15  1  0
  2 16  1  0
  3 17  1  0
  3 18  1  0
  4 19  1  0
  4 20  1  0
  5 21  1  0
  5 22  1  0
  6 23  1  6
  7 24  1  0
  8 25  1  0
 11 26  1  0
 13 27  1  0
 13 28  1  0
 14 29  1  0
 14 30  1  0
 14 31  1  0
M  ISO  8  15  13  16  13  17  13  18  13  19  13  20  13  21  13  22  13
M  ISO  8  23  13  24  14  25  14  26  14  27   8  28   8  29   8  30   8
M  ISO  1  31   8
M  END
>  <minimizedAffinity>  (1) 
-4.73701525

>  <minimizedRMSD>  (1) 
0.0529173948

$$$$
