
     RDKit          3D

 34 35  0  0  0  0  0  0  0  0999 V2000
   46.2160   31.9240   47.2090 C   0  0  0  0  0  0  0  0  0  0  0  0
   45.6760   32.3790   48.3860 C   0  0  0  0  0  0  0  0  0  0  0  0
   45.1410   31.5550   49.3470 C   0  0  0  0  0  0  0  0  0  0  0  0
   45.1420   30.2010   49.1270 C   0  0  0  0  0  0  0  0  0  0  0  0
   45.6880   29.7140   47.9380 C   0  0  0  0  0  0  0  0  0  0  0  0
   46.2260   30.5760   46.9800 C   0  0  0  0  0  0  0  0  0  0  0  0
   46.7920   32.6570   46.0750 C   0  0  0  0  0  0  0  0  0  0  0  0
   45.9730   32.5550   44.8220 C   0  0  0  0  0  0  0  0  0  0  0  0
   44.5880   35.9780   44.8130 C   0  0  0  0  0  0  0  0  0  0  0  0
   45.0080   36.4590   43.5450 C   0  0  0  0  0  0  0  0  0  0  0  0
   45.7490   35.5930   42.7620 C   0  0  0  0  0  0  0  0  0  0  0  0
   46.0360   34.3700   43.2140 N   0  0  0  0  0  0  0  0  0  0  0  0
   45.6070   33.9590   44.4370 C   0  0  0  0  0  0  0  0  0  0  0  0
   44.8990   34.7390   45.2250 N   0  0  0  0  0  0  0  0  0  0  0  0
   46.7240   29.6500   45.9940 N   0  0  0  0  0  0  0  0  0  0  0  0
   48.3500   29.2300   45.5920 S   0  0  0  0  0  0  0  0  0  0  0  0
   48.4930   27.7560   45.3080 O   0  0  0  0  0  0  0  0  0  0  0  0
   49.2950   29.5160   46.7300 O   0  0  0  0  0  0  0  0  0  0  0  0
   48.7940   30.1740   44.3000 O   0  0  0  0  0  0  0  0  0  0  0  0
   45.6712   33.4634   48.5703 H   0  0  0  0  0  0  0  0  0  0  0  0
   44.7206   31.9727   50.2737 H   0  0  0  0  0  0  0  0  0  0  0  0
   44.7204   29.5118   49.8735 H   0  0  0  0  0  0  0  0  0  0  0  0
   45.6946   28.6298   47.7521 H   0  0  0  0  0  0  0  0  0  0  0  0
   46.8751   33.7183   46.3518 H   0  0  0  0  0  0  0  0  0  0  0  0
   47.7718   32.2055   45.8603 H   0  0  0  0  0  0  0  0  0  0  0  0
   46.5606   32.0822   44.0213 H   0  0  0  0  0  0  0  0  0  0  0  0
   45.0755   31.9395   44.9822 H   0  0  0  0  0  0  0  0  0  0  0  0
   43.9968   36.6328   45.4700 H   0  0  0  0  0  0  0  0  0  0  0  0
   44.7558   37.4731   43.2015 H   0  0  0  0  0  0  0  0  0  0  0  0
   46.1010   35.9109   41.7695 H   0  0  0  0  0  0  0  0  0  0  0  0
   45.9996   29.1649   45.4456 H   0  0  0  0  0  0  0  0  0  0  0  0
   48.5413   27.2585   46.1625 H   0  0  0  0  0  0  0  0  0  0  0  0
   48.8272   29.3744   47.5909 H   0  0  0  0  0  0  0  0  0  0  0  0
   49.1913   31.0187   44.6296 H   0  0  0  0  0  0  0  0  0  0  0  0
  1  2  2  0
  2  3  1  0
  4  3  2  0
  5  4  1  0
  6  1  1  0
  6  5  2  0
  7  1  1  0
  8  7  1  0
  9 14  2  0
 10  9  1  0
 11 12  1  0
 11 10  2  0
 12 13  2  0
 13  8  1  0
 13 14  1  0
 15  6  1  0
 16 15  1  0
 16 18  1  0
 17 16  1  0
 19 16  1  0
  2 20  1  0
  3 21  1  0
  4 22  1  0
  5 23  1  0
  7 24  1  0
  7 25  1  0
  8 26  1  0
  8 27  1  0
  9 28  1  0
 10 29  1  0
 11 30  1  0
 15 31  1  0
 17 32  1  0
 18 33  1  0
 19 34  1  0
M  ISO  8  20  14  21  14  22  14  23  14  24   8  25   8  26   8  27   8
M  ISO  6  28  14  29  14  30  14  32   3  33   3  34   3
M  END
>  <minimizedAffinity>  (1) 
-4.62213612

>  <minimizedRMSD>  (1) 
0.828544676

$$$$
