
     RDKit          3D

 40 42  0  0  1  0  0  0  0  0999 V2000
   47.2360   34.2410   42.2560 N   0  0  0  0  0  0  0  0  0  0  0  0
   48.3820   35.0850   41.9210 C   0  0  0  0  0  0  0  0  0  0  0  0
   48.4590   35.0510   40.4040 C   0  0  0  0  0  0  0  0  0  0  0  0
   48.7320   33.6820   39.8900 C   0  0  0  0  0  0  0  0  0  0  0  0
   48.0760   32.5760   40.6560 C   0  0  0  0  0  0  0  0  0  0  0  0
   46.9890   33.0070   41.5880 C   0  0  2  0  0  0  0  0  0  0  0  0
   44.6630   36.0540   44.2670 C   0  0  0  0  0  0  0  0  0  0  0  0
   45.5230   35.7490   43.2170 C   0  0  0  0  0  0  0  0  0  0  0  0
   46.3430   34.6230   43.2840 C   0  0  0  0  0  0  0  0  0  0  0  0
   46.2290   33.8880   44.4190 N   0  0  0  0  0  0  0  0  0  0  0  0
   45.3920   34.1840   45.4430 C   0  0  0  0  0  0  0  0  0  0  0  0
   44.6110   35.2760   45.3520 N   0  0  0  0  0  0  0  0  0  0  0  0
   45.6760   32.7940   41.1200 N   0  0  0  0  0  0  0  0  0  0  0  0
   44.8120   31.9190   41.7720 C   0  0  0  0  0  0  0  0  0  0  0  0
   43.5500   32.5280   42.3350 C   0  0  0  0  0  0  0  0  0  0  0  0
   43.0110   33.6610   41.5390 C   0  0  0  0  0  0  0  0  0  0  0  0
   43.6330   33.7570   40.1810 C   0  0  0  0  0  0  0  0  0  0  0  0
   45.1100   33.8100   40.3040 C   0  0  0  0  0  0  0  0  0  0  0  0
   48.2234   36.1133   42.2780 H   0  0  0  0  0  0  0  0  0  0  0  0
   49.3106   34.7302   42.3919 H   0  0  0  0  0  0  0  0  0  0  0  0
   47.5008   35.4004   39.9919 H   0  0  0  0  0  0  0  0  0  0  0  0
   49.2882   35.7027   40.0914 H   0  0  0  0  0  0  0  0  0  0  0  0
   48.3797   33.6318   38.8491 H   0  0  0  0  0  0  0  0  0  0  0  0
   49.8160   33.5258   39.9923 H   0  0  0  0  0  0  0  0  0  0  0  0
   47.6437   31.8698   39.9318 H   0  0  0  0  0  0  0  0  0  0  0  0
   48.8611   32.1323   41.2858 H   0  0  0  0  0  0  0  0  0  0  0  0
   47.0414   32.2822   42.4138 H   0  0  0  0  0  0  0  0  0  0  0  0
   44.0197   36.9440   44.2034 H   0  0  0  0  0  0  0  0  0  0  0  0
   45.5564   36.3988   42.3301 H   0  0  0  0  0  0  0  0  0  0  0  0
   45.3517   33.5414   46.3349 H   0  0  0  0  0  0  0  0  0  0  0  0
   44.5176   31.1397   41.0536 H   0  0  0  0  0  0  0  0  0  0  0  0
   45.3721   31.5435   42.6411 H   0  0  0  0  0  0  0  0  0  0  0  0
   42.7804   31.7435   42.3829 H   0  0  0  0  0  0  0  0  0  0  0  0
   43.8093   32.9328   43.3244 H   0  0  0  0  0  0  0  0  0  0  0  0
   41.9260   33.5239   41.4208 H   0  0  0  0  0  0  0  0  0  0  0  0
   43.2458   34.5898   42.0796 H   0  0  0  0  0  0  0  0  0  0  0  0
   43.2759   34.6689   39.6801 H   0  0  0  0  0  0  0  0  0  0  0  0
   43.3506   32.8730   39.5904 H   0  0  0  0  0  0  0  0  0  0  0  0
   45.5410   33.7192   39.2960 H   0  0  0  0  0  0  0  0  0  0  0  0
   45.3463   34.7671   40.7920 H   0  0  0  0  0  0  0  0  0  0  0  0
  1  9  1  0
  2  1  1  0
  3  2  1  0
  4  3  1  0
  4  5  1  0
  5  6  1  0
  6  1  1  0
  7 12  2  0
  8  9  2  0
  8  7  1  0
  9 10  1  0
 10 11  2  0
 12 11  1  0
 13  6  1  0
 13 14  1  0
 14 15  1  0
 16 15  1  0
 17 18  1  0
 17 16  1  0
 18 13  1  0
  2 19  1  0
  2 20  1  0
  3 21  1  0
  3 22  1  0
  4 23  1  0
  4 24  1  0
  5 25  1  0
  5 26  1  0
  6 27  1  1
  7 28  1  0
  8 29  1  0
 11 30  1  0
 14 31  1  0
 14 32  1  0
 15 33  1  0
 15 34  1  0
 16 35  1  0
 16 36  1  0
 17 37  1  0
 17 38  1  0
 18 39  1  0
 18 40  1  0
M  ISO  8  19  13  20  13  21  13  22  13  23  13  24  13  25  13  26  13
M  ISO  8  27  13  28  14  29  14  30  14  31  13  32  13  33  13  34  13
M  ISO  6  35  13  36  13  37  13  38  13  39  13  40  13
M  END
>  <minimizedAffinity>  (1) 
-4.58815718

>  <minimizedRMSD>  (1) 
1.78120828

$$$$
