
     RDKit          3D

 27 28  0  0  0  0  0  0  0  0999 V2000
   46.8080   32.6770   46.0720 C   0  0  0  0  0  0  0  0  0  0  0  0
   46.2180   31.9130   47.1740 C   0  0  0  0  0  0  0  0  0  0  0  0
   45.5380   32.3490   48.2930 C   0  0  0  0  0  0  0  0  0  0  0  0
   45.0080   31.5130   49.2420 C   0  0  0  0  0  0  0  0  0  0  0  0
   45.1550   30.1580   49.0820 C   0  0  0  0  0  0  0  0  0  0  0  0
   45.8390   29.6990   47.9580 C   0  0  0  0  0  0  0  0  0  0  0  0
   46.3690   30.5590   47.0100 C   0  0  0  0  0  0  0  0  0  0  0  0
   46.9790   29.7150   46.0530 O   0  0  0  0  0  0  0  0  0  0  0  0
   45.9830   32.5660   44.8030 C   0  0  0  0  0  0  0  0  0  0  0  0
   44.5770   35.9760   44.8140 C   0  0  0  0  0  0  0  0  0  0  0  0
   44.9870   36.4720   43.5490 C   0  0  0  0  0  0  0  0  0  0  0  0
   45.7480   35.6070   42.7480 C   0  0  0  0  0  0  0  0  0  0  0  0
   46.0590   34.3660   43.1880 N   0  0  0  0  0  0  0  0  0  0  0  0
   45.6270   33.9630   44.4130 C   0  0  0  0  0  0  0  0  0  0  0  0
   44.9110   34.7330   45.2090 N   0  0  0  0  0  0  0  0  0  0  0  0
   46.8691   33.7354   46.3653 H   0  0  0  0  0  0  0  0  0  0  0  0
   47.8070   32.2648   45.8670 H   0  0  0  0  0  0  0  0  0  0  0  0
   45.4136   33.4331   48.4321 H   0  0  0  0  0  0  0  0  0  0  0  0
   44.4756   31.9204   50.1141 H   0  0  0  0  0  0  0  0  0  0  0  0
   44.7443   29.4537   49.8205 H   0  0  0  0  0  0  0  0  0  0  0  0
   45.9625   28.6149   47.8185 H   0  0  0  0  0  0  0  0  0  0  0  0
   46.9473   28.7322   46.1680 H   0  0  0  0  0  0  0  0  0  0  0  0
   46.5710   32.0861   44.0068 H   0  0  0  0  0  0  0  0  0  0  0  0
   45.0836   31.9531   44.9623 H   0  0  0  0  0  0  0  0  0  0  0  0
   43.9788   36.6152   45.4801 H   0  0  0  0  0  0  0  0  0  0  0  0
   44.7212   37.4851   43.2129 H   0  0  0  0  0  0  0  0  0  0  0  0
   46.0933   35.9394   41.7579 H   0  0  0  0  0  0  0  0  0  0  0  0
  1  2  1  0
  2  3  2  0
  3  4  1  0
  5  4  2  0
  6  5  1  0
  7  2  1  0
  7  6  2  0
  8  7  1  0
  9  1  1  0
 10 15  2  0
 11 10  1  0
 12 13  1  0
 12 11  2  0
 13 14  2  0
 14  9  1  0
 14 15  1  0
  1 16  1  0
  1 17  1  0
  3 18  1  0
  4 19  1  0
  5 20  1  0
  6 21  1  0
  8 22  1  0
  9 23  1  0
  9 24  1  0
 10 25  1  0
 11 26  1  0
 12 27  1  0
M  ISO  8  16   8  17   8  18  14  19  14  20  14  21  14  22   3  23   8
M  ISO  4  24   8  25  14  26  14  27  14
M  END
>  <minimizedAffinity>  (1) 
-4.61995316

>  <minimizedRMSD>  (1) 
0.455505788

$$$$
