
     RDKit          3D

 39 42  0  0  1  0  0  0  0  0999 V2000
   46.8720   34.6460   42.2740 N   0  0  0  0  0  0  0  0  0  0  0  0
   48.3350   34.6710   42.3550 C   0  0  0  0  0  0  0  0  0  0  0  0
   48.7660   35.4560   41.1210 C   0  0  0  0  0  0  0  0  0  0  0  0
   48.4180   34.7040   39.8750 C   0  0  0  0  0  0  0  0  0  0  0  0
   47.0780   34.0310   39.9110 C   0  0  0  0  0  0  0  0  0  0  0  0
   46.1850   34.4440   41.0430 C   0  0  1  0  0  0  0  0  0  0  0  0
   44.4840   35.9750   44.8120 C   0  0  0  0  0  0  0  0  0  0  0  0
   45.2030   35.9100   43.5940 C   0  0  0  0  0  0  0  0  0  0  0  0
   46.0880   34.8280   43.4500 C   0  0  0  0  0  0  0  0  0  0  0  0
   46.1860   33.9310   44.4840 N   0  0  0  0  0  0  0  0  0  0  0  0
   45.4790   34.0350   45.6260 C   0  0  0  0  0  0  0  0  0  0  0  0
   44.6170   35.0770   45.7850 N   0  0  0  0  0  0  0  0  0  0  0  0
   45.2360   33.4370   41.2160 O   0  0  0  0  0  0  0  0  0  0  0  0
   43.4850   34.6700   40.3840 C   0  0  0  0  0  0  0  0  0  0  0  0
   43.8790   33.5530   41.1280 C   0  0  0  0  0  0  0  0  0  0  0  0
   42.8730   32.7600   41.6450 C   0  0  0  0  0  0  0  0  0  0  0  0
   41.5440   33.0570   41.4370 C   0  0  0  0  0  0  0  0  0  0  0  0
   40.4850   32.3830   41.8750 N   0  0  0  0  0  0  0  0  0  0  0  0
   39.4180   33.0700   41.4110 C   0  0  0  0  0  0  0  0  0  0  0  0
   39.7970   34.1460   40.7000 N   0  0  0  0  0  0  0  0  0  0  0  0
   41.1510   34.1540   40.7060 C   0  0  0  0  0  0  0  0  0  0  0  0
   42.1380   34.9610   40.1790 C   0  0  0  0  0  0  0  0  0  0  0  0
   48.6660   35.1767   43.2741 H   0  0  0  0  0  0  0  0  0  0  0  0
   48.7720   33.6620   42.3857 H   0  0  0  0  0  0  0  0  0  0  0  0
   48.2520   36.4285   41.1126 H   0  0  0  0  0  0  0  0  0  0  0  0
   49.8555   35.6038   41.1554 H   0  0  0  0  0  0  0  0  0  0  0  0
   49.1858   33.9332   39.7127 H   0  0  0  0  0  0  0  0  0  0  0  0
   48.3754   35.4448   39.0629 H   0  0  0  0  0  0  0  0  0  0  0  0
   46.5585   34.2570   38.9681 H   0  0  0  0  0  0  0  0  0  0  0  0
   47.2790   32.9594   40.0567 H   0  0  0  0  0  0  0  0  0  0  0  0
   45.7354   35.4124   40.7785 H   0  0  0  0  0  0  0  0  0  0  0  0
   43.7814   36.8082   44.9612 H   0  0  0  0  0  0  0  0  0  0  0  0
   45.0758   36.6648   42.8040 H   0  0  0  0  0  0  0  0  0  0  0  0
   45.5969   33.2854   46.4223 H   0  0  0  0  0  0  0  0  0  0  0  0
   44.2521   35.3303   39.9532 H   0  0  0  0  0  0  0  0  0  0  0  0
   43.1391   31.8713   42.2361 H   0  0  0  0  0  0  0  0  0  0  0  0
   40.4792   31.5244   42.4439 H   0  0  0  0  0  0  0  0  0  0  0  0
   38.3712   32.7847   41.5922 H   0  0  0  0  0  0  0  0  0  0  0  0
   41.8577   35.8461   39.5890 H   0  0  0  0  0  0  0  0  0  0  0  0
  1  2  1  0
  1  9  1  0
  3  2  1  0
  4  5  1  0
  4  3  1  0
  5  6  1  0
  6 13  1  0
  6  1  1  0
  7 12  2  0
  8  7  1  0
  9  8  2  0
  9 10  1  0
 10 11  2  0
 11 12  1  0
 14 15  2  0
 15 13  1  0
 15 16  1  0
 17 16  2  0
 17 18  1  0
 19 18  1  0
 20 21  1  0
 20 19  2  0
 21 17  1  0
 22 14  1  0
 22 21  2  0
  2 23  1  0
  2 24  1  0
  3 25  1  0
  3 26  1  0
  4 27  1  0
  4 28  1  0
  5 29  1  0
  5 30  1  0
  6 31  1  6
  7 32  1  0
  8 33  1  0
 11 34  1  0
 14 35  1  0
 16 36  1  0
 18 37  1  0
 19 38  1  0
 22 39  1  0
M  ISO  8  23  13  24  13  25  13  26  13  27  13  28  13  29  13  30  13
M  ISO  8  31  13  32  14  33  14  34  14  35  14  36  14  37   9  38  14
M  ISO  1  39  14
M  END
>  <minimizedAffinity>  (1) 
-6.49897289

>  <minimizedRMSD>  (1) 
0.748148382

$$$$
