
     RDKit          3D

 36 38  0  0  1  0  0  0  0  0999 V2000
   46.7860   34.5460   42.2810 N   0  0  0  0  0  0  0  0  0  0  0  0
   48.2440   34.6260   42.3120 C   0  0  0  0  0  0  0  0  0  0  0  0
   48.5840   35.3850   41.0130 C   0  0  0  0  0  0  0  0  0  0  0  0
   48.2040   34.5780   39.8130 C   0  0  0  0  0  0  0  0  0  0  0  0
   46.9180   33.8420   39.9470 C   0  0  0  0  0  0  0  0  0  0  0  0
   46.0260   34.2650   41.0830 C   0  0  1  0  0  0  0  0  0  0  0  0
   44.4560   35.9560   44.8520 C   0  0  0  0  0  0  0  0  0  0  0  0
   45.1420   35.8520   43.6250 C   0  0  0  0  0  0  0  0  0  0  0  0
   46.0320   34.7510   43.4900 C   0  0  0  0  0  0  0  0  0  0  0  0
   46.1560   33.8940   44.5320 N   0  0  0  0  0  0  0  0  0  0  0  0
   45.4760   34.0320   45.6920 C   0  0  0  0  0  0  0  0  0  0  0  0
   44.6220   35.0740   45.8450 N   0  0  0  0  0  0  0  0  0  0  0  0
   45.1460   33.2450   41.3410 O   0  0  0  0  0  0  0  0  0  0  0  0
   43.0700   35.3470   40.2440 Cl  0  0  0  0  0  0  0  0  0  0  0  0
   42.7050   33.7990   40.9640 C   0  0  0  0  0  0  0  0  0  0  0  0
   43.8200   33.0960   41.3500 C   0  0  0  0  0  0  0  0  0  0  0  0
   43.5450   31.8450   41.9320 C   0  0  0  0  0  0  0  0  0  0  0  0
   42.2400   31.3590   42.1030 C   0  0  0  0  0  0  0  0  0  0  0  0
   41.2040   32.1630   41.6720 C   0  0  0  0  0  0  0  0  0  0  0  0
   41.3970   33.3970   41.0950 C   0  0  0  0  0  0  0  0  0  0  0  0
   48.5896   35.1824   43.1957 H   0  0  0  0  0  0  0  0  0  0  0  0
   48.7285   33.6404   42.3747 H   0  0  0  0  0  0  0  0  0  0  0  0
   48.0334   36.3371   40.9967 H   0  0  0  0  0  0  0  0  0  0  0  0
   49.6680   35.5698   40.9854 H   0  0  0  0  0  0  0  0  0  0  0  0
   49.0019   33.8444   39.6255 H   0  0  0  0  0  0  0  0  0  0  0  0
   48.0721   35.2906   38.9855 H   0  0  0  0  0  0  0  0  0  0  0  0
   46.3557   33.9755   39.0110 H   0  0  0  0  0  0  0  0  0  0  0  0
   47.1962   32.7999   40.1632 H   0  0  0  0  0  0  0  0  0  0  0  0
   45.4978   35.1853   40.7931 H   0  0  0  0  0  0  0  0  0  0  0  0
   43.7581   36.7934   44.9990 H   0  0  0  0  0  0  0  0  0  0  0  0
   44.9968   36.5828   42.8158 H   0  0  0  0  0  0  0  0  0  0  0  0
   45.6144   33.3047   46.5055 H   0  0  0  0  0  0  0  0  0  0  0  0
   44.3878   31.2223   42.2667 H   0  0  0  0  0  0  0  0  0  0  0  0
   42.0502   30.3774   42.5618 H   0  0  0  0  0  0  0  0  0  0  0  0
   40.1733   31.7992   41.7960 H   0  0  0  0  0  0  0  0  0  0  0  0
   40.5570   34.0229   40.7594 H   0  0  0  0  0  0  0  0  0  0  0  0
  1  2  1  0
  1  9  1  0
  3  2  1  0
  4  5  1  0
  4  3  1  0
  5  6  1  0
  6 13  1  0
  6  1  1  0
  7 12  2  0
  8  7  1  0
  9  8  2  0
  9 10  1  0
 10 11  2  0
 11 12  1  0
 13 16  1  0
 14 15  1  0
 15 20  2  0
 15 16  1  0
 16 17  2  0
 17 18  1  0
 19 18  2  0
 20 19  1  0
  2 21  1  0
  2 22  1  0
  3 23  1  0
  3 24  1  0
  4 25  1  0
  4 26  1  0
  5 27  1  0
  5 28  1  0
  6 29  1  6
  7 30  1  0
  8 31  1  0
 11 32  1  0
 17 33  1  0
 18 34  1  0
 19 35  1  0
 20 36  1  0
M  ISO  8  21  13  22  13  23  13  24  13  25  13  26  13  27  13  28  13
M  ISO  8  29  13  30  14  31  14  32  14  33  14  34  14  35  14  36  14
M  END
>  <minimizedAffinity>  (1) 
-5.79344797

>  <minimizedRMSD>  (1) 
0.585378587

$$$$
