
     RDKit          3D

 28 29  0  0  0  0  0  0  0  0999 V2000
   46.8260   32.6270   45.9950 C   0  0  0  0  0  0  0  0  0  0  0  0
   46.2110   31.8650   47.0890 C   0  0  0  0  0  0  0  0  0  0  0  0
   45.4210   32.3030   48.1380 C   0  0  0  0  0  0  0  0  0  0  0  0
   44.8830   31.4690   49.0850 C   0  0  0  0  0  0  0  0  0  0  0  0
   45.1410   30.1240   48.9860 C   0  0  0  0  0  0  0  0  0  0  0  0
   45.9350   29.6600   47.9380 C   0  0  0  0  0  0  0  0  0  0  0  0
   46.4700   30.5260   46.9930 C   0  0  0  0  0  0  0  0  0  0  0  0
   47.2560   29.6740   46.1340 N   0  0  0  0  0  0  0  0  0  0  0  0
   46.0180   32.5370   44.7190 C   0  0  0  0  0  0  0  0  0  0  0  0
   44.5860   35.9340   44.8020 C   0  0  0  0  0  0  0  0  0  0  0  0
   44.9910   36.4550   43.5390 C   0  0  0  0  0  0  0  0  0  0  0  0
   45.7490   35.6250   42.7260 C   0  0  0  0  0  0  0  0  0  0  0  0
   46.0670   34.3930   43.1410 N   0  0  0  0  0  0  0  0  0  0  0  0
   45.6530   33.9450   44.3590 C   0  0  0  0  0  0  0  0  0  0  0  0
   44.9310   34.6870   45.1770 N   0  0  0  0  0  0  0  0  0  0  0  0
   46.9000   33.6827   46.2950 H   0  0  0  0  0  0  0  0  0  0  0  0
   47.8202   32.1990   45.7991 H   0  0  0  0  0  0  0  0  0  0  0  0
   45.2130   33.3803   48.2166 H   0  0  0  0  0  0  0  0  0  0  0  0
   44.2620   31.8668   49.9012 H   0  0  0  0  0  0  0  0  0  0  0  0
   44.7266   29.4215   49.7241 H   0  0  0  0  0  0  0  0  0  0  0  0
   46.1426   28.5828   47.8577 H   0  0  0  0  0  0  0  0  0  0  0  0
   47.2722   28.6565   46.2931 H   0  0  0  0  0  0  0  0  0  0  0  0
   47.8009   30.0833   45.3617 H   0  0  0  0  0  0  0  0  0  0  0  0
   46.6187   32.0815   43.9179 H   0  0  0  0  0  0  0  0  0  0  0  0
   45.1233   31.9113   44.8528 H   0  0  0  0  0  0  0  0  0  0  0  0
   43.9841   36.5579   45.4792 H   0  0  0  0  0  0  0  0  0  0  0  0
   44.7145   37.4715   43.2224 H   0  0  0  0  0  0  0  0  0  0  0  0
   46.0883   35.9791   41.7414 H   0  0  0  0  0  0  0  0  0  0  0  0
  1  2  1  0
  2  3  2  0
  3  4  1  0
  5  4  2  0
  6  5  1  0
  7  2  1  0
  7  6  2  0
  8  7  1  0
  9  1  1  0
 10 15  2  0
 11 10  1  0
 12 13  1  0
 12 11  2  0
 13 14  2  0
 14  9  1  0
 14 15  1  0
  1 16  1  0
  1 17  1  0
  3 18  1  0
  4 19  1  0
  5 20  1  0
  6 21  1  0
  8 22  1  0
  8 23  1  0
  9 24  1  0
  9 25  1  0
 10 26  1  0
 11 27  1  0
 12 28  1  0
M  ISO  8  16   8  17   8  18  14  19  14  20  14  21  14  24   8  25   8
M  ISO  3  26  14  27  14  28  14
M  END
>  <minimizedAffinity>  (1) 
-4.56090498

>  <minimizedRMSD>  (1) 
0.546283603

$$$$
