
     RDKit          3D

 34 36  0  0  1  0  0  0  0  0999 V2000
   46.8420   34.5950   42.3030 N   0  0  0  0  0  0  0  0  0  0  0  0
   48.2950   34.6190   42.3490 C   0  0  0  0  0  0  0  0  0  0  0  0
   48.6970   35.4080   41.0970 C   0  0  0  0  0  0  0  0  0  0  0  0
   48.3010   34.6670   39.8570 C   0  0  0  0  0  0  0  0  0  0  0  0
   46.9950   33.9390   39.9460 C   0  0  0  0  0  0  0  0  0  0  0  0
   46.1280   34.3730   41.0850 C   0  0  1  0  0  0  0  0  0  0  0  0
   44.4720   35.9720   44.8420 C   0  0  0  0  0  0  0  0  0  0  0  0
   45.1790   35.8850   43.6300 C   0  0  0  0  0  0  0  0  0  0  0  0
   46.0700   34.7940   43.4790 C   0  0  0  0  0  0  0  0  0  0  0  0
   46.1610   33.9210   44.5250 N   0  0  0  0  0  0  0  0  0  0  0  0
   45.4620   34.0430   45.6700 C   0  0  0  0  0  0  0  0  0  0  0  0
   44.6080   35.0900   45.8170 N   0  0  0  0  0  0  0  0  0  0  0  0
   45.1840   33.3440   41.2880 O   0  0  0  0  0  0  0  0  0  0  0  0
   43.8210   33.4890   41.0780 C   0  0  0  0  0  0  0  0  0  0  0  0
   43.5070   34.7100   40.4720 C   0  0  0  0  0  0  0  0  0  0  0  0
   42.1550   34.9620   40.2140 C   0  0  0  0  0  0  0  0  0  0  0  0
   41.2050   34.0590   40.5370 N   0  0  0  0  0  0  0  0  0  0  0  0
   41.5950   32.9050   41.1180 C   0  0  0  0  0  0  0  0  0  0  0  0
   42.8600   32.6000   41.3940 N   0  0  0  0  0  0  0  0  0  0  0  0
   48.6484   35.1251   43.2595 H   0  0  0  0  0  0  0  0  0  0  0  0
   48.7330   33.6102   42.3704 H   0  0  0  0  0  0  0  0  0  0  0  0
   48.1944   36.3864   41.1095 H   0  0  0  0  0  0  0  0  0  0  0  0
   49.7889   35.5410   41.0971 H   0  0  0  0  0  0  0  0  0  0  0  0
   49.0875   33.9313   39.6330 H   0  0  0  0  0  0  0  0  0  0  0  0
   48.1774   35.4263   39.0707 H   0  0  0  0  0  0  0  0  0  0  0  0
   46.4428   34.1051   39.0092 H   0  0  0  0  0  0  0  0  0  0  0  0
   47.2347   32.8791   40.1169 H   0  0  0  0  0  0  0  0  0  0  0  0
   45.6698   35.3381   40.8230 H   0  0  0  0  0  0  0  0  0  0  0  0
   43.7750   36.8109   44.9852 H   0  0  0  0  0  0  0  0  0  0  0  0
   45.0461   36.6318   42.8333 H   0  0  0  0  0  0  0  0  0  0  0  0
   45.5809   33.3042   46.4762 H   0  0  0  0  0  0  0  0  0  0  0  0
   44.2878   35.4392   40.2101 H   0  0  0  0  0  0  0  0  0  0  0  0
   41.8617   35.9106   39.7406 H   0  0  0  0  0  0  0  0  0  0  0  0
   40.8186   32.1710   41.3796 H   0  0  0  0  0  0  0  0  0  0  0  0
  1  2  1  0
  1  9  1  0
  3  2  1  0
  4  5  1  0
  4  3  1  0
  5  6  1  0
  6 13  1  0
  6  1  1  0
  7 12  2  0
  8  7  1  0
  9  8  2  0
  9 10  1  0
 10 11  2  0
 11 12  1  0
 14 13  1  0
 14 19  1  0
 15 14  2  0
 16 15  1  0
 16 17  2  0
 17 18  1  0
 18 19  2  0
  2 20  1  0
  2 21  1  0
  3 22  1  0
  3 23  1  0
  4 24  1  0
  4 25  1  0
  5 26  1  0
  5 27  1  0
  6 28  1  6
  7 29  1  0
  8 30  1  0
 11 31  1  0
 15 32  1  0
 16 33  1  0
 18 34  1  0
M  ISO  8  20  13  21  13  22  13  23  13  24  13  25  13  26  13  27  13
M  ISO  7  28  13  29  14  30  14  31  14  32  14  33  14  34  14
M  END
>  <minimizedAffinity>  (1) 
-5.65030098

>  <minimizedRMSD>  (1) 
0.31700474

$$$$
