
     RDKit          3D

 37 39  0  0  1  0  0  0  0  0999 V2000
   46.7720   34.5670   42.2980 N   0  0  0  0  0  0  0  0  0  0  0  0
   48.2260   34.6000   42.3240 C   0  0  0  0  0  0  0  0  0  0  0  0
   48.5980   35.3600   41.0490 C   0  0  0  0  0  0  0  0  0  0  0  0
   48.1990   34.5730   39.8350 C   0  0  0  0  0  0  0  0  0  0  0  0
   46.8730   33.9120   39.9360 C   0  0  0  0  0  0  0  0  0  0  0  0
   46.0150   34.3270   41.1000 C   0  0  1  0  0  0  0  0  0  0  0  0
   44.4740   35.9810   44.8830 C   0  0  0  0  0  0  0  0  0  0  0  0
   45.1640   35.8730   43.6590 C   0  0  0  0  0  0  0  0  0  0  0  0
   46.0230   34.7770   43.4950 C   0  0  0  0  0  0  0  0  0  0  0  0
   46.1270   33.8910   44.5360 N   0  0  0  0  0  0  0  0  0  0  0  0
   45.4420   34.0390   45.6920 C   0  0  0  0  0  0  0  0  0  0  0  0
   44.6090   35.1010   45.8550 N   0  0  0  0  0  0  0  0  0  0  0  0
   45.0950   33.3020   41.3310 O   0  0  0  0  0  0  0  0  0  0  0  0
   43.9520   33.5900   40.6400 C   0  0  2  0  0  0  0  0  0  0  0  0
   43.5430   35.0400   40.6370 C   0  0  0  0  0  0  0  0  0  0  0  0
   42.0720   34.8720   40.2410 C   0  0  0  0  0  0  0  0  0  0  0  0
   41.6430   33.6600   40.7040 O   0  0  0  0  0  0  0  0  0  0  0  0
   42.7040   33.0200   41.3260 C   0  0  0  0  0  0  0  0  0  0  0  0
   48.5898   35.1304   43.2164 H   0  0  0  0  0  0  0  0  0  0  0  0
   48.6731   33.5958   42.3658 H   0  0  0  0  0  0  0  0  0  0  0  0
   48.0775   36.3290   41.0398 H   0  0  0  0  0  0  0  0  0  0  0  0
   49.6868   35.5153   41.0313 H   0  0  0  0  0  0  0  0  0  0  0  0
   48.9582   33.7953   39.6653 H   0  0  0  0  0  0  0  0  0  0  0  0
   48.1266   35.2928   39.0063 H   0  0  0  0  0  0  0  0  0  0  0  0
   46.3166   34.1316   39.0129 H   0  0  0  0  0  0  0  0  0  0  0  0
   47.0856   32.8439   40.0909 H   0  0  0  0  0  0  0  0  0  0  0  0
   45.5212   35.2766   40.8463 H   0  0  0  0  0  0  0  0  0  0  0  0
   43.7956   36.8338   45.0333 H   0  0  0  0  0  0  0  0  0  0  0  0
   45.0336   36.6203   42.8624 H   0  0  0  0  0  0  0  0  0  0  0  0
   45.5584   33.3012   46.4996 H   0  0  0  0  0  0  0  0  0  0  0  0
   44.2114   33.1933   39.6474 H   0  0  0  0  0  0  0  0  0  0  0  0
   43.6531   35.5019   41.6292 H   0  0  0  0  0  0  0  0  0  0  0  0
   44.1366   35.6981   39.9855 H   0  0  0  0  0  0  0  0  0  0  0  0
   41.4709   35.6765   40.6898 H   0  0  0  0  0  0  0  0  0  0  0  0
   41.9638   34.9220   39.1475 H   0  0  0  0  0  0  0  0  0  0  0  0
   42.6421   31.9317   41.1785 H   0  0  0  0  0  0  0  0  0  0  0  0
   42.7124   33.1849   42.4135 H   0  0  0  0  0  0  0  0  0  0  0  0
  1  2  1  0
  1  9  1  0
  3  2  1  0
  4  5  1  0
  4  3  1  0
  5  6  1  0
  6 13  1  0
  6  1  1  0
  7 12  2  0
  8  7  1  0
  9  8  2  0
  9 10  1  0
 10 11  2  0
 11 12  1  0
 14 18  1  0
 14 13  1  0
 15 14  1  0
 16 15  1  0
 16 17  1  0
 17 18  1  0
  2 19  1  0
  2 20  1  0
  3 21  1  0
  3 22  1  0
  4 23  1  0
  4 24  1  0
  5 25  1  0
  5 26  1  0
  6 27  1  6
  7 28  1  0
  8 29  1  0
 11 30  1  0
 14 31  1  6
 15 32  1  0
 15 33  1  0
 16 34  1  0
 16 35  1  0
 18 36  1  0
 18 37  1  0
M  ISO  8  19  13  20  13  21  13  22  13  23  13  24  13  25  13  26  13
M  ISO  8  27  13  28  14  29  14  30  14  31  13  32  13  33  13  34  13
M  ISO  3  35  13  36  13  37  13
M  END
>  <minimizedAffinity>  (1) 
-5.44257641

>  <minimizedRMSD>  (1) 
0.52291131

$$$$
