
     RDKit          3D

 29 30  0  0  1  0  0  0  0  0999 V2000
   46.8580   34.6400   42.2800 N   0  0  0  0  0  0  0  0  0  0  0  0
   48.3240   34.6590   42.3680 C   0  0  0  0  0  0  0  0  0  0  0  0
   48.7430   35.4530   41.1200 C   0  0  0  0  0  0  0  0  0  0  0  0
   48.3900   34.6800   39.8900 C   0  0  0  0  0  0  0  0  0  0  0  0
   47.0540   34.0350   39.9250 C   0  0  0  0  0  0  0  0  0  0  0  0
   46.1510   34.4470   41.0700 C   0  0  1  0  0  0  0  0  0  0  0  0
   44.4710   35.9430   44.8350 C   0  0  0  0  0  0  0  0  0  0  0  0
   45.1870   35.8800   43.6220 C   0  0  0  0  0  0  0  0  0  0  0  0
   46.0850   34.8150   43.4690 C   0  0  0  0  0  0  0  0  0  0  0  0
   46.1920   33.9240   44.5100 N   0  0  0  0  0  0  0  0  0  0  0  0
   45.4880   34.0240   45.6510 C   0  0  0  0  0  0  0  0  0  0  0  0
   44.6240   35.0440   45.8050 N   0  0  0  0  0  0  0  0  0  0  0  0
   45.2150   33.4270   41.2170 O   0  0  0  0  0  0  0  0  0  0  0  0
   43.9450   33.7040   40.8170 C   0  0  0  0  0  0  0  0  0  0  0  0
   43.9190   35.0780   40.5150 F   0  0  0  0  0  0  0  0  0  0  0  0
   43.0390   33.5830   41.8790 F   0  0  0  0  0  0  0  0  0  0  0  0
   43.5410   33.0130   39.7280 F   0  0  0  0  0  0  0  0  0  0  0  0
   48.6571   35.1642   43.2866 H   0  0  0  0  0  0  0  0  0  0  0  0
   48.7660   33.6524   42.4062 H   0  0  0  0  0  0  0  0  0  0  0  0
   48.2178   36.4195   41.1079 H   0  0  0  0  0  0  0  0  0  0  0  0
   49.8294   35.6237   41.1441 H   0  0  0  0  0  0  0  0  0  0  0  0
   49.1465   33.8937   39.7506 H   0  0  0  0  0  0  0  0  0  0  0  0
   48.3629   35.4059   39.0640 H   0  0  0  0  0  0  0  0  0  0  0  0
   46.5378   34.2774   38.9844 H   0  0  0  0  0  0  0  0  0  0  0  0
   47.2451   32.9611   40.0676 H   0  0  0  0  0  0  0  0  0  0  0  0
   45.6794   35.4141   40.8413 H   0  0  0  0  0  0  0  0  0  0  0  0
   43.7582   36.7671   44.9858 H   0  0  0  0  0  0  0  0  0  0  0  0
   45.0471   36.6324   42.8319 H   0  0  0  0  0  0  0  0  0  0  0  0
   45.6170   33.2796   46.4505 H   0  0  0  0  0  0  0  0  0  0  0  0
  1  2  1  0
  1  9  1  0
  3  2  1  0
  4  5  1  0
  4  3  1  0
  5  6  1  0
  6 13  1  0
  6  1  1  0
  7 12  2  0
  8  7  1  0
  9  8  2  0
  9 10  1  0
 10 11  2  0
 11 12  1  0
 14 13  1  0
 14 16  1  0
 15 14  1  0
 17 14  1  0
  2 18  1  0
  2 19  1  0
  3 20  1  0
  3 21  1  0
  4 22  1  0
  4 23  1  0
  5 24  1  0
  5 25  1  0
  6 26  1  6
  7 27  1  0
  8 28  1  0
 11 29  1  0
M  ISO  8  18  13  19  13  20  13  21  13  22  13  23  13  24  13  25  13
M  ISO  4  26  13  27  14  28  14  29  14
M  END
>  <minimizedAffinity>  (1) 
-5.11275816

>  <minimizedRMSD>  (1) 
0.278421134

$$$$
