
     RDKit          3D

 37 39  0  0  0  0  0  0  0  0999 V2000
   45.2470   34.3980   40.9850 C   0  0  0  0  0  0  0  0  0  0  0  0
   45.4490   35.0140   42.2100 C   0  0  0  0  0  0  0  0  0  0  0  0
   46.7480   35.2780   42.6210 C   0  0  0  0  0  0  0  0  0  0  0  0
   47.8060   34.9280   41.8130 C   0  0  0  0  0  0  0  0  0  0  0  0
   47.6280   34.3180   40.5970 C   0  0  0  0  0  0  0  0  0  0  0  0
   46.3080   34.0650   40.2070 C   0  0  0  0  0  0  0  0  0  0  0  0
   41.6200   34.7490   40.0410 C   0  0  0  0  0  0  0  0  0  0  0  0
   42.9230   35.1220   40.3920 C   0  0  0  0  0  0  0  0  0  0  0  0
   43.8650   34.1550   40.6150 C   0  0  0  0  0  0  0  0  0  0  0  0
   43.4580   32.8590   40.4750 N   0  0  0  0  0  0  0  0  0  0  0  0
   42.2000   32.5000   40.1360 C   0  0  0  0  0  0  0  0  0  0  0  0
   41.2750   33.4560   39.9170 N   0  0  0  0  0  0  0  0  0  0  0  0
   40.5910   35.7880   39.7970 C   0  0  0  0  0  0  0  0  0  0  0  0
   39.3700   35.1330   39.5630 F   0  0  0  0  0  0  0  0  0  0  0  0
   40.9080   36.3940   38.5860 F   0  0  0  0  0  0  0  0  0  0  0  0
   40.4620   36.6710   40.8360 F   0  0  0  0  0  0  0  0  0  0  0  0
   46.2700   32.2180   38.3630 C   0  0  0  0  0  0  0  0  0  0  0  0
   46.8890   31.2760   38.8790 O   0  0  0  0  0  0  0  0  0  0  0  0
   45.9830   33.4500   38.9800 N   0  0  0  0  0  0  0  0  0  0  0  0
   48.3920   33.0710   36.2490 Br  0  0  0  0  0  0  0  0  0  0  0  0
   46.6890   32.3140   35.9520 C   0  0  0  0  0  0  0  0  0  0  0  0
   45.8230   31.9710   36.9950 C   0  0  0  0  0  0  0  0  0  0  0  0
   44.5670   31.4160   36.8120 C   0  0  0  0  0  0  0  0  0  0  0  0
   44.1580   31.1910   35.4970 C   0  0  0  0  0  0  0  0  0  0  0  0
   44.9630   31.5050   34.4400 C   0  0  0  0  0  0  0  0  0  0  0  0
   46.2230   32.0650   34.6670 C   0  0  0  0  0  0  0  0  0  0  0  0
   44.5944   35.2889   42.8456 H   0  0  0  0  0  0  0  0  0  0  0  0
   46.9316   35.7656   43.5898 H   0  0  0  0  0  0  0  0  0  0  0  0
   48.8291   35.1448   42.1539 H   0  0  0  0  0  0  0  0  0  0  0  0
   48.4810   34.0414   39.9599 H   0  0  0  0  0  0  0  0  0  0  0  0
   43.1877   36.1854   40.4879 H   0  0  0  0  0  0  0  0  0  0  0  0
   41.9332   31.4372   40.0396 H   0  0  0  0  0  0  0  0  0  0  0  0
   45.3893   34.0505   38.3902 H   0  0  0  0  0  0  0  0  0  0  0  0
   43.9206   31.1638   37.6656 H   0  0  0  0  0  0  0  0  0  0  0  0
   43.1673   30.7519   35.3083 H   0  0  0  0  0  0  0  0  0  0  0  0
   44.6204   31.3175   33.4117 H   0  0  0  0  0  0  0  0  0  0  0  0
   46.8617   32.3149   33.8070 H   0  0  0  0  0  0  0  0  0  0  0  0
  1  2  2  0
  2  3  1  0
  4  3  2  0
  5  4  1  0
  6  5  2  0
  6  1  1  0
  7  8  2  0
  8  9  1  0
  9  1  1  0
 10  9  2  0
 11 10  1  0
 12  7  1  0
 12 11  2  0
 13  7  1  0
 13 16  1  0
 14 13  1  0
 15 13  1  0
 17 18  2  0
 17 19  1  0
 19  6  1  0
 21 20  1  0
 21 22  2  0
 22 17  1  0
 23 22  1  0
 24 23  2  0
 25 26  2  0
 25 24  1  0
 26 21  1  0
  2 27  1  0
  3 28  1  0
  4 29  1  0
  5 30  1  0
  8 31  1  0
 11 32  1  0
 19 33  1  0
 23 34  1  0
 24 35  1  0
 25 36  1  0
 26 37  1  0
M  ISO  8  27  14  28  14  29  14  30  14  31  14  32  14  34  14  35  14
M  ISO  2  36  14  37  14
M  END
>  <minimizedAffinity>  (1) 
-6.26080084

>  <minimizedRMSD>  (1) 
0.838468552

$$$$
