
     RDKit          3D

 34 36  0  0  0  0  0  0  0  0999 V2000
   45.1150   34.4090   41.1680 C   0  0  0  0  0  0  0  0  0  0  0  0
   45.5450   34.9880   42.3640 C   0  0  0  0  0  0  0  0  0  0  0  0
   46.9020   35.2030   42.5520 C   0  0  0  0  0  0  0  0  0  0  0  0
   47.7980   34.8420   41.5620 C   0  0  0  0  0  0  0  0  0  0  0  0
   47.3960   34.2740   40.3860 C   0  0  0  0  0  0  0  0  0  0  0  0
   46.0220   34.0680   40.2200 C   0  0  0  0  0  0  0  0  0  0  0  0
   41.4230   34.8440   40.5730 C   0  0  0  0  0  0  0  0  0  0  0  0
   42.7940   35.1730   40.6550 C   0  0  0  0  0  0  0  0  0  0  0  0
   43.6920   34.2150   41.0410 C   0  0  0  0  0  0  0  0  0  0  0  0
   43.1840   32.9690   41.3310 N   0  0  0  0  0  0  0  0  0  0  0  0
   41.8730   32.6630   41.2500 C   0  0  0  0  0  0  0  0  0  0  0  0
   40.9820   33.6020   40.8700 N   0  0  0  0  0  0  0  0  0  0  0  0
   40.4460   35.8780   40.1540 C   0  0  0  0  0  0  0  0  0  0  0  0
   39.2180   35.2240   39.9690 F   0  0  0  0  0  0  0  0  0  0  0  0
   40.8340   36.3050   38.8980 F   0  0  0  0  0  0  0  0  0  0  0  0
   40.3120   36.8970   41.0650 F   0  0  0  0  0  0  0  0  0  0  0  0
   45.5610   32.2420   38.3980 C   0  0  0  0  0  0  0  0  0  0  0  0
   46.2360   31.2930   38.7760 O   0  0  0  0  0  0  0  0  0  0  0  0
   45.4700   33.4930   39.0470 N   0  0  0  0  0  0  0  0  0  0  0  0
   44.7790   32.0380   37.1490 C   0  0  0  0  0  0  0  0  0  0  0  0
   43.3240   31.5640   37.3820 C   0  0  0  0  0  0  0  0  0  0  0  0
   44.4190   30.6670   36.7740 C   0  0  0  0  0  0  0  0  0  0  0  0
   44.8204   35.2684   43.1427 H   0  0  0  0  0  0  0  0  0  0  0  0
   47.2646   35.6590   43.4851 H   0  0  0  0  0  0  0  0  0  0  0  0
   48.8712   35.0182   41.7271 H   0  0  0  0  0  0  0  0  0  0  0  0
   48.1188   33.9919   39.6063 H   0  0  0  0  0  0  0  0  0  0  0  0
   43.1368   36.1894   40.4110 H   0  0  0  0  0  0  0  0  0  0  0  0
   41.5299   31.6468   41.4940 H   0  0  0  0  0  0  0  0  0  0  0  0
   44.8520   34.1474   38.5463 H   0  0  0  0  0  0  0  0  0  0  0  0
   45.2691   32.8580   36.6036 H   0  0  0  0  0  0  0  0  0  0  0  0
   42.9525   31.3799   38.4009 H   0  0  0  0  0  0  0  0  0  0  0  0
   42.3191   31.9034   37.0904 H   0  0  0  0  0  0  0  0  0  0  0  0
   44.3672   30.3889   35.7110 H   0  0  0  0  0  0  0  0  0  0  0  0
   44.8214   29.6738   37.0222 H   0  0  0  0  0  0  0  0  0  0  0  0
  1  2  2  0
  2  3  1  0
  4  3  2  0
  5  4  1  0
  6  5  2  0
  6  1  1  0
  7  8  2  0
  7 12  1  0
  8  9  1  0
  9  1  1  0
  9 10  2  0
 11 10  1  0
 12 11  2  0
 13  7  1  0
 13 16  1  0
 14 13  1  0
 15 13  1  0
 17 18  2  0
 17 19  1  0
 19  6  1  0
 20 21  1  0
 20 17  1  0
 22 20  1  0
 22 21  1  0
  2 23  1  0
  3 24  1  0
  4 25  1  0
  5 26  1  0
  8 27  1  0
 11 28  1  0
 19 29  1  0
 20 30  1  0
 21 31  1  0
 21 32  1  0
 22 33  1  0
 22 34  1  0
M  ISO  8  23  14  24  14  25  14  26  14  27  14  28  14  30  13  31  13
M  ISO  3  32  13  33  13  34  13
M  END
>  <minimizedAffinity>  (1) 
-5.60253334

>  <minimizedRMSD>  (1) 
0.491606206

$$$$
