
     RDKit          3D

 22 22  0  0  0  0  0  0  0  0999 V2000
   47.8000   34.7630   42.4520 C   0  0  0  0  0  0  0  0  0  0  0  0
   48.0930   33.5610   43.1200 C   0  0  0  0  0  0  0  0  0  0  0  0
   47.1950   33.1130   44.1060 C   0  0  0  0  0  0  0  0  0  0  0  0
   46.0840   33.8840   44.3540 N   0  0  0  0  0  0  0  0  0  0  0  0
   45.8390   35.0190   43.7000 C   0  0  0  0  0  0  0  0  0  0  0  0
   46.6890   35.4650   42.7500 N   0  0  0  0  0  0  0  0  0  0  0  0
   48.7700   35.2040   41.4160 C   0  0  0  0  0  0  0  0  0  0  0  0
   48.2470   35.1290   40.1490 F   0  0  0  0  0  0  0  0  0  0  0  0
   49.1750   36.5130   41.7170 F   0  0  0  0  0  0  0  0  0  0  0  0
   49.9380   34.4380   41.5160 F   0  0  0  0  0  0  0  0  0  0  0  0
   44.6270   35.8240   43.9970 C   0  0  0  0  0  0  0  0  0  0  0  0
   43.6270   35.5940   43.0760 F   0  0  0  0  0  0  0  0  0  0  0  0
   44.9310   37.1870   44.0390 F   0  0  0  0  0  0  0  0  0  0  0  0
   44.1220   35.5320   45.2540 F   0  0  0  0  0  0  0  0  0  0  0  0
   47.3800   31.9550   44.8200 O   0  0  0  0  0  0  0  0  0  0  0  0
   47.5540   30.6700   47.1670 O   0  0  0  0  0  0  0  0  0  0  0  0
   46.8770   31.8220   46.4500 P   0  0  0  0  0  0  0  0  0  0  0  0
   47.2080   33.2970   47.2150 O   0  0  0  0  0  0  0  0  0  0  0  0
   45.1930   31.5920   46.4950 O   0  0  0  0  0  0  0  0  0  0  0  0
   48.9995   32.9866   42.8783 H   0  0  0  0  0  0  0  0  0  0  0  0
   47.1802   33.1731   48.1968 H   0  0  0  0  0  0  0  0  0  0  0  0
   44.8906   31.5507   47.4368 H   0  0  0  0  0  0  0  0  0  0  0  0
  1  6  2  0
  1  2  1  0
  2  3  2  0
  3  4  1  0
  3 15  1  0
  5 11  1  0
  5  4  2  0
  6  5  1  0
  7 10  1  0
  7  9  1  0
  7  1  1  0
  8  7  1  0
 11 13  1  0
 11 14  1  0
 12 11  1  0
 15 17  1  0
 17 19  1  0
 17 16  2  0
 17 18  1  0
  2 20  1  0
 18 21  1  0
 19 22  1  0
M  ISO  3  20  14  21   3  22   3
M  END
>  <minimizedAffinity>  (1) 
-6.11766577

>  <minimizedRMSD>  (1) 
1.44976854

$$$$
