
     RDKit          3D

 31 32  0  0  0  0  0  0  0  0999 V2000
   47.9620   34.4480   42.6040 C   0  0  0  0  0  0  0  0  0  0  0  0
   47.9680   33.4320   43.5710 C   0  0  0  0  0  0  0  0  0  0  0  0
   46.8200   33.3390   44.4080 C   0  0  0  0  0  0  0  0  0  0  0  0
   45.8070   34.2300   44.2160 N   0  0  0  0  0  0  0  0  0  0  0  0
   45.8490   35.1880   43.2750 C   0  0  0  0  0  0  0  0  0  0  0  0
   46.9230   35.2840   42.4830 N   0  0  0  0  0  0  0  0  0  0  0  0
   46.7070   32.3650   45.4110 N   0  0  0  0  0  0  0  0  0  0  0  0
   46.8010   32.7240   46.8120 C   0  0  0  0  0  0  0  0  0  0  0  0
   45.6880   32.0380   47.5460 C   0  0  0  0  0  0  0  0  0  0  0  0
   45.6800   30.5520   47.3790 C   0  0  0  0  0  0  0  0  0  0  0  0
   46.5600   30.0650   46.2440 C   0  0  0  0  0  0  0  0  0  0  0  0
   46.4930   30.9800   45.0440 C   0  0  0  0  0  0  0  0  0  0  0  0
   49.1720   34.5310   41.7360 C   0  0  0  0  0  0  0  0  0  0  0  0
   49.3470   33.4150   40.9730 F   0  0  0  0  0  0  0  0  0  0  0  0
   49.0600   35.6790   40.9320 F   0  0  0  0  0  0  0  0  0  0  0  0
   50.2980   34.7670   42.5420 F   0  0  0  0  0  0  0  0  0  0  0  0
   44.7280   36.1420   43.0930 C   0  0  0  0  0  0  0  0  0  0  0  0
   44.1110   35.9540   41.8740 F   0  0  0  0  0  0  0  0  0  0  0  0
   45.1610   37.4540   43.2510 F   0  0  0  0  0  0  0  0  0  0  0  0
   43.7550   35.9580   44.0700 F   0  0  0  0  0  0  0  0  0  0  0  0
   48.8175   32.7413   43.6774 H   0  0  0  0  0  0  0  0  0  0  0  0
   47.7706   32.3975   47.2160 H   0  0  0  0  0  0  0  0  0  0  0  0
   46.7202   33.8145   46.9315 H   0  0  0  0  0  0  0  0  0  0  0  0
   45.7871   32.2659   48.6176 H   0  0  0  0  0  0  0  0  0  0  0  0
   44.7453   32.4130   47.1209 H   0  0  0  0  0  0  0  0  0  0  0  0
   46.0341   30.0948   48.3147 H   0  0  0  0  0  0  0  0  0  0  0  0
   44.6478   30.2598   47.1358 H   0  0  0  0  0  0  0  0  0  0  0  0
   47.6008   30.0174   46.5968 H   0  0  0  0  0  0  0  0  0  0  0  0
   46.1989   29.0728   45.9355 H   0  0  0  0  0  0  0  0  0  0  0  0
   45.5011   30.8843   44.5782 H   0  0  0  0  0  0  0  0  0  0  0  0
   47.2886   30.6849   44.3441 H   0  0  0  0  0  0  0  0  0  0  0  0
  1  2  2  0
  2  3  1  0
  3  7  1  0
  4  3  2  0
  5  4  1  0
  6  1  1  0
  6  5  2  0
  7  8  1  0
  8  9  1  0
 10  9  1  0
 11 10  1  0
 12  7  1  0
 12 11  1  0
 13 16  1  0
 13  1  1  0
 14 13  1  0
 15 13  1  0
 17 19  1  0
 17  5  1  0
 17 20  1  0
 18 17  1  0
  2 21  1  0
  8 22  1  0
  8 23  1  0
  9 24  1  0
  9 25  1  0
 10 26  1  0
 10 27  1  0
 11 28  1  0
 11 29  1  0
 12 30  1  0
 12 31  1  0
M  ISO  8  21  14  22  13  23  13  24  13  25  13  26  13  27  13  28  13
M  ISO  3  29  13  30  13  31  13
M  END
>  <minimizedAffinity>  (1) 
-5.90873289

>  <minimizedRMSD>  (1) 
1.26303244

$$$$
