
     RDKit          3D

 22 22  0  0  0  0  0  0  0  0999 V2000
   47.8250   34.7840   42.4150 C   0  0  0  0  0  0  0  0  0  0  0  0
   48.0750   33.5650   43.0730 C   0  0  0  0  0  0  0  0  0  0  0  0
   47.1060   33.1320   44.0080 C   0  0  0  0  0  0  0  0  0  0  0  0
   46.0110   33.9050   44.2090 N   0  0  0  0  0  0  0  0  0  0  0  0
   45.8100   35.0600   43.5620 C   0  0  0  0  0  0  0  0  0  0  0  0
   46.7210   35.4890   42.6680 N   0  0  0  0  0  0  0  0  0  0  0  0
   48.8580   35.2300   41.4330 C   0  0  0  0  0  0  0  0  0  0  0  0
   48.4130   35.1320   40.1390 F   0  0  0  0  0  0  0  0  0  0  0  0
   49.2290   36.5400   41.7440 F   0  0  0  0  0  0  0  0  0  0  0  0
   50.0230   34.4640   41.6180 F   0  0  0  0  0  0  0  0  0  0  0  0
   44.5990   35.8900   43.8020 C   0  0  0  0  0  0  0  0  0  0  0  0
   43.6120   35.6080   42.9020 F   0  0  0  0  0  0  0  0  0  0  0  0
   44.9230   37.2500   43.7830 F   0  0  0  0  0  0  0  0  0  0  0  0
   44.0920   35.6740   45.0650 F   0  0  0  0  0  0  0  0  0  0  0  0
   47.3160   31.8580   44.7300 C   0  0  0  0  0  0  0  0  0  0  0  0
   46.9300   31.9320   46.1920 C   0  0  0  0  0  0  0  0  0  0  0  0
   48.9818   32.9765   42.8695 H   0  0  0  0  0  0  0  0  0  0  0  0
   46.7092   31.0780   44.2470 H   0  0  0  0  0  0  0  0  0  0  0  0
   48.3913   31.6302   44.6863 H   0  0  0  0  0  0  0  0  0  0  0  0
   47.8201   31.7614   46.8153 H   0  0  0  0  0  0  0  0  0  0  0  0
   46.5138   32.9263   46.4115 H   0  0  0  0  0  0  0  0  0  0  0  0
   46.1756   31.1621   46.4115 H   0  0  0  0  0  0  0  0  0  0  0  0
  1  6  2  0
  1  2  1  0
  2  3  2  0
  3  4  1  0
  3 15  1  0
  5 11  1  0
  5  4  2  0
  6  5  1  0
  7 10  1  0
  7  9  1  0
  7  1  1  0
  8  7  1  0
 11 14  1  0
 12 11  1  0
 13 11  1  0
 15 16  1  0
  2 17  1  0
 15 18  1  0
 15 19  1  0
 16 20  1  0
 16 21  1  0
 16 22  1  0
M  ISO  6  17  14  18   8  19   8  20   8  21   8  22   8
M  END
>  <minimizedAffinity>  (1) 
-5.14454031

>  <minimizedRMSD>  (1) 
0.240298614

$$$$
