
     RDKit          3D

 42 44  0  0  1  0  0  0  0  0999 V2000
   46.1960   31.4820   42.5650 C   0  0  2  0  0  0  0  0  0  0  0  0
   46.8310   30.1920   43.0810 C   0  0  0  0  0  0  0  0  0  0  0  0
   46.6990   29.2290   41.8950 C   0  0  0  0  0  0  0  0  0  0  0  0
   47.7460   29.7420   40.9230 C   0  0  0  0  0  0  0  0  0  0  0  0
   47.4090   31.0940   40.4410 C   0  0  0  0  0  0  0  0  0  0  0  0
   46.9140   32.1020   41.4370 C   0  0  2  0  0  0  0  0  0  0  0  0
   46.5020   34.7470   40.6880 F   0  0  0  0  0  0  0  0  0  0  0  0
   47.6820   34.5030   41.3410 C   0  0  0  0  0  0  0  0  0  0  0  0
   47.8760   33.1690   41.7280 C   0  0  0  0  0  0  0  0  0  0  0  0
   49.0750   32.9440   42.3850 C   0  0  0  0  0  0  0  0  0  0  0  0
   50.0230   33.9380   42.6540 C   0  0  0  0  0  0  0  0  0  0  0  0
   49.7660   35.2280   42.2430 C   0  0  0  0  0  0  0  0  0  0  0  0
   48.5900   35.5040   41.5870 C   0  0  0  0  0  0  0  0  0  0  0  0
   46.0520   32.8530   46.0690 C   0  0  0  0  0  0  0  0  0  0  0  0
   46.3090   31.9270   45.0370 C   0  0  0  0  0  0  0  0  0  0  0  0
   45.9840   32.3450   43.7160 C   0  0  0  0  0  0  0  0  0  0  0  0
   45.4590   33.5860   43.5370 N   0  0  0  0  0  0  0  0  0  0  0  0
   45.2370   34.4220   44.5480 C   0  0  0  0  0  0  0  0  0  0  0  0
   45.5320   34.0570   45.8130 N   0  0  0  0  0  0  0  0  0  0  0  0
   46.3960   32.4060   47.4550 C   0  0  0  0  0  0  0  0  0  0  0  0
   47.6500   32.8400   47.8250 F   0  0  0  0  0  0  0  0  0  0  0  0
   45.4000   32.8690   48.3220 F   0  0  0  0  0  0  0  0  0  0  0  0
   46.3250   31.0190   47.5290 F   0  0  0  0  0  0  0  0  0  0  0  0
   44.6580   35.7710   44.3020 C   0  0  0  0  0  0  0  0  0  0  0  0
   45.3900   36.4710   43.3900 F   0  0  0  0  0  0  0  0  0  0  0  0
   44.5620   36.4840   45.5190 F   0  0  0  0  0  0  0  0  0  0  0  0
   43.3640   35.6850   43.8590 F   0  0  0  0  0  0  0  0  0  0  0  0
   45.2243   31.2642   42.0978 H   0  0  0  0  0  0  0  0  0  0  0  0
   47.8875   30.3511   43.3426 H   0  0  0  0  0  0  0  0  0  0  0  0
   46.3507   29.8139   43.9955 H   0  0  0  0  0  0  0  0  0  0  0  0
   46.9150   28.1943   42.1995 H   0  0  0  0  0  0  0  0  0  0  0  0
   45.6857   29.2026   41.4677 H   0  0  0  0  0  0  0  0  0  0  0  0
   48.7214   29.7748   41.4306 H   0  0  0  0  0  0  0  0  0  0  0  0
   47.7813   29.0627   40.0585 H   0  0  0  0  0  0  0  0  0  0  0  0
   48.3164   31.5107   39.9795 H   0  0  0  0  0  0  0  0  0  0  0  0
   46.5543   30.9365   39.7667 H   0  0  0  0  0  0  0  0  0  0  0  0
   46.1150   32.6854   40.9561 H   0  0  0  0  0  0  0  0  0  0  0  0
   49.2960   31.9186   42.7164 H   0  0  0  0  0  0  0  0  0  0  0  0
   50.9557   33.6940   43.1836 H   0  0  0  0  0  0  0  0  0  0  0  0
   50.4946   36.0287   42.4379 H   0  0  0  0  0  0  0  0  0  0  0  0
   48.3750   36.5312   41.2575 H   0  0  0  0  0  0  0  0  0  0  0  0
   46.7376   30.9349   45.2420 H   0  0  0  0  0  0  0  0  0  0  0  0
  1  2  1  0
  1 16  1  0
  3  2  1  0
  4  3  1  0
  5  4  1  0
  5  6  1  0
  6  9  1  0
  6  1  1  0
  7  8  1  0
  8 13  2  0
  8  9  1  0
  9 10  2  0
 10 11  1  0
 12 11  2  0
 13 12  1  0
 14 20  1  0
 15 14  2  0
 16 15  1  0
 17 16  2  0
 17 18  1  0
 18 19  2  0
 19 14  1  0
 20 23  1  0
 20 21  1  0
 20 22  1  0
 24 18  1  0
 24 26  1  0
 25 24  1  0
 27 24  1  0
  1 28  1  6
  2 29  1  0
  2 30  1  0
  3 31  1  0
  3 32  1  0
  4 33  1  0
  4 34  1  0
  5 35  1  0
  5 36  1  0
  6 37  1  6
 10 38  1  0
 11 39  1  0
 12 40  1  0
 13 41  1  0
 15 42  1  0
M  ISO  8  28  13  29  13  30  13  31  13  32  13  33  13  34  13  35  13
M  ISO  7  36  13  37  13  38  14  39  14  40  14  41  14  42  14
M  END
>  <minimizedAffinity>  (1) 
-6.60174084

>  <minimizedRMSD>  (1) 
5.39240742

$$$$
