
     RDKit          3D

 35 36  0  0  1  0  0  0  0  0999 V2000
   46.9200   32.2560   45.2610 C   0  0  2  0  0  0  0  0  0  0  0  0
   45.9160   31.2100   44.7390 C   0  0  0  0  0  0  0  0  0  0  0  0
   46.1820   29.9850   45.6360 C   0  0  0  0  0  0  0  0  0  0  0  0
   45.5760   30.3900   46.9730 C   0  0  0  0  0  0  0  0  0  0  0  0
   46.3130   31.5500   47.5460 C   0  0  0  0  0  0  0  0  0  0  0  0
   46.5640   32.7010   46.6300 C   0  0  2  0  0  0  0  0  0  0  0  0
   47.9960   34.5550   42.4750 C   0  0  0  0  0  0  0  0  0  0  0  0
   48.0670   33.4890   43.4050 C   0  0  0  0  0  0  0  0  0  0  0  0
   46.9590   33.3160   44.2610 C   0  0  0  0  0  0  0  0  0  0  0  0
   45.9120   34.1790   44.1310 N   0  0  0  0  0  0  0  0  0  0  0  0
   45.8840   35.1710   43.2440 C   0  0  0  0  0  0  0  0  0  0  0  0
   46.9360   35.3580   42.4100 N   0  0  0  0  0  0  0  0  0  0  0  0
   49.1820   34.7150   41.5800 C   0  0  0  0  0  0  0  0  0  0  0  0
   49.3380   33.6240   40.7470 F   0  0  0  0  0  0  0  0  0  0  0  0
   49.0110   35.8930   40.8420 F   0  0  0  0  0  0  0  0  0  0  0  0
   50.3290   34.9080   42.3440 F   0  0  0  0  0  0  0  0  0  0  0  0
   44.7140   36.0900   43.1460 C   0  0  0  0  0  0  0  0  0  0  0  0
   44.0540   35.9450   41.9650 F   0  0  0  0  0  0  0  0  0  0  0  0
   45.1420   37.4240   43.3260 F   0  0  0  0  0  0  0  0  0  0  0  0
   43.8360   35.8920   44.1910 F   0  0  0  0  0  0  0  0  0  0  0  0
   45.4170   33.6800   46.6700 C   0  0  0  0  0  0  0  0  0  0  0  0
   47.9343   31.8473   45.3801 H   0  0  0  0  0  0  0  0  0  0  0  0
   44.8813   31.5653   44.8538 H   0  0  0  0  0  0  0  0  0  0  0  0
   46.0378   30.9935   43.6674 H   0  0  0  0  0  0  0  0  0  0  0  0
   45.6872   29.0882   45.2348 H   0  0  0  0  0  0  0  0  0  0  0  0
   47.2492   29.7283   45.7078 H   0  0  0  0  0  0  0  0  0  0  0  0
   44.5221   30.6677   46.8242 H   0  0  0  0  0  0  0  0  0  0  0  0
   45.6482   29.5416   47.6695 H   0  0  0  0  0  0  0  0  0  0  0  0
   45.7319   31.9249   48.4015 H   0  0  0  0  0  0  0  0  0  0  0  0
   47.3095   31.1618   47.8035 H   0  0  0  0  0  0  0  0  0  0  0  0
   47.4489   33.2439   46.9936 H   0  0  0  0  0  0  0  0  0  0  0  0
   48.9443   32.8275   43.4573 H   0  0  0  0  0  0  0  0  0  0  0  0
   45.1591   33.9001   47.7164 H   0  0  0  0  0  0  0  0  0  0  0  0
   45.7108   34.6100   46.1614 H   0  0  0  0  0  0  0  0  0  0  0  0
   44.5447   33.2437   46.1614 H   0  0  0  0  0  0  0  0  0  0  0  0
  1  6  1  0
  2  1  1  0
  2  3  1  0
  3  4  1  0
  4  5  1  0
  6 21  1  0
  6  5  1  0
  7  8  2  0
  8  9  1  0
  9  1  1  0
 10  9  2  0
 11 10  1  0
 12  7  1  0
 12 11  2  0
 13 16  1  0
 13  7  1  0
 14 13  1  0
 15 13  1  0
 17 11  1  0
 17 19  1  0
 17 20  1  0
 18 17  1  0
  1 22  1  1
  2 23  1  0
  2 24  1  0
  3 25  1  0
  3 26  1  0
  4 27  1  0
  4 28  1  0
  5 29  1  0
  5 30  1  0
  6 31  1  1
  8 32  1  0
 21 33  1  0
 21 34  1  0
 21 35  1  0
M  ISO  8  22  13  23  13  24  13  25  13  26  13  27  13  28  13  29  13
M  ISO  6  30  13  31  13  32  14  33   8  34   8  35   8
M  END
>  <minimizedAffinity>  (1) 
-6.13734007

>  <minimizedRMSD>  (1) 
0.157630637

$$$$
