
     RDKit          3D

 45 47  0  0  1  0  0  0  0  0999 V2000
   46.5340   31.2160   44.2840 C   0  0  2  0  0  0  0  0  0  0  0  0
   45.9760   30.3990   43.1030 C   0  0  0  0  0  0  0  0  0  0  0  0
   46.1810   28.9340   43.5370 C   0  0  0  0  0  0  0  0  0  0  0  0
   45.1160   28.7330   44.5820 C   0  0  0  0  0  0  0  0  0  0  0  0
   45.3730   29.6130   45.7660 C   0  0  0  0  0  0  0  0  0  0  0  0
   45.6560   31.0360   45.4550 C   0  0  1  0  0  0  0  0  0  0  0  0
   47.8750   34.3480   42.7050 C   0  0  0  0  0  0  0  0  0  0  0  0
   47.8390   33.0020   43.1230 C   0  0  0  0  0  0  0  0  0  0  0  0
   46.6820   32.5720   43.7950 C   0  0  0  0  0  0  0  0  0  0  0  0
   45.6740   33.4810   43.9990 N   0  0  0  0  0  0  0  0  0  0  0  0
   45.7510   34.7450   43.5860 C   0  0  0  0  0  0  0  0  0  0  0  0
   46.8590   35.1790   42.9360 N   0  0  0  0  0  0  0  0  0  0  0  0
   49.1150   34.7840   41.9970 C   0  0  0  0  0  0  0  0  0  0  0  0
   49.7360   33.7490   41.3660 F   0  0  0  0  0  0  0  0  0  0  0  0
   48.7800   35.8210   41.1220 F   0  0  0  0  0  0  0  0  0  0  0  0
   49.9850   35.3880   42.9290 F   0  0  0  0  0  0  0  0  0  0  0  0
   44.6330   35.6980   43.8300 C   0  0  0  0  0  0  0  0  0  0  0  0
   43.5890   35.4680   42.9740 F   0  0  0  0  0  0  0  0  0  0  0  0
   45.1090   37.0230   43.7080 F   0  0  0  0  0  0  0  0  0  0  0  0
   44.1840   35.6210   45.1220 F   0  0  0  0  0  0  0  0  0  0  0  0
   46.0420   31.6970   46.7110 C   0  0  0  0  0  0  0  0  0  0  0  0
   45.2110   31.5030   47.9190 C   0  0  0  0  0  0  0  0  0  0  0  0
   46.0370   32.2810   48.9570 C   0  0  0  0  0  0  0  0  0  0  0  0
   47.4680   32.0250   48.5350 C   0  0  0  0  0  0  0  0  0  0  0  0
   47.4100   31.2770   47.2140 C   0  0  0  0  0  0  0  0  0  0  0  0
   47.5214   30.8889   44.6417 H   0  0  0  0  0  0  0  0  0  0  0  0
   46.5330   30.6153   42.1794 H   0  0  0  0  0  0  0  0  0  0  0  0
   44.9239   30.6336   42.8840 H   0  0  0  0  0  0  0  0  0  0  0  0
   46.0368   28.2476   42.6896 H   0  0  0  0  0  0  0  0  0  0  0  0
   47.1958   28.7326   43.9107 H   0  0  0  0  0  0  0  0  0  0  0  0
   44.1347   28.9818   44.1518 H   0  0  0  0  0  0  0  0  0  0  0  0
   45.1305   27.6827   44.9085 H   0  0  0  0  0  0  0  0  0  0  0  0
   44.4845   29.5779   46.4135 H   0  0  0  0  0  0  0  0  0  0  0  0
   46.2841   29.2209   46.2415 H   0  0  0  0  0  0  0  0  0  0  0  0
   44.7580   31.5577   45.0924 H   0  0  0  0  0  0  0  0  0  0  0  0
   48.6794   32.3186   42.9316 H   0  0  0  0  0  0  0  0  0  0  0  0
   45.9482   32.7336   46.3550 H   0  0  0  0  0  0  0  0  0  0  0  0
   44.2066   31.9337   47.7941 H   0  0  0  0  0  0  0  0  0  0  0  0
   45.0210   30.4514   48.1800 H   0  0  0  0  0  0  0  0  0  0  0  0
   45.8027   33.3551   48.9207 H   0  0  0  0  0  0  0  0  0  0  0  0
   45.8325   31.9652   49.9907 H   0  0  0  0  0  0  0  0  0  0  0  0
   48.0012   32.9786   48.4069 H   0  0  0  0  0  0  0  0  0  0  0  0
   48.0049   31.4399   49.2962 H   0  0  0  0  0  0  0  0  0  0  0  0
   47.4706   30.1887   47.3618 H   0  0  0  0  0  0  0  0  0  0  0  0
   48.2379   31.5024   46.5257 H   0  0  0  0  0  0  0  0  0  0  0  0
  1  6  1  0
  2  3  1  0
  2  1  1  0
  3  4  1  0
  4  5  1  0
  6  5  1  0
  6 21  1  0
  7 12  2  0
  7  8  1  0
  8  9  2  0
  9 10  1  0
  9  1  1  0
 11 17  1  0
 11 10  2  0
 12 11  1  0
 13  7  1  0
 13 16  1  0
 14 13  1  0
 15 13  1  0
 17 20  1  0
 18 17  1  0
 19 17  1  0
 21 25  1  0
 21 22  1  0
 22 23  1  0
 24 23  1  0
 25 24  1  0
  1 26  1  1
  2 27  1  0
  2 28  1  0
  3 29  1  0
  3 30  1  0
  4 31  1  0
  4 32  1  0
  5 33  1  0
  5 34  1  0
  6 35  1  6
  8 36  1  0
 21 37  1  0
 22 38  1  0
 22 39  1  0
 23 40  1  0
 23 41  1  0
 24 42  1  0
 24 43  1  0
 25 44  1  0
 25 45  1  0
M  ISO  8  26  13  27  13  28  13  29  13  30  13  31  13  32  13  33  13
M  ISO  8  34  13  35  13  36  14  37  13  38  13  39  13  40  13  41  13
M  ISO  4  42  13  43  13  44  13  45  13
M  END
>  <minimizedAffinity>  (1) 
-6.1938529

>  <minimizedRMSD>  (1) 
1.98660326

$$$$
