
     RDKit          3D

 47 49  0  0  1  0  0  0  0  0999 V2000
   46.3440   31.0580   43.8740 C   0  0  2  0  0  0  0  0  0  0  0  0
   44.9440   30.7120   43.4000 C   0  0  0  0  0  0  0  0  0  0  0  0
   44.8730   29.1960   43.4600 C   0  0  0  0  0  0  0  0  0  0  0  0
   44.8380   28.8970   44.9540 C   0  0  0  0  0  0  0  0  0  0  0  0
   46.1160   29.3060   45.5830 C   0  0  0  0  0  0  0  0  0  0  0  0
   46.6580   30.6640   45.2560 C   0  0  2  0  0  0  0  0  0  0  0  0
   47.8770   34.2880   42.6840 C   0  0  0  0  0  0  0  0  0  0  0  0
   47.7780   32.9100   42.9410 C   0  0  0  0  0  0  0  0  0  0  0  0
   46.5850   32.4630   43.5460 C   0  0  0  0  0  0  0  0  0  0  0  0
   45.6320   33.3760   43.8340 N   0  0  0  0  0  0  0  0  0  0  0  0
   45.7570   34.6740   43.5780 C   0  0  0  0  0  0  0  0  0  0  0  0
   46.8880   35.1280   43.0000 N   0  0  0  0  0  0  0  0  0  0  0  0
   49.1440   34.7510   42.0420 C   0  0  0  0  0  0  0  0  0  0  0  0
   49.8250   33.7100   41.4580 F   0  0  0  0  0  0  0  0  0  0  0  0
   48.8250   35.7560   41.1220 F   0  0  0  0  0  0  0  0  0  0  0  0
   49.9460   35.3710   42.9900 F   0  0  0  0  0  0  0  0  0  0  0  0
   44.6710   35.6370   43.9190 C   0  0  0  0  0  0  0  0  0  0  0  0
   45.1020   36.9380   43.7480 F   0  0  0  0  0  0  0  0  0  0  0  0
   44.2240   35.4210   45.2270 F   0  0  0  0  0  0  0  0  0  0  0  0
   43.5770   35.4560   43.1180 F   0  0  0  0  0  0  0  0  0  0  0  0
   46.4720   31.6140   46.3200 N   0  0  0  0  0  0  0  0  0  0  0  0
   47.4870   31.4360   47.3470 C   0  0  0  0  0  0  0  0  0  0  0  0
   47.0720   31.0690   48.7060 C   0  0  0  0  0  0  0  0  0  0  0  0
   46.0650   32.0270   49.2680 C   0  0  0  0  0  0  0  0  0  0  0  0
   45.2830   32.5660   48.1010 C   0  0  0  0  0  0  0  0  0  0  0  0
   45.1960   31.5290   46.9770 C   0  0  0  0  0  0  0  0  0  0  0  0
   47.0727   30.4355   43.3341 H   0  0  0  0  0  0  0  0  0  0  0  0
   44.7856   31.0662   42.3707 H   0  0  0  0  0  0  0  0  0  0  0  0
   44.1687   31.1871   44.0190 H   0  0  0  0  0  0  0  0  0  0  0  0
   43.9637   28.8256   42.9641 H   0  0  0  0  0  0  0  0  0  0  0  0
   45.7147   28.7083   42.9464 H   0  0  0  0  0  0  0  0  0  0  0  0
   44.0096   29.4529   45.4174 H   0  0  0  0  0  0  0  0  0  0  0  0
   44.6919   27.8169   45.1027 H   0  0  0  0  0  0  0  0  0  0  0  0
   45.9721   29.2650   46.6728 H   0  0  0  0  0  0  0  0  0  0  0  0
   46.8600   28.6072   45.1730 H   0  0  0  0  0  0  0  0  0  0  0  0
   47.7571   30.6298   45.2273 H   0  0  0  0  0  0  0  0  0  0  0  0
   48.5904   32.2147   42.6832 H   0  0  0  0  0  0  0  0  0  0  0  0
   48.1667   30.6465   46.9940 H   0  0  0  0  0  0  0  0  0  0  0  0
   47.9179   32.4410   47.4668 H   0  0  0  0  0  0  0  0  0  0  0  0
   46.6285   30.0626   48.6815 H   0  0  0  0  0  0  0  0  0  0  0  0
   47.9627   31.0980   49.3508 H   0  0  0  0  0  0  0  0  0  0  0  0
   45.3935   31.5052   49.9657 H   0  0  0  0  0  0  0  0  0  0  0  0
   46.5579   32.8389   49.8229 H   0  0  0  0  0  0  0  0  0  0  0  0
   44.2666   32.8211   48.4353 H   0  0  0  0  0  0  0  0  0  0  0  0
   45.7960   33.4598   47.7163 H   0  0  0  0  0  0  0  0  0  0  0  0
   44.3812   31.7759   46.2805 H   0  0  0  0  0  0  0  0  0  0  0  0
   44.9816   30.5175   47.3523 H   0  0  0  0  0  0  0  0  0  0  0  0
  1  6  1  0
  2  3  1  0
  2  1  1  0
  3  4  1  0
  4  5  1  0
  6  5  1  0
  6 21  1  0
  7  8  2  0
  7 12  1  0
  8  9  1  0
  9 10  2  0
  9  1  1  0
 11 10  1  0
 11 17  1  0
 12 11  2  0
 13  7  1  0
 13 16  1  0
 14 13  1  0
 15 13  1  0
 17 19  1  0
 18 17  1  0
 20 17  1  0
 21 26  1  0
 21 22  1  0
 22 23  1  0
 23 24  1  0
 25 24  1  0
 26 25  1  0
  1 27  1  6
  2 28  1  0
  2 29  1  0
  3 30  1  0
  3 31  1  0
  4 32  1  0
  4 33  1  0
  5 34  1  0
  5 35  1  0
  6 36  1  6
  8 37  1  0
 22 38  1  0
 22 39  1  0
 23 40  1  0
 23 41  1  0
 24 42  1  0
 24 43  1  0
 25 44  1  0
 25 45  1  0
 26 46  1  0
 26 47  1  0
M  ISO  8  27  13  28  13  29  13  30  13  31  13  32  13  33  13  34  13
M  ISO  8  35  13  36  13  37  14  38  13  39  13  40  13  41  13  42  13
M  ISO  5  43  13  44  13  45  13  46  13  47  13
M  END
>  <minimizedAffinity>  (1) 
-5.95062876

>  <minimizedRMSD>  (1) 
2.31873131

$$$$
