
     RDKit          3D

 37 40  0  0  1  0  0  0  0  0999 V2000
   45.2300   34.6570   41.5670 C   0  0  0  0  0  0  0  0  0  0  0  0
   45.5230   33.8560   40.4810 C   0  0  0  0  0  0  0  0  0  0  0  0
   44.5370   33.4620   39.6220 C   0  0  0  0  0  0  0  0  0  0  0  0
   43.2210   33.8330   39.7870 C   0  0  0  0  0  0  0  0  0  0  0  0
   42.8880   34.6290   40.8550 C   0  0  0  0  0  0  0  0  0  0  0  0
   43.8800   35.0110   41.6980 C   0  0  0  0  0  0  0  0  0  0  0  0
   41.1940   35.1270   41.0970 S   0  0  0  0  0  0  0  0  0  0  0  0
   40.2880   34.3860   39.7550 C   0  0  0  0  0  0  0  0  0  0  0  0
   38.9580   34.6350   39.7380 C   0  0  0  0  0  0  0  0  0  0  0  0
   38.1540   34.1140   38.7460 C   0  0  0  0  0  0  0  0  0  0  0  0
   38.7480   33.3330   37.7750 C   0  0  0  0  0  0  0  0  0  0  0  0
   40.1040   33.1220   37.8540 C   0  0  0  0  0  0  0  0  0  0  0  0
   40.9420   33.6230   38.8260 C   0  0  0  0  0  0  0  0  0  0  0  0
   42.3260   33.3420   38.8120 N   0  0  0  0  0  0  0  0  0  0  0  0
   46.1720   35.1750   42.5960 C   0  0  1  0  0  0  0  0  0  0  0  0
   45.2300   34.8230   44.8260 C   0  0  0  0  0  0  0  0  0  0  0  0
   46.1540   34.4620   43.8520 C   0  0  0  0  0  0  0  0  0  0  0  0
   47.0150   33.3990   44.1850 C   0  0  0  0  0  0  0  0  0  0  0  0
   46.8870   32.8130   45.4020 N   0  0  0  0  0  0  0  0  0  0  0  0
   45.9790   33.2030   46.2980 C   0  0  0  0  0  0  0  0  0  0  0  0
   45.1450   34.2110   46.0140 N   0  0  0  0  0  0  0  0  0  0  0  0
   47.5900   35.1390   42.0590 C   0  0  0  0  0  0  0  0  0  0  0  0
   46.5597   33.5324   40.3062 H   0  0  0  0  0  0  0  0  0  0  0  0
   44.8040   32.8244   38.7663 H   0  0  0  0  0  0  0  0  0  0  0  0
   43.6033   35.6483   42.5509 H   0  0  0  0  0  0  0  0  0  0  0  0
   38.5126   35.2608   40.5253 H   0  0  0  0  0  0  0  0  0  0  0  0
   37.0726   34.3146   38.7290 H   0  0  0  0  0  0  0  0  0  0  0  0
   38.1533   32.8922   36.9614 H   0  0  0  0  0  0  0  0  0  0  0  0
   40.5605   32.4978   37.0718 H   0  0  0  0  0  0  0  0  0  0  0  0
   42.6996   32.7515   38.0553 H   0  0  0  0  0  0  0  0  0  0  0  0
   45.8294   36.1993   42.8043 H   0  0  0  0  0  0  0  0  0  0  0  0
   44.5367   35.6495   44.6108 H   0  0  0  0  0  0  0  0  0  0  0  0
   47.7768   33.0503   43.4722 H   0  0  0  0  0  0  0  0  0  0  0  0
   45.9154   32.6955   47.2719 H   0  0  0  0  0  0  0  0  0  0  0  0
   48.2999   35.1210   42.8991 H   0  0  0  0  0  0  0  0  0  0  0  0
   47.7265   34.2371   41.4442 H   0  0  0  0  0  0  0  0  0  0  0  0
   47.7721   36.0328   41.4442 H   0  0  0  0  0  0  0  0  0  0  0  0
  1  6  1  0
  1 15  1  0
  2  1  2  0
  3  4  2  0
  3  2  1  0
  4  5  1  0
  5  7  1  0
  5  6  2  0
  8  7  1  0
  9  8  2  0
 10  9  1  0
 11 12  1  0
 11 10  2  0
 12 13  2  0
 13  8  1  0
 14 13  1  0
 14  4  1  0
 15 17  1  0
 16 21  2  0
 17 18  2  0
 17 16  1  0
 18 19  1  0
 19 20  2  0
 21 20  1  0
 22 15  1  0
  2 23  1  0
  3 24  1  0
  6 25  1  0
  9 26  1  0
 10 27  1  0
 11 28  1  0
 12 29  1  0
 14 30  1  0
 15 31  1  1
 16 32  1  0
 18 33  1  0
 20 34  1  0
 22 35  1  0
 22 36  1  0
 22 37  1  0
M  ISO  8  23  14  24  14  25  14  26  14  27  14  28  14  29  14  31   8
M  ISO  6  32  14  33  14  34  14  35   8  36   8  37   8
M  END
>  <minimizedAffinity>  (1) 
-6.61731052

>  <minimizedRMSD>  (1) 
2.3842504

$$$$
