
     RDKit          3D

 41 43  0  0  1  0  0  0  0  0999 V2000
   48.0650   33.2950   42.3930 C   0  0  2  0  0  0  0  0  0  0  0  0
   48.7310   34.4010   43.2240 C   0  0  0  0  0  0  0  0  0  0  0  0
   49.8010   34.9720   42.3050 C   0  0  0  0  0  0  0  0  0  0  0  0
   49.0080   35.7340   41.2530 C   0  0  0  0  0  0  0  0  0  0  0  0
   48.1880   34.8040   40.4500 C   0  0  0  0  0  0  0  0  0  0  0  0
   47.3540   33.8080   41.2090 C   0  0  2  0  0  0  0  0  0  0  0  0
   45.9830   34.3280   41.3950 C   0  0  0  0  0  0  0  0  0  0  0  0
   44.9170   33.9150   40.5870 C   0  0  0  0  0  0  0  0  0  0  0  0
   43.6790   34.4990   40.7860 C   0  0  0  0  0  0  0  0  0  0  0  0
   43.4030   35.4600   41.7200 C   0  0  0  0  0  0  0  0  0  0  0  0
   44.5020   35.8210   42.4870 C   0  0  0  0  0  0  0  0  0  0  0  0
   45.7480   35.2840   42.3410 N   0  0  0  0  0  0  0  0  0  0  0  0
   46.2130   32.0730   45.4350 C   0  0  0  0  0  0  0  0  0  0  0  0
   46.9980   32.9330   44.6400 C   0  0  0  0  0  0  0  0  0  0  0  0
   47.2600   32.5020   43.3160 C   0  0  0  0  0  0  0  0  0  0  0  0
   46.7500   31.3100   42.9010 N   0  0  0  0  0  0  0  0  0  0  0  0
   46.0130   30.5330   43.6920 C   0  0  0  0  0  0  0  0  0  0  0  0
   45.7440   30.9140   44.9620 N   0  0  0  0  0  0  0  0  0  0  0  0
   45.9370   32.5300   46.8300 C   0  0  0  0  0  0  0  0  0  0  0  0
   47.1050   32.8200   47.5060 F   0  0  0  0  0  0  0  0  0  0  0  0
   45.0770   33.6240   46.7740 F   0  0  0  0  0  0  0  0  0  0  0  0
   45.2310   31.5470   47.5140 F   0  0  0  0  0  0  0  0  0  0  0  0
   45.4770   29.2370   43.2020 C   0  0  0  0  0  0  0  0  0  0  0  0
   45.6790   29.0880   41.8590 F   0  0  0  0  0  0  0  0  0  0  0  0
   44.1080   29.1210   43.5300 F   0  0  0  0  0  0  0  0  0  0  0  0
   46.0620   28.1820   43.8500 F   0  0  0  0  0  0  0  0  0  0  0  0
   48.8162   32.6383   41.9300 H   0  0  0  0  0  0  0  0  0  0  0  0
   47.9998   35.1756   43.4985 H   0  0  0  0  0  0  0  0  0  0  0  0
   49.1481   34.0223   44.1688 H   0  0  0  0  0  0  0  0  0  0  0  0
   50.4710   35.6481   42.8564 H   0  0  0  0  0  0  0  0  0  0  0  0
   50.4469   34.1949   41.8703 H   0  0  0  0  0  0  0  0  0  0  0  0
   48.3488   36.4598   41.7517 H   0  0  0  0  0  0  0  0  0  0  0  0
   49.7104   36.2558   40.5864 H   0  0  0  0  0  0  0  0  0  0  0  0
   48.8690   34.2389   39.7966 H   0  0  0  0  0  0  0  0  0  0  0  0
   47.4647   35.4413   39.9202 H   0  0  0  0  0  0  0  0  0  0  0  0
   47.2031   32.8897   40.6226 H   0  0  0  0  0  0  0  0  0  0  0  0
   45.0602   33.1459   39.8138 H   0  0  0  0  0  0  0  0  0  0  0  0
   42.8515   34.1646   40.1430 H   0  0  0  0  0  0  0  0  0  0  0  0
   42.4052   35.9042   41.8506 H   0  0  0  0  0  0  0  0  0  0  0  0
   44.3596   36.5887   43.2618 H   0  0  0  0  0  0  0  0  0  0  0  0
   47.3860   33.8869   45.0267 H   0  0  0  0  0  0  0  0  0  0  0  0
  1  2  1  0
  1 15  1  0
  3  2  1  0
  4  3  1  0
  5  6  1  0
  5  4  1  0
  6  7  1  0
  6  1  1  0
  7 12  2  0
  8  9  2  0
  8  7  1  0
  9 10  1  0
 10 11  2  0
 12 11  1  0
 13 19  1  0
 14 13  2  0
 15 14  1  0
 16 15  2  0
 16 17  1  0
 17 18  2  0
 18 13  1  0
 19 20  1  0
 19 22  1  0
 21 19  1  0
 23 25  1  0
 23 17  1  0
 23 26  1  0
 24 23  1  0
  1 27  1  6
  2 28  1  0
  2 29  1  0
  3 30  1  0
  3 31  1  0
  4 32  1  0
  4 33  1  0
  5 34  1  0
  5 35  1  0
  6 36  1  6
  8 37  1  0
  9 38  1  0
 10 39  1  0
 11 40  1  0
 14 41  1  0
M  ISO  8  27  13  28  13  29  13  30  13  31  13  32  13  33  13  34  13
M  ISO  7  35  13  36  13  37  14  38  14  39  14  40  14  41  14
M  END
>  <minimizedAffinity>  (1) 
-5.91531944

>  <minimizedRMSD>  (1) 
6.16794443

$$$$
