
     RDKit          3D

 42 44  0  0  1  0  0  0  0  0999 V2000
   47.2460   33.3180   44.6250 C   0  0  2  0  0  0  0  0  0  0  0  0
   47.2060   32.0300   45.4440 C   0  0  0  0  0  0  0  0  0  0  0  0
   46.9280   32.4990   46.8700 C   0  0  0  0  0  0  0  0  0  0  0  0
   45.4790   32.9400   46.8310 C   0  0  0  0  0  0  0  0  0  0  0  0
   45.2810   34.0750   45.9220 C   0  0  0  0  0  0  0  0  0  0  0  0
   45.9690   34.0520   44.5890 C   0  0  2  0  0  0  0  0  0  0  0  0
   45.1200   36.4460   43.0590 Cl  0  0  0  0  0  0  0  0  0  0  0  0
   44.5440   34.8220   42.6490 C   0  0  0  0  0  0  0  0  0  0  0  0
   45.0560   33.8040   43.4630 C   0  0  0  0  0  0  0  0  0  0  0  0
   44.5810   32.5410   43.1110 C   0  0  0  0  0  0  0  0  0  0  0  0
   43.6880   32.3620   42.0470 C   0  0  0  0  0  0  0  0  0  0  0  0
   43.2470   33.4510   41.3090 C   0  0  0  0  0  0  0  0  0  0  0  0
   43.6790   34.7020   41.6100 C   0  0  0  0  0  0  0  0  0  0  0  0
   48.2850   33.3920   41.0060 C   0  0  0  0  0  0  0  0  0  0  0  0
   47.6860   33.8310   42.2040 C   0  0  0  0  0  0  0  0  0  0  0  0
   47.8210   32.9860   43.3270 C   0  0  0  0  0  0  0  0  0  0  0  0
   48.5080   31.8220   43.1870 N   0  0  0  0  0  0  0  0  0  0  0  0
   49.0590   31.4500   42.0280 C   0  0  0  0  0  0  0  0  0  0  0  0
   48.9490   32.2340   40.9360 N   0  0  0  0  0  0  0  0  0  0  0  0
   48.1390   34.2910   39.8240 C   0  0  0  0  0  0  0  0  0  0  0  0
   48.6400   35.5520   40.0840 F   0  0  0  0  0  0  0  0  0  0  0  0
   48.7740   33.6960   38.7350 F   0  0  0  0  0  0  0  0  0  0  0  0
   46.7980   34.3840   39.4670 F   0  0  0  0  0  0  0  0  0  0  0  0
   49.8010   30.1630   41.9250 C   0  0  0  0  0  0  0  0  0  0  0  0
   51.1520   30.3650   41.9230 F   0  0  0  0  0  0  0  0  0  0  0  0
   49.3940   29.4670   40.7640 F   0  0  0  0  0  0  0  0  0  0  0  0
   49.4880   29.3190   42.9570 F   0  0  0  0  0  0  0  0  0  0  0  0
   47.8922   34.0609   45.1154 H   0  0  0  0  0  0  0  0  0  0  0  0
   46.4037   31.3668   45.0884 H   0  0  0  0  0  0  0  0  0  0  0  0
   48.1390   31.4526   45.3656 H   0  0  0  0  0  0  0  0  0  0  0  0
   47.0679   31.6766   47.5870 H   0  0  0  0  0  0  0  0  0  0  0  0
   47.6076   33.3012   47.1935 H   0  0  0  0  0  0  0  0  0  0  0  0
   44.8592   32.0978   46.4898 H   0  0  0  0  0  0  0  0  0  0  0  0
   45.1900   33.2575   47.8438 H   0  0  0  0  0  0  0  0  0  0  0  0
   44.2008   34.1519   45.7288 H   0  0  0  0  0  0  0  0  0  0  0  0
   45.7403   34.9250   46.4479 H   0  0  0  0  0  0  0  0  0  0  0  0
   46.3027   35.0743   44.3578 H   0  0  0  0  0  0  0  0  0  0  0  0
   44.9161   31.6634   43.6833 H   0  0  0  0  0  0  0  0  0  0  0  0
   43.3340   31.3515   41.7948 H   0  0  0  0  0  0  0  0  0  0  0  0
   42.5442   33.2999   40.4764 H   0  0  0  0  0  0  0  0  0  0  0  0
   43.3431   35.5792   41.0376 H   0  0  0  0  0  0  0  0  0  0  0  0
   47.1405   34.7845   42.2612 H   0  0  0  0  0  0  0  0  0  0  0  0
  1  2  1  0
  2  3  1  0
  4  3  1  0
  5  4  1  0
  6  1  1  0
  6  5  1  0
  8  7  1  0
  8  9  2  0
  9  6  1  0
 10  9  1  0
 11 10  2  0
 12 13  2  0
 12 11  1  0
 13  8  1  0
 14 15  2  0
 15 16  1  0
 16  1  1  0
 17 16  2  0
 18 17  1  0
 19 14  1  0
 19 18  2  0
 20 21  1  0
 20 14  1  0
 22 20  1  0
 23 20  1  0
 24 18  1  0
 24 27  1  0
 25 24  1  0
 26 24  1  0
  1 28  1  1
  2 29  1  0
  2 30  1  0
  3 31  1  0
  3 32  1  0
  4 33  1  0
  4 34  1  0
  5 35  1  0
  5 36  1  0
  6 37  1  6
 10 38  1  0
 11 39  1  0
 12 40  1  0
 13 41  1  0
 15 42  1  0
M  ISO  8  28  13  29  13  30  13  31  13  32  13  33  13  34  13  35  13
M  ISO  7  36  13  37  13  38  14  39  14  40  14  41  14  42  14
M  END
>  <minimizedAffinity>  (1) 
-5.55675507

>  <minimizedRMSD>  (1) 
4.94155121

$$$$
