
     RDKit          3D

 26 27  0  0  1  0  0  0  0  0999 V2000
   48.0190   35.0300   41.7770 C   0  0  2  0  0  0  0  0  0  0  0  0
   45.9070   35.5150   42.9160 C   0  0  0  0  0  0  0  0  0  0  0  0
   47.0760   34.7680   42.8420 C   0  0  0  0  0  0  0  0  0  0  0  0
   47.2280   33.8020   43.8370 C   0  0  0  0  0  0  0  0  0  0  0  0
   46.2650   33.6580   44.7760 N   0  0  0  0  0  0  0  0  0  0  0  0
   45.1590   34.4030   44.8030 C   0  0  0  0  0  0  0  0  0  0  0  0
   44.9830   35.3390   43.8620 N   0  0  0  0  0  0  0  0  0  0  0  0
   48.9890   35.7140   39.1690 F   0  0  0  0  0  0  0  0  0  0  0  0
   48.1880   34.6420   39.3610 C   0  0  0  0  0  0  0  0  0  0  0  0
   47.6690   34.2320   40.5750 C   0  0  0  0  0  0  0  0  0  0  0  0
   46.8680   33.1080   40.5680 C   0  0  0  0  0  0  0  0  0  0  0  0
   46.5860   32.4110   39.4010 C   0  0  0  0  0  0  0  0  0  0  0  0
   47.1090   32.8360   38.2230 C   0  0  0  0  0  0  0  0  0  0  0  0
   47.9060   33.9470   38.1950 C   0  0  0  0  0  0  0  0  0  0  0  0
   49.3960   34.6340   42.2630 C   0  0  0  0  0  0  0  0  0  0  0  0
   47.9946   36.0962   41.5074 H   0  0  0  0  0  0  0  0  0  0  0  0
   45.7345   36.2911   42.1558 H   0  0  0  0  0  0  0  0  0  0  0  0
   48.1231   33.1630   43.8578 H   0  0  0  0  0  0  0  0  0  0  0  0
   44.4025   34.2506   45.5869 H   0  0  0  0  0  0  0  0  0  0  0  0
   46.4396   32.7533   41.5170 H   0  0  0  0  0  0  0  0  0  0  0  0
   45.9424   31.5194   39.4309 H   0  0  0  0  0  0  0  0  0  0  0  0
   46.8926   32.2886   37.2937 H   0  0  0  0  0  0  0  0  0  0  0  0
   48.3269   34.2922   37.2391 H   0  0  0  0  0  0  0  0  0  0  0  0
   49.4095   34.6301   43.3629 H   0  0  0  0  0  0  0  0  0  0  0  0
   49.6416   33.6288   41.8897 H   0  0  0  0  0  0  0  0  0  0  0  0
   50.1380   35.3552   41.8897 H   0  0  0  0  0  0  0  0  0  0  0  0
  1 15  1  0
  1  3  1  0
  2  7  2  0
  3  2  1  0
  3  4  2  0
  4  5  1  0
  5  6  2  0
  7  6  1  0
  8  9  1  0
  9 10  2  0
 10  1  1  0
 11 10  1  0
 12 11  2  0
 13 12  1  0
 14 13  2  0
 14  9  1  0
  1 16  1  6
  2 17  1  0
  4 18  1  0
  6 19  1  0
 11 20  1  0
 12 21  1  0
 13 22  1  0
 14 23  1  0
 15 24  1  0
 15 25  1  0
 15 26  1  0
M  ISO  8  16   8  17  14  18  14  19  14  20  14  21  14  22  14  23  14
M  ISO  3  24   8  25   8  26   8
M  END
>  <minimizedAffinity>  (1) 
-4.52053356

>  <minimizedRMSD>  (1) 
1.56275392

$$$$
