
     RDKit          3D

 26 27  0  0  1  0  0  0  0  0999 V2000
   47.8270   35.1980   41.7240 C   0  0  2  0  0  0  0  0  0  0  0  0
   45.7770   35.5600   43.0580 C   0  0  0  0  0  0  0  0  0  0  0  0
   46.9560   34.8460   42.8430 C   0  0  0  0  0  0  0  0  0  0  0  0
   47.2620   33.7870   43.7380 C   0  0  0  0  0  0  0  0  0  0  0  0
   46.3800   33.5420   44.7480 N   0  0  0  0  0  0  0  0  0  0  0  0
   45.2640   34.2600   44.9060 C   0  0  0  0  0  0  0  0  0  0  0  0
   44.9690   35.2590   44.0660 N   0  0  0  0  0  0  0  0  0  0  0  0
   47.5100   34.5090   40.4510 C   0  0  0  0  0  0  0  0  0  0  0  0
   48.3540   34.6740   39.3810 C   0  0  0  0  0  0  0  0  0  0  0  0
   48.1220   34.0610   38.1620 C   0  0  0  0  0  0  0  0  0  0  0  0
   47.0020   33.2550   38.0130 C   0  0  0  0  0  0  0  0  0  0  0  0
   46.1590   33.0890   39.0830 C   0  0  0  0  0  0  0  0  0  0  0  0
   46.3910   33.6990   40.2930 C   0  0  0  0  0  0  0  0  0  0  0  0
   49.2650   35.0110   42.1670 C   0  0  0  0  0  0  0  0  0  0  0  0
   47.6509   36.2538   41.4707 H   0  0  0  0  0  0  0  0  0  0  0  0
   45.5132   36.3858   42.3809 H   0  0  0  0  0  0  0  0  0  0  0  0
   48.1764   33.1869   43.6207 H   0  0  0  0  0  0  0  0  0  0  0  0
   44.5804   34.0272   45.7357 H   0  0  0  0  0  0  0  0  0  0  0  0
   49.2419   35.3130   39.4960 H   0  0  0  0  0  0  0  0  0  0  0  0
   48.8163   34.2107   37.3221 H   0  0  0  0  0  0  0  0  0  0  0  0
   46.7937   32.7580   37.0540 H   0  0  0  0  0  0  0  0  0  0  0  0
   45.2716   32.4491   38.9692 H   0  0  0  0  0  0  0  0  0  0  0  0
   45.6953   33.5471   41.1314 H   0  0  0  0  0  0  0  0  0  0  0  0
   49.3123   35.0049   43.2660 H   0  0  0  0  0  0  0  0  0  0  0  0
   49.6472   34.0556   41.7782 H   0  0  0  0  0  0  0  0  0  0  0  0
   49.8788   35.8369   41.7782 H   0  0  0  0  0  0  0  0  0  0  0  0
  1 14  1  0
  1  3  1  0
  2  7  2  0
  3  2  1  0
  3  4  2  0
  4  5  1  0
  5  6  2  0
  7  6  1  0
  8  1  1  0
  9  8  2  0
 10  9  1  0
 11 10  2  0
 11 12  1  0
 12 13  2  0
 13  8  1  0
  1 15  1  6
  2 16  1  0
  4 17  1  0
  6 18  1  0
  9 19  1  0
 10 20  1  0
 11 21  1  0
 12 22  1  0
 13 23  1  0
 14 24  1  0
 14 25  1  0
 14 26  1  0
M  ISO  8  15   8  16  14  17  14  18  14  19  14  20  14  21  14  22  14
M  ISO  4  23  14  24   8  25   8  26   8
M  END
>  <minimizedAffinity>  (1) 
-4.61109304

>  <minimizedRMSD>  (1) 
1.65276337

$$$$
