
     RDKit          3D

 38 40  0  0  1  0  0  0  0  0999 V2000
   46.1180   32.5160   40.0750 C   0  0  1  0  0  0  0  0  0  0  0  0
   44.9930   33.3900   39.8100 N   0  0  0  0  0  0  0  0  0  0  0  0
   44.0000   32.8480   38.9740 C   0  0  0  0  0  0  0  0  0  0  0  0
   43.1480   34.0570   38.5240 C   0  0  0  0  0  0  0  0  0  0  0  0
   42.4120   34.4110   39.6980 N   0  0  0  0  0  0  0  0  0  0  0  0
   43.1890   34.7130   40.8400 C   0  0  0  0  0  0  0  0  0  0  0  0
   44.5240   34.0630   40.9730 C   0  0  0  0  0  0  0  0  0  0  0  0
   48.3020   31.7920   39.1440 C   0  0  0  0  0  0  0  0  0  0  0  0
   47.2140   32.6490   39.1630 C   0  0  0  0  0  0  0  0  0  0  0  0
   47.2620   33.6850   38.2230 C   0  0  0  0  0  0  0  0  0  0  0  0
   48.3290   33.7970   37.3710 N   0  0  0  0  0  0  0  0  0  0  0  0
   49.3540   32.9220   37.4110 C   0  0  0  0  0  0  0  0  0  0  0  0
   49.3470   31.9080   38.3040 N   0  0  0  0  0  0  0  0  0  0  0  0
   46.6050   32.7580   41.5060 C   0  0  0  0  0  0  0  0  0  0  0  0
   47.6270   33.8050   41.6430 C   0  0  0  0  0  0  0  0  0  0  0  0
   47.8830   35.0970   41.2900 C   0  0  0  0  0  0  0  0  0  0  0  0
   49.0190   35.8050   41.5840 C   0  0  0  0  0  0  0  0  0  0  0  0
   49.9700   35.1750   42.2810 N   0  0  0  0  0  0  0  0  0  0  0  0
   49.7820   33.9200   42.6530 C   0  0  0  0  0  0  0  0  0  0  0  0
   48.6700   33.2620   42.3510 N   0  0  0  0  0  0  0  0  0  0  0  0
   45.7488   31.4891   39.9367 H   0  0  0  0  0  0  0  0  0  0  0  0
   44.4559   32.3519   38.1045 H   0  0  0  0  0  0  0  0  0  0  0  0
   43.3959   32.0879   39.4910 H   0  0  0  0  0  0  0  0  0  0  0  0
   43.7895   34.8889   38.1979 H   0  0  0  0  0  0  0  0  0  0  0  0
   42.4976   33.8242   37.6680 H   0  0  0  0  0  0  0  0  0  0  0  0
   41.8406   35.2387   39.4759 H   0  0  0  0  0  0  0  0  0  0  0  0
   43.3534   35.8006   40.8449 H   0  0  0  0  0  0  0  0  0  0  0  0
   42.6049   34.3131   41.6819 H   0  0  0  0  0  0  0  0  0  0  0  0
   44.4641   33.3283   41.7895 H   0  0  0  0  0  0  0  0  0  0  0  0
   45.2400   34.8763   41.1624 H   0  0  0  0  0  0  0  0  0  0  0  0
   48.3126   30.9605   39.8641 H   0  0  0  0  0  0  0  0  0  0  0  0
   46.4390   34.4128   38.1681 H   0  0  0  0  0  0  0  0  0  0  0  0
   50.1982   33.0339   36.7148 H   0  0  0  0  0  0  0  0  0  0  0  0
   45.7374   33.0452   42.1182 H   0  0  0  0  0  0  0  0  0  0  0  0
   47.0780   31.8205   41.8336 H   0  0  0  0  0  0  0  0  0  0  0  0
   47.1045   35.6201   40.7152 H   0  0  0  0  0  0  0  0  0  0  0  0
   49.1432   36.8488   41.2598 H   0  0  0  0  0  0  0  0  0  0  0  0
   50.5679   33.4082   43.2278 H   0  0  0  0  0  0  0  0  0  0  0  0
  1 14  1  0
  2  1  1  0
  2  7  1  0
  3  2  1  0
  4  3  1  0
  4  5  1  0
  5  6  1  0
  6  7  1  0
  8  9  2  0
  9  1  1  0
 10  9  1  0
 11 12  1  0
 11 10  2  0
 12 13  2  0
 13  8  1  0
 14 15  1  0
 15 20  2  0
 16 17  2  0
 16 15  1  0
 17 18  1  0
 18 19  2  0
 20 19  1  0
  1 21  1  1
  3 22  1  0
  3 23  1  0
  4 24  1  0
  4 25  1  0
  5 26  1  0
  6 27  1  0
  6 28  1  0
  7 29  1  0
  7 30  1  0
  8 31  1  0
 10 32  1  0
 12 33  1  0
 14 34  1  0
 14 35  1  0
 16 36  1  0
 17 37  1  0
 19 38  1  0
M  ISO  8  21   8  22  13  23  13  24  13  25  13  26   5  27  13  28  13
M  ISO  8  29  13  30  13  31  14  32  14  33  14  34   8  35   8  36  14
M  ISO  2  37  14  38  14
M  END
>  <minimizedAffinity>  (1) 
-3.90284371

>  <minimizedRMSD>  (1) 
4.91489792

$$$$
