
     RDKit          3D

 41 44  0  0  1  0  0  0  0  0999 V2000
   46.5280   33.0750   38.6280 N   0  0  0  0  0  0  0  0  0  0  0  0
   45.1940   33.1060   38.0170 C   0  0  0  0  0  0  0  0  0  0  0  0
   44.7670   31.7450   37.5470 C   0  0  0  0  0  0  0  0  0  0  0  0
   45.6250   31.2480   36.4940 N   0  0  0  0  0  0  0  0  0  0  0  0
   46.8610   31.9860   36.5340 C   0  0  0  0  0  0  0  0  0  0  0  0
   47.3840   32.1440   37.9420 C   0  0  2  0  0  0  0  0  0  0  0  0
   44.6570   33.1290   41.1340 Br  0  0  0  0  0  0  0  0  0  0  0  0
   46.3300   33.9970   40.9140 C   0  0  0  0  0  0  0  0  0  0  0  0
   46.8480   34.7550   41.9260 C   0  0  0  0  0  0  0  0  0  0  0  0
   48.0820   35.4160   41.7700 C   0  0  0  0  0  0  0  0  0  0  0  0
   48.7480   35.2770   40.5790 C   0  0  0  0  0  0  0  0  0  0  0  0
   48.1770   34.5030   39.6010 C   0  0  0  0  0  0  0  0  0  0  0  0
   46.9780   33.8490   39.7280 C   0  0  0  0  0  0  0  0  0  0  0  0
   45.6300   34.0180   45.2980 C   0  0  0  0  0  0  0  0  0  0  0  0
   44.7210   35.0620   45.5560 C   0  0  0  0  0  0  0  0  0  0  0  0
   44.5480   36.0130   44.5380 C   0  0  0  0  0  0  0  0  0  0  0  0
   45.2400   35.8950   43.3820 N   0  0  0  0  0  0  0  0  0  0  0  0
   46.1110   34.8690   43.1730 C   0  0  0  0  0  0  0  0  0  0  0  0
   46.2870   33.9420   44.1510 N   0  0  0  0  0  0  0  0  0  0  0  0
   47.7910   30.9300   38.6000 C   0  0  0  0  0  0  0  0  0  0  0  0
   47.1780   30.5980   39.8170 C   0  0  0  0  0  0  0  0  0  0  0  0
   47.6300   29.4360   40.3140 N   0  0  0  0  0  0  0  0  0  0  0  0
   48.5410   28.9910   39.4340 C   0  0  0  0  0  0  0  0  0  0  0  0
   48.6130   29.8890   38.4430 N   0  0  0  0  0  0  0  0  0  0  0  0
   44.4696   33.4700   38.7605 H   0  0  0  0  0  0  0  0  0  0  0  0
   45.2319   33.7742   37.1440 H   0  0  0  0  0  0  0  0  0  0  0  0
   44.8043   31.0469   38.3963 H   0  0  0  0  0  0  0  0  0  0  0  0
   43.7455   31.8258   37.1469 H   0  0  0  0  0  0  0  0  0  0  0  0
   45.1687   31.3816   35.5803 H   0  0  0  0  0  0  0  0  0  0  0  0
   47.6126   31.4515   35.9345 H   0  0  0  0  0  0  0  0  0  0  0  0
   46.6684   32.9908   36.1298 H   0  0  0  0  0  0  0  0  0  0  0  0
   48.3845   32.6011   37.9396 H   0  0  0  0  0  0  0  0  0  0  0  0
   48.5008   36.0280   42.5825 H   0  0  0  0  0  0  0  0  0  0  0  0
   49.7153   35.7735   40.4124 H   0  0  0  0  0  0  0  0  0  0  0  0
   48.7181   34.3996   38.6489 H   0  0  0  0  0  0  0  0  0  0  0  0
   45.7979   33.2488   46.0662 H   0  0  0  0  0  0  0  0  0  0  0  0
   44.1737   35.1290   46.5078 H   0  0  0  0  0  0  0  0  0  0  0  0
   43.8512   36.8522   44.6802 H   0  0  0  0  0  0  0  0  0  0  0  0
   46.4142   31.2189   40.3080 H   0  0  0  0  0  0  0  0  0  0  0  0
   47.3381   28.9797   41.1901 H   0  0  0  0  0  0  0  0  0  0  0  0
   49.1216   28.0600   39.5125 H   0  0  0  0  0  0  0  0  0  0  0  0
  1 13  1  0
  2  1  1  0
  3  2  1  0
  4  5  1  0
  4  3  1  0
  5  6  1  0
  6 20  1  0
  6  1  1  0
  8  7  1  0
  8  9  2  0
  9 18  1  0
 10  9  1  0
 11 10  2  0
 12 13  2  0
 12 11  1  0
 13  8  1  0
 14 15  2  0
 16 15  1  0
 17 16  2  0
 18 17  1  0
 18 19  2  0
 19 14  1  0
 20 21  2  0
 21 22  1  0
 23 22  1  0
 24 20  1  0
 24 23  2  0
  2 25  1  0
  2 26  1  0
  3 27  1  0
  3 28  1  0
  4 29  1  0
  5 30  1  0
  5 31  1  0
  6 32  1  6
 10 33  1  0
 11 34  1  0
 12 35  1  0
 14 36  1  0
 15 37  1  0
 16 38  1  0
 21 39  1  0
 22 40  1  0
 23 41  1  0
M  ISO  8  25  13  26  13  27  13  28  13  29   5  30  13  31  13  32  13
M  ISO  8  33  14  34  14  35  14  36  14  37  14  38  14  39  14  40   9
M  ISO  1  41  14
M  END
>  <minimizedAffinity>  (1) 
-5.39198923

>  <minimizedRMSD>  (1) 
1.04002297

$$$$
