
     RDKit          3D

 48 51  0  0  1  0  0  0  0  0999 V2000
   44.0970   33.4780   40.7530 C   0  0  1  0  0  0  0  0  0  0  0  0
   43.1110   34.4530   40.3770 N   0  0  0  0  0  0  0  0  0  0  0  0
   42.3190   34.0490   39.2770 C   0  0  0  0  0  0  0  0  0  0  0  0
   41.6340   35.3340   38.7740 C   0  0  0  0  0  0  0  0  0  0  0  0
   40.6940   35.6410   39.7840 N   0  0  0  0  0  0  0  0  0  0  0  0
   41.2200   35.8310   41.0620 C   0  0  0  0  0  0  0  0  0  0  0  0
   42.3420   34.8860   41.4670 C   0  0  0  0  0  0  0  0  0  0  0  0
   45.8930   33.1840   39.0480 C   0  0  0  0  0  0  0  0  0  0  0  0
   45.4220   33.6750   40.2540 C   0  0  0  0  0  0  0  0  0  0  0  0
   46.3430   34.4200   41.0140 C   0  0  0  0  0  0  0  0  0  0  0  0
   47.6140   34.6160   40.5440 N   0  0  0  0  0  0  0  0  0  0  0  0
   48.0060   34.1020   39.3490 C   0  0  0  0  0  0  0  0  0  0  0  0
   47.1390   33.3860   38.6030 N   0  0  0  0  0  0  0  0  0  0  0  0
   44.1690   33.4110   42.2850 C   0  0  0  0  0  0  0  0  0  0  0  0
   44.5080   32.1480   42.8480 C   0  0  0  0  0  0  0  0  0  0  0  0
   44.2940   30.8370   42.5880 C   0  0  0  0  0  0  0  0  0  0  0  0
   44.7300   29.7390   43.3050 C   0  0  0  0  0  0  0  0  0  0  0  0
   45.4490   30.0160   44.3850 N   0  0  0  0  0  0  0  0  0  0  0  0
   45.7080   31.2600   44.7180 C   0  0  0  0  0  0  0  0  0  0  0  0
   45.2510   32.2520   43.9720 N   0  0  0  0  0  0  0  0  0  0  0  0
   46.4940   31.4370   45.9050 N   0  0  0  0  0  0  0  0  0  0  0  0
   47.0860   30.3490   46.4820 C   0  0  0  0  0  0  0  0  0  0  0  0
   47.8580   30.4780   47.6370 C   0  0  0  0  0  0  0  0  0  0  0  0
   47.9650   31.7710   48.1300 C   0  0  0  0  0  0  0  0  0  0  0  0
   48.6370   31.9970   49.1640 O   0  0  0  0  0  0  0  0  0  0  0  0
   47.3780   32.8220   47.5510 N   0  0  0  0  0  0  0  0  0  0  0  0
   46.6430   32.6460   46.4370 C   0  0  0  0  0  0  0  0  0  0  0  0
   46.1110   33.6910   45.9360 O   0  0  0  0  0  0  0  0  0  0  0  0
   43.7498   32.5448   40.2855 H   0  0  0  0  0  0  0  0  0  0  0  0
   42.9496   33.6144   38.4874 H   0  0  0  0  0  0  0  0  0  0  0  0
   41.5868   33.2785   39.5604 H   0  0  0  0  0  0  0  0  0  0  0  0
   42.3654   36.1478   38.6607 H   0  0  0  0  0  0  0  0  0  0  0  0
   41.1662   35.2046   37.7868 H   0  0  0  0  0  0  0  0  0  0  0  0
   40.2067   36.5062   39.5104 H   0  0  0  0  0  0  0  0  0  0  0  0
   41.6087   36.8586   41.1170 H   0  0  0  0  0  0  0  0  0  0  0  0
   40.3929   35.6258   41.7575 H   0  0  0  0  0  0  0  0  0  0  0  0
   41.8999   34.0056   41.9564 H   0  0  0  0  0  0  0  0  0  0  0  0
   43.0104   35.4382   42.1440 H   0  0  0  0  0  0  0  0  0  0  0  0
   45.2059   32.5961   38.4217 H   0  0  0  0  0  0  0  0  0  0  0  0
   46.0424   34.8439   41.9835 H   0  0  0  0  0  0  0  0  0  0  0  0
   49.0318   34.2698   38.9890 H   0  0  0  0  0  0  0  0  0  0  0  0
   44.9241   34.1389   42.6167 H   0  0  0  0  0  0  0  0  0  0  0  0
   43.1479   33.6225   42.6351 H   0  0  0  0  0  0  0  0  0  0  0  0
   43.6964   30.6174   41.6910 H   0  0  0  0  0  0  0  0  0  0  0  0
   44.4972   28.7076   43.0015 H   0  0  0  0  0  0  0  0  0  0  0  0
   46.9518   29.3558   46.0287 H   0  0  0  0  0  0  0  0  0  0  0  0
   48.3456   29.6189   48.1209 H   0  0  0  0  0  0  0  0  0  0  0  0
   47.4873   33.7631   47.9552 H   0  0  0  0  0  0  0  0  0  0  0  0
  1 14  1  0
  2  1  1  0
  2  7  1  0
  3  2  1  0
  4  3  1  0
  4  5  1  0
  5  6  1  0
  6  7  1  0
  8  9  2  0
  9  1  1  0
  9 10  1  0
 11 10  2  0
 12 11  1  0
 13  8  1  0
 13 12  2  0
 14 15  1  0
 15 20  1  0
 16 15  2  0
 16 17  1  0
 17 18  2  0
 18 19  1  0
 19 21  1  0
 20 19  2  0
 21 27  1  0
 21 22  1  0
 22 23  2  0
 23 24  1  0
 24 25  2  0
 26 24  1  0
 27 26  1  0
 28 27  2  0
  1 29  1  6
  3 30  1  0
  3 31  1  0
  4 32  1  0
  4 33  1  0
  5 34  1  0
  6 35  1  0
  6 36  1  0
  7 37  1  0
  7 38  1  0
  8 39  1  0
 10 40  1  0
 12 41  1  0
 14 42  1  0
 14 43  1  0
 16 44  1  0
 17 45  1  0
 22 46  1  0
 23 47  1  0
 26 48  1  0
M  ISO  8  29   8  30  13  31  13  32  13  33  13  34   5  35  13  36  13
M  ISO  8  37  13  38  13  39  14  40  14  41  14  42   8  43   8  44  14
M  ISO  4  45  14  46  14  47  14  48   9
M  END
>  <minimizedAffinity>  (1) 
-5.9298625

>  <minimizedRMSD>  (1) 
4.54389524

$$$$
