
     RDKit          3D

 45 48  0  0  1  0  0  0  0  0999 V2000
   47.5270   33.5670   39.9790 C   0  0  1  0  0  0  0  0  0  0  0  0
   48.5790   34.1620   40.7590 N   0  0  0  0  0  0  0  0  0  0  0  0
   48.1230   35.2030   41.6020 C   0  0  0  0  0  0  0  0  0  0  0  0
   49.3980   35.9600   42.0230 C   0  0  0  0  0  0  0  0  0  0  0  0
   50.0180   35.0520   42.9540 N   0  0  0  0  0  0  0  0  0  0  0  0
   50.3640   33.8120   42.3820 C   0  0  0  0  0  0  0  0  0  0  0  0
   49.3290   33.1990   41.4540 C   0  0  0  0  0  0  0  0  0  0  0  0
   47.7230   31.9630   38.0800 C   0  0  0  0  0  0  0  0  0  0  0  0
   47.8420   33.2290   38.6270 C   0  0  0  0  0  0  0  0  0  0  0  0
   48.3100   34.2320   37.7580 C   0  0  0  0  0  0  0  0  0  0  0  0
   48.6140   33.9210   36.4600 N   0  0  0  0  0  0  0  0  0  0  0  0
   48.4710   32.6530   35.9920 C   0  0  0  0  0  0  0  0  0  0  0  0
   48.0250   31.6780   36.8050 N   0  0  0  0  0  0  0  0  0  0  0  0
   47.0400   32.2960   40.6870 C   0  0  0  0  0  0  0  0  0  0  0  0
   45.6920   32.3100   41.1570 C   0  0  0  0  0  0  0  0  0  0  0  0
   44.9910   31.8430   42.2170 C   0  0  0  0  0  0  0  0  0  0  0  0
   43.6380   31.9730   42.4640 C   0  0  0  0  0  0  0  0  0  0  0  0
   42.9510   32.6350   41.5470 N   0  0  0  0  0  0  0  0  0  0  0  0
   43.5480   33.1240   40.4840 C   0  0  0  0  0  0  0  0  0  0  0  0
   44.8500   32.9570   40.3220 N   0  0  0  0  0  0  0  0  0  0  0  0
   42.6860   33.8400   39.5330 C   0  0  0  0  0  0  0  0  0  0  0  0
   42.3840   35.2080   39.5630 C   0  0  0  0  0  0  0  0  0  0  0  0
   41.5390   35.4490   38.4790 C   0  0  0  0  0  0  0  0  0  0  0  0
   41.3570   34.2620   37.8440 N   0  0  0  0  0  0  0  0  0  0  0  0
   42.0480   33.3310   38.4910 N   0  0  0  0  0  0  0  0  0  0  0  0
   46.7610   34.3534   39.9096 H   0  0  0  0  0  0  0  0  0  0  0  0
   47.4388   35.8703   41.0574 H   0  0  0  0  0  0  0  0  0  0  0  0
   47.5642   34.8194   42.4684 H   0  0  0  0  0  0  0  0  0  0  0  0
   50.0512   36.1471   41.1579 H   0  0  0  0  0  0  0  0  0  0  0  0
   49.1928   36.9512   42.4537 H   0  0  0  0  0  0  0  0  0  0  0  0
   50.8742   35.4932   43.3190 H   0  0  0  0  0  0  0  0  0  0  0  0
   51.2912   33.9527   41.8071 H   0  0  0  0  0  0  0  0  0  0  0  0
   50.4612   33.1116   43.2246 H   0  0  0  0  0  0  0  0  0  0  0  0
   48.6413   32.5838   42.0528 H   0  0  0  0  0  0  0  0  0  0  0  0
   49.8697   32.5996   40.7068 H   0  0  0  0  0  0  0  0  0  0  0  0
   47.3619   31.1483   38.7249 H   0  0  0  0  0  0  0  0  0  0  0  0
   48.4312   35.2633   38.1208 H   0  0  0  0  0  0  0  0  0  0  0  0
   48.7206   32.4232   34.9456 H   0  0  0  0  0  0  0  0  0  0  0  0
   47.1395   31.4595   39.9797 H   0  0  0  0  0  0  0  0  0  0  0  0
   47.6637   32.2056   41.5886 H   0  0  0  0  0  0  0  0  0  0  0  0
   45.5694   31.2929   42.9739 H   0  0  0  0  0  0  0  0  0  0  0  0
   43.1632   31.5539   43.3634 H   0  0  0  0  0  0  0  0  0  0  0  0
   42.7422   35.9459   40.2960 H   0  0  0  0  0  0  0  0  0  0  0  0
   41.1027   36.4173   38.1927 H   0  0  0  0  0  0  0  0  0  0  0  0
   40.7810   34.1101   37.0037 H   0  0  0  0  0  0  0  0  0  0  0  0
  1 14  1  0
  1  2  1  0
  2  7  1  0
  2  3  1  0
  3  4  1  0
  4  5  1  0
  6  5  1  0
  7  6  1  0
  8  9  2  0
  9  1  1  0
 10  9  1  0
 11 10  2  0
 12 11  1  0
 12 13  2  0
 13  8  1  0
 14 15  1  0
 15 16  2  0
 16 17  1  0
 18 17  2  0
 19 18  1  0
 20 19  2  0
 20 15  1  0
 21 22  1  0
 21 19  1  0
 23 22  2  0
 24 23  1  0
 24 25  1  0
 25 21  2  0
  1 26  1  6
  3 27  1  0
  3 28  1  0
  4 29  1  0
  4 30  1  0
  5 31  1  0
  6 32  1  0
  6 33  1  0
  7 34  1  0
  7 35  1  0
  8 36  1  0
 10 37  1  0
 12 38  1  0
 14 39  1  0
 14 40  1  0
 16 41  1  0
 17 42  1  0
 22 43  1  0
 23 44  1  0
 24 45  1  0
M  ISO  8  26   8  27  13  28  13  29  13  30  13  31   5  32  13  33  13
M  ISO  8  34  13  35  13  36  14  37  14  38  14  39   8  40   8  41  14
M  ISO  4  42  14  43  14  44  14  45   9
M  END
>  <minimizedAffinity>  (1) 
-5.41418219

>  <minimizedRMSD>  (1) 
6.65379715

$$$$
