
     RDKit          3D

 51 54  0  0  1  0  0  0  0  0999 V2000
   42.0030   31.6760   39.6940 C   0  0  1  0  0  0  0  0  0  0  0  0
   40.6590   32.1830   39.7710 N   0  0  0  0  0  0  0  0  0  0  0  0
   39.8860   31.5670   40.7840 C   0  0  0  0  0  0  0  0  0  0  0  0
   38.4270   31.9280   40.4550 C   0  0  0  0  0  0  0  0  0  0  0  0
   38.3490   33.3240   40.7960 N   0  0  0  0  0  0  0  0  0  0  0  0
   39.2250   34.1330   40.0490 C   0  0  0  0  0  0  0  0  0  0  0  0
   40.6290   33.5830   39.8480 C   0  0  0  0  0  0  0  0  0  0  0  0
   43.7420   31.8660   37.9220 C   0  0  0  0  0  0  0  0  0  0  0  0
   42.5190   31.4240   38.3830 C   0  0  0  0  0  0  0  0  0  0  0  0
   41.7530   30.6700   37.4720 C   0  0  0  0  0  0  0  0  0  0  0  0
   42.2440   30.4240   36.2180 N   0  0  0  0  0  0  0  0  0  0  0  0
   43.4480   30.8860   35.8290 C   0  0  0  0  0  0  0  0  0  0  0  0
   44.2070   31.6150   36.6890 N   0  0  0  0  0  0  0  0  0  0  0  0
   42.9480   32.6580   40.3980 C   0  0  0  0  0  0  0  0  0  0  0  0
   43.6940   32.1410   41.4970 C   0  0  0  0  0  0  0  0  0  0  0  0
   43.9100   30.9460   42.0970 C   0  0  0  0  0  0  0  0  0  0  0  0
   44.6940   30.6700   43.1990 C   0  0  0  0  0  0  0  0  0  0  0  0
   45.3100   31.7130   43.7330 N   0  0  0  0  0  0  0  0  0  0  0  0
   45.1610   32.9120   43.2200 C   0  0  0  0  0  0  0  0  0  0  0  0
   44.3900   33.0920   42.1590 N   0  0  0  0  0  0  0  0  0  0  0  0
   45.8920   34.0660   43.8750 C   0  0  0  0  0  0  0  0  0  0  0  0
   45.3980   34.1400   45.2950 C   0  0  0  0  0  0  0  0  0  0  0  0
   44.6470   35.4210   45.4430 C   0  0  0  0  0  0  0  0  0  0  0  0
   44.2880   35.7970   44.0010 C   0  0  0  0  0  0  0  0  0  0  0  0
   45.5450   35.3860   43.2740 C   0  0  0  0  0  0  0  0  0  0  0  0
   41.9520   30.6909   40.1808 H   0  0  0  0  0  0  0  0  0  0  0  0
   40.0266   30.4762   40.7667 H   0  0  0  0  0  0  0  0  0  0  0  0
   40.1773   31.9088   41.7881 H   0  0  0  0  0  0  0  0  0  0  0  0
   38.2126   31.7700   39.3877 H   0  0  0  0  0  0  0  0  0  0  0  0
   37.6967   31.3098   40.9976 H   0  0  0  0  0  0  0  0  0  0  0  0
   37.3852   33.6470   40.6300 H   0  0  0  0  0  0  0  0  0  0  0  0
   38.7777   34.2863   39.0558 H   0  0  0  0  0  0  0  0  0  0  0  0
   39.3481   35.0568   40.6333 H   0  0  0  0  0  0  0  0  0  0  0  0
   41.2557   33.9018   40.6939 H   0  0  0  0  0  0  0  0  0  0  0  0
   41.0042   33.9752   38.8912 H   0  0  0  0  0  0  0  0  0  0  0  0
   44.3710   32.4573   38.6037 H   0  0  0  0  0  0  0  0  0  0  0  0
   40.7669   30.2815   37.7665 H   0  0  0  0  0  0  0  0  0  0  0  0
   43.8171   30.6732   34.8149 H   0  0  0  0  0  0  0  0  0  0  0  0
   43.6655   33.0267   39.6502 H   0  0  0  0  0  0  0  0  0  0  0  0
   42.2971   33.4347   40.8258 H   0  0  0  0  0  0  0  0  0  0  0  0
   43.3941   30.0844   41.6482 H   0  0  0  0  0  0  0  0  0  0  0  0
   44.7997   29.6533   43.6055 H   0  0  0  0  0  0  0  0  0  0  0  0
   46.9716   33.8875   43.7633 H   0  0  0  0  0  0  0  0  0  0  0  0
   44.7340   33.2889   45.5064 H   0  0  0  0  0  0  0  0  0  0  0  0
   46.2409   34.1015   46.0007 H   0  0  0  0  0  0  0  0  0  0  0  0
   43.7401   35.2769   46.0487 H   0  0  0  0  0  0  0  0  0  0  0  0
   45.2290   36.2009   45.9558 H   0  0  0  0  0  0  0  0  0  0  0  0
   43.4125   35.2353   43.6432 H   0  0  0  0  0  0  0  0  0  0  0  0
   44.0096   36.8523   43.8638 H   0  0  0  0  0  0  0  0  0  0  0  0
   46.3505   36.1161   43.4416 H   0  0  0  0  0  0  0  0  0  0  0  0
   45.4063   35.3324   42.1841 H   0  0  0  0  0  0  0  0  0  0  0  0
  1  2  1  0
  1 14  1  0
  2  7  1  0
  2  3  1  0
  4  3  1  0
  4  5  1  0
  6  5  1  0
  7  6  1  0
  8  9  2  0
  9  1  1  0
 10  9  1  0
 11 10  2  0
 12 11  1  0
 12 13  2  0
 13  8  1  0
 14 15  1  0
 15 16  2  0
 15 20  1  0
 16 17  1  0
 17 18  2  0
 19 18  1  0
 19 21  1  0
 20 19  2  0
 21 22  1  0
 22 23  1  0
 24 23  1  0
 25 21  1  0
 25 24  1  0
  1 26  1  1
  3 27  1  0
  3 28  1  0
  4 29  1  0
  4 30  1  0
  5 31  1  0
  6 32  1  0
  6 33  1  0
  7 34  1  0
  7 35  1  0
  8 36  1  0
 10 37  1  0
 12 38  1  0
 14 39  1  0
 14 40  1  0
 16 41  1  0
 17 42  1  0
 21 43  1  0
 22 44  1  0
 22 45  1  0
 23 46  1  0
 23 47  1  0
 24 48  1  0
 24 49  1  0
 25 50  1  0
 25 51  1  0
M  ISO  8  26   8  27  13  28  13  29  13  30  13  31   5  32  13  33  13
M  ISO  8  34  13  35  13  36  14  37  14  38  14  39   8  40   8  41  14
M  ISO  8  42  14  43  13  44  13  45  13  46  13  47  13  48  13  49  13
M  ISO  2  50  13  51  13
M  END
>  <minimizedAffinity>  (1) 
-4.97238636

>  <minimizedRMSD>  (1) 
5.73931503

$$$$
