
     RDKit          3D

 50 53  0  0  1  0  0  0  0  0999 V2000
   45.7170   32.7760   39.9180 C   0  0  1  0  0  0  0  0  0  0  0  0
   44.6360   33.6320   40.3260 N   0  0  0  0  0  0  0  0  0  0  0  0
   43.5000   32.9160   40.7780 C   0  0  0  0  0  0  0  0  0  0  0  0
   42.3530   33.9430   40.7780 C   0  0  0  0  0  0  0  0  0  0  0  0
   42.6710   34.7790   41.9070 N   0  0  0  0  0  0  0  0  0  0  0  0
   43.8960   35.4530   41.7630 C   0  0  0  0  0  0  0  0  0  0  0  0
   45.0530   34.6170   41.2350 C   0  0  0  0  0  0  0  0  0  0  0  0
   46.0560   31.1050   38.1000 C   0  0  0  0  0  0  0  0  0  0  0  0
   45.7330   32.3710   38.5470 C   0  0  0  0  0  0  0  0  0  0  0  0
   45.3960   33.3060   37.5460 C   0  0  0  0  0  0  0  0  0  0  0  0
   45.4060   32.9220   36.2320 N   0  0  0  0  0  0  0  0  0  0  0  0
   45.7350   31.6620   35.8690 C   0  0  0  0  0  0  0  0  0  0  0  0
   46.0630   30.7450   36.8140 N   0  0  0  0  0  0  0  0  0  0  0  0
   47.0470   33.4770   40.2250 C   0  0  0  0  0  0  0  0  0  0  0  0
   48.0200   32.7090   40.9310 C   0  0  0  0  0  0  0  0  0  0  0  0
   48.2830   32.3480   42.2080 C   0  0  0  0  0  0  0  0  0  0  0  0
   49.3290   31.5740   42.6740 C   0  0  0  0  0  0  0  0  0  0  0  0
   50.1770   31.1350   41.7530 N   0  0  0  0  0  0  0  0  0  0  0  0
   49.9950   31.4400   40.4890 C   0  0  0  0  0  0  0  0  0  0  0  0
   48.9670   32.1860   40.1220 N   0  0  0  0  0  0  0  0  0  0  0  0
   52.4120   31.1250   40.0940 C   0  0  1  0  0  0  0  0  0  0  0  0
   51.0130   30.8910   39.5320 C   0  0  2  0  0  0  0  0  0  0  0  0
   51.0720   31.6790   38.2650 C   0  0  0  0  0  0  0  0  0  0  0  0
   52.3900   31.9320   37.9460 O   0  0  0  0  0  0  0  0  0  0  0  0
   53.1940   31.2160   38.7990 C   0  0  0  0  0  0  0  0  0  0  0  0
   52.4920   32.3390   40.7360 O   0  0  0  0  0  0  0  0  0  0  0  0
   45.5649   31.8493   40.4907 H   0  0  0  0  0  0  0  0  0  0  0  0
   43.2724   32.0828   40.0969 H   0  0  0  0  0  0  0  0  0  0  0  0
   43.6593   32.4758   41.7734 H   0  0  0  0  0  0  0  0  0  0  0  0
   42.3428   34.5251   39.8447 H   0  0  0  0  0  0  0  0  0  0  0  0
   41.3566   33.4820   40.8453 H   0  0  0  0  0  0  0  0  0  0  0  0
   41.9229   35.4780   42.0190 H   0  0  0  0  0  0  0  0  0  0  0  0
   43.7405   36.2914   41.0680 H   0  0  0  0  0  0  0  0  0  0  0  0
   44.1886   35.7617   42.7774 H   0  0  0  0  0  0  0  0  0  0  0  0
   45.5489   34.1250   42.0848 H   0  0  0  0  0  0  0  0  0  0  0  0
   45.7375   35.2937   40.7025 H   0  0  0  0  0  0  0  0  0  0  0  0
   46.3242   30.3460   38.8497 H   0  0  0  0  0  0  0  0  0  0  0  0
   45.1269   34.3369   37.8194 H   0  0  0  0  0  0  0  0  0  0  0  0
   45.7368   31.3796   34.8059 H   0  0  0  0  0  0  0  0  0  0  0  0
   47.4929   33.7833   39.2672 H   0  0  0  0  0  0  0  0  0  0  0  0
   46.7903   34.3108   40.8949 H   0  0  0  0  0  0  0  0  0  0  0  0
   47.5782   32.7154   42.9684 H   0  0  0  0  0  0  0  0  0  0  0  0
   49.4507   31.3369   43.7412 H   0  0  0  0  0  0  0  0  0  0  0  0
   52.7412   30.3671   40.8201 H   0  0  0  0  0  0  0  0  0  0  0  0
   50.7333   29.8390   39.3739 H   0  0  0  0  0  0  0  0  0  0  0  0
   50.6012   31.1052   37.4532 H   0  0  0  0  0  0  0  0  0  0  0  0
   50.5360   32.6304   38.3977 H   0  0  0  0  0  0  0  0  0  0  0  0
   53.3893   30.2120   38.3943 H   0  0  0  0  0  0  0  0  0  0  0  0
   54.1739   31.6950   38.9416 H   0  0  0  0  0  0  0  0  0  0  0  0
   52.4825   32.1956   41.7155 H   0  0  0  0  0  0  0  0  0  0  0  0
  1 14  1  0
  1  2  1  0
  2  3  1  0
  2  7  1  0
  3  4  1  0
  4  5  1  0
  6  5  1  0
  7  6  1  0
  8  9  2  0
  9  1  1  0
 10  9  1  0
 11 10  2  0
 12 11  1  0
 12 13  2  0
 13  8  1  0
 14 15  1  0
 15 16  2  0
 16 17  1  0
 18 17  2  0
 19 18  1  0
 20 19  2  0
 20 15  1  0
 21 26  1  0
 22 21  1  0
 22 19  1  0
 23 22  1  0
 24 23  1  0
 24 25  1  0
 25 21  1  0
  1 27  1  1
  3 28  1  0
  3 29  1  0
  4 30  1  0
  4 31  1  0
  5 32  1  0
  6 33  1  0
  6 34  1  0
  7 35  1  0
  7 36  1  0
  8 37  1  0
 10 38  1  0
 12 39  1  0
 14 40  1  0
 14 41  1  0
 16 42  1  0
 17 43  1  0
 21 44  1  1
 22 45  1  6
 23 46  1  0
 23 47  1  0
 25 48  1  0
 25 49  1  0
 26 50  1  0
M  ISO  8  27   8  28  13  29  13  30  13  31  13  32   5  33  13  34  13
M  ISO  8  35  13  36  13  37  14  38  14  39  14  40   8  41   8  42  14
M  ISO  8  43  14  44  13  45  13  46  13  47  13  48  13  49  13  50   3
M  END
>  <minimizedAffinity>  (1) 
-4.52383566

>  <minimizedRMSD>  (1) 
3.13788271

$$$$
