
     RDKit          3D

 44 46  0  0  0  0  0  0  0  0999 V2000
   45.9600   32.3420   44.5930 C   0  0  0  0  0  0  0  0  0  0  0  0
   44.6430   35.7490   44.8780 C   0  0  0  0  0  0  0  0  0  0  0  0
   44.1270   35.9940   43.5860 C   0  0  0  0  0  0  0  0  0  0  0  0
   44.2600   34.9580   42.6640 C   0  0  0  0  0  0  0  0  0  0  0  0
   44.8480   33.8120   43.0180 N   0  0  0  0  0  0  0  0  0  0  0  0
   45.3230   33.6390   44.2750 C   0  0  0  0  0  0  0  0  0  0  0  0
   45.2320   34.5690   45.1910 N   0  0  0  0  0  0  0  0  0  0  0  0
   43.7180   35.2400   41.3330 C   0  0  0  0  0  0  0  0  0  0  0  0
   42.2600   35.5320   41.2740 C   0  0  0  0  0  0  0  0  0  0  0  0
   41.3730   34.3660   41.0030 C   0  0  0  0  0  0  0  0  0  0  0  0
   41.9870   33.2800   40.4090 O   0  0  0  0  0  0  0  0  0  0  0  0
   42.9460   33.7160   39.5270 C   0  0  0  0  0  0  0  0  0  0  0  0
   44.1440   34.1400   40.3890 C   0  0  0  0  0  0  0  0  0  0  0  0
   46.7630   32.5060   45.8570 C   0  0  0  0  0  0  0  0  0  0  0  0
   46.1600   31.7780   46.9740 C   0  0  0  0  0  0  0  0  0  0  0  0
   45.3910   32.2560   48.0120 C   0  0  0  0  0  0  0  0  0  0  0  0
   44.8760   31.4740   48.9950 C   0  0  0  0  0  0  0  0  0  0  0  0
   45.1320   30.1320   48.9580 C   0  0  0  0  0  0  0  0  0  0  0  0
   45.9000   29.6310   47.9270 C   0  0  0  0  0  0  0  0  0  0  0  0
   46.4150   30.4430   46.9390 C   0  0  0  0  0  0  0  0  0  0  0  0
   48.5060   29.3230   46.4780 C   0  0  0  0  0  0  0  0  0  0  0  0
   49.3600   29.6650   47.3770 O   0  0  0  0  0  0  0  0  0  0  0  0
   47.1590   29.5850   46.0660 N   0  0  0  0  0  0  0  0  0  0  0  0
   46.6224   32.0409   43.7681 H   0  0  0  0  0  0  0  0  0  0  0  0
   45.1921   31.5664   44.7301 H   0  0  0  0  0  0  0  0  0  0  0  0
   44.5652   36.5324   45.6463 H   0  0  0  0  0  0  0  0  0  0  0  0
   43.6475   36.9484   43.3229 H   0  0  0  0  0  0  0  0  0  0  0  0
   44.1514   36.1980   41.0099 H   0  0  0  0  0  0  0  0  0  0  0  0
   41.9633   35.9634   42.2414 H   0  0  0  0  0  0  0  0  0  0  0  0
   42.1271   36.2119   40.4196 H   0  0  0  0  0  0  0  0  0  0  0  0
   40.9476   34.0332   41.9613 H   0  0  0  0  0  0  0  0  0  0  0  0
   40.6193   34.7191   40.2838 H   0  0  0  0  0  0  0  0  0  0  0  0
   42.5711   34.5708   38.9449 H   0  0  0  0  0  0  0  0  0  0  0  0
   43.2220   32.9309   38.8077 H   0  0  0  0  0  0  0  0  0  0  0  0
   44.5026   33.2769   40.9690 H   0  0  0  0  0  0  0  0  0  0  0  0
   44.9531   34.5057   39.7396 H   0  0  0  0  0  0  0  0  0  0  0  0
   47.7795   32.1216   45.6870 H   0  0  0  0  0  0  0  0  0  0  0  0
   46.7865   33.5752   46.1145 H   0  0  0  0  0  0  0  0  0  0  0  0
   45.1818   33.3354   48.0465 H   0  0  0  0  0  0  0  0  0  0  0  0
   44.2677   31.9097   49.8013 H   0  0  0  0  0  0  0  0  0  0  0  0
   44.7333   29.4638   49.7356 H   0  0  0  0  0  0  0  0  0  0  0  0
   46.1076   28.5513   47.8923 H   0  0  0  0  0  0  0  0  0  0  0  0
   48.9605   28.5846   45.8011 H   0  0  0  0  0  0  0  0  0  0  0  0
   46.7557   29.1862   45.2062 H   0  0  0  0  0  0  0  0  0  0  0  0
  1 14  1  0
  2  7  2  0
  3  2  1  0
  4  5  1  0
  4  3  2  0
  5  6  2  0
  6  1  1  0
  6  7  1  0
  8  4  1  0
  9  8  1  0
 10  9  1  0
 11 10  1  0
 12 13  1  0
 12 11  1  0
 13  8  1  0
 14 15  1  0
 15 16  2  0
 16 17  1  0
 18 17  2  0
 19 18  1  0
 20 15  1  0
 20 19  2  0
 21 22  2  0
 23 21  1  0
 23 20  1  0
  1 24  1  0
  1 25  1  0
  2 26  1  0
  3 27  1  0
  8 28  1  0
  9 29  1  0
  9 30  1  0
 10 31  1  0
 10 32  1  0
 12 33  1  0
 12 34  1  0
 13 35  1  0
 13 36  1  0
 14 37  1  0
 14 38  1  0
 16 39  1  0
 17 40  1  0
 18 41  1  0
 19 42  1  0
 21 43  1  0
 23 44  1  0
M  ISO  8  24   8  25   8  26  14  27  14  28  13  29  13  30  13  31  13
M  ISO  8  32  13  33  13  34  13  35  13  36  13  37   8  38   8  39  14
M  ISO  4  40  14  41  14  42  14  43   6
M  END
>  <minimizedAffinity>  (1) 
-5.4977622

>  <minimizedRMSD>  (1) 
2.01130843

$$$$
