
     RDKit          3D

 48 51  0  0  1  0  0  0  0  0999 V2000
   45.5400   32.6720   41.1190 C   0  0  1  0  0  0  0  0  0  0  0  0
   44.9180   31.4220   40.7750 N   0  0  0  0  0  0  0  0  0  0  0  0
   45.4760   30.3130   41.4520 C   0  0  0  0  0  0  0  0  0  0  0  0
   44.9840   29.0750   40.6840 C   0  0  0  0  0  0  0  0  0  0  0  0
   43.5900   29.0050   41.0420 N   0  0  0  0  0  0  0  0  0  0  0  0
   42.8580   30.1320   40.6290 C   0  0  0  0  0  0  0  0  0  0  0  0
   43.5210   31.4780   40.8770 C   0  0  0  0  0  0  0  0  0  0  0  0
   47.4870   34.0800   40.4460 C   0  0  0  0  0  0  0  0  0  0  0  0
   46.4290   33.2370   40.1520 C   0  0  0  0  0  0  0  0  0  0  0  0
   46.2480   32.9340   38.7890 C   0  0  0  0  0  0  0  0  0  0  0  0
   47.0940   33.4670   37.8530 N   0  0  0  0  0  0  0  0  0  0  0  0
   48.1060   34.2840   38.2090 C   0  0  0  0  0  0  0  0  0  0  0  0
   48.3040   34.5930   39.5160 N   0  0  0  0  0  0  0  0  0  0  0  0
   44.4460   33.7030   41.4220 C   0  0  0  0  0  0  0  0  0  0  0  0
   44.5720   34.4230   42.6450 C   0  0  0  0  0  0  0  0  0  0  0  0
   44.3500   35.6760   43.1050 C   0  0  0  0  0  0  0  0  0  0  0  0
   44.5630   36.1750   44.3750 C   0  0  0  0  0  0  0  0  0  0  0  0
   45.0480   35.3040   45.2490 N   0  0  0  0  0  0  0  0  0  0  0  0
   45.2960   34.0630   44.8960 C   0  0  0  0  0  0  0  0  0  0  0  0
   45.0620   33.6640   43.6530 N   0  0  0  0  0  0  0  0  0  0  0  0
   47.6190   32.2860   44.0400 Cl  0  0  0  0  0  0  0  0  0  0  0  0
   46.8700   32.3020   45.6160 C   0  0  0  0  0  0  0  0  0  0  0  0
   45.8380   33.1260   45.9160 C   0  0  0  0  0  0  0  0  0  0  0  0
   45.2570   33.1270   47.1690 C   0  0  0  0  0  0  0  0  0  0  0  0
   45.6920   32.2890   48.1890 C   0  0  0  0  0  0  0  0  0  0  0  0
   46.7440   31.4570   47.8640 C   0  0  0  0  0  0  0  0  0  0  0  0
   47.3390   31.4410   46.6180 C   0  0  0  0  0  0  0  0  0  0  0  0
   46.1732   32.4327   41.9861 H   0  0  0  0  0  0  0  0  0  0  0  0
   46.5746   30.3648   41.4350 H   0  0  0  0  0  0  0  0  0  0  0  0
   45.1736   30.2850   42.5093 H   0  0  0  0  0  0  0  0  0  0  0  0
   45.5209   28.1706   41.0061 H   0  0  0  0  0  0  0  0  0  0  0  0
   45.1502   29.1435   39.5988 H   0  0  0  0  0  0  0  0  0  0  0  0
   43.1801   28.1686   40.6024 H   0  0  0  0  0  0  0  0  0  0  0  0
   41.8970   30.1252   41.1642 H   0  0  0  0  0  0  0  0  0  0  0  0
   42.7619   30.0426   39.5369 H   0  0  0  0  0  0  0  0  0  0  0  0
   43.2558   31.8195   41.8885 H   0  0  0  0  0  0  0  0  0  0  0  0
   43.1599   32.1726   40.1043 H   0  0  0  0  0  0  0  0  0  0  0  0
   47.6665   34.3427   41.4990 H   0  0  0  0  0  0  0  0  0  0  0  0
   45.4284   32.2703   38.4763 H   0  0  0  0  0  0  0  0  0  0  0  0
   48.7721   34.7007   37.4392 H   0  0  0  0  0  0  0  0  0  0  0  0
   44.4411   34.4359   40.6017 H   0  0  0  0  0  0  0  0  0  0  0  0
   43.5175   33.1216   41.5209 H   0  0  0  0  0  0  0  0  0  0  0  0
   43.9474   36.3903   42.3718 H   0  0  0  0  0  0  0  0  0  0  0  0
   44.3459   37.2198   44.6421 H   0  0  0  0  0  0  0  0  0  0  0  0
   44.4214   33.8146   47.3665 H   0  0  0  0  0  0  0  0  0  0  0  0
   45.2294   32.2890   49.1870 H   0  0  0  0  0  0  0  0  0  0  0  0
   47.1274   30.7730   48.6354 H   0  0  0  0  0  0  0  0  0  0  0  0
   48.1757   30.7570   46.4130 H   0  0  0  0  0  0  0  0  0  0  0  0
  1 14  1  0
  2  7  1  0
  2  1  1  0
  2  3  1  0
  4  5  1  0
  4  3  1  0
  6  7  1  0
  6  5  1  0
  9  8  2  0
  9  1  1  0
 10  9  1  0
 11 12  1  0
 11 10  2  0
 12 13  2  0
 13  8  1  0
 14 15  1  0
 15 16  2  0
 15 20  1  0
 16 17  1  0
 17 18  2  0
 19 18  1  0
 19 23  1  0
 20 19  2  0
 21 22  1  0
 22 23  2  0
 22 27  1  0
 23 24  1  0
 24 25  2  0
 26 25  1  0
 27 26  2  0
  1 28  1  1
  3 29  1  0
  3 30  1  0
  4 31  1  0
  4 32  1  0
  5 33  1  0
  6 34  1  0
  6 35  1  0
  7 36  1  0
  7 37  1  0
  8 38  1  0
 10 39  1  0
 12 40  1  0
 14 41  1  0
 14 42  1  0
 16 43  1  0
 17 44  1  0
 24 45  1  0
 25 46  1  0
 26 47  1  0
 27 48  1  0
M  ISO  8  28   8  29  13  30  13  31  13  32  13  33   5  34  13  35  13
M  ISO  8  36  13  37  13  38  14  39  14  40  14  41   8  42   8  43  14
M  ISO  5  44  14  45  14  46  14  47  14  48  14
M  END
>  <minimizedAffinity>  (1) 
-5.00268269

>  <minimizedRMSD>  (1) 
4.45004177

$$$$
