
     RDKit          3D

 51 54  0  0  1  0  0  0  0  0999 V2000
   46.0840   32.9860   39.9420 C   0  0  1  0  0  0  0  0  0  0  0  0
   46.4470   33.2060   41.3160 N   0  0  0  0  0  0  0  0  0  0  0  0
   46.6860   34.5670   41.6200 C   0  0  0  0  0  0  0  0  0  0  0  0
   47.4360   34.5520   42.9670 C   0  0  0  0  0  0  0  0  0  0  0  0
   46.4040   34.1930   43.9070 N   0  0  0  0  0  0  0  0  0  0  0  0
   45.8660   32.9150   43.6630 C   0  0  0  0  0  0  0  0  0  0  0  0
   45.5490   32.6010   42.2080 C   0  0  0  0  0  0  0  0  0  0  0  0
   47.1310   33.6720   37.7920 C   0  0  0  0  0  0  0  0  0  0  0  0
   47.1520   32.9960   38.9880 C   0  0  0  0  0  0  0  0  0  0  0  0
   48.3300   32.2730   39.2570 C   0  0  0  0  0  0  0  0  0  0  0  0
   49.3490   32.2830   38.3440 N   0  0  0  0  0  0  0  0  0  0  0  0
   49.2500   32.9770   37.1830 C   0  0  0  0  0  0  0  0  0  0  0  0
   48.1310   33.6770   36.9060 N   0  0  0  0  0  0  0  0  0  0  0  0
   45.3550   31.6400   39.8320 C   0  0  0  0  0  0  0  0  0  0  0  0
   44.3070   31.5640   38.8680 C   0  0  0  0  0  0  0  0  0  0  0  0
   44.1240   31.0870   37.6150 C   0  0  0  0  0  0  0  0  0  0  0  0
   42.9840   31.1310   36.8360 C   0  0  0  0  0  0  0  0  0  0  0  0
   41.9360   31.7260   37.4120 N   0  0  0  0  0  0  0  0  0  0  0  0
   42.0210   32.2200   38.6310 C   0  0  0  0  0  0  0  0  0  0  0  0
   43.1550   32.1280   39.2910 N   0  0  0  0  0  0  0  0  0  0  0  0
   40.6600   34.1780   39.4390 C   0  0  0  0  0  0  0  0  0  0  0  0
   40.7960   32.8410   39.1410 C   0  0  0  0  0  0  0  0  0  0  0  0
   39.6790   32.0770   39.3590 C   0  0  0  0  0  0  0  0  0  0  0  0
   38.4730   32.5420   39.8400 C   0  0  0  0  0  0  0  0  0  0  0  0
   38.3480   33.8810   40.1340 C   0  0  0  0  0  0  0  0  0  0  0  0
   39.4520   34.6790   39.9280 C   0  0  0  0  0  0  0  0  0  0  0  0
   42.0050   35.2450   39.2080 S   0  0  0  0  0  0  0  0  0  0  0  0
   43.0940   35.0610   40.2310 O   0  0  0  0  0  0  0  0  0  0  0  0
   42.5410   35.2030   37.8170 O   0  0  0  0  0  0  0  0  0  0  0  0
   45.4543   33.8491   39.6801 H   0  0  0  0  0  0  0  0  0  0  0  0
   47.3039   35.0344   40.8391 H   0  0  0  0  0  0  0  0  0  0  0  0
   45.7530   35.1472   41.6742 H   0  0  0  0  0  0  0  0  0  0  0  0
   48.2436   33.8052   42.9618 H   0  0  0  0  0  0  0  0  0  0  0  0
   47.9241   35.5092   43.2028 H   0  0  0  0  0  0  0  0  0  0  0  0
   46.8039   34.2062   44.8561 H   0  0  0  0  0  0  0  0  0  0  0  0
   46.5913   32.1689   44.0198 H   0  0  0  0  0  0  0  0  0  0  0  0
   44.9025   32.8883   44.1931 H   0  0  0  0  0  0  0  0  0  0  0  0
   44.5339   32.9604   41.9834 H   0  0  0  0  0  0  0  0  0  0  0  0
   45.6330   31.5121   42.0769 H   0  0  0  0  0  0  0  0  0  0  0  0
   46.2275   34.2496   37.5468 H   0  0  0  0  0  0  0  0  0  0  0  0
   48.4302   31.7048   40.1935 H   0  0  0  0  0  0  0  0  0  0  0  0
   50.0840   32.9689   36.4658 H   0  0  0  0  0  0  0  0  0  0  0  0
   46.1022   30.8746   39.5752 H   0  0  0  0  0  0  0  0  0  0  0  0
   44.8672   31.4911   40.8066 H   0  0  0  0  0  0  0  0  0  0  0  0
   44.9975   30.6004   37.1566 H   0  0  0  0  0  0  0  0  0  0  0  0
   42.9426   30.7091   35.8210 H   0  0  0  0  0  0  0  0  0  0  0  0
   39.7505   31.0032   39.1313 H   0  0  0  0  0  0  0  0  0  0  0  0
   37.6262   31.8553   39.9861 H   0  0  0  0  0  0  0  0  0  0  0  0
   37.4048   34.2970   40.5179 H   0  0  0  0  0  0  0  0  0  0  0  0
   39.3789   35.7523   40.1576 H   0  0  0  0  0  0  0  0  0  0  0  0
   41.5017   36.5039   39.4049 H   0  0  0  0  0  0  0  0  0  0  0  0
  1  2  1  0
  2  3  1  0
  2  7  1  0
  3  4  1  0
  4  5  1  0
  6  5  1  0
  7  6  1  0
  8  9  2  0
  9 10  1  0
  9  1  1  0
 11 10  2  0
 12 11  1  0
 13 12  2  0
 13  8  1  0
 14  1  1  0
 15 20  1  0
 15 14  1  0
 16 15  2  0
 17 18  2  0
 17 16  1  0
 18 19  1  0
 19 22  1  0
 19 20  2  0
 21 26  2  0
 22 23  2  0
 22 21  1  0
 23 24  1  0
 24 25  2  0
 26 25  1  0
 27 21  1  0
 27 28  2  0
 29 27  2  0
  1 30  1  6
  3 31  1  0
  3 32  1  0
  4 33  1  0
  4 34  1  0
  5 35  1  0
  6 36  1  0
  6 37  1  0
  7 38  1  0
  7 39  1  0
  8 40  1  0
 10 41  1  0
 12 42  1  0
 14 43  1  0
 14 44  1  0
 16 45  1  0
 17 46  1  0
 23 47  1  0
 24 48  1  0
 25 49  1  0
 26 50  1  0
 27 51  1  0
M  ISO  8  30   8  31  13  32  13  33  13  34  13  35   5  36  13  37  13
M  ISO  8  38  13  39  13  40  14  41  14  42  14  43   8  44   8  45  14
M  ISO  6  46  14  47  14  48  14  49  14  50  14  51  11
M  END
>  <minimizedAffinity>  (1) 
-4.8717947

>  <minimizedRMSD>  (1) 
8.04704952

$$$$
