
     RDKit          3D

 41 43  0  0  1  0  0  0  0  0999 V2000
   45.9490   32.7910   41.9620 C   0  0  1  0  0  0  0  0  0  0  0  0
   45.3340   34.0270   42.3620 N   0  0  0  0  0  0  0  0  0  0  0  0
   44.0400   34.2070   41.8130 C   0  0  0  0  0  0  0  0  0  0  0  0
   43.7260   35.7010   42.0040 C   0  0  0  0  0  0  0  0  0  0  0  0
   43.4890   35.8080   43.4200 N   0  0  0  0  0  0  0  0  0  0  0  0
   44.6040   35.4460   44.2030 C   0  0  0  0  0  0  0  0  0  0  0  0
   45.3560   34.2020   43.7530 C   0  0  0  0  0  0  0  0  0  0  0  0
   46.6980   31.6250   39.8900 C   0  0  0  0  0  0  0  0  0  0  0  0
   46.5440   32.7640   40.6600 C   0  0  0  0  0  0  0  0  0  0  0  0
   47.0160   33.9630   40.0900 C   0  0  0  0  0  0  0  0  0  0  0  0
   47.5830   33.9450   38.8450 N   0  0  0  0  0  0  0  0  0  0  0  0
   47.7020   32.7920   38.1450 C   0  0  0  0  0  0  0  0  0  0  0  0
   47.2540   31.6200   38.6730 N   0  0  0  0  0  0  0  0  0  0  0  0
   47.0290   32.4190   42.9870 C   0  0  0  0  0  0  0  0  0  0  0  0
   48.3190   32.9910   42.7870 C   0  0  0  0  0  0  0  0  0  0  0  0
   48.9120   34.2010   42.9150 C   0  0  0  0  0  0  0  0  0  0  0  0
   50.2250   34.5380   42.6420 C   0  0  0  0  0  0  0  0  0  0  0  0
   50.9980   33.5480   42.2000 N   0  0  0  0  0  0  0  0  0  0  0  0
   50.4950   32.3450   42.0500 C   0  0  0  0  0  0  0  0  0  0  0  0
   49.2290   32.1030   42.3330 N   0  0  0  0  0  0  0  0  0  0  0  0
   51.4530   31.3020   41.5450 C   0  0  0  0  0  0  0  0  0  0  0  0
   52.0520   30.6320   42.5580 F   0  0  0  0  0  0  0  0  0  0  0  0
   50.7100   30.3800   40.7980 F   0  0  0  0  0  0  0  0  0  0  0  0
   52.4240   31.8910   40.7440 F   0  0  0  0  0  0  0  0  0  0  0  0
   45.1181   32.0715   41.9178 H   0  0  0  0  0  0  0  0  0  0  0  0
   43.3047   33.5868   42.3466 H   0  0  0  0  0  0  0  0  0  0  0  0
   43.9969   33.9095   40.7549 H   0  0  0  0  0  0  0  0  0  0  0  0
   44.5783   36.3256   41.6982 H   0  0  0  0  0  0  0  0  0  0  0  0
   42.8756   36.0445   41.3967 H   0  0  0  0  0  0  0  0  0  0  0  0
   43.2408   36.7839   43.6367 H   0  0  0  0  0  0  0  0  0  0  0  0
   45.3106   36.2890   44.1934 H   0  0  0  0  0  0  0  0  0  0  0  0
   44.2035   35.2077   45.1994 H   0  0  0  0  0  0  0  0  0  0  0  0
   44.8944   33.3223   44.2252 H   0  0  0  0  0  0  0  0  0  0  0  0
   46.4068   34.3230   44.0549 H   0  0  0  0  0  0  0  0  0  0  0  0
   46.3430   30.6688   40.3018 H   0  0  0  0  0  0  0  0  0  0  0  0
   46.9290   34.9095   40.6436 H   0  0  0  0  0  0  0  0  0  0  0  0
   48.1624   32.8024   37.1460 H   0  0  0  0  0  0  0  0  0  0  0  0
   46.6727   32.7363   43.9781 H   0  0  0  0  0  0  0  0  0  0  0  0
   47.1717   31.3337   42.8789 H   0  0  0  0  0  0  0  0  0  0  0  0
   48.2707   35.0163   43.2811 H   0  0  0  0  0  0  0  0  0  0  0  0
   50.6070   35.5601   42.7813 H   0  0  0  0  0  0  0  0  0  0  0  0
  1  2  1  0
  1 14  1  0
  2  7  1  0
  3  4  1  0
  3  2  1  0
  4  5  1  0
  5  6  1  0
  7  6  1  0
  8  9  2  0
  9  1  1  0
 10  9  1  0
 11 10  2  0
 12 13  2  0
 12 11  1  0
 13  8  1  0
 15 16  2  0
 15 14  1  0
 17 16  1  0
 18 17  2  0
 19 18  1  0
 19 20  2  0
 20 15  1  0
 21 19  1  0
 21 22  1  0
 23 21  1  0
 24 21  1  0
  1 25  1  6
  3 26  1  0
  3 27  1  0
  4 28  1  0
  4 29  1  0
  5 30  1  0
  6 31  1  0
  6 32  1  0
  7 33  1  0
  7 34  1  0
  8 35  1  0
 10 36  1  0
 12 37  1  0
 14 38  1  0
 14 39  1  0
 16 40  1  0
 17 41  1  0
M  ISO  8  25   8  26  13  27  13  28  13  29  13  30   5  31  13  32  13
M  ISO  8  33  13  34  13  35  14  36  14  37  14  38   8  39   8  40  14
M  ISO  1  41  14
M  END
>  <minimizedAffinity>  (1) 
-4.75755501

>  <minimizedRMSD>  (1) 
2.57787275

$$$$
