
     RDKit          3D

 23 24  0  0  0  0  0  0  0  0999 V2000
   47.2100   35.2790   42.3920 C   0  0  0  0  0  0  0  0  0  0  0  0
   48.1960   33.3930   39.2740 C   0  0  0  0  0  0  0  0  0  0  0  0
   47.5630   34.3390   40.1240 C   0  0  0  0  0  0  0  0  0  0  0  0
   47.8530   34.3060   41.4800 C   0  0  0  0  0  0  0  0  0  0  0  0
   48.7350   33.3630   41.9200 N   0  0  0  0  0  0  0  0  0  0  0  0
   49.3180   32.4780   41.0780 C   0  0  0  0  0  0  0  0  0  0  0  0
   49.0560   32.4870   39.7660 N   0  0  0  0  0  0  0  0  0  0  0  0
   45.7130   34.9900   42.4380 C   0  0  0  0  0  0  0  0  0  0  0  0
   45.3310   34.9520   43.8740 C   0  0  0  0  0  0  0  0  0  0  0  0
   44.5660   35.7930   44.6560 C   0  0  0  0  0  0  0  0  0  0  0  0
   44.5130   35.3240   45.9150 N   0  0  0  0  0  0  0  0  0  0  0  0
   45.2540   34.1810   45.9010 C   0  0  0  0  0  0  0  0  0  0  0  0
   45.7610   33.9350   44.6710 N   0  0  0  0  0  0  0  0  0  0  0  0
   47.3786   36.3009   42.0216 H   0  0  0  0  0  0  0  0  0  0  0  0
   47.6404   35.1890   43.4003 H   0  0  0  0  0  0  0  0  0  0  0  0
   47.9781   33.4030   38.1958 H   0  0  0  0  0  0  0  0  0  0  0  0
   46.8596   35.0801   39.7165 H   0  0  0  0  0  0  0  0  0  0  0  0
   50.0223   31.7354   41.4811 H   0  0  0  0  0  0  0  0  0  0  0  0
   45.1571   35.7843   41.9184 H   0  0  0  0  0  0  0  0  0  0  0  0
   45.4776   34.0379   41.9399 H   0  0  0  0  0  0  0  0  0  0  0  0
   44.0730   36.7104   44.3021 H   0  0  0  0  0  0  0  0  0  0  0  0
   44.0185   35.7395   46.7173 H   0  0  0  0  0  0  0  0  0  0  0  0
   45.4193   33.5391   46.7789 H   0  0  0  0  0  0  0  0  0  0  0  0
  1  8  1  0
  2  7  2  0
  2  3  1  0
  3  4  2  0
  4  5  1  0
  4  1  1  0
  6  5  2  0
  7  6  1  0
  8  9  1  0
  9 10  2  0
  9 13  1  0
 10 11  1  0
 12 11  1  0
 13 12  2  0
  1 14  1  0
  1 15  1  0
  2 16  1  0
  3 17  1  0
  6 18  1  0
  8 19  1  0
  8 20  1  0
 10 21  1  0
 11 22  1  0
 12 23  1  0
M  ISO  8  14   8  15   8  16  14  17  14  18  14  19   8  20   8  21  14
M  ISO  2  22   9  23  14
M  END
>  <minimizedAffinity>  (1) 
-4.13011408

>  <minimizedRMSD>  (1) 
5.79361153

$$$$
