
     RDKit          3D

 20 20  0  0  0  0  0  0  0  0999 V2000
   46.8810   34.7360   41.8110 C   0  0  0  0  0  0  0  0  0  0  0  0
   44.5810   36.0250   44.4850 C   0  0  0  0  0  0  0  0  0  0  0  0
   45.2740   35.9240   43.2710 C   0  0  0  0  0  0  0  0  0  0  0  0
   46.1450   34.8510   43.0870 C   0  0  0  0  0  0  0  0  0  0  0  0
   46.2670   33.9660   44.1020 N   0  0  0  0  0  0  0  0  0  0  0  0
   45.5880   34.0830   45.2650 C   0  0  0  0  0  0  0  0  0  0  0  0
   44.7440   35.1100   45.4610 N   0  0  0  0  0  0  0  0  0  0  0  0
   48.2530   35.3530   41.9630 C   0  0  0  0  0  0  0  0  0  0  0  0
   49.7710   33.4690   42.6360 C   0  0  0  0  0  0  0  0  0  0  0  0
   49.9730   33.0910   41.4700 O   0  0  0  0  0  0  0  0  0  0  0  0
   48.9450   34.5670   42.9760 N   0  0  0  0  0  0  0  0  0  0  0  0
   46.3276   35.2630   41.0198 H   0  0  0  0  0  0  0  0  0  0  0  0
   46.9842   33.6745   41.5417 H   0  0  0  0  0  0  0  0  0  0  0  0
   43.8911   36.8669   44.6442 H   0  0  0  0  0  0  0  0  0  0  0  0
   45.1337   36.6754   42.4800 H   0  0  0  0  0  0  0  0  0  0  0  0
   45.7274   33.3321   46.0566 H   0  0  0  0  0  0  0  0  0  0  0  0
   48.7982   35.3090   41.0086 H   0  0  0  0  0  0  0  0  0  0  0  0
   48.1853   36.4113   42.2554 H   0  0  0  0  0  0  0  0  0  0  0  0
   50.2626   32.9184   43.4516 H   0  0  0  0  0  0  0  0  0  0  0  0
   48.8298   34.8176   43.9684 H   0  0  0  0  0  0  0  0  0  0  0  0
  1  8  1  0
  1  4  1  0
  2  7  2  0
  3  2  1  0
  4  3  2  0
  4  5  1  0
  5  6  2  0
  6  7  1  0
  8 11  1  0
  9 11  1  0
 10  9  2  0
  1 12  1  0
  1 13  1  0
  2 14  1  0
  3 15  1  0
  6 16  1  0
  8 17  1  0
  8 18  1  0
  9 19  1  0
 11 20  1  0
M  ISO  8  12   8  13   8  14  14  15  14  16  14  17   8  18   8  19   6
M  END
>  <minimizedAffinity>  (1) 
-3.75355363

>  <minimizedRMSD>  (1) 
2.08201838

$$$$
