
     RDKit          3D

 17 17  0  0  0  0  0  0  0  0999 V2000
   44.5390   36.0720   44.5850 C   0  0  0  0  0  0  0  0  0  0  0  0
   45.1540   35.9220   43.3350 C   0  0  0  0  0  0  0  0  0  0  0  0
   45.9530   34.8110   43.0840 C   0  0  0  0  0  0  0  0  0  0  0  0
   46.0830   33.9260   44.1010 N   0  0  0  0  0  0  0  0  0  0  0  0
   45.4910   34.0840   45.2860 C   0  0  0  0  0  0  0  0  0  0  0  0
   44.7230   35.1370   45.5480 N   0  0  0  0  0  0  0  0  0  0  0  0
   46.5990   34.6590   41.7620 C   0  0  0  0  0  0  0  0  0  0  0  0
   48.0690   34.3180   41.9840 C   0  0  0  0  0  0  0  0  0  0  0  0
   49.0870   35.7820   41.6600 S   0  0  0  0  0  0  0  0  0  0  0  0
   43.9064   36.9495   44.7846 H   0  0  0  0  0  0  0  0  0  0  0  0
   45.0053   36.6815   42.5533 H   0  0  0  0  0  0  0  0  0  0  0  0
   45.6422   33.3235   46.0663 H   0  0  0  0  0  0  0  0  0  0  0  0
   46.5164   35.5994   41.1973 H   0  0  0  0  0  0  0  0  0  0  0  0
   46.1066   33.8594   41.1891 H   0  0  0  0  0  0  0  0  0  0  0  0
   48.2164   33.9923   43.0243 H   0  0  0  0  0  0  0  0  0  0  0  0
   48.3641   33.5086   41.3000 H   0  0  0  0  0  0  0  0  0  0  0  0
   49.4753   36.3405   42.8492 H   0  0  0  0  0  0  0  0  0  0  0  0
  1  6  2  0
  2  1  1  0
  3  2  2  0
  3  4  1  0
  4  5  2  0
  5  6  1  0
  7  8  1  0
  7  3  1  0
  9  8  1  0
  1 10  1  0
  2 11  1  0
  5 12  1  0
  7 13  1  0
  7 14  1  0
  8 15  1  0
  8 16  1  0
  9 17  1  0
M  ISO  8  10  14  11  14  12  14  13   8  14   8  15   8  16   8  17  11
M  END
>  <minimizedAffinity>  (1) 
-3.31318569

>  <minimizedRMSD>  (1) 
0.686576188

$$$$
