
     RDKit          3D

 31 32  0  0  0  0  0  0  0  0999 V2000
   46.6800   32.6800   45.8580 C   0  0  0  0  0  0  0  0  0  0  0  0
   46.1260   31.9450   47.0010 C   0  0  0  0  0  0  0  0  0  0  0  0
   45.3360   32.3990   48.0290 C   0  0  0  0  0  0  0  0  0  0  0  0
   44.8720   31.6060   49.0330 C   0  0  0  0  0  0  0  0  0  0  0  0
   45.2050   30.2940   49.0220 C   0  0  0  0  0  0  0  0  0  0  0  0
   46.0070   29.8020   47.9900 C   0  0  0  0  0  0  0  0  0  0  0  0
   46.4620   30.6260   46.9900 C   0  0  0  0  0  0  0  0  0  0  0  0
   48.5830   29.5280   46.5910 C   0  0  0  0  0  0  0  0  0  0  0  0
   49.3700   29.8310   47.5610 O   0  0  0  0  0  0  0  0  0  0  0  0
   47.2520   29.7970   46.1300 N   0  0  0  0  0  0  0  0  0  0  0  0
   45.9040   32.4020   44.5960 C   0  0  0  0  0  0  0  0  0  0  0  0
   44.7100   35.8490   44.3460 C   0  0  0  0  0  0  0  0  0  0  0  0
   44.5030   36.0170   42.9600 C   0  0  0  0  0  0  0  0  0  0  0  0
   44.7940   34.9030   42.1540 C   0  0  0  0  0  0  0  0  0  0  0  0
   45.2390   33.7710   42.7080 N   0  0  0  0  0  0  0  0  0  0  0  0
   45.4150   33.6800   44.0500 C   0  0  0  0  0  0  0  0  0  0  0  0
   45.1630   34.6810   44.8580 N   0  0  0  0  0  0  0  0  0  0  0  0
   44.6030   35.0210   40.7730 O   0  0  0  0  0  0  0  0  0  0  0  0
   46.6398   33.7581   46.0725 H   0  0  0  0  0  0  0  0  0  0  0  0
   47.7183   32.3504   45.7053 H   0  0  0  0  0  0  0  0  0  0  0  0
   45.0628   33.4645   48.0414 H   0  0  0  0  0  0  0  0  0  0  0  0
   44.2420   32.0209   49.8336 H   0  0  0  0  0  0  0  0  0  0  0  0
   44.8479   29.6229   49.8170 H   0  0  0  0  0  0  0  0  0  0  0  0
   46.2789   28.7362   47.9779 H   0  0  0  0  0  0  0  0  0  0  0  0
   49.0916   28.8463   45.8934 H   0  0  0  0  0  0  0  0  0  0  0  0
   46.8896   29.4203   45.2425 H   0  0  0  0  0  0  0  0  0  0  0  0
   46.5579   31.9113   43.8601 H   0  0  0  0  0  0  0  0  0  0  0  0
   45.0541   31.7397   44.8173 H   0  0  0  0  0  0  0  0  0  0  0  0
   44.4981   36.6872   45.0261 H   0  0  0  0  0  0  0  0  0  0  0  0
   44.1359   36.9633   42.5360 H   0  0  0  0  0  0  0  0  0  0  0  0
   44.2722   35.8718   40.3900 H   0  0  0  0  0  0  0  0  0  0  0  0
  1  2  1  0
  2  3  2  0
  3  4  1  0
  5  4  2  0
  6  5  1  0
  7  2  1  0
  7  6  2  0
  8  9  2  0
 10  8  1  0
 10  7  1  0
 11  1  1  0
 12 17  2  0
 13 12  1  0
 14 15  1  0
 14 13  2  0
 15 16  2  0
 16 11  1  0
 16 17  1  0
 18 14  1  0
  1 19  1  0
  1 20  1  0
  3 21  1  0
  4 22  1  0
  5 23  1  0
  6 24  1  0
  8 25  1  0
 10 26  1  0
 11 27  1  0
 11 28  1  0
 12 29  1  0
 13 30  1  0
 18 31  1  0
M  ISO  8  19   8  20   8  21  14  22  14  23  14  24  14  25   6  27   8
M  ISO  4  28   8  29  14  30  14  31   3
M  END
>  <minimizedAffinity>  (1) 
-4.71015215

>  <minimizedRMSD>  (1) 
0.726540327

$$$$
