
     RDKit          3D

 23 24  0  0  0  0  0  0  0  0999 V2000
   44.6070   36.0060   44.4780 C   0  0  0  0  0  0  0  0  0  0  0  0
   45.4170   35.5480   43.4040 C   0  0  0  0  0  0  0  0  0  0  0  0
   46.1540   34.3810   43.5930 C   0  0  0  0  0  0  0  0  0  0  0  0
   46.0570   33.7410   44.8010 N   0  0  0  0  0  0  0  0  0  0  0  0
   45.2840   34.2040   45.7850 C   0  0  0  0  0  0  0  0  0  0  0  0
   44.5560   35.3290   45.6420 N   0  0  0  0  0  0  0  0  0  0  0  0
   47.0130   33.8700   42.4940 C   0  0  0  0  0  0  0  0  0  0  0  0
   47.3460   35.0360   41.5770 C   0  0  0  0  0  0  0  0  0  0  0  0
   48.8340   35.0160   41.3450 C   0  0  0  0  0  0  0  0  0  0  0  0
   49.7210   35.1430   42.5270 C   0  0  0  0  0  0  0  0  0  0  0  0
   49.5330   33.7800   41.8610 C   0  0  0  0  0  0  0  0  0  0  0  0
   44.0142   36.9247   44.3577 H   0  0  0  0  0  0  0  0  0  0  0  0
   45.4607   36.0981   42.4525 H   0  0  0  0  0  0  0  0  0  0  0  0
   45.2398   33.6538   46.7365 H   0  0  0  0  0  0  0  0  0  0  0  0
   47.9388   33.4462   42.9102 H   0  0  0  0  0  0  0  0  0  0  0  0
   46.4887   33.0814   41.9344 H   0  0  0  0  0  0  0  0  0  0  0  0
   46.8148   34.9254   40.6201 H   0  0  0  0  0  0  0  0  0  0  0  0
   47.0367   35.9885   42.0320 H   0  0  0  0  0  0  0  0  0  0  0  0
   48.7800   35.5502   40.3850 H   0  0  0  0  0  0  0  0  0  0  0  0
   50.6825   35.6699   42.4384 H   0  0  0  0  0  0  0  0  0  0  0  0
   49.6018   35.5309   43.5494 H   0  0  0  0  0  0  0  0  0  0  0  0
   48.9597   32.9898   42.3678 H   0  0  0  0  0  0  0  0  0  0  0  0
   50.1973   33.0150   41.4328 H   0  0  0  0  0  0  0  0  0  0  0  0
  1  6  2  0
  2  3  2  0
  2  1  1  0
  3  4  1  0
  4  5  2  0
  6  5  1  0
  7  3  1  0
  8  7  1  0
  9  8  1  0
  9 11  1  0
  9 10  1  0
 11 10  1  0
  1 12  1  0
  2 13  1  0
  5 14  1  0
  7 15  1  0
  7 16  1  0
  8 17  1  0
  8 18  1  0
  9 19  1  0
 10 20  1  0
 10 21  1  0
 11 22  1  0
 11 23  1  0
M  ISO  8  12  14  13  14  14  14  15   8  16   8  17   8  18   8  19  13
M  ISO  4  20  13  21  13  22  13  23  13
M  END
>  <minimizedAffinity>  (1) 
-4.07698774

>  <minimizedRMSD>  (1) 
1.65607047

$$$$
