
     RDKit          3D

 33 35  0  0  1  0  0  0  0  0999 V2000
   49.0420   34.8310   41.5440 C   0  0  1  0  0  0  0  0  0  0  0  0
   50.1130   34.5780   42.5520 C   0  0  0  0  0  0  0  0  0  0  0  0
   49.2250   33.4850   42.0830 C   0  0  2  0  0  0  0  0  0  0  0  0
   48.0930   32.3770   39.6330 F   0  0  0  0  0  0  0  0  0  0  0  0
   49.3610   32.0580   39.9700 C   0  0  0  0  0  0  0  0  0  0  0  0
   49.9130   32.5810   41.1110 C   0  0  0  0  0  0  0  0  0  0  0  0
   51.2180   32.2810   41.4780 C   0  0  0  0  0  0  0  0  0  0  0  0
   52.0240   31.4510   40.7250 C   0  0  0  0  0  0  0  0  0  0  0  0
   51.4660   30.9270   39.5770 C   0  0  0  0  0  0  0  0  0  0  0  0
   50.1690   31.2290   39.2190 C   0  0  0  0  0  0  0  0  0  0  0  0
   47.8360   35.5920   41.9970 C   0  0  0  0  0  0  0  0  0  0  0  0
   46.6950   34.5940   42.0160 C   0  0  0  0  0  0  0  0  0  0  0  0
   44.4850   35.9190   44.7480 C   0  0  0  0  0  0  0  0  0  0  0  0
   45.1260   35.7940   43.4880 C   0  0  0  0  0  0  0  0  0  0  0  0
   45.9690   34.7300   43.3110 C   0  0  0  0  0  0  0  0  0  0  0  0
   46.1560   33.8460   44.3300 N   0  0  0  0  0  0  0  0  0  0  0  0
   45.5490   33.9780   45.4980 C   0  0  0  0  0  0  0  0  0  0  0  0
   44.7190   35.0010   45.7190 N   0  0  0  0  0  0  0  0  0  0  0  0
   49.0144   35.2671   40.5345 H   0  0  0  0  0  0  0  0  0  0  0  0
   51.1711   34.5984   42.2520 H   0  0  0  0  0  0  0  0  0  0  0  0
   50.3867   35.0019   43.5294 H   0  0  0  0  0  0  0  0  0  0  0  0
   48.5723   32.7487   42.5747 H   0  0  0  0  0  0  0  0  0  0  0  0
   51.6239   32.7202   42.4012 H   0  0  0  0  0  0  0  0  0  0  0  0
   53.0568   31.2195   41.0244 H   0  0  0  0  0  0  0  0  0  0  0  0
   52.0637   30.2595   38.9389 H   0  0  0  0  0  0  0  0  0  0  0  0
   49.7614   30.7907   38.2961 H   0  0  0  0  0  0  0  0  0  0  0  0
   48.0000   36.0042   43.0036 H   0  0  0  0  0  0  0  0  0  0  0  0
   47.6196   36.4388   41.3291 H   0  0  0  0  0  0  0  0  0  0  0  0
   46.0079   34.8000   41.1820 H   0  0  0  0  0  0  0  0  0  0  0  0
   47.0867   33.5717   41.9091 H   0  0  0  0  0  0  0  0  0  0  0  0
   43.7998   36.7586   44.9369 H   0  0  0  0  0  0  0  0  0  0  0  0
   44.9521   36.5244   42.6841 H   0  0  0  0  0  0  0  0  0  0  0  0
   45.7292   33.2397   46.2933 H   0  0  0  0  0  0  0  0  0  0  0  0
  1 11  1  0
  1  3  1  0
  1  2  1  0
  3  2  1  0
  4  5  1  0
  5  6  2  0
  6  7  1  0
  6  3  1  0
  8  7  2  0
  9  8  1  0
 10  9  2  0
 10  5  1  0
 11 12  1  0
 12 15  1  0
 13 18  2  0
 14 13  1  0
 15 14  2  0
 15 16  1  0
 16 17  2  0
 17 18  1  0
  1 19  1  6
  2 20  1  0
  2 21  1  0
  3 22  1  1
  7 23  1  0
  8 24  1  0
  9 25  1  0
 10 26  1  0
 11 27  1  0
 11 28  1  0
 12 29  1  0
 12 30  1  0
 13 31  1  0
 14 32  1  0
 17 33  1  0
M  ISO  8  19  13  20  13  21  13  22  13  23  14  24  14  25  14  26  14
M  ISO  7  27   8  28   8  29   8  30   8  31  14  32  14  33  14
M  END
>  <minimizedAffinity>  (1) 
-5.01244211

>  <minimizedRMSD>  (1) 
1.32586217

$$$$
