
     RDKit          3D

 33 35  0  0  1  0  0  0  0  0999 V2000
   48.9080   34.7850   41.5060 C   0  0  1  0  0  0  0  0  0  0  0  0
   49.9590   34.5560   42.5320 C   0  0  0  0  0  0  0  0  0  0  0  0
   49.1430   33.4300   42.0090 C   0  0  2  0  0  0  0  0  0  0  0  0
   47.8950   32.5650   39.2670 Cl  0  0  0  0  0  0  0  0  0  0  0  0
   49.4880   32.1220   39.8410 C   0  0  0  0  0  0  0  0  0  0  0  0
   49.9280   32.5860   41.0570 C   0  0  0  0  0  0  0  0  0  0  0  0
   51.1760   32.2960   41.5650 C   0  0  0  0  0  0  0  0  0  0  0  0
   52.0530   31.4940   40.8270 C   0  0  0  0  0  0  0  0  0  0  0  0
   51.6180   31.0250   39.6040 C   0  0  0  0  0  0  0  0  0  0  0  0
   50.3610   31.3340   39.1250 C   0  0  0  0  0  0  0  0  0  0  0  0
   47.6410   35.4550   41.9420 C   0  0  0  0  0  0  0  0  0  0  0  0
   46.6180   34.3470   42.1390 C   0  0  0  0  0  0  0  0  0  0  0  0
   44.4790   35.9370   44.7810 C   0  0  0  0  0  0  0  0  0  0  0  0
   45.1050   35.7050   43.5370 C   0  0  0  0  0  0  0  0  0  0  0  0
   45.8990   34.5940   43.4250 C   0  0  0  0  0  0  0  0  0  0  0  0
   46.0500   33.7700   44.4990 N   0  0  0  0  0  0  0  0  0  0  0  0
   45.4540   34.0020   45.6590 C   0  0  0  0  0  0  0  0  0  0  0  0
   44.6710   35.0750   45.8140 N   0  0  0  0  0  0  0  0  0  0  0  0
   48.8917   35.2587   40.5133 H   0  0  0  0  0  0  0  0  0  0  0  0
   51.0221   34.6400   42.2624 H   0  0  0  0  0  0  0  0  0  0  0  0
   50.1833   34.9643   43.5285 H   0  0  0  0  0  0  0  0  0  0  0  0
   48.5048   32.6488   42.4477 H   0  0  0  0  0  0  0  0  0  0  0  0
   51.4805   32.6927   42.5447 H   0  0  0  0  0  0  0  0  0  0  0  0
   53.0545   31.2458   41.2082 H   0  0  0  0  0  0  0  0  0  0  0  0
   52.2856   30.3932   38.9998 H   0  0  0  0  0  0  0  0  0  0  0  0
   50.0487   30.9407   38.1463 H   0  0  0  0  0  0  0  0  0  0  0  0
   47.8020   35.9969   42.8856 H   0  0  0  0  0  0  0  0  0  0  0  0
   47.2987   36.1871   41.1958 H   0  0  0  0  0  0  0  0  0  0  0  0
   45.9005   34.3510   41.3052 H   0  0  0  0  0  0  0  0  0  0  0  0
   47.1204   33.3688   42.1681 H   0  0  0  0  0  0  0  0  0  0  0  0
   43.8340   36.8180   44.9145 H   0  0  0  0  0  0  0  0  0  0  0  0
   44.9606   36.3908   42.6891 H   0  0  0  0  0  0  0  0  0  0  0  0
   45.6039   33.3083   46.4994 H   0  0  0  0  0  0  0  0  0  0  0  0
  1 11  1  0
  1  3  1  0
  1  2  1  0
  3  2  1  0
  4  5  1  0
  5  6  2  0
  6  7  1  0
  6  3  1  0
  8  7  2  0
  9  8  1  0
 10  9  2  0
 10  5  1  0
 11 12  1  0
 12 15  1  0
 13 18  2  0
 14 13  1  0
 15 14  2  0
 15 16  1  0
 16 17  2  0
 17 18  1  0
  1 19  1  6
  2 20  1  0
  2 21  1  0
  3 22  1  1
  7 23  1  0
  8 24  1  0
  9 25  1  0
 10 26  1  0
 11 27  1  0
 11 28  1  0
 12 29  1  0
 12 30  1  0
 13 31  1  0
 14 32  1  0
 17 33  1  0
M  ISO  8  19  13  20  13  21  13  22  13  23  14  24  14  25  14  26  14
M  ISO  7  27   8  28   8  29   8  30   8  31  14  32  14  33  14
M  END
>  <minimizedAffinity>  (1) 
-5.0361867

>  <minimizedRMSD>  (1) 
1.28146613

$$$$
