
     RDKit          3D

 32 34  0  0  1  0  0  0  0  0999 V2000
   47.6410   35.4770   41.9450 C   0  0  0  0  0  0  0  0  0  0  0  0
   48.9010   34.8070   41.5090 C   0  0  1  0  0  0  0  0  0  0  0  0
   50.0160   34.7250   42.5050 C   0  0  0  0  0  0  0  0  0  0  0  0
   49.2280   33.5250   42.1400 C   0  0  2  0  0  0  0  0  0  0  0  0
   49.9690   32.6240   41.2010 C   0  0  0  0  0  0  0  0  0  0  0  0
   51.2700   32.2380   41.4870 C   0  0  0  0  0  0  0  0  0  0  0  0
   52.0400   31.4250   40.7110 C   0  0  0  0  0  0  0  0  0  0  0  0
   51.4930   30.9440   39.5500 C   0  0  0  0  0  0  0  0  0  0  0  0
   50.2020   31.3070   39.2360 C   0  0  0  0  0  0  0  0  0  0  0  0
   49.4980   32.1050   40.0330 N   0  0  0  0  0  0  0  0  0  0  0  0
   46.6160   34.3710   42.1240 C   0  0  0  0  0  0  0  0  0  0  0  0
   44.4790   35.9200   44.7990 C   0  0  0  0  0  0  0  0  0  0  0  0
   45.1070   35.7070   43.5330 C   0  0  0  0  0  0  0  0  0  0  0  0
   45.9010   34.5990   43.4110 C   0  0  0  0  0  0  0  0  0  0  0  0
   46.0560   33.7600   44.4750 N   0  0  0  0  0  0  0  0  0  0  0  0
   45.4670   33.9770   45.6370 C   0  0  0  0  0  0  0  0  0  0  0  0
   44.6830   35.0480   45.8020 N   0  0  0  0  0  0  0  0  0  0  0  0
   47.3031   36.1903   41.1788 H   0  0  0  0  0  0  0  0  0  0  0  0
   47.7884   36.0429   42.8767 H   0  0  0  0  0  0  0  0  0  0  0  0
   48.8089   35.1655   40.4731 H   0  0  0  0  0  0  0  0  0  0  0  0
   51.0607   34.8219   42.1746 H   0  0  0  0  0  0  0  0  0  0  0  0
   50.2689   35.2413   43.4428 H   0  0  0  0  0  0  0  0  0  0  0  0
   48.6663   32.7680   42.7069 H   0  0  0  0  0  0  0  0  0  0  0  0
   51.7169   32.6196   42.4168 H   0  0  0  0  0  0  0  0  0  0  0  0
   53.0667   31.1633   41.0065 H   0  0  0  0  0  0  0  0  0  0  0  0
   52.0706   30.2845   38.8856 H   0  0  0  0  0  0  0  0  0  0  0  0
   49.7452   30.9299   38.3091 H   0  0  0  0  0  0  0  0  0  0  0  0
   45.8979   34.3912   41.2910 H   0  0  0  0  0  0  0  0  0  0  0  0
   47.1148   33.3907   42.1363 H   0  0  0  0  0  0  0  0  0  0  0  0
   43.8304   36.7951   44.9525 H   0  0  0  0  0  0  0  0  0  0  0  0
   44.9588   36.4027   42.6939 H   0  0  0  0  0  0  0  0  0  0  0  0
   45.6214   33.2759   46.4704 H   0  0  0  0  0  0  0  0  0  0  0  0
  1 11  1  0
  2  1  1  0
  2  4  1  0
  2  3  1  0
  4  3  1  0
  5  6  2  0
  5  4  1  0
  7  6  1  0
  8  7  2  0
  9  8  1  0
  9 10  2  0
 10  5  1  0
 11 14  1  0
 12 17  2  0
 13 12  1  0
 14 13  2  0
 14 15  1  0
 15 16  2  0
 16 17  1  0
  1 18  1  0
  1 19  1  0
  2 20  1  6
  3 21  1  0
  3 22  1  0
  4 23  1  1
  6 24  1  0
  7 25  1  0
  8 26  1  0
  9 27  1  0
 11 28  1  0
 11 29  1  0
 12 30  1  0
 13 31  1  0
 16 32  1  0
M  ISO  8  18   8  19   8  20  13  21  13  22  13  23  13  24  14  25  14
M  ISO  7  26  14  27  14  28   8  29   8  30  14  31  14  32  14
M  END
>  <minimizedAffinity>  (1) 
-4.92288065

>  <minimizedRMSD>  (1) 
1.20780349

$$$$
