
     RDKit          3D

 37 39  0  0  1  0  0  0  0  0999 V2000
   48.9200   34.7000   41.5440 C   0  0  1  0  0  0  0  0  0  0  0  0
   49.9710   34.9780   42.5630 C   0  0  0  0  0  0  0  0  0  0  0  0
   49.4180   33.6020   42.3930 C   0  0  2  0  0  0  0  0  0  0  0  0
   50.3400   32.6740   41.6290 C   0  0  0  0  0  0  0  0  0  0  0  0
   50.8650   31.5590   42.4850 C   0  0  0  0  0  0  0  0  0  0  0  0
   51.7480   30.6610   41.6150 C   0  0  0  0  0  0  0  0  0  0  0  0
   50.9790   30.0910   40.6070 O   0  0  0  0  0  0  0  0  0  0  0  0
   50.4720   31.0280   39.7480 C   0  0  0  0  0  0  0  0  0  0  0  0
   49.7460   32.1680   40.3310 C   0  0  0  0  0  0  0  0  0  0  0  0
   47.5380   35.2010   41.8230 C   0  0  0  0  0  0  0  0  0  0  0  0
   46.7510   34.0020   42.3120 C   0  0  0  0  0  0  0  0  0  0  0  0
   44.5350   35.9520   44.6270 C   0  0  0  0  0  0  0  0  0  0  0  0
   45.2190   35.5640   43.4560 C   0  0  0  0  0  0  0  0  0  0  0  0
   45.9620   34.4150   43.5060 C   0  0  0  0  0  0  0  0  0  0  0  0
   46.0080   33.6990   44.6650 N   0  0  0  0  0  0  0  0  0  0  0  0
   45.3590   34.0760   45.7550 C   0  0  0  0  0  0  0  0  0  0  0  0
   44.6260   35.1930   45.7460 N   0  0  0  0  0  0  0  0  0  0  0  0
   48.8305   34.8672   40.4605 H   0  0  0  0  0  0  0  0  0  0  0  0
   51.0006   35.2021   42.2472 H   0  0  0  0  0  0  0  0  0  0  0  0
   50.0794   35.6791   43.4037 H   0  0  0  0  0  0  0  0  0  0  0  0
   48.9678   32.8622   43.0712 H   0  0  0  0  0  0  0  0  0  0  0  0
   51.2039   33.2906   41.3400 H   0  0  0  0  0  0  0  0  0  0  0  0
   51.4580   31.9736   43.3136 H   0  0  0  0  0  0  0  0  0  0  0  0
   50.0306   30.9781   42.9050 H   0  0  0  0  0  0  0  0  0  0  0  0
   52.5529   31.2619   41.1667 H   0  0  0  0  0  0  0  0  0  0  0  0
   52.1862   29.8657   42.2358 H   0  0  0  0  0  0  0  0  0  0  0  0
   49.7793   30.5101   39.0683 H   0  0  0  0  0  0  0  0  0  0  0  0
   51.3563   31.4757   39.2710 H   0  0  0  0  0  0  0  0  0  0  0  0
   49.7526   32.9921   39.6025 H   0  0  0  0  0  0  0  0  0  0  0  0
   48.7295   31.8159   40.5606 H   0  0  0  0  0  0  0  0  0  0  0  0
   47.5636   35.9829   42.5963 H   0  0  0  0  0  0  0  0  0  0  0  0
   47.0812   35.6448   40.9262 H   0  0  0  0  0  0  0  0  0  0  0  0
   46.0718   33.6546   41.5195 H   0  0  0  0  0  0  0  0  0  0  0  0
   47.4350   33.1817   42.5753 H   0  0  0  0  0  0  0  0  0  0  0  0
   43.9284   36.8696   44.6319 H   0  0  0  0  0  0  0  0  0  0  0  0
   45.1577   36.1631   42.5355 H   0  0  0  0  0  0  0  0  0  0  0  0
   45.4232   33.4687   46.6699 H   0  0  0  0  0  0  0  0  0  0  0  0
  1 10  1  0
  1  3  1  0
  1  2  1  0
  3  2  1  0
  4  3  1  0
  4  5  1  0
  6  5  1  0
  7  6  1  0
  8  9  1  0
  8  7  1  0
  9  4  1  0
 10 11  1  0
 11 14  1  0
 12 17  2  0
 13 14  2  0
 13 12  1  0
 14 15  1  0
 15 16  2  0
 17 16  1  0
  1 18  1  6
  2 19  1  0
  2 20  1  0
  3 21  1  1
  4 22  1  0
  5 23  1  0
  5 24  1  0
  6 25  1  0
  6 26  1  0
  8 27  1  0
  8 28  1  0
  9 29  1  0
  9 30  1  0
 10 31  1  0
 10 32  1  0
 11 33  1  0
 11 34  1  0
 12 35  1  0
 13 36  1  0
 16 37  1  0
M  ISO  8  18  13  19  13  20  13  21  13  22  13  23  13  24  13  25  13
M  ISO  8  26  13  27  13  28  13  29  13  30  13  31   8  32   8  33   8
M  ISO  4  34   8  35  14  36  14  37  14
M  END
>  <minimizedAffinity>  (1) 
-4.7540307

>  <minimizedRMSD>  (1) 
1.108459

$$$$
