
     RDKit          3D

 30 32  0  0  1  0  0  0  0  0999 V2000
   47.6460   35.4390   41.9240 C   0  0  0  0  0  0  0  0  0  0  0  0
   48.9180   34.7650   41.5170 C   0  0  1  0  0  0  0  0  0  0  0  0
   50.0340   34.7610   42.5170 C   0  0  0  0  0  0  0  0  0  0  0  0
   49.2760   33.5250   42.2010 C   0  0  2  0  0  0  0  0  0  0  0  0
   50.0580   32.6180   41.2920 C   0  0  0  0  0  0  0  0  0  0  0  0
   49.6190   31.9840   40.1480 C   0  0  0  0  0  0  0  0  0  0  0  0
   50.6130   31.2400   39.5860 N   0  0  0  0  0  0  0  0  0  0  0  0
   51.6460   31.4450   40.4190 C   0  0  0  0  0  0  0  0  0  0  0  0
   51.3580   32.2550   41.4420 N   0  0  0  0  0  0  0  0  0  0  0  0
   46.6300   34.3220   42.1220 C   0  0  0  0  0  0  0  0  0  0  0  0
   44.4870   35.9220   44.7590 C   0  0  0  0  0  0  0  0  0  0  0  0
   45.1140   35.6910   43.5080 C   0  0  0  0  0  0  0  0  0  0  0  0
   45.9070   34.5790   43.4010 C   0  0  0  0  0  0  0  0  0  0  0  0
   46.0580   33.7550   44.4790 N   0  0  0  0  0  0  0  0  0  0  0  0
   45.4630   33.9880   45.6360 C   0  0  0  0  0  0  0  0  0  0  0  0
   44.6820   35.0620   45.7840 N   0  0  0  0  0  0  0  0  0  0  0  0
   47.3087   36.1285   41.1361 H   0  0  0  0  0  0  0  0  0  0  0  0
   47.7778   36.0336   42.8400 H   0  0  0  0  0  0  0  0  0  0  0  0
   48.8136   35.0650   40.4639 H   0  0  0  0  0  0  0  0  0  0  0  0
   51.0765   34.8717   42.1838 H   0  0  0  0  0  0  0  0  0  0  0  0
   50.2719   35.3247   43.4311 H   0  0  0  0  0  0  0  0  0  0  0  0
   48.7315   32.7777   42.7968 H   0  0  0  0  0  0  0  0  0  0  0  0
   48.5999   32.0680   39.7425 H   0  0  0  0  0  0  0  0  0  0  0  0
   50.5800   30.6632   38.7333 H   0  0  0  0  0  0  0  0  0  0  0  0
   52.6363   30.9890   40.2730 H   0  0  0  0  0  0  0  0  0  0  0  0
   45.9165   34.3135   41.2849 H   0  0  0  0  0  0  0  0  0  0  0  0
   47.1366   33.3463   42.1584 H   0  0  0  0  0  0  0  0  0  0  0  0
   43.8412   36.8020   44.8956 H   0  0  0  0  0  0  0  0  0  0  0  0
   44.9697   36.3759   42.6594 H   0  0  0  0  0  0  0  0  0  0  0  0
   45.6110   33.2965   46.4786 H   0  0  0  0  0  0  0  0  0  0  0  0
  1 10  1  0
  2  1  1  0
  2  4  1  0
  2  3  1  0
  4  3  1  0
  5  9  1  0
  5  4  1  0
  6  5  2  0
  7  6  1  0
  7  8  1  0
  8  9  2  0
 10 13  1  0
 11 16  2  0
 12 11  1  0
 13 12  2  0
 13 14  1  0
 14 15  2  0
 15 16  1  0
  1 17  1  0
  1 18  1  0
  2 19  1  6
  3 20  1  0
  3 21  1  0
  4 22  1  1
  6 23  1  0
  7 24  1  0
  8 25  1  0
 10 26  1  0
 10 27  1  0
 11 28  1  0
 12 29  1  0
 15 30  1  0
M  ISO  8  17   8  18   8  19  13  20  13  21  13  22  13  23  14  24   9
M  ISO  6  25  14  26   8  27   8  28  14  29  14  30  14
M  END
>  <minimizedAffinity>  (1) 
-4.73958206

>  <minimizedRMSD>  (1) 
1.08408952

$$$$
