
     RDKit          3D

 37 39  0  0  1  0  0  0  0  0999 V2000
   48.9710   34.7690   41.5210 C   0  0  1  0  0  0  0  0  0  0  0  0
   50.0740   34.7910   42.5300 C   0  0  0  0  0  0  0  0  0  0  0  0
   49.3490   33.5310   42.2150 C   0  0  2  0  0  0  0  0  0  0  0  0
   50.1300   32.6480   41.3500 N   0  0  0  0  0  0  0  0  0  0  0  0
   49.4610   32.1830   40.2020 C   0  0  0  0  0  0  0  0  0  0  0  0
   50.4400   31.2520   39.5050 C   0  0  0  0  0  0  0  0  0  0  0  0
   50.7540   30.1090   40.2990 N   0  0  0  0  0  0  0  0  0  0  0  0
   50.6430   30.3340   41.7200 C   0  0  0  0  0  0  0  0  0  0  0  0
   51.0080   31.7800   42.0400 C   0  0  0  0  0  0  0  0  0  0  0  0
   47.6740   35.4040   41.9020 C   0  0  0  0  0  0  0  0  0  0  0  0
   46.7110   34.2670   42.1610 C   0  0  0  0  0  0  0  0  0  0  0  0
   44.5040   35.8990   44.7210 C   0  0  0  0  0  0  0  0  0  0  0  0
   45.1660   35.6440   43.4890 C   0  0  0  0  0  0  0  0  0  0  0  0
   45.9660   34.5350   43.4240 C   0  0  0  0  0  0  0  0  0  0  0  0
   46.0930   33.7350   44.5190 N   0  0  0  0  0  0  0  0  0  0  0  0
   45.4700   33.9880   45.6590 C   0  0  0  0  0  0  0  0  0  0  0  0
   44.6780   35.0590   45.7710 N   0  0  0  0  0  0  0  0  0  0  0  0
   48.8758   35.0717   40.4677 H   0  0  0  0  0  0  0  0  0  0  0  0
   51.1168   34.9245   42.2062 H   0  0  0  0  0  0  0  0  0  0  0  0
   50.2886   35.3641   43.4441 H   0  0  0  0  0  0  0  0  0  0  0  0
   48.8163   32.7739   42.8092 H   0  0  0  0  0  0  0  0  0  0  0  0
   48.5481   31.6381   40.4843 H   0  0  0  0  0  0  0  0  0  0  0  0
   49.1526   33.0118   39.5478 H   0  0  0  0  0  0  0  0  0  0  0  0
   49.9945   30.9140   38.5578 H   0  0  0  0  0  0  0  0  0  0  0  0
   51.3722   31.8098   39.3319 H   0  0  0  0  0  0  0  0  0  0  0  0
   50.1101   29.3479   40.0402 H   0  0  0  0  0  0  0  0  0  0  0  0
   49.6097   30.1376   42.0420 H   0  0  0  0  0  0  0  0  0  0  0  0
   51.3294   29.6582   42.2512 H   0  0  0  0  0  0  0  0  0  0  0  0
   52.0429   31.9764   41.7231 H   0  0  0  0  0  0  0  0  0  0  0  0
   50.9193   31.9512   43.1230 H   0  0  0  0  0  0  0  0  0  0  0  0
   47.7990   36.0128   42.8096 H   0  0  0  0  0  0  0  0  0  0  0  0
   47.3047   36.0710   41.1091 H   0  0  0  0  0  0  0  0  0  0  0  0
   46.0010   34.1882   41.3245 H   0  0  0  0  0  0  0  0  0  0  0  0
   47.2689   33.3235   42.2536 H   0  0  0  0  0  0  0  0  0  0  0  0
   43.8505   36.7780   44.8224 H   0  0  0  0  0  0  0  0  0  0  0  0
   45.0405   36.3107   42.6231 H   0  0  0  0  0  0  0  0  0  0  0  0
   45.6045   33.3141   46.5179 H   0  0  0  0  0  0  0  0  0  0  0  0
  1 10  1  0
  1  3  1  0
  1  2  1  0
  3  2  1  0
  4  9  1  0
  4  3  1  0
  5  4  1  0
  6  5  1  0
  6  7  1  0
  7  8  1  0
  8  9  1  0
 10 11  1  0
 11 14  1  0
 12 17  2  0
 13 12  1  0
 14 13  2  0
 14 15  1  0
 15 16  2  0
 16 17  1  0
  1 18  1  6
  2 19  1  0
  2 20  1  0
  3 21  1  1
  5 22  1  0
  5 23  1  0
  6 24  1  0
  6 25  1  0
  7 26  1  0
  8 27  1  0
  8 28  1  0
  9 29  1  0
  9 30  1  0
 10 31  1  0
 10 32  1  0
 11 33  1  0
 11 34  1  0
 12 35  1  0
 13 36  1  0
 16 37  1  0
M  ISO  8  18  13  19  13  20  13  21  13  22  13  23  13  24  13  25  13
M  ISO  8  26   5  27  13  28  13  29  13  30  13  31   8  32   8  33   8
M  ISO  4  34   8  35  14  36  14  37  14
M  END
>  <minimizedAffinity>  (1) 
-4.60523319

>  <minimizedRMSD>  (1) 
1.4400537

$$$$
