
     RDKit          3D

 51 55  0  0  1  0  0  0  0  0999 V2000
   46.6860   35.5050   42.2450 C   0  0  0  0  0  0  0  0  0  0  0  0
   47.8980   35.0630   41.4940 C   0  0  1  0  0  0  0  0  0  0  0  0
   49.1200   35.9260   41.5760 C   0  0  0  0  0  0  0  0  0  0  0  0
   49.0490   34.6150   42.2690 C   0  0  2  0  0  0  0  0  0  0  0  0
   49.8200   33.5700   41.5990 N   0  0  0  0  0  0  0  0  0  0  0  0
   49.0500   32.6860   40.8010 C   0  0  0  0  0  0  0  0  0  0  0  0
   50.0370   31.6870   40.2220 C   0  0  0  0  0  0  0  0  0  0  0  0
   50.6600   30.9130   41.2360 N   0  0  0  0  0  0  0  0  0  0  0  0
   50.7760   31.5890   42.5150 C   0  0  0  0  0  0  0  0  0  0  0  0
   50.9390   33.0930   42.2910 C   0  0  0  0  0  0  0  0  0  0  0  0
   45.8570   34.2780   42.4960 C   0  0  0  0  0  0  0  0  0  0  0  0
   44.7000   34.7440   46.0320 C   0  0  0  0  0  0  0  0  0  0  0  0
   44.8300   34.9130   44.6360 C   0  0  0  0  0  0  0  0  0  0  0  0
   45.7050   34.1060   43.9770 C   0  0  0  0  0  0  0  0  0  0  0  0
   46.4170   33.1750   44.6750 N   0  0  0  0  0  0  0  0  0  0  0  0
   46.2890   33.0260   45.9740 C   0  0  0  0  0  0  0  0  0  0  0  0
   45.4340   33.8030   46.6680 N   0  0  0  0  0  0  0  0  0  0  0  0
   47.2940   30.7770   46.1350 C   0  0  0  0  0  0  0  0  0  0  0  0
   47.0690   32.0140   46.7030 C   0  0  0  0  0  0  0  0  0  0  0  0
   47.5840   32.2940   47.9620 C   0  0  0  0  0  0  0  0  0  0  0  0
   48.3070   31.2760   48.5720 C   0  0  0  0  0  0  0  0  0  0  0  0
   48.8760   31.3730   49.7870 N   0  0  0  0  0  0  0  0  0  0  0  0
   49.4830   30.2170   50.0550 C   0  0  0  0  0  0  0  0  0  0  0  0
   49.3030   29.3470   48.9790 C   0  0  0  0  0  0  0  0  0  0  0  0
   48.5480   30.0350   48.0340 C   0  0  0  0  0  0  0  0  0  0  0  0
   48.0260   29.7730   46.7760 C   0  0  0  0  0  0  0  0  0  0  0  0
   46.1152   36.2316   41.6482 H   0  0  0  0  0  0  0  0  0  0  0  0
   46.9648   35.9922   43.1910 H   0  0  0  0  0  0  0  0  0  0  0  0
   47.3009   34.6377   40.6739 H   0  0  0  0  0  0  0  0  0  0  0  0
   49.7683   36.0534   40.6965 H   0  0  0  0  0  0  0  0  0  0  0  0
   49.3316   36.9632   41.8752 H   0  0  0  0  0  0  0  0  0  0  0  0
   49.2011   34.2772   43.3047 H   0  0  0  0  0  0  0  0  0  0  0  0
   48.2988   32.1697   41.4167 H   0  0  0  0  0  0  0  0  0  0  0  0
   48.5061   33.2234   40.0102 H   0  0  0  0  0  0  0  0  0  0  0  0
   49.5010   31.0125   39.5380 H   0  0  0  0  0  0  0  0  0  0  0  0
   50.8198   32.2484   39.6909 H   0  0  0  0  0  0  0  0  0  0  0  0
   50.1066   30.0552   41.3732 H   0  0  0  0  0  0  0  0  0  0  0  0
   49.8692   31.4042   43.1097 H   0  0  0  0  0  0  0  0  0  0  0  0
   51.6553   31.2036   43.0520 H   0  0  0  0  0  0  0  0  0  0  0  0
   51.8474   33.2825   41.7003 H   0  0  0  0  0  0  0  0  0  0  0  0
   51.0269   33.6076   43.2592 H   0  0  0  0  0  0  0  0  0  0  0  0
   44.8668   34.3971   42.0321 H   0  0  0  0  0  0  0  0  0  0  0  0
   46.3471   33.3946   42.0608 H   0  0  0  0  0  0  0  0  0  0  0  0
   44.0029   35.3767   46.6010 H   0  0  0  0  0  0  0  0  0  0  0  0
   44.2429   35.6724   44.0988 H   0  0  0  0  0  0  0  0  0  0  0  0
   46.8804   30.5722   45.1365 H   0  0  0  0  0  0  0  0  0  0  0  0
   47.4282   33.2677   48.4494 H   0  0  0  0  0  0  0  0  0  0  0  0
   48.8476   32.1977   50.4034 H   0  0  0  0  0  0  0  0  0  0  0  0
   50.0371   29.9859   50.9767 H   0  0  0  0  0  0  0  0  0  0  0  0
   49.6835   28.3184   48.8943 H   0  0  0  0  0  0  0  0  0  0  0  0
   48.1844   28.7973   46.2935 H   0  0  0  0  0  0  0  0  0  0  0  0
  1 11  1  0
  2  3  1  0
  2  1  1  0
  2  4  1  0
  3  4  1  0
  5  4  1  0
  5 10  1  0
  6  5  1  0
  7  6  1  0
  7  8  1  0
  8  9  1  0
 10  9  1  0
 11 14  1  0
 12 17  2  0
 13 12  1  0
 14 13  2  0
 14 15  1  0
 15 16  2  0
 16 17  1  0
 16 19  1  0
 18 19  2  0
 18 26  1  0
 19 20  1  0
 20 21  2  0
 21 22  1  0
 22 23  1  0
 24 23  2  0
 25 21  1  0
 25 24  1  0
 26 25  2  0
  1 27  1  0
  1 28  1  0
  2 29  1  6
  3 30  1  0
  3 31  1  0
  4 32  1  1
  6 33  1  0
  6 34  1  0
  7 35  1  0
  7 36  1  0
  8 37  1  0
  9 38  1  0
  9 39  1  0
 10 40  1  0
 10 41  1  0
 11 42  1  0
 11 43  1  0
 12 44  1  0
 13 45  1  0
 18 46  1  0
 20 47  1  0
 22 48  1  0
 23 49  1  0
 24 50  1  0
 26 51  1  0
M  ISO  8  27   8  28   8  29  13  30  13  31  13  32  13  33  13  34  13
M  ISO  8  35  13  36  13  37   5  38  13  39  13  40  13  41  13  42   8
M  ISO  8  43   8  44  14  45  14  46  14  47  14  48   9  49  14  50  14
M  ISO  1  51  14
M  END
>  <minimizedAffinity>  (1) 
-6.34323549

>  <minimizedRMSD>  (1) 
1.84938145

$$$$
