
     RDKit          3D

 47 50  0  0  1  0  0  0  0  0999 V2000
   47.4220   35.3060   41.9580 C   0  0  0  0  0  0  0  0  0  0  0  0
   48.7490   34.7820   41.5170 C   0  0  1  0  0  0  0  0  0  0  0  0
   49.9040   34.9580   42.4600 C   0  0  0  0  0  0  0  0  0  0  0  0
   49.2790   33.6240   42.2170 C   0  0  2  0  0  0  0  0  0  0  0  0
   50.1010   32.7620   41.3680 N   0  0  0  0  0  0  0  0  0  0  0  0
   49.4260   32.2630   40.2250 C   0  0  0  0  0  0  0  0  0  0  0  0
   50.4340   31.3840   39.5050 C   0  0  0  0  0  0  0  0  0  0  0  0
   50.8400   30.2760   40.2950 N   0  0  0  0  0  0  0  0  0  0  0  0
   50.7510   30.4970   41.7270 C   0  0  0  0  0  0  0  0  0  0  0  0
   51.0500   31.9690   42.0250 C   0  0  0  0  0  0  0  0  0  0  0  0
   46.5730   34.1070   42.2870 C   0  0  0  0  0  0  0  0  0  0  0  0
   44.4960   35.6050   45.0380 C   0  0  0  0  0  0  0  0  0  0  0  0
   45.0810   35.4090   43.7470 C   0  0  0  0  0  0  0  0  0  0  0  0
   45.9270   34.3480   43.6190 C   0  0  0  0  0  0  0  0  0  0  0  0
   46.1730   33.5440   44.6860 N   0  0  0  0  0  0  0  0  0  0  0  0
   45.6310   33.7350   45.8650 C   0  0  0  0  0  0  0  0  0  0  0  0
   44.7870   34.7630   46.0630 N   0  0  0  0  0  0  0  0  0  0  0  0
   45.9460   32.8270   46.9660 C   0  0  0  0  0  0  0  0  0  0  0  0
   45.0450   32.5910   47.9930 C   0  0  0  0  0  0  0  0  0  0  0  0
   45.4340   31.7160   48.9920 C   0  0  0  0  0  0  0  0  0  0  0  0
   46.6530   31.0780   49.0130 C   0  0  0  0  0  0  0  0  0  0  0  0
   47.5410   31.3290   47.9740 C   0  0  0  0  0  0  0  0  0  0  0  0
   47.1740   32.1900   46.9810 C   0  0  0  0  0  0  0  0  0  0  0  0
   46.9571   35.8899   41.1500 H   0  0  0  0  0  0  0  0  0  0  0  0
   47.5273   35.9684   42.8298 H   0  0  0  0  0  0  0  0  0  0  0  0
   48.5646   35.0290   40.4611 H   0  0  0  0  0  0  0  0  0  0  0  0
   50.9091   35.1793   42.0717 H   0  0  0  0  0  0  0  0  0  0  0  0
   50.1152   35.5816   43.3412 H   0  0  0  0  0  0  0  0  0  0  0  0
   48.8417   32.8423   42.8555 H   0  0  0  0  0  0  0  0  0  0  0  0
   48.5476   31.6729   40.5253 H   0  0  0  0  0  0  0  0  0  0  0  0
   49.0624   33.0766   39.5802 H   0  0  0  0  0  0  0  0  0  0  0  0
   49.9780   31.0092   38.5768 H   0  0  0  0  0  0  0  0  0  0  0  0
   51.3251   31.9939   39.2952 H   0  0  0  0  0  0  0  0  0  0  0  0
   50.2418   29.4726   40.0551 H   0  0  0  0  0  0  0  0  0  0  0  0
   49.7378   30.2487   42.0760 H   0  0  0  0  0  0  0  0  0  0  0  0
   51.4794   29.8576   42.2472 H   0  0  0  0  0  0  0  0  0  0  0  0
   52.0578   32.2224   41.6641 H   0  0  0  0  0  0  0  0  0  0  0  0
   51.0028   32.1489   43.1092 H   0  0  0  0  0  0  0  0  0  0  0  0
   45.8000   33.9740   41.5158 H   0  0  0  0  0  0  0  0  0  0  0  0
   47.1919   33.1983   42.3213 H   0  0  0  0  0  0  0  0  0  0  0  0
   43.8047   36.4448   45.2016 H   0  0  0  0  0  0  0  0  0  0  0  0
   44.8598   36.0788   42.9029 H   0  0  0  0  0  0  0  0  0  0  0  0
   44.0599   33.0800   48.0129 H   0  0  0  0  0  0  0  0  0  0  0  0
   44.7302   31.5197   49.8143 H   0  0  0  0  0  0  0  0  0  0  0  0
   46.9170   30.3890   49.8289 H   0  0  0  0  0  0  0  0  0  0  0  0
   48.5263   30.8403   47.9523 H   0  0  0  0  0  0  0  0  0  0  0  0
   47.8813   32.3850   46.1614 H   0  0  0  0  0  0  0  0  0  0  0  0
  1 11  1  0
  2  1  1  0
  2  4  1  0
  2  3  1  0
  4  3  1  0
  5 10  1  0
  5  4  1  0
  6  5  1  0
  7  6  1  0
  7  8  1  0
  8  9  1  0
  9 10  1  0
 11 14  1  0
 12 17  2  0
 13 12  1  0
 14 13  2  0
 14 15  1  0
 15 16  2  0
 16 17  1  0
 16 18  1  0
 18 23  1  0
 18 19  2  0
 19 20  1  0
 20 21  2  0
 22 21  1  0
 23 22  2  0
  1 24  1  0
  1 25  1  0
  2 26  1  6
  3 27  1  0
  3 28  1  0
  4 29  1  1
  6 30  1  0
  6 31  1  0
  7 32  1  0
  7 33  1  0
  8 34  1  0
  9 35  1  0
  9 36  1  0
 10 37  1  0
 10 38  1  0
 11 39  1  0
 11 40  1  0
 12 41  1  0
 13 42  1  0
 19 43  1  0
 20 44  1  0
 21 45  1  0
 22 46  1  0
 23 47  1  0
M  ISO  8  24   8  25   8  26  13  27  13  28  13  29  13  30  13  31  13
M  ISO  8  32  13  33  13  34   5  35  13  36  13  37  13  38  13  39   8
M  ISO  8  40   8  41  14  42  14  43  14  44  14  45  14  46  14  47  14
M  END
>  <minimizedAffinity>  (1) 
-6.19975615

>  <minimizedRMSD>  (1) 
0.436210036

$$$$
