
     RDKit          3D

 38 40  0  0  1  0  0  0  0  0999 V2000
   48.9790   34.7810   41.5220 C   0  0  1  0  0  0  0  0  0  0  0  0
   50.0850   34.7890   42.5350 C   0  0  0  0  0  0  0  0  0  0  0  0
   49.3510   33.5430   42.1910 C   0  0  2  0  0  0  0  0  0  0  0  0
   50.1190   32.6350   41.3510 N   0  0  0  0  0  0  0  0  0  0  0  0
   49.4410   32.1960   40.1870 C   0  0  0  0  0  0  0  0  0  0  0  0
   50.4090   31.2720   39.4710 C   0  0  0  0  0  0  0  0  0  0  0  0
   50.7110   30.1220   40.2460 N   0  0  0  0  0  0  0  0  0  0  0  0
   50.6200   30.3310   41.6820 C   0  0  0  0  0  0  0  0  0  0  0  0
   51.0030   31.7760   42.0140 C   0  0  0  0  0  0  0  0  0  0  0  0
   47.6840   35.4230   41.9040 C   0  0  0  0  0  0  0  0  0  0  0  0
   46.6890   34.3070   42.0860 C   0  0  0  0  0  0  0  0  0  0  0  0
   44.5500   35.7240   44.8290 C   0  0  0  0  0  0  0  0  0  0  0  0
   45.1770   35.5650   43.5580 C   0  0  0  0  0  0  0  0  0  0  0  0
   46.0100   34.4970   43.4080 C   0  0  0  0  0  0  0  0  0  0  0  0
   46.2080   33.6480   44.4460 N   0  0  0  0  0  0  0  0  0  0  0  0
   45.6310   33.7970   45.6160 C   0  0  0  0  0  0  0  0  0  0  0  0
   44.8000   34.8280   45.8240 N   0  0  0  0  0  0  0  0  0  0  0  0
   45.8750   32.6920   47.0040 S   0  0  0  0  0  0  0  0  0  0  0  0
   48.8833   35.0949   40.4721 H   0  0  0  0  0  0  0  0  0  0  0  0
   51.1288   34.9239   42.2153 H   0  0  0  0  0  0  0  0  0  0  0  0
   50.3027   35.3451   43.4588 H   0  0  0  0  0  0  0  0  0  0  0  0
   48.8038   32.7818   42.7664 H   0  0  0  0  0  0  0  0  0  0  0  0
   48.5235   31.6537   40.4593 H   0  0  0  0  0  0  0  0  0  0  0  0
   49.1399   33.0407   39.5499 H   0  0  0  0  0  0  0  0  0  0  0  0
   49.9584   30.9521   38.5199 H   0  0  0  0  0  0  0  0  0  0  0  0
   51.3449   31.8240   39.2993 H   0  0  0  0  0  0  0  0  0  0  0  0
   50.0516   29.3747   39.9858 H   0  0  0  0  0  0  0  0  0  0  0  0
   49.5895   30.1391   42.0157 H   0  0  0  0  0  0  0  0  0  0  0  0
   51.3068   29.6427   42.1964 H   0  0  0  0  0  0  0  0  0  0  0  0
   52.0322   31.9729   41.6795 H   0  0  0  0  0  0  0  0  0  0  0  0
   50.9441   31.9407   43.1000 H   0  0  0  0  0  0  0  0  0  0  0  0
   47.8008   35.9844   42.8427 H   0  0  0  0  0  0  0  0  0  0  0  0
   47.3492   36.1317   41.1322 H   0  0  0  0  0  0  0  0  0  0  0  0
   45.9442   34.3364   41.2771 H   0  0  0  0  0  0  0  0  0  0  0  0
   47.2002   33.3334   42.0576 H   0  0  0  0  0  0  0  0  0  0  0  0
   43.8665   36.5677   45.0053 H   0  0  0  0  0  0  0  0  0  0  0  0
   44.9963   36.2728   42.7356 H   0  0  0  0  0  0  0  0  0  0  0  0
   45.7214   33.3878   48.1741 H   0  0  0  0  0  0  0  0  0  0  0  0
  1 10  1  0
  1  3  1  0
  1  2  1  0
  3  2  1  0
  4  9  1  0
  4  3  1  0
  5  4  1  0
  6  5  1  0
  6  7  1  0
  7  8  1  0
  8  9  1  0
 10 11  1  0
 11 14  1  0
 12 17  2  0
 13 12  1  0
 14 13  2  0
 14 15  1  0
 15 16  2  0
 16 17  1  0
 16 18  1  0
  1 19  1  6
  2 20  1  0
  2 21  1  0
  3 22  1  1
  5 23  1  0
  5 24  1  0
  6 25  1  0
  6 26  1  0
  7 27  1  0
  8 28  1  0
  8 29  1  0
  9 30  1  0
  9 31  1  0
 10 32  1  0
 10 33  1  0
 11 34  1  0
 11 35  1  0
 12 36  1  0
 13 37  1  0
 18 38  1  0
M  ISO  8  19  13  20  13  21  13  22  13  23  13  24  13  25  13  26  13
M  ISO  8  27   5  28  13  29  13  30  13  31  13  32   8  33   8  34   8
M  ISO  4  35   8  36  14  37  14  38  11
M  END
>  <minimizedAffinity>  (1) 
-4.80411482

>  <minimizedRMSD>  (1) 
0.14136754

$$$$
