
     RDKit          3D

 41 43  0  0  0  0  0  0  0  0999 V2000
   44.6650   36.3330   44.0130 C   0  0  0  0  0  0  0  0  0  0  0  0
   44.7580   35.5050   45.1320 C   0  0  0  0  0  0  0  0  0  0  0  0
   45.3780   34.2760   44.9690 C   0  0  0  0  0  0  0  0  0  0  0  0
   45.8650   33.9300   43.7490 N   0  0  0  0  0  0  0  0  0  0  0  0
   45.7550   34.7670   42.6770 C   0  0  0  0  0  0  0  0  0  0  0  0
   45.1550   35.9660   42.8160 N   0  0  0  0  0  0  0  0  0  0  0  0
   48.5410   35.6590   42.1230 Cl  0  0  0  0  0  0  0  0  0  0  0  0
   47.5610   34.7040   41.0260 C   0  0  0  0  0  0  0  0  0  0  0  0
   46.2990   34.3500   41.3780 C   0  0  0  0  0  0  0  0  0  0  0  0
   45.4990   33.5940   40.5220 C   0  0  0  0  0  0  0  0  0  0  0  0
   46.0420   33.2260   39.3160 C   0  0  0  0  0  0  0  0  0  0  0  0
   47.3030   33.5820   38.9690 C   0  0  0  0  0  0  0  0  0  0  0  0
   48.0800   34.3210   39.8090 C   0  0  0  0  0  0  0  0  0  0  0  0
   45.4940   33.3750   46.1360 C   0  0  0  0  0  0  0  0  0  0  0  0
   46.8600   32.7500   46.2970 C   0  0  0  0  0  0  0  0  0  0  0  0
   46.9700   32.1930   47.6320 N   0  0  0  0  0  0  0  0  0  0  0  0
   47.2890   30.7860   47.6040 C   0  0  0  0  0  0  0  0  0  0  0  0
   46.1270   29.8600   47.5850 C   0  0  0  0  0  0  0  0  0  0  0  0
   45.1110   30.1310   48.6630 C   0  0  0  0  0  0  0  0  0  0  0  0
   45.4580   31.3940   49.4040 C   0  0  0  0  0  0  0  0  0  0  0  0
   45.7610   32.4660   48.3770 C   0  0  0  0  0  0  0  0  0  0  0  0
   44.1770   37.3138   44.1129 H   0  0  0  0  0  0  0  0  0  0  0  0
   44.3545   35.8158   46.1070 H   0  0  0  0  0  0  0  0  0  0  0  0
   44.4752   33.3045   40.8014 H   0  0  0  0  0  0  0  0  0  0  0  0
   45.4401   32.6287   38.6154 H   0  0  0  0  0  0  0  0  0  0  0  0
   47.7051   33.2693   37.9940 H   0  0  0  0  0  0  0  0  0  0  0  0
   49.1025   34.6065   39.5209 H   0  0  0  0  0  0  0  0  0  0  0  0
   45.2696   33.9543   47.0438 H   0  0  0  0  0  0  0  0  0  0  0  0
   44.7842   32.5506   45.9731 H   0  0  0  0  0  0  0  0  0  0  0  0
   46.9902   31.9511   45.5522 H   0  0  0  0  0  0  0  0  0  0  0  0
   47.6379   33.5132   46.1474 H   0  0  0  0  0  0  0  0  0  0  0  0
   47.8886   30.5937   46.7021 H   0  0  0  0  0  0  0  0  0  0  0  0
   47.8192   30.5809   48.5457 H   0  0  0  0  0  0  0  0  0  0  0  0
   45.6282   29.9506   46.6088 H   0  0  0  0  0  0  0  0  0  0  0  0
   46.5220   28.8495   47.7663 H   0  0  0  0  0  0  0  0  0  0  0  0
   44.1169   30.2407   48.2051 H   0  0  0  0  0  0  0  0  0  0  0  0
   45.1093   29.2899   49.3719 H   0  0  0  0  0  0  0  0  0  0  0  0
   44.6091   31.7054   50.0305 H   0  0  0  0  0  0  0  0  0  0  0  0
   46.3287   31.2298   50.0559 H   0  0  0  0  0  0  0  0  0  0  0  0
   45.8762   33.4291   48.8958 H   0  0  0  0  0  0  0  0  0  0  0  0
   44.9256   32.4894   47.6617 H   0  0  0  0  0  0  0  0  0  0  0  0
  1  2  2  0
  3  2  1  0
  3 14  1  0
  4  3  2  0
  5  6  2  0
  5  4  1  0
  6  1  1  0
  8  9  2  0
  8  7  1  0
  9  5  1  0
 10  9  1  0
 11 10  2  0
 12 11  1  0
 12 13  2  0
 13  8  1  0
 14 15  1  0
 15 16  1  0
 16 21  1  0
 17 16  1  0
 18 17  1  0
 18 19  1  0
 19 20  1  0
 21 20  1  0
  1 22  1  0
  2 23  1  0
 10 24  1  0
 11 25  1  0
 12 26  1  0
 13 27  1  0
 14 28  1  0
 14 29  1  0
 15 30  1  0
 15 31  1  0
 17 32  1  0
 17 33  1  0
 18 34  1  0
 18 35  1  0
 19 36  1  0
 19 37  1  0
 20 38  1  0
 20 39  1  0
 21 40  1  0
 21 41  1  0
M  ISO  8  22  14  23  14  24  14  25  14  26  14  27  14  28   8  29   8
M  ISO  8  30   8  31   8  32  13  33  13  34  13  35  13  36  13  37  13
M  ISO  4  38  13  39  13  40  13  41  13
M  END
>  <minimizedAffinity>  (1) 
-6.14801025

>  <minimizedRMSD>  (1) 
0.536019206

$$$$
