
     RDKit          3D

 39 41  0  0  0  0  0  0  0  0999 V2000
   44.5900   36.2520   43.9170 C   0  0  0  0  0  0  0  0  0  0  0  0
   44.7990   35.4700   45.0570 C   0  0  0  0  0  0  0  0  0  0  0  0
   45.5220   34.2950   44.9050 C   0  0  0  0  0  0  0  0  0  0  0  0
   45.9880   33.9600   43.6750 N   0  0  0  0  0  0  0  0  0  0  0  0
   45.7670   34.7450   42.5850 C   0  0  0  0  0  0  0  0  0  0  0  0
   45.0710   35.8830   42.7140 N   0  0  0  0  0  0  0  0  0  0  0  0
   48.5200   35.6980   41.9740 Cl  0  0  0  0  0  0  0  0  0  0  0  0
   47.5530   34.7010   40.9080 C   0  0  0  0  0  0  0  0  0  0  0  0
   46.2990   34.3220   41.2920 C   0  0  0  0  0  0  0  0  0  0  0  0
   45.4990   33.5240   40.4600 C   0  0  0  0  0  0  0  0  0  0  0  0
   46.0500   33.1570   39.2610 C   0  0  0  0  0  0  0  0  0  0  0  0
   47.2950   33.5340   38.8790 C   0  0  0  0  0  0  0  0  0  0  0  0
   48.0640   34.3070   39.6890 C   0  0  0  0  0  0  0  0  0  0  0  0
   45.7430   33.4620   46.1200 C   0  0  0  0  0  0  0  0  0  0  0  0
   46.6390   32.2640   45.8420 C   0  0  0  0  0  0  0  0  0  0  0  0
   45.7980   30.6000   47.3960 C   0  0  0  0  0  0  0  0  0  0  0  0
   45.9540   30.9840   46.0820 C   0  0  0  0  0  0  0  0  0  0  0  0
   45.4740   30.1760   45.0450 C   0  0  0  0  0  0  0  0  0  0  0  0
   44.8320   28.9730   45.3220 C   0  0  0  0  0  0  0  0  0  0  0  0
   44.6830   28.5990   46.6580 C   0  0  0  0  0  0  0  0  0  0  0  0
   45.1570   29.3980   47.6730 C   0  0  0  0  0  0  0  0  0  0  0  0
   46.3460   31.5090   48.7640 S   0  0  0  0  0  0  0  0  0  0  0  0
   45.2590   31.5070   49.8170 O   0  0  0  0  0  0  0  0  0  0  0  0
   47.5550   30.8470   49.3370 O   0  0  0  0  0  0  0  0  0  0  0  0
   44.0204   37.1890   44.0043 H   0  0  0  0  0  0  0  0  0  0  0  0
   44.4051   35.7746   46.0378 H   0  0  0  0  0  0  0  0  0  0  0  0
   44.4864   33.2108   40.7542 H   0  0  0  0  0  0  0  0  0  0  0  0
   45.4572   32.5297   38.5790 H   0  0  0  0  0  0  0  0  0  0  0  0
   47.6864   33.2106   37.9032 H   0  0  0  0  0  0  0  0  0  0  0  0
   49.0742   34.6127   39.3789 H   0  0  0  0  0  0  0  0  0  0  0  0
   46.2144   34.0843   46.8949 H   0  0  0  0  0  0  0  0  0  0  0  0
   44.7651   33.0821   46.4507 H   0  0  0  0  0  0  0  0  0  0  0  0
   47.5199   32.3218   46.4982 H   0  0  0  0  0  0  0  0  0  0  0  0
   46.9246   32.2978   44.7803 H   0  0  0  0  0  0  0  0  0  0  0  0
   45.6056   30.4951   44.0006 H   0  0  0  0  0  0  0  0  0  0  0  0
   44.4526   28.3347   44.5105 H   0  0  0  0  0  0  0  0  0  0  0  0
   44.1796   27.6522   46.9032 H   0  0  0  0  0  0  0  0  0  0  0  0
   45.0269   29.0811   48.7183 H   0  0  0  0  0  0  0  0  0  0  0  0
   46.6431   32.7905   48.3814 H   0  0  0  0  0  0  0  0  0  0  0  0
  1  2  2  0
  3  2  1  0
  3 14  1  0
  4  3  2  0
  5  6  2  0
  5  4  1  0
  6  1  1  0
  8  9  2  0
  8  7  1  0
  9  5  1  0
 10  9  1  0
 11 10  2  0
 12 11  1  0
 12 13  2  0
 13  8  1  0
 15 17  1  0
 15 14  1  0
 16 21  2  0
 16 22  1  0
 17 16  1  0
 18 19  1  0
 18 17  2  0
 19 20  2  0
 20 21  1  0
 22 24  2  0
 22 23  2  0
  1 25  1  0
  2 26  1  0
 10 27  1  0
 11 28  1  0
 12 29  1  0
 13 30  1  0
 14 31  1  0
 14 32  1  0
 15 33  1  0
 15 34  1  0
 18 35  1  0
 19 36  1  0
 20 37  1  0
 21 38  1  0
 22 39  1  0
M  ISO  8  25  14  26  14  27  14  28  14  29  14  30  14  31   8  32   8
M  ISO  7  33   8  34   8  35  14  36  14  37  14  38  14  39  11
M  END
>  <minimizedAffinity>  (1) 
-6.19033241

>  <minimizedRMSD>  (1) 
1.84679461

$$$$
