
     RDKit          3D

 40 42  0  0  1  0  0  0  0  0999 V2000
   44.5990   35.6740   43.3630 C   0  0  0  0  0  0  0  0  0  0  0  0
   45.0830   35.0090   44.4920 C   0  0  0  0  0  0  0  0  0  0  0  0
   46.0660   34.0410   44.3040 C   0  0  0  0  0  0  0  0  0  0  0  0
   46.5020   33.7940   43.0530 N   0  0  0  0  0  0  0  0  0  0  0  0
   46.0120   34.4590   41.9680 C   0  0  0  0  0  0  0  0  0  0  0  0
   45.0660   35.3950   42.1230 N   0  0  0  0  0  0  0  0  0  0  0  0
   48.7030   35.5990   41.3520 Cl  0  0  0  0  0  0  0  0  0  0  0  0
   47.7580   34.6030   40.2540 C   0  0  0  0  0  0  0  0  0  0  0  0
   46.5390   34.1320   40.6320 C   0  0  0  0  0  0  0  0  0  0  0  0
   45.7640   33.3410   39.7860 C   0  0  0  0  0  0  0  0  0  0  0  0
   46.3100   33.0670   38.5470 C   0  0  0  0  0  0  0  0  0  0  0  0
   47.5410   33.5490   38.1760 C   0  0  0  0  0  0  0  0  0  0  0  0
   48.2740   34.3160   39.0190 C   0  0  0  0  0  0  0  0  0  0  0  0
   46.5890   33.3260   45.5020 C   0  0  0  0  0  0  0  0  0  0  0  0
   46.1970   31.8780   45.5350 C   0  0  0  0  0  0  0  0  0  0  0  0
   45.6790   31.4590   46.8860 C   0  0  2  0  0  0  0  0  0  0  0  0
   46.3500   32.2290   47.9810 C   0  0  0  0  0  0  0  0  0  0  0  0
   45.7580   31.9460   49.3240 C   0  0  0  0  0  0  0  0  0  0  0  0
   44.9960   30.6810   49.4450 C   0  0  0  0  0  0  0  0  0  0  0  0
   45.1550   29.6510   48.3990 C   0  0  0  0  0  0  0  0  0  0  0  0
   45.9830   30.0100   47.2110 C   0  0  0  0  0  0  0  0  0  0  0  0
   43.8207   36.4419   43.4840 H   0  0  0  0  0  0  0  0  0  0  0  0
   44.7002   35.2424   45.4965 H   0  0  0  0  0  0  0  0  0  0  0  0
   44.7775   32.9581   40.0865 H   0  0  0  0  0  0  0  0  0  0  0  0
   45.7430   32.4456   37.8382 H   0  0  0  0  0  0  0  0  0  0  0  0
   47.9384   33.3088   37.1788 H   0  0  0  0  0  0  0  0  0  0  0  0
   49.2603   34.6989   38.7180 H   0  0  0  0  0  0  0  0  0  0  0  0
   47.6870   33.3924   45.4988 H   0  0  0  0  0  0  0  0  0  0  0  0
   46.1524   33.8065   46.3900 H   0  0  0  0  0  0  0  0  0  0  0  0
   45.4103   31.7069   44.7854 H   0  0  0  0  0  0  0  0  0  0  0  0
   47.0945   31.2803   45.3174 H   0  0  0  0  0  0  0  0  0  0  0  0
   44.5949   31.6376   46.8327 H   0  0  0  0  0  0  0  0  0  0  0  0
   47.4159   31.9581   48.0009 H   0  0  0  0  0  0  0  0  0  0  0  0
   46.2092   33.2998   47.7720 H   0  0  0  0  0  0  0  0  0  0  0  0
   46.5801   31.9148   50.0542 H   0  0  0  0  0  0  0  0  0  0  0  0
   45.0282   32.7497   49.5015 H   0  0  0  0  0  0  0  0  0  0  0  0
   44.3237   30.5122   50.2991 H   0  0  0  0  0  0  0  0  0  0  0  0
   44.6833   28.6616   48.4917 H   0  0  0  0  0  0  0  0  0  0  0  0
   45.7197   29.3674   46.3579 H   0  0  0  0  0  0  0  0  0  0  0  0
   47.0538   29.8689   47.4194 H   0  0  0  0  0  0  0  0  0  0  0  0
  1  2  2  0
  3  2  1  0
  3 14  1  0
  4  3  2  0
  5  6  2  0
  5  4  1  0
  6  1  1  0
  8  9  2  0
  8  7  1  0
  9  5  1  0
 10  9  1  0
 11 10  2  0
 12 11  1  0
 12 13  2  0
 13  8  1  0
 14 15  1  0
 16 15  1  0
 16 21  1  0
 16 17  1  0
 17 18  1  0
 18 19  1  0
 20 19  2  0
 21 20  1  0
  1 22  1  0
  2 23  1  0
 10 24  1  0
 11 25  1  0
 12 26  1  0
 13 27  1  0
 14 28  1  0
 14 29  1  0
 15 30  1  0
 15 31  1  0
 16 32  1  6
 17 33  1  0
 17 34  1  0
 18 35  1  0
 18 36  1  0
 19 37  1  0
 20 38  1  0
 21 39  1  0
 21 40  1  0
M  ISO  8  22  14  23  14  24  14  25  14  26  14  27  14  28   8  29   8
M  ISO  8  30   8  31   8  32  13  33  13  34  13  35  13  36  13  37  13
M  ISO  3  38  13  39  13  40  13
M  END
>  <minimizedAffinity>  (1) 
-5.86652613

>  <minimizedRMSD>  (1) 
1.37474418

$$$$
