
     RDKit          3D

 28 29  0  0  0  0  0  0  0  0999 V2000
   44.6550   36.1010   43.9800 C   0  0  0  0  0  0  0  0  0  0  0  0
   44.8970   35.2710   45.0930 C   0  0  0  0  0  0  0  0  0  0  0  0
   45.6490   34.1010   44.8960 C   0  0  0  0  0  0  0  0  0  0  0  0
   46.0950   33.8400   43.6500 N   0  0  0  0  0  0  0  0  0  0  0  0
   45.8450   34.6630   42.5900 C   0  0  0  0  0  0  0  0  0  0  0  0
   45.1340   35.7750   42.7660 N   0  0  0  0  0  0  0  0  0  0  0  0
   48.5650   35.7170   41.9730 Cl  0  0  0  0  0  0  0  0  0  0  0  0
   47.6070   34.7300   40.8850 C   0  0  0  0  0  0  0  0  0  0  0  0
   46.3750   34.2960   41.2620 C   0  0  0  0  0  0  0  0  0  0  0  0
   45.5730   33.5000   40.4270 C   0  0  0  0  0  0  0  0  0  0  0  0
   46.1320   33.2000   39.2090 C   0  0  0  0  0  0  0  0  0  0  0  0
   47.3570   33.6250   38.8190 C   0  0  0  0  0  0  0  0  0  0  0  0
   48.1150   34.3940   39.6450 C   0  0  0  0  0  0  0  0  0  0  0  0
   45.9020   33.2360   46.0570 C   0  0  0  0  0  0  0  0  0  0  0  0
   46.0410   31.7770   45.6860 C   0  0  0  0  0  0  0  0  0  0  0  0
   47.3370   31.5630   45.0590 N   0  0  0  0  0  0  0  0  0  0  0  0
   44.0692   37.0236   44.1051 H   0  0  0  0  0  0  0  0  0  0  0  0
   44.5079   35.5321   46.0882 H   0  0  0  0  0  0  0  0  0  0  0  0
   44.5756   33.1449   40.7255 H   0  0  0  0  0  0  0  0  0  0  0  0
   45.5516   32.5792   38.5106 H   0  0  0  0  0  0  0  0  0  0  0  0
   47.7416   33.3461   37.8269 H   0  0  0  0  0  0  0  0  0  0  0  0
   49.1110   34.7411   39.3328 H   0  0  0  0  0  0  0  0  0  0  0  0
   46.8325   33.5645   46.5430 H   0  0  0  0  0  0  0  0  0  0  0  0
   45.0354   33.3241   46.7287 H   0  0  0  0  0  0  0  0  0  0  0  0
   45.9642   31.1582   46.5922 H   0  0  0  0  0  0  0  0  0  0  0  0
   45.2410   31.4965   44.9851 H   0  0  0  0  0  0  0  0  0  0  0  0
   48.0554   31.4444   45.7875 H   0  0  0  0  0  0  0  0  0  0  0  0
   47.2993   30.7168   44.4729 H   0  0  0  0  0  0  0  0  0  0  0  0
  1  2  2  0
  3  2  1  0
  3 14  1  0
  4  3  2  0
  5  6  2  0
  5  4  1  0
  6  1  1  0
  8  9  2  0
  8  7  1  0
  9  5  1  0
 10  9  1  0
 11 10  2  0
 12 11  1  0
 12 13  2  0
 13  8  1  0
 15 14  1  0
 16 15  1  0
  1 17  1  0
  2 18  1  0
 10 19  1  0
 11 20  1  0
 12 21  1  0
 13 22  1  0
 14 23  1  0
 14 24  1  0
 15 25  1  0
 15 26  1  0
 16 27  1  0
 16 28  1  0
M  ISO  8  17  14  18  14  19  14  20  14  21  14  22  14  23   8  24   8
M  ISO  4  25   8  26   8  27   5  28   5
M  END
>  <minimizedAffinity>  (1) 
-4.64547253

>  <minimizedRMSD>  (1) 
0.540070653

$$$$
