
     RDKit          3D

 30 32  0  0  0  0  0  0  0  0999 V2000
   45.9730   29.9660   44.6010 Br  0  0  0  0  0  0  0  0  0  0  0  0
   45.7710   30.6540   46.3930 C   0  0  0  0  0  0  0  0  0  0  0  0
   46.3350   31.9000   46.6250 C   0  0  0  0  0  0  0  0  0  0  0  0
   46.1650   32.3540   47.9290 C   0  0  0  0  0  0  0  0  0  0  0  0
   45.4980   31.6430   48.9130 C   0  0  0  0  0  0  0  0  0  0  0  0
   44.9690   30.4170   48.5990 C   0  0  0  0  0  0  0  0  0  0  0  0
   45.0970   29.9000   47.3280 C   0  0  0  0  0  0  0  0  0  0  0  0
   44.5590   28.6030   46.9290 C   0  0  0  0  0  0  0  0  0  0  0  0
   45.0180   27.3510   47.2810 C   0  0  0  0  0  0  0  0  0  0  0  0
   44.2490   26.3580   46.7060 C   0  0  0  0  0  0  0  0  0  0  0  0
   43.3140   27.0580   45.9970 N   0  0  0  0  0  0  0  0  0  0  0  0
   43.5020   28.3600   46.1310 N   0  0  0  0  0  0  0  0  0  0  0  0
   47.0550   32.7280   45.6620 C   0  0  0  0  0  0  0  0  0  0  0  0
   44.5070   35.4160   45.1630 C   0  0  0  0  0  0  0  0  0  0  0  0
   44.7570   35.7870   43.8350 C   0  0  0  0  0  0  0  0  0  0  0  0
   45.7670   35.1270   43.1530 C   0  0  0  0  0  0  0  0  0  0  0  0
   46.4730   34.1590   43.7780 N   0  0  0  0  0  0  0  0  0  0  0  0
   46.2090   33.8120   45.0820 C   0  0  0  0  0  0  0  0  0  0  0  0
   45.2340   34.4510   45.7360 N   0  0  0  0  0  0  0  0  0  0  0  0
   46.5850   33.3354   48.1943 H   0  0  0  0  0  0  0  0  0  0  0  0
   45.3944   32.0542   49.9280 H   0  0  0  0  0  0  0  0  0  0  0  0
   44.4369   29.8403   49.3699 H   0  0  0  0  0  0  0  0  0  0  0  0
   45.8836   27.1672   47.9344 H   0  0  0  0  0  0  0  0  0  0  0  0
   44.3620   25.2676   46.7969 H   0  0  0  0  0  0  0  0  0  0  0  0
   42.5647   26.6298   45.4347 H   0  0  0  0  0  0  0  0  0  0  0  0
   47.9161   33.1879   46.1690 H   0  0  0  0  0  0  0  0  0  0  0  0
   47.3686   32.0750   44.8342 H   0  0  0  0  0  0  0  0  0  0  0  0
   43.7126   35.9187   45.7342 H   0  0  0  0  0  0  0  0  0  0  0  0
   44.1689   36.5789   43.3481 H   0  0  0  0  0  0  0  0  0  0  0  0
   45.9926   35.3896   42.1089 H   0  0  0  0  0  0  0  0  0  0  0  0
  1  2  1  0
  2  3  2  0
  2  7  1  0
  3  4  1  0
  4  5  2  0
  6  5  1  0
  7  6  2  0
  8  9  1  0
  8  7  1  0
 10  9  2  0
 11 12  1  0
 11 10  1  0
 12  8  2  0
 13  3  1  0
 14 19  2  0
 15 14  1  0
 16 17  1  0
 16 15  2  0
 17 18  2  0
 18 13  1  0
 18 19  1  0
  4 20  1  0
  5 21  1  0
  6 22  1  0
  9 23  1  0
 10 24  1  0
 11 25  1  0
 13 26  1  0
 13 27  1  0
 14 28  1  0
 15 29  1  0
 16 30  1  0
M  ISO  8  20  14  21  14  22  14  23  14  24  14  25   9  26   8  27   8
M  ISO  3  28  14  29  14  30  14
M  END
>  <minimizedAffinity>  (1) 
-4.97705889

>  <minimizedRMSD>  (1) 
0.688781142

$$$$
