
     RDKit          3D

 33 35  0  0  0  0  0  0  0  0999 V2000
   46.8040   29.4820   44.7760 Br  0  0  0  0  0  0  0  0  0  0  0  0
   46.1020   30.3910   46.3190 C   0  0  0  0  0  0  0  0  0  0  0  0
   46.3110   31.7450   46.3700 C   0  0  0  0  0  0  0  0  0  0  0  0
   45.7860   32.3770   47.5080 C   0  0  0  0  0  0  0  0  0  0  0  0
   45.1110   31.6850   48.5010 C   0  0  0  0  0  0  0  0  0  0  0  0
   44.9400   30.3370   48.3850 C   0  0  0  0  0  0  0  0  0  0  0  0
   45.4410   29.6650   47.2770 C   0  0  0  0  0  0  0  0  0  0  0  0
   45.2580   28.2590   47.1650 N   0  0  0  0  0  0  0  0  0  0  0  0
   46.0110   27.2490   47.6410 C   0  0  0  0  0  0  0  0  0  0  0  0
   45.6350   25.9490   47.4070 C   0  0  0  0  0  0  0  0  0  0  0  0
   44.4910   25.6620   46.6890 C   0  0  0  0  0  0  0  0  0  0  0  0
   44.1600   24.4650   46.4830 O   0  0  0  0  0  0  0  0  0  0  0  0
   43.7500   26.6970   46.2200 N   0  0  0  0  0  0  0  0  0  0  0  0
   44.1340   27.9780   46.4580 C   0  0  0  0  0  0  0  0  0  0  0  0
   43.3300   28.8070   45.9500 O   0  0  0  0  0  0  0  0  0  0  0  0
   47.0050   32.5800   45.3890 C   0  0  0  0  0  0  0  0  0  0  0  0
   44.5630   35.4110   45.2010 C   0  0  0  0  0  0  0  0  0  0  0  0
   44.7810   35.8810   43.8970 C   0  0  0  0  0  0  0  0  0  0  0  0
   45.7420   35.2300   43.1260 C   0  0  0  0  0  0  0  0  0  0  0  0
   46.4230   34.1850   43.6400 N   0  0  0  0  0  0  0  0  0  0  0  0
   46.1910   33.7450   44.9190 C   0  0  0  0  0  0  0  0  0  0  0  0
   45.2620   34.3760   45.6670 N   0  0  0  0  0  0  0  0  0  0  0  0
   45.9154   33.4640   47.6159 H   0  0  0  0  0  0  0  0  0  0  0  0
   44.7156   32.2197   49.3773 H   0  0  0  0  0  0  0  0  0  0  0  0
   44.4050   29.7814   49.1693 H   0  0  0  0  0  0  0  0  0  0  0  0
   46.9241   27.4645   48.2153 H   0  0  0  0  0  0  0  0  0  0  0  0
   46.2528   25.1263   47.7963 H   0  0  0  0  0  0  0  0  0  0  0  0
   42.8923   26.5106   45.6810 H   0  0  0  0  0  0  0  0  0  0  0  0
   47.9288   32.9623   45.8477 H   0  0  0  0  0  0  0  0  0  0  0  0
   47.2074   31.9495   44.5107 H   0  0  0  0  0  0  0  0  0  0  0  0
   43.8127   35.8983   45.8410 H   0  0  0  0  0  0  0  0  0  0  0  0
   44.2129   36.7339   43.4972 H   0  0  0  0  0  0  0  0  0  0  0  0
   45.9452   35.5679   42.0991 H   0  0  0  0  0  0  0  0  0  0  0  0
  1  2  1  0
  2  3  2  0
  2  7  1  0
  3  4  1  0
  4  5  2  0
  6  5  1  0
  7  6  2  0
  8  7  1  0
  8  9  1  0
 10  9  2  0
 11 10  1  0
 12 11  2  0
 13 14  1  0
 13 11  1  0
 14  8  1  0
 15 14  2  0
 16  3  1  0
 17 22  2  0
 18 17  1  0
 19 20  1  0
 19 18  2  0
 20 21  2  0
 21 16  1  0
 21 22  1  0
  4 23  1  0
  5 24  1  0
  6 25  1  0
  9 26  1  0
 10 27  1  0
 13 28  1  0
 16 29  1  0
 16 30  1  0
 17 31  1  0
 18 32  1  0
 19 33  1  0
M  ISO  8  23  14  24  14  25  14  26  14  27  14  28   9  29   8  30   8
M  ISO  3  31  14  32  14  33  14
M  END
>  <minimizedAffinity>  (1) 
-5.22858858

>  <minimizedRMSD>  (1) 
1.37631369

$$$$
