
     RDKit          3D

 31 33  0  0  0  0  0  0  0  0999 V2000
   46.2850   29.6320   44.8150 Br  0  0  0  0  0  0  0  0  0  0  0  0
   45.9140   30.5180   46.4940 C   0  0  0  0  0  0  0  0  0  0  0  0
   46.3300   31.8240   46.5760 C   0  0  0  0  0  0  0  0  0  0  0  0
   46.0510   32.4490   47.8030 C   0  0  0  0  0  0  0  0  0  0  0  0
   45.4110   31.7980   48.8410 C   0  0  0  0  0  0  0  0  0  0  0  0
   45.0310   30.4930   48.6680 C   0  0  0  0  0  0  0  0  0  0  0  0
   45.2770   29.8270   47.4890 C   0  0  0  0  0  0  0  0  0  0  0  0
   44.9040   28.4420   47.2290 C   0  0  0  0  0  0  0  0  0  0  0  0
   43.7970   28.0740   46.4940 C   0  0  0  0  0  0  0  0  0  0  0  0
   43.4430   26.7750   46.2470 C   0  0  0  0  0  0  0  0  0  0  0  0
   44.2070   25.7910   46.7390 N   0  0  0  0  0  0  0  0  0  0  0  0
   45.2970   26.1260   47.4590 C   0  0  0  0  0  0  0  0  0  0  0  0
   45.6320   27.4020   47.6950 N   0  0  0  0  0  0  0  0  0  0  0  0
   47.0160   32.6110   45.5430 C   0  0  0  0  0  0  0  0  0  0  0  0
   44.5500   35.3890   45.2220 C   0  0  0  0  0  0  0  0  0  0  0  0
   44.7760   35.8350   43.9180 C   0  0  0  0  0  0  0  0  0  0  0  0
   45.7570   35.1810   43.1870 C   0  0  0  0  0  0  0  0  0  0  0  0
   46.4570   34.1460   43.7470 N   0  0  0  0  0  0  0  0  0  0  0  0
   46.1970   33.7500   45.0270 C   0  0  0  0  0  0  0  0  0  0  0  0
   45.2400   34.3870   45.7370 N   0  0  0  0  0  0  0  0  0  0  0  0
   46.3536   33.4972   47.9431 H   0  0  0  0  0  0  0  0  0  0  0  0
   45.2103   32.3184   49.7891 H   0  0  0  0  0  0  0  0  0  0  0  0
   44.5192   29.9673   49.4876 H   0  0  0  0  0  0  0  0  0  0  0  0
   43.1609   28.8712   46.0819 H   0  0  0  0  0  0  0  0  0  0  0  0
   42.5459   26.5431   45.6542 H   0  0  0  0  0  0  0  0  0  0  0  0
   45.9321   25.3254   47.8660 H   0  0  0  0  0  0  0  0  0  0  0  0
   47.9453   33.0149   45.9712 H   0  0  0  0  0  0  0  0  0  0  0  0
   47.2092   31.9378   44.6948 H   0  0  0  0  0  0  0  0  0  0  0  0
   43.7806   35.8828   45.8337 H   0  0  0  0  0  0  0  0  0  0  0  0
   44.2010   36.6689   43.4891 H   0  0  0  0  0  0  0  0  0  0  0  0
   45.9730   35.4946   42.1550 H   0  0  0  0  0  0  0  0  0  0  0  0
  1  2  1  0
  2  3  2  0
  2  7  1  0
  3  4  1  0
  4  5  2  0
  6  5  1  0
  7  6  2  0
  8  7  1  0
  8 13  1  0
  9  8  2  0
 10  9  1  0
 10 11  2  0
 11 12  1  0
 12 13  2  0
 14  3  1  0
 15 20  2  0
 16 15  1  0
 17 18  1  0
 17 16  2  0
 18 19  2  0
 19 14  1  0
 19 20  1  0
  4 21  1  0
  5 22  1  0
  6 23  1  0
  9 24  1  0
 10 25  1  0
 12 26  1  0
 14 27  1  0
 14 28  1  0
 15 29  1  0
 16 30  1  0
 17 31  1  0
M  ISO  8  21  14  22  14  23  14  24  14  25  14  26  14  27   8  28   8
M  ISO  3  29  14  30  14  31  14
M  END
>  <minimizedAffinity>  (1) 
-5.15837336

>  <minimizedRMSD>  (1) 
1.04238367

$$$$
