
     RDKit          3D

 26 27  0  0  0  0  0  0  0  0999 V2000
   47.0500   32.6200   45.8690 C   0  0  0  0  0  0  0  0  0  0  0  0
   46.0110   29.7970   44.9290 Br  0  0  0  0  0  0  0  0  0  0  0  0
   45.8320   30.5560   46.6980 C   0  0  0  0  0  0  0  0  0  0  0  0
   46.3620   31.8070   46.8850 C   0  0  0  0  0  0  0  0  0  0  0  0
   46.2100   32.3150   48.1740 C   0  0  0  0  0  0  0  0  0  0  0  0
   45.5830   31.6290   49.1850 C   0  0  0  0  0  0  0  0  0  0  0  0
   45.0710   30.3730   48.9310 C   0  0  0  0  0  0  0  0  0  0  0  0
   45.1950   29.8270   47.6730 C   0  0  0  0  0  0  0  0  0  0  0  0
   44.6370   28.4720   47.4180 C   0  0  0  0  0  0  0  0  0  0  0  0
   44.4980   35.3070   45.4330 C   0  0  0  0  0  0  0  0  0  0  0  0
   44.7170   35.6840   44.1020 C   0  0  0  0  0  0  0  0  0  0  0  0
   45.7070   35.0290   43.3990 C   0  0  0  0  0  0  0  0  0  0  0  0
   46.4310   34.0510   44.0070 N   0  0  0  0  0  0  0  0  0  0  0  0
   46.1870   33.7080   45.3150 C   0  0  0  0  0  0  0  0  0  0  0  0
   45.2280   34.3470   45.9880 N   0  0  0  0  0  0  0  0  0  0  0  0
   47.9396   33.0763   46.3276 H   0  0  0  0  0  0  0  0  0  0  0  0
   47.3167   31.9527   45.0362 H   0  0  0  0  0  0  0  0  0  0  0  0
   46.6123   33.3152   48.3923 H   0  0  0  0  0  0  0  0  0  0  0  0
   45.4900   32.0756   50.1859 H   0  0  0  0  0  0  0  0  0  0  0  0
   44.5660   29.8104   49.7300 H   0  0  0  0  0  0  0  0  0  0  0  0
   44.4317   27.9736   48.3769 H   0  0  0  0  0  0  0  0  0  0  0  0
   43.7028   28.5622   46.8443 H   0  0  0  0  0  0  0  0  0  0  0  0
   45.3638   27.8782   46.8443 H   0  0  0  0  0  0  0  0  0  0  0  0
   43.7165   35.8093   46.0220 H   0  0  0  0  0  0  0  0  0  0  0  0
   44.1181   36.4778   43.6317 H   0  0  0  0  0  0  0  0  0  0  0  0
   45.9100   35.2964   42.3515 H   0  0  0  0  0  0  0  0  0  0  0  0
  1  4  1  0
  2  3  1  0
  3  4  2  0
  3  8  1  0
  4  5  1  0
  5  6  2  0
  7  6  1  0
  8  7  2  0
  9  8  1  0
 10 15  2  0
 11 10  1  0
 12 13  1  0
 12 11  2  0
 13 14  2  0
 14  1  1  0
 14 15  1  0
  1 16  1  0
  1 17  1  0
  5 18  1  0
  6 19  1  0
  7 20  1  0
  9 21  1  0
  9 22  1  0
  9 23  1  0
 10 24  1  0
 11 25  1  0
 12 26  1  0
M  ISO  8  16   8  17   8  18  14  19  14  20  14  21   8  22   8  23   8
M  ISO  3  24  14  25  14  26  14
M  END
>  <minimizedAffinity>  (1) 
-4.76152658

>  <minimizedRMSD>  (1) 
0.327927977

$$$$
