
     RDKit          3D

 24 25  0  0  0  0  0  0  0  0999 V2000
   47.0260   32.6160   45.8200 C   0  0  0  0  0  0  0  0  0  0  0  0
   45.7870   29.8700   44.8820 Br  0  0  0  0  0  0  0  0  0  0  0  0
   45.7250   30.6000   46.6590 C   0  0  0  0  0  0  0  0  0  0  0  0
   46.3350   31.8190   46.8440 C   0  0  0  0  0  0  0  0  0  0  0  0
   46.2670   32.3140   48.1500 C   0  0  0  0  0  0  0  0  0  0  0  0
   45.6450   31.6490   49.1740 C   0  0  0  0  0  0  0  0  0  0  0  0
   45.0490   30.4270   48.9280 C   0  0  0  0  0  0  0  0  0  0  0  0
   45.0840   29.8840   47.6490 C   0  0  0  0  0  0  0  0  0  0  0  0
   44.4940   28.6540   47.3670 O   0  0  0  0  0  0  0  0  0  0  0  0
   44.5100   35.3280   45.3960 C   0  0  0  0  0  0  0  0  0  0  0  0
   44.7340   35.7160   44.0620 C   0  0  0  0  0  0  0  0  0  0  0  0
   45.7200   35.0510   43.3610 C   0  0  0  0  0  0  0  0  0  0  0  0
   46.4380   34.0590   43.9590 N   0  0  0  0  0  0  0  0  0  0  0  0
   46.1810   33.7150   45.2680 C   0  0  0  0  0  0  0  0  0  0  0  0
   45.2250   34.3580   45.9480 N   0  0  0  0  0  0  0  0  0  0  0  0
   47.9271   33.0587   46.2694 H   0  0  0  0  0  0  0  0  0  0  0  0
   47.2718   31.9402   44.9876 H   0  0  0  0  0  0  0  0  0  0  0  0
   46.7360   33.2853   48.3660 H   0  0  0  0  0  0  0  0  0  0  0  0
   45.6204   32.0846   50.1838 H   0  0  0  0  0  0  0  0  0  0  0  0
   44.5476   29.8847   49.7431 H   0  0  0  0  0  0  0  0  0  0  0  0
   44.0365   28.1483   48.0847 H   0  0  0  0  0  0  0  0  0  0  0  0
   43.7332   35.8352   45.9870 H   0  0  0  0  0  0  0  0  0  0  0  0
   44.1453   36.5194   43.5951 H   0  0  0  0  0  0  0  0  0  0  0  0
   45.9270   35.3230   42.3154 H   0  0  0  0  0  0  0  0  0  0  0  0
  1  4  1  0
  2  3  1  0
  3  4  2  0
  3  8  1  0
  4  5  1  0
  5  6  2  0
  7  6  1  0
  8  7  2  0
  9  8  1  0
 10 15  2  0
 11 10  1  0
 12 13  1  0
 12 11  2  0
 13 14  2  0
 14  1  1  0
 14 15  1  0
  1 16  1  0
  1 17  1  0
  5 18  1  0
  6 19  1  0
  7 20  1  0
  9 21  1  0
 10 22  1  0
 11 23  1  0
 12 24  1  0
M  ISO  8  16   8  17   8  18  14  19  14  20  14  21   3  22  14  23  14
M  ISO  1  24  14
M  END
>  <minimizedAffinity>  (1) 
-4.6812129

>  <minimizedRMSD>  (1) 
0.261674553

$$$$
