
     RDKit          3D

 25 26  0  0  0  0  0  0  0  0999 V2000
   45.6930   29.9460   44.6840 Br  0  0  0  0  0  0  0  0  0  0  0  0
   45.7090   30.6660   46.4660 C   0  0  0  0  0  0  0  0  0  0  0  0
   46.3570   31.8590   46.6340 C   0  0  0  0  0  0  0  0  0  0  0  0
   46.3490   32.3520   47.9350 C   0  0  0  0  0  0  0  0  0  0  0  0
   45.7470   31.7130   48.9990 C   0  0  0  0  0  0  0  0  0  0  0  0
   45.1100   30.5100   48.7590 C   0  0  0  0  0  0  0  0  0  0  0  0
   45.0860   29.9750   47.4900 C   0  0  0  0  0  0  0  0  0  0  0  0
   47.0410   32.6510   45.5960 C   0  0  0  0  0  0  0  0  0  0  0  0
   44.5400   35.3870   45.2240 C   0  0  0  0  0  0  0  0  0  0  0  0
   44.7610   35.8230   43.9230 C   0  0  0  0  0  0  0  0  0  0  0  0
   45.7660   35.1670   43.2030 C   0  0  0  0  0  0  0  0  0  0  0  0
   46.4660   34.1600   43.7790 N   0  0  0  0  0  0  0  0  0  0  0  0
   46.2060   33.7700   45.0670 C   0  0  0  0  0  0  0  0  0  0  0  0
   45.2440   34.3980   45.7580 N   0  0  0  0  0  0  0  0  0  0  0  0
   44.4540   28.7420   47.1570 N   0  0  0  0  0  0  0  0  0  0  0  0
   46.8538   33.3103   48.1269 H   0  0  0  0  0  0  0  0  0  0  0  0
   45.7731   32.1481   50.0090 H   0  0  0  0  0  0  0  0  0  0  0  0
   44.6193   29.9767   49.5865 H   0  0  0  0  0  0  0  0  0  0  0  0
   47.9602   33.0739   46.0275 H   0  0  0  0  0  0  0  0  0  0  0  0
   47.2537   31.9748   44.7549 H   0  0  0  0  0  0  0  0  0  0  0  0
   43.7603   35.8753   45.8270 H   0  0  0  0  0  0  0  0  0  0  0  0
   44.1753   36.6427   43.4813 H   0  0  0  0  0  0  0  0  0  0  0  0
   45.9877   35.4691   42.1688 H   0  0  0  0  0  0  0  0  0  0  0  0
   43.9778   28.1936   47.8874 H   0  0  0  0  0  0  0  0  0  0  0  0
   44.4733   28.3992   46.1859 H   0  0  0  0  0  0  0  0  0  0  0  0
  1  2  1  0
  2  3  2  0
  2  7  1  0
  3  4  1  0
  4  5  2  0
  6  5  1  0
  7  6  2  0
  8  3  1  0
  9 14  2  0
 10  9  1  0
 11 12  1  0
 11 10  2  0
 12 13  2  0
 13  8  1  0
 13 14  1  0
 15  7  1  0
  4 16  1  0
  5 17  1  0
  6 18  1  0
  8 19  1  0
  8 20  1  0
  9 21  1  0
 10 22  1  0
 11 23  1  0
 15 24  1  0
 15 25  1  0
M  ISO  8  16  14  17  14  18  14  19   8  20   8  21  14  22  14  23  14
M  END
>  <minimizedAffinity>  (1) 
-4.62511969

>  <minimizedRMSD>  (1) 
0.331557035

$$$$
