
     RDKit          3D

 40 42  0  0  1  0  0  0  0  0999 V2000
   44.7680   33.0040   41.1560 Br  0  0  0  0  0  0  0  0  0  0  0  0
   46.4160   33.9550   40.9250 C   0  0  0  0  0  0  0  0  0  0  0  0
   46.8820   34.7570   41.9230 C   0  0  0  0  0  0  0  0  0  0  0  0
   48.0940   35.4670   41.7560 C   0  0  0  0  0  0  0  0  0  0  0  0
   48.7690   35.3220   40.5780 C   0  0  0  0  0  0  0  0  0  0  0  0
   48.2550   34.5010   39.6090 C   0  0  0  0  0  0  0  0  0  0  0  0
   47.0890   33.8080   39.7510 C   0  0  0  0  0  0  0  0  0  0  0  0
   46.6650   32.9700   38.6790 N   0  0  0  0  0  0  0  0  0  0  0  0
   45.8840   33.3780   37.5040 C   0  0  0  0  0  0  0  0  0  0  0  0
   44.9630   32.2950   37.0290 C   0  0  0  0  0  0  0  0  0  0  0  0
   45.7150   31.1430   36.5590 N   0  0  0  0  0  0  0  0  0  0  0  0
   47.0770   31.2260   37.1060 C   0  0  0  0  0  0  0  0  0  0  0  0
   46.9520   31.5640   38.5960 C   0  0  1  0  0  0  0  0  0  0  0  0
   48.0870   31.0220   39.3530 C   0  0  0  0  0  0  0  0  0  0  0  0
   49.3780   31.0930   38.5950 C   0  0  0  0  0  0  0  0  0  0  0  0
   45.6480   34.0310   45.2860 C   0  0  0  0  0  0  0  0  0  0  0  0
   44.7130   35.0760   45.5240 C   0  0  0  0  0  0  0  0  0  0  0  0
   44.5400   36.0150   44.4940 C   0  0  0  0  0  0  0  0  0  0  0  0
   45.2480   35.8910   43.3460 N   0  0  0  0  0  0  0  0  0  0  0  0
   46.1290   34.8780   43.1590 C   0  0  0  0  0  0  0  0  0  0  0  0
   46.3080   33.9620   44.1470 N   0  0  0  0  0  0  0  0  0  0  0  0
   48.4820   36.1180   42.5532 H   0  0  0  0  0  0  0  0  0  0  0  0
   49.7145   35.8581   40.4089 H   0  0  0  0  0  0  0  0  0  0  0  0
   48.8123   34.3952   38.6666 H   0  0  0  0  0  0  0  0  0  0  0  0
   45.2845   34.2619   37.7672 H   0  0  0  0  0  0  0  0  0  0  0  0
   46.5906   33.5995   36.6906 H   0  0  0  0  0  0  0  0  0  0  0  0
   44.3123   31.9855   37.8601 H   0  0  0  0  0  0  0  0  0  0  0  0
   44.3617   32.6860   36.1950 H   0  0  0  0  0  0  0  0  0  0  0  0
   45.2622   30.2761   36.8821 H   0  0  0  0  0  0  0  0  0  0  0  0
   47.5919   30.2621   36.9809 H   0  0  0  0  0  0  0  0  0  0  0  0
   47.6607   31.9961   36.5804 H   0  0  0  0  0  0  0  0  0  0  0  0
   46.1137   31.0669   39.1061 H   0  0  0  0  0  0  0  0  0  0  0  0
   48.1945   31.5967   40.2847 H   0  0  0  0  0  0  0  0  0  0  0  0
   47.8768   29.9604   39.5501 H   0  0  0  0  0  0  0  0  0  0  0  0
   50.2176   31.1392   39.3042 H   0  0  0  0  0  0  0  0  0  0  0  0
   49.4813   30.1992   37.9622 H   0  0  0  0  0  0  0  0  0  0  0  0
   49.3827   31.9928   37.9622 H   0  0  0  0  0  0  0  0  0  0  0  0
   45.8225   33.2711   46.0619 H   0  0  0  0  0  0  0  0  0  0  0  0
   44.1530   35.1454   46.4682 H   0  0  0  0  0  0  0  0  0  0  0  0
   43.8323   36.8478   44.6191 H   0  0  0  0  0  0  0  0  0  0  0  0
  2  1  1  0
  2  3  2  0
  3 20  1  0
  4  3  1  0
  5  4  2  0
  6  7  2  0
  6  5  1  0
  7  2  1  0
  8  7  1  0
  9  8  1  0
 10  9  1  0
 11 10  1  0
 11 12  1  0
 12 13  1  0
 13  8  1  0
 13 14  1  0
 15 14  1  0
 16 17  2  0
 18 17  1  0
 19 18  2  0
 20 19  1  0
 20 21  2  0
 21 16  1  0
  4 22  1  0
  5 23  1  0
  6 24  1  0
  9 25  1  0
  9 26  1  0
 10 27  1  0
 10 28  1  0
 11 29  1  0
 12 30  1  0
 12 31  1  0
 13 32  1  1
 14 33  1  0
 14 34  1  0
 15 35  1  0
 15 36  1  0
 15 37  1  0
 16 38  1  0
 17 39  1  0
 18 40  1  0
M  ISO  8  22  14  23  14  24  14  25  13  26  13  27  13  28  13  29   5
M  ISO  8  30  13  31  13  32  13  33   8  34   8  35   8  36   8  37   8
M  ISO  3  38  14  39  14  40  14
M  END
>  <minimizedAffinity>  (1) 
-5.27952051

>  <minimizedRMSD>  (1) 
0.180589437

$$$$
