
     RDKit          3D

 29 30  0  0  0  0  0  0  0  0999 V2000
   45.7400   29.8880   44.8670 Br  0  0  0  0  0  0  0  0  0  0  0  0
   45.6970   30.5990   46.6600 C   0  0  0  0  0  0  0  0  0  0  0  0
   46.3260   31.8000   46.8360 C   0  0  0  0  0  0  0  0  0  0  0  0
   46.2750   32.2890   48.1500 C   0  0  0  0  0  0  0  0  0  0  0  0
   45.6490   31.6250   49.1870 C   0  0  0  0  0  0  0  0  0  0  0  0
   45.0420   30.4250   48.9240 C   0  0  0  0  0  0  0  0  0  0  0  0
   45.0560   29.8900   47.6540 C   0  0  0  0  0  0  0  0  0  0  0  0
   47.0210   32.6040   45.8390 C   0  0  0  0  0  0  0  0  0  0  0  0
   44.5160   35.3290   45.3880 C   0  0  0  0  0  0  0  0  0  0  0  0
   44.7430   35.7090   44.0600 C   0  0  0  0  0  0  0  0  0  0  0  0
   45.7330   35.0380   43.3490 C   0  0  0  0  0  0  0  0  0  0  0  0
   46.4300   34.0570   43.9620 N   0  0  0  0  0  0  0  0  0  0  0  0
   46.1970   33.6970   45.2610 C   0  0  0  0  0  0  0  0  0  0  0  0
   45.2320   34.3580   45.9350 N   0  0  0  0  0  0  0  0  0  0  0  0
   44.4360   28.6710   47.3970 O   0  0  0  0  0  0  0  0  0  0  0  0
   44.5360   26.0950   47.0290 O   0  0  0  0  0  0  0  0  0  0  0  0
   45.0330   27.1870   47.9710 P   0  0  0  0  0  0  0  0  0  0  0  0
   44.4330   26.9430   49.5130 O   0  0  0  0  0  0  0  0  0  0  0  0
   46.7220   27.1340   47.9550 O   0  0  0  0  0  0  0  0  0  0  0  0
   46.7594   33.2527   48.3660 H   0  0  0  0  0  0  0  0  0  0  0  0
   45.6380   32.0502   50.2015 H   0  0  0  0  0  0  0  0  0  0  0  0
   44.5373   29.8820   49.7366 H   0  0  0  0  0  0  0  0  0  0  0  0
   47.9067   33.0524   46.3128 H   0  0  0  0  0  0  0  0  0  0  0  0
   47.2794   31.9286   45.0101 H   0  0  0  0  0  0  0  0  0  0  0  0
   43.7407   35.8383   45.9792 H   0  0  0  0  0  0  0  0  0  0  0  0
   44.1564   36.5137   43.5927 H   0  0  0  0  0  0  0  0  0  0  0  0
   45.9450   35.3027   42.3026 H   0  0  0  0  0  0  0  0  0  0  0  0
   45.1118   27.2190   50.1787 H   0  0  0  0  0  0  0  0  0  0  0  0
   47.0607   27.1234   48.8852 H   0  0  0  0  0  0  0  0  0  0  0  0
  1  2  1  0
  2  3  2  0
  2  7  1  0
  3  4  1  0
  4  5  2  0
  6  5  1  0
  7  6  2  0
  8  3  1  0
  9 14  2  0
 10  9  1  0
 11 12  1  0
 11 10  2  0
 12 13  2  0
 13  8  1  0
 13 14  1  0
 15  7  1  0
 15 17  1  0
 16 17  2  0
 17 18  1  0
 19 17  1  0
  4 20  1  0
  5 21  1  0
  6 22  1  0
  8 23  1  0
  8 24  1  0
  9 25  1  0
 10 26  1  0
 11 27  1  0
 18 28  1  0
 19 29  1  0
M  ISO  8  20  14  21  14  22  14  23   8  24   8  25  14  26  14  27  14
M  ISO  2  28   3  29   3
M  END
>  <minimizedAffinity>  (1) 
-5.16499233

>  <minimizedRMSD>  (1) 
0.435448617

$$$$
