
     RDKit          3D

 36 38  0  0  0  0  0  0  0  0999 V2000
   45.6530   29.9430   44.8320 Br  0  0  0  0  0  0  0  0  0  0  0  0
   45.6670   30.6190   46.6400 C   0  0  0  0  0  0  0  0  0  0  0  0
   46.3310   31.8010   46.8250 C   0  0  0  0  0  0  0  0  0  0  0  0
   46.3180   32.2580   48.1420 C   0  0  0  0  0  0  0  0  0  0  0  0
   45.6950   31.5870   49.1890 C   0  0  0  0  0  0  0  0  0  0  0  0
   45.0570   30.4130   48.9080 C   0  0  0  0  0  0  0  0  0  0  0  0
   45.0290   29.9020   47.6210 C   0  0  0  0  0  0  0  0  0  0  0  0
   47.0240   32.6110   45.8360 C   0  0  0  0  0  0  0  0  0  0  0  0
   44.5190   35.3270   45.3850 C   0  0  0  0  0  0  0  0  0  0  0  0
   44.7540   35.7020   44.0510 C   0  0  0  0  0  0  0  0  0  0  0  0
   45.7430   35.0370   43.3380 C   0  0  0  0  0  0  0  0  0  0  0  0
   46.4440   34.0530   43.9540 N   0  0  0  0  0  0  0  0  0  0  0  0
   46.1990   33.7020   45.2580 C   0  0  0  0  0  0  0  0  0  0  0  0
   45.2390   34.3550   45.9340 N   0  0  0  0  0  0  0  0  0  0  0  0
   44.3710   28.7020   47.3690 O   0  0  0  0  0  0  0  0  0  0  0  0
   44.3080   26.1350   46.9610 O   0  0  0  0  0  0  0  0  0  0  0  0
   44.9610   27.1860   47.8360 P   0  0  2  0  0  0  0  0  0  0  0  0
   44.5470   26.9530   49.4490 O   0  0  0  0  0  0  0  0  0  0  0  0
   46.6400   27.0730   47.6310 O   0  0  0  0  0  0  0  0  0  0  0  0
   47.1520   25.8580   48.0850 C   0  0  0  0  0  0  0  0  0  0  0  0
   48.6070   25.9710   48.5440 C   0  0  0  0  0  0  0  0  0  0  0  0
   48.2380   25.2500   47.3070 C   0  0  0  0  0  0  0  0  0  0  0  0
   46.8306   33.2050   48.3663 H   0  0  0  0  0  0  0  0  0  0  0  0
   45.7157   31.9899   50.2123 H   0  0  0  0  0  0  0  0  0  0  0  0
   44.5562   29.8631   49.7184 H   0  0  0  0  0  0  0  0  0  0  0  0
   47.9055   33.0617   46.3153 H   0  0  0  0  0  0  0  0  0  0  0  0
   47.2878   31.9396   45.0055 H   0  0  0  0  0  0  0  0  0  0  0  0
   43.7413   35.8368   45.9726 H   0  0  0  0  0  0  0  0  0  0  0  0
   44.1670   36.5052   43.5816 H   0  0  0  0  0  0  0  0  0  0  0  0
   45.9541   35.3038   42.2919 H   0  0  0  0  0  0  0  0  0  0  0  0
   45.2460   27.3464   50.0293 H   0  0  0  0  0  0  0  0  0  0  0  0
   46.2007   25.4765   48.4843 H   0  0  0  0  0  0  0  0  0  0  0  0
   49.1328   26.9355   48.4877 H   0  0  0  0  0  0  0  0  0  0  0  0
   49.1645   25.7277   49.4605 H   0  0  0  0  0  0  0  0  0  0  0  0
   48.3310   24.1546   47.2689 H   0  0  0  0  0  0  0  0  0  0  0  0
   48.5578   25.3240   46.2571 H   0  0  0  0  0  0  0  0  0  0  0  0
  1  2  1  0
  2  3  2  0
  2  7  1  0
  3  4  1  0
  4  5  2  0
  6  5  1  0
  7  6  2  0
  8  3  1  0
  9 14  2  0
 10  9  1  0
 11 12  1  0
 11 10  2  0
 12 13  2  0
 13  8  1  0
 13 14  1  0
 15  7  1  0
 15 17  1  0
 17 16  2  0
 17 18  1  0
 19 17  1  0
 19 20  1  0
 20 21  1  0
 22 20  1  0
 22 21  1  0
  4 23  1  0
  5 24  1  0
  6 25  1  0
  8 26  1  0
  8 27  1  0
  9 28  1  0
 10 29  1  0
 11 30  1  0
 18 31  1  0
 20 32  1  0
 21 33  1  0
 21 34  1  0
 22 35  1  0
 22 36  1  0
M  ISO  8  23  14  24  14  25  14  26   8  27   8  28  14  29  14  30  14
M  ISO  6  31   3  32  13  33  13  34  13  35  13  36  13
M  END
>  <minimizedAffinity>  (1) 
-4.91120911

>  <minimizedRMSD>  (1) 
0.685727179

$$$$
