
     RDKit          3D

 26 27  0  0  0  0  0  0  0  0999 V2000
   43.8580   35.0960   41.2490 S   0  0  0  0  0  0  0  0  0  0  0  0
   44.2420   35.7780   43.9160 C   0  0  0  0  0  0  0  0  0  0  0  0
   44.4180   34.7940   42.9370 C   0  0  0  0  0  0  0  0  0  0  0  0
   45.0230   33.5710   43.2410 C   0  0  0  0  0  0  0  0  0  0  0  0
   45.4260   33.4030   44.5400 N   0  0  0  0  0  0  0  0  0  0  0  0
   45.2420   34.3640   45.4460 C   0  0  0  0  0  0  0  0  0  0  0  0
   44.6700   35.5330   45.1850 N   0  0  0  0  0  0  0  0  0  0  0  0
   42.1070   34.7490   41.1150 C   0  0  0  0  0  0  0  0  0  0  0  0
   41.5230   35.7010   40.1630 N   0  0  0  0  0  0  0  0  0  0  0  0
   40.1520   35.9590   40.5540 C   0  0  0  0  0  0  0  0  0  0  0  0
   39.4190   34.7740   39.9840 C   0  0  0  0  0  0  0  0  0  0  0  0
   40.0240   34.7080   38.5910 C   0  0  0  0  0  0  0  0  0  0  0  0
   41.4450   35.1440   38.8280 C   0  0  0  0  0  0  0  0  0  0  0  0
   43.7644   36.7363   43.6639 H   0  0  0  0  0  0  0  0  0  0  0  0
   45.1673   32.7886   42.4814 H   0  0  0  0  0  0  0  0  0  0  0  0
   45.5857   34.1762   46.4739 H   0  0  0  0  0  0  0  0  0  0  0  0
   41.9576   33.7211   40.7529 H   0  0  0  0  0  0  0  0  0  0  0  0
   41.6233   34.8490   42.0979 H   0  0  0  0  0  0  0  0  0  0  0  0
   40.0521   35.9986   41.6487 H   0  0  0  0  0  0  0  0  0  0  0  0
   39.7688   36.9250   40.1935 H   0  0  0  0  0  0  0  0  0  0  0  0
   39.6227   33.8578   40.5576 H   0  0  0  0  0  0  0  0  0  0  0  0
   38.3229   34.8654   40.0006 H   0  0  0  0  0  0  0  0  0  0  0  0
   39.5085   35.3928   37.9015 H   0  0  0  0  0  0  0  0  0  0  0  0
   39.9435   33.7143   38.1261 H   0  0  0  0  0  0  0  0  0  0  0  0
   42.1202   34.2797   38.7436 H   0  0  0  0  0  0  0  0  0  0  0  0
   41.7452   35.8942   38.0816 H   0  0  0  0  0  0  0  0  0  0  0  0
  1  3  1  0
  2  7  2  0
  3  4  2  0
  3  2  1  0
  4  5  1  0
  5  6  2  0
  7  6  1  0
  8  1  1  0
  9 10  1  0
  9  8  1  0
 11 10  1  0
 12 13  1  0
 12 11  1  0
 13  9  1  0
  2 14  1  0
  4 15  1  0
  6 16  1  0
  8 17  1  0
  8 18  1  0
 10 19  1  0
 10 20  1  0
 11 21  1  0
 11 22  1  0
 12 23  1  0
 12 24  1  0
 13 25  1  0
 13 26  1  0
M  ISO  8  14  14  15  14  16  14  17   8  18   8  19  13  20  13  21  13
M  ISO  5  22  13  23  13  24  13  25  13  26  13
M  END
>  <minimizedAffinity>  (1) 
-4.09698105

>  <minimizedRMSD>  (1) 
2.55412388

$$$$
