
     RDKit          3D

 24 25  0  0  0  0  0  0  0  0999 V2000
   43.5930   35.3610   40.6560 C   0  0  0  0  0  0  0  0  0  0  0  0
   43.2610   33.8870   38.1400 Cl  0  0  0  0  0  0  0  0  0  0  0  0
   41.9890   34.5430   39.1470 C   0  0  0  0  0  0  0  0  0  0  0  0
   42.1700   35.2480   40.3460 C   0  0  0  0  0  0  0  0  0  0  0  0
   41.0200   35.6780   40.9800 C   0  0  0  0  0  0  0  0  0  0  0  0
   39.7720   35.4350   40.4750 C   0  0  0  0  0  0  0  0  0  0  0  0
   39.5790   34.7440   39.2980 C   0  0  0  0  0  0  0  0  0  0  0  0
   40.7200   34.3070   38.6480 C   0  0  0  0  0  0  0  0  0  0  0  0
   44.3770   33.9370   41.3700 S   0  0  0  0  0  0  0  0  0  0  0  0
   45.2650   33.2490   43.8810 C   0  0  0  0  0  0  0  0  0  0  0  0
   44.6620   34.2400   43.1350 C   0  0  0  0  0  0  0  0  0  0  0  0
   44.2900   35.4360   43.7060 C   0  0  0  0  0  0  0  0  0  0  0  0
   44.5450   35.5880   45.0340 N   0  0  0  0  0  0  0  0  0  0  0  0
   45.1270   34.6250   45.7470 C   0  0  0  0  0  0  0  0  0  0  0  0
   45.4910   33.4710   45.2140 N   0  0  0  0  0  0  0  0  0  0  0  0
   43.7136   36.1955   41.3624 H   0  0  0  0  0  0  0  0  0  0  0  0
   44.0873   35.5021   39.6835 H   0  0  0  0  0  0  0  0  0  0  0  0
   41.1112   36.2353   41.9240 H   0  0  0  0  0  0  0  0  0  0  0  0
   38.8940   35.8030   41.0261 H   0  0  0  0  0  0  0  0  0  0  0  0
   38.5730   34.5505   38.8973 H   0  0  0  0  0  0  0  0  0  0  0  0
   40.6147   33.7536   37.7032 H   0  0  0  0  0  0  0  0  0  0  0  0
   45.5592   32.2974   43.4141 H   0  0  0  0  0  0  0  0  0  0  0  0
   43.8095   36.2310   43.1169 H   0  0  0  0  0  0  0  0  0  0  0  0
   45.3114   34.7960   46.8179 H   0  0  0  0  0  0  0  0  0  0  0  0
  1  9  1  0
  2  3  1  0
  3  4  2  0
  4  1  1  0
  4  5  1  0
  6  5  2  0
  7  6  1  0
  8  3  1  0
  8  7  2  0
  9 11  1  0
 10 15  2  0
 11 12  2  0
 11 10  1  0
 12 13  1  0
 13 14  2  0
 15 14  1  0
  1 16  1  0
  1 17  1  0
  5 18  1  0
  6 19  1  0
  7 20  1  0
  8 21  1  0
 10 22  1  0
 12 23  1  0
 14 24  1  0
M  ISO  8  16   8  17   8  18  14  19  14  20  14  21  14  22  14  23  14
M  ISO  1  24  14
M  END
>  <minimizedAffinity>  (1) 
-4.36865568

>  <minimizedRMSD>  (1) 
4.47785425

$$$$
