
     RDKit          3D

 34 35  0  0  1  0  0  0  0  0999 V2000
   43.3300   35.3590   43.1030 N   0  0  0  0  0  0  0  0  0  0  0  0
   43.1050   35.3720   41.6470 C   0  0  0  0  0  0  0  0  0  0  0  0
   42.6030   33.7230   41.1860 S   0  0  0  0  0  0  0  0  0  0  0  0
   39.9840   32.8510   41.2380 C   0  0  0  0  0  0  0  0  0  0  0  0
   40.8810   33.7290   40.6590 C   0  0  0  0  0  0  0  0  0  0  0  0
   40.4720   34.6300   39.6630 C   0  0  0  0  0  0  0  0  0  0  0  0
   39.1590   34.5830   39.3100 N   0  0  0  0  0  0  0  0  0  0  0  0
   38.3260   33.7200   39.8950 C   0  0  0  0  0  0  0  0  0  0  0  0
   38.6800   32.8560   40.8380 N   0  0  0  0  0  0  0  0  0  0  0  0
   44.9280   35.8840   43.4790 S   0  0  0  0  0  0  0  0  0  0  0  0
   45.9430   35.3880   42.5290 O   0  0  0  0  0  0  0  0  0  0  0  0
   44.8630   37.4120   43.4580 O   0  0  0  0  0  0  0  0  0  0  0  0
   45.2750   35.4910   45.0610 O   0  0  0  0  0  0  0  0  0  0  0  0
   45.6400   33.6190   46.5660 C   0  0  2  0  0  0  0  0  0  0  0  0
   45.3480   34.1270   45.1700 C   0  0  2  0  0  0  0  0  0  0  0  0
   46.5610   33.5420   44.4650 C   0  0  0  0  0  0  0  0  0  0  0  0
   46.8430   32.3430   45.0870 O   0  0  0  0  0  0  0  0  0  0  0  0
   46.0220   32.1830   46.1740 C   0  0  0  0  0  0  0  0  0  0  0  0
   44.5770   33.6600   47.4230 O   0  0  0  0  0  0  0  0  0  0  0  0
   43.1971   34.4009   43.4568 H   0  0  0  0  0  0  0  0  0  0  0  0
   42.3143   36.0932   41.3928 H   0  0  0  0  0  0  0  0  0  0  0  0
   44.0174   35.6706   41.1100 H   0  0  0  0  0  0  0  0  0  0  0  0
   40.3202   32.1516   42.0176 H   0  0  0  0  0  0  0  0  0  0  0  0
   41.1743   35.3349   39.1940 H   0  0  0  0  0  0  0  0  0  0  0  0
   37.2740   33.7252   39.5736 H   0  0  0  0  0  0  0  0  0  0  0  0
   46.7097   35.0134   43.0310 H   0  0  0  0  0  0  0  0  0  0  0  0
   44.8484   37.7545   44.3868 H   0  0  0  0  0  0  0  0  0  0  0  0
   46.3818   34.2031   47.1305 H   0  0  0  0  0  0  0  0  0  0  0  0
   44.3638   33.8383   44.7724 H   0  0  0  0  0  0  0  0  0  0  0  0
   47.4178   34.2260   44.5548 H   0  0  0  0  0  0  0  0  0  0  0  0
   46.3617   33.3938   43.3934 H   0  0  0  0  0  0  0  0  0  0  0  0
   45.1284   31.5999   45.9066 H   0  0  0  0  0  0  0  0  0  0  0  0
   46.5081   31.6352   46.9947 H   0  0  0  0  0  0  0  0  0  0  0  0
   44.9053   33.6473   48.3569 H   0  0  0  0  0  0  0  0  0  0  0  0
  1 10  1  0
  2  1  1  0
  3  2  1  0
  5  3  1  0
  5  4  2  0
  6  5  1  0
  7  6  2  0
  7  8  1  0
  8  9  2  0
  9  4  1  0
 10 13  1  0
 11 10  1  0
 12 10  1  0
 14 19  1  0
 15 13  1  0
 15 14  1  0
 16 17  1  0
 16 15  1  0
 17 18  1  0
 18 14  1  0
  1 20  1  0
  2 21  1  0
  2 22  1  0
  4 23  1  0
  6 24  1  0
  8 25  1  0
 11 26  1  0
 12 27  1  0
 14 28  1  1
 15 29  1  6
 16 30  1  0
 16 31  1  0
 18 32  1  0
 18 33  1  0
 19 34  1  0
M  ISO  8  20   5  21   8  22   8  23  14  24  14  25  14  26   3  27   3
M  ISO  7  28  13  29  13  30  13  31  13  32  13  33  13  34   3
M  END
>  <minimizedAffinity>  (1) 
-5.31614065

>  <minimizedRMSD>  (1) 
1.11666811

$$$$
