
     RDKit          3D

 35 36  0  0  0  0  0  0  0  0999 V2000
   40.9940   32.7950   40.9040 C   0  0  0  0  0  0  0  0  0  0  0  0
   42.2030   33.3240   40.5120 C   0  0  0  0  0  0  0  0  0  0  0  0
   42.4640   33.5860   39.1580 C   0  0  0  0  0  0  0  0  0  0  0  0
   41.4520   33.2840   38.2880 N   0  0  0  0  0  0  0  0  0  0  0  0
   40.2960   32.7740   38.7100 C   0  0  0  0  0  0  0  0  0  0  0  0
   40.0450   32.5250   39.9810 N   0  0  0  0  0  0  0  0  0  0  0  0
   40.4010   30.0500   37.5600 Cl  0  0  0  0  0  0  0  0  0  0  0  0
   39.1990   31.2340   37.0940 C   0  0  0  0  0  0  0  0  0  0  0  0
   39.2640   32.4780   37.7130 C   0  0  0  0  0  0  0  0  0  0  0  0
   38.3130   33.4380   37.3540 C   0  0  0  0  0  0  0  0  0  0  0  0
   37.3220   33.1760   36.4070 C   0  0  0  0  0  0  0  0  0  0  0  0
   37.2830   31.9160   35.8020 C   0  0  0  0  0  0  0  0  0  0  0  0
   38.2190   30.9660   36.1530 C   0  0  0  0  0  0  0  0  0  0  0  0
   43.4790   33.6900   41.7290 S   0  0  0  0  0  0  0  0  0  0  0  0
   43.5210   35.4620   42.0290 C   0  0  0  0  0  0  0  0  0  0  0  0
   43.2930   35.6690   43.4450 N   0  0  0  0  0  0  0  0  0  0  0  0
   44.7490   35.8710   44.3300 S   0  0  0  0  0  0  0  0  0  0  0  0
   45.9300   35.3970   43.5720 O   0  0  0  0  0  0  0  0  0  0  0  0
   44.8730   37.3530   44.6170 O   0  0  0  0  0  0  0  0  0  0  0  0
   44.6270   35.1000   45.8070 O   0  0  0  0  0  0  0  0  0  0  0  0
   45.3990   33.9650   45.8920 C   0  0  0  0  0  0  0  0  0  0  0  0
   40.8008   32.5923   41.9678 H   0  0  0  0  0  0  0  0  0  0  0  0
   43.4214   34.0074   38.8178 H   0  0  0  0  0  0  0  0  0  0  0  0
   38.3469   34.4283   37.8317 H   0  0  0  0  0  0  0  0  0  0  0  0
   36.5843   33.9474   36.1411 H   0  0  0  0  0  0  0  0  0  0  0  0
   36.5121   31.6844   35.0523 H   0  0  0  0  0  0  0  0  0  0  0  0
   38.1865   29.9754   35.6759 H   0  0  0  0  0  0  0  0  0  0  0  0
   44.5025   35.8682   41.7432 H   0  0  0  0  0  0  0  0  0  0  0  0
   42.7511   35.9744   41.4334 H   0  0  0  0  0  0  0  0  0  0  0  0
   42.7149   36.5129   43.5654 H   0  0  0  0  0  0  0  0  0  0  0  0
   46.6364   35.1135   44.2050 H   0  0  0  0  0  0  0  0  0  0  0  0
   44.8853   37.4996   45.5960 H   0  0  0  0  0  0  0  0  0  0  0  0
   45.5688   33.7154   46.9498 H   0  0  0  0  0  0  0  0  0  0  0  0
   44.8802   33.1308   45.3971 H   0  0  0  0  0  0  0  0  0  0  0  0
   46.3655   34.1410   45.3971 H   0  0  0  0  0  0  0  0  0  0  0  0
  2  1  2  0
  2 14  1  0
  3  2  1  0
  4  5  1  0
  4  3  2  0
  5  6  2  0
  6  1  1  0
  8  7  1  0
  8  9  2  0
  9  5  1  0
 10  9  1  0
 11 10  2  0
 12 13  2  0
 12 11  1  0
 13  8  1  0
 14 15  1  0
 15 16  1  0
 16 17  1  0
 17 19  1  0
 17 20  1  0
 18 17  1  0
 20 21  1  0
  1 22  1  0
  3 23  1  0
 10 24  1  0
 11 25  1  0
 12 26  1  0
 13 27  1  0
 15 28  1  0
 15 29  1  0
 16 30  1  0
 18 31  1  0
 19 32  1  0
 21 33  1  0
 21 34  1  0
 21 35  1  0
M  ISO  8  22  14  23  14  24  14  25  14  26  14  27  14  28   8  29   8
M  ISO  6  30   5  31   3  32   3  33   8  34   8  35   8
M  END
>  <minimizedAffinity>  (1) 
-4.38501024

>  <minimizedRMSD>  (1) 
2.50236011

$$$$
