
     RDKit          3D

 26 26  0  0  0  0  0  0  0  0999 V2000
   43.7520   35.7190   41.6990 C   0  0  0  0  0  0  0  0  0  0  0  0
   43.4380   35.6510   43.1240 N   0  0  0  0  0  0  0  0  0  0  0  0
   44.8280   35.8380   44.1080 S   0  0  0  0  0  0  0  0  0  0  0  0
   46.0720   35.3560   43.4290 O   0  0  0  0  0  0  0  0  0  0  0  0
   44.9600   37.3280   44.3770 O   0  0  0  0  0  0  0  0  0  0  0  0
   44.5930   35.0870   45.5730 O   0  0  0  0  0  0  0  0  0  0  0  0
   45.4210   33.9990   45.7450 C   0  0  0  0  0  0  0  0  0  0  0  0
   43.4060   34.1080   40.9930 S   0  0  0  0  0  0  0  0  0  0  0  0
   40.8790   33.0340   41.3690 C   0  0  0  0  0  0  0  0  0  0  0  0
   41.6360   33.9600   40.6790 C   0  0  0  0  0  0  0  0  0  0  0  0
   41.0490   34.7930   39.7350 C   0  0  0  0  0  0  0  0  0  0  0  0
   39.7110   34.6510   39.5280 N   0  0  0  0  0  0  0  0  0  0  0  0
   38.9980   33.7360   40.2180 C   0  0  0  0  0  0  0  0  0  0  0  0
   39.5510   32.9320   41.1260 N   0  0  0  0  0  0  0  0  0  0  0  0
   37.6330   33.5790   40.0180 O   0  0  0  0  0  0  0  0  0  0  0  0
   43.1282   36.4837   41.2131 H   0  0  0  0  0  0  0  0  0  0  0  0
   44.8074   35.9896   41.5475 H   0  0  0  0  0  0  0  0  0  0  0  0
   42.7684   36.3999   43.3514 H   0  0  0  0  0  0  0  0  0  0  0  0
   46.7410   35.0968   44.1112 H   0  0  0  0  0  0  0  0  0  0  0  0
   44.9741   37.4870   45.3541 H   0  0  0  0  0  0  0  0  0  0  0  0
   45.5629   33.8125   46.8197 H   0  0  0  0  0  0  0  0  0  0  0  0
   44.9658   33.1141   45.2763 H   0  0  0  0  0  0  0  0  0  0  0  0
   46.3952   34.2019   45.2763 H   0  0  0  0  0  0  0  0  0  0  0  0
   41.3542   32.3801   42.1150 H   0  0  0  0  0  0  0  0  0  0  0  0
   41.6399   35.5355   39.1786 H   0  0  0  0  0  0  0  0  0  0  0  0
   37.1315   32.9008   40.5364 H   0  0  0  0  0  0  0  0  0  0  0  0
  1  2  1  0
  2  3  1  0
  3  5  1  0
  3  6  1  0
  4  3  1  0
  6  7  1  0
  8  1  1  0
 10  8  1  0
 10  9  2  0
 11 10  1  0
 12 11  2  0
 12 13  1  0
 13 14  2  0
 14  9  1  0
 15 13  1  0
  1 16  1  0
  1 17  1  0
  2 18  1  0
  4 19  1  0
  5 20  1  0
  7 21  1  0
  7 22  1  0
  7 23  1  0
  9 24  1  0
 11 25  1  0
 15 26  1  0
M  ISO  8  16   8  17   8  18   5  19   3  20   3  21   8  22   8  23   8
M  ISO  3  24  14  25  14  26   3
M  END
>  <minimizedAffinity>  (1) 
-4.60925722

>  <minimizedRMSD>  (1) 
0.51196599

$$$$
