
     RDKit          3D

 52 54  0  0  0  0  0  0  0  0999 V2000
   45.9520   32.3490   44.5740 C   0  0  0  0  0  0  0  0  0  0  0  0
   44.6260   35.7640   44.6620 C   0  0  0  0  0  0  0  0  0  0  0  0
   44.1000   35.9180   43.3570 C   0  0  0  0  0  0  0  0  0  0  0  0
   44.2240   34.8430   42.5040 C   0  0  0  0  0  0  0  0  0  0  0  0
   44.8250   33.7110   42.9270 N   0  0  0  0  0  0  0  0  0  0  0  0
   45.3070   33.6200   44.1820 C   0  0  0  0  0  0  0  0  0  0  0  0
   45.2220   34.6070   45.0430 N   0  0  0  0  0  0  0  0  0  0  0  0
   43.6690   35.0180   41.1370 C   0  0  0  0  0  0  0  0  0  0  0  0
   42.2400   35.5180   41.1720 C   0  0  0  0  0  0  0  0  0  0  0  0
   41.3320   34.8090   40.1970 C   0  0  0  0  0  0  0  0  0  0  0  0
   41.0560   35.7710   39.0340 C   0  0  0  0  0  0  0  0  0  0  0  0
   40.4740   35.0190   37.8740 C   0  0  0  0  0  0  0  0  0  0  0  0
   39.4050   34.0930   38.3970 C   0  0  0  0  0  0  0  0  0  0  0  0
   38.9130   34.5780   39.7380 C   0  0  0  0  0  0  0  0  0  0  0  0
   40.0050   34.4580   40.7810 C   0  0  0  0  0  0  0  0  0  0  0  0
   46.7220   32.5620   45.8520 C   0  0  0  0  0  0  0  0  0  0  0  0
   46.1440   31.8470   46.9670 C   0  0  0  0  0  0  0  0  0  0  0  0
   45.3460   32.3230   47.9740 C   0  0  0  0  0  0  0  0  0  0  0  0
   44.8520   31.5550   48.9810 C   0  0  0  0  0  0  0  0  0  0  0  0
   45.1720   30.2150   48.9920 C   0  0  0  0  0  0  0  0  0  0  0  0
   45.9710   29.7190   47.9890 C   0  0  0  0  0  0  0  0  0  0  0  0
   46.4600   30.5210   46.9790 C   0  0  0  0  0  0  0  0  0  0  0  0
   48.6110   29.4780   46.5680 C   0  0  0  0  0  0  0  0  0  0  0  0
   49.3620   29.8010   47.5550 O   0  0  0  0  0  0  0  0  0  0  0  0
   47.2560   29.6900   46.1150 N   0  0  0  0  0  0  0  0  0  0  0  0
   46.6395   32.0241   43.7792 H   0  0  0  0  0  0  0  0  0  0  0  0
   45.1851   31.5754   44.7272 H   0  0  0  0  0  0  0  0  0  0  0  0
   44.5502   36.5955   45.3781 H   0  0  0  0  0  0  0  0  0  0  0  0
   43.6148   36.8524   43.0386 H   0  0  0  0  0  0  0  0  0  0  0  0
   43.6952   34.0501   40.6151 H   0  0  0  0  0  0  0  0  0  0  0  0
   44.2811   35.7660   40.6118 H   0  0  0  0  0  0  0  0  0  0  0  0
   41.8439   35.3705   42.1876 H   0  0  0  0  0  0  0  0  0  0  0  0
   42.2605   36.5792   40.8833 H   0  0  0  0  0  0  0  0  0  0  0  0
   41.8368   33.8794   39.8953 H   0  0  0  0  0  0  0  0  0  0  0  0
   40.3447   36.5436   39.3612 H   0  0  0  0  0  0  0  0  0  0  0  0
   42.0002   36.2415   38.7224 H   0  0  0  0  0  0  0  0  0  0  0  0
   41.2620   34.4340   37.3772 H   0  0  0  0  0  0  0  0  0  0  0  0
   40.0430   35.7214   37.1454 H   0  0  0  0  0  0  0  0  0  0  0  0
   38.5647   34.0692   37.6875 H   0  0  0  0  0  0  0  0  0  0  0  0
   39.8261   33.0832   38.5106 H   0  0  0  0  0  0  0  0  0  0  0  0
   38.6091   35.6317   39.6522 H   0  0  0  0  0  0  0  0  0  0  0  0
   38.0575   33.9595   40.0471 H   0  0  0  0  0  0  0  0  0  0  0  0
   40.0366   33.4235   41.1535 H   0  0  0  0  0  0  0  0  0  0  0  0
   39.7857   35.1534   41.6046 H   0  0  0  0  0  0  0  0  0  0  0  0
   47.7547   32.2127   45.7050 H   0  0  0  0  0  0  0  0  0  0  0  0
   46.6905   33.6358   46.0885 H   0  0  0  0  0  0  0  0  0  0  0  0
   45.0893   33.3926   47.9671 H   0  0  0  0  0  0  0  0  0  0  0  0
   44.2150   31.9910   49.7647 H   0  0  0  0  0  0  0  0  0  0  0  0
   44.7957   29.5550   49.7875 H   0  0  0  0  0  0  0  0  0  0  0  0
   46.2282   28.6495   47.9921 H   0  0  0  0  0  0  0  0  0  0  0  0
   49.1636   28.8522   45.8517 H   0  0  0  0  0  0  0  0  0  0  0  0
   46.8893   29.2797   45.2443 H   0  0  0  0  0  0  0  0  0  0  0  0
  1 16  1  0
  2  7  2  0
  3  2  1  0
  4  5  1  0
  4  3  2  0
  5  6  2  0
  6  1  1  0
  6  7  1  0
  8  9  1  0
  8  4  1  0
 10 15  1  0
 10  9  1  0
 11 10  1  0
 12 13  1  0
 12 11  1  0
 13 14  1  0
 14 15  1  0
 16 17  1  0
 17 22  1  0
 17 18  2  0
 18 19  1  0
 19 20  2  0
 21 20  1  0
 22 21  2  0
 23 24  2  0
 25 23  1  0
 25 22  1  0
  1 26  1  0
  1 27  1  0
  2 28  1  0
  3 29  1  0
  8 30  1  0
  8 31  1  0
  9 32  1  0
  9 33  1  0
 10 34  1  0
 11 35  1  0
 11 36  1  0
 12 37  1  0
 12 38  1  0
 13 39  1  0
 13 40  1  0
 14 41  1  0
 14 42  1  0
 15 43  1  0
 15 44  1  0
 16 45  1  0
 16 46  1  0
 18 47  1  0
 19 48  1  0
 20 49  1  0
 21 50  1  0
 23 51  1  0
 25 52  1  0
M  ISO  8  26   8  27   8  28  14  29  14  30   8  31   8  32   8  33   8
M  ISO  8  34  13  35  13  36  13  37  13  38  13  39  13  40  13  41  13
M  ISO  8  42  13  43  13  44  13  45   8  46   8  47  14  48  14  49  14
M  ISO  2  50  14  51   6
M  END
>  <minimizedAffinity>  (1) 
-6.29439926

>  <minimizedRMSD>  (1) 
0.950186431

$$$$
