
     RDKit          3D

 40 41  0  0  0  0  0  0  0  0999 V2000
   41.3840   32.4360   41.9100 C   0  0  0  0  0  0  0  0  0  0  0  0
   42.2860   32.7790   40.9210 C   0  0  0  0  0  0  0  0  0  0  0  0
   41.9980   32.5590   39.5780 C   0  0  0  0  0  0  0  0  0  0  0  0
   40.8010   31.9980   39.2830 N   0  0  0  0  0  0  0  0  0  0  0  0
   39.9340   31.6720   40.2700 C   0  0  0  0  0  0  0  0  0  0  0  0
   40.1990   31.8780   41.5700 N   0  0  0  0  0  0  0  0  0  0  0  0
   43.8690   33.5220   41.3540 S   0  0  0  0  0  0  0  0  0  0  0  0
   43.6720   35.2870   41.5430 C   0  0  0  0  0  0  0  0  0  0  0  0
   43.3760   35.5590   42.9430 N   0  0  0  0  0  0  0  0  0  0  0  0
   44.8010   35.9210   43.8360 S   0  0  0  0  0  0  0  0  0  0  0  0
   46.0460   35.5720   43.1010 O   0  0  0  0  0  0  0  0  0  0  0  0
   44.7770   37.4210   44.0870 O   0  0  0  0  0  0  0  0  0  0  0  0
   44.7270   35.1660   45.3200 O   0  0  0  0  0  0  0  0  0  0  0  0
   45.5750   34.0730   45.3910 C   0  0  0  0  0  0  0  0  0  0  0  0
   38.6950   31.0950   40.0010 O   0  0  0  0  0  0  0  0  0  0  0  0
   38.5550   29.7140   39.6990 C   0  0  0  0  0  0  0  0  0  0  0  0
   39.7260   28.9490   40.1990 C   0  0  0  0  0  0  0  0  0  0  0  0
   39.5710   28.2720   41.5110 C   0  0  0  0  0  0  0  0  0  0  0  0
   38.2980   28.0600   41.9570 O   0  0  0  0  0  0  0  0  0  0  0  0
   37.4290   29.1040   41.7860 C   0  0  0  0  0  0  0  0  0  0  0  0
   37.2370   29.2910   40.2980 C   0  0  0  0  0  0  0  0  0  0  0  0
   41.6278   32.6155   42.9675 H   0  0  0  0  0  0  0  0  0  0  0  0
   42.7135   32.8297   38.7875 H   0  0  0  0  0  0  0  0  0  0  0  0
   44.6004   35.7997   41.2512 H   0  0  0  0  0  0  0  0  0  0  0  0
   42.8559   35.6515   40.9018 H   0  0  0  0  0  0  0  0  0  0  0  0
   42.7342   36.3627   42.9984 H   0  0  0  0  0  0  0  0  0  0  0  0
   46.7664   35.3701   43.7494 H   0  0  0  0  0  0  0  0  0  0  0  0
   44.7743   37.5924   45.0620 H   0  0  0  0  0  0  0  0  0  0  0  0
   45.7669   33.8257   46.4455 H   0  0  0  0  0  0  0  0  0  0  0  0
   45.1061   33.2121   44.8919 H   0  0  0  0  0  0  0  0  0  0  0  0
   46.5254   34.3132   44.8919 H   0  0  0  0  0  0  0  0  0  0  0  0
   38.5401   29.5121   38.6178 H   0  0  0  0  0  0  0  0  0  0  0  0
   39.9632   28.1772   39.4520 H   0  0  0  0  0  0  0  0  0  0  0  0
   40.5160   29.6988   40.3529 H   0  0  0  0  0  0  0  0  0  0  0  0
   40.0636   27.2912   41.4376 H   0  0  0  0  0  0  0  0  0  0  0  0
   40.0160   28.9637   42.2414 H   0  0  0  0  0  0  0  0  0  0  0  0
   36.4653   28.8736   42.2637 H   0  0  0  0  0  0  0  0  0  0  0  0
   37.8271   30.0209   42.2453 H   0  0  0  0  0  0  0  0  0  0  0  0
   36.4794   30.0674   40.1155 H   0  0  0  0  0  0  0  0  0  0  0  0
   36.8968   28.3510   39.8390 H   0  0  0  0  0  0  0  0  0  0  0  0
  2  7  1  0
  2  1  2  0
  3  2  1  0
  4  3  2  0
  4  5  1  0
  5  6  2  0
  6  1  1  0
  7  8  1  0
  8  9  1  0
  9 10  1  0
 10 12  1  0
 10 13  1  0
 11 10  1  0
 13 14  1  0
 15  5  1  0
 16 15  1  0
 16 17  1  0
 16 21  1  0
 17 18  1  0
 18 19  1  0
 20 19  1  0
 21 20  1  0
  1 22  1  0
  3 23  1  0
  8 24  1  0
  8 25  1  0
  9 26  1  0
 11 27  1  0
 12 28  1  0
 14 29  1  0
 14 30  1  0
 14 31  1  0
 16 32  1  0
 17 33  1  0
 17 34  1  0
 18 35  1  0
 18 36  1  0
 20 37  1  0
 20 38  1  0
 21 39  1  0
 21 40  1  0
M  ISO  8  22  14  23  14  24   8  25   8  26   5  27   3  28   3  29   8
M  ISO  8  30   8  31   8  32  13  33  13  34  13  35  13  36  13  37  13
M  ISO  3  38  13  39  13  40  13
M  END
>  <minimizedAffinity>  (1) 
-4.303895

>  <minimizedRMSD>  (1) 
3.73260403

$$$$
