
     RDKit          3D

 27 28  0  0  0  0  0  0  0  0999 V2000
   45.3190   36.0210   43.2310 C   0  0  0  0  0  0  0  0  0  0  0  0
   46.1760   34.9050   43.1440 C   0  0  0  0  0  0  0  0  0  0  0  0
   46.2180   34.0180   44.2060 C   0  0  0  0  0  0  0  0  0  0  0  0
   45.4360   34.2610   45.2790 N   0  0  0  0  0  0  0  0  0  0  0  0
   44.6180   35.3350   45.3520 C   0  0  0  0  0  0  0  0  0  0  0  0
   44.5620   36.2010   44.3400 N   0  0  0  0  0  0  0  0  0  0  0  0
   47.0590   32.8680   44.1920 N   0  0  0  0  0  0  0  0  0  0  0  0
   48.1210   32.4300   43.3080 C   0  0  0  0  0  0  0  0  0  0  0  0
   47.8660   31.0460   42.7640 C   0  0  0  0  0  0  0  0  0  0  0  0
   47.2810   30.1260   43.8120 C   0  0  0  0  0  0  0  0  0  0  0  0
   47.5500   30.6830   45.2020 C   0  0  0  0  0  0  0  0  0  0  0  0
   46.7700   31.9720   45.2970 C   0  0  0  0  0  0  0  0  0  0  0  0
   46.9780   34.7080   41.9770 C   0  0  0  0  0  0  0  0  0  0  0  0
   47.9390   35.5030   41.7780 O   0  0  0  0  0  0  0  0  0  0  0  0
   45.2652   36.7423   42.4022 H   0  0  0  0  0  0  0  0  0  0  0  0
   43.9984   35.4943   46.2468 H   0  0  0  0  0  0  0  0  0  0  0  0
   48.1964   33.1344   42.4665 H   0  0  0  0  0  0  0  0  0  0  0  0
   49.0560   32.4016   43.8867 H   0  0  0  0  0  0  0  0  0  0  0  0
   47.1617   31.1192   41.9222 H   0  0  0  0  0  0  0  0  0  0  0  0
   48.8292   30.6246   42.4404 H   0  0  0  0  0  0  0  0  0  0  0  0
   46.1952   30.0414   43.6573 H   0  0  0  0  0  0  0  0  0  0  0  0
   47.7488   29.1344   43.7236 H   0  0  0  0  0  0  0  0  0  0  0  0
   47.2087   29.9732   45.9699 H   0  0  0  0  0  0  0  0  0  0  0  0
   48.6247   30.8516   45.3654 H   0  0  0  0  0  0  0  0  0  0  0  0
   47.0307   32.4757   46.2395 H   0  0  0  0  0  0  0  0  0  0  0  0
   45.6991   31.7233   45.2602 H   0  0  0  0  0  0  0  0  0  0  0  0
   46.7647   33.8892   41.2741 H   0  0  0  0  0  0  0  0  0  0  0  0
  1  6  2  0
  2  1  1  0
  2  3  2  0
  3  4  1  0
  4  5  2  0
  6  5  1  0
  7  3  1  0
  7 12  1  0
  8  7  1  0
  9  8  1  0
  9 10  1  0
 10 11  1  0
 11 12  1  0
 13  2  1  0
 14 13  2  0
  1 15  1  0
  5 16  1  0
  8 17  1  0
  8 18  1  0
  9 19  1  0
  9 20  1  0
 10 21  1  0
 10 22  1  0
 11 23  1  0
 11 24  1  0
 12 25  1  0
 12 26  1  0
 13 27  1  0
M  ISO  8  15  14  16  14  17  13  18  13  19  13  20  13  21  13  22  13
M  ISO  5  23  13  24  13  25  13  26  13  27   6
M  END
>  <minimizedAffinity>  (1) 
-3.89940882

>  <minimizedRMSD>  (1) 
0.368046701

$$$$
