
     RDKit          3D

 23 24  0  0  1  0  0  0  0  0999 V2000
   45.5700   35.7950   43.2110 C   0  0  0  0  0  0  0  0  0  0  0  0
   46.2280   34.5580   43.3760 C   0  0  0  0  0  0  0  0  0  0  0  0
   45.9730   33.8530   44.5560 C   0  0  0  0  0  0  0  0  0  0  0  0
   45.1280   34.3750   45.4670 N   0  0  0  0  0  0  0  0  0  0  0  0
   44.5120   35.5710   45.2740 C   0  0  0  0  0  0  0  0  0  0  0  0
   44.7390   36.2730   44.1450 N   0  0  0  0  0  0  0  0  0  0  0  0
   47.1370   32.8310   47.2610 O   0  0  0  0  0  0  0  0  0  0  0  0
   46.9880   32.2640   46.1600 C   0  0  0  0  0  0  0  0  0  0  0  0
   46.6560   32.5540   44.7410 C   0  0  1  0  0  0  0  0  0  0  0  0
   45.7810   31.3770   44.3640 C   0  0  0  0  0  0  0  0  0  0  0  0
   46.4600   30.2290   45.0450 C   0  0  0  0  0  0  0  0  0  0  0  0
   47.1810   30.8370   46.1320 N   0  0  0  0  0  0  0  0  0  0  0  0
   47.1120   34.0540   42.3760 C   0  0  0  0  0  0  0  0  0  0  0  0
   47.5280   34.8590   41.5090 O   0  0  0  0  0  0  0  0  0  0  0  0
   45.7436   36.3791   42.2952 H   0  0  0  0  0  0  0  0  0  0  0  0
   43.8279   35.9667   46.0391 H   0  0  0  0  0  0  0  0  0  0  0  0
   47.5482   32.6571   44.1059 H   0  0  0  0  0  0  0  0  0  0  0  0
   44.7552   31.5096   44.7384 H   0  0  0  0  0  0  0  0  0  0  0  0
   45.6783   31.2404   43.2774 H   0  0  0  0  0  0  0  0  0  0  0  0
   45.7207   29.5075   45.4229 H   0  0  0  0  0  0  0  0  0  0  0  0
   47.1182   29.6671   44.3660 H   0  0  0  0  0  0  0  0  0  0  0  0
   47.7619   30.3171   46.8052 H   0  0  0  0  0  0  0  0  0  0  0  0
   47.4177   32.9974   42.3658 H   0  0  0  0  0  0  0  0  0  0  0  0
  1  2  2  0
  1  6  1  0
  2  3  1  0
  3  4  2  0
  5  4  1  0
  6  5  2  0
  8  7  2  0
  9  3  1  0
  9  8  1  0
 10  9  1  0
 10 11  1  0
 11 12  1  0
 12  8  1  0
 13  2  1  0
 14 13  2  0
  1 15  1  0
  5 16  1  0
  9 17  1  6
 10 18  1  0
 10 19  1  0
 11 20  1  0
 11 21  1  0
 12 22  1  0
 13 23  1  0
M  ISO  8  15  14  16  14  17  13  18  13  19  13  20  13  21  13  22  10
M  ISO  1  23   6
M  END
>  <minimizedAffinity>  (1) 
-3.9403553

>  <minimizedRMSD>  (1) 
1.0468297

$$$$
