
     RDKit          3D

 18 18  0  0  0  0  0  0  0  0999 V2000
   45.3550   36.0500   43.2000 C   0  0  0  0  0  0  0  0  0  0  0  0
   46.1420   34.8880   43.1490 C   0  0  0  0  0  0  0  0  0  0  0  0
   46.1030   34.0130   44.2490 C   0  0  0  0  0  0  0  0  0  0  0  0
   45.3090   34.3410   45.2970 N   0  0  0  0  0  0  0  0  0  0  0  0
   44.5670   35.4670   45.3110 C   0  0  0  0  0  0  0  0  0  0  0  0
   44.5960   36.3060   44.2690 N   0  0  0  0  0  0  0  0  0  0  0  0
   46.9550   34.6200   41.9980 C   0  0  0  0  0  0  0  0  0  0  0  0
   47.9530   35.3470   41.8120 O   0  0  0  0  0  0  0  0  0  0  0  0
   46.8920   32.9030   44.1350 O   0  0  0  0  0  0  0  0  0  0  0  0
   45.7840   30.5270   43.7230 O   0  0  0  0  0  0  0  0  0  0  0  0
   46.5010   31.3740   44.7700 P   0  0  0  0  0  0  0  0  0  0  0  0
   47.9130   30.5660   45.2150 O   0  0  0  0  0  0  0  0  0  0  0  0
   45.4820   31.4470   46.1080 O   0  0  0  0  0  0  0  0  0  0  0  0
   45.3636   36.7536   42.3545 H   0  0  0  0  0  0  0  0  0  0  0  0
   43.9357   35.6966   46.1821 H   0  0  0  0  0  0  0  0  0  0  0  0
   46.7081   33.8031   41.3039 H   0  0  0  0  0  0  0  0  0  0  0  0
   47.9755   30.5302   46.2024 H   0  0  0  0  0  0  0  0  0  0  0  0
   46.0222   31.4083   46.9367 H   0  0  0  0  0  0  0  0  0  0  0  0
  1  6  2  0
  2  1  1  0
  2  3  2  0
  3  4  1  0
  4  5  2  0
  6  5  1  0
  7  2  1  0
  8  7  2  0
  9  3  1  0
  9 11  1  0
 10 11  2  0
 11 12  1  0
 11 13  1  0
  1 14  1  0
  5 15  1  0
  7 16  1  0
 12 17  1  0
 13 18  1  0
M  ISO  5  14  14  15  14  16   6  17   3  18   3
M  END
>  <minimizedAffinity>  (1) 
-3.64947295

>  <minimizedRMSD>  (1) 
0.844641566

$$$$
