
     RDKit          3D

 19 20  0  0  0  0  0  0  0  0999 V2000
   45.3060   35.9920   43.2070 C   0  0  0  0  0  0  0  0  0  0  0  0
   46.2090   34.9360   43.0970 C   0  0  0  0  0  0  0  0  0  0  0  0
   46.2950   34.0420   44.1680 C   0  0  0  0  0  0  0  0  0  0  0  0
   45.4860   34.2690   45.2500 N   0  0  0  0  0  0  0  0  0  0  0  0
   44.6220   35.3070   45.3170 C   0  0  0  0  0  0  0  0  0  0  0  0
   44.5430   36.1620   44.2880 N   0  0  0  0  0  0  0  0  0  0  0  0
   47.0150   34.7620   41.9430 C   0  0  0  0  0  0  0  0  0  0  0  0
   48.0230   35.4950   41.8020 O   0  0  0  0  0  0  0  0  0  0  0  0
   47.2240   32.9200   44.1030 C   0  0  0  0  0  0  0  0  0  0  0  0
   46.9330   31.5490   43.7760 C   0  0  0  0  0  0  0  0  0  0  0  0
   47.0770   31.9430   45.2630 C   0  0  0  0  0  0  0  0  0  0  0  0
   45.2198   36.7078   42.3762 H   0  0  0  0  0  0  0  0  0  0  0  0
   43.9907   35.4481   46.2067 H   0  0  0  0  0  0  0  0  0  0  0  0
   46.7620   34.0019   41.1892 H   0  0  0  0  0  0  0  0  0  0  0  0
   47.9727   33.5796   43.6400 H   0  0  0  0  0  0  0  0  0  0  0  0
   45.9444   31.2809   43.3750 H   0  0  0  0  0  0  0  0  0  0  0  0
   47.4054   30.7943   43.1300 H   0  0  0  0  0  0  0  0  0  0  0  0
   47.9554   31.6266   45.8446 H   0  0  0  0  0  0  0  0  0  0  0  0
   46.4655   31.8679   46.1743 H   0  0  0  0  0  0  0  0  0  0  0  0
  1  6  2  0
  2  1  1  0
  2  3  2  0
  3  4  1  0
  4  5  2  0
  6  5  1  0
  7  2  1  0
  8  7  2  0
  9  3  1  0
  9 11  1  0
 10  9  1  0
 10 11  1  0
  1 12  1  0
  5 13  1  0
  7 14  1  0
  9 15  1  0
 10 16  1  0
 10 17  1  0
 11 18  1  0
 11 19  1  0
M  ISO  8  12  14  13  14  14   6  15  13  16  13  17  13  18  13  19  13
M  END
>  <minimizedAffinity>  (1) 
-3.55887675

>  <minimizedRMSD>  (1) 
1.10880041

$$$$
