
     RDKit          3D

 13 13  0  0  0  0  0  0  0  0999 V2000
   45.1810   35.9320   43.3440 C   0  0  0  0  0  0  0  0  0  0  0  0
   46.1480   34.9500   43.1390 C   0  0  0  0  0  0  0  0  0  0  0  0
   46.3740   34.0330   44.1580 C   0  0  0  0  0  0  0  0  0  0  0  0
   45.6360   34.1450   45.3050 N   0  0  0  0  0  0  0  0  0  0  0  0
   44.7050   35.1100   45.4710 C   0  0  0  0  0  0  0  0  0  0  0  0
   44.4860   35.9930   44.4910 N   0  0  0  0  0  0  0  0  0  0  0  0
   46.8790   34.9010   41.9070 C   0  0  0  0  0  0  0  0  0  0  0  0
   48.0960   35.1830   41.9240 O   0  0  0  0  0  0  0  0  0  0  0  0
   47.3320   33.0430   43.9830 O   0  0  0  0  0  0  0  0  0  0  0  0
   44.9837   36.6699   42.5525 H   0  0  0  0  0  0  0  0  0  0  0  0
   44.1304   35.1689   46.4071 H   0  0  0  0  0  0  0  0  0  0  0  0
   46.3797   34.6214   40.9676 H   0  0  0  0  0  0  0  0  0  0  0  0
   47.5008   32.3847   44.7029 H   0  0  0  0  0  0  0  0  0  0  0  0
  1  6  2  0
  2  1  1  0
  2  3  2  0
  3  4  1  0
  4  5  2  0
  6  5  1  0
  7  8  2  0
  7  2  1  0
  9  3  1  0
  1 10  1  0
  5 11  1  0
  7 12  1  0
  9 13  1  0
M  ISO  4  10  14  11  14  12   6  13   3
M  END
>  <minimizedAffinity>  (1) 
-3.24472165

>  <minimizedRMSD>  (1) 
0.152655825

$$$$
