
     RDKit          3D

 13 13  0  0  0  0  0  0  0  0999 V2000
   45.3090   36.0340   43.2570 C   0  0  0  0  0  0  0  0  0  0  0  0
   46.1700   34.9240   43.1210 C   0  0  0  0  0  0  0  0  0  0  0  0
   46.2130   34.0220   44.1750 C   0  0  0  0  0  0  0  0  0  0  0  0
   45.4500   34.2270   45.2720 N   0  0  0  0  0  0  0  0  0  0  0  0
   44.6300   35.3070   45.3750 C   0  0  0  0  0  0  0  0  0  0  0  0
   44.5740   36.1960   44.3590 N   0  0  0  0  0  0  0  0  0  0  0  0
   46.9500   34.7630   41.9360 C   0  0  0  0  0  0  0  0  0  0  0  0
   47.9830   35.4720   41.8230 O   0  0  0  0  0  0  0  0  0  0  0  0
   47.3050   32.6090   44.0070 S   0  0  0  0  0  0  0  0  0  0  0  0
   45.2431   36.7738   42.4456 H   0  0  0  0  0  0  0  0  0  0  0  0
   44.0181   35.4554   46.2770 H   0  0  0  0  0  0  0  0  0  0  0  0
   46.6592   34.0474   41.1529 H   0  0  0  0  0  0  0  0  0  0  0  0
   47.6570   32.1535   45.2502 H   0  0  0  0  0  0  0  0  0  0  0  0
  1  6  2  0
  2  1  1  0
  2  3  2  0
  3  4  1  0
  4  5  2  0
  6  5  1  0
  7  2  1  0
  8  7  2  0
  9  3  1  0
  1 10  1  0
  5 11  1  0
  7 12  1  0
  9 13  1  0
M  ISO  4  10  14  11  14  12   6  13  11
M  END
>  <minimizedAffinity>  (1) 
-3.31122899

>  <minimizedRMSD>  (1) 
0.153763682

$$$$
