
     RDKit          3D

 14 14  0  0  0  0  0  0  0  0999 V2000
   46.0690   35.0340   43.0840 C   0  0  0  0  0  0  0  0  0  0  0  0
   46.3470   34.0700   44.0500 C   0  0  0  0  0  0  0  0  0  0  0  0
   45.6610   34.1100   45.2540 C   0  0  0  0  0  0  0  0  0  0  0  0
   44.7480   35.0910   45.4320 N   0  0  0  0  0  0  0  0  0  0  0  0
   44.4880   36.0180   44.4850 C   0  0  0  0  0  0  0  0  0  0  0  0
   45.1440   35.9960   43.3090 N   0  0  0  0  0  0  0  0  0  0  0  0
   47.3410   33.0640   43.7620 C   0  0  0  0  0  0  0  0  0  0  0  0
   48.4410   33.4480   43.2630 O   0  0  0  0  0  0  0  0  0  0  0  0
   45.9710   33.0890   46.2480 C   0  0  0  0  0  0  0  0  0  0  0  0
   45.3120   32.9800   47.3270 O   0  0  0  0  0  0  0  0  0  0  0  0
   46.6084   35.0132   42.1255 H   0  0  0  0  0  0  0  0  0  0  0  0
   43.7349   36.7968   44.6756 H   0  0  0  0  0  0  0  0  0  0  0  0
   47.1505   32.0005   43.9685 H   0  0  0  0  0  0  0  0  0  0  0  0
   46.8008   32.3926   46.0568 H   0  0  0  0  0  0  0  0  0  0  0  0
  1  6  2  0
  1  2  1  0
  2  3  2  0
  3  4  1  0
  3  9  1  0
  5  4  2  0
  6  5  1  0
  7  2  1  0
  8  7  2  0
  9 10  2  0
  1 11  1  0
  5 12  1  0
  7 13  1  0
  9 14  1  0
M  ISO  4  11  14  12  14  13   6  14   6
M  END
>  <minimizedAffinity>  (1) 
-3.41744733

>  <minimizedRMSD>  (1) 
2.37295413

$$$$
