
     RDKit          3D

 15 15  0  0  0  0  0  0  0  0999 V2000
   45.2530   35.9260   43.3430 C   0  0  0  0  0  0  0  0  0  0  0  0
   46.1560   34.8790   43.1820 C   0  0  0  0  0  0  0  0  0  0  0  0
   46.2940   33.9720   44.2210 C   0  0  0  0  0  0  0  0  0  0  0  0
   45.5390   34.1510   45.3480 N   0  0  0  0  0  0  0  0  0  0  0  0
   44.6650   35.1780   45.4800 C   0  0  0  0  0  0  0  0  0  0  0  0
   44.5290   36.0590   44.4750 N   0  0  0  0  0  0  0  0  0  0  0  0
   46.9130   34.7490   41.9840 C   0  0  0  0  0  0  0  0  0  0  0  0
   47.9240   35.4620   41.8290 O   0  0  0  0  0  0  0  0  0  0  0  0
   47.2490   32.8440   44.0820 C   0  0  0  0  0  0  0  0  0  0  0  0
   45.1268   36.6590   42.5326 H   0  0  0  0  0  0  0  0  0  0  0  0
   44.0730   35.2892   46.4004 H   0  0  0  0  0  0  0  0  0  0  0  0
   46.6110   34.0310   41.2072 H   0  0  0  0  0  0  0  0  0  0  0  0
   47.5476   32.4913   45.0802 H   0  0  0  0  0  0  0  0  0  0  0  0
   46.7680   32.0221   43.5314 H   0  0  0  0  0  0  0  0  0  0  0  0
   48.1390   33.1828   43.5314 H   0  0  0  0  0  0  0  0  0  0  0  0
  1  6  2  0
  2  1  1  0
  2  3  2  0
  3  4  1  0
  4  5  2  0
  6  5  1  0
  7  2  1  0
  8  7  2  0
  9  3  1  0
  1 10  1  0
  5 11  1  0
  7 12  1  0
  9 13  1  0
  9 14  1  0
  9 15  1  0
M  ISO  6  10  14  11  14  12   6  13   8  14   8  15   8
M  END
>  <minimizedAffinity>  (1) 
-3.35216045

>  <minimizedRMSD>  (1) 
0.0863295943

$$$$
