
     RDKit          3D

 31 33  0  0  1  0  0  0  0  0999 V2000
   45.8820   35.8610   43.0320 C   0  0  0  0  0  0  0  0  0  0  0  0
   46.3000   34.5570   43.4050 C   0  0  0  0  0  0  0  0  0  0  0  0
   45.7080   34.0800   44.5660 C   0  0  0  0  0  0  0  0  0  0  0  0
   44.8210   34.7960   45.2690 N   0  0  0  0  0  0  0  0  0  0  0  0
   44.4550   36.0480   44.8630 C   0  0  0  0  0  0  0  0  0  0  0  0
   44.9990   36.5630   43.7400 N   0  0  0  0  0  0  0  0  0  0  0  0
   46.0430   32.8010   44.9980 C   0  0  0  0  0  0  0  0  0  0  0  0
   45.8810   31.5440   44.5160 C   0  0  0  0  0  0  0  0  0  0  0  0
   46.2750   30.4380   45.1290 C   0  0  0  0  0  0  0  0  0  0  0  0
   46.8880   30.6160   46.3400 C   0  0  0  0  0  0  0  0  0  0  0  0
   46.8630   32.4450   46.5340 S   0  0  0  0  0  0  0  0  0  0  0  0
   47.2360   33.8750   42.5930 C   0  0  0  0  0  0  0  0  0  0  0  0
   48.3510   33.6390   43.2510 O   0  0  0  0  0  0  0  0  0  0  0  0
   48.8650   35.7340   41.0460 Cl  0  0  0  0  0  0  0  0  0  0  0  0
   47.9510   34.3350   40.4350 C   0  0  0  0  0  0  0  0  0  0  0  0
   47.1710   33.4180   41.1710 C   0  0  0  0  0  0  0  0  0  0  0  0
   46.5730   32.4310   40.4410 C   0  0  0  0  0  0  0  0  0  0  0  0
   46.7060   32.3120   39.0830 C   0  0  0  0  0  0  0  0  0  0  0  0
   47.4680   33.2100   38.3710 C   0  0  0  0  0  0  0  0  0  0  0  0
   47.5400   32.9290   36.6440 Cl  0  0  0  0  0  0  0  0  0  0  0  0
   48.0990   34.2320   39.0420 C   0  0  0  0  0  0  0  0  0  0  0  0
   46.3045   36.3101   42.1211 H   0  0  0  0  0  0  0  0  0  0  0  0
   43.7251   36.6300   45.4448 H   0  0  0  0  0  0  0  0  0  0  0  0
   45.3841   31.4344   43.5408 H   0  0  0  0  0  0  0  0  0  0  0  0
   46.1196   29.4402   44.6929 H   0  0  0  0  0  0  0  0  0  0  0  0
   47.2934   29.8565   47.0247 H   0  0  0  0  0  0  0  0  0  0  0  0
   46.8303   32.9113   42.9348 H   0  0  0  0  0  0  0  0  0  0  0  0
   48.1740   33.6765   44.2243 H   0  0  0  0  0  0  0  0  0  0  0  0
   45.9524   31.6934   40.9709 H   0  0  0  0  0  0  0  0  0  0  0  0
   46.1986   31.4904   38.5562 H   0  0  0  0  0  0  0  0  0  0  0  0
   48.7132   34.9611   38.4931 H   0  0  0  0  0  0  0  0  0  0  0  0
  1  2  2  0
  1  6  1  0
  2  3  1  0
  3  7  1  0
  3  4  2  0
  5  4  1  0
  6  5  2  0
  7 11  1  0
  8  7  2  0
  8  9  1  0
  9 10  2  0
 10 11  1  0
 12 13  1  0
 12  2  1  0
 15 14  1  0
 15 16  2  0
 16 12  1  0
 17 16  1  0
 18 17  2  0
 19 21  2  0
 19 18  1  0
 20 19  1  0
 21 15  1  0
  1 22  1  0
  5 23  1  0
  8 24  1  0
  9 25  1  0
 10 26  1  0
 12 27  1  0
 13 28  1  0
 17 29  1  0
 18 30  1  0
 21 31  1  0
M  ISO  8  22  14  23  14  24  14  25  14  26  14  27   8  28   3  29  14
M  ISO  2  30  14  31  14
M  END
>  <minimizedAffinity>  (1) 
-5.39799976

>  <minimizedRMSD>  (1) 
1.46141708

$$$$
