
     RDKit          3D

 28 30  0  0  0  0  0  0  0  0999 V2000
   45.2140   36.1910   43.4900 C   0  0  0  0  0  0  0  0  0  0  0  0
   45.8510   34.9810   43.1470 C   0  0  0  0  0  0  0  0  0  0  0  0
   45.7960   33.9960   44.1320 C   0  0  0  0  0  0  0  0  0  0  0  0
   45.1800   34.1850   45.3210 N   0  0  0  0  0  0  0  0  0  0  0  0
   44.5780   35.3800   45.5970 C   0  0  0  0  0  0  0  0  0  0  0  0
   44.6020   36.3740   44.6760 N   0  0  0  0  0  0  0  0  0  0  0  0
   46.4020   32.7680   43.8870 C   0  0  0  0  0  0  0  0  0  0  0  0
   47.6790   32.2820   43.9850 C   0  0  0  0  0  0  0  0  0  0  0  0
   48.0400   31.0510   43.6850 C   0  0  0  0  0  0  0  0  0  0  0  0
   47.0310   30.2240   43.2480 C   0  0  0  0  0  0  0  0  0  0  0  0
   45.5450   31.3260   43.2960 S   0  0  0  0  0  0  0  0  0  0  0  0
   46.4590   34.8200   41.8820 C   0  0  0  0  0  0  0  0  0  0  0  0
   47.6550   35.2670   41.8340 O   0  0  0  0  0  0  0  0  0  0  0  0
   45.7340   34.1900   40.7350 C   0  0  0  0  0  0  0  0  0  0  0  0
   44.3550   34.2880   40.6980 C   0  0  0  0  0  0  0  0  0  0  0  0
   43.7190   33.6850   39.6070 C   0  0  0  0  0  0  0  0  0  0  0  0
   44.5240   33.0430   38.6600 C   0  0  0  0  0  0  0  0  0  0  0  0
   45.9010   32.9850   38.7630 C   0  0  0  0  0  0  0  0  0  0  0  0
   46.4960   33.5690   39.8150 N   0  0  0  0  0  0  0  0  0  0  0  0
   45.2168   37.0160   42.7624 H   0  0  0  0  0  0  0  0  0  0  0  0
   44.0756   35.5348   46.5633 H   0  0  0  0  0  0  0  0  0  0  0  0
   48.4603   32.9700   44.3402 H   0  0  0  0  0  0  0  0  0  0  0  0
   49.0806   30.7067   43.7779 H   0  0  0  0  0  0  0  0  0  0  0  0
   47.0924   29.1684   42.9449 H   0  0  0  0  0  0  0  0  0  0  0  0
   43.7892   34.8112   41.4830 H   0  0  0  0  0  0  0  0  0  0  0  0
   42.6248   33.7148   39.4979 H   0  0  0  0  0  0  0  0  0  0  0  0
   44.0402   32.5637   37.7962 H   0  0  0  0  0  0  0  0  0  0  0  0
   46.4986   32.4696   37.9967 H   0  0  0  0  0  0  0  0  0  0  0  0
  1  6  2  0
  2  1  1  0
  2  3  2  0
  3  4  1  0
  4  5  2  0
  6  5  1  0
  7  8  2  0
  7  3  1  0
  9  8  1  0
 10 11  1  0
 10  9  2  0
 11  7  1  0
 12  2  1  0
 13 12  2  0
 14 12  1  0
 15 14  2  0
 16 15  1  0
 17 18  1  0
 17 16  2  0
 18 19  2  0
 19 14  1  0
  1 20  1  0
  5 21  1  0
  8 22  1  0
  9 23  1  0
 10 24  1  0
 15 25  1  0
 16 26  1  0
 17 27  1  0
 18 28  1  0
M  ISO  8  20  14  21  14  22  14  23  14  24  14  25  14  26  14  27  14
M  ISO  1  28  14
M  END
>  <minimizedAffinity>  (1) 
-4.49728107

>  <minimizedRMSD>  (1) 
1.26047504

$$$$
