
     RDKit          3D

 21 22  0  0  0  0  0  0  0  0999 V2000
   45.2630   36.1600   43.2490 C   0  0  0  0  0  0  0  0  0  0  0  0
   45.9270   34.9680   42.9040 C   0  0  0  0  0  0  0  0  0  0  0  0
   45.9060   33.9780   43.8850 C   0  0  0  0  0  0  0  0  0  0  0  0
   45.2980   34.1470   45.0720 N   0  0  0  0  0  0  0  0  0  0  0  0
   44.6660   35.3280   45.3560 C   0  0  0  0  0  0  0  0  0  0  0  0
   44.6540   36.3190   44.4470 N   0  0  0  0  0  0  0  0  0  0  0  0
   46.5460   32.7730   43.6250 C   0  0  0  0  0  0  0  0  0  0  0  0
   47.8220   32.2940   43.7750 C   0  0  0  0  0  0  0  0  0  0  0  0
   48.2040   31.0670   43.4370 C   0  0  0  0  0  0  0  0  0  0  0  0
   47.2300   30.2690   42.9130 C   0  0  0  0  0  0  0  0  0  0  0  0
   45.7370   31.3560   42.9250 S   0  0  0  0  0  0  0  0  0  0  0  0
   46.5350   34.8360   41.6340 C   0  0  0  0  0  0  0  0  0  0  0  0
   47.7860   35.1140   41.6010 O   0  0  0  0  0  0  0  0  0  0  0  0
   45.5140   34.4110   40.6880 N   0  0  0  0  0  0  0  0  0  0  0  0
   45.2383   36.9866   42.5236 H   0  0  0  0  0  0  0  0  0  0  0  0
   44.1683   35.4661   46.3272 H   0  0  0  0  0  0  0  0  0  0  0  0
   48.5781   32.9689   44.2027 H   0  0  0  0  0  0  0  0  0  0  0  0
   49.2384   30.7177   43.5711 H   0  0  0  0  0  0  0  0  0  0  0  0
   47.3136   29.2283   42.5666 H   0  0  0  0  0  0  0  0  0  0  0  0
   45.7596   34.2578   39.6995 H   0  0  0  0  0  0  0  0  0  0  0  0
   44.5458   34.2634   41.0070 H   0  0  0  0  0  0  0  0  0  0  0  0
  1  6  2  0
  2  1  1  0
  2  3  2  0
  3  4  1  0
  4  5  2  0
  6  5  1  0
  7  8  2  0
  7  3  1  0
  9  8  1  0
 10 11  1  0
 10  9  2  0
 11  7  1  0
 12  2  1  0
 13 12  2  0
 14 12  1  0
  1 15  1  0
  5 16  1  0
  8 17  1  0
  9 18  1  0
 10 19  1  0
 14 20  1  0
 14 21  1  0
M  ISO  5  15  14  16  14  17  14  18  14  19  14
M  END
>  <minimizedAffinity>  (1) 
-3.89433956

>  <minimizedRMSD>  (1) 
0.932535529

$$$$
