
     RDKit          3D

 39 42  0  0  1  0  0  0  0  0999 V2000
   46.7700   34.8140   41.9230 C   0  0  0  0  0  0  0  0  0  0  0  0
   47.9240   35.3480   41.9170 O   0  0  0  0  0  0  0  0  0  0  0  0
   45.3860   36.1880   43.3990 C   0  0  0  0  0  0  0  0  0  0  0  0
   46.0310   34.9690   43.1300 C   0  0  0  0  0  0  0  0  0  0  0  0
   45.8790   33.9960   44.1020 C   0  0  0  0  0  0  0  0  0  0  0  0
   45.1700   34.1880   45.2280 N   0  0  0  0  0  0  0  0  0  0  0  0
   44.5640   35.3920   45.4400 C   0  0  0  0  0  0  0  0  0  0  0  0
   44.6730   36.3730   44.5370 N   0  0  0  0  0  0  0  0  0  0  0  0
   46.4990   32.7510   43.9060 C   0  0  0  0  0  0  0  0  0  0  0  0
   47.7650   32.2630   44.0390 C   0  0  0  0  0  0  0  0  0  0  0  0
   48.1170   31.0170   43.7870 C   0  0  0  0  0  0  0  0  0  0  0  0
   47.1130   30.2000   43.3690 C   0  0  0  0  0  0  0  0  0  0  0  0
   45.6360   31.2920   43.3500 S   0  0  0  0  0  0  0  0  0  0  0  0
   46.1800   34.0620   40.7700 C   0  0  0  0  0  0  0  0  0  0  0  0
   44.8350   33.8640   40.5210 C   0  0  0  0  0  0  0  0  0  0  0  0
   44.7790   33.1400   39.3860 N   0  0  0  0  0  0  0  0  0  0  0  0
   46.0490   32.9060   38.9600 C   0  0  0  0  0  0  0  0  0  0  0  0
   46.9260   33.4800   39.8210 N   0  0  0  0  0  0  0  0  0  0  0  0
   46.4700   33.0130   36.5150 C   0  0  1  0  0  0  0  0  0  0  0  0
   46.3020   32.1200   37.7130 C   0  0  2  0  0  0  0  0  0  0  0  0
   45.2050   31.3210   37.5260 O   0  0  0  0  0  0  0  0  0  0  0  0
   44.6030   31.6000   36.3370 C   0  0  0  0  0  0  0  0  0  0  0  0
   45.1590   32.8890   35.8030 C   0  0  2  0  0  0  0  0  0  0  0  0
   46.7060   34.3360   36.9010 O   0  0  0  0  0  0  0  0  0  0  0  0
   45.3000   32.7920   34.4170 O   0  0  0  0  0  0  0  0  0  0  0  0
   45.4612   37.0092   42.6710 H   0  0  0  0  0  0  0  0  0  0  0  0
   43.9823   35.5570   46.3589 H   0  0  0  0  0  0  0  0  0  0  0  0
   48.5475   32.9567   44.3803 H   0  0  0  0  0  0  0  0  0  0  0  0
   49.1515   30.6629   43.9067 H   0  0  0  0  0  0  0  0  0  0  0  0
   47.1718   29.1340   43.1041 H   0  0  0  0  0  0  0  0  0  0  0  0
   43.9874   34.2225   41.1235 H   0  0  0  0  0  0  0  0  0  0  0  0
   43.9190   32.8180   38.9196 H   0  0  0  0  0  0  0  0  0  0  0  0
   47.3288   32.7303   35.8885 H   0  0  0  0  0  0  0  0  0  0  0  0
   47.2304   31.5399   37.8206 H   0  0  0  0  0  0  0  0  0  0  0  0
   44.8018   30.7876   35.6225 H   0  0  0  0  0  0  0  0  0  0  0  0
   43.5165   31.6932   36.4813 H   0  0  0  0  0  0  0  0  0  0  0  0
   44.5251   33.7720   35.9716 H   0  0  0  0  0  0  0  0  0  0  0  0
   46.7164   34.3946   37.8892 H   0  0  0  0  0  0  0  0  0  0  0  0
   46.0965   32.2440   34.2039 H   0  0  0  0  0  0  0  0  0  0  0  0
  1  4  1  0
  2  1  2  0
  3  8  2  0
  4  3  1  0
  4  5  2  0
  5  6  1  0
  6  7  2  0
  8  7  1  0
  9 10  2  0
  9  5  1  0
 11 10  1  0
 12 11  2  0
 13 12  1  0
 13  9  1  0
 14  1  1  0
 15 14  2  0
 16 15  1  0
 17 16  1  0
 17 18  2  0
 18 14  1  0
 19 24  1  0
 19 20  1  0
 20 17  1  0
 21 20  1  0
 22 21  1  0
 23 25  1  0
 23 22  1  0
 23 19  1  0
  3 26  1  0
  7 27  1  0
 10 28  1  0
 11 29  1  0
 12 30  1  0
 15 31  1  0
 16 32  1  0
 19 33  1  6
 20 34  1  1
 22 35  1  0
 22 36  1  0
 23 37  1  6
 24 38  1  0
 25 39  1  0
M  ISO  8  26  14  27  14  28  14  29  14  30  14  31  14  32   9  33  13
M  ISO  6  34  13  35  13  36  13  37  13  38   3  39   3
M  END
>  <minimizedAffinity>  (1) 
-5.64645529

>  <minimizedRMSD>  (1) 
0.513895988

$$$$
