
     RDKit          3D

 33 36  0  0  0  0  0  0  0  0999 V2000
   45.5810   36.2080   43.2130 C   0  0  0  0  0  0  0  0  0  0  0  0
   46.2200   34.9710   43.0000 C   0  0  0  0  0  0  0  0  0  0  0  0
   45.9360   33.9950   43.9470 C   0  0  0  0  0  0  0  0  0  0  0  0
   45.1140   34.2180   44.9850 N   0  0  0  0  0  0  0  0  0  0  0  0
   44.5220   35.4340   45.1440 C   0  0  0  0  0  0  0  0  0  0  0  0
   44.7570   36.4160   44.2640 N   0  0  0  0  0  0  0  0  0  0  0  0
   46.5360   32.7340   43.8130 C   0  0  0  0  0  0  0  0  0  0  0  0
   47.7840   32.2330   44.0910 C   0  0  0  0  0  0  0  0  0  0  0  0
   48.1010   30.9640   43.8620 C   0  0  0  0  0  0  0  0  0  0  0  0
   47.1340   30.1620   43.3350 C   0  0  0  0  0  0  0  0  0  0  0  0
   45.6950   31.3130   43.1650 S   0  0  0  0  0  0  0  0  0  0  0  0
   47.0790   34.7950   41.8800 C   0  0  0  0  0  0  0  0  0  0  0  0
   48.2790   35.1570   42.0470 O   0  0  0  0  0  0  0  0  0  0  0  0
   46.5390   34.2100   40.6080 C   0  0  0  0  0  0  0  0  0  0  0  0
   45.2390   33.8690   40.3380 C   0  0  0  0  0  0  0  0  0  0  0  0
   45.2300   33.3880   39.0890 N   0  0  0  0  0  0  0  0  0  0  0  0
   46.4930   33.4340   38.6090 C   0  0  0  0  0  0  0  0  0  0  0  0
   47.3150   33.9390   39.5330 N   0  0  0  0  0  0  0  0  0  0  0  0
   46.8780   32.9830   37.2490 C   0  0  0  0  0  0  0  0  0  0  0  0
   48.0880   33.0940   36.6860 C   0  0  0  0  0  0  0  0  0  0  0  0
   48.3060   32.6350   35.4240 C   0  0  0  0  0  0  0  0  0  0  0  0
   47.1500   32.0400   34.7740 C   0  0  0  0  0  0  0  0  0  0  0  0
   45.8330   32.2240   36.1260 S   0  0  0  0  0  0  0  0  0  0  0  0
   45.7578   37.0292   42.5029 H   0  0  0  0  0  0  0  0  0  0  0  0
   43.8497   35.6101   45.9966 H   0  0  0  0  0  0  0  0  0  0  0  0
   48.5448   32.9038   44.5167 H   0  0  0  0  0  0  0  0  0  0  0  0
   49.1048   30.5756   44.0889 H   0  0  0  0  0  0  0  0  0  0  0  0
   47.1938   29.0948   43.0750 H   0  0  0  0  0  0  0  0  0  0  0  0
   44.3761   33.9704   41.0127 H   0  0  0  0  0  0  0  0  0  0  0  0
   44.4033   33.0424   38.5811 H   0  0  0  0  0  0  0  0  0  0  0  0
   48.9112   33.5595   37.2478 H   0  0  0  0  0  0  0  0  0  0  0  0
   49.2865   32.7088   34.9310 H   0  0  0  0  0  0  0  0  0  0  0  0
   47.0627   31.6014   33.7690 H   0  0  0  0  0  0  0  0  0  0  0  0
  1  6  2  0
  2  1  1  0
  2  3  2  0
  3  4  1  0
  4  5  2  0
  6  5  1  0
  7  3  1  0
  7  8  2  0
  9  8  1  0
 10  9  2  0
 11 10  1  0
 11  7  1  0
 12 13  2  0
 12  2  1  0
 14 12  1  0
 15 14  2  0
 16 15  1  0
 17 16  1  0
 17 18  2  0
 18 14  1  0
 19 17  1  0
 20 19  2  0
 21 20  1  0
 22 21  2  0
 22 23  1  0
 23 19  1  0
  1 24  1  0
  5 25  1  0
  8 26  1  0
  9 27  1  0
 10 28  1  0
 15 29  1  0
 16 30  1  0
 20 31  1  0
 21 32  1  0
 22 33  1  0
M  ISO  8  24  14  25  14  26  14  27  14  28  14  29  14  30   9  31  14
M  ISO  2  32  14  33  14
M  END
>  <minimizedAffinity>  (1) 
-4.89197874

>  <minimizedRMSD>  (1) 
1.10847485

$$$$
