
     RDKit          3D

 43 45  0  0  0  0  0  0  0  0999 V2000
   45.9000   32.3310   44.5370 C   0  0  0  0  0  0  0  0  0  0  0  0
   44.6520   35.7640   44.7560 C   0  0  0  0  0  0  0  0  0  0  0  0
   44.1200   35.9820   43.4650 C   0  0  0  0  0  0  0  0  0  0  0  0
   44.2160   34.9390   42.5770 C   0  0  0  0  0  0  0  0  0  0  0  0
   44.7920   33.7780   42.9500 N   0  0  0  0  0  0  0  0  0  0  0  0
   45.2830   33.6290   44.2030 C   0  0  0  0  0  0  0  0  0  0  0  0
   45.2220   34.5870   45.0920 N   0  0  0  0  0  0  0  0  0  0  0  0
   43.6540   35.1770   41.2210 C   0  0  0  0  0  0  0  0  0  0  0  0
   42.1900   35.5670   41.2800 C   0  0  0  0  0  0  0  0  0  0  0  0
   41.5440   35.0340   40.0610 C   0  0  0  0  0  0  0  0  0  0  0  0
   40.9030   35.5960   39.0370 C   0  0  0  0  0  0  0  0  0  0  0  0
   40.3890   34.8630   38.0130 C   0  0  0  0  0  0  0  0  0  0  0  0
   40.5830   33.4590   38.1160 C   0  0  0  0  0  0  0  0  0  0  0  0
   41.5270   33.3110   39.7400 S   0  0  0  0  0  0  0  0  0  0  0  0
   46.7110   32.4890   45.7990 C   0  0  0  0  0  0  0  0  0  0  0  0
   46.1340   31.7760   46.9190 C   0  0  0  0  0  0  0  0  0  0  0  0
   45.3840   32.2820   47.9520 C   0  0  0  0  0  0  0  0  0  0  0  0
   44.8830   31.5190   48.9630 C   0  0  0  0  0  0  0  0  0  0  0  0
   45.1460   30.1620   48.9460 C   0  0  0  0  0  0  0  0  0  0  0  0
   45.8960   29.6500   47.9150 C   0  0  0  0  0  0  0  0  0  0  0  0
   46.3920   30.4420   46.9030 C   0  0  0  0  0  0  0  0  0  0  0  0
   48.4960   29.3540   46.3910 C   0  0  0  0  0  0  0  0  0  0  0  0
   49.3080   29.6880   47.3450 O   0  0  0  0  0  0  0  0  0  0  0  0
   47.1260   29.5940   46.0060 N   0  0  0  0  0  0  0  0  0  0  0  0
   46.5556   32.0105   43.7139 H   0  0  0  0  0  0  0  0  0  0  0  0
   45.1174   31.5729   44.6880 H   0  0  0  0  0  0  0  0  0  0  0  0
   44.6006   36.5701   45.5028 H   0  0  0  0  0  0  0  0  0  0  0  0
   43.6530   36.9380   43.1858 H   0  0  0  0  0  0  0  0  0  0  0  0
   43.7538   34.2563   40.6274 H   0  0  0  0  0  0  0  0  0  0  0  0
   44.2109   36.0062   40.7602 H   0  0  0  0  0  0  0  0  0  0  0  0
   41.7206   35.1332   42.1753 H   0  0  0  0  0  0  0  0  0  0  0  0
   42.0798   36.6602   41.3332 H   0  0  0  0  0  0  0  0  0  0  0  0
   40.7855   36.6896   39.0191 H   0  0  0  0  0  0  0  0  0  0  0  0
   39.8608   35.3242   37.1655 H   0  0  0  0  0  0  0  0  0  0  0  0
   40.2644   32.6639   37.4259 H   0  0  0  0  0  0  0  0  0  0  0  0
   47.7246   32.1019   45.6182 H   0  0  0  0  0  0  0  0  0  0  0  0
   46.7276   33.5586   46.0551 H   0  0  0  0  0  0  0  0  0  0  0  0
   45.1765   33.3622   47.9637 H   0  0  0  0  0  0  0  0  0  0  0  0
   44.2863   31.9697   49.7698 H   0  0  0  0  0  0  0  0  0  0  0  0
   44.7628   29.5058   49.7413 H   0  0  0  0  0  0  0  0  0  0  0  0
   46.1076   28.5707   47.8971 H   0  0  0  0  0  0  0  0  0  0  0  0
   48.9965   28.6972   45.6643 H   0  0  0  0  0  0  0  0  0  0  0  0
   46.7081   29.1895   45.1559 H   0  0  0  0  0  0  0  0  0  0  0  0
  1 15  1  0
  2  7  2  0
  3  2  1  0
  4  5  1  0
  4  3  2  0
  5  6  2  0
  6  1  1  0
  6  7  1  0
  8  9  1  0
  8  4  1  0
 10  9  1  0
 11 10  2  0
 12 13  2  0
 12 11  1  0
 13 14  1  0
 14 10  1  0
 15 16  1  0
 16 17  2  0
 17 18  1  0
 19 18  2  0
 20 19  1  0
 21 16  1  0
 21 20  2  0
 22 23  2  0
 24 22  1  0
 24 21  1  0
  1 25  1  0
  1 26  1  0
  2 27  1  0
  3 28  1  0
  8 29  1  0
  8 30  1  0
  9 31  1  0
  9 32  1  0
 11 33  1  0
 12 34  1  0
 13 35  1  0
 15 36  1  0
 15 37  1  0
 17 38  1  0
 18 39  1  0
 19 40  1  0
 20 41  1  0
 22 42  1  0
 24 43  1  0
M  ISO  8  25   8  26   8  27  14  28  14  29   8  30   8  31   8  32   8
M  ISO  8  33  14  34  14  35  14  36   8  37   8  38  14  39  14  40  14
M  ISO  2  41  14  42   6
M  END
>  <minimizedAffinity>  (1) 
-5.61366749

>  <minimizedRMSD>  (1) 
0.802728593

$$$$
