
     RDKit          3D

 42 43  0  0  0  0  0  0  0  0999 V2000
   45.9730   32.3900   44.6180 C   0  0  0  0  0  0  0  0  0  0  0  0
   44.6050   35.7710   44.9400 C   0  0  0  0  0  0  0  0  0  0  0  0
   44.1730   36.0500   43.6170 C   0  0  0  0  0  0  0  0  0  0  0  0
   44.3730   35.0590   42.6710 C   0  0  0  0  0  0  0  0  0  0  0  0
   44.9530   33.9010   43.0330 N   0  0  0  0  0  0  0  0  0  0  0  0
   45.3450   33.6910   44.3070 C   0  0  0  0  0  0  0  0  0  0  0  0
   45.1810   34.5900   45.2450 N   0  0  0  0  0  0  0  0  0  0  0  0
   43.9160   35.3730   41.3000 C   0  0  0  0  0  0  0  0  0  0  0  0
   42.6500   34.6030   40.9450 C   0  0  0  0  0  0  0  0  0  0  0  0
   42.7550   34.1820   39.6360 O   0  0  0  0  0  0  0  0  0  0  0  0
   40.8120   35.9480   39.2950 O   0  0  0  0  0  0  0  0  0  0  0  0
   41.7890   35.0290   38.5590 P   0  0  0  0  0  0  0  0  0  0  0  0
   42.7460   35.8830   37.4830 O   0  0  0  0  0  0  0  0  0  0  0  0
   40.8120   33.9030   37.7280 O   0  0  0  0  0  0  0  0  0  0  0  0
   46.7620   32.5240   45.8980 C   0  0  0  0  0  0  0  0  0  0  0  0
   46.1580   31.7960   46.9920 C   0  0  0  0  0  0  0  0  0  0  0  0
   45.3490   32.2570   47.9970 C   0  0  0  0  0  0  0  0  0  0  0  0
   44.8360   31.4730   48.9790 C   0  0  0  0  0  0  0  0  0  0  0  0
   45.1470   30.1260   48.9660 C   0  0  0  0  0  0  0  0  0  0  0  0
   45.9570   29.6500   47.9640 C   0  0  0  0  0  0  0  0  0  0  0  0
   46.4660   30.4630   46.9790 C   0  0  0  0  0  0  0  0  0  0  0  0
   48.6150   29.4260   46.5590 C   0  0  0  0  0  0  0  0  0  0  0  0
   49.3800   29.7790   47.5350 O   0  0  0  0  0  0  0  0  0  0  0  0
   47.2650   29.6480   46.1030 N   0  0  0  0  0  0  0  0  0  0  0  0
   46.6457   32.0988   43.7979 H   0  0  0  0  0  0  0  0  0  0  0  0
   45.1971   31.6193   44.7363 H   0  0  0  0  0  0  0  0  0  0  0  0
   44.4683   36.5276   45.7267 H   0  0  0  0  0  0  0  0  0  0  0  0
   43.7014   37.0087   43.3555 H   0  0  0  0  0  0  0  0  0  0  0  0
   43.7104   36.4513   41.2296 H   0  0  0  0  0  0  0  0  0  0  0  0
   44.7083   35.0794   40.5956 H   0  0  0  0  0  0  0  0  0  0  0  0
   42.5451   33.7323   41.6090 H   0  0  0  0  0  0  0  0  0  0  0  0
   41.7665   35.2468   41.0676 H   0  0  0  0  0  0  0  0  0  0  0  0
   43.3822   36.4507   37.9860 H   0  0  0  0  0  0  0  0  0  0  0  0
   40.3253   33.3420   38.3826 H   0  0  0  0  0  0  0  0  0  0  0  0
   47.7769   32.1341   45.7308 H   0  0  0  0  0  0  0  0  0  0  0  0
   46.7819   33.5892   46.1720 H   0  0  0  0  0  0  0  0  0  0  0  0
   45.0999   33.3284   48.0088 H   0  0  0  0  0  0  0  0  0  0  0  0
   44.1912   31.8972   49.7628 H   0  0  0  0  0  0  0  0  0  0  0  0
   44.7546   29.4507   49.7406 H   0  0  0  0  0  0  0  0  0  0  0  0
   46.2076   28.5790   47.9491 H   0  0  0  0  0  0  0  0  0  0  0  0
   49.1511   28.7571   45.8697 H   0  0  0  0  0  0  0  0  0  0  0  0
   46.9026   29.2553   45.2225 H   0  0  0  0  0  0  0  0  0  0  0  0
  1 15  1  0
  2  7  2  0
  3  2  1  0
  4  5  1  0
  4  3  2  0
  5  6  2  0
  6  1  1  0
  6  7  1  0
  8  4  1  0
  9  8  1  0
 10  9  1  0
 12 11  2  0
 12 10  1  0
 13 12  1  0
 14 12  1  0
 15 16  1  0
 16 17  2  0
 17 18  1  0
 19 18  2  0
 20 19  1  0
 21 16  1  0
 21 20  2  0
 22 23  2  0
 24 22  1  0
 24 21  1  0
  1 25  1  0
  1 26  1  0
  2 27  1  0
  3 28  1  0
  8 29  1  0
  8 30  1  0
  9 31  1  0
  9 32  1  0
 13 33  1  0
 14 34  1  0
 15 35  1  0
 15 36  1  0
 17 37  1  0
 18 38  1  0
 19 39  1  0
 20 40  1  0
 22 41  1  0
 24 42  1  0
M  ISO  8  25   8  26   8  27  14  28  14  29   8  30   8  31   8  32   8
M  ISO  8  33   3  34   3  35   8  36   8  37  14  38  14  39  14  40  14
M  ISO  1  41   6
M  END
>  <minimizedAffinity>  (1) 
-5.55761814

>  <minimizedRMSD>  (1) 
2.28481388

$$$$
