
     RDKit          3D

 27 29  0  0  0  0  0  0  0  0999 V2000
   45.2280   36.1790   43.4900 C   0  0  0  0  0  0  0  0  0  0  0  0
   45.8690   34.9720   43.1610 C   0  0  0  0  0  0  0  0  0  0  0  0
   45.8060   33.9920   44.1420 C   0  0  0  0  0  0  0  0  0  0  0  0
   45.1830   34.1720   45.3190 N   0  0  0  0  0  0  0  0  0  0  0  0
   44.5780   35.3650   45.5840 C   0  0  0  0  0  0  0  0  0  0  0  0
   44.6040   36.3510   44.6740 N   0  0  0  0  0  0  0  0  0  0  0  0
   46.4290   32.7570   43.8930 C   0  0  0  0  0  0  0  0  0  0  0  0
   47.6940   32.2640   44.0160 C   0  0  0  0  0  0  0  0  0  0  0  0
   48.0470   31.0300   43.7070 C   0  0  0  0  0  0  0  0  0  0  0  0
   47.0480   30.2330   43.2390 C   0  0  0  0  0  0  0  0  0  0  0  0
   45.5700   31.3290   43.2580 S   0  0  0  0  0  0  0  0  0  0  0  0
   46.5140   34.8310   41.9050 C   0  0  0  0  0  0  0  0  0  0  0  0
   47.7150   35.2520   41.8620 O   0  0  0  0  0  0  0  0  0  0  0  0
   45.7900   34.2190   40.7420 C   0  0  0  0  0  0  0  0  0  0  0  0
   44.4470   34.3070   40.4900 C   0  0  0  0  0  0  0  0  0  0  0  0
   44.2410   33.6150   39.3510 N   0  0  0  0  0  0  0  0  0  0  0  0
   45.4410   33.1210   38.9300 C   0  0  0  0  0  0  0  0  0  0  0  0
   46.3990   33.4990   39.7960 N   0  0  0  0  0  0  0  0  0  0  0  0
   45.7450   32.3390   37.7990 O   0  0  0  0  0  0  0  0  0  0  0  0
   45.2353   37.0048   42.7634 H   0  0  0  0  0  0  0  0  0  0  0  0
   44.0674   35.5195   46.5460 H   0  0  0  0  0  0  0  0  0  0  0  0
   48.4730   32.9399   44.3985 H   0  0  0  0  0  0  0  0  0  0  0  0
   49.0802   30.6698   43.8203 H   0  0  0  0  0  0  0  0  0  0  0  0
   47.1096   29.1810   42.9236 H   0  0  0  0  0  0  0  0  0  0  0  0
   43.6920   34.8335   41.0923 H   0  0  0  0  0  0  0  0  0  0  0  0
   43.3345   33.4824   38.8803 H   0  0  0  0  0  0  0  0  0  0  0  0
   46.6784   32.0559   37.6293 H   0  0  0  0  0  0  0  0  0  0  0  0
  1  6  2  0
  2  1  1  0
  2  3  2  0
  3  4  1  0
  4  5  2  0
  6  5  1  0
  7  8  2  0
  7  3  1  0
  9  8  1  0
 10 11  1  0
 10  9  2  0
 11  7  1  0
 12  2  1  0
 13 12  2  0
 14 12  1  0
 15 14  2  0
 16 15  1  0
 17 16  1  0
 17 18  2  0
 18 14  1  0
 19 17  1  0
  1 20  1  0
  5 21  1  0
  8 22  1  0
  9 23  1  0
 10 24  1  0
 15 25  1  0
 16 26  1  0
 19 27  1  0
M  ISO  8  20  14  21  14  22  14  23  14  24  14  25  14  26   9  27   3
M  END
>  <minimizedAffinity>  (1) 
-4.39914131

>  <minimizedRMSD>  (1) 
0.0359931402

$$$$
