
     RDKit          3D

 42 45  0  0  1  0  0  0  0  0999 V2000
   45.5320   34.6430   41.7120 C   0  0  0  0  0  0  0  0  0  0  0  0
   46.7380   34.8500   41.3440 O   0  0  0  0  0  0  0  0  0  0  0  0
   44.4140   34.3100   40.7640 C   0  0  0  0  0  0  0  0  0  0  0  0
   43.1060   34.7010   40.8930 C   0  0  0  0  0  0  0  0  0  0  0  0
   42.4700   34.1790   39.8250 N   0  0  0  0  0  0  0  0  0  0  0  0
   43.3550   33.4970   39.0760 C   0  0  0  0  0  0  0  0  0  0  0  0
   44.5640   33.5780   39.6590 N   0  0  0  0  0  0  0  0  0  0  0  0
   43.1890   32.7700   37.8600 N   0  0  0  0  0  0  0  0  0  0  0  0
   41.0830   34.3030   39.5030 C   0  0  2  0  0  0  0  0  0  0  0  0
   40.2620   33.4220   40.3980 C   0  0  0  0  0  0  0  0  0  0  0  0
   38.7940   33.5220   40.1830 C   0  0  0  0  0  0  0  0  0  0  0  0
   38.3390   33.9040   38.8320 C   0  0  0  0  0  0  0  0  0  0  0  0
   39.3380   34.4280   37.8740 C   0  0  0  0  0  0  0  0  0  0  0  0
   40.7320   33.8800   38.0920 C   0  0  0  0  0  0  0  0  0  0  0  0
   44.7250   35.9170   43.6340 C   0  0  0  0  0  0  0  0  0  0  0  0
   45.2860   34.7440   43.1100 C   0  0  0  0  0  0  0  0  0  0  0  0
   45.5620   33.7550   44.0300 C   0  0  0  0  0  0  0  0  0  0  0  0
   45.3100   33.9000   45.3400 N   0  0  0  0  0  0  0  0  0  0  0  0
   44.7640   35.0520   45.8130 C   0  0  0  0  0  0  0  0  0  0  0  0
   44.4770   36.0540   44.9450 N   0  0  0  0  0  0  0  0  0  0  0  0
   46.1320   32.5410   43.5760 C   0  0  0  0  0  0  0  0  0  0  0  0
   47.3980   32.0610   43.4360 C   0  0  0  0  0  0  0  0  0  0  0  0
   47.6480   30.8550   42.9740 C   0  0  0  0  0  0  0  0  0  0  0  0
   46.5820   30.0960   42.6390 C   0  0  0  0  0  0  0  0  0  0  0  0
   45.1600   31.1670   43.0050 S   0  0  0  0  0  0  0  0  0  0  0  0
   42.6686   35.3110   41.6971 H   0  0  0  0  0  0  0  0  0  0  0  0
   42.2606   32.7112   37.4177 H   0  0  0  0  0  0  0  0  0  0  0  0
   43.9975   32.3038   37.4242 H   0  0  0  0  0  0  0  0  0  0  0  0
   40.8678   35.3746   39.6267 H   0  0  0  0  0  0  0  0  0  0  0  0
   40.5644   32.3787   40.2245 H   0  0  0  0  0  0  0  0  0  0  0  0
   40.4512   33.7589   41.4279 H   0  0  0  0  0  0  0  0  0  0  0  0
   38.0793   33.3203   40.9945 H   0  0  0  0  0  0  0  0  0  0  0  0
   37.2823   33.8017   38.5439 H   0  0  0  0  0  0  0  0  0  0  0  0
   39.3751   35.5228   37.9742 H   0  0  0  0  0  0  0  0  0  0  0  0
   39.0198   34.1104   36.8701 H   0  0  0  0  0  0  0  0  0  0  0  0
   41.4385   34.3125   37.3683 H   0  0  0  0  0  0  0  0  0  0  0  0
   40.7815   32.7897   37.9552 H   0  0  0  0  0  0  0  0  0  0  0  0
   44.4821   36.7459   42.9529 H   0  0  0  0  0  0  0  0  0  0  0  0
   44.5575   35.1699   46.8870 H   0  0  0  0  0  0  0  0  0  0  0  0
   48.2432   32.7053   43.7197 H   0  0  0  0  0  0  0  0  0  0  0  0
   48.6771   30.4820   42.8655 H   0  0  0  0  0  0  0  0  0  0  0  0
   46.5760   29.0713   42.2390 H   0  0  0  0  0  0  0  0  0  0  0  0
  1 16  1  0
  2  1  2  0
  3  4  2  0
  3  1  1  0
  5  4  1  0
  6  7  2  0
  6  5  1  0
  7  3  1  0
  8  6  1  0
  9 14  1  0
  9  5  1  0
  9 10  1  0
 11 10  1  0
 12 11  2  0
 13 14  1  0
 13 12  1  0
 15 20  2  0
 16 15  1  0
 16 17  2  0
 17 18  1  0
 18 19  2  0
 20 19  1  0
 21 17  1  0
 22 21  2  0
 23 22  1  0
 24 23  2  0
 24 25  1  0
 25 21  1  0
  4 26  1  0
  8 27  1  0
  8 28  1  0
  9 29  1  6
 10 30  1  0
 10 31  1  0
 11 32  1  0
 12 33  1  0
 13 34  1  0
 13 35  1  0
 14 36  1  0
 14 37  1  0
 15 38  1  0
 19 39  1  0
 22 40  1  0
 23 41  1  0
 24 42  1  0
M  ISO  8  26  14  29  13  30  13  31  13  32  13  33  13  34  13  35  13
M  ISO  7  36  13  37  13  38  14  39  14  40  14  41  14  42  14
M  END
>  <minimizedAffinity>  (1) 
-6.06046963

>  <minimizedRMSD>  (1) 
1.71800733

$$$$
