
     RDKit          3D

 40 43  0  0  1  0  0  0  0  0999 V2000
   45.7470   34.6690   41.6990 C   0  0  0  0  0  0  0  0  0  0  0  0
   46.9690   34.8100   41.4110 O   0  0  0  0  0  0  0  0  0  0  0  0
   44.6690   34.4100   40.6900 C   0  0  0  0  0  0  0  0  0  0  0  0
   43.4250   35.0160   40.6340 C   0  0  0  0  0  0  0  0  0  0  0  0
   42.7950   34.4840   39.5780 N   0  0  0  0  0  0  0  0  0  0  0  0
   43.6200   33.5770   39.0000 C   0  0  0  0  0  0  0  0  0  0  0  0
   44.7760   33.5330   39.6860 N   0  0  0  0  0  0  0  0  0  0  0  0
   43.4430   32.7360   37.8570 N   0  0  0  0  0  0  0  0  0  0  0  0
   40.7590   33.5800   38.7380 N   0  0  0  0  0  0  0  0  0  0  0  0
   39.5770   33.5090   39.5580 C   0  0  0  0  0  0  0  0  0  0  0  0
   39.2720   34.9430   39.9230 C   0  0  0  0  0  0  0  0  0  0  0  0
   40.6660   35.5090   40.1120 C   0  0  0  0  0  0  0  0  0  0  0  0
   41.4800   34.7660   39.0800 C   0  0  1  0  0  0  0  0  0  0  0  0
   44.8410   35.9550   43.5850 C   0  0  0  0  0  0  0  0  0  0  0  0
   45.4150   34.7700   43.0860 C   0  0  0  0  0  0  0  0  0  0  0  0
   45.6080   33.7780   44.0240 C   0  0  0  0  0  0  0  0  0  0  0  0
   45.2800   33.9200   45.3120 N   0  0  0  0  0  0  0  0  0  0  0  0
   44.7280   35.0900   45.7430 C   0  0  0  0  0  0  0  0  0  0  0  0
   44.5140   36.0970   44.8700 N   0  0  0  0  0  0  0  0  0  0  0  0
   46.1850   32.5560   43.6000 C   0  0  0  0  0  0  0  0  0  0  0  0
   47.4400   32.0360   43.5440 C   0  0  0  0  0  0  0  0  0  0  0  0
   47.7090   30.8320   43.0870 C   0  0  0  0  0  0  0  0  0  0  0  0
   46.6480   30.1110   42.6620 C   0  0  0  0  0  0  0  0  0  0  0  0
   45.2210   31.2150   42.9340 S   0  0  0  0  0  0  0  0  0  0  0  0
   43.0325   35.7814   41.3197 H   0  0  0  0  0  0  0  0  0  0  0  0
   44.1978   32.0992   37.5643 H   0  0  0  0  0  0  0  0  0  0  0  0
   42.5607   32.7671   37.3264 H   0  0  0  0  0  0  0  0  0  0  0  0
   40.4906   33.6114   37.7441 H   0  0  0  0  0  0  0  0  0  0  0  0
   38.7416   33.0665   38.9957 H   0  0  0  0  0  0  0  0  0  0  0  0
   39.7260   32.8777   40.4464 H   0  0  0  0  0  0  0  0  0  0  0  0
   38.7353   35.4585   39.1130 H   0  0  0  0  0  0  0  0  0  0  0  0
   38.6198   35.0534   40.8019 H   0  0  0  0  0  0  0  0  0  0  0  0
   40.6814   36.5923   39.9220 H   0  0  0  0  0  0  0  0  0  0  0  0
   41.0482   35.3843   41.1359 H   0  0  0  0  0  0  0  0  0  0  0  0
   41.6245   35.3760   38.1761 H   0  0  0  0  0  0  0  0  0  0  0  0
   44.6565   36.7899   42.8930 H   0  0  0  0  0  0  0  0  0  0  0  0
   44.4571   35.2132   46.8020 H   0  0  0  0  0  0  0  0  0  0  0  0
   48.2760   32.6558   43.9002 H   0  0  0  0  0  0  0  0  0  0  0  0
   48.7348   30.4364   43.0529 H   0  0  0  0  0  0  0  0  0  0  0  0
   46.6453   29.0922   42.2472 H   0  0  0  0  0  0  0  0  0  0  0  0
  1 15  1  0
  2  1  2  0
  3  1  1  0
  4  3  2  0
  5  4  1  0
  6  5  1  0
  6  7  2  0
  7  3  1  0
  8  6  1  0
  9 13  1  0
  9 10  1  0
 10 11  1  0
 11 12  1  0
 13  5  1  0
 13 12  1  0
 14 19  2  0
 15 14  1  0
 15 16  2  0
 16 17  1  0
 17 18  2  0
 19 18  1  0
 20 16  1  0
 21 20  2  0
 22 21  1  0
 23 24  1  0
 23 22  2  0
 24 20  1  0
  4 25  1  0
  8 26  1  0
  8 27  1  0
  9 28  1  0
 10 29  1  0
 10 30  1  0
 11 31  1  0
 11 32  1  0
 12 33  1  0
 12 34  1  0
 13 35  1  6
 14 36  1  0
 18 37  1  0
 21 38  1  0
 22 39  1  0
 23 40  1  0
M  ISO  8  25  14  28   5  29  13  30  13  31  13  32  13  33  13  34  13
M  ISO  6  35  13  36  14  37  14  38  14  39  14  40  14
M  END
>  <minimizedAffinity>  (1) 
-5.60983419

>  <minimizedRMSD>  (1) 
1.7724936

$$$$
