
     RDKit          3D

 34 37  0  0  0  0  0  0  0  0999 V2000
   45.6390   34.5570   41.5890 C   0  0  0  0  0  0  0  0  0  0  0  0
   46.8580   34.7040   41.2580 O   0  0  0  0  0  0  0  0  0  0  0  0
   44.5480   34.2000   40.6250 C   0  0  0  0  0  0  0  0  0  0  0  0
   43.2160   34.4820   40.7840 C   0  0  0  0  0  0  0  0  0  0  0  0
   42.5880   33.9890   39.6960 N   0  0  0  0  0  0  0  0  0  0  0  0
   43.5440   33.4210   38.9050 C   0  0  0  0  0  0  0  0  0  0  0  0
   44.7530   33.5530   39.4800 N   0  0  0  0  0  0  0  0  0  0  0  0
   43.4190   32.7600   37.6450 N   0  0  0  0  0  0  0  0  0  0  0  0
   41.1710   34.0340   39.3910 C   0  0  0  0  0  0  0  0  0  0  0  0
   40.1950   33.8250   40.3490 C   0  0  0  0  0  0  0  0  0  0  0  0
   38.6290   33.9920   39.4450 S   0  0  0  0  0  0  0  0  0  0  0  0
   39.5800   34.3370   37.8350 C   0  0  0  0  0  0  0  0  0  0  0  0
   40.7370   34.2810   38.1720 N   0  0  0  0  0  0  0  0  0  0  0  0
   44.8840   36.0010   43.4250 C   0  0  0  0  0  0  0  0  0  0  0  0
   45.3470   34.7540   42.9690 C   0  0  0  0  0  0  0  0  0  0  0  0
   45.4830   33.7870   43.9470 C   0  0  0  0  0  0  0  0  0  0  0  0
   45.1950   34.0210   45.2410 N   0  0  0  0  0  0  0  0  0  0  0  0
   44.7490   35.2490   45.6270 C   0  0  0  0  0  0  0  0  0  0  0  0
   44.5980   36.2270   44.7160 N   0  0  0  0  0  0  0  0  0  0  0  0
   45.9450   32.5000   43.5770 C   0  0  0  0  0  0  0  0  0  0  0  0
   47.1640   31.8960   43.5270 C   0  0  0  0  0  0  0  0  0  0  0  0
   47.3030   30.6410   43.1310 C   0  0  0  0  0  0  0  0  0  0  0  0
   46.1830   29.9730   42.7750 C   0  0  0  0  0  0  0  0  0  0  0  0
   44.8570   31.2140   43.0220 S   0  0  0  0  0  0  0  0  0  0  0  0
   42.7507   35.0067   41.6314 H   0  0  0  0  0  0  0  0  0  0  0  0
   42.4928   32.6596   37.2058 H   0  0  0  0  0  0  0  0  0  0  0  0
   44.2551   32.3838   37.1756 H   0  0  0  0  0  0  0  0  0  0  0  0
   40.3359   33.6068   41.4179 H   0  0  0  0  0  0  0  0  0  0  0  0
   39.1720   34.5396   36.8338 H   0  0  0  0  0  0  0  0  0  0  0  0
   44.7521   36.8175   42.6997 H   0  0  0  0  0  0  0  0  0  0  0  0
   44.5123   35.4408   46.6840 H   0  0  0  0  0  0  0  0  0  0  0  0
   48.0568   32.4661   43.8235 H   0  0  0  0  0  0  0  0  0  0  0  0
   48.2915   30.1600   43.0930 H   0  0  0  0  0  0  0  0  0  0  0  0
   46.0899   28.9353   42.4223 H   0  0  0  0  0  0  0  0  0  0  0  0
  1 15  1  0
  2  1  2  0
  3  4  2  0
  3  1  1  0
  5  4  1  0
  6  7  2  0
  6  5  1  0
  7  3  1  0
  8  6  1  0
  9  5  1  0
  9 10  2  0
 11 10  1  0
 12 13  2  0
 12 11  1  0
 13  9  1  0
 14 19  2  0
 15 14  1  0
 15 16  2  0
 16 17  1  0
 17 18  2  0
 19 18  1  0
 20 16  1  0
 21 20  2  0
 22 21  1  0
 23 24  1  0
 23 22  2  0
 24 20  1  0
  4 25  1  0
  8 26  1  0
  8 27  1  0
 10 28  1  0
 12 29  1  0
 14 30  1  0
 18 31  1  0
 21 32  1  0
 22 33  1  0
 23 34  1  0
M  ISO  8  25  14  28  14  29  14  30  14  31  14  32  14  33  14  34  14
M  END
>  <minimizedAffinity>  (1) 
-5.36257792

>  <minimizedRMSD>  (1) 
1.47609663

$$$$
