
     RDKit          3D

 35 38  0  0  0  0  0  0  0  0999 V2000
   44.7490   35.8620   43.7630 C   0  0  0  0  0  0  0  0  0  0  0  0
   45.2120   34.7140   43.1130 C   0  0  0  0  0  0  0  0  0  0  0  0
   45.4730   33.6380   43.9310 C   0  0  0  0  0  0  0  0  0  0  0  0
   45.2960   33.6840   45.2650 N   0  0  0  0  0  0  0  0  0  0  0  0
   44.8410   34.8270   45.8530 C   0  0  0  0  0  0  0  0  0  0  0  0
   44.5710   35.9100   45.0900 N   0  0  0  0  0  0  0  0  0  0  0  0
   45.9490   32.4350   43.3550 C   0  0  0  0  0  0  0  0  0  0  0  0
   47.1760   31.8820   43.1540 C   0  0  0  0  0  0  0  0  0  0  0  0
   47.3380   30.7090   42.5770 C   0  0  0  0  0  0  0  0  0  0  0  0
   46.2180   30.0640   42.1850 C   0  0  0  0  0  0  0  0  0  0  0  0
   44.8610   31.2030   42.6720 S   0  0  0  0  0  0  0  0  0  0  0  0
   45.3870   34.7090   41.6970 C   0  0  0  0  0  0  0  0  0  0  0  0
   46.5870   34.7670   41.2880 O   0  0  0  0  0  0  0  0  0  0  0  0
   44.1810   34.6390   40.7920 C   0  0  0  0  0  0  0  0  0  0  0  0
   43.0470   35.4230   40.8830 C   0  0  0  0  0  0  0  0  0  0  0  0
   42.2620   35.0020   39.8780 N   0  0  0  0  0  0  0  0  0  0  0  0
   42.8750   34.0130   39.2020 C   0  0  0  0  0  0  0  0  0  0  0  0
   44.0860   33.7760   39.7690 N   0  0  0  0  0  0  0  0  0  0  0  0
   42.4720   33.2400   38.0700 N   0  0  0  0  0  0  0  0  0  0  0  0
   40.9450   35.5010   39.5280 C   0  0  0  0  0  0  0  0  0  0  0  0
   40.1890   36.3070   40.5430 C   0  0  0  0  0  0  0  0  0  0  0  0
   39.7270   34.9380   40.2240 C   0  0  0  0  0  0  0  0  0  0  0  0
   44.5231   36.7567   43.1642 H   0  0  0  0  0  0  0  0  0  0  0  0
   44.6944   34.8678   46.9424 H   0  0  0  0  0  0  0  0  0  0  0  0
   48.0666   32.4357   43.4861 H   0  0  0  0  0  0  0  0  0  0  0  0
   48.3371   30.2757   42.4219 H   0  0  0  0  0  0  0  0  0  0  0  0
   46.1371   29.0851   41.6897 H   0  0  0  0  0  0  0  0  0  0  0  0
   42.8345   36.2156   41.6156 H   0  0  0  0  0  0  0  0  0  0  0  0
   41.5561   33.4095   37.6303 H   0  0  0  0  0  0  0  0  0  0  0  0
   43.0974   32.5133   37.6936 H   0  0  0  0  0  0  0  0  0  0  0  0
   41.2507   35.6372   38.4802 H   0  0  0  0  0  0  0  0  0  0  0  0
   40.6424   36.5172   41.5229 H   0  0  0  0  0  0  0  0  0  0  0  0
   39.7171   37.3006   40.5440 H   0  0  0  0  0  0  0  0  0  0  0  0
   38.7926   34.7903   39.6626 H   0  0  0  0  0  0  0  0  0  0  0  0
   39.5179   34.0322   40.8120 H   0  0  0  0  0  0  0  0  0  0  0  0
  1  6  2  0
  2  1  1  0
  2  3  2  0
  3  4  1  0
  4  5  2  0
  6  5  1  0
  7  3  1  0
  8  7  2  0
  9  8  1  0
 10  9  2  0
 10 11  1  0
 11  7  1  0
 12  2  1  0
 13 12  2  0
 14 15  2  0
 14 12  1  0
 16 15  1  0
 17 18  2  0
 17 16  1  0
 18 14  1  0
 19 17  1  0
 20 16  1  0
 20 22  1  0
 20 21  1  0
 22 21  1  0
  1 23  1  0
  5 24  1  0
  8 25  1  0
  9 26  1  0
 10 27  1  0
 15 28  1  0
 19 29  1  0
 19 30  1  0
 20 31  1  0
 21 32  1  0
 21 33  1  0
 22 34  1  0
 22 35  1  0
M  ISO  8  23  14  24  14  25  14  26  14  27  14  28  14  31  13  32  13
M  ISO  3  33  13  34  13  35  13
M  END
>  <minimizedAffinity>  (1) 
-5.40840054

>  <minimizedRMSD>  (1) 
1.84505773

$$$$
