
     RDKit          3D

 37 38  0  0  0  0  0  0  0  0999 V2000
   45.8740   32.3460   44.5420 C   0  0  0  0  0  0  0  0  0  0  0  0
   44.6480   35.7820   44.8240 C   0  0  0  0  0  0  0  0  0  0  0  0
   44.1560   36.0420   43.5220 C   0  0  0  0  0  0  0  0  0  0  0  0
   44.2670   35.0250   42.6040 C   0  0  0  0  0  0  0  0  0  0  0  0
   44.8240   33.8470   42.9590 N   0  0  0  0  0  0  0  0  0  0  0  0
   45.2750   33.6640   44.2270 C   0  0  0  0  0  0  0  0  0  0  0  0
   45.1970   34.5960   45.1450 N   0  0  0  0  0  0  0  0  0  0  0  0
   43.7500   35.3030   41.2400 C   0  0  0  0  0  0  0  0  0  0  0  0
   42.2610   34.9940   41.1420 C   0  0  0  0  0  0  0  0  0  0  0  0
   41.9250   33.8410   41.8140 O   0  0  0  0  0  0  0  0  0  0  0  0
   46.6950   32.4680   45.7870 C   0  0  0  0  0  0  0  0  0  0  0  0
   46.1240   31.7620   46.9100 C   0  0  0  0  0  0  0  0  0  0  0  0
   45.3840   32.2640   47.9480 C   0  0  0  0  0  0  0  0  0  0  0  0
   44.8860   31.5130   48.9650 C   0  0  0  0  0  0  0  0  0  0  0  0
   45.1420   30.1540   48.9500 C   0  0  0  0  0  0  0  0  0  0  0  0
   45.8840   29.6410   47.9130 C   0  0  0  0  0  0  0  0  0  0  0  0
   46.3750   30.4260   46.8970 C   0  0  0  0  0  0  0  0  0  0  0  0
   48.4640   29.3250   46.3610 C   0  0  0  0  0  0  0  0  0  0  0  0
   49.2990   29.6540   47.2740 O   0  0  0  0  0  0  0  0  0  0  0  0
   47.0990   29.5760   45.9920 N   0  0  0  0  0  0  0  0  0  0  0  0
   46.5147   32.0235   43.7081 H   0  0  0  0  0  0  0  0  0  0  0  0
   45.0773   31.6029   44.6940 H   0  0  0  0  0  0  0  0  0  0  0  0
   44.5799   36.5677   45.5909 H   0  0  0  0  0  0  0  0  0  0  0  0
   43.7068   37.0108   43.2580 H   0  0  0  0  0  0  0  0  0  0  0  0
   43.9124   36.3651   41.0042 H   0  0  0  0  0  0  0  0  0  0  0  0
   44.2869   34.6610   40.5262 H   0  0  0  0  0  0  0  0  0  0  0  0
   41.6957   35.8332   41.5734 H   0  0  0  0  0  0  0  0  0  0  0  0
   42.0147   34.8502   40.0796 H   0  0  0  0  0  0  0  0  0  0  0  0
   41.9719   34.0021   42.7897 H   0  0  0  0  0  0  0  0  0  0  0  0
   47.6965   32.0589   45.5881 H   0  0  0  0  0  0  0  0  0  0  0  0
   46.7330   33.5346   46.0533 H   0  0  0  0  0  0  0  0  0  0  0  0
   45.1798   33.3448   47.9588 H   0  0  0  0  0  0  0  0  0  0  0  0
   44.2982   31.9711   49.7741 H   0  0  0  0  0  0  0  0  0  0  0  0
   44.7612   29.4999   49.7482 H   0  0  0  0  0  0  0  0  0  0  0  0
   46.0929   28.5612   47.8954 H   0  0  0  0  0  0  0  0  0  0  0  0
   48.9359   28.6420   45.6393 H   0  0  0  0  0  0  0  0  0  0  0  0
   46.6716   29.1774   45.1438 H   0  0  0  0  0  0  0  0  0  0  0  0
  1 11  1  0
  2  7  2  0
  3  2  1  0
  4  5  1  0
  4  3  2  0
  5  6  2  0
  6  1  1  0
  6  7  1  0
  8  4  1  0
  9  8  1  0
  9 10  1  0
 11 12  1  0
 12 13  2  0
 13 14  1  0
 15 14  2  0
 16 15  1  0
 17 12  1  0
 17 16  2  0
 18 19  2  0
 20 18  1  0
 20 17  1  0
  1 21  1  0
  1 22  1  0
  2 23  1  0
  3 24  1  0
  8 25  1  0
  8 26  1  0
  9 27  1  0
  9 28  1  0
 10 29  1  0
 11 30  1  0
 11 31  1  0
 13 32  1  0
 14 33  1  0
 15 34  1  0
 16 35  1  0
 18 36  1  0
 20 37  1  0
M  ISO  8  21   8  22   8  23  14  24  14  25   8  26   8  27   8  28   8
M  ISO  8  29   3  30   8  31   8  32  14  33  14  34  14  35  14  36   6
M  END
>  <minimizedAffinity>  (1) 
-4.82486963

>  <minimizedRMSD>  (1) 
0.195108548

$$$$
