
     RDKit          3D

 45 48  0  0  0  0  0  0  0  0999 V2000
   44.5360   34.5290   40.7370 C   0  0  0  0  0  0  0  0  0  0  0  0
   43.3830   35.2580   40.6760 C   0  0  0  0  0  0  0  0  0  0  0  0
   42.6780   34.7700   39.6310 N   0  0  0  0  0  0  0  0  0  0  0  0
   43.3910   33.7720   39.0790 C   0  0  0  0  0  0  0  0  0  0  0  0
   44.5380   33.6250   39.7620 N   0  0  0  0  0  0  0  0  0  0  0  0
   43.0930   32.9470   37.9690 N   0  0  0  0  0  0  0  0  0  0  0  0
   41.3810   35.1880   39.1300 C   0  0  0  0  0  0  0  0  0  0  0  0
   40.4000   34.3160   39.6680 N   0  0  0  0  0  0  0  0  0  0  0  0
   40.7660   33.4720   40.7370 C   0  0  0  0  0  0  0  0  0  0  0  0
   39.6490   33.3760   41.7490 C   0  0  0  0  0  0  0  0  0  0  0  0
   38.4560   32.8910   41.1130 N   0  0  0  0  0  0  0  0  0  0  0  0
   38.2030   33.4110   39.8090 C   0  0  0  0  0  0  0  0  0  0  0  0
   39.0390   34.6560   39.5100 C   0  0  0  0  0  0  0  0  0  0  0  0
   45.6530   34.6840   41.7270 C   0  0  0  0  0  0  0  0  0  0  0  0
   46.8710   34.7320   41.4390 O   0  0  0  0  0  0  0  0  0  0  0  0
   44.8640   36.0000   43.6450 C   0  0  0  0  0  0  0  0  0  0  0  0
   45.3440   34.7890   43.1230 C   0  0  0  0  0  0  0  0  0  0  0  0
   45.4790   33.7700   44.0480 C   0  0  0  0  0  0  0  0  0  0  0  0
   45.1770   33.9200   45.3350 N   0  0  0  0  0  0  0  0  0  0  0  0
   44.7130   35.1200   45.7950 C   0  0  0  0  0  0  0  0  0  0  0  0
   44.5620   36.1410   44.9520 N   0  0  0  0  0  0  0  0  0  0  0  0
   45.9640   32.5060   43.5970 C   0  0  0  0  0  0  0  0  0  0  0  0
   47.1830   31.9090   43.5230 C   0  0  0  0  0  0  0  0  0  0  0  0
   47.3360   30.6950   43.0460 C   0  0  0  0  0  0  0  0  0  0  0  0
   46.2270   30.0660   42.6320 C   0  0  0  0  0  0  0  0  0  0  0  0
   44.8800   31.2590   42.9320 S   0  0  0  0  0  0  0  0  0  0  0  0
   43.0866   36.0796   41.3447 H   0  0  0  0  0  0  0  0  0  0  0  0
   43.7597   32.2192   37.6745 H   0  0  0  0  0  0  0  0  0  0  0  0
   42.2093   33.0742   37.4553 H   0  0  0  0  0  0  0  0  0  0  0  0
   41.1747   36.2215   39.4453 H   0  0  0  0  0  0  0  0  0  0  0  0
   41.3656   35.1479   38.0308 H   0  0  0  0  0  0  0  0  0  0  0  0
   40.9854   32.4678   40.3452 H   0  0  0  0  0  0  0  0  0  0  0  0
   41.6548   33.8922   41.2305 H   0  0  0  0  0  0  0  0  0  0  0  0
   39.9422   32.6834   42.5517 H   0  0  0  0  0  0  0  0  0  0  0  0
   39.4554   34.3730   42.1716 H   0  0  0  0  0  0  0  0  0  0  0  0
   38.5302   31.8664   41.0376 H   0  0  0  0  0  0  0  0  0  0  0  0
   38.4436   32.6362   39.0661 H   0  0  0  0  0  0  0  0  0  0  0  0
   37.1421   33.6976   39.7603 H   0  0  0  0  0  0  0  0  0  0  0  0
   38.7719   35.4618   40.2095 H   0  0  0  0  0  0  0  0  0  0  0  0
   38.8493   35.0065   38.4847 H   0  0  0  0  0  0  0  0  0  0  0  0
   44.7304   36.8579   42.9696 H   0  0  0  0  0  0  0  0  0  0  0  0
   44.4645   35.2431   46.8595 H   0  0  0  0  0  0  0  0  0  0  0  0
   48.0684   32.4596   43.8734 H   0  0  0  0  0  0  0  0  0  0  0  0
   48.3255   30.2178   42.9890 H   0  0  0  0  0  0  0  0  0  0  0  0
   46.1470   29.0550   42.2060 H   0  0  0  0  0  0  0  0  0  0  0  0
  1 14  1  0
  2  1  2  0
  3  2  1  0
  4  3  1  0
  4  5  2  0
  5  1  1  0
  6  4  1  0
  7  3  1  0
  7  8  1  0
  8  9  1  0
  9 10  1  0
 11 10  1  0
 12 11  1  0
 13  8  1  0
 13 12  1  0
 14 17  1  0
 15 14  2  0
 16 21  2  0
 17 16  1  0
 17 18  2  0
 18 19  1  0
 19 20  2  0
 21 20  1  0
 22 18  1  0
 23 22  2  0
 24 23  1  0
 25 26  1  0
 25 24  2  0
 26 22  1  0
  2 27  1  0
  6 28  1  0
  6 29  1  0
  7 30  1  0
  7 31  1  0
  9 32  1  0
  9 33  1  0
 10 34  1  0
 10 35  1  0
 11 36  1  0
 12 37  1  0
 12 38  1  0
 13 39  1  0
 13 40  1  0
 16 41  1  0
 20 42  1  0
 23 43  1  0
 24 44  1  0
 25 45  1  0
M  ISO  8  27  14  30   8  31   8  32  13  33  13  34  13  35  13  36   5
M  ISO  8  37  13  38  13  39  13  40  13  41  14  42  14  43  14  44  14
M  ISO  1  45  14
M  END
>  <minimizedAffinity>  (1) 
-6.0576396

>  <minimizedRMSD>  (1) 
2.21080875

$$$$
