
     RDKit          3D

 27 29  0  0  1  0  0  0  0  0999 V2000
   48.0450   34.3060   41.8810 C   0  0  1  0  0  0  0  0  0  0  0  0
   47.8620   34.7930   40.5130 C   0  0  1  0  0  0  0  0  0  0  0  0
   48.8310   35.5050   41.4020 C   0  0  0  0  0  0  0  0  0  0  0  0
   45.9720   35.4460   42.7240 C   0  0  0  0  0  0  0  0  0  0  0  0
   46.9830   34.4960   42.8820 C   0  0  0  0  0  0  0  0  0  0  0  0
   46.9580   33.7120   44.0290 C   0  0  0  0  0  0  0  0  0  0  0  0
   45.9500   33.8960   44.9580 N   0  0  0  0  0  0  0  0  0  0  0  0
   44.9840   34.8310   44.7650 C   0  0  0  0  0  0  0  0  0  0  0  0
   44.9970   35.6080   43.6450 N   0  0  0  0  0  0  0  0  0  0  0  0
   48.3290   33.9630   39.3780 C   0  0  0  0  0  0  0  0  0  0  0  0
   48.3560   34.4880   38.0900 C   0  0  0  0  0  0  0  0  0  0  0  0
   48.8010   33.6750   37.0540 C   0  0  0  0  0  0  0  0  0  0  0  0
   49.2090   32.3720   37.2960 C   0  0  0  0  0  0  0  0  0  0  0  0
   49.1880   31.8310   38.5850 C   0  0  0  0  0  0  0  0  0  0  0  0
   48.7410   32.6630   39.5900 C   0  0  0  0  0  0  0  0  0  0  0  0
   48.2985   33.3318   42.3245 H   0  0  0  0  0  0  0  0  0  0  0  0
   47.0026   35.1222   39.9104 H   0  0  0  0  0  0  0  0  0  0  0  0
   49.9130   35.4230   41.2215 H   0  0  0  0  0  0  0  0  0  0  0  0
   48.9731   36.5412   41.7426 H   0  0  0  0  0  0  0  0  0  0  0  0
   45.9693   36.0799   41.8250 H   0  0  0  0  0  0  0  0  0  0  0  0
   47.7341   32.9507   44.1969 H   0  0  0  0  0  0  0  0  0  0  0  0
   44.1893   34.9616   45.5142 H   0  0  0  0  0  0  0  0  0  0  0  0
   48.0330   35.5215   37.8961 H   0  0  0  0  0  0  0  0  0  0  0  0
   48.8299   34.0707   36.0281 H   0  0  0  0  0  0  0  0  0  0  0  0
   49.5562   31.7514   36.4568 H   0  0  0  0  0  0  0  0  0  0  0  0
   49.5102   30.7987   38.7865 H   0  0  0  0  0  0  0  0  0  0  0  0
   48.7112   32.2689   40.6166 H   0  0  0  0  0  0  0  0  0  0  0  0
  1  5  1  0
  2  3  1  0
  2  1  1  0
  3  1  1  0
  4  5  2  0
  4  9  1  0
  5  6  1  0
  6  7  2  0
  8  7  1  0
  9  8  2  0
 10 15  1  0
 10  2  1  0
 11 10  2  0
 12 13  2  0
 12 11  1  0
 13 14  1  0
 14 15  2  0
  1 16  1  6
  2 17  1  6
  3 18  1  0
  3 19  1  0
  4 20  1  0
  6 21  1  0
  8 22  1  0
 11 23  1  0
 12 24  1  0
 13 25  1  0
 14 26  1  0
 15 27  1  0
M  ISO  8  16  13  17  13  18  13  19  13  20  14  21  14  22  14  23  14
M  ISO  4  24  14  25  14  26  14  27  14
M  END
>  <minimizedAffinity>  (1) 
-4.83567286

>  <minimizedRMSD>  (1) 
1.98459482

$$$$
