
     RDKit          3D

 32 35  0  0  1  0  0  0  0  0999 V2000
   47.3470   34.4920   42.1080 C   0  0  1  0  0  0  0  0  0  0  0  0
   48.2380   35.5400   41.6130 C   0  0  0  0  0  0  0  0  0  0  0  0
   48.8180   34.4470   42.4530 C   0  0  2  0  0  0  0  0  0  0  0  0
   49.5990   33.3990   41.7430 C   0  0  0  0  0  0  0  0  0  0  0  0
   50.8210   32.9100   42.1730 C   0  0  0  0  0  0  0  0  0  0  0  0
   51.5000   31.9380   41.4720 C   0  0  0  0  0  0  0  0  0  0  0  0
   50.9540   31.4310   40.3020 C   0  0  0  0  0  0  0  0  0  0  0  0
   51.5750   30.4710   39.5650 N   0  0  0  0  0  0  0  0  0  0  0  0
   51.0360   29.9880   38.4360 C   0  0  0  0  0  0  0  0  0  0  0  0
   49.8120   30.4230   37.9280 C   0  0  0  0  0  0  0  0  0  0  0  0
   49.1550   31.3980   38.6540 C   0  0  0  0  0  0  0  0  0  0  0  0
   49.7320   31.8840   39.8230 C   0  0  0  0  0  0  0  0  0  0  0  0
   49.0940   32.8630   40.5710 C   0  0  0  0  0  0  0  0  0  0  0  0
   45.5680   35.9340   43.1710 C   0  0  0  0  0  0  0  0  0  0  0  0
   46.3880   34.7770   43.1960 C   0  0  0  0  0  0  0  0  0  0  0  0
   46.2550   33.9300   44.2950 C   0  0  0  0  0  0  0  0  0  0  0  0
   45.3600   34.2530   45.2720 N   0  0  0  0  0  0  0  0  0  0  0  0
   44.5920   35.3660   45.2180 C   0  0  0  0  0  0  0  0  0  0  0  0
   44.6990   36.2130   44.1560 N   0  0  0  0  0  0  0  0  0  0  0  0
   46.6274   33.8140   41.6258 H   0  0  0  0  0  0  0  0  0  0  0  0
   48.4785   35.5906   40.5408 H   0  0  0  0  0  0  0  0  0  0  0  0
   48.2403   36.6384   41.6713 H   0  0  0  0  0  0  0  0  0  0  0  0
   49.4233   34.4064   43.3706 H   0  0  0  0  0  0  0  0  0  0  0  0
   51.2612   33.3084   43.0990 H   0  0  0  0  0  0  0  0  0  0  0  0
   52.4686   31.5663   41.8375 H   0  0  0  0  0  0  0  0  0  0  0  0
   51.5857   29.2114   37.8840 H   0  0  0  0  0  0  0  0  0  0  0  0
   49.3918   30.0116   36.9984 H   0  0  0  0  0  0  0  0  0  0  0  0
   48.1847   31.7863   38.3109 H   0  0  0  0  0  0  0  0  0  0  0  0
   48.1248   33.2372   40.2095 H   0  0  0  0  0  0  0  0  0  0  0  0
   45.6463   36.6243   42.3181 H   0  0  0  0  0  0  0  0  0  0  0  0
   46.8620   33.0160   44.3730 H   0  0  0  0  0  0  0  0  0  0  0  0
   43.8830   35.5864   46.0296 H   0  0  0  0  0  0  0  0  0  0  0  0
  1  3  1  0
  1 15  1  0
  2  1  1  0
  2  3  1  0
  4  5  2  0
  4  3  1  0
  6  5  1  0
  7  6  2  0
  8  7  1  0
  9  8  2  0
 10  9  1  0
 10 11  2  0
 11 12  1  0
 12  7  1  0
 12 13  2  0
 13  4  1  0
 14 15  2  0
 14 19  1  0
 15 16  1  0
 16 17  2  0
 18 17  1  0
 19 18  2  0
  1 20  1  6
  2 21  1  0
  2 22  1  0
  3 23  1  1
  5 24  1  0
  6 25  1  0
  9 26  1  0
 10 27  1  0
 11 28  1  0
 13 29  1  0
 14 30  1  0
 16 31  1  0
 18 32  1  0
M  ISO  8  20  13  21  13  22  13  23  13  24  14  25  14  26  14  27  14
M  ISO  5  28  14  29  14  30  14  31  14  32  14
M  END
>  <minimizedAffinity>  (1) 
-5.26064777

>  <minimizedRMSD>  (1) 
2.11079311

$$$$
