
     RDKit          3D

 33 36  0  0  1  0  0  0  0  0999 V2000
   47.1210   34.1200   42.2950 C   0  0  1  0  0  0  0  0  0  0  0  0
   47.6850   35.2160   41.5360 C   0  0  0  0  0  0  0  0  0  0  0  0
   48.6140   34.3680   42.3640 C   0  0  2  0  0  0  0  0  0  0  0  0
   49.4580   33.3890   41.6220 C   0  0  0  0  0  0  0  0  0  0  0  0
   50.6580   32.8870   42.0810 C   0  0  0  0  0  0  0  0  0  0  0  0
   51.3810   31.9680   41.3400 C   0  0  0  0  0  0  0  0  0  0  0  0
   50.9080   31.5370   40.1210 C   0  0  0  0  0  0  0  0  0  0  0  0
   51.5900   30.6510   39.3650 N   0  0  0  0  0  0  0  0  0  0  0  0
   51.1210   30.2430   38.1630 C   0  0  0  0  0  0  0  0  0  0  0  0
   49.9200   30.6960   37.6230 C   0  0  0  0  0  0  0  0  0  0  0  0
   49.1940   31.6120   38.3850 C   0  0  0  0  0  0  0  0  0  0  0  0
   49.7090   32.0140   39.6250 C   0  0  0  0  0  0  0  0  0  0  0  0
   49.0140   32.9290   40.3890 C   0  0  0  0  0  0  0  0  0  0  0  0
   45.4070   35.4420   43.5820 C   0  0  0  0  0  0  0  0  0  0  0  0
   46.3290   34.3640   43.5320 C   0  0  0  0  0  0  0  0  0  0  0  0
   46.4530   33.5670   44.6550 C   0  0  0  0  0  0  0  0  0  0  0  0
   45.6790   33.8740   45.7290 N   0  0  0  0  0  0  0  0  0  0  0  0
   44.8100   34.8980   45.7650 C   0  0  0  0  0  0  0  0  0  0  0  0
   44.6720   35.6930   44.6730 N   0  0  0  0  0  0  0  0  0  0  0  0
   44.0440   35.1710   46.8840 O   0  0  0  0  0  0  0  0  0  0  0  0
   46.4670   33.2787   42.0220 H   0  0  0  0  0  0  0  0  0  0  0  0
   47.7244   35.1557   40.4384 H   0  0  0  0  0  0  0  0  0  0  0  0
   47.4786   36.2948   41.4761 H   0  0  0  0  0  0  0  0  0  0  0  0
   49.3599   34.5533   43.1510 H   0  0  0  0  0  0  0  0  0  0  0  0
   51.0475   33.2230   43.0533 H   0  0  0  0  0  0  0  0  0  0  0  0
   52.3357   31.5812   41.7261 H   0  0  0  0  0  0  0  0  0  0  0  0
   51.7160   29.5200   37.5857 H   0  0  0  0  0  0  0  0  0  0  0  0
   49.5610   30.3485   36.6430 H   0  0  0  0  0  0  0  0  0  0  0  0
   48.2362   32.0109   38.0197 H   0  0  0  0  0  0  0  0  0  0  0  0
   48.0592   33.3139   40.0016 H   0  0  0  0  0  0  0  0  0  0  0  0
   45.2930   36.0893   42.7000 H   0  0  0  0  0  0  0  0  0  0  0  0
   47.1512   32.7173   44.6782 H   0  0  0  0  0  0  0  0  0  0  0  0
   43.4127   35.9336   46.8777 H   0  0  0  0  0  0  0  0  0  0  0  0
  1  3  1  0
  1 15  1  0
  2  1  1  0
  2  3  1  0
  4  5  2  0
  4  3  1  0
  6  5  1  0
  7  6  2  0
  8  7  1  0
  9  8  2  0
 10  9  1  0
 10 11  2  0
 11 12  1  0
 12  7  1  0
 12 13  2  0
 13  4  1  0
 14 19  2  0
 15 14  1  0
 15 16  2  0
 16 17  1  0
 17 18  2  0
 18 20  1  0
 19 18  1  0
  1 21  1  6
  2 22  1  0
  2 23  1  0
  3 24  1  1
  5 25  1  0
  6 26  1  0
  9 27  1  0
 10 28  1  0
 11 29  1  0
 13 30  1  0
 14 31  1  0
 16 32  1  0
 20 33  1  0
M  ISO  8  21  13  22  13  23  13  24  13  25  14  26  14  27  14  28  14
M  ISO  5  29  14  30  14  31  14  32  14  33   3
M  END
>  <minimizedAffinity>  (1) 
-5.95806742

>  <minimizedRMSD>  (1) 
0.489288121

$$$$
