
     RDKit          3D

 42 46  0  0  1  0  0  0  0  0999 V2000
   47.4280   32.8940   41.4530 C   0  0  1  0  0  0  0  0  0  0  0  0
   48.0920   34.1530   41.1750 C   0  0  0  0  0  0  0  0  0  0  0  0
   48.9200   32.8900   41.1500 C   0  0  2  0  0  0  0  0  0  0  0  0
   49.2850   32.3870   39.8020 C   0  0  0  0  0  0  0  0  0  0  0  0
   50.2040   31.3780   39.5780 C   0  0  0  0  0  0  0  0  0  0  0  0
   50.4970   30.9340   38.2950 C   0  0  0  0  0  0  0  0  0  0  0  0
   49.8590   31.5060   37.2180 C   0  0  0  0  0  0  0  0  0  0  0  0
   50.1070   31.1070   35.9360 N   0  0  0  0  0  0  0  0  0  0  0  0
   49.4750   31.6730   34.8870 C   0  0  0  0  0  0  0  0  0  0  0  0
   48.5270   32.7010   35.0250 C   0  0  0  0  0  0  0  0  0  0  0  0
   48.2570   33.1260   36.3220 C   0  0  0  0  0  0  0  0  0  0  0  0
   48.9210   32.5270   37.3760 C   0  0  0  0  0  0  0  0  0  0  0  0
   48.6700   32.9330   38.6840 C   0  0  0  0  0  0  0  0  0  0  0  0
   47.0840   33.5060   43.8690 C   0  0  0  0  0  0  0  0  0  0  0  0
   47.0210   32.5270   42.8390 C   0  0  0  0  0  0  0  0  0  0  0  0
   46.6040   31.2520   43.1660 C   0  0  0  0  0  0  0  0  0  0  0  0
   46.2780   31.0110   44.4670 N   0  0  0  0  0  0  0  0  0  0  0  0
   46.3430   31.9490   45.4340 C   0  0  0  0  0  0  0  0  0  0  0  0
   46.7500   33.2030   45.1280 N   0  0  0  0  0  0  0  0  0  0  0  0
   45.9770   31.6070   46.8050 C   0  0  0  0  0  0  0  0  0  0  0  0
   46.1490   32.5330   47.8110 C   0  0  0  0  0  0  0  0  0  0  0  0
   45.8100   32.2260   49.0930 C   0  0  0  0  0  0  0  0  0  0  0  0
   45.2920   30.9840   49.3980 C   0  0  0  0  0  0  0  0  0  0  0  0
   45.1260   30.0700   48.3810 C   0  0  0  0  0  0  0  0  0  0  0  0
   45.4640   30.3610   47.0720 C   0  0  0  0  0  0  0  0  0  0  0  0
   46.5289   32.4160   41.0368 H   0  0  0  0  0  0  0  0  0  0  0  0
   47.8806   34.6846   40.2354 H   0  0  0  0  0  0  0  0  0  0  0  0
   48.1719   35.1118   41.7082 H   0  0  0  0  0  0  0  0  0  0  0  0
   49.8355   32.5331   41.6445 H   0  0  0  0  0  0  0  0  0  0  0  0
   50.7148   30.9164   40.4359 H   0  0  0  0  0  0  0  0  0  0  0  0
   51.2333   30.1314   38.1409 H   0  0  0  0  0  0  0  0  0  0  0  0
   49.7132   31.3125   33.8754 H   0  0  0  0  0  0  0  0  0  0  0  0
   48.0248   33.1463   34.1535 H   0  0  0  0  0  0  0  0  0  0  0  0
   47.5258   33.9270   36.5060 H   0  0  0  0  0  0  0  0  0  0  0  0
   47.9372   33.7382   38.8414 H   0  0  0  0  0  0  0  0  0  0  0  0
   47.4123   34.5274   43.6264 H   0  0  0  0  0  0  0  0  0  0  0  0
   46.5374   30.4606   42.4050 H   0  0  0  0  0  0  0  0  0  0  0  0
   46.5623   33.5251   47.5768 H   0  0  0  0  0  0  0  0  0  0  0  0
   45.9496   32.9715   49.8897 H   0  0  0  0  0  0  0  0  0  0  0  0
   45.0172   30.7290   50.4322 H   0  0  0  0  0  0  0  0  0  0  0  0
   44.7121   29.0786   48.6172 H   0  0  0  0  0  0  0  0  0  0  0  0
   45.3266   29.6194   46.2713 H   0  0  0  0  0  0  0  0  0  0  0  0
  1 15  1  0
  2  1  1  0
  3  2  1  0
  3  1  1  0
  4  3  1  0
  5  4  2  0
  6  5  1  0
  7 12  1  0
  7  6  2  0
  8  7  1  0
  9 10  1  0
  9  8  2  0
 10 11  2  0
 11 12  1  0
 12 13  2  0
 13  4  1  0
 14 19  2  0
 15 16  2  0
 15 14  1  0
 16 17  1  0
 17 18  2  0
 18 20  1  0
 19 18  1  0
 20 25  1  0
 20 21  2  0
 21 22  1  0
 22 23  2  0
 24 23  1  0
 25 24  2  0
  1 26  1  6
  2 27  1  0
  2 28  1  0
  3 29  1  1
  5 30  1  0
  6 31  1  0
  9 32  1  0
 10 33  1  0
 11 34  1  0
 13 35  1  0
 14 36  1  0
 16 37  1  0
 21 38  1  0
 22 39  1  0
 23 40  1  0
 24 41  1  0
 25 42  1  0
M  ISO  8  26  13  27  13  28  13  29  13  30  14  31  14  32  14  33  14
M  ISO  8  34  14  35  14  36  14  37  14  38  14  39  14  40  14  41  14
M  ISO  1  42  14
M  END
>  <minimizedAffinity>  (1) 
-5.54743004

>  <minimizedRMSD>  (1) 
3.82235861

$$$$
