
     RDKit          3D

 34 37  0  0  1  0  0  0  0  0999 V2000
   46.5590   33.2100   43.6230 C   0  0  1  0  0  0  0  0  0  0  0  0
   46.6880   34.5800   43.1710 C   0  0  0  0  0  0  0  0  0  0  0  0
   47.9220   33.7140   43.1880 C   0  0  2  0  0  0  0  0  0  0  0  0
   48.3850   33.2160   41.8640 C   0  0  0  0  0  0  0  0  0  0  0  0
   49.1100   32.0590   41.6770 C   0  0  0  0  0  0  0  0  0  0  0  0
   49.5040   31.6340   40.4260 C   0  0  0  0  0  0  0  0  0  0  0  0
   49.1650   32.3840   39.3230 C   0  0  0  0  0  0  0  0  0  0  0  0
   49.5270   32.0110   38.0600 N   0  0  0  0  0  0  0  0  0  0  0  0
   49.1900   32.7500   36.9820 C   0  0  0  0  0  0  0  0  0  0  0  0
   48.4500   33.9410   37.0780 C   0  0  0  0  0  0  0  0  0  0  0  0
   48.0720   34.3430   38.3470 C   0  0  0  0  0  0  0  0  0  0  0  0
   48.4310   33.5700   39.4340 C   0  0  0  0  0  0  0  0  0  0  0  0
   48.0700   33.9370   40.7210 C   0  0  0  0  0  0  0  0  0  0  0  0
   45.5240   33.6830   45.8710 C   0  0  0  0  0  0  0  0  0  0  0  0
   46.3830   32.8790   45.0630 C   0  0  0  0  0  0  0  0  0  0  0  0
   47.0210   31.8100   45.6600 C   0  0  0  0  0  0  0  0  0  0  0  0
   46.7860   31.5990   46.9830 N   0  0  0  0  0  0  0  0  0  0  0  0
   45.9760   32.3640   47.7310 C   0  0  0  0  0  0  0  0  0  0  0  0
   45.3370   33.4180   47.1750 N   0  0  0  0  0  0  0  0  0  0  0  0
   45.7690   32.0790   49.1450 C   0  0  0  0  0  0  0  0  0  0  0  0
   44.9310   31.2630   49.5500 O   0  0  0  0  0  0  0  0  0  0  0  0
   45.8839   32.3902   43.3365 H   0  0  0  0  0  0  0  0  0  0  0  0
   46.5901   35.4039   43.8932 H   0  0  0  0  0  0  0  0  0  0  0  0
   46.1855   35.1852   42.4021 H   0  0  0  0  0  0  0  0  0  0  0  0
   48.9282   33.7802   43.6275 H   0  0  0  0  0  0  0  0  0  0  0  0
   49.3833   31.4548   42.5546 H   0  0  0  0  0  0  0  0  0  0  0  0
   50.0829   30.7058   40.3108 H   0  0  0  0  0  0  0  0  0  0  0  0
   49.5078   32.4057   35.9868 H   0  0  0  0  0  0  0  0  0  0  0  0
   48.1836   34.5265   36.1857 H   0  0  0  0  0  0  0  0  0  0  0  0
   47.4925   35.2672   38.4884 H   0  0  0  0  0  0  0  0  0  0  0  0
   47.4931   34.8653   40.8450 H   0  0  0  0  0  0  0  0  0  0  0  0
   45.0035   34.5386   45.4161 H   0  0  0  0  0  0  0  0  0  0  0  0
   47.6935   31.1541   45.0877 H   0  0  0  0  0  0  0  0  0  0  0  0
   46.3842   32.6122   49.8847 H   0  0  0  0  0  0  0  0  0  0  0  0
  1 15  1  0
  2  3  1  0
  2  1  1  0
  3  1  1  0
  4  3  1  0
  5  4  2  0
  6  5  1  0
  7 12  1  0
  7  6  2  0
  8  7  1  0
  9 10  1  0
  9  8  2  0
 10 11  2  0
 11 12  1  0
 12 13  2  0
 13  4  1  0
 14 19  2  0
 15 16  2  0
 15 14  1  0
 16 17  1  0
 17 18  2  0
 18 20  1  0
 19 18  1  0
 20 21  2  0
  1 22  1  6
  2 23  1  0
  2 24  1  0
  3 25  1  1
  5 26  1  0
  6 27  1  0
  9 28  1  0
 10 29  1  0
 11 30  1  0
 13 31  1  0
 14 32  1  0
 16 33  1  0
 20 34  1  0
M  ISO  8  22  13  23  13  24  13  25  13  26  14  27  14  28  14  29  14
M  ISO  5  30  14  31  14  32  14  33  14  34   6
M  END
>  <minimizedAffinity>  (1) 
-5.22274113

>  <minimizedRMSD>  (1) 
3.11637521

$$$$
