
     RDKit          3D

 20 21  0  0  1  0  0  0  0  0999 V2000
   46.2490   34.5100   41.5230 C   0  0  1  0  0  0  0  0  0  0  0  0
   47.6110   34.7610   41.1370 C   0  0  2  0  0  0  0  0  0  0  0  0
   47.2130   33.3580   41.3600 C   0  0  0  0  0  0  0  0  0  0  0  0
   45.1880   36.0330   43.1120 C   0  0  0  0  0  0  0  0  0  0  0  0
   45.6940   34.7620   42.8650 C   0  0  0  0  0  0  0  0  0  0  0  0
   45.6550   33.8390   43.9400 C   0  0  0  0  0  0  0  0  0  0  0  0
   45.1330   34.2510   45.1320 N   0  0  0  0  0  0  0  0  0  0  0  0
   44.6630   35.4870   45.3100 C   0  0  0  0  0  0  0  0  0  0  0  0
   44.6860   36.3970   44.2930 N   0  0  0  0  0  0  0  0  0  0  0  0
   48.8090   35.1700   41.8670 C   0  0  0  0  0  0  0  0  0  0  0  0
   48.7800   34.8610   43.2140 F   0  0  0  0  0  0  0  0  0  0  0  0
   49.3630   36.3930   41.6300 F   0  0  0  0  0  0  0  0  0  0  0  0
   49.8540   34.2860   41.4180 F   0  0  0  0  0  0  0  0  0  0  0  0
   45.2895   34.8409   41.0990 H   0  0  0  0  0  0  0  0  0  0  0  0
   47.9444   35.4707   40.3656 H   0  0  0  0  0  0  0  0  0  0  0  0
   47.1145   32.6656   40.5109 H   0  0  0  0  0  0  0  0  0  0  0  0
   47.5648   32.5250   41.9864 H   0  0  0  0  0  0  0  0  0  0  0  0
   45.2022   36.7716   42.2970 H   0  0  0  0  0  0  0  0  0  0  0  0
   46.0365   32.8147   43.8165 H   0  0  0  0  0  0  0  0  0  0  0  0
   44.2519   35.7762   46.2885 H   0  0  0  0  0  0  0  0  0  0  0  0
  1  5  1  0
  2  3  1  0
  2  1  1  0
  2 10  1  0
  3  1  1  0
  4  9  2  0
  5  4  1  0
  5  6  2  0
  6  7  1  0
  7  8  2  0
  9  8  1  0
 10 11  1  0
 12 10  1  0
 13 10  1  0
  1 14  1  6
  2 15  1  6
  3 16  1  0
  3 17  1  0
  4 18  1  0
  6 19  1  0
  8 20  1  0
M  ISO  7  14  13  15  13  16  13  17  13  18  14  19  14  20  14
M  END
>  <minimizedAffinity>  (1) 
-4.65284681

>  <minimizedRMSD>  (1) 
2.08659005

$$$$
