
     RDKit          3D

 46 51  0  0  1  0  0  0  0  0999 V2000
   46.7210   33.3750   43.1000 C   0  0  1  0  0  0  0  0  0  0  0  0
   46.9290   34.7510   42.6600 C   0  0  0  0  0  0  0  0  0  0  0  0
   48.0960   33.8380   42.6530 C   0  0  2  0  0  0  0  0  0  0  0  0
   48.5210   33.2960   41.3350 C   0  0  0  0  0  0  0  0  0  0  0  0
   49.3630   32.2150   41.1770 C   0  0  0  0  0  0  0  0  0  0  0  0
   49.7210   31.7670   39.9180 C   0  0  0  0  0  0  0  0  0  0  0  0
   49.2440   32.3940   38.7950 C   0  0  0  0  0  0  0  0  0  0  0  0
   49.5730   31.9800   37.5440 N   0  0  0  0  0  0  0  0  0  0  0  0
   49.0820   32.6180   36.4420 C   0  0  0  0  0  0  0  0  0  0  0  0
   48.2270   33.7180   36.5300 C   0  0  0  0  0  0  0  0  0  0  0  0
   47.8720   34.1670   37.7730 C   0  0  0  0  0  0  0  0  0  0  0  0
   48.3870   33.4980   38.8910 C   0  0  0  0  0  0  0  0  0  0  0  0
   48.0580   33.9060   40.1690 C   0  0  0  0  0  0  0  0  0  0  0  0
   45.5340   33.7260   45.2940 C   0  0  0  0  0  0  0  0  0  0  0  0
   46.5620   33.0590   44.5500 C   0  0  0  0  0  0  0  0  0  0  0  0
   47.3600   32.1620   45.2130 C   0  0  0  0  0  0  0  0  0  0  0  0
   47.1260   31.9610   46.5390 N   0  0  0  0  0  0  0  0  0  0  0  0
   46.1450   32.6030   47.2270 C   0  0  0  0  0  0  0  0  0  0  0  0
   45.3510   33.4850   46.6010 N   0  0  0  0  0  0  0  0  0  0  0  0
   45.9890   32.2850   48.6690 C   0  0  2  0  0  0  0  0  0  0  0  0
   46.7360   31.2220   49.3140 C   0  0  0  0  0  0  0  0  0  0  0  0
   45.3080   30.9080   48.9370 C   0  0  2  0  0  0  0  0  0  0  0  0
   45.1620   29.9890   47.7790 C   0  0  0  0  0  0  0  0  0  0  0  0
   46.0690   28.9340   47.6280 C   0  0  0  0  0  0  0  0  0  0  0  0
   45.7540   28.2340   46.5230 N   0  0  0  0  0  0  0  0  0  0  0  0
   44.6830   28.8110   45.9760 C   0  0  0  0  0  0  0  0  0  0  0  0
   44.3460   29.8540   46.7410 N   0  0  0  0  0  0  0  0  0  0  0  0
   46.0064   32.5888   42.8150 H   0  0  0  0  0  0  0  0  0  0  0  0
   46.4966   35.0884   41.7065 H   0  0  0  0  0  0  0  0  0  0  0  0
   46.7308   35.7357   43.1083 H   0  0  0  0  0  0  0  0  0  0  0  0
   49.1106   33.8764   43.0762 H   0  0  0  0  0  0  0  0  0  0  0  0
   49.7562   31.7008   42.0664 H   0  0  0  0  0  0  0  0  0  0  0  0
   50.3929   30.9019   39.8168 H   0  0  0  0  0  0  0  0  0  0  0  0
   49.3711   32.2513   35.4460 H   0  0  0  0  0  0  0  0  0  0  0  0
   47.8481   34.2115   35.6229 H   0  0  0  0  0  0  0  0  0  0  0  0
   47.2003   35.0300   37.8912 H   0  0  0  0  0  0  0  0  0  0  0  0
   47.3856   34.7702   40.2744 H   0  0  0  0  0  0  0  0  0  0  0  0
   44.8822   34.4499   44.7830 H   0  0  0  0  0  0  0  0  0  0  0  0
   48.1633   31.6223   44.6901 H   0  0  0  0  0  0  0  0  0  0  0  0
   45.8506   33.3429   48.9366 H   0  0  0  0  0  0  0  0  0  0  0  0
   47.5579   30.7330   48.7705 H   0  0  0  0  0  0  0  0  0  0  0  0
   47.3013   31.1583   50.2555 H   0  0  0  0  0  0  0  0  0  0  0  0
   44.3894   30.5701   49.4390 H   0  0  0  0  0  0  0  0  0  0  0  0
   46.9068   28.7122   48.3054 H   0  0  0  0  0  0  0  0  0  0  0  0
   46.2491   27.4047   46.1651 H   0  0  0  0  0  0  0  0  0  0  0  0
   44.1690   28.4865   45.0592 H   0  0  0  0  0  0  0  0  0  0  0  0
  1 15  1  0
  2  1  1  0
  3  2  1  0
  3  1  1  0
  4  3  1  0
  5  4  2  0
  6  5  1  0
  7 12  1  0
  7  6  2  0
  8  7  1  0
  9 10  1  0
  9  8  2  0
 10 11  2  0
 11 12  1  0
 12 13  2  0
 13  4  1  0
 14 19  2  0
 15 16  2  0
 15 14  1  0
 16 17  1  0
 17 18  2  0
 18 20  1  0
 19 18  1  0
 20 22  1  0
 20 21  1  0
 22 21  1  0
 23 22  1  0
 24 23  2  0
 25 24  1  0
 26 25  1  0
 26 27  2  0
 27 23  1  0
  1 28  1  6
  2 29  1  0
  2 30  1  0
  3 31  1  1
  5 32  1  0
  6 33  1  0
  9 34  1  0
 10 35  1  0
 11 36  1  0
 13 37  1  0
 14 38  1  0
 16 39  1  0
 20 40  1  1
 21 41  1  0
 21 42  1  0
 22 43  1  1
 24 44  1  0
 25 45  1  0
 26 46  1  0
M  ISO  8  28  13  29  13  30  13  31  13  32  14  33  14  34  14  35  14
M  ISO  8  36  14  37  14  38  14  39  14  40  13  41  13  42  13  43  13
M  ISO  3  44  14  45   9  46  14
M  END
>  <minimizedAffinity>  (1) 
-5.79704905

>  <minimizedRMSD>  (1) 
0.49692601

$$$$
