
     RDKit          3D

 45 49  0  0  1  0  0  0  0  0999 V2000
   46.8750   33.7020   42.5760 C   0  0  1  0  0  0  0  0  0  0  0  0
   47.3670   35.0230   42.1990 C   0  0  0  0  0  0  0  0  0  0  0  0
   48.3370   33.9020   42.2020 C   0  0  2  0  0  0  0  0  0  0  0  0
   48.7120   33.3270   40.8850 C   0  0  0  0  0  0  0  0  0  0  0  0
   49.6090   32.2950   40.7090 C   0  0  0  0  0  0  0  0  0  0  0  0
   49.9090   31.8110   39.4420 C   0  0  0  0  0  0  0  0  0  0  0  0
   49.3110   32.3600   38.3380 C   0  0  0  0  0  0  0  0  0  0  0  0
   49.5820   31.9050   37.0890 N   0  0  0  0  0  0  0  0  0  0  0  0
   48.9730   32.4660   36.0100 C   0  0  0  0  0  0  0  0  0  0  0  0
   48.0470   33.5200   36.0860 C   0  0  0  0  0  0  0  0  0  0  0  0
   47.7640   33.9900   37.3500 C   0  0  0  0  0  0  0  0  0  0  0  0
   48.3940   33.4090   38.4540 C   0  0  0  0  0  0  0  0  0  0  0  0
   48.1260   33.8570   39.7350 C   0  0  0  0  0  0  0  0  0  0  0  0
   45.5740   34.1230   44.6970 C   0  0  0  0  0  0  0  0  0  0  0  0
   46.5950   33.3820   44.0080 C   0  0  0  0  0  0  0  0  0  0  0  0
   47.2730   32.4170   44.7060 C   0  0  0  0  0  0  0  0  0  0  0  0
   46.9370   32.2190   46.0100 N   0  0  0  0  0  0  0  0  0  0  0  0
   45.9690   32.9280   46.6470 C   0  0  0  0  0  0  0  0  0  0  0  0
   45.2890   33.8790   45.9870 N   0  0  0  0  0  0  0  0  0  0  0  0
   45.6900   32.6090   48.0730 C   0  0  2  0  0  0  0  0  0  0  0  0
   46.3580   31.5150   48.7550 C   0  0  0  0  0  0  0  0  0  0  0  0
   44.9510   31.2490   48.2740 C   0  0  2  0  0  0  0  0  0  0  0  0
   44.9200   30.3810   47.1830 O   0  0  0  0  0  0  0  0  0  0  0  0
   46.5960   28.4020   47.5990 O   0  0  0  0  0  0  0  0  0  0  0  0
   45.1380   28.8120   47.7320 P   0  0  0  0  0  0  0  0  0  0  0  0
   44.1940   27.7080   46.8570 O   0  0  0  0  0  0  0  0  0  0  0  0
   44.7290   28.6280   49.3710 O   0  0  0  0  0  0  0  0  0  0  0  0
   46.0354   33.0800   42.2322 H   0  0  0  0  0  0  0  0  0  0  0  0
   47.4456   35.8117   42.9617 H   0  0  0  0  0  0  0  0  0  0  0  0
   47.0611   35.7665   41.4482 H   0  0  0  0  0  0  0  0  0  0  0  0
   49.3196   33.7306   42.6659 H   0  0  0  0  0  0  0  0  0  0  0  0
   50.0959   31.8468   41.5877 H   0  0  0  0  0  0  0  0  0  0  0  0
   50.6273   30.9862   39.3248 H   0  0  0  0  0  0  0  0  0  0  0  0
   49.2212   32.0693   35.0145 H   0  0  0  0  0  0  0  0  0  0  0  0
   47.5751   33.9455   35.1881 H   0  0  0  0  0  0  0  0  0  0  0  0
   47.0492   34.8145   37.4888 H   0  0  0  0  0  0  0  0  0  0  0  0
   47.4073   34.6811   39.8543 H   0  0  0  0  0  0  0  0  0  0  0  0
   45.0163   34.9035   44.1586 H   0  0  0  0  0  0  0  0  0  0  0  0
   48.0640   31.8211   44.2273 H   0  0  0  0  0  0  0  0  0  0  0  0
   45.5593   33.6673   48.3432 H   0  0  0  0  0  0  0  0  0  0  0  0
   47.2014   31.0074   48.2641 H   0  0  0  0  0  0  0  0  0  0  0  0
   46.8530   31.4232   49.7330 H   0  0  0  0  0  0  0  0  0  0  0  0
   43.9781   30.9499   48.6911 H   0  0  0  0  0  0  0  0  0  0  0  0
   43.6973   27.1271   47.4863 H   0  0  0  0  0  0  0  0  0  0  0  0
   45.4706   28.9616   49.9356 H   0  0  0  0  0  0  0  0  0  0  0  0
  1 15  1  0
  2  3  1  0
  2  1  1  0
  3  1  1  0
  4  3  1  0
  5  4  2  0
  6  5  1  0
  7 12  1  0
  7  6  2  0
  8  7  1  0
  9 10  1  0
  9  8  2  0
 10 11  2  0
 11 12  1  0
 12 13  2  0
 13  4  1  0
 14 19  2  0
 15 14  1  0
 15 16  2  0
 16 17  1  0
 17 18  2  0
 18 20  1  0
 19 18  1  0
 20 22  1  0
 20 21  1  0
 22 21  1  0
 23 25  1  0
 23 22  1  0
 24 25  2  0
 25 27  1  0
 26 25  1  0
  1 28  1  6
  2 29  1  0
  2 30  1  0
  3 31  1  1
  5 32  1  0
  6 33  1  0
  9 34  1  0
 10 35  1  0
 11 36  1  0
 13 37  1  0
 14 38  1  0
 16 39  1  0
 20 40  1  1
 21 41  1  0
 21 42  1  0
 22 43  1  1
 26 44  1  0
 27 45  1  0
M  ISO  8  28  13  29  13  30  13  31  13  32  14  33  14  34  14  35  14
M  ISO  8  36  14  37  14  38  14  39  14  40  13  41  13  42  13  43  13
M  ISO  2  44   3  45   3
M  END
>  <minimizedAffinity>  (1) 
-5.76111221

>  <minimizedRMSD>  (1) 
0.885667086

$$$$
