
     RDKit          3D

 31 33  0  0  1  0  0  0  0  0999 V2000
   47.1340   34.0540   42.3110 C   0  0  1  0  0  0  0  0  0  0  0  0
   46.9410   34.5780   40.9610 C   0  0  1  0  0  0  0  0  0  0  0  0
   48.1180   35.0550   41.7400 C   0  0  0  0  0  0  0  0  0  0  0  0
   47.1570   33.7690   39.7210 C   0  0  0  0  0  0  0  0  0  0  0  0
   48.2030   34.2960   38.8130 C   0  0  0  0  0  0  0  0  0  0  0  0
   48.4800   33.2580   37.7470 C   0  0  0  0  0  0  0  0  0  0  0  0
   47.3840   32.4390   37.6370 O   0  0  0  0  0  0  0  0  0  0  0  0
   47.2230   31.5840   38.7260 C   0  0  0  0  0  0  0  0  0  0  0  0
   47.5280   32.3240   40.0370 C   0  0  0  0  0  0  0  0  0  0  0  0
   45.4110   35.6870   43.2710 C   0  0  0  0  0  0  0  0  0  0  0  0
   46.2190   34.5240   43.4060 C   0  0  0  0  0  0  0  0  0  0  0  0
   46.1780   33.7950   44.6020 C   0  0  0  0  0  0  0  0  0  0  0  0
   45.3420   34.2520   45.6000 N   0  0  0  0  0  0  0  0  0  0  0  0
   44.5890   35.3680   45.4270 C   0  0  0  0  0  0  0  0  0  0  0  0
   44.6260   36.0680   44.2830 N   0  0  0  0  0  0  0  0  0  0  0  0
   47.2035   33.0453   42.7442 H   0  0  0  0  0  0  0  0  0  0  0  0
   46.0797   35.0458   40.4617 H   0  0  0  0  0  0  0  0  0  0  0  0
   49.1337   34.7377   41.4612 H   0  0  0  0  0  0  0  0  0  0  0  0
   48.5157   36.0332   42.0480 H   0  0  0  0  0  0  0  0  0  0  0  0
   46.1850   33.8309   39.2097 H   0  0  0  0  0  0  0  0  0  0  0  0
   47.8519   35.2264   38.3428 H   0  0  0  0  0  0  0  0  0  0  0  0
   49.1215   34.5094   39.3794 H   0  0  0  0  0  0  0  0  0  0  0  0
   48.6681   33.7564   36.7846 H   0  0  0  0  0  0  0  0  0  0  0  0
   49.3655   32.6656   38.0209 H   0  0  0  0  0  0  0  0  0  0  0  0
   46.1860   31.2179   38.7492 H   0  0  0  0  0  0  0  0  0  0  0  0
   47.9198   30.7391   38.6226 H   0  0  0  0  0  0  0  0  0  0  0  0
   48.5931   32.2391   40.2984 H   0  0  0  0  0  0  0  0  0  0  0  0
   46.9773   31.9174   40.8981 H   0  0  0  0  0  0  0  0  0  0  0  0
   45.4323   36.2697   42.3383 H   0  0  0  0  0  0  0  0  0  0  0  0
   46.7899   32.8914   44.7402 H   0  0  0  0  0  0  0  0  0  0  0  0
   43.9336   35.7061   46.2432 H   0  0  0  0  0  0  0  0  0  0  0  0
  1 11  1  0
  2  3  1  0
  2  1  1  0
  3  1  1  0
  4  9  1  0
  4  2  1  0
  5  4  1  0
  6  5  1  0
  7  6  1  0
  7  8  1  0
  8  9  1  0
 10 11  2  0
 10 15  1  0
 11 12  1  0
 12 13  2  0
 14 13  1  0
 15 14  2  0
  1 16  1  6
  2 17  1  1
  3 18  1  0
  3 19  1  0
  4 20  1  0
  5 21  1  0
  5 22  1  0
  6 23  1  0
  6 24  1  0
  8 25  1  0
  8 26  1  0
  9 27  1  0
  9 28  1  0
 10 29  1  0
 12 30  1  0
 14 31  1  0
M  ISO  8  16  13  17  13  18  13  19  13  20  13  21  13  22  13  23  13
M  ISO  8  24  13  25  13  26  13  27  13  28  13  29  14  30  14  31  14
M  END
>  <minimizedAffinity>  (1) 
-4.49376488

>  <minimizedRMSD>  (1) 
2.67214513

$$$$
