
     RDKit          3D

 16 16  0  0  0  0  0  0  0  0999 V2000
   45.8820   35.1180   43.3110 C   0  0  0  0  0  0  0  0  0  0  0  0
   46.9820   35.3370   42.4410 C   0  0  0  0  0  0  0  0  0  0  0  0
   48.0580   34.4470   42.5870 C   0  0  0  0  0  0  0  0  0  0  0  0
   47.9930   33.4550   43.5240 N   0  0  0  0  0  0  0  0  0  0  0  0
   46.9020   33.3100   44.3230 C   0  0  0  0  0  0  0  0  0  0  0  0
   45.8590   34.1330   44.2170 N   0  0  0  0  0  0  0  0  0  0  0  0
   49.1800   34.6870   41.6840 C   0  0  0  0  0  0  0  0  0  0  0  0
   49.4380   33.5310   40.9480 F   0  0  0  0  0  0  0  0  0  0  0  0
   50.3080   34.8550   42.4870 F   0  0  0  0  0  0  0  0  0  0  0  0
   48.9890   35.7070   40.8110 F   0  0  0  0  0  0  0  0  0  0  0  0
   44.7220   36.0600   43.1690 C   0  0  0  0  0  0  0  0  0  0  0  0
   44.0930   35.8870   41.9560 F   0  0  0  0  0  0  0  0  0  0  0  0
   45.1880   37.3740   43.3150 F   0  0  0  0  0  0  0  0  0  0  0  0
   43.8890   35.8540   44.2480 F   0  0  0  0  0  0  0  0  0  0  0  0
   46.9908   36.1507   41.7009 H   0  0  0  0  0  0  0  0  0  0  0  0
   46.8801   32.5011   45.0681 H   0  0  0  0  0  0  0  0  0  0  0  0
  1  6  2  0
  2  3  2  0
  2  1  1  0
  3  4  1  0
  4  5  2  0
  6  5  1  0
  7  9  1  0
  7  3  1  0
  8  7  1  0
 10  7  1  0
 11  1  1  0
 11 13  1  0
 11 14  1  0
 12 11  1  0
  2 15  1  0
  5 16  1  0
M  ISO  2  15  14  16  14
M  END
>  <minimizedAffinity>  (1) 
-4.80937004

>  <minimizedRMSD>  (1) 
2.0971818

$$$$
