
     RDKit          3D

 19 19  0  0  0  0  0  0  0  0999 V2000
   47.7780   33.7680   43.2320 C   0  0  0  0  0  0  0  0  0  0  0  0
   46.8660   34.8110   42.9220 C   0  0  0  0  0  0  0  0  0  0  0  0
   45.6690   34.8330   43.6410 C   0  0  0  0  0  0  0  0  0  0  0  0
   45.4360   33.8790   44.5820 N   0  0  0  0  0  0  0  0  0  0  0  0
   46.3320   32.9050   44.8450 C   0  0  0  0  0  0  0  0  0  0  0  0
   47.4950   32.8480   44.1760 N   0  0  0  0  0  0  0  0  0  0  0  0
   44.7560   35.9200   43.2900 C   0  0  0  0  0  0  0  0  0  0  0  0
   43.6900   35.9390   44.1780 F   0  0  0  0  0  0  0  0  0  0  0  0
   44.1900   35.5820   42.0600 F   0  0  0  0  0  0  0  0  0  0  0  0
   45.3200   37.1480   43.2780 F   0  0  0  0  0  0  0  0  0  0  0  0
   49.0800   33.6590   42.5230 C   0  0  0  0  0  0  0  0  0  0  0  0
   49.8400   34.9490   42.4610 C   0  0  0  0  0  0  0  0  0  0  0  0
   47.0912   35.5648   42.1532 H   0  0  0  0  0  0  0  0  0  0  0  0
   46.1079   32.1511   45.6141 H   0  0  0  0  0  0  0  0  0  0  0  0
   49.6994   32.9154   43.0459 H   0  0  0  0  0  0  0  0  0  0  0  0
   48.8588   33.3652   41.4863 H   0  0  0  0  0  0  0  0  0  0  0  0
   50.0477   35.3016   43.4820 H   0  0  0  0  0  0  0  0  0  0  0  0
   50.7889   34.7903   41.9277 H   0  0  0  0  0  0  0  0  0  0  0  0
   49.2412   35.7021   41.9277 H   0  0  0  0  0  0  0  0  0  0  0  0
  1  6  2  0
  2  1  1  0
  2  3  2  0
  3  4  1  0
  4  5  2  0
  6  5  1  0
  7  3  1  0
  7  8  1  0
  9  7  1  0
 10  7  1  0
 11  1  1  0
 12 11  1  0
  2 13  1  0
  5 14  1  0
 11 15  1  0
 11 16  1  0
 12 17  1  0
 12 18  1  0
 12 19  1  0
M  ISO  7  13  14  14  14  15   8  16   8  17   8  18   8  19   8
M  END
>  <minimizedAffinity>  (1) 
-4.07213736

>  <minimizedRMSD>  (1) 
4.21915293

$$$$
