
     RDKit          3D

 14 14  0  0  0  0  0  0  0  0999 V2000
   44.8820   35.1560   44.1120 C   0  0  0  0  0  0  0  0  0  0  0  0
   45.6970   35.3440   42.9630 C   0  0  0  0  0  0  0  0  0  0  0  0
   46.8710   34.5930   42.9000 C   0  0  0  0  0  0  0  0  0  0  0  0
   47.1610   33.7450   43.9210 N   0  0  0  0  0  0  0  0  0  0  0  0
   46.3540   33.6030   44.9930 C   0  0  0  0  0  0  0  0  0  0  0  0
   45.2230   34.3050   45.0850 N   0  0  0  0  0  0  0  0  0  0  0  0
   47.6870   34.8100   41.7040 C   0  0  0  0  0  0  0  0  0  0  0  0
   48.7150   33.8880   41.6740 F   0  0  0  0  0  0  0  0  0  0  0  0
   48.3080   36.0370   41.8650 F   0  0  0  0  0  0  0  0  0  0  0  0
   46.9990   34.7220   40.5360 F   0  0  0  0  0  0  0  0  0  0  0  0
   43.6900   35.8730   44.2440 O   0  0  0  0  0  0  0  0  0  0  0  0
   45.4164   36.0460   42.1640 H   0  0  0  0  0  0  0  0  0  0  0  0
   46.6302   32.9041   45.7962 H   0  0  0  0  0  0  0  0  0  0  0  0
   43.4145   36.5096   43.5377 H   0  0  0  0  0  0  0  0  0  0  0  0
  1 11  1  0
  1  6  2  0
  2  1  1  0
  3  2  2  0
  3  4  1  0
  4  5  2  0
  5  6  1  0
  7  9  1  0
  7  3  1  0
  8  7  1  0
 10  7  1  0
  2 12  1  0
  5 13  1  0
 11 14  1  0
M  ISO  3  12  14  13  14  14   3
M  END
>  <minimizedAffinity>  (1) 
-4.38820553

>  <minimizedRMSD>  (1) 
0.85562706

$$$$
