
     RDKit          3D

 23 24  0  0  1  0  0  0  0  0999 V2000
   47.7500   35.0720   41.5430 C   0  0  1  0  0  0  0  0  0  0  0  0
   48.6970   34.0810   41.0440 C   0  0  2  0  0  0  0  0  0  0  0  0
   47.4480   34.3310   40.2600 C   0  0  0  0  0  0  0  0  0  0  0  0
   47.3120   33.8350   43.7170 C   0  0  0  0  0  0  0  0  0  0  0  0
   46.9160   34.7800   42.7360 C   0  0  0  0  0  0  0  0  0  0  0  0
   45.6980   35.4280   42.9210 C   0  0  0  0  0  0  0  0  0  0  0  0
   44.9510   35.1210   44.0300 N   0  0  0  0  0  0  0  0  0  0  0  0
   45.3660   34.2110   44.9460 C   0  0  0  0  0  0  0  0  0  0  0  0
   46.5570   33.5660   44.7820 N   0  0  0  0  0  0  0  0  0  0  0  0
   48.8220   32.8100   41.5330 O   0  0  0  0  0  0  0  0  0  0  0  0
   51.0550   31.9020   40.5880 O   0  0  0  0  0  0  0  0  0  0  0  0
   50.4200   32.3800   41.8710 P   0  0  0  0  0  0  0  0  0  0  0  0
   51.2850   33.5830   42.6470 O   0  0  0  0  0  0  0  0  0  0  0  0
   50.3270   31.0100   42.8920 O   0  0  0  0  0  0  0  0  0  0  0  0
   47.8367   36.1271   41.8419 H   0  0  0  0  0  0  0  0  0  0  0  0
   49.7865   34.1458   40.9067 H   0  0  0  0  0  0  0  0  0  0  0  0
   47.4944   34.8531   39.2929 H   0  0  0  0  0  0  0  0  0  0  0  0
   46.6185   33.7167   39.8799 H   0  0  0  0  0  0  0  0  0  0  0  0
   48.2703   33.3088   43.5952 H   0  0  0  0  0  0  0  0  0  0  0  0
   45.3416   36.1713   42.1926 H   0  0  0  0  0  0  0  0  0  0  0  0
   44.7404   33.9923   45.8239 H   0  0  0  0  0  0  0  0  0  0  0  0
   51.2029   33.4688   43.6269 H   0  0  0  0  0  0  0  0  0  0  0  0
   50.3468   31.3014   43.8379 H   0  0  0  0  0  0  0  0  0  0  0  0
  1  5  1  0
  2 10  1  0
  2  1  1  0
  3  2  1  0
  3  1  1  0
  4  9  2  0
  5  6  2  0
  5  4  1  0
  6  7  1  0
  7  8  2  0
  9  8  1  0
 10 12  1  0
 11 12  2  0
 12 13  1  0
 12 14  1  0
  1 15  1  6
  2 16  1  6
  3 17  1  0
  3 18  1  0
  4 19  1  0
  6 20  1  0
  8 21  1  0
 13 22  1  0
 14 23  1  0
M  ISO  8  15  13  16  13  17  13  18  13  19  14  20  14  21  14  22   3
M  ISO  1  23   3
M  END
>  <minimizedAffinity>  (1) 
-4.32499075

>  <minimizedRMSD>  (1) 
3.9569025

$$$$
