
     RDKit          3D

 24 26  0  0  1  0  0  0  0  0999 V2000
   47.4940   34.0900   42.4320 C   0  0  1  0  0  0  0  0  0  0  0  0
   48.0770   35.0830   41.5280 C   0  0  1  0  0  0  0  0  0  0  0  0
   48.9130   34.5530   42.6270 C   0  0  0  0  0  0  0  0  0  0  0  0
   45.6530   35.6720   43.1640 C   0  0  0  0  0  0  0  0  0  0  0  0
   46.4570   34.5300   43.4230 C   0  0  0  0  0  0  0  0  0  0  0  0
   46.2700   33.8350   44.6180 C   0  0  0  0  0  0  0  0  0  0  0  0
   45.3170   34.3030   45.4700 N   0  0  0  0  0  0  0  0  0  0  0  0
   44.5720   35.3800   45.2060 C   0  0  0  0  0  0  0  0  0  0  0  0
   44.7320   36.0790   44.0470 N   0  0  0  0  0  0  0  0  0  0  0  0
   48.2360   34.6770   40.1100 C   0  0  0  0  0  0  0  0  0  0  0  0
   48.4860   33.1490   39.9220 C   0  0  0  0  0  0  0  0  0  0  0  0
   47.1770   33.7210   39.5900 C   0  0  0  0  0  0  0  0  0  0  0  0
   46.9994   33.1163   42.3007 H   0  0  0  0  0  0  0  0  0  0  0  0
   47.8614   36.1136   41.2097 H   0  0  0  0  0  0  0  0  0  0  0  0
   49.1736   35.1935   43.4825 H   0  0  0  0  0  0  0  0  0  0  0  0
   49.8955   34.0637   42.7003 H   0  0  0  0  0  0  0  0  0  0  0  0
   45.7887   36.2296   42.2255 H   0  0  0  0  0  0  0  0  0  0  0  0
   46.8684   32.9448   44.8620 H   0  0  0  0  0  0  0  0  0  0  0  0
   43.8172   35.7080   45.9359 H   0  0  0  0  0  0  0  0  0  0  0  0
   48.6895   35.6172   39.7631 H   0  0  0  0  0  0  0  0  0  0  0  0
   49.1507   32.7954   39.1200 H   0  0  0  0  0  0  0  0  0  0  0  0
   48.8352   32.3331   40.5719 H   0  0  0  0  0  0  0  0  0  0  0  0
   46.8633   33.7808   38.5374 H   0  0  0  0  0  0  0  0  0  0  0  0
   46.1464   33.4889   39.8966 H   0  0  0  0  0  0  0  0  0  0  0  0
  1  3  1  0
  1  5  1  0
  2  1  1  0
  2  3  1  0
  4  5  2  0
  4  9  1  0
  5  6  1  0
  6  7  2  0
  8  7  1  0
  9  8  2  0
 10  2  1  0
 11 10  1  0
 12 11  1  0
 12 10  1  0
  1 13  1  6
  2 14  1  6
  3 15  1  0
  3 16  1  0
  4 17  1  0
  6 18  1  0
  8 19  1  0
 10 20  1  0
 11 21  1  0
 11 22  1  0
 12 23  1  0
 12 24  1  0
M  ISO  8  13  13  14  13  15  13  16  13  17  14  18  14  19  14  20  13
M  ISO  4  21  13  22  13  23  13  24  13
M  END
>  <minimizedAffinity>  (1) 
-4.29462814

>  <minimizedRMSD>  (1) 
1.21058047

$$$$
