
     RDKit          3D

 25 24  0  0  0  0  0  0  0  0999 V2000
   45.1860   35.0190   43.3520 C   0  0  0  0  0  0  0  0  0  0  0  0
   46.1280   35.3680   42.3840 C   0  0  0  0  0  0  0  0  0  0  0  0
   47.3870   34.7630   42.5110 C   0  0  0  0  0  0  0  0  0  0  0  0
   47.5770   33.9150   43.5340 N   0  0  0  0  0  0  0  0  0  0  0  0
   46.6330   33.6090   44.4470 C   0  0  0  0  0  0  0  0  0  0  0  0
   45.4160   34.1810   44.3430 N   0  0  0  0  0  0  0  0  0  0  0  0
   43.0850   34.9450   42.2510 C   0  0  0  0  0  0  0  0  0  0  0  0
   43.6140   34.0560   41.5540 O   0  0  0  0  0  0  0  0  0  0  0  0
   43.8610   35.5890   43.3060 N   0  0  0  0  0  0  0  0  0  0  0  0
   41.2120   35.8210   41.1790 C   0  0  0  0  0  0  0  0  0  0  0  0
   41.6670   35.2900   40.1010 O   0  0  0  0  0  0  0  0  0  0  0  0
   41.9200   35.6830   42.4880 N   0  0  0  0  0  0  0  0  0  0  0  0
   48.3770   35.1310   41.4990 C   0  0  0  0  0  0  0  0  0  0  0  0
   49.4940   34.3180   41.6110 F   0  0  0  0  0  0  0  0  0  0  0  0
   48.8100   36.4240   41.8030 F   0  0  0  0  0  0  0  0  0  0  0  0
   47.9080   35.0120   40.2170 F   0  0  0  0  0  0  0  0  0  0  0  0
   45.8978   36.0735   41.5720 H   0  0  0  0  0  0  0  0  0  0  0  0
   46.8519   32.9046   45.2630 H   0  0  0  0  0  0  0  0  0  0  0  0
   43.5154   36.3370   43.9241 H   0  0  0  0  0  0  0  0  0  0  0  0
   41.6483   35.3118   42.0510 H   0  0  0  0  0  0  0  0  0  0  0  0
   41.4811   36.8873   41.2044 H   0  0  0  0  0  0  0  0  0  0  0  0
   40.1171   35.7185   41.2044 H   0  0  0  0  0  0  0  0  0  0  0  0
   42.2934   34.5590   40.3321 H   0  0  0  0  0  0  0  0  0  0  0  0
   41.0804   35.5182   41.9147 H   0  0  0  0  0  0  0  0  0  0  0  0
   41.9021   36.3911   43.2358 H   0  0  0  0  0  0  0  0  0  0  0  0
  1  6  2  0
  2  3  2  0
  2  1  1  0
  3  4  1  0
  4  5  2  0
  6  5  1  0
  7 12  1  0
  7  9  1  0
  8  7  2  0
  9  1  1  0
 11 10  1  0
 13 14  1  0
 13 15  1  0
 13  3  1  0
 16 13  1  0
  2 17  1  0
  5 18  1  0
  9 19  1  0
 10 20  1  0
 10 21  1  0
 10 22  1  0
 11 23  1  0
 12 24  1  0
 12 25  1  0
M  ISO  6  17  14  18  14  20   8  21   8  22   8  23   3
M  END
>  <minimizedAffinity>  (1) 
-5.92330742

>  <minimizedRMSD>  (1) 
0.524691582

$$$$
