
     RDKit          3D

 23 24  0  0  0  0  0  0  0  0999 V2000
   45.2450   34.7770   42.9590 C   0  0  0  0  0  0  0  0  0  0  0  0
   46.2660   35.2190   42.0870 C   0  0  0  0  0  0  0  0  0  0  0  0
   47.5630   34.7760   42.4050 C   0  0  0  0  0  0  0  0  0  0  0  0
   47.7350   33.9900   43.4820 N   0  0  0  0  0  0  0  0  0  0  0  0
   46.7150   33.5980   44.2810 C   0  0  0  0  0  0  0  0  0  0  0  0
   45.4640   33.9980   44.0130 N   0  0  0  0  0  0  0  0  0  0  0  0
   43.3210   34.4870   41.6270 C   0  0  0  0  0  0  0  0  0  0  0  0
   44.0350   33.6290   41.0370 O   0  0  0  0  0  0  0  0  0  0  0  0
   43.8850   35.1680   42.7280 N   0  0  0  0  0  0  0  0  0  0  0  0
   41.9610   34.7510   41.1690 C   0  0  0  0  0  0  0  0  0  0  0  0
   41.1790   33.6470   40.7930 C   0  0  0  0  0  0  0  0  0  0  0  0
   39.5890   34.4010   40.2980 S   0  0  0  0  0  0  0  0  0  0  0  0
   40.2680   36.1310   40.6940 C   0  0  0  0  0  0  0  0  0  0  0  0
   41.3070   35.8850   41.0400 N   0  0  0  0  0  0  0  0  0  0  0  0
   48.6080   35.2470   41.4880 C   0  0  0  0  0  0  0  0  0  0  0  0
   49.7490   34.4690   41.6870 F   0  0  0  0  0  0  0  0  0  0  0  0
   48.9710   36.5190   41.8890 F   0  0  0  0  0  0  0  0  0  0  0  0
   48.2640   35.1600   40.1720 F   0  0  0  0  0  0  0  0  0  0  0  0
   46.0608   35.8644   41.2202 H   0  0  0  0  0  0  0  0  0  0  0  0
   46.9125   32.9520   45.1491 H   0  0  0  0  0  0  0  0  0  0  0  0
   43.3800   35.8624   43.2969 H   0  0  0  0  0  0  0  0  0  0  0  0
   41.4568   32.5827   40.7957 H   0  0  0  0  0  0  0  0  0  0  0  0
   39.7751   37.1106   40.6074 H   0  0  0  0  0  0  0  0  0  0  0  0
  1  6  2  0
  2  3  2  0
  2  1  1  0
  3  4  1  0
  4  5  2  0
  6  5  1  0
  7  9  1  0
  8  7  2  0
  9  1  1  0
 10  7  1  0
 11 10  2  0
 12 13  1  0
 12 11  1  0
 13 14  2  0
 14 10  1  0
 15 16  1  0
 15 17  1  0
 15  3  1  0
 18 15  1  0
  2 19  1  0
  5 20  1  0
  9 21  1  0
 11 22  1  0
 13 23  1  0
M  ISO  4  19  14  20  14  22  14  23  14
M  END
>  <minimizedAffinity>  (1) 
-5.78117085

>  <minimizedRMSD>  (1) 
0.947003722

$$$$
