
     RDKit          3D

 26 27  0  0  0  0  0  0  0  0999 V2000
   45.1830   34.7520   42.8790 C   0  0  0  0  0  0  0  0  0  0  0  0
   46.2200   35.1640   42.0180 C   0  0  0  0  0  0  0  0  0  0  0  0
   47.5190   34.7700   42.3800 C   0  0  0  0  0  0  0  0  0  0  0  0
   47.6820   34.0390   43.5040 N   0  0  0  0  0  0  0  0  0  0  0  0
   46.6530   33.6730   44.2900 C   0  0  0  0  0  0  0  0  0  0  0  0
   45.3930   34.0300   43.9810 N   0  0  0  0  0  0  0  0  0  0  0  0
   43.2960   34.3180   41.5380 C   0  0  0  0  0  0  0  0  0  0  0  0
   44.0570   33.4380   41.0060 O   0  0  0  0  0  0  0  0  0  0  0  0
   43.8270   35.1020   42.5990 N   0  0  0  0  0  0  0  0  0  0  0  0
   41.9150   34.5220   41.0720 C   0  0  0  0  0  0  0  0  0  0  0  0
   41.4410   35.8180   41.0210 C   0  0  0  0  0  0  0  0  0  0  0  0
   40.1350   35.8950   40.5710 C   0  0  0  0  0  0  0  0  0  0  0  0
   39.3400   34.8300   40.2000 C   0  0  0  0  0  0  0  0  0  0  0  0
   39.9020   33.5600   40.2860 C   0  0  0  0  0  0  0  0  0  0  0  0
   41.1820   33.4650   40.7240 N   0  0  0  0  0  0  0  0  0  0  0  0
   48.5720   35.2120   41.4650 C   0  0  0  0  0  0  0  0  0  0  0  0
   49.6920   34.3980   41.6570 F   0  0  0  0  0  0  0  0  0  0  0  0
   48.9660   36.4770   41.8700 F   0  0  0  0  0  0  0  0  0  0  0  0
   48.2200   35.1400   40.1530 F   0  0  0  0  0  0  0  0  0  0  0  0
   46.0235   35.7598   41.1145 H   0  0  0  0  0  0  0  0  0  0  0  0
   46.8437   33.0761   45.1940 H   0  0  0  0  0  0  0  0  0  0  0  0
   43.3002   35.8303   43.1020 H   0  0  0  0  0  0  0  0  0  0  0  0
   42.0384   36.6960   41.3077 H   0  0  0  0  0  0  0  0  0  0  0  0
   39.6891   36.8982   40.5026 H   0  0  0  0  0  0  0  0  0  0  0  0
   38.3073   34.9784   39.8515 H   0  0  0  0  0  0  0  0  0  0  0  0
   39.3278   32.6638   40.0083 H   0  0  0  0  0  0  0  0  0  0  0  0
  1  6  2  0
  2  3  2  0
  2  1  1  0
  3  4  1  0
  4  5  2  0
  6  5  1  0
  7  9  1  0
  8  7  2  0
  9  1  1  0
 10  7  1  0
 11 10  2  0
 12 11  1  0
 13 14  1  0
 13 12  2  0
 14 15  2  0
 15 10  1  0
 16 17  1  0
 16 18  1  0
 16  3  1  0
 19 16  1  0
  2 20  1  0
  5 21  1  0
  9 22  1  0
 11 23  1  0
 12 24  1  0
 13 25  1  0
 14 26  1  0
M  ISO  6  20  14  21  14  23  14  24  14  25  14  26  14
M  END
>  <minimizedAffinity>  (1) 
-6.28287888

>  <minimizedRMSD>  (1) 
1.1374532

$$$$
