
     RDKit          3D

 44 46  0  0  1  0  0  0  0  0999 V2000
   45.2630   34.8460   42.3930 C   0  0  0  0  0  0  0  0  0  0  0  0
   46.4100   35.3090   41.6820 C   0  0  0  0  0  0  0  0  0  0  0  0
   47.6460   34.9290   42.2100 C   0  0  0  0  0  0  0  0  0  0  0  0
   47.6640   34.1710   43.3260 N   0  0  0  0  0  0  0  0  0  0  0  0
   46.5490   33.7570   43.9650 C   0  0  0  0  0  0  0  0  0  0  0  0
   45.3410   34.1000   43.4900 N   0  0  0  0  0  0  0  0  0  0  0  0
   43.5930   34.4190   40.7950 C   0  0  0  0  0  0  0  0  0  0  0  0
   44.4170   33.5990   40.3420 O   0  0  0  0  0  0  0  0  0  0  0  0
   43.9460   35.1750   41.9430 N   0  0  0  0  0  0  0  0  0  0  0  0
   42.3430   34.5450   40.1250 N   0  0  0  0  0  0  0  0  0  0  0  0
   42.1810   34.0000   38.8000 C   0  0  0  0  0  0  0  0  0  0  0  0
   41.1540   34.9160   38.1900 C   0  0  0  0  0  0  0  0  0  0  0  0
   40.7300   35.8960   39.2620 C   0  0  0  0  0  0  0  0  0  0  0  0
   41.1030   35.1520   40.5110 C   0  0  1  0  0  0  0  0  0  0  0  0
   40.0970   34.2400   40.9570 N   0  0  0  0  0  0  0  0  0  0  0  0
   40.7350   33.1470   41.6520 C   0  0  0  0  0  0  0  0  0  0  0  0
   40.4510   31.8060   41.0170 C   0  0  0  0  0  0  0  0  0  0  0  0
   38.9590   31.5320   41.0860 C   0  0  0  0  0  0  0  0  0  0  0  0
   38.2650   32.7590   40.5680 C   0  0  0  0  0  0  0  0  0  0  0  0
   39.2350   33.7460   39.9410 C   0  0  0  0  0  0  0  0  0  0  0  0
   48.8080   35.4150   41.4650 C   0  0  0  0  0  0  0  0  0  0  0  0
   49.9030   34.6150   41.7800 F   0  0  0  0  0  0  0  0  0  0  0  0
   49.1230   36.6650   41.9830 F   0  0  0  0  0  0  0  0  0  0  0  0
   48.6410   35.3860   40.1120 F   0  0  0  0  0  0  0  0  0  0  0  0
   46.3262   35.9262   40.7753 H   0  0  0  0  0  0  0  0  0  0  0  0
   46.6301   33.1404   44.8723 H   0  0  0  0  0  0  0  0  0  0  0  0
   43.3336   35.8700   42.3933 H   0  0  0  0  0  0  0  0  0  0  0  0
   43.1264   34.0339   38.2386 H   0  0  0  0  0  0  0  0  0  0  0  0
   41.8799   32.9420   38.7965 H   0  0  0  0  0  0  0  0  0  0  0  0
   41.5911   35.4567   37.3376 H   0  0  0  0  0  0  0  0  0  0  0  0
   40.2899   34.3423   37.8237 H   0  0  0  0  0  0  0  0  0  0  0  0
   41.2805   36.8448   39.1797 H   0  0  0  0  0  0  0  0  0  0  0  0
   39.6699   36.1853   39.2116 H   0  0  0  0  0  0  0  0  0  0  0  0
   41.2016   35.7903   41.4014 H   0  0  0  0  0  0  0  0  0  0  0  0
   41.8221   33.3147   41.6484 H   0  0  0  0  0  0  0  0  0  0  0  0
   40.3300   33.1224   42.6744 H   0  0  0  0  0  0  0  0  0  0  0  0
   40.9959   31.0187   41.5586 H   0  0  0  0  0  0  0  0  0  0  0  0
   40.7788   31.8153   39.9670 H   0  0  0  0  0  0  0  0  0  0  0  0
   38.7050   30.6622   40.4623 H   0  0  0  0  0  0  0  0  0  0  0  0
   38.6471   31.3093   42.1171 H   0  0  0  0  0  0  0  0  0  0  0  0
   37.5286   32.4556   39.8093 H   0  0  0  0  0  0  0  0  0  0  0  0
   37.7800   33.2575   41.4202 H   0  0  0  0  0  0  0  0  0  0  0  0
   39.8283   33.2406   39.1647 H   0  0  0  0  0  0  0  0  0  0  0  0
   38.6810   34.5772   39.4804 H   0  0  0  0  0  0  0  0  0  0  0  0
  1  6  2  0
  2  3  2  0
  2  1  1  0
  3  4  1  0
  4  5  2  0
  6  5  1  0
  7  9  1  0
  8  7  2  0
  9  1  1  0
 10 14  1  0
 10  7  1  0
 11 10  1  0
 12 11  1  0
 12 13  1  0
 13 14  1  0
 14 15  1  0
 15 16  1  0
 17 18  1  0
 17 16  1  0
 19 18  1  0
 20 19  1  0
 20 15  1  0
 21 22  1  0
 21 23  1  0
 21  3  1  0
 24 21  1  0
  2 25  1  0
  5 26  1  0
  9 27  1  0
 11 28  1  0
 11 29  1  0
 12 30  1  0
 12 31  1  0
 13 32  1  0
 13 33  1  0
 14 34  1  1
 16 35  1  0
 16 36  1  0
 17 37  1  0
 17 38  1  0
 18 39  1  0
 18 40  1  0
 19 41  1  0
 19 42  1  0
 20 43  1  0
 20 44  1  0
M  ISO  8  25  14  26  14  28  13  29  13  30  13  31  13  32  13  33  13
M  ISO  8  34  13  35  13  36  13  37  13  38  13  39  13  40  13  41  13
M  ISO  3  42  13  43  13  44  13
M  END
>  <minimizedAffinity>  (1) 
-6.95768642

>  <minimizedRMSD>  (1) 
1.43772626

$$$$
