
     RDKit          3D

 41 43  0  0  1  0  0  0  0  0999 V2000
   45.2820   34.9030   42.6740 C   0  0  0  0  0  0  0  0  0  0  0  0
   46.3770   35.3290   41.8710 C   0  0  0  0  0  0  0  0  0  0  0  0
   47.6370   34.8880   42.3040 C   0  0  0  0  0  0  0  0  0  0  0  0
   47.7230   34.1200   43.4070 N   0  0  0  0  0  0  0  0  0  0  0  0
   46.6440   33.7430   44.1360 C   0  0  0  0  0  0  0  0  0  0  0  0
   45.4230   34.1430   43.7560 N   0  0  0  0  0  0  0  0  0  0  0  0
   43.4650   34.5440   41.2350 C   0  0  0  0  0  0  0  0  0  0  0  0
   44.2270   33.6890   40.6900 O   0  0  0  0  0  0  0  0  0  0  0  0
   43.9420   35.2890   42.3350 N   0  0  0  0  0  0  0  0  0  0  0  0
   42.1760   34.6740   40.6730 N   0  0  0  0  0  0  0  0  0  0  0  0
   41.8600   34.1120   39.3590 C   0  0  0  0  0  0  0  0  0  0  0  0
   40.8440   35.0860   38.8250 C   0  0  0  0  0  0  0  0  0  0  0  0
   40.5260   36.0530   39.9290 C   0  0  0  0  0  0  0  0  0  0  0  0
   40.9640   35.3190   41.1780 C   0  0  1  0  0  0  0  0  0  0  0  0
   40.0690   34.2560   41.5440 N   0  0  0  0  0  0  0  0  0  0  0  0
   40.6330   32.9390   41.3420 C   0  0  0  0  0  0  0  0  0  0  0  0
   39.3470   32.1010   41.3340 C   0  0  0  0  0  0  0  0  0  0  0  0
   38.5160   32.9000   40.3390 C   0  0  0  0  0  0  0  0  0  0  0  0
   38.9530   34.3220   40.5890 C   0  0  0  0  0  0  0  0  0  0  0  0
   48.7500   35.3330   41.4710 C   0  0  0  0  0  0  0  0  0  0  0  0
   49.8570   34.5080   41.6970 F   0  0  0  0  0  0  0  0  0  0  0  0
   49.1190   36.5940   41.9060 F   0  0  0  0  0  0  0  0  0  0  0  0
   48.4860   35.2600   40.1220 F   0  0  0  0  0  0  0  0  0  0  0  0
   46.2456   35.9571   40.9776 H   0  0  0  0  0  0  0  0  0  0  0  0
   46.7696   33.1151   45.0304 H   0  0  0  0  0  0  0  0  0  0  0  0
   43.4006   36.0130   42.8285 H   0  0  0  0  0  0  0  0  0  0  0  0
   42.7523   34.0761   38.7168 H   0  0  0  0  0  0  0  0  0  0  0  0
   41.4943   33.0754   39.4014 H   0  0  0  0  0  0  0  0  0  0  0  0
   41.2583   35.6253   37.9604 H   0  0  0  0  0  0  0  0  0  0  0  0
   39.9360   34.5592   38.4964 H   0  0  0  0  0  0  0  0  0  0  0  0
   41.0891   36.9898   39.8055 H   0  0  0  0  0  0  0  0  0  0  0  0
   39.4653   36.3433   39.9522 H   0  0  0  0  0  0  0  0  0  0  0  0
   41.0439   35.9826   42.0516 H   0  0  0  0  0  0  0  0  0  0  0  0
   41.1734   32.8678   40.3865 H   0  0  0  0  0  0  0  0  0  0  0  0
   41.3815   32.6345   42.0883 H   0  0  0  0  0  0  0  0  0  0  0  0
   39.5305   31.0752   40.9816 H   0  0  0  0  0  0  0  0  0  0  0  0
   38.8798   31.9604   42.3199 H   0  0  0  0  0  0  0  0  0  0  0  0
   37.4406   32.7775   40.5350 H   0  0  0  0  0  0  0  0  0  0  0  0
   38.6646   32.5797   39.2972 H   0  0  0  0  0  0  0  0  0  0  0  0
   39.2844   34.7881   39.6494 H   0  0  0  0  0  0  0  0  0  0  0  0
   38.1253   34.9276   40.9868 H   0  0  0  0  0  0  0  0  0  0  0  0
  1  6  2  0
  2  3  2  0
  2  1  1  0
  3  4  1  0
  4  5  2  0
  6  5  1  0
  7  9  1  0
  8  7  2  0
  9  1  1  0
 10 14  1  0
 10  7  1  0
 11 10  1  0
 12 11  1  0
 12 13  1  0
 13 14  1  0
 14 15  1  0
 15 16  1  0
 17 16  1  0
 18 19  1  0
 18 17  1  0
 19 15  1  0
 20 21  1  0
 20 22  1  0
 20  3  1  0
 23 20  1  0
  2 24  1  0
  5 25  1  0
  9 26  1  0
 11 27  1  0
 11 28  1  0
 12 29  1  0
 12 30  1  0
 13 31  1  0
 13 32  1  0
 14 33  1  1
 16 34  1  0
 16 35  1  0
 17 36  1  0
 17 37  1  0
 18 38  1  0
 18 39  1  0
 19 40  1  0
 19 41  1  0
M  ISO  8  24  14  25  14  27  13  28  13  29  13  30  13  31  13  32  13
M  ISO  8  33  13  34  13  35  13  36  13  37  13  38  13  39  13  40  13
M  ISO  1  41  13
M  END
>  <minimizedAffinity>  (1) 
-7.16525126

>  <minimizedRMSD>  (1) 
0.618249416

$$$$
