
     RDKit          3D

 39 41  0  0  1  0  0  0  0  0999 V2000
   45.3270   33.5340   41.8270 C   0  0  0  0  0  0  0  0  0  0  0  0
   46.2960   34.5480   41.5520 C   0  0  0  0  0  0  0  0  0  0  0  0
   47.6290   34.1200   41.5370 C   0  0  0  0  0  0  0  0  0  0  0  0
   47.8940   32.8280   41.7730 N   0  0  0  0  0  0  0  0  0  0  0  0
   46.9400   31.9030   42.0300 C   0  0  0  0  0  0  0  0  0  0  0  0
   45.6450   32.2670   42.0550 N   0  0  0  0  0  0  0  0  0  0  0  0
   43.4130   34.0600   40.5640 C   0  0  0  0  0  0  0  0  0  0  0  0
   44.1830   33.9400   39.5910 O   0  0  0  0  0  0  0  0  0  0  0  0
   43.9370   33.8550   41.8660 N   0  0  0  0  0  0  0  0  0  0  0  0
   42.0530   34.3970   40.3050 N   0  0  0  0  0  0  0  0  0  0  0  0
   41.6790   34.9080   39.0130 C   0  0  0  0  0  0  0  0  0  0  0  0
   40.4930   35.7750   39.3300 C   0  0  0  0  0  0  0  0  0  0  0  0
   40.2100   35.6210   40.8070 C   0  0  0  0  0  0  0  0  0  0  0  0
   40.8990   34.3400   41.1530 C   0  0  1  0  0  0  0  0  0  0  0  0
   41.8980   32.1110   42.4000 F   0  0  0  0  0  0  0  0  0  0  0  0
   40.6510   32.0030   41.8340 C   0  0  0  0  0  0  0  0  0  0  0  0
   40.1240   33.1360   41.1920 C   0  0  0  0  0  0  0  0  0  0  0  0
   38.8710   32.8930   40.6680 C   0  0  0  0  0  0  0  0  0  0  0  0
   38.1610   31.7140   40.7280 C   0  0  0  0  0  0  0  0  0  0  0  0
   38.7480   30.6470   41.3770 C   0  0  0  0  0  0  0  0  0  0  0  0
   40.0010   30.7960   41.9330 C   0  0  0  0  0  0  0  0  0  0  0  0
   48.6000   35.1770   41.2530 C   0  0  0  0  0  0  0  0  0  0  0  0
   49.8550   34.7580   41.6880 F   0  0  0  0  0  0  0  0  0  0  0  0
   48.2720   36.2630   42.0550 F   0  0  0  0  0  0  0  0  0  0  0  0
   48.7070   35.4910   39.9180 F   0  0  0  0  0  0  0  0  0  0  0  0
   46.0134   35.5945   41.3647 H   0  0  0  0  0  0  0  0  0  0  0  0
   47.2226   30.8567   42.2179 H   0  0  0  0  0  0  0  0  0  0  0  0
   43.3835   33.9286   42.7315 H   0  0  0  0  0  0  0  0  0  0  0  0
   41.4022   34.0922   38.3290 H   0  0  0  0  0  0  0  0  0  0  0  0
   42.4916   35.4491   38.5061 H   0  0  0  0  0  0  0  0  0  0  0  0
   40.7211   36.8256   39.0973 H   0  0  0  0  0  0  0  0  0  0  0  0
   39.6196   35.4767   38.7315 H   0  0  0  0  0  0  0  0  0  0  0  0
   40.6292   36.4618   41.3791 H   0  0  0  0  0  0  0  0  0  0  0  0
   39.1355   35.6111   41.0425 H   0  0  0  0  0  0  0  0  0  0  0  0
   41.1623   34.2650   42.2184 H   0  0  0  0  0  0  0  0  0  0  0  0
   38.3866   33.7313   40.1459 H   0  0  0  0  0  0  0  0  0  0  0  0
   37.1624   31.6263   40.2750 H   0  0  0  0  0  0  0  0  0  0  0  0
   38.2202   29.6847   41.4503 H   0  0  0  0  0  0  0  0  0  0  0  0
   40.4783   29.9526   42.4535 H   0  0  0  0  0  0  0  0  0  0  0  0
  1  9  1  0
  1  6  1  0
  2  1  2  0
  3  2  1  0
  3  4  2  0
  4  5  1  0
  5  6  2  0
  7  9  1  0
  8  7  2  0
 10  7  1  0
 10 14  1  0
 11 12  1  0
 11 10  1  0
 12 13  1  0
 13 14  1  0
 14 17  1  0
 16 21  2  0
 16 15  1  0
 17 16  1  0
 18 19  1  0
 18 17  2  0
 19 20  2  0
 20 21  1  0
 22  3  1  0
 22 23  1  0
 22 24  1  0
 25 22  1  0
  2 26  1  0
  5 27  1  0
  9 28  1  0
 11 29  1  0
 11 30  1  0
 12 31  1  0
 12 32  1  0
 13 33  1  0
 13 34  1  0
 14 35  1  1
 18 36  1  0
 19 37  1  0
 20 38  1  0
 21 39  1  0
M  ISO  8  26  14  27  14  29  13  30  13  31  13  32  13  33  13  34  13
M  ISO  5  35  13  36  14  37  14  38  14  39  14
M  END
>  <minimizedAffinity>  (1) 
-6.72482157

>  <minimizedRMSD>  (1) 
2.32831001

$$$$
