
     RDKit          3D

 33 34  0  0  1  0  0  0  0  0999 V2000
   45.3500   34.6830   42.3530 C   0  0  0  0  0  0  0  0  0  0  0  0
   46.4720   35.2180   41.6490 C   0  0  0  0  0  0  0  0  0  0  0  0
   47.7350   34.9300   42.1990 C   0  0  0  0  0  0  0  0  0  0  0  0
   47.7850   34.1870   43.3220 N   0  0  0  0  0  0  0  0  0  0  0  0
   46.6860   33.7040   43.9500 C   0  0  0  0  0  0  0  0  0  0  0  0
   45.4600   33.9610   43.4510 N   0  0  0  0  0  0  0  0  0  0  0  0
   43.7460   34.1260   40.7270 C   0  0  0  0  0  0  0  0  0  0  0  0
   44.6470   33.3550   40.2780 O   0  0  0  0  0  0  0  0  0  0  0  0
   44.0270   34.9260   41.8660 N   0  0  0  0  0  0  0  0  0  0  0  0
   42.5070   34.1150   40.0250 N   0  0  0  0  0  0  0  0  0  0  0  0
   42.3800   33.5290   38.7070 C   0  0  0  0  0  0  0  0  0  0  0  0
   41.3340   34.4110   38.0720 C   0  0  0  0  0  0  0  0  0  0  0  0
   40.7840   35.3200   39.1540 C   0  0  0  0  0  0  0  0  0  0  0  0
   41.2010   34.6380   40.4230 C   0  0  1  0  0  0  0  0  0  0  0  0
   38.8920   33.4530   40.7140 C   0  0  0  0  0  0  0  0  0  0  0  0
   38.5090   34.5080   40.1020 O   0  0  0  0  0  0  0  0  0  0  0  0
   40.3210   33.5860   40.8510 N   0  0  0  0  0  0  0  0  0  0  0  0
   48.8640   35.4880   41.4620 C   0  0  0  0  0  0  0  0  0  0  0  0
   50.0020   34.7350   41.7630 F   0  0  0  0  0  0  0  0  0  0  0  0
   49.1120   36.7560   41.9960 F   0  0  0  0  0  0  0  0  0  0  0  0
   48.6980   35.4810   40.1100 F   0  0  0  0  0  0  0  0  0  0  0  0
   46.3560   35.8176   40.7341 H   0  0  0  0  0  0  0  0  0  0  0  0
   46.7936   33.1033   44.8652 H   0  0  0  0  0  0  0  0  0  0  0  0
   43.3650   35.5938   42.2865 H   0  0  0  0  0  0  0  0  0  0  0  0
   43.3306   33.5755   38.1555 H   0  0  0  0  0  0  0  0  0  0  0  0
   42.1127   32.4620   38.7195 H   0  0  0  0  0  0  0  0  0  0  0  0
   41.7870   35.0130   37.2705 H   0  0  0  0  0  0  0  0  0  0  0  0
   40.5299   33.8025   37.6325 H   0  0  0  0  0  0  0  0  0  0  0  0
   41.2236   36.3259   39.0845 H   0  0  0  0  0  0  0  0  0  0  0  0
   39.6962   35.4661   39.0814 H   0  0  0  0  0  0  0  0  0  0  0  0
   41.1981   35.3114   41.2928 H   0  0  0  0  0  0  0  0  0  0  0  0
   38.2640   32.6198   41.0624 H   0  0  0  0  0  0  0  0  0  0  0  0
   40.7848   32.8023   41.3322 H   0  0  0  0  0  0  0  0  0  0  0  0
  1  6  2  0
  2  3  2  0
  2  1  1  0
  3  4  1  0
  4  5  2  0
  6  5  1  0
  7  9  1  0
  8  7  2  0
  9  1  1  0
 10 14  1  0
 10  7  1  0
 11 10  1  0
 12 11  1  0
 12 13  1  0
 13 14  1  0
 14 17  1  0
 15 17  1  0
 16 15  2  0
 18 19  1  0
 18 20  1  0
 18  3  1  0
 21 18  1  0
  2 22  1  0
  5 23  1  0
  9 24  1  0
 11 25  1  0
 11 26  1  0
 12 27  1  0
 12 28  1  0
 13 29  1  0
 13 30  1  0
 14 31  1  1
 15 32  1  0
 17 33  1  0
M  ISO  8  22  14  23  14  25  13  26  13  27  13  28  13  29  13  30  13
M  ISO  2  31  13  32   6
M  END
>  <minimizedAffinity>  (1) 
-6.10256052

>  <minimizedRMSD>  (1) 
1.20372689

$$$$
