
     RDKit          3D

 49 52  0  0  1  0  0  0  0  0999 V2000
   45.2610   33.7290   41.7990 C   0  0  0  0  0  0  0  0  0  0  0  0
   46.2820   34.6720   41.4480 C   0  0  0  0  0  0  0  0  0  0  0  0
   47.6020   34.2570   41.7050 C   0  0  0  0  0  0  0  0  0  0  0  0
   47.7960   33.0340   42.2470 N   0  0  0  0  0  0  0  0  0  0  0  0
   46.7890   32.1900   42.5570 C   0  0  0  0  0  0  0  0  0  0  0  0
   45.5160   32.5560   42.3230 N   0  0  0  0  0  0  0  0  0  0  0  0
   43.5430   33.9960   40.2140 C   0  0  0  0  0  0  0  0  0  0  0  0
   44.4540   33.6920   39.3740 O   0  0  0  0  0  0  0  0  0  0  0  0
   43.8900   34.0680   41.5720 N   0  0  0  0  0  0  0  0  0  0  0  0
   42.2460   34.2380   39.7130 N   0  0  0  0  0  0  0  0  0  0  0  0
   42.0560   34.4530   38.2650 C   0  0  0  0  0  0  0  0  0  0  0  0
   40.8780   35.3760   38.2310 C   0  0  0  0  0  0  0  0  0  0  0  0
   40.4350   35.5390   39.6570 C   0  0  0  0  0  0  0  0  0  0  0  0
   40.9620   34.3030   40.3460 C   0  0  1  0  0  0  0  0  0  0  0  0
   38.7710   32.9760   40.1170 C   0  0  0  0  0  0  0  0  0  0  0  0
   38.2610   34.1190   40.1390 O   0  0  0  0  0  0  0  0  0  0  0  0
   40.2190   33.0830   40.0710 N   0  0  0  0  0  0  0  0  0  0  0  0
   38.2930   31.5780   40.1240 C   0  0  0  0  0  0  0  0  0  0  0  0
   37.8500   31.0960   41.3380 C   0  0  0  0  0  0  0  0  0  0  0  0
   37.4040   29.7680   41.3460 C   0  0  0  0  0  0  0  0  0  0  0  0
   37.4130   28.9910   40.1830 C   0  0  0  0  0  0  0  0  0  0  0  0
   37.8810   29.5810   39.0130 C   0  0  0  0  0  0  0  0  0  0  0  0
   37.8730   28.7720   37.8900 C   0  0  0  0  0  0  0  0  0  0  0  0
   38.3270   29.2820   36.6700 C   0  0  0  0  0  0  0  0  0  0  0  0
   38.7640   30.5800   36.6580 C   0  0  0  0  0  0  0  0  0  0  0  0
   38.7950   31.4340   37.7590 C   0  0  0  0  0  0  0  0  0  0  0  0
   38.3330   30.8780   38.9440 C   0  0  0  0  0  0  0  0  0  0  0  0
   48.6260   35.2360   41.3380 C   0  0  0  0  0  0  0  0  0  0  0  0
   49.8680   34.7490   41.7580 F   0  0  0  0  0  0  0  0  0  0  0  0
   48.4070   36.3700   42.1080 F   0  0  0  0  0  0  0  0  0  0  0  0
   48.6980   35.4820   40.0010 F   0  0  0  0  0  0  0  0  0  0  0  0
   46.0496   35.6530   41.0079 H   0  0  0  0  0  0  0  0  0  0  0  0
   47.0086   31.2070   42.9991 H   0  0  0  0  0  0  0  0  0  0  0  0
   43.2330   34.3343   42.3192 H   0  0  0  0  0  0  0  0  0  0  0  0
   42.9423   34.9215   37.8122 H   0  0  0  0  0  0  0  0  0  0  0  0
   41.9030   33.5228   37.6981 H   0  0  0  0  0  0  0  0  0  0  0  0
   41.1676   36.3491   37.8076 H   0  0  0  0  0  0  0  0  0  0  0  0
   40.0699   34.9731   37.6028 H   0  0  0  0  0  0  0  0  0  0  0  0
   40.8680   36.4482   40.0996 H   0  0  0  0  0  0  0  0  0  0  0  0
   39.3442   35.6447   39.7523 H   0  0  0  0  0  0  0  0  0  0  0  0
   40.9254   34.3691   41.4434 H   0  0  0  0  0  0  0  0  0  0  0  0
   40.7556   32.2383   39.8273 H   0  0  0  0  0  0  0  0  0  0  0  0
   37.8471   31.7173   42.2458 H   0  0  0  0  0  0  0  0  0  0  0  0
   37.0394   29.3275   42.2857 H   0  0  0  0  0  0  0  0  0  0  0  0
   37.0619   27.9486   40.1930 H   0  0  0  0  0  0  0  0  0  0  0  0
   37.5120   27.7351   37.9569 H   0  0  0  0  0  0  0  0  0  0  0  0
   38.3330   28.6667   35.7582 H   0  0  0  0  0  0  0  0  0  0  0  0
   39.1206   30.9824   35.6984 H   0  0  0  0  0  0  0  0  0  0  0  0
   39.1581   32.4703   37.6938 H   0  0  0  0  0  0  0  0  0  0  0  0
  1  6  2  0
  2  3  2  0
  2  1  1  0
  3  4  1  0
  4  5  2  0
  6  5  1  0
  7  9  1  0
  8  7  2  0
  9  1  1  0
 10  7  1  0
 10 14  1  0
 11 10  1  0
 12 11  1  0
 12 13  1  0
 13 14  1  0
 15 18  1  0
 15 16  2  0
 17 15  1  0
 17 14  1  0
 18 19  2  0
 19 20  1  0
 21 20  2  0
 22 21  1  0
 23 22  2  0
 24 23  1  0
 25 24  2  0
 25 26  1  0
 26 27  2  0
 27 22  1  0
 27 18  1  0
 28  3  1  0
 28 29  1  0
 28 30  1  0
 31 28  1  0
  2 32  1  0
  5 33  1  0
  9 34  1  0
 11 35  1  0
 11 36  1  0
 12 37  1  0
 12 38  1  0
 13 39  1  0
 13 40  1  0
 14 41  1  1
 17 42  1  0
 19 43  1  0
 20 44  1  0
 21 45  1  0
 23 46  1  0
 24 47  1  0
 25 48  1  0
 26 49  1  0
M  ISO  8  32  14  33  14  35  13  36  13  37  13  38  13  39  13  40  13
M  ISO  8  41  13  43  14  44  14  45  14  46  14  47  14  48  14  49  14
M  END
>  <minimizedAffinity>  (1) 
-7.85249853

>  <minimizedRMSD>  (1) 
1.83902597

$$$$
