
     RDKit          3D

 43 45  0  0  1  0  0  0  0  0999 V2000
   45.4140   34.5220   42.2190 C   0  0  0  0  0  0  0  0  0  0  0  0
   46.5230   35.2410   41.6860 C   0  0  0  0  0  0  0  0  0  0  0  0
   47.7950   34.8480   42.1360 C   0  0  0  0  0  0  0  0  0  0  0  0
   47.8650   33.8390   43.0220 N   0  0  0  0  0  0  0  0  0  0  0  0
   46.7810   33.1820   43.5010 C   0  0  0  0  0  0  0  0  0  0  0  0
   45.5470   33.5380   43.0870 N   0  0  0  0  0  0  0  0  0  0  0  0
   43.8120   34.3960   40.5090 C   0  0  0  0  0  0  0  0  0  0  0  0
   44.7340   33.7930   39.8610 O   0  0  0  0  0  0  0  0  0  0  0  0
   44.0830   34.8640   41.8100 N   0  0  0  0  0  0  0  0  0  0  0  0
   42.5630   34.5530   39.8600 N   0  0  0  0  0  0  0  0  0  0  0  0
   42.4690   34.3500   38.4010 C   0  0  0  0  0  0  0  0  0  0  0  0
   41.3710   35.2930   38.0170 C   0  0  0  0  0  0  0  0  0  0  0  0
   40.8650   35.8850   39.2990 C   0  0  0  0  0  0  0  0  0  0  0  0
   41.2560   34.8720   40.3490 C   0  0  1  0  0  0  0  0  0  0  0  0
   39.8100   33.1450   41.5830 C   0  0  0  0  0  0  0  0  0  0  0  0
   39.8620   33.9820   42.5050 O   0  0  0  0  0  0  0  0  0  0  0  0
   40.4330   33.6730   40.3850 N   0  0  0  0  0  0  0  0  0  0  0  0
   39.2360   31.8380   41.6310 C   0  0  0  0  0  0  0  0  0  0  0  0
   38.0250   31.4880   41.0690 C   0  0  0  0  0  0  0  0  0  0  0  0
   37.5070   30.2120   41.1390 C   0  0  0  0  0  0  0  0  0  0  0  0
   38.1990   29.2060   41.7900 C   0  0  0  0  0  0  0  0  0  0  0  0
   39.4120   29.5510   42.3530 C   0  0  0  0  0  0  0  0  0  0  0  0
   39.9180   30.8470   42.2720 C   0  0  0  0  0  0  0  0  0  0  0  0
   48.9120   35.5990   41.5770 C   0  0  0  0  0  0  0  0  0  0  0  0
   50.0980   34.9840   41.9570 F   0  0  0  0  0  0  0  0  0  0  0  0
   48.9240   36.8420   42.2370 F   0  0  0  0  0  0  0  0  0  0  0  0
   48.8740   35.7160   40.2250 F   0  0  0  0  0  0  0  0  0  0  0  0
   46.3906   36.0586   40.9622 H   0  0  0  0  0  0  0  0  0  0  0  0
   46.9064   32.3624   44.2239 H   0  0  0  0  0  0  0  0  0  0  0  0
   43.4116   35.3847   42.3922 H   0  0  0  0  0  0  0  0  0  0  0  0
   43.4128   34.6128   37.9007 H   0  0  0  0  0  0  0  0  0  0  0  0
   42.2736   33.3064   38.1135 H   0  0  0  0  0  0  0  0  0  0  0  0
   41.7596   36.0837   37.3584 H   0  0  0  0  0  0  0  0  0  0  0  0
   40.5697   34.7756   37.4690 H   0  0  0  0  0  0  0  0  0  0  0  0
   41.3420   36.8564   39.4961 H   0  0  0  0  0  0  0  0  0  0  0  0
   39.7820   36.0766   39.2783 H   0  0  0  0  0  0  0  0  0  0  0  0
   41.1662   35.2542   41.3766 H   0  0  0  0  0  0  0  0  0  0  0  0
   40.2830   33.1657   39.5012 H   0  0  0  0  0  0  0  0  0  0  0  0
   37.4473   32.2615   40.5417 H   0  0  0  0  0  0  0  0  0  0  0  0
   36.5351   29.9919   40.6732 H   0  0  0  0  0  0  0  0  0  0  0  0
   37.8025   28.1820   41.8558 H   0  0  0  0  0  0  0  0  0  0  0  0
   39.9950   28.7814   42.8801 H   0  0  0  0  0  0  0  0  0  0  0  0
   40.8891   31.0752   42.7355 H   0  0  0  0  0  0  0  0  0  0  0  0
  1  6  2  0
  2  3  2  0
  2  1  1  0
  3  4  1  0
  4  5  2  0
  6  5  1  0
  7  9  1  0
  8  7  2  0
  9  1  1  0
 10 14  1  0
 10  7  1  0
 11 10  1  0
 12 11  1  0
 12 13  1  0
 13 14  1  0
 14 17  1  0
 15 18  1  0
 15 16  2  0
 17 15  1  0
 18 23  2  0
 19 20  2  0
 19 18  1  0
 20 21  1  0
 21 22  2  0
 23 22  1  0
 24 25  1  0
 24  3  1  0
 24 26  1  0
 27 24  1  0
  2 28  1  0
  5 29  1  0
  9 30  1  0
 11 31  1  0
 11 32  1  0
 12 33  1  0
 12 34  1  0
 13 35  1  0
 13 36  1  0
 14 37  1  1
 17 38  1  0
 19 39  1  0
 20 40  1  0
 21 41  1  0
 22 42  1  0
 23 43  1  0
M  ISO  8  28  14  29  14  31  13  32  13  33  13  34  13  35  13  36  13
M  ISO  6  37  13  39  14  40  14  41  14  42  14  43  14
M  END
>  <minimizedAffinity>  (1) 
-7.02973557

>  <minimizedRMSD>  (1) 
1.1743238

$$$$
