
     RDKit          3D

 48 50  0  0  1  0  0  0  0  0999 V2000
   45.4510   34.2290   42.1670 C   0  0  0  0  0  0  0  0  0  0  0  0
   46.5070   35.0560   41.6870 C   0  0  0  0  0  0  0  0  0  0  0  0
   47.8120   34.6630   42.0440 C   0  0  0  0  0  0  0  0  0  0  0  0
   47.9590   33.5610   42.7930 N   0  0  0  0  0  0  0  0  0  0  0  0
   46.9220   32.8080   43.2250 C   0  0  0  0  0  0  0  0  0  0  0  0
   45.6580   33.1530   42.9030 N   0  0  0  0  0  0  0  0  0  0  0  0
   43.7880   34.2360   40.5090 C   0  0  0  0  0  0  0  0  0  0  0  0
   44.7080   33.7550   39.7640 O   0  0  0  0  0  0  0  0  0  0  0  0
   44.0920   34.5610   41.8460 N   0  0  0  0  0  0  0  0  0  0  0  0
   42.5100   34.4090   39.9230 N   0  0  0  0  0  0  0  0  0  0  0  0
   42.3610   34.3570   38.4580 C   0  0  0  0  0  0  0  0  0  0  0  0
   41.2280   35.3080   38.2200 C   0  0  0  0  0  0  0  0  0  0  0  0
   40.7320   35.7180   39.5770 C   0  0  0  0  0  0  0  0  0  0  0  0
   41.2110   34.6160   40.4940 C   0  0  1  0  0  0  0  0  0  0  0  0
   39.7580   32.7670   41.5350 C   0  0  0  0  0  0  0  0  0  0  0  0
   39.7050   33.5560   42.4920 O   0  0  0  0  0  0  0  0  0  0  0  0
   40.4480   33.3760   40.4140 N   0  0  0  0  0  0  0  0  0  0  0  0
   39.2460   31.4700   41.4850 N   0  0  0  0  0  0  0  0  0  0  0  0
   38.0290   31.2830   40.7180 C   0  0  0  0  0  0  0  0  0  0  0  0
   37.3060   30.0100   41.0050 C   0  0  0  0  0  0  0  0  0  0  0  0
   37.7720   29.4320   42.3090 C   0  0  0  0  0  0  0  0  0  0  0  0
   39.2450   29.0930   42.1140 C   0  0  0  0  0  0  0  0  0  0  0  0
   39.9720   30.4220   42.2020 C   0  0  0  0  0  0  0  0  0  0  0  0
   48.8730   35.5320   41.5380 C   0  0  0  0  0  0  0  0  0  0  0  0
   50.0990   34.9960   41.9120 F   0  0  0  0  0  0  0  0  0  0  0  0
   48.7770   36.7430   42.2400 F   0  0  0  0  0  0  0  0  0  0  0  0
   48.8530   35.6990   40.1880 F   0  0  0  0  0  0  0  0  0  0  0  0
   46.3148   35.9488   41.0738 H   0  0  0  0  0  0  0  0  0  0  0  0
   47.1090   31.9145   43.8387 H   0  0  0  0  0  0  0  0  0  0  0  0
   43.4248   34.9826   42.5078 H   0  0  0  0  0  0  0  0  0  0  0  0
   43.2776   34.6943   37.9519 H   0  0  0  0  0  0  0  0  0  0  0  0
   42.1764   33.3448   38.0690 H   0  0  0  0  0  0  0  0  0  0  0  0
   41.5797   36.1876   37.6609 H   0  0  0  0  0  0  0  0  0  0  0  0
   40.4294   34.8390   37.6265 H   0  0  0  0  0  0  0  0  0  0  0  0
   41.1612   36.6865   39.8733 H   0  0  0  0  0  0  0  0  0  0  0  0
   39.6399   35.8460   39.6060 H   0  0  0  0  0  0  0  0  0  0  0  0
   41.1450   34.8830   41.5591 H   0  0  0  0  0  0  0  0  0  0  0  0
   40.3956   32.9014   39.5014 H   0  0  0  0  0  0  0  0  0  0  0  0
   38.2908   31.2960   39.6497 H   0  0  0  0  0  0  0  0  0  0  0  0
   37.3501   32.0997   41.0046 H   0  0  0  0  0  0  0  0  0  0  0  0
   36.2259   30.2104   41.0617 H   0  0  0  0  0  0  0  0  0  0  0  0
   37.5126   29.2903   40.1992 H   0  0  0  0  0  0  0  0  0  0  0  0
   37.6527   30.1678   43.1179 H   0  0  0  0  0  0  0  0  0  0  0  0
   37.1870   28.5434   42.5885 H   0  0  0  0  0  0  0  0  0  0  0  0
   39.4073   28.6285   41.1302 H   0  0  0  0  0  0  0  0  0  0  0  0
   39.6056   28.3756   42.8658 H   0  0  0  0  0  0  0  0  0  0  0  0
   40.9737   30.3131   41.7607 H   0  0  0  0  0  0  0  0  0  0  0  0
   40.0443   30.7102   43.2611 H   0  0  0  0  0  0  0  0  0  0  0  0
  1  6  2  0
  2  3  2  0
  2  1  1  0
  3  4  1  0
  4  5  2  0
  6  5  1  0
  7  9  1  0
  8  7  2  0
  9  1  1  0
 10 14  1  0
 10  7  1  0
 11 10  1  0
 12 11  1  0
 12 13  1  0
 13 14  1  0
 15 16  2  0
 17 14  1  0
 17 15  1  0
 18 15  1  0
 18 23  1  0
 19 20  1  0
 19 18  1  0
 20 21  1  0
 22 23  1  0
 22 21  1  0
 24 25  1  0
 24  3  1  0
 24 26  1  0
 27 24  1  0
  2 28  1  0
  5 29  1  0
  9 30  1  0
 11 31  1  0
 11 32  1  0
 12 33  1  0
 12 34  1  0
 13 35  1  0
 13 36  1  0
 14 37  1  1
 17 38  1  0
 19 39  1  0
 19 40  1  0
 20 41  1  0
 20 42  1  0
 21 43  1  0
 21 44  1  0
 22 45  1  0
 22 46  1  0
 23 47  1  0
 23 48  1  0
M  ISO  8  28  14  29  14  31  13  32  13  33  13  34  13  35  13  36  13
M  ISO  8  37  13  39  13  40  13  41  13  42  13  43  13  44  13  45  13
M  ISO  3  46  13  47  13  48  13
M  END
>  <minimizedAffinity>  (1) 
-7.23005199

>  <minimizedRMSD>  (1) 
1.39630127

$$$$
