
     RDKit          3D

 49 51  0  0  1  0  0  0  0  0999 V2000
   45.6030   34.4990   42.3140 C   0  0  0  0  0  0  0  0  0  0  0  0
   46.6690   35.2830   41.7820 C   0  0  0  0  0  0  0  0  0  0  0  0
   47.9640   34.9440   42.2220 C   0  0  0  0  0  0  0  0  0  0  0  0
   48.0930   33.9280   43.0920 N   0  0  0  0  0  0  0  0  0  0  0  0
   47.0450   33.2140   43.5670 C   0  0  0  0  0  0  0  0  0  0  0  0
   45.7920   33.5130   43.1670 N   0  0  0  0  0  0  0  0  0  0  0  0
   43.9970   34.3130   40.6130 C   0  0  0  0  0  0  0  0  0  0  0  0
   44.9460   33.7670   39.9530 O   0  0  0  0  0  0  0  0  0  0  0  0
   44.2530   34.7820   41.9170 N   0  0  0  0  0  0  0  0  0  0  0  0
   42.7360   34.4070   39.9730 N   0  0  0  0  0  0  0  0  0  0  0  0
   42.6440   34.2070   38.5130 C   0  0  0  0  0  0  0  0  0  0  0  0
   41.4970   35.0990   38.1430 C   0  0  0  0  0  0  0  0  0  0  0  0
   40.9670   35.6490   39.4350 C   0  0  0  0  0  0  0  0  0  0  0  0
   41.4190   34.6560   40.4770 C   0  0  1  0  0  0  0  0  0  0  0  0
   39.2170   33.3340   40.6340 C   0  0  0  0  0  0  0  0  0  0  0  0
   38.7070   34.4590   40.4000 O   0  0  0  0  0  0  0  0  0  0  0  0
   40.6580   33.4170   40.5140 N   0  0  0  0  0  0  0  0  0  0  0  0
   38.5710   32.0230   40.9950 C   0  0  0  0  0  0  0  0  0  0  0  0
   39.4610   31.1960   41.8420 C   0  0  0  0  0  0  0  0  0  0  0  0
   40.1030   30.0180   41.1950 C   0  0  0  0  0  0  0  0  0  0  0  0
   38.9970   29.2090   40.5260 C   0  0  0  0  0  0  0  0  0  0  0  0
   38.5620   30.0850   39.3600 C   0  0  0  0  0  0  0  0  0  0  0  0
   37.9420   31.3660   39.8200 C   0  0  0  0  0  0  0  0  0  0  0  0
   49.0340   35.7610   41.6600 C   0  0  0  0  0  0  0  0  0  0  0  0
   50.2590   35.2440   42.0790 F   0  0  0  0  0  0  0  0  0  0  0  0
   48.9450   37.0240   42.2550 F   0  0  0  0  0  0  0  0  0  0  0  0
   49.0420   35.8030   40.2930 F   0  0  0  0  0  0  0  0  0  0  0  0
   46.4909   36.1031   41.0709 H   0  0  0  0  0  0  0  0  0  0  0  0
   47.2152   32.3918   44.2776 H   0  0  0  0  0  0  0  0  0  0  0  0
   43.5615   35.2649   42.5082 H   0  0  0  0  0  0  0  0  0  0  0  0
   43.5705   34.5186   38.0085 H   0  0  0  0  0  0  0  0  0  0  0  0
   42.4994   33.1568   38.2193 H   0  0  0  0  0  0  0  0  0  0  0  0
   41.8427   35.9163   37.4929 H   0  0  0  0  0  0  0  0  0  0  0  0
   40.7208   34.5490   37.5907 H   0  0  0  0  0  0  0  0  0  0  0  0
   41.3889   36.6446   39.6368 H   0  0  0  0  0  0  0  0  0  0  0  0
   39.8743   35.7750   39.4210 H   0  0  0  0  0  0  0  0  0  0  0  0
   41.3208   35.0283   41.5074 H   0  0  0  0  0  0  0  0  0  0  0  0
   41.1828   32.5330   40.4501 H   0  0  0  0  0  0  0  0  0  0  0  0
   37.7060   32.2079   41.6489 H   0  0  0  0  0  0  0  0  0  0  0  0
   40.2638   31.8482   42.2163 H   0  0  0  0  0  0  0  0  0  0  0  0
   38.8070   30.7751   42.6199 H   0  0  0  0  0  0  0  0  0  0  0  0
   40.8322   30.3528   40.4425 H   0  0  0  0  0  0  0  0  0  0  0  0
   40.6362   29.4078   41.9389 H   0  0  0  0  0  0  0  0  0  0  0  0
   39.3803   28.2420   40.1682 H   0  0  0  0  0  0  0  0  0  0  0  0
   38.1700   28.9707   41.2111 H   0  0  0  0  0  0  0  0  0  0  0  0
   37.8276   29.5323   38.7557 H   0  0  0  0  0  0  0  0  0  0  0  0
   39.4569   30.3340   38.7708 H   0  0  0  0  0  0  0  0  0  0  0  0
   37.9796   32.0758   38.9805 H   0  0  0  0  0  0  0  0  0  0  0  0
   36.9264   31.0971   40.1461 H   0  0  0  0  0  0  0  0  0  0  0  0
  1  6  2  0
  2  3  2  0
  2  1  1  0
  3  4  1  0
  4  5  2  0
  6  5  1  0
  7  9  1  0
  8  7  2  0
  9  1  1  0
 10 14  1  0
 10  7  1  0
 11 10  1  0
 12 11  1  0
 12 13  1  0
 13 14  1  0
 14 17  1  0
 15 18  1  0
 16 15  2  0
 17 15  1  0
 18 19  1  0
 20 19  1  0
 21 20  1  0
 22 23  1  0
 22 21  1  0
 23 18  1  0
 24 25  1  0
 24  3  1  0
 24 26  1  0
 27 24  1  0
  2 28  1  0
  5 29  1  0
  9 30  1  0
 11 31  1  0
 11 32  1  0
 12 33  1  0
 12 34  1  0
 13 35  1  0
 13 36  1  0
 14 37  1  1
 17 38  1  0
 18 39  1  0
 19 40  1  0
 19 41  1  0
 20 42  1  0
 20 43  1  0
 21 44  1  0
 21 45  1  0
 22 46  1  0
 22 47  1  0
 23 48  1  0
 23 49  1  0
M  ISO  8  28  14  29  14  31  13  32  13  33  13  34  13  35  13  36  13
M  ISO  8  37  13  39  13  40  13  41  13  42  13  43  13  44  13  45  13
M  ISO  4  46  13  47  13  48  13  49  13
M  END
>  <minimizedAffinity>  (1) 
-6.69874859

>  <minimizedRMSD>  (1) 
0.728914917

$$$$
