
     RDKit          3D

 39 41  0  0  1  0  0  0  0  0999 V2000
   45.4200   34.4980   42.2270 C   0  0  0  0  0  0  0  0  0  0  0  0
   46.5190   35.2350   41.6950 C   0  0  0  0  0  0  0  0  0  0  0  0
   47.7970   34.8460   42.1410 C   0  0  0  0  0  0  0  0  0  0  0  0
   47.8810   33.8290   43.0180 N   0  0  0  0  0  0  0  0  0  0  0  0
   46.8040   33.1630   43.4920 C   0  0  0  0  0  0  0  0  0  0  0  0
   45.5650   33.5090   43.0860 N   0  0  0  0  0  0  0  0  0  0  0  0
   43.8140   34.3720   40.5230 C   0  0  0  0  0  0  0  0  0  0  0  0
   44.7400   33.7840   39.8670 O   0  0  0  0  0  0  0  0  0  0  0  0
   44.0840   34.8290   41.8270 N   0  0  0  0  0  0  0  0  0  0  0  0
   42.5600   34.5200   39.8760 N   0  0  0  0  0  0  0  0  0  0  0  0
   42.4650   34.3170   38.4180 C   0  0  0  0  0  0  0  0  0  0  0  0
   41.3550   35.2460   38.0350 C   0  0  0  0  0  0  0  0  0  0  0  0
   40.8470   35.8350   39.3190 C   0  0  0  0  0  0  0  0  0  0  0  0
   41.2530   34.8330   40.3740 C   0  0  1  0  0  0  0  0  0  0  0  0
   39.8080   33.0850   41.5920 C   0  0  0  0  0  0  0  0  0  0  0  0
   39.8410   33.9340   42.5140 O   0  0  0  0  0  0  0  0  0  0  0  0
   40.4440   33.6230   40.4070 N   0  0  0  0  0  0  0  0  0  0  0  0
   39.2440   31.7570   41.6310 C   0  0  0  0  0  0  0  0  0  0  0  0
   39.9350   30.6600   42.1450 C   0  0  0  0  0  0  0  0  0  0  0  0
   38.7040   29.2750   41.9180 S   0  0  0  0  0  0  0  0  0  0  0  0
   37.4670   30.4960   41.1520 C   0  0  0  0  0  0  0  0  0  0  0  0
   38.0370   31.4710   41.1870 N   0  0  0  0  0  0  0  0  0  0  0  0
   48.9040   35.6150   41.5800 C   0  0  0  0  0  0  0  0  0  0  0  0
   50.0970   35.0110   41.9590 F   0  0  0  0  0  0  0  0  0  0  0  0
   48.9100   36.8570   42.2360 F   0  0  0  0  0  0  0  0  0  0  0  0
   48.8690   35.7270   40.2240 F   0  0  0  0  0  0  0  0  0  0  0  0
   46.3770   36.0580   40.9791 H   0  0  0  0  0  0  0  0  0  0  0  0
   46.9381   32.3392   44.2085 H   0  0  0  0  0  0  0  0  0  0  0  0
   43.4088   35.3357   42.4172 H   0  0  0  0  0  0  0  0  0  0  0  0
   43.4045   34.5915   37.9161 H   0  0  0  0  0  0  0  0  0  0  0  0
   42.2811   33.2711   38.1312 H   0  0  0  0  0  0  0  0  0  0  0  0
   41.7320   36.0397   37.3732 H   0  0  0  0  0  0  0  0  0  0  0  0
   40.5579   34.7186   37.4904 H   0  0  0  0  0  0  0  0  0  0  0  0
   41.3126   36.8130   39.5104 H   0  0  0  0  0  0  0  0  0  0  0  0
   39.7612   36.0105   39.3010 H   0  0  0  0  0  0  0  0  0  0  0  0
   41.1653   35.2202   41.3999 H   0  0  0  0  0  0  0  0  0  0  0  0
   40.3143   33.1117   39.5223 H   0  0  0  0  0  0  0  0  0  0  0  0
   40.9469   30.6209   42.5745 H   0  0  0  0  0  0  0  0  0  0  0  0
   36.4533   30.3030   40.7711 H   0  0  0  0  0  0  0  0  0  0  0  0
  1  6  2  0
  2  3  2  0
  2  1  1  0
  3  4  1  0
  4  5  2  0
  6  5  1  0
  7  9  1  0
  8  7  2  0
  9  1  1  0
 10 14  1  0
 10  7  1  0
 11 10  1  0
 12 11  1  0
 12 13  1  0
 13 14  1  0
 14 17  1  0
 15 18  1  0
 15 16  2  0
 17 15  1  0
 18 19  2  0
 20 19  1  0
 21 22  2  0
 21 20  1  0
 22 18  1  0
 23 24  1  0
 23  3  1  0
 23 25  1  0
 26 23  1  0
  2 27  1  0
  5 28  1  0
  9 29  1  0
 11 30  1  0
 11 31  1  0
 12 32  1  0
 12 33  1  0
 13 34  1  0
 13 35  1  0
 14 36  1  1
 17 37  1  0
 19 38  1  0
 21 39  1  0
M  ISO  8  27  14  28  14  30  13  31  13  32  13  33  13  34  13  35  13
M  ISO  3  36  13  38  14  39  14
M  END
>  <minimizedAffinity>  (1) 
-6.7323451

>  <minimizedRMSD>  (1) 
1.12110746

$$$$
