
     RDKit          3D

 40 42  0  0  1  0  0  0  0  0999 V2000
   45.4530   34.4870   42.2900 C   0  0  0  0  0  0  0  0  0  0  0  0
   46.5400   35.2280   41.7350 C   0  0  0  0  0  0  0  0  0  0  0  0
   47.8240   34.8670   42.1830 C   0  0  0  0  0  0  0  0  0  0  0  0
   47.9250   33.8740   43.0790 N   0  0  0  0  0  0  0  0  0  0  0  0
   46.8600   33.2020   43.5760 C   0  0  0  0  0  0  0  0  0  0  0  0
   45.6180   33.5230   43.1670 N   0  0  0  0  0  0  0  0  0  0  0  0
   43.8400   34.3030   40.6040 C   0  0  0  0  0  0  0  0  0  0  0  0
   44.7670   33.7150   39.9500 O   0  0  0  0  0  0  0  0  0  0  0  0
   44.1130   34.7870   41.8860 N   0  0  0  0  0  0  0  0  0  0  0  0
   42.5770   34.4200   39.9590 N   0  0  0  0  0  0  0  0  0  0  0  0
   42.4670   34.1590   38.5110 C   0  0  0  0  0  0  0  0  0  0  0  0
   41.3540   35.0770   38.1060 C   0  0  0  0  0  0  0  0  0  0  0  0
   40.8490   35.7030   39.3740 C   0  0  0  0  0  0  0  0  0  0  0  0
   41.2730   34.7460   40.4580 C   0  0  1  0  0  0  0  0  0  0  0  0
   39.0230   33.4900   40.5390 C   0  0  0  0  0  0  0  0  0  0  0  0
   38.5730   34.5850   40.1260 O   0  0  0  0  0  0  0  0  0  0  0  0
   40.4720   33.5330   40.5580 N   0  0  0  0  0  0  0  0  0  0  0  0
   38.3510   32.2270   40.9850 C   0  0  0  0  0  0  0  0  0  0  0  0
   39.2850   31.1250   41.3570 C   0  0  0  0  0  0  0  0  0  0  0  0
   38.4560   31.0210   40.1260 C   0  0  0  0  0  0  0  0  0  0  0  0
   48.9150   35.6470   41.5930 C   0  0  0  0  0  0  0  0  0  0  0  0
   50.1220   35.0490   41.9600 F   0  0  0  0  0  0  0  0  0  0  0  0
   48.9190   36.8860   42.2290 F   0  0  0  0  0  0  0  0  0  0  0  0
   48.8720   35.7240   40.2360 F   0  0  0  0  0  0  0  0  0  0  0  0
   46.3831   36.0325   41.0015 H   0  0  0  0  0  0  0  0  0  0  0  0
   47.0087   32.3971   44.3109 H   0  0  0  0  0  0  0  0  0  0  0  0
   43.4336   35.2969   42.4686 H   0  0  0  0  0  0  0  0  0  0  0  0
   43.4016   34.4110   37.9885 H   0  0  0  0  0  0  0  0  0  0  0  0
   42.2789   33.1032   38.2663 H   0  0  0  0  0  0  0  0  0  0  0  0
   41.7282   35.8516   37.4204 H   0  0  0  0  0  0  0  0  0  0  0  0
   40.5554   34.5331   37.5803 H   0  0  0  0  0  0  0  0  0  0  0  0
   41.3044   36.6924   39.5280 H   0  0  0  0  0  0  0  0  0  0  0  0
   39.7609   35.8639   39.3582 H   0  0  0  0  0  0  0  0  0  0  0  0
   41.1938   35.1754   41.4676 H   0  0  0  0  0  0  0  0  0  0  0  0
   40.9734   32.6379   40.6491 H   0  0  0  0  0  0  0  0  0  0  0  0
   37.5029   32.7516   41.4493 H   0  0  0  0  0  0  0  0  0  0  0  0
   40.3720   31.2742   41.2779 H   0  0  0  0  0  0  0  0  0  0  0  0
   39.4366   30.5000   42.2494 H   0  0  0  0  0  0  0  0  0  0  0  0
   37.6238   30.3029   40.0832 H   0  0  0  0  0  0  0  0  0  0  0  0
   38.6663   30.8422   39.0612 H   0  0  0  0  0  0  0  0  0  0  0  0
  1  6  2  0
  2  3  2  0
  2  1  1  0
  3  4  1  0
  4  5  2  0
  6  5  1  0
  7  9  1  0
  8  7  2  0
  9  1  1  0
 10 14  1  0
 10  7  1  0
 11 10  1  0
 12 11  1  0
 12 13  1  0
 13 14  1  0
 14 17  1  0
 15 17  1  0
 15 18  1  0
 16 15  2  0
 18 19  1  0
 20 18  1  0
 20 19  1  0
 21 22  1  0
 21  3  1  0
 21 23  1  0
 24 21  1  0
  2 25  1  0
  5 26  1  0
  9 27  1  0
 11 28  1  0
 11 29  1  0
 12 30  1  0
 12 31  1  0
 13 32  1  0
 13 33  1  0
 14 34  1  1
 17 35  1  0
 18 36  1  0
 19 37  1  0
 19 38  1  0
 20 39  1  0
 20 40  1  0
M  ISO  8  25  14  26  14  28  13  29  13  30  13  31  13  32  13  33  13
M  ISO  6  34  13  36  13  37  13  38  13  39  13  40  13
M  END
>  <minimizedAffinity>  (1) 
-6.54424763

>  <minimizedRMSD>  (1) 
0.472570747

$$$$
