
     RDKit          3D

 45 47  0  0  1  0  0  0  0  0999 V2000
   45.6890   34.1920   42.4340 C   0  0  0  0  0  0  0  0  0  0  0  0
   46.6600   35.0520   41.8400 C   0  0  0  0  0  0  0  0  0  0  0  0
   47.9940   34.8500   42.2440 C   0  0  0  0  0  0  0  0  0  0  0  0
   48.2450   33.8790   43.1430 N   0  0  0  0  0  0  0  0  0  0  0  0
   47.2850   33.0900   43.6770 C   0  0  0  0  0  0  0  0  0  0  0  0
   45.9970   33.2560   43.3120 N   0  0  0  0  0  0  0  0  0  0  0  0
   44.0540   33.7980   40.7950 C   0  0  0  0  0  0  0  0  0  0  0  0
   45.0300   33.3180   40.1220 O   0  0  0  0  0  0  0  0  0  0  0  0
   44.3090   34.3360   42.0720 N   0  0  0  0  0  0  0  0  0  0  0  0
   42.7710   33.7510   40.1990 N   0  0  0  0  0  0  0  0  0  0  0  0
   42.6500   33.4800   38.7520 C   0  0  0  0  0  0  0  0  0  0  0  0
   41.4190   34.2510   38.3860 C   0  0  0  0  0  0  0  0  0  0  0  0
   40.8810   34.8070   39.6720 C   0  0  0  0  0  0  0  0  0  0  0  0
   41.4530   33.9020   40.7370 C   0  0  1  0  0  0  0  0  0  0  0  0
   39.3870   32.3990   41.0420 C   0  0  0  0  0  0  0  0  0  0  0  0
   38.7710   33.4660   40.8110 O   0  0  0  0  0  0  0  0  0  0  0  0
   40.8100   32.6030   40.8470 N   0  0  0  0  0  0  0  0  0  0  0  0
   38.8610   31.1530   41.4320 N   0  0  0  0  0  0  0  0  0  0  0  0
   39.6540   30.0700   41.9730 C   0  0  0  0  0  0  0  0  0  0  0  0
   38.8840   28.8490   41.4750 C   0  0  0  0  0  0  0  0  0  0  0  0
   37.4450   29.3140   41.6670 C   0  0  0  0  0  0  0  0  0  0  0  0
   37.4700   30.7970   41.3450 C   0  0  0  0  0  0  0  0  0  0  0  0
   48.9660   35.7400   41.6240 C   0  0  0  0  0  0  0  0  0  0  0  0
   50.2470   35.3280   42.0040 F   0  0  0  0  0  0  0  0  0  0  0  0
   48.7940   37.0070   42.2040 F   0  0  0  0  0  0  0  0  0  0  0  0
   48.9010   35.7690   40.2640 F   0  0  0  0  0  0  0  0  0  0  0  0
   46.3832   35.8268   41.1099 H   0  0  0  0  0  0  0  0  0  0  0  0
   47.5543   32.3136   44.4083 H   0  0  0  0  0  0  0  0  0  0  0  0
   43.5950   34.7766   42.6695 H   0  0  0  0  0  0  0  0  0  0  0  0
   43.5290   33.8483   38.2027 H   0  0  0  0  0  0  0  0  0  0  0  0
   42.5887   32.4093   38.5075 H   0  0  0  0  0  0  0  0  0  0  0  0
   41.6712   35.0670   37.6928 H   0  0  0  0  0  0  0  0  0  0  0  0
   40.6785   33.6121   37.8824 H   0  0  0  0  0  0  0  0  0  0  0  0
   41.2176   35.8438   39.8195 H   0  0  0  0  0  0  0  0  0  0  0  0
   39.7815   34.8357   39.6905 H   0  0  0  0  0  0  0  0  0  0  0  0
   41.3522   34.3068   41.7548 H   0  0  0  0  0  0  0  0  0  0  0  0
   41.4080   31.7669   40.7818 H   0  0  0  0  0  0  0  0  0  0  0  0
   40.6801   30.0868   41.5769 H   0  0  0  0  0  0  0  0  0  0  0  0
   39.7771   30.1071   43.0655 H   0  0  0  0  0  0  0  0  0  0  0  0
   39.1047   27.9577   42.0807 H   0  0  0  0  0  0  0  0  0  0  0  0
   39.1294   28.5470   40.4461 H   0  0  0  0  0  0  0  0  0  0  0  0
   36.7706   28.7800   40.9814 H   0  0  0  0  0  0  0  0  0  0  0  0
   37.0773   29.1164   42.6847 H   0  0  0  0  0  0  0  0  0  0  0  0
   36.8754   31.3650   42.0756 H   0  0  0  0  0  0  0  0  0  0  0  0
   37.0383   31.0215   40.3585 H   0  0  0  0  0  0  0  0  0  0  0  0
  1  6  2  0
  2  3  2  0
  2  1  1  0
  3  4  1  0
  4  5  2  0
  6  5  1  0
  7  9  1  0
  8  7  2  0
  9  1  1  0
 10 14  1  0
 10  7  1  0
 11 10  1  0
 12 11  1  0
 12 13  1  0
 13 14  1  0
 14 17  1  0
 15 18  1  0
 16 15  2  0
 17 15  1  0
 18 19  1  0
 20 21  1  0
 20 19  1  0
 22 18  1  0
 22 21  1  0
 23 24  1  0
 23 25  1  0
 23  3  1  0
 26 23  1  0
  2 27  1  0
  5 28  1  0
  9 29  1  0
 11 30  1  0
 11 31  1  0
 12 32  1  0
 12 33  1  0
 13 34  1  0
 13 35  1  0
 14 36  1  1
 17 37  1  0
 19 38  1  0
 19 39  1  0
 20 40  1  0
 20 41  1  0
 21 42  1  0
 21 43  1  0
 22 44  1  0
 22 45  1  0
M  ISO  8  27  14  28  14  30  13  31  13  32  13  33  13  34  13  35  13
M  ISO  8  36  13  38  13  39  13  40  13  41  13  42  13  43  13  44  13
M  ISO  1  45  13
M  END
>  <minimizedAffinity>  (1) 
-6.79916382

>  <minimizedRMSD>  (1) 
1.02001977

$$$$
