
     RDKit          3D

 30 31  0  0  0  0  0  0  0  0999 V2000
   45.4530   35.1010   42.3780 C   0  0  0  0  0  0  0  0  0  0  0  0
   44.5160   35.5200   43.1080 O   0  0  0  0  0  0  0  0  0  0  0  0
   45.0280   34.4600   41.1840 N   0  0  0  0  0  0  0  0  0  0  0  0
   41.5730   33.0710   40.9650 C   0  0  0  0  0  0  0  0  0  0  0  0
   42.9330   33.1680   41.3080 C   0  0  0  0  0  0  0  0  0  0  0  0
   43.6500   34.2880   40.8780 C   0  0  0  0  0  0  0  0  0  0  0  0
   43.0100   35.2420   40.1470 N   0  0  0  0  0  0  0  0  0  0  0  0
   41.6950   35.1180   39.8320 C   0  0  0  0  0  0  0  0  0  0  0  0
   41.0010   34.0400   40.2450 N   0  0  0  0  0  0  0  0  0  0  0  0
   46.9290   35.1890   42.5980 C   0  0  0  0  0  0  0  0  0  0  0  0
   47.6800   35.1510   41.2780 C   0  0  0  0  0  0  0  0  0  0  0  0
   49.0930   35.6120   41.6390 C   0  0  0  0  0  0  0  0  0  0  0  0
   49.7500   34.5030   42.4250 C   0  0  0  0  0  0  0  0  0  0  0  0
   48.7670   33.4900   42.9350 C   0  0  0  0  0  0  0  0  0  0  0  0
   47.4720   34.0560   43.4210 C   0  0  0  0  0  0  0  0  0  0  0  0
   45.7362   34.1107   40.5227 H   0  0  0  0  0  0  0  0  0  0  0  0
   40.9825   32.2010   41.2881 H   0  0  0  0  0  0  0  0  0  0  0  0
   43.4214   32.3807   41.9010 H   0  0  0  0  0  0  0  0  0  0  0  0
   41.1960   35.8986   39.2390 H   0  0  0  0  0  0  0  0  0  0  0  0
   47.0782   36.1405   43.1294 H   0  0  0  0  0  0  0  0  0  0  0  0
   47.2211   35.8339   40.5479 H   0  0  0  0  0  0  0  0  0  0  0  0
   47.6671   34.1539   40.8136 H   0  0  0  0  0  0  0  0  0  0  0  0
   49.6673   35.8129   40.7226 H   0  0  0  0  0  0  0  0  0  0  0  0
   49.0568   36.5368   42.2335 H   0  0  0  0  0  0  0  0  0  0  0  0
   50.4748   33.9925   41.7738 H   0  0  0  0  0  0  0  0  0  0  0  0
   50.2375   34.9603   43.2986 H   0  0  0  0  0  0  0  0  0  0  0  0
   48.5470   32.7867   42.1183 H   0  0  0  0  0  0  0  0  0  0  0  0
   49.2405   33.0134   43.8060 H   0  0  0  0  0  0  0  0  0  0  0  0
   47.6224   34.4208   44.4478 H   0  0  0  0  0  0  0  0  0  0  0  0
   46.7344   33.2429   43.3517 H   0  0  0  0  0  0  0  0  0  0  0  0
  1 10  1  0
  1  2  2  0
  3  1  1  0
  4  5  2  0
  6  3  1  0
  6  5  1  0
  7  6  2  0
  8  7  1  0
  8  9  2  0
  9  4  1  0
 10 15  1  0
 11 12  1  0
 11 10  1  0
 12 13  1  0
 13 14  1  0
 14 15  1  0
  3 16  1  0
  4 17  1  0
  5 18  1  0
  8 19  1  0
 10 20  1  0
 11 21  1  0
 11 22  1  0
 12 23  1  0
 12 24  1  0
 13 25  1  0
 13 26  1  0
 14 27  1  0
 14 28  1  0
 15 29  1  0
 15 30  1  0
M  ISO  8  17  14  18  14  19  14  20  13  21  13  22  13  23  13  24  13
M  ISO  6  25  13  26  13  27  13  28  13  29  13  30  13
M  END
>  <minimizedAffinity>  (1) 
-4.77526474

>  <minimizedRMSD>  (1) 
4.48995972

$$$$
