
     RDKit          3D

 20 21  0  0  0  0  0  0  0  0999 V2000
   46.3540   34.0570   40.8270 C   0  0  0  0  0  0  0  0  0  0  0  0
   45.2470   33.4920   41.0200 O   0  0  0  0  0  0  0  0  0  0  0  0
   46.8470   34.8080   41.9220 N   0  0  0  0  0  0  0  0  0  0  0  0
   44.5170   36.0130   44.5500 C   0  0  0  0  0  0  0  0  0  0  0  0
   45.2080   35.9650   43.3320 C   0  0  0  0  0  0  0  0  0  0  0  0
   46.1210   34.9120   43.1260 C   0  0  0  0  0  0  0  0  0  0  0  0
   46.2970   33.9850   44.1110 N   0  0  0  0  0  0  0  0  0  0  0  0
   45.6010   34.0800   45.2700 C   0  0  0  0  0  0  0  0  0  0  0  0
   44.7240   35.0680   45.5000 N   0  0  0  0  0  0  0  0  0  0  0  0
   46.9270   33.8330   39.5090 C   0  0  0  0  0  0  0  0  0  0  0  0
   48.1600   34.3000   39.1640 C   0  0  0  0  0  0  0  0  0  0  0  0
   48.3040   33.7240   37.4640 S   0  0  0  0  0  0  0  0  0  0  0  0
   46.5830   32.9180   37.5380 C   0  0  0  0  0  0  0  0  0  0  0  0
   46.2840   33.1720   38.5860 N   0  0  0  0  0  0  0  0  0  0  0  0
   47.7544   35.2879   41.8369 H   0  0  0  0  0  0  0  0  0  0  0  0
   43.7995   36.8254   44.7373 H   0  0  0  0  0  0  0  0  0  0  0  0
   45.0421   36.7286   42.5578 H   0  0  0  0  0  0  0  0  0  0  0  0
   45.7611   33.3202   46.0492 H   0  0  0  0  0  0  0  0  0  0  0  0
   48.8780   34.8768   39.7655 H   0  0  0  0  0  0  0  0  0  0  0  0
   46.0345   32.3583   36.7660 H   0  0  0  0  0  0  0  0  0  0  0  0
  1  2  2  0
  1  3  1  0
  3  6  1  0
  4  9  2  0
  5  4  1  0
  6  5  2  0
  6  7  1  0
  7  8  2  0
  8  9  1  0
 10  1  1  0
 11 10  2  0
 12 13  1  0
 12 11  1  0
 13 14  2  0
 14 10  1  0
  3 15  1  0
  4 16  1  0
  5 17  1  0
  8 18  1  0
 11 19  1  0
 13 20  1  0
M  ISO  5  16  14  17  14  18  14  19  14  20  14
M  END
>  <minimizedAffinity>  (1) 
-4.13057327

>  <minimizedRMSD>  (1) 
0.440131545

$$$$
