
     RDKit          3D

 21 22  0  0  0  0  0  0  0  0999 V2000
   46.3590   33.9910   40.8990 C   0  0  0  0  0  0  0  0  0  0  0  0
   45.3320   33.3100   41.1560 O   0  0  0  0  0  0  0  0  0  0  0  0
   46.8060   34.8340   41.9470 N   0  0  0  0  0  0  0  0  0  0  0  0
   44.5170   35.8800   44.7020 C   0  0  0  0  0  0  0  0  0  0  0  0
   45.1590   35.8990   43.4530 C   0  0  0  0  0  0  0  0  0  0  0  0
   46.1070   34.8940   43.1840 C   0  0  0  0  0  0  0  0  0  0  0  0
   46.3510   33.9630   44.1440 N   0  0  0  0  0  0  0  0  0  0  0  0
   45.7070   33.9810   45.3440 C   0  0  0  0  0  0  0  0  0  0  0  0
   44.8030   34.9360   45.6020 N   0  0  0  0  0  0  0  0  0  0  0  0
   47.0080   33.9040   39.6430 C   0  0  0  0  0  0  0  0  0  0  0  0
   48.1320   34.3660   39.0540 C   0  0  0  0  0  0  0  0  0  0  0  0
   48.4620   34.0760   37.7760 C   0  0  0  0  0  0  0  0  0  0  0  0
   47.5270   33.2400   37.0950 C   0  0  0  0  0  0  0  0  0  0  0  0
   46.2330   32.9230   38.3310 S   0  0  0  0  0  0  0  0  0  0  0  0
   47.6484   35.4109   41.8109 H   0  0  0  0  0  0  0  0  0  0  0  0
   43.7703   36.6514   44.9415 H   0  0  0  0  0  0  0  0  0  0  0  0
   44.9282   36.6750   42.7083 H   0  0  0  0  0  0  0  0  0  0  0  0
   45.9285   33.2132   46.0999 H   0  0  0  0  0  0  0  0  0  0  0  0
   48.8082   35.0060   39.6398 H   0  0  0  0  0  0  0  0  0  0  0  0
   49.3781   34.4541   37.2987 H   0  0  0  0  0  0  0  0  0  0  0  0
   47.5779   32.8720   36.0596 H   0  0  0  0  0  0  0  0  0  0  0  0
  1  2  2  0
  1  3  1  0
  3  6  1  0
  4  9  2  0
  5  4  1  0
  6  5  2  0
  6  7  1  0
  7  8  2  0
  8  9  1  0
 10  1  1  0
 11 10  2  0
 12 11  1  0
 13 12  2  0
 13 14  1  0
 14 10  1  0
  3 15  1  0
  4 16  1  0
  5 17  1  0
  8 18  1  0
 11 19  1  0
 12 20  1  0
 13 21  1  0
M  ISO  6  16  14  17  14  18  14  19  14  20  14  21  14
M  END
>  <minimizedAffinity>  (1) 
-4.2871933

>  <minimizedRMSD>  (1) 
0.316475362

$$$$
