
     RDKit          3D

 37 39  0  0  1  0  0  0  0  0999 V2000
   48.7060   30.2090   40.2610 C   0  0  0  0  0  0  0  0  0  0  0  0
   49.1420   31.4200   39.9150 C   0  0  0  0  0  0  0  0  0  0  0  0
   48.2450   32.5130   39.8610 N   0  0  0  0  0  0  0  0  0  0  0  0
   47.9760   33.8890   40.0490 C   0  0  0  0  0  0  0  0  0  0  0  0
   48.6700   34.9120   40.3610 O   0  0  0  0  0  0  0  0  0  0  0  0
   46.5540   33.8000   39.7630 C   0  0  1  0  0  0  0  0  0  0  0  0
   46.8710   32.3640   39.4190 C   0  0  2  0  0  0  0  0  0  0  0  0
   46.1080   31.1180   40.4660 S   0  0  0  0  0  0  0  0  0  0  0  0
   47.3170   29.8060   40.6260 C   0  0  0  0  0  0  0  0  0  0  0  0
   45.7170   34.0330   40.9320 C   0  0  0  0  0  0  0  0  0  0  0  0
   44.4960   33.9120   41.1420 O   0  0  0  0  0  0  0  0  0  0  0  0
   46.4550   34.5000   42.0820 N   0  0  0  0  0  0  0  0  0  0  0  0
   44.5100   36.2260   44.7290 C   0  0  0  0  0  0  0  0  0  0  0  0
   45.1150   35.9720   43.4960 C   0  0  0  0  0  0  0  0  0  0  0  0
   45.8060   34.7930   43.3060 C   0  0  0  0  0  0  0  0  0  0  0  0
   45.8780   33.9210   44.3210 N   0  0  0  0  0  0  0  0  0  0  0  0
   45.2840   34.1780   45.5250 C   0  0  0  0  0  0  0  0  0  0  0  0
   44.6130   35.3270   45.7010 N   0  0  0  0  0  0  0  0  0  0  0  0
   49.7460   29.1520   40.2770 C   0  0  0  0  0  0  0  0  0  0  0  0
   50.5350   31.6650   39.5830 C   0  0  0  0  0  0  0  0  0  0  0  0
   50.9540   31.7560   38.4020 O   0  0  0  0  0  0  0  0  0  0  0  0
   51.6720   31.8460   40.3470 O   0  0  0  0  0  0  0  0  0  0  0  0
   52.9090   31.2660   40.0910 C   0  0  0  0  0  0  0  0  0  0  0  0
   46.0036   34.4543   39.0710 H   0  0  0  0  0  0  0  0  0  0  0  0
   46.5875   32.0372   38.4077 H   0  0  0  0  0  0  0  0  0  0  0  0
   47.0147   28.9760   39.9704 H   0  0  0  0  0  0  0  0  0  0  0  0
   47.3382   29.5225   41.6886 H   0  0  0  0  0  0  0  0  0  0  0  0
   47.4752   34.6226   42.0104 H   0  0  0  0  0  0  0  0  0  0  0  0
   43.9541   37.1609   44.8932 H   0  0  0  0  0  0  0  0  0  0  0  0
   45.0410   36.7075   42.6814 H   0  0  0  0  0  0  0  0  0  0  0  0
   45.3555   33.4477   46.3445 H   0  0  0  0  0  0  0  0  0  0  0  0
   49.9953   28.8986   41.3180 H   0  0  0  0  0  0  0  0  0  0  0  0
   49.3669   28.2567   39.7624 H   0  0  0  0  0  0  0  0  0  0  0  0
   50.6473   29.5166   39.7624 H   0  0  0  0  0  0  0  0  0  0  0  0
   53.4082   31.0319   41.0428 H   0  0  0  0  0  0  0  0  0  0  0  0
   52.7676   30.3404   39.5138 H   0  0  0  0  0  0  0  0  0  0  0  0
   53.5301   31.9667   39.5138 H   0  0  0  0  0  0  0  0  0  0  0  0
  1 19  1  0
  1  9  1  0
  2  1  2  0
  3  2  1  0
  3  4  1  0
  4  5  2  0
  6  4  1  0
  6 10  1  0
  7  6  1  0
  7  3  1  0
  7  8  1  0
  8  9  1  0
 10 11  2  0
 10 12  1  0
 12 15  1  0
 13 18  2  0
 14 13  1  0
 15 14  2  0
 15 16  1  0
 16 17  2  0
 17 18  1  0
 20  2  1  0
 20 22  1  0
 21 20  2  0
 23 22  1  0
  6 24  1  6
  7 25  1  6
  9 26  1  0
  9 27  1  0
 12 28  1  0
 13 29  1  0
 14 30  1  0
 17 31  1  0
 19 32  1  0
 19 33  1  0
 19 34  1  0
 23 35  1  0
 23 36  1  0
 23 37  1  0
M  ISO  8  24  13  25  13  26  13  27  13  29  14  30  14  31  14  32   8
M  ISO  5  33   8  34   8  35   8  36   8  37   8
M  END
>  <minimizedAffinity>  (1) 
-4.55059242

>  <minimizedRMSD>  (1) 
0.75627327

$$$$
