
     RDKit          3D

 18 19  0  0  1  0  0  0  0  0999 V2000
   46.0680   35.3860   42.5500 C   0  0  0  0  0  0  0  0  0  0  0  0
   46.9090   34.3230   42.9700 C   0  0  0  0  0  0  0  0  0  0  0  0
   46.6670   33.7580   44.2180 C   0  0  0  0  0  0  0  0  0  0  0  0
   45.6390   34.2630   44.9510 N   0  0  0  0  0  0  0  0  0  0  0  0
   44.8610   35.2650   44.5310 C   0  0  0  0  0  0  0  0  0  0  0  0
   45.0610   35.8410   43.3300 N   0  0  0  0  0  0  0  0  0  0  0  0
   48.0120   33.8860   42.0650 C   0  0  1  0  0  0  0  0  0  0  0  0
   48.9890   34.8430   41.5480 C   0  0  2  0  0  0  0  0  0  0  0  0
   49.4210   33.9060   42.6210 C   0  0  0  0  0  0  0  0  0  0  0  0
   48.8610   36.1690   41.9190 O   0  0  0  0  0  0  0  0  0  0  0  0
   46.2389   35.8506   41.5677 H   0  0  0  0  0  0  0  0  0  0  0  0
   47.2855   32.9318   44.5985 H   0  0  0  0  0  0  0  0  0  0  0  0
   44.0454   35.6246   45.1755 H   0  0  0  0  0  0  0  0  0  0  0  0
   47.3512   33.1471   41.5882 H   0  0  0  0  0  0  0  0  0  0  0  0
   49.3437   35.0880   40.5360 H   0  0  0  0  0  0  0  0  0  0  0  0
   49.6105   34.2776   43.6388 H   0  0  0  0  0  0  0  0  0  0  0  0
   50.2291   33.1703   42.7463 H   0  0  0  0  0  0  0  0  0  0  0  0
   48.8545   36.2362   42.9067 H   0  0  0  0  0  0  0  0  0  0  0  0
  1  2  2  0
  1  6  1  0
  2  3  1  0
  3  4  2  0
  5  4  1  0
  6  5  2  0
  7  9  1  0
  7  2  1  0
  8 10  1  0
  8  7  1  0
  8  9  1  0
  1 11  1  0
  3 12  1  0
  5 13  1  0
  7 14  1  6
  8 15  1  6
  9 16  1  0
  9 17  1  0
 10 18  1  0
M  ISO  8  11  14  12  14  13  14  14  13  15  13  16  13  17  13  18   3
M  END
>  <minimizedAffinity>  (1) 
-3.30742788

>  <minimizedRMSD>  (1) 
0.744069993

$$$$
