
     RDKit          3D

 42 45  0  0  1  0  0  0  0  0999 V2000
   45.9220   35.0000   42.1690 C   0  0  1  0  0  0  0  0  0  0  0  0
   44.5130   35.4320   42.7800 C   0  0  0  0  0  0  0  0  0  0  0  0
   44.7010   35.9860   44.1510 C   0  0  0  0  0  0  0  0  0  0  0  0
   45.1340   34.9280   45.1400 C   0  0  0  0  0  0  0  0  0  0  0  0
   45.9140   33.8510   44.4020 C   0  0  0  0  0  0  0  0  0  0  0  0
   46.7260   34.4970   43.2790 C   0  0  1  0  0  0  0  0  0  0  0  0
   45.5880   34.0390   41.0780 C   0  0  0  0  0  0  0  0  0  0  0  0
   46.3290   33.6910   39.9530 C   0  0  0  0  0  0  0  0  0  0  0  0
   45.7620   32.7750   39.1010 C   0  0  0  0  0  0  0  0  0  0  0  0
   44.5200   32.2490   39.3920 N   0  0  0  0  0  0  0  0  0  0  0  0
   43.8380   32.6160   40.5000 C   0  0  0  0  0  0  0  0  0  0  0  0
   44.3910   33.5300   41.3530 N   0  0  0  0  0  0  0  0  0  0  0  0
   47.7080   34.2030   39.6890 C   0  0  0  0  0  0  0  0  0  0  0  0
   48.7250   33.4360   39.1110 C   0  0  0  0  0  0  0  0  0  0  0  0
   48.0800   34.3060   38.1230 C   0  0  0  0  0  0  0  0  0  0  0  0
   47.9660   33.7770   42.9610 C   0  0  0  0  0  0  0  0  0  0  0  0
   49.1260   34.5420   42.7420 C   0  0  0  0  0  0  0  0  0  0  0  0
   50.3800   33.9940   42.4360 C   0  0  0  0  0  0  0  0  0  0  0  0
   50.4780   32.6230   42.3460 C   0  0  0  0  0  0  0  0  0  0  0  0
   49.3000   31.9460   42.5740 C   0  0  0  0  0  0  0  0  0  0  0  0
   48.0930   32.4430   42.8660 N   0  0  0  0  0  0  0  0  0  0  0  0
   46.5356   35.7919   41.7147 H   0  0  0  0  0  0  0  0  0  0  0  0
   44.0564   36.1986   42.1366 H   0  0  0  0  0  0  0  0  0  0  0  0
   43.8567   34.5509   42.8331 H   0  0  0  0  0  0  0  0  0  0  0  0
   45.4701   36.7716   44.1132 H   0  0  0  0  0  0  0  0  0  0  0  0
   43.7342   36.3880   44.4882 H   0  0  0  0  0  0  0  0  0  0  0  0
   45.7728   35.3832   45.9112 H   0  0  0  0  0  0  0  0  0  0  0  0
   44.2498   34.4837   45.6203 H   0  0  0  0  0  0  0  0  0  0  0  0
   46.5938   33.3441   45.1026 H   0  0  0  0  0  0  0  0  0  0  0  0
   45.2154   33.1156   43.9763 H   0  0  0  0  0  0  0  0  0  0  0  0
   47.1207   35.4414   43.6818 H   0  0  0  0  0  0  0  0  0  0  0  0
   46.2954   32.4623   38.1912 H   0  0  0  0  0  0  0  0  0  0  0  0
   42.8490   32.1840   40.7129 H   0  0  0  0  0  0  0  0  0  0  0  0
   47.6817   34.8244   40.5963 H   0  0  0  0  0  0  0  0  0  0  0  0
   49.7668   33.6460   39.3948 H   0  0  0  0  0  0  0  0  0  0  0  0
   48.9041   32.3507   39.1132 H   0  0  0  0  0  0  0  0  0  0  0  0
   48.5990   35.1886   37.7210 H   0  0  0  0  0  0  0  0  0  0  0  0
   47.5656   34.1965   37.1569 H   0  0  0  0  0  0  0  0  0  0  0  0
   49.0445   35.6365   42.8152 H   0  0  0  0  0  0  0  0  0  0  0  0
   51.2568   34.6380   42.2732 H   0  0  0  0  0  0  0  0  0  0  0  0
   51.4219   32.1095   42.1108 H   0  0  0  0  0  0  0  0  0  0  0  0
   49.3601   30.8497   42.5069 H   0  0  0  0  0  0  0  0  0  0  0  0
  1  2  1  0
  1  6  1  0
  2  3  1  0
  3  4  1  0
  5  4  1  0
  6  5  1  0
  7 12  1  0
  7  1  1  0
  8  7  2  0
  9 10  2  0
  9  8  1  0
 10 11  1  0
 11 12  2  0
 13  8  1  0
 14 13  1  0
 15 14  1  0
 15 13  1  0
 16  6  1  0
 17 16  2  0
 18 17  1  0
 19 18  2  0
 19 20  1  0
 20 21  2  0
 21 16  1  0
  1 22  1  6
  2 23  1  0
  2 24  1  0
  3 25  1  0
  3 26  1  0
  4 27  1  0
  4 28  1  0
  5 29  1  0
  5 30  1  0
  6 31  1  1
  9 32  1  0
 11 33  1  0
 13 34  1  0
 14 35  1  0
 14 36  1  0
 15 37  1  0
 15 38  1  0
 17 39  1  0
 18 40  1  0
 19 41  1  0
 20 42  1  0
M  ISO  8  22  13  23  13  24  13  25  13  26  13  27  13  28  13  29  13
M  ISO  8  30  13  31  13  32  14  33  14  34  13  35  13  36  13  37  13
M  ISO  5  38  13  39  14  40  14  41  14  42  14
M  END
>  <minimizedAffinity>  (1) 
-5.57304907

>  <minimizedRMSD>  (1) 
5.03120184

$$$$
