
     RDKit          3D

 40 42  0  0  1  0  0  0  0  0999 V2000
   46.2110   34.0090   42.2730 C   0  0  1  0  0  0  0  0  0  0  0  0
   45.5240   34.2420   40.8420 C   0  0  0  0  0  0  0  0  0  0  0  0
   44.1780   34.8600   41.0560 C   0  0  0  0  0  0  0  0  0  0  0  0
   43.2040   33.8950   41.6700 C   0  0  0  0  0  0  0  0  0  0  0  0
   43.9640   32.9320   42.5370 C   0  0  0  0  0  0  0  0  0  0  0  0
   45.1640   33.5900   43.2030 C   0  0  2  0  0  0  0  0  0  0  0  0
   47.2700   32.9860   42.0000 C   0  0  0  0  0  0  0  0  0  0  0  0
   48.5570   33.1560   41.4910 C   0  0  0  0  0  0  0  0  0  0  0  0
   49.3120   32.0200   41.3420 C   0  0  0  0  0  0  0  0  0  0  0  0
   48.7850   30.7930   41.6960 N   0  0  0  0  0  0  0  0  0  0  0  0
   47.5370   30.6730   42.1880 C   0  0  0  0  0  0  0  0  0  0  0  0
   46.7750   31.7940   42.3380 N   0  0  0  0  0  0  0  0  0  0  0  0
   49.1550   34.4870   41.1880 C   0  0  0  0  0  0  0  0  0  0  0  0
   48.7260   35.6900   41.7440 C   0  0  0  0  0  0  0  0  0  0  0  0
   49.9010   35.1750   42.4490 C   0  0  0  0  0  0  0  0  0  0  0  0
   46.0870   33.7370   45.9000 N   0  0  0  0  0  0  0  0  0  0  0  0
   45.0500   34.4710   45.5940 C   0  0  0  0  0  0  0  0  0  0  0  0
   44.7970   34.5670   44.2020 N   0  0  0  0  0  0  0  0  0  0  0  0
   44.1760   35.1630   46.5090 N   0  0  0  0  0  0  0  0  0  0  0  0
   46.2980   33.6490   46.9240 H   0  0  0  0  0  0  0  0  0  0  0  0
   46.6776   34.8887   42.7403 H   0  0  0  0  0  0  0  0  0  0  0  0
   45.4116   33.2786   40.3232 H   0  0  0  0  0  0  0  0  0  0  0  0
   46.1498   34.9057   40.2273 H   0  0  0  0  0  0  0  0  0  0  0  0
   44.2879   35.7266   41.7245 H   0  0  0  0  0  0  0  0  0  0  0  0
   43.7835   35.1607   40.0742 H   0  0  0  0  0  0  0  0  0  0  0  0
   42.4725   34.4450   42.2803 H   0  0  0  0  0  0  0  0  0  0  0  0
   42.6695   33.3474   40.8798 H   0  0  0  0  0  0  0  0  0  0  0  0
   43.2903   32.5489   43.3176 H   0  0  0  0  0  0  0  0  0  0  0  0
   44.3345   32.1178   41.8969 H   0  0  0  0  0  0  0  0  0  0  0  0
   45.6550   32.7914   43.7785 H   0  0  0  0  0  0  0  0  0  0  0  0
   50.3344   32.0861   40.9416 H   0  0  0  0  0  0  0  0  0  0  0  0
   47.1384   29.6858   42.4646 H   0  0  0  0  0  0  0  0  0  0  0  0
   49.3423   34.1886   40.1459 H   0  0  0  0  0  0  0  0  0  0  0  0
   48.8334   36.6092   41.1495 H   0  0  0  0  0  0  0  0  0  0  0  0
   47.7391   36.0002   42.1181 H   0  0  0  0  0  0  0  0  0  0  0  0
   49.8149   34.7500   43.4599 H   0  0  0  0  0  0  0  0  0  0  0  0
   50.9127   35.5215   42.7066 H   0  0  0  0  0  0  0  0  0  0  0  0
   44.3065   35.4108   43.8729 H   0  0  0  0  0  0  0  0  0  0  0  0
   43.3849   35.7149   46.1477 H   0  0  0  0  0  0  0  0  0  0  0  0
   44.3429   35.1053   47.5238 H   0  0  0  0  0  0  0  0  0  0  0  0
  1  6  1  0
  2  3  1  0
  2  1  1  0
  3  4  1  0
  4  5  1  0
  5  6  1  0
  6 18  1  0
  7  1  1  0
  7 12  2  0
  8  7  1  0
  9  8  2  0
  9 10  1  0
 10 11  2  0
 11 12  1  0
 13  8  1  0
 13 14  1  0
 13 15  1  0
 14 15  1  0
 16 20  1  0
 17 16  2  0
 17 19  1  0
 18 17  1  0
  1 21  1  1
  2 22  1  0
  2 23  1  0
  3 24  1  0
  3 25  1  0
  4 26  1  0
  4 27  1  0
  5 28  1  0
  5 29  1  0
  6 30  1  1
  9 31  1  0
 11 32  1  0
 13 33  1  0
 14 34  1  0
 14 35  1  0
 15 36  1  0
 15 37  1  0
 18 38  1  0
 19 39  1  0
 19 40  1  0
M  ISO  8  21  13  22  13  23  13  24  13  25  13  26  13  27  13  28  13
M  ISO  8  29  13  30  13  31  14  32  14  33  13  34  13  35  13  36  13
M  ISO  1  37  13
M  END
>  <minimizedAffinity>  (1) 
-5.4272294

>  <minimizedRMSD>  (1) 
3.53607488

$$$$
