
     RDKit          3D

 37 39  0  0  1  0  0  0  0  0999 V2000
   44.7050   34.5350   41.4930 C   0  0  1  0  0  0  0  0  0  0  0  0
   43.6110   35.1390   40.5230 C   0  0  0  0  0  0  0  0  0  0  0  0
   42.2770   35.0900   41.2140 C   0  0  0  0  0  0  0  0  0  0  0  0
   41.7750   33.6790   41.4010 C   0  0  0  0  0  0  0  0  0  0  0  0
   42.9550   32.7440   41.5360 C   0  0  0  0  0  0  0  0  0  0  0  0
   44.0890   33.4270   42.2490 C   0  0  1  0  0  0  0  0  0  0  0  0
   45.8440   34.1550   40.6040 C   0  0  0  0  0  0  0  0  0  0  0  0
   47.1800   34.4100   40.7790 C   0  0  0  0  0  0  0  0  0  0  0  0
   48.0270   33.8890   39.7980 C   0  0  0  0  0  0  0  0  0  0  0  0
   47.5160   33.1750   38.7500 N   0  0  0  0  0  0  0  0  0  0  0  0
   46.1910   32.9570   38.6390 C   0  0  0  0  0  0  0  0  0  0  0  0
   45.3670   33.4620   39.5870 N   0  0  0  0  0  0  0  0  0  0  0  0
   47.7450   35.2600   41.8730 C   0  0  0  0  0  0  0  0  0  0  0  0
   48.9440   34.6790   42.5440 C   0  0  0  0  0  0  0  0  0  0  0  0
   49.1030   35.8940   41.6490 C   0  0  0  0  0  0  0  0  0  0  0  0
   45.6610   32.7940   44.0720 C   0  0  0  0  0  0  0  0  0  0  0  0
   45.4200   33.7880   44.8090 O   0  0  0  0  0  0  0  0  0  0  0  0
   45.0620   32.5190   42.7930 N   0  0  0  0  0  0  0  0  0  0  0  0
   45.0875   35.2230   42.2614 H   0  0  0  0  0  0  0  0  0  0  0  0
   43.5702   34.5475   39.5965 H   0  0  0  0  0  0  0  0  0  0  0  0
   43.8655   36.1791   40.2711 H   0  0  0  0  0  0  0  0  0  0  0  0
   42.3737   35.5639   42.2019 H   0  0  0  0  0  0  0  0  0  0  0  0
   41.5522   35.6216   40.5799 H   0  0  0  0  0  0  0  0  0  0  0  0
   41.1578   33.6258   42.3100 H   0  0  0  0  0  0  0  0  0  0  0  0
   41.1687   33.3848   40.5316 H   0  0  0  0  0  0  0  0  0  0  0  0
   42.6496   31.8560   42.1089 H   0  0  0  0  0  0  0  0  0  0  0  0
   43.2923   32.4494   40.5313 H   0  0  0  0  0  0  0  0  0  0  0  0
   43.6053   33.9039   43.1142 H   0  0  0  0  0  0  0  0  0  0  0  0
   49.1122   34.0543   39.8691 H   0  0  0  0  0  0  0  0  0  0  0  0
   45.7866   32.3798   37.7944 H   0  0  0  0  0  0  0  0  0  0  0  0
   46.7695   35.6578   42.1896 H   0  0  0  0  0  0  0  0  0  0  0  0
   49.0662   34.7796   43.6325 H   0  0  0  0  0  0  0  0  0  0  0  0
   49.4023   33.6798   42.5830 H   0  0  0  0  0  0  0  0  0  0  0  0
   49.6027   35.8006   40.6735 H   0  0  0  0  0  0  0  0  0  0  0  0
   49.5259   36.9029   41.7644 H   0  0  0  0  0  0  0  0  0  0  0  0
   46.3996   32.0677   44.4420 H   0  0  0  0  0  0  0  0  0  0  0  0
   45.3296   31.6739   42.2685 H   0  0  0  0  0  0  0  0  0  0  0  0
  1  6  1  0
  2  3  1  0
  2  1  1  0
  3  4  1  0
  4  5  1  0
  5  6  1  0
  6 18  1  0
  7  8  1  0
  7  1  1  0
  8 13  1  0
  9  8  2  0
 10  9  1  0
 11 10  2  0
 11 12  1  0
 12  7  2  0
 13 14  1  0
 15 13  1  0
 15 14  1  0
 16 17  2  0
 18 16  1  0
  1 19  1  1
  2 20  1  0
  2 21  1  0
  3 22  1  0
  3 23  1  0
  4 24  1  0
  4 25  1  0
  5 26  1  0
  5 27  1  0
  6 28  1  1
  9 29  1  0
 11 30  1  0
 13 31  1  0
 14 32  1  0
 14 33  1  0
 15 34  1  0
 15 35  1  0
 16 36  1  0
 18 37  1  0
M  ISO  8  19  13  20  13  21  13  22  13  23  13  24  13  25  13  26  13
M  ISO  8  27  13  28  13  29  14  30  14  31  13  32  13  33  13  34  13
M  ISO  2  35  13  36   6
M  END
>  <minimizedAffinity>  (1) 
-4.78176594

>  <minimizedRMSD>  (1) 
3.55501962

$$$$
