
     RDKit          3D

 34 36  0  0  1  0  0  0  0  0999 V2000
   44.4110   34.5470   41.3370 C   0  0  1  0  0  0  0  0  0  0  0  0
   44.8050   33.6860   40.0580 C   0  0  0  0  0  0  0  0  0  0  0  0
   43.5980   33.5780   39.1660 C   0  0  0  0  0  0  0  0  0  0  0  0
   42.4930   32.7480   39.7740 C   0  0  0  0  0  0  0  0  0  0  0  0
   42.5880   32.8300   41.2840 C   0  0  0  0  0  0  0  0  0  0  0  0
   43.0210   34.2140   41.7010 C   0  0  2  0  0  0  0  0  0  0  0  0
   45.4440   34.1960   42.3620 C   0  0  0  0  0  0  0  0  0  0  0  0
   46.7790   34.5070   42.3650 C   0  0  0  0  0  0  0  0  0  0  0  0
   47.4910   34.0860   43.4900 C   0  0  0  0  0  0  0  0  0  0  0  0
   46.8620   33.4130   44.4970 N   0  0  0  0  0  0  0  0  0  0  0  0
   45.5440   33.1390   44.4370 C   0  0  0  0  0  0  0  0  0  0  0  0
   44.8530   33.5460   43.3470 N   0  0  0  0  0  0  0  0  0  0  0  0
   47.5010   35.1620   41.2300 C   0  0  0  0  0  0  0  0  0  0  0  0
   48.8830   35.6080   41.5650 C   0  0  0  0  0  0  0  0  0  0  0  0
   48.6780   34.4420   40.6150 C   0  0  0  0  0  0  0  0  0  0  0  0
   41.8920   35.4180   40.9110 S   0  0  0  0  0  0  0  0  0  0  0  0
   44.4162   35.6381   41.1977 H   0  0  0  0  0  0  0  0  0  0  0  0
   45.6244   34.1805   39.5156 H   0  0  0  0  0  0  0  0  0  0  0  0
   45.1376   32.6837   40.3658 H   0  0  0  0  0  0  0  0  0  0  0  0
   43.9034   33.1148   38.2161 H   0  0  0  0  0  0  0  0  0  0  0  0
   43.2047   34.5944   39.0168 H   0  0  0  0  0  0  0  0  0  0  0  0
   41.5174   33.1346   39.4443 H   0  0  0  0  0  0  0  0  0  0  0  0
   42.5942   31.7012   39.4516 H   0  0  0  0  0  0  0  0  0  0  0  0
   41.6041   32.6087   41.7232 H   0  0  0  0  0  0  0  0  0  0  0  0
   43.3288   32.0984   41.6388 H   0  0  0  0  0  0  0  0  0  0  0  0
   42.9768   34.2525   42.7994 H   0  0  0  0  0  0  0  0  0  0  0  0
   48.5677   34.2985   43.5652 H   0  0  0  0  0  0  0  0  0  0  0  0
   45.0426   32.5983   45.2532 H   0  0  0  0  0  0  0  0  0  0  0  0
   46.5951   35.6173   40.8034 H   0  0  0  0  0  0  0  0  0  0  0  0
   49.2580   36.5688   41.1824 H   0  0  0  0  0  0  0  0  0  0  0  0
   49.4450   35.7591   42.4985 H   0  0  0  0  0  0  0  0  0  0  0  0
   48.9281   33.4191   40.9331 H   0  0  0  0  0  0  0  0  0  0  0  0
   49.0005   34.1983   39.5919 H   0  0  0  0  0  0  0  0  0  0  0  0
   41.2288   36.1253   41.8789 H   0  0  0  0  0  0  0  0  0  0  0  0
  1  6  1  0
  1  7  1  0
  2  1  1  0
  3  4  1  0
  3  2  1  0
  4  5  1  0
  5  6  1  0
  7  8  1  0
  7 12  2  0
  8  9  2  0
  9 10  1  0
 11 10  2  0
 12 11  1  0
 13 14  1  0
 13  8  1  0
 15 13  1  0
 15 14  1  0
 16  6  1  0
  1 17  1  6
  2 18  1  0
  2 19  1  0
  3 20  1  0
  3 21  1  0
  4 22  1  0
  4 23  1  0
  5 24  1  0
  5 25  1  0
  6 26  1  1
  9 27  1  0
 11 28  1  0
 13 29  1  0
 14 30  1  0
 14 31  1  0
 15 32  1  0
 15 33  1  0
 16 34  1  0
M  ISO  8  17  13  18  13  19  13  20  13  21  13  22  13  23  13  24  13
M  ISO  8  25  13  26  13  27  14  28  14  29  13  30  13  31  13  32  13
M  ISO  2  33  13  34  11
M  END
>  <minimizedAffinity>  (1) 
-4.24973249

>  <minimizedRMSD>  (1) 
1.37426281

$$$$
