
     RDKit          3D

 23 24  0  0  0  0  0  0  0  0999 V2000
   44.5910   35.4100   45.0730 C   0  0  0  0  0  0  0  0  0  0  0  0
   45.2630   35.2690   43.8610 C   0  0  0  0  0  0  0  0  0  0  0  0
   46.2080   34.2490   43.7470 C   0  0  0  0  0  0  0  0  0  0  0  0
   46.4190   33.4550   44.8210 N   0  0  0  0  0  0  0  0  0  0  0  0
   45.7550   33.6190   45.9760 C   0  0  0  0  0  0  0  0  0  0  0  0
   44.8210   34.6050   46.1300 N   0  0  0  0  0  0  0  0  0  0  0  0
   46.0190   32.7360   47.1080 C   0  0  0  0  0  0  0  0  0  0  0  0
   47.2840   32.2690   47.3420 C   0  0  0  0  0  0  0  0  0  0  0  0
   47.5540   31.4240   48.4200 C   0  0  0  0  0  0  0  0  0  0  0  0
   46.5290   31.0500   49.2660 C   0  0  0  0  0  0  0  0  0  0  0  0
   45.2460   31.5050   49.0540 C   0  0  0  0  0  0  0  0  0  0  0  0
   45.0090   32.3510   47.9650 C   0  0  0  0  0  0  0  0  0  0  0  0
   44.8920   36.2330   42.8070 C   0  0  0  0  0  0  0  0  0  0  0  0
   43.8427   36.2102   45.1718 H   0  0  0  0  0  0  0  0  0  0  0  0
   46.7650   34.0952   42.8110 H   0  0  0  0  0  0  0  0  0  0  0  0
   48.1023   32.5646   46.6689 H   0  0  0  0  0  0  0  0  0  0  0  0
   48.5768   31.0585   48.5942 H   0  0  0  0  0  0  0  0  0  0  0  0
   46.7383   30.3836   50.1158 H   0  0  0  0  0  0  0  0  0  0  0  0
   44.4264   31.2099   49.7257 H   0  0  0  0  0  0  0  0  0  0  0  0
   43.9880   32.7196   47.7872 H   0  0  0  0  0  0  0  0  0  0  0  0
   44.5338   37.1638   43.2710 H   0  0  0  0  0  0  0  0  0  0  0  0
   45.7711   36.4495   42.1822 H   0  0  0  0  0  0  0  0  0  0  0  0
   44.0946   35.8043   42.1822 H   0  0  0  0  0  0  0  0  0  0  0  0
  1  6  2  0
  2  1  1  0
  3  2  2  0
  3  4  1  0
  4  5  2  0
  5  6  1  0
  5  7  1  0
  7  8  2  0
  7 12  1  0
  8  9  1  0
  9 10  2  0
 11 10  1  0
 12 11  2  0
 13  2  1  0
  1 14  1  0
  3 15  1  0
  8 16  1  0
  9 17  1  0
 10 18  1  0
 11 19  1  0
 12 20  1  0
 13 21  1  0
 13 22  1  0
 13 23  1  0
M  ISO  8  14  14  15  14  16  14  17  14  18  14  19  14  20  14  21   8
M  ISO  2  22   8  23   8
M  END
>  <minimizedAffinity>  (1) 
-4.97026539

>  <minimizedRMSD>  (1) 
1.09058857

$$$$
