
     RDKit          3D

 25 26  0  0  1  0  0  0  0  0999 V2000
   45.3300   34.2480   45.3330 C   0  0  0  0  0  0  0  0  0  0  0  0
   46.2270   33.8230   44.3450 C   0  0  0  0  0  0  0  0  0  0  0  0
   47.1130   32.8050   44.6770 C   0  0  0  0  0  0  0  0  0  0  0  0
   47.0620   32.2830   45.9210 N   0  0  0  0  0  0  0  0  0  0  0  0
   46.1870   32.7080   46.8590 C   0  0  0  0  0  0  0  0  0  0  0  0
   45.3100   33.7010   46.5650 N   0  0  0  0  0  0  0  0  0  0  0  0
   46.9720   30.8290   48.3100 C   0  0  2  0  0  0  0  0  0  0  0  0
   46.1800   32.0920   48.2170 C   0  0  2  0  0  0  0  0  0  0  0  0
   44.7560   31.5680   48.4170 C   0  0  0  0  0  0  0  0  0  0  0  0
   44.7510   30.3610   47.7400 O   0  0  0  0  0  0  0  0  0  0  0  0
   45.9370   29.7380   48.1250 C   0  0  0  0  0  0  0  0  0  0  0  0
   47.5510   30.7320   49.5690 O   0  0  0  0  0  0  0  0  0  0  0  0
   46.1380   34.5070   43.0460 C   0  0  0  0  0  0  0  0  0  0  0  0
   44.6193   35.0536   45.0963 H   0  0  0  0  0  0  0  0  0  0  0  0
   47.8409   32.4322   43.9413 H   0  0  0  0  0  0  0  0  0  0  0  0
   47.7859   30.7721   47.5723 H   0  0  0  0  0  0  0  0  0  0  0  0
   46.5657   32.8477   48.9170 H   0  0  0  0  0  0  0  0  0  0  0  0
   44.5395   31.4192   49.4852 H   0  0  0  0  0  0  0  0  0  0  0  0
   43.9899   32.2660   48.0484 H   0  0  0  0  0  0  0  0  0  0  0  0
   45.7885   29.1943   49.0697 H   0  0  0  0  0  0  0  0  0  0  0  0
   46.2634   29.0126   47.3652 H   0  0  0  0  0  0  0  0  0  0  0  0
   46.8542   30.8487   50.2625 H   0  0  0  0  0  0  0  0  0  0  0  0
   45.9976   35.5858   43.2085 H   0  0  0  0  0  0  0  0  0  0  0  0
   47.0655   34.3393   42.4790 H   0  0  0  0  0  0  0  0  0  0  0  0
   45.2843   34.1075   42.4790 H   0  0  0  0  0  0  0  0  0  0  0  0
  1  6  2  0
  2  3  2  0
  2  1  1  0
  3  4  1  0
  4  5  2  0
  6  5  1  0
  7 12  1  0
  8  5  1  0
  8  7  1  0
  8  9  1  0
 10 11  1  0
 10  9  1  0
 11  7  1  0
 13  2  1  0
  1 14  1  0
  3 15  1  0
  7 16  1  6
  8 17  1  1
  9 18  1  0
  9 19  1  0
 11 20  1  0
 11 21  1  0
 12 22  1  0
 13 23  1  0
 13 24  1  0
 13 25  1  0
M  ISO  8  14  14  15  14  16  13  17  13  18  13  19  13  20  13  21  13
M  ISO  4  22   3  23   8  24   8  25   8
M  END
>  <minimizedAffinity>  (1) 
-4.32163954

>  <minimizedRMSD>  (1) 
2.6430912

$$$$
