
     RDKit          3D

 27 28  0  0  0  0  0  0  0  0999 V2000
   44.7810   35.0770   45.1160 C   0  0  0  0  0  0  0  0  0  0  0  0
   45.5490   34.8550   43.9600 C   0  0  0  0  0  0  0  0  0  0  0  0
   46.5150   33.8580   44.0030 C   0  0  0  0  0  0  0  0  0  0  0  0
   46.6640   33.1610   45.1460 N   0  0  0  0  0  0  0  0  0  0  0  0
   45.9100   33.3980   46.2420 C   0  0  0  0  0  0  0  0  0  0  0  0
   44.9540   34.3560   46.2530 N   0  0  0  0  0  0  0  0  0  0  0  0
   46.1210   32.6220   47.4160 N   0  0  0  0  0  0  0  0  0  0  0  0
   47.4400   32.3310   47.9370 C   0  0  0  0  0  0  0  0  0  0  0  0
   47.5950   30.8750   48.2950 C   0  0  0  0  0  0  0  0  0  0  0  0
   46.4990   30.3620   49.0730 N   0  0  0  0  0  0  0  0  0  0  0  0
   45.4910   31.3450   49.3690 C   0  0  0  0  0  0  0  0  0  0  0  0
   45.0070   32.0800   48.1530 C   0  0  0  0  0  0  0  0  0  0  0  0
   45.2320   35.7260   42.8080 C   0  0  0  0  0  0  0  0  0  0  0  0
   44.0120   35.8634   45.0987 H   0  0  0  0  0  0  0  0  0  0  0  0
   47.1427   33.6429   43.1256 H   0  0  0  0  0  0  0  0  0  0  0  0
   48.1888   32.5913   47.1744 H   0  0  0  0  0  0  0  0  0  0  0  0
   47.5831   32.9239   48.8524 H   0  0  0  0  0  0  0  0  0  0  0  0
   47.6662   30.2921   47.3648 H   0  0  0  0  0  0  0  0  0  0  0  0
   48.5024   30.7849   48.9102 H   0  0  0  0  0  0  0  0  0  0  0  0
   46.0591   29.5929   48.5478 H   0  0  0  0  0  0  0  0  0  0  0  0
   44.6336   30.8373   49.8350 H   0  0  0  0  0  0  0  0  0  0  0  0
   45.9460   32.0879   50.0406 H   0  0  0  0  0  0  0  0  0  0  0  0
   44.3454   32.9013   48.4655 H   0  0  0  0  0  0  0  0  0  0  0  0
   44.4596   31.3782   47.5066 H   0  0  0  0  0  0  0  0  0  0  0  0
   44.8770   36.7013   43.1725 H   0  0  0  0  0  0  0  0  0  0  0  0
   46.1355   35.8695   42.1973 H   0  0  0  0  0  0  0  0  0  0  0  0
   44.4476   35.2552   42.1973 H   0  0  0  0  0  0  0  0  0  0  0  0
  1  6  2  0
  2  3  2  0
  2  1  1  0
  3  4  1  0
  4  5  2  0
  5  6  1  0
  5  7  1  0
  7  8  1  0
  7 12  1  0
  8  9  1  0
  9 10  1  0
 10 11  1  0
 12 11  1  0
 13  2  1  0
  1 14  1  0
  3 15  1  0
  8 16  1  0
  8 17  1  0
  9 18  1  0
  9 19  1  0
 10 20  1  0
 11 21  1  0
 11 22  1  0
 12 23  1  0
 12 24  1  0
 13 25  1  0
 13 26  1  0
 13 27  1  0
M  ISO  8  14  14  15  14  16  13  17  13  18  13  19  13  20   5  21  13
M  ISO  6  22  13  23  13  24  13  25   8  26   8  27   8
M  END
>  <minimizedAffinity>  (1) 
-4.96239805

>  <minimizedRMSD>  (1) 
1.27077007

$$$$
