
     RDKit          3D

 23 24  0  0  0  0  0  0  0  0999 V2000
   46.7670   33.8210   39.8320 C   0  0  0  0  0  0  0  0  0  0  0  0
   47.9940   34.4380   39.6020 C   0  0  0  0  0  0  0  0  0  0  0  0
   48.5380   35.1840   40.6540 C   0  0  0  0  0  0  0  0  0  0  0  0
   47.8420   35.2540   41.8060 N   0  0  0  0  0  0  0  0  0  0  0  0
   46.6610   34.6440   41.9880 C   0  0  0  0  0  0  0  0  0  0  0  0
   46.0850   33.9110   41.0120 N   0  0  0  0  0  0  0  0  0  0  0  0
   47.3630   32.6070   43.9860 Cl  0  0  0  0  0  0  0  0  0  0  0  0
   46.2210   33.8940   44.3070 C   0  0  0  0  0  0  0  0  0  0  0  0
   45.9850   34.7820   43.2760 C   0  0  0  0  0  0  0  0  0  0  0  0
   45.0940   35.8150   43.4750 C   0  0  0  0  0  0  0  0  0  0  0  0
   44.4650   35.9260   44.7060 C   0  0  0  0  0  0  0  0  0  0  0  0
   44.7350   35.0040   45.7150 C   0  0  0  0  0  0  0  0  0  0  0  0
   45.6260   33.9570   45.5400 C   0  0  0  0  0  0  0  0  0  0  0  0
   48.5670   34.2200   38.2620 C   0  0  0  0  0  0  0  0  0  0  0  0
   46.3226   33.2286   39.0187 H   0  0  0  0  0  0  0  0  0  0  0  0
   49.5044   35.6977   40.5438 H   0  0  0  0  0  0  0  0  0  0  0  0
   44.8858   36.5378   42.6723 H   0  0  0  0  0  0  0  0  0  0  0  0
   43.7515   36.7436   44.8861 H   0  0  0  0  0  0  0  0  0  0  0  0
   44.2238   35.1106   46.6831 H   0  0  0  0  0  0  0  0  0  0  0  0
   45.8406   33.2277   46.3350 H   0  0  0  0  0  0  0  0  0  0  0  0
   49.5910   33.8304   38.3600 H   0  0  0  0  0  0  0  0  0  0  0  0
   47.9495   33.4940   37.7128 H   0  0  0  0  0  0  0  0  0  0  0  0
   48.5882   35.1729   37.7128 H   0  0  0  0  0  0  0  0  0  0  0  0
  1  6  2  0
  2  1  1  0
  2  3  2  0
  3  4  1  0
  4  5  2  0
  5  9  1  0
  6  5  1  0
  7  8  1  0
  8 13  2  0
  9 10  2  0
  9  8  1  0
 10 11  1  0
 11 12  2  0
 13 12  1  0
 14  2  1  0
  1 15  1  0
  3 16  1  0
 10 17  1  0
 11 18  1  0
 12 19  1  0
 13 20  1  0
 14 21  1  0
 14 22  1  0
 14 23  1  0
M  ISO  8  15  14  16  14  17  14  18  14  19  14  20  14  21   8  22   8
M  ISO  1  23   8
M  END
>  <minimizedAffinity>  (1) 
-4.926126

>  <minimizedRMSD>  (1) 
4.892066

$$$$
