
     RDKit          3D

 15 15  0  0  0  0  0  0  0  0999 V2000
   44.4010   35.7790   44.4100 C   0  0  0  0  0  0  0  0  0  0  0  0
   44.6590   35.0750   43.2340 C   0  0  0  0  0  0  0  0  0  0  0  0
   45.2550   33.8260   43.3500 C   0  0  0  0  0  0  0  0  0  0  0  0
   45.5440   33.3740   44.5800 N   0  0  0  0  0  0  0  0  0  0  0  0
   45.2810   34.0810   45.7120 C   0  0  0  0  0  0  0  0  0  0  0  0
   44.7030   35.2990   45.6450 N   0  0  0  0  0  0  0  0  0  0  0  0
   45.5970   33.5790   47.0060 N   0  0  0  0  0  0  0  0  0  0  0  0
   44.2650   35.7460   41.9750 C   0  0  0  0  0  0  0  0  0  0  0  0
   43.9305   36.7704   44.3342 H   0  0  0  0  0  0  0  0  0  0  0  0
   45.4838   33.2239   42.4583 H   0  0  0  0  0  0  0  0  0  0  0  0
   45.3841   34.1409   47.8425 H   0  0  0  0  0  0  0  0  0  0  0  0
   46.0386   32.6538   47.1058 H   0  0  0  0  0  0  0  0  0  0  0  0
   43.7207   36.6730   42.2083 H   0  0  0  0  0  0  0  0  0  0  0  0
   45.1652   35.9866   41.3905 H   0  0  0  0  0  0  0  0  0  0  0  0
   43.6162   35.0771   41.3905 H   0  0  0  0  0  0  0  0  0  0  0  0
  1  6  2  0
  2  3  2  0
  2  1  1  0
  3  4  1  0
  4  5  2  0
  5  7  1  0
  6  5  1  0
  8  2  1  0
  1  9  1  0
  3 10  1  0
  7 11  1  0
  7 12  1  0
  8 13  1  0
  8 14  1  0
  8 15  1  0
M  ISO  5   9  14  10  14  13   8  14   8  15   8
M  END
>  <minimizedAffinity>  (1) 
-3.3205595

>  <minimizedRMSD>  (1) 
0.0463051684

$$$$
