
     RDKit          3D

 20 21  0  0  0  0  0  0  0  0999 V2000
   44.7530   35.1690   45.0170 C   0  0  0  0  0  0  0  0  0  0  0  0
   45.4170   35.1140   43.7930 C   0  0  0  0  0  0  0  0  0  0  0  0
   46.4500   34.1980   43.6350 C   0  0  0  0  0  0  0  0  0  0  0  0
   46.7580   33.4000   44.6880 N   0  0  0  0  0  0  0  0  0  0  0  0
   46.1000   33.4740   45.8560 C   0  0  0  0  0  0  0  0  0  0  0  0
   45.0830   34.3560   46.0550 N   0  0  0  0  0  0  0  0  0  0  0  0
   44.9090   36.0810   42.7880 C   0  0  0  0  0  0  0  0  0  0  0  0
   46.4660   32.5750   47.0040 C   0  0  0  0  0  0  0  0  0  0  0  0
   45.4370   32.4650   48.0620 C   0  0  0  0  0  0  0  0  0  0  0  0
   45.7440   31.3040   47.1050 C   0  0  0  0  0  0  0  0  0  0  0  0
   43.9357   35.8936   45.1472 H   0  0  0  0  0  0  0  0  0  0  0  0
   47.0007   34.1223   42.6858 H   0  0  0  0  0  0  0  0  0  0  0  0
   44.4569   36.9415   43.3029 H   0  0  0  0  0  0  0  0  0  0  0  0
   45.7419   36.4268   42.1581 H   0  0  0  0  0  0  0  0  0  0  0  0
   44.1517   35.5914   42.1581 H   0  0  0  0  0  0  0  0  0  0  0  0
   47.5355   32.8318   46.9889 H   0  0  0  0  0  0  0  0  0  0  0  0
   45.7326   32.4055   49.1199 H   0  0  0  0  0  0  0  0  0  0  0  0
   44.5401   33.0320   48.3520 H   0  0  0  0  0  0  0  0  0  0  0  0
   45.0164   31.0187   46.3309 H   0  0  0  0  0  0  0  0  0  0  0  0
   46.0294   30.2480   47.2207 H   0  0  0  0  0  0  0  0  0  0  0  0
  1  6  2  0
  2  1  1  0
  3  2  2  0
  3  4  1  0
  4  5  2  0
  5  6  1  0
  5  8  1  0
  7  2  1  0
  8 10  1  0
  8  9  1  0
 10  9  1  0
  1 11  1  0
  3 12  1  0
  7 13  1  0
  7 14  1  0
  7 15  1  0
  8 16  1  0
  9 17  1  0
  9 18  1  0
 10 19  1  0
 10 20  1  0
M  ISO  8  11  14  12  14  13   8  14   8  15   8  16  13  17  13  18  13
M  ISO  2  19  13  20  13
M  END
>  <minimizedAffinity>  (1) 
-3.70380545

>  <minimizedRMSD>  (1) 
1.1482048

$$$$
