
     RDKit          3D

 14 14  0  0  0  0  0  0  0  0999 V2000
   44.3810   35.8170   44.3700 C   0  0  0  0  0  0  0  0  0  0  0  0
   44.6890   35.0520   43.2490 C   0  0  0  0  0  0  0  0  0  0  0  0
   45.2920   33.8050   43.4440 C   0  0  0  0  0  0  0  0  0  0  0  0
   45.5340   33.4340   44.7130 N   0  0  0  0  0  0  0  0  0  0  0  0
   45.2320   34.1810   45.7870 C   0  0  0  0  0  0  0  0  0  0  0  0
   44.6430   35.3990   45.6220 N   0  0  0  0  0  0  0  0  0  0  0  0
   44.3350   35.6570   41.9450 C   0  0  0  0  0  0  0  0  0  0  0  0
   45.5960   33.5400   46.9630 O   0  0  0  0  0  0  0  0  0  0  0  0
   43.9062   36.7990   44.2275 H   0  0  0  0  0  0  0  0  0  0  0  0
   45.5566   33.1564   42.5959 H   0  0  0  0  0  0  0  0  0  0  0  0
   43.7860   36.5953   42.1131 H   0  0  0  0  0  0  0  0  0  0  0  0
   45.2532   35.8662   41.3765 H   0  0  0  0  0  0  0  0  0  0  0  0
   43.7028   34.9590   41.3765 H   0  0  0  0  0  0  0  0  0  0  0  0
   45.4317   33.9768   47.8361 H   0  0  0  0  0  0  0  0  0  0  0  0
  1  6  2  0
  2  3  2  0
  2  1  1  0
  3  4  1  0
  4  5  2  0
  5  8  1  0
  6  5  1  0
  7  2  1  0
  1  9  1  0
  3 10  1  0
  7 11  1  0
  7 12  1  0
  7 13  1  0
  8 14  1  0
M  ISO  6   9  14  10  14  11   8  12   8  13   8  14   3
M  END
>  <minimizedAffinity>  (1) 
-3.31608891

>  <minimizedRMSD>  (1) 
0.115941703

$$$$
