
     RDKit          3D

 19 19  0  0  0  0  0  0  0  0999 V2000
   44.7170   35.2200   45.0370 C   0  0  0  0  0  0  0  0  0  0  0  0
   45.3670   35.1920   43.8080 C   0  0  0  0  0  0  0  0  0  0  0  0
   46.4020   34.2590   43.6520 C   0  0  0  0  0  0  0  0  0  0  0  0
   46.7050   33.4540   44.6830 N   0  0  0  0  0  0  0  0  0  0  0  0
   46.0530   33.5100   45.8550 C   0  0  0  0  0  0  0  0  0  0  0  0
   45.0360   34.4020   46.0590 N   0  0  0  0  0  0  0  0  0  0  0  0
   44.9010   36.1530   42.7870 C   0  0  0  0  0  0  0  0  0  0  0  0
   46.4660   32.5640   46.9530 C   0  0  0  0  0  0  0  0  0  0  0  0
   45.3700   32.4820   47.9960 C   0  0  0  0  0  0  0  0  0  0  0  0
   43.9028   35.9453   45.1819 H   0  0  0  0  0  0  0  0  0  0  0  0
   46.9548   34.1880   42.7037 H   0  0  0  0  0  0  0  0  0  0  0  0
   44.4727   37.0363   43.2833 H   0  0  0  0  0  0  0  0  0  0  0  0
   45.7498   36.4609   42.1588 H   0  0  0  0  0  0  0  0  0  0  0  0
   44.1336   35.6772   42.1588 H   0  0  0  0  0  0  0  0  0  0  0  0
   46.6416   31.5648   46.5278 H   0  0  0  0  0  0  0  0  0  0  0  0
   47.3894   32.9330   47.4233 H   0  0  0  0  0  0  0  0  0  0  0  0
   45.8167   32.5154   49.0007 H   0  0  0  0  0  0  0  0  0  0  0  0
   44.6818   33.3312   47.8723 H   0  0  0  0  0  0  0  0  0  0  0  0
   44.8158   31.5399   47.8723 H   0  0  0  0  0  0  0  0  0  0  0  0
  1  6  2  0
  2  1  1  0
  3  2  2  0
  3  4  1  0
  4  5  2  0
  5  6  1  0
  5  8  1  0
  7  2  1  0
  8  9  1  0
  1 10  1  0
  3 11  1  0
  7 12  1  0
  7 13  1  0
  7 14  1  0
  8 15  1  0
  8 16  1  0
  9 17  1  0
  9 18  1  0
  9 19  1  0
M  ISO  8  10  14  11  14  12   8  13   8  14   8  15   8  16   8  17   8
M  ISO  2  18   8  19   8
M  END
>  <minimizedAffinity>  (1) 
-3.42681718

>  <minimizedRMSD>  (1) 
1.11247015

$$$$
