
     RDKit          3D

 32 33  0  0  1  0  0  0  0  0999 V2000
   44.7190   35.1850   45.3640 C   0  0  0  0  0  0  0  0  0  0  0  0
   45.4420   34.9880   44.1770 C   0  0  0  0  0  0  0  0  0  0  0  0
   46.2530   33.8480   44.0960 C   0  0  0  0  0  0  0  0  0  0  0  0
   46.3040   33.0010   45.1450 N   0  0  0  0  0  0  0  0  0  0  0  0
   45.6010   33.2160   46.2680 C   0  0  0  0  0  0  0  0  0  0  0  0
   44.7950   34.3140   46.3970 N   0  0  0  0  0  0  0  0  0  0  0  0
   47.2060   31.8880   47.6440 C   0  0  2  0  0  0  0  0  0  0  0  0
   45.7300   32.2140   47.3260 C   0  0  1  0  0  0  0  0  0  0  0  0
   45.3070   32.6200   48.5600 O   0  0  0  0  0  0  0  0  0  0  0  0
   45.7810   31.7190   49.4740 C   0  0  0  0  0  0  0  0  0  0  0  0
   46.9380   30.9680   48.8500 C   0  0  2  0  0  0  0  0  0  0  0  0
   47.8190   32.9980   48.1220 O   0  0  0  0  0  0  0  0  0  0  0  0
   48.0270   30.8450   49.6790 O   0  0  0  0  0  0  0  0  0  0  0  0
   45.2840   35.9930   43.1290 C   0  0  0  0  0  0  0  0  0  0  0  0
   45.2120   35.3450   41.8980 O   0  0  0  0  0  0  0  0  0  0  0  0
   43.4110   33.4480   41.6740 O   0  0  0  0  0  0  0  0  0  0  0  0
   43.6210   34.9280   41.5240 P   0  0  0  0  0  0  0  0  0  0  0  0
   42.5110   35.7250   42.5490 O   0  0  0  0  0  0  0  0  0  0  0  0
   43.2760   35.3880   39.9220 O   0  0  0  0  0  0  0  0  0  0  0  0
   44.0735   36.0708   45.4570 H   0  0  0  0  0  0  0  0  0  0  0  0
   46.8408   33.6462   43.1884 H   0  0  0  0  0  0  0  0  0  0  0  0
   47.8121   31.5006   46.8118 H   0  0  0  0  0  0  0  0  0  0  0  0
   45.1325   31.3880   46.9127 H   0  0  0  0  0  0  0  0  0  0  0  0
   46.1248   32.2493   50.3743 H   0  0  0  0  0  0  0  0  0  0  0  0
   44.9845   31.0161   49.7594 H   0  0  0  0  0  0  0  0  0  0  0  0
   46.7261   29.9164   48.6064 H   0  0  0  0  0  0  0  0  0  0  0  0
   47.8091   32.9801   49.1118 H   0  0  0  0  0  0  0  0  0  0  0  0
   47.7290   30.8787   50.6225 H   0  0  0  0  0  0  0  0  0  0  0  0
   44.3605   36.5654   43.3009 H   0  0  0  0  0  0  0  0  0  0  0  0
   46.1395   36.6844   43.1398 H   0  0  0  0  0  0  0  0  0  0  0  0
   42.7515   35.5523   43.4937 H   0  0  0  0  0  0  0  0  0  0  0  0
   42.6820   36.1800   39.9267 H   0  0  0  0  0  0  0  0  0  0  0  0
  1  6  2  0
  2  1  1  0
  3  2  2  0
  3  4  1  0
  4  5  2  0
  5  6  1  0
  5  8  1  0
  7 12  1  0
  7 11  1  0
  8  7  1  0
  8  9  1  0
  9 10  1  0
 11 10  1  0
 11 13  1  0
 14  2  1  0
 15 14  1  0
 17 16  2  0
 17 15  1  0
 17 18  1  0
 19 17  1  0
  1 20  1  0
  3 21  1  0
  7 22  1  6
  8 23  1  6
 10 24  1  0
 10 25  1  0
 11 26  1  6
 12 27  1  0
 13 28  1  0
 14 29  1  0
 14 30  1  0
 18 31  1  0
 19 32  1  0
M  ISO  8  20  14  21  14  22  13  23  13  24  13  25  13  26  13  27   3
M  ISO  5  28   3  29   8  30   8  31   3  32   3
M  END
>  <minimizedAffinity>  (1) 
-6.10534477

>  <minimizedRMSD>  (1) 
0.989857733

$$$$
