
     RDKit          3D

 26 27  0  0  1  0  0  0  0  0999 V2000
   44.6590   35.3730   45.1970 C   0  0  0  0  0  0  0  0  0  0  0  0
   45.3890   35.2280   44.0160 C   0  0  0  0  0  0  0  0  0  0  0  0
   46.2270   34.1180   43.9150 C   0  0  0  0  0  0  0  0  0  0  0  0
   46.2880   33.2510   44.9550 N   0  0  0  0  0  0  0  0  0  0  0  0
   45.5720   33.4210   46.0780 C   0  0  0  0  0  0  0  0  0  0  0  0
   44.7450   34.4870   46.2170 N   0  0  0  0  0  0  0  0  0  0  0  0
   47.1930   32.1290   47.4780 C   0  0  2  0  0  0  0  0  0  0  0  0
   45.7280   32.4140   47.1240 C   0  0  1  0  0  0  0  0  0  0  0  0
   45.2410   32.7950   48.3650 O   0  0  0  0  0  0  0  0  0  0  0  0
   45.7120   31.8630   49.2540 C   0  0  0  0  0  0  0  0  0  0  0  0
   46.9290   31.1940   48.6660 C   0  0  2  0  0  0  0  0  0  0  0  0
   47.7320   33.2770   48.0200 O   0  0  0  0  0  0  0  0  0  0  0  0
   48.0000   31.0970   49.5190 O   0  0  0  0  0  0  0  0  0  0  0  0
   45.1830   36.2810   43.0020 C   0  0  0  0  0  0  0  0  0  0  0  0
   43.9892   36.2391   45.3027 H   0  0  0  0  0  0  0  0  0  0  0  0
   46.8270   33.9493   43.0086 H   0  0  0  0  0  0  0  0  0  0  0  0
   47.8361   31.7718   46.6602 H   0  0  0  0  0  0  0  0  0  0  0  0
   45.1869   31.5664   46.6781 H   0  0  0  0  0  0  0  0  0  0  0  0
   45.9834   32.3581   50.1981 H   0  0  0  0  0  0  0  0  0  0  0  0
   44.9337   31.1111   49.4511 H   0  0  0  0  0  0  0  0  0  0  0  0
   46.7724   30.1356   48.4104 H   0  0  0  0  0  0  0  0  0  0  0  0
   47.7051   33.2197   49.0080 H   0  0  0  0  0  0  0  0  0  0  0  0
   47.6798   31.1260   50.4553 H   0  0  0  0  0  0  0  0  0  0  0  0
   44.9951   37.2416   43.5039 H   0  0  0  0  0  0  0  0  0  0  0  0
   46.0817   36.3654   42.3733 H   0  0  0  0  0  0  0  0  0  0  0  0
   44.3188   36.0206   42.3733 H   0  0  0  0  0  0  0  0  0  0  0  0
  1  6  2  0
  2  1  1  0
  3  2  2  0
  3  4  1  0
  4  5  2  0
  5  6  1  0
  7 12  1  0
  7 11  1  0
  8  5  1  0
  8  7  1  0
  8  9  1  0
  9 10  1  0
 11 10  1  0
 11 13  1  0
 14  2  1  0
  1 15  1  0
  3 16  1  0
  7 17  1  6
  8 18  1  6
 10 19  1  0
 10 20  1  0
 11 21  1  6
 12 22  1  0
 13 23  1  0
 14 24  1  0
 14 25  1  0
 14 26  1  0
M  ISO  8  15  14  16  14  17  13  18  13  19  13  20  13  21  13  22   3
M  ISO  4  23   3  24   8  25   8  26   8
M  END
>  <minimizedAffinity>  (1) 
-5.36057186

>  <minimizedRMSD>  (1) 
1.28321826

$$$$
