
     RDKit          3D

 33 35  0  0  1  0  0  0  0  0999 V2000
   44.5580   35.4370   45.2440 C   0  0  0  0  0  0  0  0  0  0  0  0
   45.3440   35.3560   44.0800 C   0  0  0  0  0  0  0  0  0  0  0  0
   46.2400   34.3050   43.9680 C   0  0  0  0  0  0  0  0  0  0  0  0
   46.3070   33.4210   44.9720 N   0  0  0  0  0  0  0  0  0  0  0  0
   45.5540   33.5090   46.0720 C   0  0  0  0  0  0  0  0  0  0  0  0
   44.6570   34.5290   46.2300 N   0  0  0  0  0  0  0  0  0  0  0  0
   47.2050   32.1940   47.4170 C   0  0  2  0  0  0  0  0  0  0  0  0
   45.7220   32.4490   47.0730 C   0  0  1  0  0  0  0  0  0  0  0  0
   45.2170   32.7380   48.3090 O   0  0  0  0  0  0  0  0  0  0  0  0
   45.7340   31.8160   49.1780 C   0  0  0  0  0  0  0  0  0  0  0  0
   46.9610   31.2000   48.5650 C   0  0  2  0  0  0  0  0  0  0  0  0
   47.7090   33.3140   47.9930 O   0  0  0  0  0  0  0  0  0  0  0  0
   48.0290   31.0930   49.4190 O   0  0  0  0  0  0  0  0  0  0  0  0
   45.0790   36.4310   43.0810 C   0  0  0  0  0  0  0  0  0  0  0  0
   45.1740   37.7300   43.7960 C   0  0  0  0  0  0  0  0  0  0  0  0
   44.9990   37.9880   45.1580 C   0  0  0  0  0  0  0  0  0  0  0  0
   45.1730   39.3060   45.3900 N   0  0  0  0  0  0  0  0  0  0  0  0
   45.4550   39.9010   44.2060 C   0  0  0  0  0  0  0  0  0  0  0  0
   45.4530   38.9470   43.2510 N   0  0  0  0  0  0  0  0  0  0  0  0
   43.8429   36.2661   45.3500 H   0  0  0  0  0  0  0  0  0  0  0  0
   46.8789   34.1995   43.0788 H   0  0  0  0  0  0  0  0  0  0  0  0
   47.8601   31.8922   46.5865 H   0  0  0  0  0  0  0  0  0  0  0  0
   45.2020   31.6104   46.5869 H   0  0  0  0  0  0  0  0  0  0  0  0
   46.0024   32.3102   50.1234 H   0  0  0  0  0  0  0  0  0  0  0  0
   44.9865   31.0344   49.3788 H   0  0  0  0  0  0  0  0  0  0  0  0
   46.8310   30.1510   48.2605 H   0  0  0  0  0  0  0  0  0  0  0  0
   47.6690   33.2250   48.9782 H   0  0  0  0  0  0  0  0  0  0  0  0
   47.7077   31.1252   50.3549 H   0  0  0  0  0  0  0  0  0  0  0  0
   44.0726   36.3087   42.6541 H   0  0  0  0  0  0  0  0  0  0  0  0
   45.8061   36.3854   42.2569 H   0  0  0  0  0  0  0  0  0  0  0  0
   44.7571   37.2344   45.9219 H   0  0  0  0  0  0  0  0  0  0  0  0
   45.1038   39.7757   46.3040 H   0  0  0  0  0  0  0  0  0  0  0  0
   45.6510   40.9722   44.0504 H   0  0  0  0  0  0  0  0  0  0  0  0
  1  6  2  0
  2  1  1  0
  3  2  2  0
  3  4  1  0
  4  5  2  0
  5  6  1  0
  5  8  1  0
  7 12  1  0
  7 11  1  0
  8  7  1  0
  8  9  1  0
  9 10  1  0
 11 10  1  0
 11 13  1  0
 14 15  1  0
 14  2  1  0
 15 16  2  0
 16 17  1  0
 18 17  1  0
 19 15  1  0
 19 18  2  0
  1 20  1  0
  3 21  1  0
  7 22  1  6
  8 23  1  6
 10 24  1  0
 10 25  1  0
 11 26  1  6
 12 27  1  0
 13 28  1  0
 14 29  1  0
 14 30  1  0
 16 31  1  0
 17 32  1  0
 18 33  1  0
M  ISO  8  20  14  21  14  22  13  23  13  24  13  25  13  26  13  27   3
M  ISO  6  28   3  29   8  30   8  31  14  32   9  33  14
M  END
>  <minimizedAffinity>  (1) 
-4.93279886

>  <minimizedRMSD>  (1) 
1.10450423

$$$$
