
     RDKit          3D

 34 35  0  0  1  0  0  0  0  0999 V2000
   44.8270   35.1660   45.1680 C   0  0  0  0  0  0  0  0  0  0  0  0
   45.1340   34.7770   43.8560 C   0  0  0  0  0  0  0  0  0  0  0  0
   45.6620   33.4880   43.6680 C   0  0  0  0  0  0  0  0  0  0  0  0
   45.8450   32.6950   44.7410 N   0  0  0  0  0  0  0  0  0  0  0  0
   45.5430   33.0910   45.9850 C   0  0  0  0  0  0  0  0  0  0  0  0
   45.0300   34.3310   46.2250 N   0  0  0  0  0  0  0  0  0  0  0  0
   47.2640   32.0730   47.4790 C   0  0  2  0  0  0  0  0  0  0  0  0
   45.7770   32.1290   47.0600 C   0  0  1  0  0  0  0  0  0  0  0  0
   45.2030   32.4460   48.2590 O   0  0  0  0  0  0  0  0  0  0  0  0
   45.7780   31.6550   49.2130 C   0  0  0  0  0  0  0  0  0  0  0  0
   47.0810   31.1150   48.6720 C   0  0  2  0  0  0  0  0  0  0  0  0
   47.6280   33.2740   47.9920 O   0  0  0  0  0  0  0  0  0  0  0  0
   48.1400   31.1960   49.5580 O   0  0  0  0  0  0  0  0  0  0  0  0
   44.8780   35.7520   42.7930 C   0  0  0  0  0  0  0  0  0  0  0  0
   44.4970   35.1320   41.5640 N   0  0  0  0  0  0  0  0  0  0  0  0
   42.8030   34.9040   41.4250 S   0  0  0  0  0  0  0  0  0  0  0  0
   42.5400   33.4310   41.5670 O   0  0  0  0  0  0  0  0  0  0  0  0
   42.3010   35.4350   40.1210 O   0  0  0  0  0  0  0  0  0  0  0  0
   41.9700   35.6890   42.6610 O   0  0  0  0  0  0  0  0  0  0  0  0
   44.4125   36.1690   45.3477 H   0  0  0  0  0  0  0  0  0  0  0  0
   45.9217   33.1324   42.6600 H   0  0  0  0  0  0  0  0  0  0  0  0
   47.9870   31.8056   46.6943 H   0  0  0  0  0  0  0  0  0  0  0  0
   45.3663   31.2103   46.6159 H   0  0  0  0  0  0  0  0  0  0  0  0
   45.9707   32.2482   50.1191 H   0  0  0  0  0  0  0  0  0  0  0  0
   45.1040   30.8237   49.4673 H   0  0  0  0  0  0  0  0  0  0  0  0
   47.0583   30.0401   48.4395 H   0  0  0  0  0  0  0  0  0  0  0  0
   47.6142   33.2283   48.9808 H   0  0  0  0  0  0  0  0  0  0  0  0
   47.7965   31.1697   50.4861 H   0  0  0  0  0  0  0  0  0  0  0  0
   44.0679   36.4222   43.1163 H   0  0  0  0  0  0  0  0  0  0  0  0
   45.8120   36.3048   42.6137 H   0  0  0  0  0  0  0  0  0  0  0  0
   44.8131   35.7266   40.7847 H   0  0  0  0  0  0  0  0  0  0  0  0
   42.4978   33.1944   42.5274 H   0  0  0  0  0  0  0  0  0  0  0  0
   41.6308   36.1439   40.2894 H   0  0  0  0  0  0  0  0  0  0  0  0
   42.3052   35.3731   43.5373 H   0  0  0  0  0  0  0  0  0  0  0  0
  1  6  2  0
  2  1  1  0
  3  2  2  0
  3  4  1  0
  4  5  2  0
  5  6  1  0
  5  8  1  0
  7 12  1  0
  7 11  1  0
  8  7  1  0
  8  9  1  0
  9 10  1  0
 11 10  1  0
 11 13  1  0
 14  2  1  0
 15 14  1  0
 16 15  1  0
 16 17  1  0
 16 19  1  0
 18 16  1  0
  1 20  1  0
  3 21  1  0
  7 22  1  6
  8 23  1  6
 10 24  1  0
 10 25  1  0
 11 26  1  6
 12 27  1  0
 13 28  1  0
 14 29  1  0
 14 30  1  0
 15 31  1  0
 17 32  1  0
 18 33  1  0
 19 34  1  0
M  ISO  8  20  14  21  14  22  13  23  13  24  13  25  13  26  13  27   3
M  ISO  7  28   3  29   8  30   8  31   5  32   3  33   3  34   3
M  END
>  <minimizedAffinity>  (1) 
-5.82590389

>  <minimizedRMSD>  (1) 
3.0315764

$$$$
