
     RDKit          3D

 30 31  0  0  1  0  0  0  0  0999 V2000
   44.6670   35.3670   45.1900 C   0  0  0  0  0  0  0  0  0  0  0  0
   45.4020   35.2100   44.0040 C   0  0  0  0  0  0  0  0  0  0  0  0
   46.2320   34.1010   43.9240 C   0  0  0  0  0  0  0  0  0  0  0  0
   46.2850   33.2570   44.9630 N   0  0  0  0  0  0  0  0  0  0  0  0
   45.5780   33.4250   46.0800 C   0  0  0  0  0  0  0  0  0  0  0  0
   44.7440   34.4960   46.2220 N   0  0  0  0  0  0  0  0  0  0  0  0
   47.1970   32.1380   47.4910 C   0  0  2  0  0  0  0  0  0  0  0  0
   45.7230   32.4140   47.1230 C   0  0  1  0  0  0  0  0  0  0  0  0
   45.2200   32.7560   48.3480 O   0  0  0  0  0  0  0  0  0  0  0  0
   45.7020   31.8390   49.2420 C   0  0  0  0  0  0  0  0  0  0  0  0
   46.9370   31.1870   48.6610 C   0  0  2  0  0  0  0  0  0  0  0  0
   47.7240   33.2710   48.0200 O   0  0  0  0  0  0  0  0  0  0  0  0
   47.9990   31.1040   49.5260 O   0  0  0  0  0  0  0  0  0  0  0  0
   45.1890   36.2560   42.9810 C   0  0  0  0  0  0  0  0  0  0  0  0
   43.4230   35.3550   41.3760 C   0  0  0  0  0  0  0  0  0  0  0  0
   44.2040   34.6670   40.6810 O   0  0  0  0  0  0  0  0  0  0  0  0
   43.8350   36.1350   42.4870 N   0  0  0  0  0  0  0  0  0  0  0  0
   43.9995   36.2362   45.2840 H   0  0  0  0  0  0  0  0  0  0  0  0
   46.8360   33.9180   43.0231 H   0  0  0  0  0  0  0  0  0  0  0  0
   47.8506   31.7899   46.6776 H   0  0  0  0  0  0  0  0  0  0  0  0
   45.1860   31.5725   46.6609 H   0  0  0  0  0  0  0  0  0  0  0  0
   45.9602   32.3435   50.1848 H   0  0  0  0  0  0  0  0  0  0  0  0
   44.9362   31.0745   49.4396 H   0  0  0  0  0  0  0  0  0  0  0  0
   46.8011   30.1285   48.3945 H   0  0  0  0  0  0  0  0  0  0  0  0
   47.6987   33.2166   49.0082 H   0  0  0  0  0  0  0  0  0  0  0  0
   47.6678   31.1299   50.4586 H   0  0  0  0  0  0  0  0  0  0  0  0
   45.3347   37.2501   43.4288 H   0  0  0  0  0  0  0  0  0  0  0  0
   45.9069   36.1334   42.1566 H   0  0  0  0  0  0  0  0  0  0  0  0
   42.3556   35.3549   41.1101 H   0  0  0  0  0  0  0  0  0  0  0  0
   43.1047   36.6623   42.9865 H   0  0  0  0  0  0  0  0  0  0  0  0
  1  6  2  0
  2  1  1  0
  3  2  2  0
  3  4  1  0
  4  5  2  0
  5  6  1  0
  5  8  1  0
  7 12  1  0
  7 11  1  0
  8  7  1  0
  8  9  1  0
  9 10  1  0
 11 10  1  0
 11 13  1  0
 14  2  1  0
 15 17  1  0
 16 15  2  0
 17 14  1  0
  1 18  1  0
  3 19  1  0
  7 20  1  6
  8 21  1  6
 10 22  1  0
 10 23  1  0
 11 24  1  6
 12 25  1  0
 13 26  1  0
 14 27  1  0
 14 28  1  0
 15 29  1  0
 17 30  1  0
M  ISO  8  18  14  19  14  20  13  21  13  22  13  23  13  24  13  25   3
M  ISO  4  26   3  27   8  28   8  29   6
M  END
>  <minimizedAffinity>  (1) 
-5.76538134

>  <minimizedRMSD>  (1) 
0.380981266

$$$$
