
     RDKit          3D

 28 29  0  0  1  0  0  0  0  0999 V2000
   44.6370   35.3940   45.2230 C   0  0  0  0  0  0  0  0  0  0  0  0
   45.3690   35.2300   44.0340 C   0  0  0  0  0  0  0  0  0  0  0  0
   46.2050   34.1060   43.9350 C   0  0  0  0  0  0  0  0  0  0  0  0
   46.2670   33.2450   44.9660 N   0  0  0  0  0  0  0  0  0  0  0  0
   45.5560   33.4260   46.0920 C   0  0  0  0  0  0  0  0  0  0  0  0
   44.7270   34.5060   46.2390 N   0  0  0  0  0  0  0  0  0  0  0  0
   47.1880   32.1510   47.4860 C   0  0  2  0  0  0  0  0  0  0  0  0
   45.7070   32.4100   47.1330 C   0  0  1  0  0  0  0  0  0  0  0  0
   45.2290   32.7630   48.3630 O   0  0  0  0  0  0  0  0  0  0  0  0
   45.7240   31.8690   49.2660 C   0  0  0  0  0  0  0  0  0  0  0  0
   46.9410   31.1980   48.6640 C   0  0  2  0  0  0  0  0  0  0  0  0
   47.7270   33.2790   48.0100 O   0  0  0  0  0  0  0  0  0  0  0  0
   48.0050   31.1050   49.5190 O   0  0  0  0  0  0  0  0  0  0  0  0
   45.1920   36.2580   43.0030 C   0  0  0  0  0  0  0  0  0  0  0  0
   43.8450   36.1150   42.4360 N   0  0  0  0  0  0  0  0  0  0  0  0
   43.9749   36.2659   45.3295 H   0  0  0  0  0  0  0  0  0  0  0  0
   46.8008   33.9323   43.0268 H   0  0  0  0  0  0  0  0  0  0  0  0
   47.8321   31.8129   46.6608 H   0  0  0  0  0  0  0  0  0  0  0  0
   45.1632   31.5655   46.6845 H   0  0  0  0  0  0  0  0  0  0  0  0
   46.0092   32.3943   50.1894 H   0  0  0  0  0  0  0  0  0  0  0  0
   44.9597   31.1154   49.5065 H   0  0  0  0  0  0  0  0  0  0  0  0
   46.7977   30.1415   48.3933 H   0  0  0  0  0  0  0  0  0  0  0  0
   47.7027   33.2281   48.9984 H   0  0  0  0  0  0  0  0  0  0  0  0
   47.6805   31.1334   50.4539 H   0  0  0  0  0  0  0  0  0  0  0  0
   45.3031   37.2567   43.4505 H   0  0  0  0  0  0  0  0  0  0  0  0
   45.9498   36.1386   42.2146 H   0  0  0  0  0  0  0  0  0  0  0  0
   43.1572   36.0420   43.1992 H   0  0  0  0  0  0  0  0  0  0  0  0
   43.6277   36.9376   41.8555 H   0  0  0  0  0  0  0  0  0  0  0  0
  1  6  2  0
  2  1  1  0
  3  2  2  0
  3  4  1  0
  4  5  2  0
  5  6  1  0
  5  8  1  0
  7 12  1  0
  7 11  1  0
  8  7  1  0
  8  9  1  0
  9 10  1  0
 11 10  1  0
 11 13  1  0
 14  2  1  0
 15 14  1  0
  1 16  1  0
  3 17  1  0
  7 18  1  6
  8 19  1  6
 10 20  1  0
 10 21  1  0
 11 22  1  6
 12 23  1  0
 13 24  1  0
 14 25  1  0
 14 26  1  0
 15 27  1  0
 15 28  1  0
M  ISO  8  16  14  17  14  18  13  19  13  20  13  21  13  22  13  23   3
M  ISO  5  24   3  25   8  26   8  27   5  28   5
M  END
>  <minimizedAffinity>  (1) 
-5.47391653

>  <minimizedRMSD>  (1) 
0.123829015

$$$$
