
     RDKit          3D

 36 38  0  0  1  0  0  0  0  0999 V2000
   45.0050   34.9080   44.9010 C   0  0  0  0  0  0  0  0  0  0  0  0
   45.9150   34.7090   43.8540 C   0  0  0  0  0  0  0  0  0  0  0  0
   46.8060   33.6260   43.9620 C   0  0  0  0  0  0  0  0  0  0  0  0
   46.7500   32.8320   45.0540 N   0  0  0  0  0  0  0  0  0  0  0  0
   45.8630   33.0530   46.0430 C   0  0  0  0  0  0  0  0  0  0  0  0
   44.9850   34.0830   45.9840 N   0  0  0  0  0  0  0  0  0  0  0  0
   47.3260   31.8190   47.6480 C   0  0  2  0  0  0  0  0  0  0  0  0
   45.8910   32.1310   47.1740 C   0  0  1  0  0  0  0  0  0  0  0  0
   45.3750   32.6270   48.3420 O   0  0  0  0  0  0  0  0  0  0  0  0
   45.7450   31.7760   49.3450 C   0  0  0  0  0  0  0  0  0  0  0  0
   46.9530   30.9930   48.8860 C   0  0  2  0  0  0  0  0  0  0  0  0
   47.9150   32.9570   48.0970 O   0  0  0  0  0  0  0  0  0  0  0  0
   47.9600   30.9250   49.8130 O   0  0  0  0  0  0  0  0  0  0  0  0
   45.8770   35.6530   42.7440 C   0  0  0  0  0  0  0  0  0  0  0  0
   44.9340   35.1640   41.7120 C   0  0  0  0  0  0  0  0  0  0  0  0
   43.6670   35.6880   41.5850 C   0  0  0  0  0  0  0  0  0  0  0  0
   42.7870   35.2310   40.6220 C   0  0  0  0  0  0  0  0  0  0  0  0
   43.1950   34.2250   39.7690 C   0  0  0  0  0  0  0  0  0  0  0  0
   44.4700   33.7020   39.8990 C   0  0  0  0  0  0  0  0  0  0  0  0
   45.3740   34.1500   40.8670 C   0  0  0  0  0  0  0  0  0  0  0  0
   44.2941   35.7457   44.8469 H   0  0  0  0  0  0  0  0  0  0  0  0
   47.5398   33.4277   43.1669 H   0  0  0  0  0  0  0  0  0  0  0  0
   47.9926   31.3664   46.8992 H   0  0  0  0  0  0  0  0  0  0  0  0
   45.3204   31.2852   46.7628 H   0  0  0  0  0  0  0  0  0  0  0  0
   45.9971   32.3527   50.2472 H   0  0  0  0  0  0  0  0  0  0  0  0
   44.9184   31.0902   49.5824 H   0  0  0  0  0  0  0  0  0  0  0  0
   46.7638   29.9251   48.7022 H   0  0  0  0  0  0  0  0  0  0  0  0
   47.9163   32.9595   49.0870 H   0  0  0  0  0  0  0  0  0  0  0  0
   47.5725   30.9512   50.7237 H   0  0  0  0  0  0  0  0  0  0  0  0
   45.5434   36.6354   43.1095 H   0  0  0  0  0  0  0  0  0  0  0  0
   46.8823   35.7462   42.3074 H   0  0  0  0  0  0  0  0  0  0  0  0
   43.3473   36.4900   42.2666 H   0  0  0  0  0  0  0  0  0  0  0  0
   41.7784   35.6617   40.5367 H   0  0  0  0  0  0  0  0  0  0  0  0
   42.5140   33.8431   38.9942 H   0  0  0  0  0  0  0  0  0  0  0  0
   44.7847   32.9017   39.2131 H   0  0  0  0  0  0  0  0  0  0  0  0
   46.3833   33.7219   40.9561 H   0  0  0  0  0  0  0  0  0  0  0  0
  1  6  2  0
  2  3  2  0
  2  1  1  0
  3  4  1  0
  4  5  2  0
  5  8  1  0
  6  5  1  0
  7 12  1  0
  7 11  1  0
  8  7  1  0
  8  9  1  0
  9 10  1  0
 11 10  1  0
 11 13  1  0
 14  2  1  0
 15 14  1  0
 16 15  2  0
 17 16  1  0
 18 19  1  0
 18 17  2  0
 19 20  2  0
 20 15  1  0
  1 21  1  0
  3 22  1  0
  7 23  1  6
  8 24  1  6
 10 25  1  0
 10 26  1  0
 11 27  1  6
 12 28  1  0
 13 29  1  0
 14 30  1  0
 14 31  1  0
 16 32  1  0
 17 33  1  0
 18 34  1  0
 19 35  1  0
 20 36  1  0
M  ISO  8  21  14  22  14  23  13  24  13  25  13  26  13  27  13  28   3
M  ISO  8  29   3  30   8  31   8  32  14  33  14  34  14  35  14  36  14
M  END
>  <minimizedAffinity>  (1) 
-6.34588099

>  <minimizedRMSD>  (1) 
0.966870129

$$$$
