
     RDKit          3D

 25 27  0  0  1  0  0  0  0  0999 V2000
   44.6670   34.0270   41.3010 C   0  0  1  0  0  0  0  0  0  0  0  0
   45.8850   34.0600   40.4360 C   0  0  2  0  0  0  0  0  0  0  0  0
   45.2410   32.7680   40.7490 C   0  0  0  0  0  0  0  0  0  0  0  0
   44.4630   35.6050   43.2040 C   0  0  0  0  0  0  0  0  0  0  0  0
   44.7870   34.3190   42.7600 C   0  0  0  0  0  0  0  0  0  0  0  0
   45.2070   33.3830   43.6940 C   0  0  0  0  0  0  0  0  0  0  0  0
   45.2820   33.7750   45.0060 N   0  0  0  0  0  0  0  0  0  0  0  0
   44.9610   35.0260   45.3930 C   0  0  0  0  0  0  0  0  0  0  0  0
   44.5420   35.9670   44.4840 N   0  0  0  0  0  0  0  0  0  0  0  0
   47.1730   34.3590   41.0070 C   0  0  0  0  0  0  0  0  0  0  0  0
   47.9600   34.7690   40.1510 O   0  0  0  0  0  0  0  0  0  0  0  0
   48.3270   34.5580   41.8760 C   0  0  0  0  0  0  0  0  0  0  0  0
   49.2970   34.7810   42.6630 N   0  0  0  0  0  0  0  0  0  0  0  0
   50.4260   34.1050   42.5420 C   0  0  0  0  0  0  0  0  0  0  0  0
   50.1890   33.2990   41.5170 N   0  0  0  0  0  0  0  0  0  0  0  0
   48.9780   33.6210   41.2000 N   0  0  0  0  0  0  0  0  0  0  0  0
   43.6794   34.5108   41.2794 H   0  0  0  0  0  0  0  0  0  0  0  0
   46.1617   34.5945   39.5153 H   0  0  0  0  0  0  0  0  0  0  0  0
   44.7030   32.2183   39.9626 H   0  0  0  0  0  0  0  0  0  0  0  0
   45.5828   31.8167   41.1828 H   0  0  0  0  0  0  0  0  0  0  0  0
   44.1290   36.3488   42.4657 H   0  0  0  0  0  0  0  0  0  0  0  0
   45.4715   32.3589   43.3917 H   0  0  0  0  0  0  0  0  0  0  0  0
   45.0360   35.2982   46.4561 H   0  0  0  0  0  0  0  0  0  0  0  0
   51.3413   34.1906   43.1461 H   0  0  0  0  0  0  0  0  0  0  0  0
   50.8085   32.5984   41.0854 H   0  0  0  0  0  0  0  0  0  0  0  0
  1  5  1  0
  2  3  1  0
  2 10  1  0
  2  1  1  0
  3  1  1  0
  4  9  2  0
  5  4  1  0
  5  6  2  0
  6  7  1  0
  7  8  2  0
  9  8  1  0
 10 12  1  0
 11 10  2  0
 12 13  1  0
 14 13  2  0
 15 14  1  0
 16 15  1  0
 16 12  2  0
  1 17  1  6
  2 18  1  6
  3 19  1  0
  3 20  1  0
  4 21  1  0
  6 22  1  0
  8 23  1  0
 14 24  1  0
 15 25  1  0
M  ISO  8  17  13  18  13  19  13  20  13  21  14  22  14  23  14  24  14
M  ISO  1  25   9
M  END
>  <minimizedAffinity>  (1) 
-4.4860487

>  <minimizedRMSD>  (1) 
1.77263641

$$$$
