
     RDKit          3D

 52 55  0  0  1  0  0  0  0  0999 V2000
   44.9680   34.9120   45.0610 C   0  0  0  0  0  0  0  0  0  0  0  0
   45.7450   34.6260   43.9460 C   0  0  0  0  0  0  0  0  0  0  0  0
   46.5330   33.4790   44.0120 C   0  0  0  0  0  0  0  0  0  0  0  0
   46.5420   32.6820   45.1020 N   0  0  0  0  0  0  0  0  0  0  0  0
   45.7660   32.9980   46.1710 C   0  0  0  0  0  0  0  0  0  0  0  0
   44.9860   34.1020   46.1550 N   0  0  0  0  0  0  0  0  0  0  0  0
   47.2680   31.7650   47.7230 C   0  0  2  0  0  0  0  0  0  0  0  0
   45.7970   32.1040   47.3260 C   0  0  1  0  0  0  0  0  0  0  0  0
   45.3840   32.6310   48.4990 O   0  0  0  0  0  0  0  0  0  0  0  0
   45.7990   31.7970   49.5000 C   0  0  0  0  0  0  0  0  0  0  0  0
   46.9540   30.9580   48.9800 C   0  0  2  0  0  0  0  0  0  0  0  0
   47.9170   32.8760   48.1060 O   0  0  0  0  0  0  0  0  0  0  0  0
   48.0000   30.8550   49.8470 O   0  0  0  0  0  0  0  0  0  0  0  0
   45.7380   35.4710   42.7700 C   0  0  0  0  0  0  0  0  0  0  0  0
   44.5930   35.1580   41.9080 C   0  0  0  0  0  0  0  0  0  0  0  0
   43.2890   35.5750   42.1150 C   0  0  0  0  0  0  0  0  0  0  0  0
   42.2570   35.2150   41.2680 C   0  0  0  0  0  0  0  0  0  0  0  0
   42.5410   34.4060   40.1740 C   0  0  0  0  0  0  0  0  0  0  0  0
   43.8570   33.9800   39.9590 C   0  0  0  0  0  0  0  0  0  0  0  0
   44.9020   34.3590   40.8330 C   0  0  0  0  0  0  0  0  0  0  0  0
   46.1300   33.8380   40.2480 C   0  0  0  0  0  0  0  0  0  0  0  0
   46.3900   32.3990   40.7590 C   0  0  0  0  0  0  0  0  0  0  0  0
   47.8950   32.1210   40.6860 C   0  0  0  0  0  0  0  0  0  0  0  0
   48.5430   32.8900   39.5750 C   0  0  0  0  0  0  0  0  0  0  0  0
   48.5570   34.3510   39.9200 C   0  0  0  0  0  0  0  0  0  0  0  0
   47.2930   34.6680   40.6960 C   0  0  0  0  0  0  0  0  0  0  0  0
   44.3282   35.8068   45.0601 H   0  0  0  0  0  0  0  0  0  0  0  0
   47.1658   33.2151   43.1518 H   0  0  0  0  0  0  0  0  0  0  0  0
   47.8777   31.2916   46.9393 H   0  0  0  0  0  0  0  0  0  0  0  0
   45.1531   31.2827   46.9784 H   0  0  0  0  0  0  0  0  0  0  0  0
   46.1313   32.3910   50.3641 H   0  0  0  0  0  0  0  0  0  0  0  0
   44.9711   31.1449   49.8150 H   0  0  0  0  0  0  0  0  0  0  0  0
   46.7283   29.8940   48.8159 H   0  0  0  0  0  0  0  0  0  0  0  0
   47.9422   32.9192   49.0947 H   0  0  0  0  0  0  0  0  0  0  0  0
   47.6623   30.8883   50.7770 H   0  0  0  0  0  0  0  0  0  0  0  0
   45.6761   36.5237   43.0831 H   0  0  0  0  0  0  0  0  0  0  0  0
   46.6639   35.2928   42.2034 H   0  0  0  0  0  0  0  0  0  0  0  0
   43.0666   36.2140   42.9823 H   0  0  0  0  0  0  0  0  0  0  0  0
   41.2304   35.5624   41.4565 H   0  0  0  0  0  0  0  0  0  0  0  0
   41.7395   34.1035   39.4840 H   0  0  0  0  0  0  0  0  0  0  0  0
   44.0824   33.3386   39.0942 H   0  0  0  0  0  0  0  0  0  0  0  0
   46.0222   33.8560   39.1534 H   0  0  0  0  0  0  0  0  0  0  0  0
   46.0459   32.3071   41.7997 H   0  0  0  0  0  0  0  0  0  0  0  0
   45.8426   31.6743   40.1384 H   0  0  0  0  0  0  0  0  0  0  0  0
   48.3588   32.4122   41.6400 H   0  0  0  0  0  0  0  0  0  0  0  0
   48.0384   31.0478   40.4919 H   0  0  0  0  0  0  0  0  0  0  0  0
   47.9761   32.7383   38.6446 H   0  0  0  0  0  0  0  0  0  0  0  0
   49.5752   32.5357   39.4370 H   0  0  0  0  0  0  0  0  0  0  0  0
   49.4391   34.5795   40.5362 H   0  0  0  0  0  0  0  0  0  0  0  0
   48.6014   34.9570   39.0031 H   0  0  0  0  0  0  0  0  0  0  0  0
   47.0462   35.7303   40.5521 H   0  0  0  0  0  0  0  0  0  0  0  0
   47.4816   34.4403   41.7555 H   0  0  0  0  0  0  0  0  0  0  0  0
  1  6  2  0
  2  3  2  0
  2  1  1  0
  3  4  1  0
  4  5  2  0
  5  8  1  0
  6  5  1  0
  7 12  1  0
  7 11  1  0
  8  7  1  0
  8  9  1  0
  9 10  1  0
 11 10  1  0
 11 13  1  0
 14  2  1  0
 15 16  2  0
 15 14  1  0
 17 16  1  0
 18 17  2  0
 19 18  1  0
 19 20  2  0
 20 15  1  0
 21 26  1  0
 21 22  1  0
 21 20  1  0
 23 22  1  0
 24 25  1  0
 24 23  1  0
 25 26  1  0
  1 27  1  0
  3 28  1  0
  7 29  1  6
  8 30  1  6
 10 31  1  0
 10 32  1  0
 11 33  1  6
 12 34  1  0
 13 35  1  0
 14 36  1  0
 14 37  1  0
 16 38  1  0
 17 39  1  0
 18 40  1  0
 19 41  1  0
 21 42  1  0
 22 43  1  0
 22 44  1  0
 23 45  1  0
 23 46  1  0
 24 47  1  0
 24 48  1  0
 25 49  1  0
 25 50  1  0
 26 51  1  0
 26 52  1  0
M  ISO  8  27  14  28  14  29  13  30  13  31  13  32  13  33  13  34   3
M  ISO  8  35   3  36   8  37   8  38  14  39  14  40  14  41  14  42  13
M  ISO  8  43  13  44  13  45  13  46  13  47  13  48  13  49  13  50  13
M  ISO  2  51  13  52  13
M  END
>  <minimizedAffinity>  (1) 
-7.01421022

>  <minimizedRMSD>  (1) 
0.632357419

$$$$
