
     RDKit          3D

 46 49  0  0  1  0  0  0  0  0999 V2000
   46.1980   35.4010   42.5870 C   0  0  0  0  0  0  0  0  0  0  0  0
   45.2680   34.9300   41.5530 C   0  0  0  0  0  0  0  0  0  0  0  0
   43.9610   35.3400   41.4200 C   0  0  0  0  0  0  0  0  0  0  0  0
   43.1250   34.8600   40.4380 C   0  0  0  0  0  0  0  0  0  0  0  0
   43.6280   33.9250   39.5510 C   0  0  0  0  0  0  0  0  0  0  0  0
   44.9540   33.5010   39.6750 C   0  0  0  0  0  0  0  0  0  0  0  0
   45.7870   34.0030   40.6810 C   0  0  0  0  0  0  0  0  0  0  0  0
   47.0320   33.3600   40.4810 N   0  0  0  0  0  0  0  0  0  0  0  0
   47.0390   32.0090   40.7040 C   0  0  0  0  0  0  0  0  0  0  0  0
   48.1650   31.1950   40.5490 C   0  0  0  0  0  0  0  0  0  0  0  0
   49.3020   31.8260   40.1490 C   0  0  0  0  0  0  0  0  0  0  0  0
   50.3560   31.1430   39.9910 O   0  0  0  0  0  0  0  0  0  0  0  0
   49.3190   33.1490   39.9240 N   0  0  0  0  0  0  0  0  0  0  0  0
   48.2170   33.8580   40.0910 C   0  0  0  0  0  0  0  0  0  0  0  0
   48.2370   35.0960   39.8760 O   0  0  0  0  0  0  0  0  0  0  0  0
   45.1490   34.7520   44.7380 C   0  0  0  0  0  0  0  0  0  0  0  0
   46.1240   34.5520   43.7660 C   0  0  0  0  0  0  0  0  0  0  0  0
   47.0200   33.5030   43.9740 C   0  0  0  0  0  0  0  0  0  0  0  0
   46.9410   32.7170   45.0680 N   0  0  0  0  0  0  0  0  0  0  0  0
   45.9750   32.9450   45.9940 C   0  0  0  0  0  0  0  0  0  0  0  0
   45.0840   33.9550   45.8310 N   0  0  0  0  0  0  0  0  0  0  0  0
   47.3480   31.7550   47.6920 C   0  0  2  0  0  0  0  0  0  0  0  0
   45.9200   32.0670   47.1620 C   0  0  1  0  0  0  0  0  0  0  0  0
   45.3900   32.6140   48.2820 O   0  0  0  0  0  0  0  0  0  0  0  0
   45.7170   31.8170   49.3380 C   0  0  0  0  0  0  0  0  0  0  0  0
   46.9150   30.9700   48.9370 C   0  0  2  0  0  0  0  0  0  0  0  0
   47.9490   32.8830   48.1120 O   0  0  0  0  0  0  0  0  0  0  0  0
   47.8980   30.9060   49.8940 O   0  0  0  0  0  0  0  0  0  0  0  0
   45.9359   36.4320   42.8667 H   0  0  0  0  0  0  0  0  0  0  0  0
   47.2220   35.3644   42.1868 H   0  0  0  0  0  0  0  0  0  0  0  0
   43.5677   36.0833   42.1291 H   0  0  0  0  0  0  0  0  0  0  0  0
   42.0851   35.2102   40.3604 H   0  0  0  0  0  0  0  0  0  0  0  0
   42.9887   33.5181   38.7537 H   0  0  0  0  0  0  0  0  0  0  0  0
   45.3507   32.7578   38.9676 H   0  0  0  0  0  0  0  0  0  0  0  0
   46.1000   31.5345   41.0252 H   0  0  0  0  0  0  0  0  0  0  0  0
   48.1336   30.1119   40.7386 H   0  0  0  0  0  0  0  0  0  0  0  0
   50.1890   33.6103   39.6219 H   0  0  0  0  0  0  0  0  0  0  0  0
   44.4214   35.5681   44.6172 H   0  0  0  0  0  0  0  0  0  0  0  0
   47.8077   33.3126   43.2302 H   0  0  0  0  0  0  0  0  0  0  0  0
   48.0345   31.2747   46.9792 H   0  0  0  0  0  0  0  0  0  0  0  0
   45.3279   31.2245   46.7751 H   0  0  0  0  0  0  0  0  0  0  0  0
   45.9742   32.4383   50.2086 H   0  0  0  0  0  0  0  0  0  0  0  0
   44.8671   31.1724   49.6067 H   0  0  0  0  0  0  0  0  0  0  0  0
   46.6955   29.9034   48.7815 H   0  0  0  0  0  0  0  0  0  0  0  0
   47.9594   32.9025   49.1018 H   0  0  0  0  0  0  0  0  0  0  0  0
   47.4852   30.9329   50.7934 H   0  0  0  0  0  0  0  0  0  0  0  0
  1 17  1  0
  2  1  1  0
  3  2  2  0
  4  3  1  0
  5  6  1  0
  5  4  2  0
  6  7  2  0
  7  2  1  0
  8  7  1  0
  8  9  1  0
 10  9  2  0
 11 10  1  0
 12 11  2  0
 13 14  1  0
 13 11  1  0
 14  8  1  0
 15 14  2  0
 16 21  2  0
 17 18  2  0
 17 16  1  0
 18 19  1  0
 19 20  2  0
 20 23  1  0
 21 20  1  0
 22 27  1  0
 22 26  1  0
 23 22  1  0
 23 24  1  0
 24 25  1  0
 26 25  1  0
 26 28  1  0
  1 29  1  0
  1 30  1  0
  3 31  1  0
  4 32  1  0
  5 33  1  0
  6 34  1  0
  9 35  1  0
 10 36  1  0
 13 37  1  0
 16 38  1  0
 18 39  1  0
 22 40  1  6
 23 41  1  6
 25 42  1  0
 25 43  1  0
 26 44  1  6
 27 45  1  0
 28 46  1  0
M  ISO  8  29   8  30   8  31  14  32  14  33  14  34  14  35  14  36  14
M  ISO  8  37   9  38  14  39  14  40  13  41  13  42  13  43  13  44  13
M  ISO  2  45   3  46   3
M  END
>  <minimizedAffinity>  (1) 
-7.27920866

>  <minimizedRMSD>  (1) 
0.59279424

$$$$
