
     RDKit          3D

 47 51  0  0  1  0  0  0  0  0999 V2000
   45.6990   35.4800   42.7360 C   0  0  0  0  0  0  0  0  0  0  0  0
   44.6850   35.0160   41.7790 C   0  0  0  0  0  0  0  0  0  0  0  0
   43.3290   35.2170   41.9000 C   0  0  0  0  0  0  0  0  0  0  0  0
   42.4210   34.7540   40.9800 C   0  0  0  0  0  0  0  0  0  0  0  0
   42.8870   34.0610   39.8940 C   0  0  0  0  0  0  0  0  0  0  0  0
   44.2560   33.8440   39.7470 C   0  0  0  0  0  0  0  0  0  0  0  0
   45.1660   34.3210   40.6900 C   0  0  0  0  0  0  0  0  0  0  0  0
   46.4740   33.9650   40.2650 N   0  0  0  0  0  0  0  0  0  0  0  0
   47.6490   34.0080   40.9600 C   0  0  0  0  0  0  0  0  0  0  0  0
   48.6800   33.5990   40.2350 N   0  0  0  0  0  0  0  0  0  0  0  0
   48.1830   33.2760   39.0270 C   0  0  0  0  0  0  0  0  0  0  0  0
   48.7060   32.7950   37.8440 C   0  0  0  0  0  0  0  0  0  0  0  0
   47.9420   32.5590   36.7630 N   0  0  0  0  0  0  0  0  0  0  0  0
   46.6120   32.7820   36.7900 C   0  0  0  0  0  0  0  0  0  0  0  0
   46.0630   33.2570   37.9450 N   0  0  0  0  0  0  0  0  0  0  0  0
   46.8010   33.4970   39.0230 C   0  0  0  0  0  0  0  0  0  0  0  0
   44.9790   34.9510   45.0420 C   0  0  0  0  0  0  0  0  0  0  0  0
   45.7160   34.6270   43.9080 C   0  0  0  0  0  0  0  0  0  0  0  0
   46.4630   33.4510   43.9570 C   0  0  0  0  0  0  0  0  0  0  0  0
   46.4690   32.6610   45.0550 N   0  0  0  0  0  0  0  0  0  0  0  0
   45.7350   33.0130   46.1410 C   0  0  0  0  0  0  0  0  0  0  0  0
   44.9900   34.1540   46.1430 N   0  0  0  0  0  0  0  0  0  0  0  0
   47.2260   31.7790   47.7010 C   0  0  2  0  0  0  0  0  0  0  0  0
   45.7630   32.1310   47.3050 C   0  0  1  0  0  0  0  0  0  0  0  0
   45.3570   32.6800   48.4730 O   0  0  0  0  0  0  0  0  0  0  0  0
   45.7630   31.8580   49.4850 C   0  0  0  0  0  0  0  0  0  0  0  0
   46.8850   30.9860   48.9690 C   0  0  2  0  0  0  0  0  0  0  0  0
   47.8920   32.8860   48.0680 O   0  0  0  0  0  0  0  0  0  0  0  0
   47.9450   30.8770   49.8280 O   0  0  0  0  0  0  0  0  0  0  0  0
   45.4646   36.5105   43.0412 H   0  0  0  0  0  0  0  0  0  0  0  0
   46.6872   35.4438   42.2542 H   0  0  0  0  0  0  0  0  0  0  0  0
   42.9560   35.7733   42.7726 H   0  0  0  0  0  0  0  0  0  0  0  0
   41.3441   34.9353   41.1119 H   0  0  0  0  0  0  0  0  0  0  0  0
   42.1833   33.6772   39.1407 H   0  0  0  0  0  0  0  0  0  0  0  0
   44.6247   33.2873   38.8728 H   0  0  0  0  0  0  0  0  0  0  0  0
   47.7303   34.3443   42.0042 H   0  0  0  0  0  0  0  0  0  0  0  0
   49.7864   32.5976   37.7832 H   0  0  0  0  0  0  0  0  0  0  0  0
   45.9877   32.5864   35.9057 H   0  0  0  0  0  0  0  0  0  0  0  0
   44.3752   35.8705   45.0481 H   0  0  0  0  0  0  0  0  0  0  0  0
   47.0618   33.1585   43.0819 H   0  0  0  0  0  0  0  0  0  0  0  0
   47.8363   31.2906   46.9271 H   0  0  0  0  0  0  0  0  0  0  0  0
   45.1124   31.3102   46.9688 H   0  0  0  0  0  0  0  0  0  0  0  0
   46.1206   32.4609   50.3328 H   0  0  0  0  0  0  0  0  0  0  0  0
   44.9238   31.2332   49.8248 H   0  0  0  0  0  0  0  0  0  0  0  0
   46.6196   29.9288   48.8207 H   0  0  0  0  0  0  0  0  0  0  0  0
   47.9242   32.9394   49.0560 H   0  0  0  0  0  0  0  0  0  0  0  0
   47.6178   30.9106   50.7618 H   0  0  0  0  0  0  0  0  0  0  0  0
  1 18  1  0
  2  3  2  0
  2  1  1  0
  4  3  1  0
  5  4  2  0
  6  5  1  0
  6  7  2  0
  7  2  1  0
  8  7  1  0
  8  9  1  0
 10  9  2  0
 11 10  1  0
 12 11  2  0
 13 14  2  0
 13 12  1  0
 14 15  1  0
 15 16  2  0
 16 11  1  0
 16  8  1  0
 17 22  2  0
 18 19  2  0
 18 17  1  0
 19 20  1  0
 20 21  2  0
 21 22  1  0
 21 24  1  0
 23 28  1  0
 23 27  1  0
 24 23  1  0
 24 25  1  0
 25 26  1  0
 27 26  1  0
 27 29  1  0
  1 30  1  0
  1 31  1  0
  3 32  1  0
  4 33  1  0
  5 34  1  0
  6 35  1  0
  9 36  1  0
 12 37  1  0
 14 38  1  0
 17 39  1  0
 19 40  1  0
 23 41  1  6
 24 42  1  6
 26 43  1  0
 26 44  1  0
 27 45  1  6
 28 46  1  0
 29 47  1  0
M  ISO  8  30   8  31   8  32  14  33  14  34  14  35  14  36  14  37  14
M  ISO  8  38  14  39  14  40  14  41  13  42  13  43  13  44  13  45  13
M  ISO  2  46   3  47   3
M  END
>  <minimizedAffinity>  (1) 
-7.25337696

>  <minimizedRMSD>  (1) 
0.770589471

$$$$
