
     RDKit          3D

 40 42  0  0  1  0  0  0  0  0999 V2000
   45.1540   34.7800   44.7380 C   0  0  0  0  0  0  0  0  0  0  0  0
   46.1010   34.5560   43.7440 C   0  0  0  0  0  0  0  0  0  0  0  0
   46.9690   33.4820   43.9380 C   0  0  0  0  0  0  0  0  0  0  0  0
   46.8890   32.7020   45.0350 N   0  0  0  0  0  0  0  0  0  0  0  0
   45.9490   32.9560   45.9810 C   0  0  0  0  0  0  0  0  0  0  0  0
   45.0810   33.9890   45.8410 N   0  0  0  0  0  0  0  0  0  0  0  0
   47.3320   31.7710   47.6740 C   0  0  2  0  0  0  0  0  0  0  0  0
   45.8980   32.0800   47.1490 C   0  0  1  0  0  0  0  0  0  0  0  0
   45.3810   32.6230   48.2760 O   0  0  0  0  0  0  0  0  0  0  0  0
   45.7140   31.7990   49.3170 C   0  0  0  0  0  0  0  0  0  0  0  0
   46.9170   30.9680   48.9130 C   0  0  2  0  0  0  0  0  0  0  0  0
   47.9280   32.9000   48.0940 O   0  0  0  0  0  0  0  0  0  0  0  0
   47.8880   30.9250   49.8790 O   0  0  0  0  0  0  0  0  0  0  0  0
   46.1590   35.4110   42.5720 C   0  0  0  0  0  0  0  0  0  0  0  0
   45.1220   35.0350   41.6040 C   0  0  0  0  0  0  0  0  0  0  0  0
   43.8620   35.6180   41.5620 C   0  0  0  0  0  0  0  0  0  0  0  0
   42.8710   35.2590   40.6820 C   0  0  0  0  0  0  0  0  0  0  0  0
   43.1720   34.2390   39.7820 C   0  0  0  0  0  0  0  0  0  0  0  0
   44.4350   33.6430   39.8120 C   0  0  0  0  0  0  0  0  0  0  0  0
   45.4260   34.0430   40.7290 C   0  0  0  0  0  0  0  0  0  0  0  0
   47.8950   33.6660   40.0390 C   0  0  0  0  0  0  0  0  0  0  0  0
   48.1130   34.8120   39.6320 O   0  0  0  0  0  0  0  0  0  0  0  0
   46.6280   33.3460   40.5430 N   0  0  0  0  0  0  0  0  0  0  0  0
   44.4480   35.6165   44.6289 H   0  0  0  0  0  0  0  0  0  0  0  0
   47.7359   33.2664   43.1794 H   0  0  0  0  0  0  0  0  0  0  0  0
   48.0178   31.2987   46.9553 H   0  0  0  0  0  0  0  0  0  0  0  0
   45.2993   31.2420   46.7626 H   0  0  0  0  0  0  0  0  0  0  0  0
   45.9616   32.4027   50.2026 H   0  0  0  0  0  0  0  0  0  0  0  0
   44.8673   31.1400   49.5594 H   0  0  0  0  0  0  0  0  0  0  0  0
   46.7255   29.8979   48.7449 H   0  0  0  0  0  0  0  0  0  0  0  0
   47.9382   32.9193   49.0838 H   0  0  0  0  0  0  0  0  0  0  0  0
   47.4645   30.9438   50.7736 H   0  0  0  0  0  0  0  0  0  0  0  0
   46.0044   36.4559   42.8792 H   0  0  0  0  0  0  0  0  0  0  0  0
   47.1446   35.2946   42.0976 H   0  0  0  0  0  0  0  0  0  0  0  0
   43.6435   36.4207   42.2816 H   0  0  0  0  0  0  0  0  0  0  0  0
   41.8879   35.7524   40.6873 H   0  0  0  0  0  0  0  0  0  0  0  0
   42.4197   33.9050   39.0523 H   0  0  0  0  0  0  0  0  0  0  0  0
   44.6622   32.8374   39.0982 H   0  0  0  0  0  0  0  0  0  0  0  0
   48.6881   32.9045   40.0059 H   0  0  0  0  0  0  0  0  0  0  0  0
   46.5642   32.3649   40.8501 H   0  0  0  0  0  0  0  0  0  0  0  0
  1  6  2  0
  2  3  2  0
  2  1  1  0
  3  4  1  0
  4  5  2  0
  5  8  1  0
  6  5  1  0
  7 12  1  0
  7 11  1  0
  8  7  1  0
  8  9  1  0
  9 10  1  0
 11 10  1  0
 11 13  1  0
 14  2  1  0
 15 14  1  0
 16 15  2  0
 17 16  1  0
 18 19  1  0
 18 17  2  0
 19 20  2  0
 20 15  1  0
 21 23  1  0
 22 21  2  0
 23 20  1  0
  1 24  1  0
  3 25  1  0
  7 26  1  6
  8 27  1  6
 10 28  1  0
 10 29  1  0
 11 30  1  6
 12 31  1  0
 13 32  1  0
 14 33  1  0
 14 34  1  0
 16 35  1  0
 17 36  1  0
 18 37  1  0
 19 38  1  0
 21 39  1  0
 23 40  1  0
M  ISO  8  24  14  25  14  26  13  27  13  28  13  29  13  30  13  31   3
M  ISO  8  32   3  33   8  34   8  35  14  36  14  37  14  38  14  39   6
M  END
>  <minimizedAffinity>  (1) 
-6.5626111

>  <minimizedRMSD>  (1) 
0.750914514

$$$$
