
     RDKit          3D

 48 51  0  0  1  0  0  0  0  0999 V2000
   44.9550   34.9420   45.0400 C   0  0  0  0  0  0  0  0  0  0  0  0
   45.8020   34.7350   43.9580 C   0  0  0  0  0  0  0  0  0  0  0  0
   46.6560   33.6350   44.0270 C   0  0  0  0  0  0  0  0  0  0  0  0
   46.6570   32.8090   45.0940 N   0  0  0  0  0  0  0  0  0  0  0  0
   45.8140   33.0450   46.1310 C   0  0  0  0  0  0  0  0  0  0  0  0
   44.9660   34.1020   46.1120 N   0  0  0  0  0  0  0  0  0  0  0  0
   47.3090   31.8060   47.6860 C   0  0  2  0  0  0  0  0  0  0  0  0
   45.8470   32.1210   47.2620 C   0  0  1  0  0  0  0  0  0  0  0  0
   45.3830   32.6070   48.4370 O   0  0  0  0  0  0  0  0  0  0  0  0
   45.7850   31.7700   49.4350 C   0  0  0  0  0  0  0  0  0  0  0  0
   46.9730   30.9690   48.9250 C   0  0  2  0  0  0  0  0  0  0  0  0
   47.9230   32.9250   48.1120 O   0  0  0  0  0  0  0  0  0  0  0  0
   48.0050   30.8740   49.8160 O   0  0  0  0  0  0  0  0  0  0  0  0
   45.7720   35.6380   42.8220 C   0  0  0  0  0  0  0  0  0  0  0  0
   44.7290   35.2270   41.8630 C   0  0  0  0  0  0  0  0  0  0  0  0
   43.4180   35.6290   41.9090 C   0  0  0  0  0  0  0  0  0  0  0  0
   42.4770   35.2160   40.9990 C   0  0  0  0  0  0  0  0  0  0  0  0
   42.8690   34.3650   40.0000 C   0  0  0  0  0  0  0  0  0  0  0  0
   44.1970   33.9450   39.9360 C   0  0  0  0  0  0  0  0  0  0  0  0
   45.1490   34.3720   40.8690 C   0  0  0  0  0  0  0  0  0  0  0  0
   46.4030   33.7970   40.5290 N   0  0  0  0  0  0  0  0  0  0  0  0
   47.6960   34.3480   40.0820 C   0  0  0  0  0  0  0  0  0  0  0  0
   48.3410   33.2120   39.3100 C   0  0  0  0  0  0  0  0  0  0  0  0
   48.0240   32.0630   40.2600 C   0  0  0  0  0  0  0  0  0  0  0  0
   46.5910   32.3380   40.5770 C   0  0  0  0  0  0  0  0  0  0  0  0
   44.2644   35.7982   45.0305 H   0  0  0  0  0  0  0  0  0  0  0  0
   47.3446   33.4360   43.1926 H   0  0  0  0  0  0  0  0  0  0  0  0
   47.9495   31.3616   46.9100 H   0  0  0  0  0  0  0  0  0  0  0  0
   45.2404   31.2888   46.8753 H   0  0  0  0  0  0  0  0  0  0  0  0
   46.0809   32.3561   50.3175 H   0  0  0  0  0  0  0  0  0  0  0  0
   44.9646   31.0963   49.7230 H   0  0  0  0  0  0  0  0  0  0  0  0
   46.7681   29.9050   48.7354 H   0  0  0  0  0  0  0  0  0  0  0  0
   47.9314   32.9404   49.1018 H   0  0  0  0  0  0  0  0  0  0  0  0
   47.6482   30.9068   50.7389 H   0  0  0  0  0  0  0  0  0  0  0  0
   45.5575   36.6574   43.1754 H   0  0  0  0  0  0  0  0  0  0  0  0
   46.7496   35.6092   42.3186 H   0  0  0  0  0  0  0  0  0  0  0  0
   43.1068   36.3136   42.7118 H   0  0  0  0  0  0  0  0  0  0  0  0
   41.4345   35.5598   41.0703 H   0  0  0  0  0  0  0  0  0  0  0  0
   42.1410   34.0152   39.2532 H   0  0  0  0  0  0  0  0  0  0  0  0
   44.5044   33.2605   39.1316 H   0  0  0  0  0  0  0  0  0  0  0  0
   47.5433   35.2228   39.4329 H   0  0  0  0  0  0  0  0  0  0  0  0
   48.3185   34.6926   40.9209 H   0  0  0  0  0  0  0  0  0  0  0  0
   47.8776   33.0698   38.3226 H   0  0  0  0  0  0  0  0  0  0  0  0
   49.4066   33.3479   39.0731 H   0  0  0  0  0  0  0  0  0  0  0  0
   48.1482   31.0870   39.7682 H   0  0  0  0  0  0  0  0  0  0  0  0
   48.6801   32.0109   41.1414 H   0  0  0  0  0  0  0  0  0  0  0  0
   46.3487   31.9603   41.5813 H   0  0  0  0  0  0  0  0  0  0  0  0
   45.9298   31.8367   39.8548 H   0  0  0  0  0  0  0  0  0  0  0  0
  1  6  2  0
  2  3  2  0
  2  1  1  0
  3  4  1  0
  4  5  2  0
  5  8  1  0
  6  5  1  0
  7 12  1  0
  7 11  1  0
  8  7  1  0
  8  9  1  0
  9 10  1  0
 11 10  1  0
 11 13  1  0
 14  2  1  0
 15 16  2  0
 15 14  1  0
 17 16  1  0
 18 17  2  0
 19 18  1  0
 19 20  2  0
 20 15  1  0
 21 25  1  0
 21 20  1  0
 22 21  1  0
 23 22  1  0
 23 24  1  0
 24 25  1  0
  1 26  1  0
  3 27  1  0
  7 28  1  6
  8 29  1  6
 10 30  1  0
 10 31  1  0
 11 32  1  6
 12 33  1  0
 13 34  1  0
 14 35  1  0
 14 36  1  0
 16 37  1  0
 17 38  1  0
 18 39  1  0
 19 40  1  0
 22 41  1  0
 22 42  1  0
 23 43  1  0
 23 44  1  0
 24 45  1  0
 24 46  1  0
 25 47  1  0
 25 48  1  0
M  ISO  8  26  14  27  14  28  13  29  13  30  13  31  13  32  13  33   3
M  ISO  8  34   3  35   8  36   8  37  14  38  14  39  14  40  14  41  13
M  ISO  7  42  13  43  13  44  13  45  13  46  13  47  13  48  13
M  END
>  <minimizedAffinity>  (1) 
-6.82095718

>  <minimizedRMSD>  (1) 
0.428126574

$$$$
