
     RDKit          3D

 25 26  0  0  0  0  0  0  0  0999 V2000
   46.2900   34.8840   43.1200 C   0  0  0  0  0  0  0  0  0  0  0  0
   46.4770   33.9190   44.1440 C   0  0  0  0  0  0  0  0  0  0  0  0
   45.6550   34.0090   45.2690 C   0  0  0  0  0  0  0  0  0  0  0  0
   44.7450   34.9990   45.3120 N   0  0  0  0  0  0  0  0  0  0  0  0
   44.5840   35.9090   44.3220 C   0  0  0  0  0  0  0  0  0  0  0  0
   45.3620   35.8470   43.2240 N   0  0  0  0  0  0  0  0  0  0  0  0
   45.7870   33.0830   46.3270 N   0  0  0  0  0  0  0  0  0  0  0  0
   46.5020   31.8230   46.2660 C   0  0  0  0  0  0  0  0  0  0  0  0
   47.1250   31.7920   47.6660 C   0  0  0  0  0  0  0  0  0  0  0  0
   45.9260   32.1940   48.5060 C   0  0  0  0  0  0  0  0  0  0  0  0
   45.2200   33.2510   47.6510 C   0  0  0  0  0  0  0  0  0  0  0  0
   47.1900   34.7570   41.9230 C   0  0  0  0  0  0  0  0  0  0  0  0
   46.4710   34.6250   40.7570 F   0  0  0  0  0  0  0  0  0  0  0  0
   48.0210   35.8710   41.9000 F   0  0  0  0  0  0  0  0  0  0  0  0
   48.0330   33.6660   42.0880 F   0  0  0  0  0  0  0  0  0  0  0  0
   47.2395   33.1312   44.0547 H   0  0  0  0  0  0  0  0  0  0  0  0
   43.8208   36.6958   44.4141 H   0  0  0  0  0  0  0  0  0  0  0  0
   45.8195   30.9754   46.1056 H   0  0  0  0  0  0  0  0  0  0  0  0
   47.2236   31.7432   45.4396 H   0  0  0  0  0  0  0  0  0  0  0  0
   47.4869   30.7869   47.9282 H   0  0  0  0  0  0  0  0  0  0  0  0
   48.0099   32.4335   47.7903 H   0  0  0  0  0  0  0  0  0  0  0  0
   45.2671   31.3319   48.6867 H   0  0  0  0  0  0  0  0  0  0  0  0
   46.2094   32.5703   49.5000 H   0  0  0  0  0  0  0  0  0  0  0  0
   45.4227   34.2614   48.0357 H   0  0  0  0  0  0  0  0  0  0  0  0
   44.1265   33.1321   47.6565 H   0  0  0  0  0  0  0  0  0  0  0  0
  1  6  2  0
  1  2  1  0
  2  3  2  0
  3  4  1  0
  3  7  1  0
  5  4  2  0
  6  5  1  0
  7 11  1  0
  8  7  1  0
  8  9  1  0
  9 10  1  0
 11 10  1  0
 12 15  1  0
 12  1  1  0
 13 12  1  0
 14 12  1  0
  2 16  1  0
  5 17  1  0
  8 18  1  0
  8 19  1  0
  9 20  1  0
  9 21  1  0
 10 22  1  0
 10 23  1  0
 11 24  1  0
 11 25  1  0
M  ISO  8  16  14  17  14  18  13  19  13  20  13  21  13  22  13  23  13
M  ISO  2  24  13  25  13
M  END
>  <minimizedAffinity>  (1) 
-5.22496367

>  <minimizedRMSD>  (1) 
1.83101583

$$$$
