
     RDKit          3D

 37 39  0  0  1  0  0  0  0  0999 V2000
   45.0780   34.8750   44.7940 C   0  0  0  0  0  0  0  0  0  0  0  0
   45.9970   34.6400   43.7680 C   0  0  0  0  0  0  0  0  0  0  0  0
   46.8580   33.5540   43.9290 C   0  0  0  0  0  0  0  0  0  0  0  0
   46.8040   32.7650   45.0260 N   0  0  0  0  0  0  0  0  0  0  0  0
   45.8950   33.0280   45.9990 C   0  0  0  0  0  0  0  0  0  0  0  0
   45.0300   34.0780   45.8940 N   0  0  0  0  0  0  0  0  0  0  0  0
   47.3150   31.8270   47.6540 C   0  0  2  0  0  0  0  0  0  0  0  0
   45.8730   32.1380   47.1560 C   0  0  1  0  0  0  0  0  0  0  0  0
   45.3560   32.6480   48.2940 O   0  0  0  0  0  0  0  0  0  0  0  0
   45.7140   31.8550   49.3350 C   0  0  0  0  0  0  0  0  0  0  0  0
   46.9050   31.0190   48.8980 C   0  0  2  0  0  0  0  0  0  0  0  0
   47.9130   32.9530   48.0760 O   0  0  0  0  0  0  0  0  0  0  0  0
   47.8970   30.9410   49.8310 O   0  0  0  0  0  0  0  0  0  0  0  0
   46.0290   35.4970   42.6020 C   0  0  0  0  0  0  0  0  0  0  0  0
   44.9870   35.1020   41.6440 C   0  0  0  0  0  0  0  0  0  0  0  0
   43.7100   35.6010   41.6100 C   0  0  0  0  0  0  0  0  0  0  0  0
   42.7860   35.1720   40.6730 C   0  0  0  0  0  0  0  0  0  0  0  0
   43.1500   34.2200   39.7490 C   0  0  0  0  0  0  0  0  0  0  0  0
   44.4460   33.7030   39.7700 C   0  0  0  0  0  0  0  0  0  0  0  0
   45.3740   34.1480   40.7260 C   0  0  0  0  0  0  0  0  0  0  0  0
   46.5620   33.4860   40.5250 O   0  0  0  0  0  0  0  0  0  0  0  0
   44.3801   35.7211   44.7099 H   0  0  0  0  0  0  0  0  0  0  0  0
   47.5980   33.3344   43.1453 H   0  0  0  0  0  0  0  0  0  0  0  0
   47.9939   31.3608   46.9248 H   0  0  0  0  0  0  0  0  0  0  0  0
   45.2791   31.3001   46.7621 H   0  0  0  0  0  0  0  0  0  0  0  0
   45.9906   32.4759   50.1998 H   0  0  0  0  0  0  0  0  0  0  0  0
   44.8762   31.2047   49.6268 H   0  0  0  0  0  0  0  0  0  0  0  0
   46.6857   29.9547   48.7273 H   0  0  0  0  0  0  0  0  0  0  0  0
   47.9224   32.9707   49.0658 H   0  0  0  0  0  0  0  0  0  0  0  0
   47.5005   30.9722   50.7376 H   0  0  0  0  0  0  0  0  0  0  0  0
   45.8586   36.5382   42.9133 H   0  0  0  0  0  0  0  0  0  0  0  0
   47.0120   35.4020   42.1176 H   0  0  0  0  0  0  0  0  0  0  0  0
   43.4124   36.3619   42.3465 H   0  0  0  0  0  0  0  0  0  0  0  0
   41.7682   35.5892   40.6672 H   0  0  0  0  0  0  0  0  0  0  0  0
   42.4252   33.8691   38.9996 H   0  0  0  0  0  0  0  0  0  0  0  0
   44.7428   32.9421   39.0332 H   0  0  0  0  0  0  0  0  0  0  0  0
   47.3381   33.6731   41.1104 H   0  0  0  0  0  0  0  0  0  0  0  0
  1  6  2  0
  2  3  2  0
  2  1  1  0
  3  4  1  0
  4  5  2  0
  5  8  1  0
  6  5  1  0
  7 12  1  0
  7 11  1  0
  8  7  1  0
  8  9  1  0
  9 10  1  0
 11 10  1  0
 11 13  1  0
 14  2  1  0
 15 14  1  0
 16 15  2  0
 17 16  1  0
 18 19  1  0
 18 17  2  0
 19 20  2  0
 20 15  1  0
 21 20  1  0
  1 22  1  0
  3 23  1  0
  7 24  1  6
  8 25  1  6
 10 26  1  0
 10 27  1  0
 11 28  1  6
 12 29  1  0
 13 30  1  0
 14 31  1  0
 14 32  1  0
 16 33  1  0
 17 34  1  0
 18 35  1  0
 19 36  1  0
 21 37  1  0
M  ISO  8  22  14  23  14  24  13  25  13  26  13  27  13  28  13  29   3
M  ISO  8  30   3  31   8  32   8  33  14  34  14  35  14  36  14  37   3
M  END
>  <minimizedAffinity>  (1) 
-6.41812086

>  <minimizedRMSD>  (1) 
0.110932983

$$$$
