
     RDKit          3D

 29 31  0  0  0  0  0  0  0  0999 V2000
   47.7500   34.9380   42.3860 C   0  0  0  0  0  0  0  0  0  0  0  0
   47.9930   33.7960   43.1430 C   0  0  0  0  0  0  0  0  0  0  0  0
   47.0120   33.2340   43.9340 C   0  0  0  0  0  0  0  0  0  0  0  0
   45.8030   33.8880   43.9160 N   0  0  0  0  0  0  0  0  0  0  0  0
   45.5640   34.9920   43.1900 C   0  0  0  0  0  0  0  0  0  0  0  0
   46.5400   35.4970   42.4380 N   0  0  0  0  0  0  0  0  0  0  0  0
   47.0590   32.1120   44.8380 C   0  0  0  0  0  0  0  0  0  0  0  0
   47.7780   30.9870   44.4180 C   0  0  0  0  0  0  0  0  0  0  0  0
   47.9450   29.8390   45.1320 C   0  0  0  0  0  0  0  0  0  0  0  0
   47.3750   29.7440   46.3680 C   0  0  0  0  0  0  0  0  0  0  0  0
   46.6550   30.8040   46.8550 C   0  0  0  0  0  0  0  0  0  0  0  0
   46.1070   30.7320   48.1150 C   0  0  0  0  0  0  0  0  0  0  0  0
   45.4020   31.7980   48.6650 C   0  0  0  0  0  0  0  0  0  0  0  0
   45.2840   32.9410   47.8690 C   0  0  0  0  0  0  0  0  0  0  0  0
   45.8440   32.9570   46.6350 C   0  0  0  0  0  0  0  0  0  0  0  0
   46.5390   31.9220   46.0700 C   0  0  0  0  0  0  0  0  0  0  0  0
   48.8650   35.4510   41.5470 C   0  0  0  0  0  0  0  0  0  0  0  0
   48.5640   35.3590   40.1970 F   0  0  0  0  0  0  0  0  0  0  0  0
   49.1390   36.7420   41.9330 F   0  0  0  0  0  0  0  0  0  0  0  0
   50.0240   34.7190   41.8060 F   0  0  0  0  0  0  0  0  0  0  0  0
   48.9893   33.3309   43.1101 H   0  0  0  0  0  0  0  0  0  0  0  0
   44.5750   35.4729   43.2161 H   0  0  0  0  0  0  0  0  0  0  0  0
   48.2491   31.0340   43.4251 H   0  0  0  0  0  0  0  0  0  0  0  0
   48.5291   29.0032   44.7193 H   0  0  0  0  0  0  0  0  0  0  0  0
   47.4918   28.8283   46.9662 H   0  0  0  0  0  0  0  0  0  0  0  0
   46.2292   29.8095   48.7016 H   0  0  0  0  0  0  0  0  0  0  0  0
   44.9614   31.7442   49.6715 H   0  0  0  0  0  0  0  0  0  0  0  0
   44.7402   33.8216   48.2417 H   0  0  0  0  0  0  0  0  0  0  0  0
   45.7310   33.8752   46.0399 H   0  0  0  0  0  0  0  0  0  0  0  0
  1  6  2  0
  1  2  1  0
  2  3  2  0
  3  7  1  0
  4  3  1  0
  5  4  2  0
  6  5  1  0
  7 16  1  0
  8  7  2  0
  8  9  1  0
  9 10  2  0
 10 11  1  0
 11 12  2  0
 12 13  1  0
 14 13  2  0
 15 14  1  0
 16 15  2  0
 16 11  1  0
 17 20  1  0
 17 19  1  0
 17  1  1  0
 18 17  1  0
  2 21  1  0
  5 22  1  0
  8 23  1  0
  9 24  1  0
 10 25  1  0
 12 26  1  0
 13 27  1  0
 14 28  1  0
 15 29  1  0
M  ISO  8  21  14  22  14  23  14  24  14  25  14  26  14  27  14  28  14
M  ISO  1  29  14
M  END
>  <minimizedAffinity>  (1) 
-6.11458778

>  <minimizedRMSD>  (1) 
0.672354043

$$$$
