
     RDKit          3D

 22 23  0  0  0  0  0  0  0  0999 V2000
   47.5920   34.9600   42.3350 C   0  0  0  0  0  0  0  0  0  0  0  0
   47.8170   33.9790   43.3130 C   0  0  0  0  0  0  0  0  0  0  0  0
   46.7610   33.6540   44.1660 C   0  0  0  0  0  0  0  0  0  0  0  0
   45.5850   34.2950   44.0060 N   0  0  0  0  0  0  0  0  0  0  0  0
   45.3910   35.2420   43.0520 C   0  0  0  0  0  0  0  0  0  0  0  0
   46.3930   35.5740   42.2170 N   0  0  0  0  0  0  0  0  0  0  0  0
   46.9250   32.6430   45.2060 C   0  0  0  0  0  0  0  0  0  0  0  0
   46.6150   32.9480   46.4920 C   0  0  0  0  0  0  0  0  0  0  0  0
   46.7720   31.9860   47.4770 C   0  0  0  0  0  0  0  0  0  0  0  0
   47.2450   30.7390   47.0910 C   0  0  0  0  0  0  0  0  0  0  0  0
   47.5570   30.4460   45.7670 C   0  0  0  0  0  0  0  0  0  0  0  0
   47.3820   31.4250   44.8580 N   0  0  0  0  0  0  0  0  0  0  0  0
   48.7440   35.2910   41.4330 C   0  0  0  0  0  0  0  0  0  0  0  0
   48.3830   35.2030   40.1020 F   0  0  0  0  0  0  0  0  0  0  0  0
   49.1970   36.5550   41.7420 F   0  0  0  0  0  0  0  0  0  0  0  0
   49.7960   34.4130   41.6990 F   0  0  0  0  0  0  0  0  0  0  0  0
   48.7941   33.4822   43.4044 H   0  0  0  0  0  0  0  0  0  0  0  0
   44.4135   35.7384   42.9616 H   0  0  0  0  0  0  0  0  0  0  0  0
   46.2423   33.9503   46.7500 H   0  0  0  0  0  0  0  0  0  0  0  0
   46.5303   32.2028   48.5280 H   0  0  0  0  0  0  0  0  0  0  0  0
   47.3771   29.9589   47.8552 H   0  0  0  0  0  0  0  0  0  0  0  0
   47.9318   29.4542   45.4740 H   0  0  0  0  0  0  0  0  0  0  0  0
  1  2  2  0
  2  3  1  0
  3  7  1  0
  4  3  2  0
  5  4  1  0
  6  1  1  0
  6  5  2  0
  7  8  2  0
  8  9  1  0
 10  9  2  0
 11 10  1  0
 12  7  1  0
 12 11  2  0
 13 16  1  0
 13 15  1  0
 13  1  1  0
 14 13  1  0
  2 17  1  0
  5 18  1  0
  8 19  1  0
  9 20  1  0
 10 21  1  0
 11 22  1  0
M  ISO  6  17  14  18  14  19  14  20  14  21  14  22  14
M  END
>  <minimizedAffinity>  (1) 
-5.06331873

>  <minimizedRMSD>  (1) 
0.272943437

$$$$
