
     RDKit          3D

 27 28  0  0  0  0  0  0  0  0999 V2000
   47.1380   34.6730   42.7330 C   0  0  0  0  0  0  0  0  0  0  0  0
   47.4820   33.6440   43.6180 C   0  0  0  0  0  0  0  0  0  0  0  0
   46.6010   33.3670   44.6810 C   0  0  0  0  0  0  0  0  0  0  0  0
   45.4810   34.1120   44.7770 N   0  0  0  0  0  0  0  0  0  0  0  0
   45.1660   35.1020   43.9130 C   0  0  0  0  0  0  0  0  0  0  0  0
   46.0010   35.3750   42.8950 N   0  0  0  0  0  0  0  0  0  0  0  0
   46.9420   32.2850   45.6300 C   0  0  0  0  0  0  0  0  0  0  0  0
   46.0540   31.0970   45.3480 C   0  0  0  0  0  0  0  0  0  0  0  0
   45.8980   30.3560   46.6560 C   0  0  0  0  0  0  0  0  0  0  0  0
   45.1220   31.1220   47.4960 O   0  0  0  0  0  0  0  0  0  0  0  0
   45.6130   32.3800   47.7600 C   0  0  0  0  0  0  0  0  0  0  0  0
   46.8910   32.7340   47.0530 C   0  0  0  0  0  0  0  0  0  0  0  0
   48.0980   34.9490   41.6060 C   0  0  0  0  0  0  0  0  0  0  0  0
   47.4920   34.8250   40.3850 F   0  0  0  0  0  0  0  0  0  0  0  0
   48.6290   36.2090   41.7910 F   0  0  0  0  0  0  0  0  0  0  0  0
   49.1740   34.0610   41.7050 F   0  0  0  0  0  0  0  0  0  0  0  0
   48.4112   33.0700   43.4870 H   0  0  0  0  0  0  0  0  0  0  0  0
   44.2375   35.6778   44.0409 H   0  0  0  0  0  0  0  0  0  0  0  0
   47.9888   31.9838   45.4770 H   0  0  0  0  0  0  0  0  0  0  0  0
   45.0726   31.4345   44.9833 H   0  0  0  0  0  0  0  0  0  0  0  0
   46.4913   30.4490   44.5741 H   0  0  0  0  0  0  0  0  0  0  0  0
   45.4091   29.3867   46.4785 H   0  0  0  0  0  0  0  0  0  0  0  0
   46.8837   30.1756   47.1096 H   0  0  0  0  0  0  0  0  0  0  0  0
   44.8473   33.1123   47.4641 H   0  0  0  0  0  0  0  0  0  0  0  0
   45.8467   32.3950   48.8348 H   0  0  0  0  0  0  0  0  0  0  0  0
   47.7266   32.2656   47.5937 H   0  0  0  0  0  0  0  0  0  0  0  0
   46.9556   33.8321   47.0429 H   0  0  0  0  0  0  0  0  0  0  0  0
  1  6  2  0
  1  2  1  0
  2  3  2  0
  3  4  1  0
  3  7  1  0
  5  4  2  0
  6  5  1  0
  7 12  1  0
  8  7  1  0
  8  9  1  0
  9 10  1  0
 10 11  1  0
 12 11  1  0
 13 16  1  0
 13 15  1  0
 13  1  1  0
 14 13  1  0
  2 17  1  0
  5 18  1  0
  7 19  1  0
  8 20  1  0
  8 21  1  0
  9 22  1  0
  9 23  1  0
 11 24  1  0
 11 25  1  0
 12 26  1  0
 12 27  1  0
M  ISO  8  17  14  18  14  19  13  20  13  21  13  22  13  23  13  24  13
M  ISO  3  25  13  26  13  27  13
M  END
>  <minimizedAffinity>  (1) 
-4.98411417

>  <minimizedRMSD>  (1) 
0.841278672

$$$$
