
     RDKit          3D

 12 12  0  0  0  0  0  0  0  0999 V2000
   45.2040   35.9650   43.3720 C   0  0  0  0  0  0  0  0  0  0  0  0
   46.0920   34.9030   43.1520 C   0  0  0  0  0  0  0  0  0  0  0  0
   46.2510   33.9580   44.1660 C   0  0  0  0  0  0  0  0  0  0  0  0
   45.5410   34.1140   45.3130 N   0  0  0  0  0  0  0  0  0  0  0  0
   44.6870   35.1540   45.4990 C   0  0  0  0  0  0  0  0  0  0  0  0
   44.5270   36.0670   44.5290 N   0  0  0  0  0  0  0  0  0  0  0  0
   46.8080   34.8060   41.9140 C   0  0  0  0  0  0  0  0  0  0  0  0
   47.9190   35.3860   41.8280 O   0  0  0  0  0  0  0  0  0  0  0  0
   45.0594   36.7238   42.5889 H   0  0  0  0  0  0  0  0  0  0  0  0
   46.9356   33.1064   44.0393 H   0  0  0  0  0  0  0  0  0  0  0  0
   44.1284   35.2473   46.4420 H   0  0  0  0  0  0  0  0  0  0  0  0
   46.3969   34.2406   41.0647 H   0  0  0  0  0  0  0  0  0  0  0  0
  1  6  2  0
  2  1  1  0
  2  3  2  0
  3  4  1  0
  4  5  2  0
  6  5  1  0
  7  2  1  0
  8  7  2  0
  1  9  1  0
  3 10  1  0
  5 11  1  0
  7 12  1  0
M  ISO  4   9  14  10  14  11  14  12   6
M  END
>  <minimizedAffinity>  (1) 
-3.06731629

>  <minimizedRMSD>  (1) 
1.40447807

$$$$
