
     RDKit          3D

 19 19  0  0  0  0  0  0  0  0999 V2000
   47.6020   34.9820   42.3380 C   0  0  0  0  0  0  0  0  0  0  0  0
   47.8040   33.9370   43.2680 C   0  0  0  0  0  0  0  0  0  0  0  0
   46.7610   33.6090   44.1370 C   0  0  0  0  0  0  0  0  0  0  0  0
   45.6130   34.3110   44.0380 N   0  0  0  0  0  0  0  0  0  0  0  0
   45.4430   35.3060   43.1400 C   0  0  0  0  0  0  0  0  0  0  0  0
   46.4360   35.6400   42.2910 N   0  0  0  0  0  0  0  0  0  0  0  0
   48.7500   35.2920   41.4330 C   0  0  0  0  0  0  0  0  0  0  0  0
   48.4000   35.2000   40.1180 F   0  0  0  0  0  0  0  0  0  0  0  0
   49.2090   36.5700   41.7610 F   0  0  0  0  0  0  0  0  0  0  0  0
   49.8220   34.4350   41.7180 F   0  0  0  0  0  0  0  0  0  0  0  0
   47.0240   32.5100   45.0920 C   0  0  0  0  0  0  0  0  0  0  0  0
   46.5940   32.8320   46.4870 C   0  0  0  0  0  0  0  0  0  0  0  0
   48.7603   33.3948   43.3065 H   0  0  0  0  0  0  0  0  0  0  0  0
   44.4867   35.8481   43.1011 H   0  0  0  0  0  0  0  0  0  0  0  0
   46.4797   31.6154   44.7552 H   0  0  0  0  0  0  0  0  0  0  0  0
   48.1115   32.3459   45.1129 H   0  0  0  0  0  0  0  0  0  0  0  0
   47.2632   32.3309   47.2019 H   0  0  0  0  0  0  0  0  0  0  0  0
   46.6395   33.9200   46.6428 H   0  0  0  0  0  0  0  0  0  0  0  0
   45.5628   32.4821   46.6428 H   0  0  0  0  0  0  0  0  0  0  0  0
  1  2  2  0
  2  3  1  0
  3 11  1  0
  4  3  2  0
  5  4  1  0
  6  1  1  0
  6  5  2  0
  7 10  1  0
  7  9  1  0
  7  1  1  0
  8  7  1  0
 11 12  1  0
  2 13  1  0
  5 14  1  0
 11 15  1  0
 11 16  1  0
 12 17  1  0
 12 18  1  0
 12 19  1  0
M  ISO  7  13  14  14  14  15   8  16   8  17   8  18   8  19   8
M  END
>  <minimizedAffinity>  (1) 
-4.23684835

>  <minimizedRMSD>  (1) 
0.15462558

$$$$
