
     RDKit          3D

 41 44  0  0  1  0  0  0  0  0999 V2000
   45.8280   32.9860   46.2590 N   0  0  0  0  0  0  0  0  0  0  0  0
   45.1600   33.2060   47.5470 C   0  0  0  0  0  0  0  0  0  0  0  0
   45.8800   32.3390   48.5560 C   0  0  0  0  0  0  0  0  0  0  0  0
   45.5700   30.9000   48.2480 C   0  0  0  0  0  0  0  0  0  0  0  0
   45.9040   30.6360   46.8140 C   0  0  0  0  0  0  0  0  0  0  0  0
   46.5370   31.7790   46.0950 C   0  0  1  0  0  0  0  0  0  0  0  0
   45.4910   30.8850   43.9450 C   0  0  0  0  0  0  0  0  0  0  0  0
   46.6290   31.2570   44.6780 C   0  0  0  0  0  0  0  0  0  0  0  0
   47.8690   31.0810   44.0390 C   0  0  0  0  0  0  0  0  0  0  0  0
   47.9640   30.5730   42.7710 C   0  0  0  0  0  0  0  0  0  0  0  0
   49.0800   30.3520   42.0430 N   0  0  0  0  0  0  0  0  0  0  0  0
   48.6870   29.8510   40.8680 N   0  0  0  0  0  0  0  0  0  0  0  0
   47.3350   29.7570   40.8610 C   0  0  0  0  0  0  0  0  0  0  0  0
   46.8430   30.2200   42.0830 C   0  0  0  0  0  0  0  0  0  0  0  0
   45.6140   30.3780   42.6710 C   0  0  0  0  0  0  0  0  0  0  0  0
   46.4200   34.8840   43.1460 C   0  0  0  0  0  0  0  0  0  0  0  0
   46.5760   33.9370   44.1600 C   0  0  0  0  0  0  0  0  0  0  0  0
   45.7250   33.9590   45.2480 C   0  0  0  0  0  0  0  0  0  0  0  0
   44.7710   34.9130   45.2890 N   0  0  0  0  0  0  0  0  0  0  0  0
   44.6200   35.8380   44.3060 C   0  0  0  0  0  0  0  0  0  0  0  0
   45.4510   35.8180   43.2310 N   0  0  0  0  0  0  0  0  0  0  0  0
   47.3380   34.7930   41.9640 C   0  0  0  0  0  0  0  0  0  0  0  0
   46.6350   34.6040   40.7790 F   0  0  0  0  0  0  0  0  0  0  0  0
   48.0710   35.9610   41.9310 F   0  0  0  0  0  0  0  0  0  0  0  0
   48.2210   33.7350   42.1420 F   0  0  0  0  0  0  0  0  0  0  0  0
   45.2309   34.2649   47.8362 H   0  0  0  0  0  0  0  0  0  0  0  0
   44.0919   32.9490   47.4909 H   0  0  0  0  0  0  0  0  0  0  0  0
   46.9645   32.5091   48.4860 H   0  0  0  0  0  0  0  0  0  0  0  0
   45.5491   32.5885   49.5749 H   0  0  0  0  0  0  0  0  0  0  0  0
   46.1714   30.2447   48.8952 H   0  0  0  0  0  0  0  0  0  0  0  0
   44.5038   30.6984   48.4287 H   0  0  0  0  0  0  0  0  0  0  0  0
   46.5972   29.7828   46.7763 H   0  0  0  0  0  0  0  0  0  0  0  0
   44.9478   30.4436   46.3054 H   0  0  0  0  0  0  0  0  0  0  0  0
   47.5253   32.0699   46.4806 H   0  0  0  0  0  0  0  0  0  0  0  0
   44.4926   30.9996   44.3924 H   0  0  0  0  0  0  0  0  0  0  0  0
   48.7894   31.3595   44.5732 H   0  0  0  0  0  0  0  0  0  0  0  0
   50.0499   30.5349   42.3375 H   0  0  0  0  0  0  0  0  0  0  0  0
   46.7246   29.3777   40.0282 H   0  0  0  0  0  0  0  0  0  0  0  0
   44.7090   30.0941   42.1138 H   0  0  0  0  0  0  0  0  0  0  0  0
   47.3705   33.1792   44.0931 H   0  0  0  0  0  0  0  0  0  0  0  0
   43.8293   36.5992   44.3797 H   0  0  0  0  0  0  0  0  0  0  0  0
  1  2  1  0
  2  3  1  0
  4  3  1  0
  5  4  1  0
  6  1  1  0
  6  5  1  0
  7  8  2  0
  8  6  1  0
  9  8  1  0
 10  9  2  0
 11 10  1  0
 12 11  1  0
 13 12  2  0
 13 14  1  0
 14 15  2  0
 14 10  1  0
 15  7  1  0
 16 21  2  0
 16 17  1  0
 17 18  2  0
 18 19  1  0
 18  1  1  0
 20 19  2  0
 21 20  1  0
 22 25  1  0
 22 16  1  0
 23 22  1  0
 24 22  1  0
  2 26  1  0
  2 27  1  0
  3 28  1  0
  3 29  1  0
  4 30  1  0
  4 31  1  0
  5 32  1  0
  5 33  1  0
  6 34  1  1
  7 35  1  0
  9 36  1  0
 11 37  1  0
 13 38  1  0
 15 39  1  0
 17 40  1  0
 20 41  1  0
M  ISO  8  26  13  27  13  28  13  29  13  30  13  31  13  32  13  33  13
M  ISO  8  34  13  35  14  36  14  37   9  38  14  39  14  40  14  41  14
M  END
>  <minimizedAffinity>  (1) 
-5.64905071

>  <minimizedRMSD>  (1) 
0.703089893

$$$$
