
     RDKit          3D

 30 31  0  0  1  0  0  0  0  0999 V2000
   45.5560   32.9710   46.5290 N   0  0  0  0  0  0  0  0  0  0  0  0
   45.0220   33.1820   47.8520 C   0  0  0  0  0  0  0  0  0  0  0  0
   45.7260   32.2320   48.7920 C   0  0  0  0  0  0  0  0  0  0  0  0
   45.2770   30.8380   48.4770 C   0  0  0  0  0  0  0  0  0  0  0  0
   45.4480   30.5720   46.9990 C   0  0  0  0  0  0  0  0  0  0  0  0
   46.1700   31.7060   46.3130 C   0  0  2  0  0  0  0  0  0  0  0  0
   46.0700   34.8200   43.3700 C   0  0  0  0  0  0  0  0  0  0  0  0
   46.1980   33.8100   44.3370 C   0  0  0  0  0  0  0  0  0  0  0  0
   45.4850   33.9280   45.5200 C   0  0  0  0  0  0  0  0  0  0  0  0
   44.6980   35.0180   45.6820 N   0  0  0  0  0  0  0  0  0  0  0  0
   44.5800   35.9870   44.7440 C   0  0  0  0  0  0  0  0  0  0  0  0
   45.2700   35.8840   43.5870 N   0  0  0  0  0  0  0  0  0  0  0  0
   46.8600   34.6470   42.1100 C   0  0  0  0  0  0  0  0  0  0  0  0
   46.0280   34.6300   40.9970 F   0  0  0  0  0  0  0  0  0  0  0  0
   47.7700   35.6890   42.0370 F   0  0  0  0  0  0  0  0  0  0  0  0
   47.6010   33.4770   42.1730 F   0  0  0  0  0  0  0  0  0  0  0  0
   47.5690   31.7200   46.6650 N   0  0  0  0  0  0  0  0  0  0  0  0
   45.2013   34.2207   48.1664 H   0  0  0  0  0  0  0  0  0  0  0  0
   43.9375   32.9985   47.8620 H   0  0  0  0  0  0  0  0  0  0  0  0
   46.8145   32.3119   48.6549 H   0  0  0  0  0  0  0  0  0  0  0  0
   45.4821   32.4816   49.8352 H   0  0  0  0  0  0  0  0  0  0  0  0
   45.8818   30.1202   49.0505 H   0  0  0  0  0  0  0  0  0  0  0  0
   44.2169   30.7257   48.7481 H   0  0  0  0  0  0  0  0  0  0  0  0
   46.0284   29.6469   46.8671 H   0  0  0  0  0  0  0  0  0  0  0  0
   44.4494   30.4754   46.5478 H   0  0  0  0  0  0  0  0  0  0  0  0
   46.0940   31.5184   45.2318 H   0  0  0  0  0  0  0  0  0  0  0  0
   46.8508   32.9427   44.1594 H   0  0  0  0  0  0  0  0  0  0  0  0
   43.9261   36.8533   44.9228 H   0  0  0  0  0  0  0  0  0  0  0  0
   47.6650   31.7210   47.6905 H   0  0  0  0  0  0  0  0  0  0  0  0
   48.0288   30.8836   46.2779 H   0  0  0  0  0  0  0  0  0  0  0  0
  1  2  1  0
  2  3  1  0
  4  3  1  0
  5  4  1  0
  6  1  1  0
  6 17  1  0
  6  5  1  0
  7 12  2  0
  7  8  1  0
  8  9  2  0
  9 10  1  0
  9  1  1  0
 11 10  2  0
 12 11  1  0
 13 16  1  0
 13  7  1  0
 14 13  1  0
 15 13  1  0
  2 18  1  0
  2 19  1  0
  3 20  1  0
  3 21  1  0
  4 22  1  0
  4 23  1  0
  5 24  1  0
  5 25  1  0
  6 26  1  6
  8 27  1  0
 11 28  1  0
 17 29  1  0
 17 30  1  0
M  ISO  8  18  13  19  13  20  13  21  13  22  13  23  13  24  13  25  13
M  ISO  5  26  13  27  14  28  14  29   5  30   5
M  END
>  <minimizedAffinity>  (1) 
-5.2832799

>  <minimizedRMSD>  (1) 
0.200652897

$$$$
