
     RDKit          3D

 42 44  0  0  1  0  0  0  0  0999 V2000
   45.7320   33.0020   46.3040 N   0  0  0  0  0  0  0  0  0  0  0  0
   45.1720   33.2600   47.6310 C   0  0  0  0  0  0  0  0  0  0  0  0
   45.8710   32.3160   48.5820 C   0  0  0  0  0  0  0  0  0  0  0  0
   45.4330   30.9140   48.2830 C   0  0  0  0  0  0  0  0  0  0  0  0
   45.6090   30.6400   46.8150 C   0  0  0  0  0  0  0  0  0  0  0  0
   46.3400   31.7320   46.0970 C   0  0  1  0  0  0  0  0  0  0  0  0
   46.5260   31.3430   44.7120 N   0  0  0  0  0  0  0  0  0  0  0  0
   47.7440   30.5420   44.6460 C   0  0  0  0  0  0  0  0  0  0  0  0
   48.1570   30.6590   43.1660 C   0  0  0  0  0  0  0  0  0  0  0  0
   47.1250   29.9600   42.4290 N   0  0  0  0  0  0  0  0  0  0  0  0
   45.7930   30.4140   42.6840 C   0  0  0  0  0  0  0  0  0  0  0  0
   45.4600   30.5450   44.1620 C   0  0  0  0  0  0  0  0  0  0  0  0
   46.3240   34.8740   43.1710 C   0  0  0  0  0  0  0  0  0  0  0  0
   46.4660   33.9190   44.1770 C   0  0  0  0  0  0  0  0  0  0  0  0
   45.6510   33.9670   45.2950 C   0  0  0  0  0  0  0  0  0  0  0  0
   44.7380   34.9670   45.3610 N   0  0  0  0  0  0  0  0  0  0  0  0
   44.6060   35.8980   44.3780 C   0  0  0  0  0  0  0  0  0  0  0  0
   45.4040   35.8450   43.2830 N   0  0  0  0  0  0  0  0  0  0  0  0
   47.2050   34.7440   41.9650 C   0  0  0  0  0  0  0  0  0  0  0  0
   46.4600   34.5960   40.8000 F   0  0  0  0  0  0  0  0  0  0  0  0
   48.0060   35.8650   41.9150 F   0  0  0  0  0  0  0  0  0  0  0  0
   48.0310   33.6320   42.1080 F   0  0  0  0  0  0  0  0  0  0  0  0
   45.3580   34.3033   47.9258 H   0  0  0  0  0  0  0  0  0  0  0  0
   44.0835   33.1017   47.6413 H   0  0  0  0  0  0  0  0  0  0  0  0
   46.9600   32.3987   48.4506 H   0  0  0  0  0  0  0  0  0  0  0  0
   45.6134   32.5738   49.6199 H   0  0  0  0  0  0  0  0  0  0  0  0
   46.0428   30.2068   48.8644 H   0  0  0  0  0  0  0  0  0  0  0  0
   44.3743   30.7929   48.5558 H   0  0  0  0  0  0  0  0  0  0  0  0
   46.1757   29.7044   46.6990 H   0  0  0  0  0  0  0  0  0  0  0  0
   44.6047   30.5710   46.3716 H   0  0  0  0  0  0  0  0  0  0  0  0
   47.3469   31.8664   46.5190 H   0  0  0  0  0  0  0  0  0  0  0  0
   48.5223   30.9510   45.3070 H   0  0  0  0  0  0  0  0  0  0  0  0
   47.5970   29.5023   44.9738 H   0  0  0  0  0  0  0  0  0  0  0  0
   48.2020   31.7147   42.8601 H   0  0  0  0  0  0  0  0  0  0  0  0
   49.1545   30.2333   42.9820 H   0  0  0  0  0  0  0  0  0  0  0  0
   47.1758   28.9613   42.6758 H   0  0  0  0  0  0  0  0  0  0  0  0
   45.6663   31.3993   42.2116 H   0  0  0  0  0  0  0  0  0  0  0  0
   45.1120   29.6564   42.2688 H   0  0  0  0  0  0  0  0  0  0  0  0
   45.4302   29.5554   44.6414 H   0  0  0  0  0  0  0  0  0  0  0  0
   44.4731   31.0024   44.3255 H   0  0  0  0  0  0  0  0  0  0  0  0
   47.2248   33.1283   44.0824 H   0  0  0  0  0  0  0  0  0  0  0  0
   43.8521   36.6936   44.4714 H   0  0  0  0  0  0  0  0  0  0  0  0
  1  2  1  0
  2  3  1  0
  4  3  1  0
  5  4  1  0
  6  1  1  0
  6  5  1  0
  7 12  1  0
  7  6  1  0
  8  7  1  0
  9  8  1  0
 10 11  1  0
 10  9  1  0
 11 12  1  0
 13 18  2  0
 13 14  1  0
 14 15  2  0
 15 16  1  0
 15  1  1  0
 17 16  2  0
 18 17  1  0
 19 22  1  0
 19 13  1  0
 20 19  1  0
 21 19  1  0
  2 23  1  0
  2 24  1  0
  3 25  1  0
  3 26  1  0
  4 27  1  0
  4 28  1  0
  5 29  1  0
  5 30  1  0
  6 31  1  1
  8 32  1  0
  8 33  1  0
  9 34  1  0
  9 35  1  0
 10 36  1  0
 11 37  1  0
 11 38  1  0
 12 39  1  0
 12 40  1  0
 14 41  1  0
 17 42  1  0
M  ISO  8  23  13  24  13  25  13  26  13  27  13  28  13  29  13  30  13
M  ISO  8  31  13  32  13  33  13  34  13  35  13  36   5  37  13  38  13
M  ISO  4  39  13  40  13  41  14  42  14
M  END
>  <minimizedAffinity>  (1) 
-5.50576973

>  <minimizedRMSD>  (1) 
0.302896351

$$$$
