
     RDKit          3D

 44 46  0  0  1  0  0  0  0  0999 V2000
   45.8540   31.8070   47.1590 N   0  0  0  0  0  0  0  0  0  0  0  0
   44.8230   32.2040   48.1120 C   0  0  0  0  0  0  0  0  0  0  0  0
   45.1550   31.5360   49.4180 C   0  0  0  0  0  0  0  0  0  0  0  0
   44.9880   30.0760   49.2960 C   0  0  0  0  0  0  0  0  0  0  0  0
   45.5320   29.5760   47.9920 C   0  0  0  0  0  0  0  0  0  0  0  0
   46.5400   30.6000   47.3960 C   0  0  2  0  0  0  0  0  0  0  0  0
   47.2270   33.1590   44.0010 C   0  0  0  0  0  0  0  0  0  0  0  0
   47.0120   32.3050   45.0850 C   0  0  0  0  0  0  0  0  0  0  0  0
   46.0730   32.6380   46.0430 C   0  0  0  0  0  0  0  0  0  0  0  0
   45.4020   33.7910   45.8760 N   0  0  0  0  0  0  0  0  0  0  0  0
   45.6080   34.6210   44.8250 C   0  0  0  0  0  0  0  0  0  0  0  0
   46.5260   34.2950   43.8890 N   0  0  0  0  0  0  0  0  0  0  0  0
   48.2730   32.7680   43.0150 C   0  0  0  0  0  0  0  0  0  0  0  0
   47.7780   32.6820   41.7450 F   0  0  0  0  0  0  0  0  0  0  0  0
   49.3290   33.6960   43.1190 F   0  0  0  0  0  0  0  0  0  0  0  0
   48.8620   31.5580   43.4180 F   0  0  0  0  0  0  0  0  0  0  0  0
   47.8250   30.5320   48.0980 C   0  0  0  0  0  0  0  0  0  0  0  0
   48.9600   29.7850   47.4360 C   0  0  0  0  0  0  0  0  0  0  0  0
   49.8640   29.2660   48.5220 C   0  0  0  0  0  0  0  0  0  0  0  0
   49.7830   30.0530   49.7680 C   0  0  0  0  0  0  0  0  0  0  0  0
   49.6140   31.5220   49.5230 C   0  0  0  0  0  0  0  0  0  0  0  0
   48.4710   31.8080   48.5660 C   0  0  0  0  0  0  0  0  0  0  0  0
   44.8227   33.2970   48.2355 H   0  0  0  0  0  0  0  0  0  0  0  0
   43.8248   31.9053   47.7594 H   0  0  0  0  0  0  0  0  0  0  0  0
   46.1972   31.7619   49.6878 H   0  0  0  0  0  0  0  0  0  0  0  0
   44.4770   31.9125   50.1981 H   0  0  0  0  0  0  0  0  0  0  0  0
   45.5236   29.5833   50.1209 H   0  0  0  0  0  0  0  0  0  0  0  0
   43.9137   29.8433   49.3377 H   0  0  0  0  0  0  0  0  0  0  0  0
   46.0448   28.6169   48.1572 H   0  0  0  0  0  0  0  0  0  0  0  0
   44.6992   29.4430   47.2857 H   0  0  0  0  0  0  0  0  0  0  0  0
   46.9161   30.3783   46.3863 H   0  0  0  0  0  0  0  0  0  0  0  0
   47.5872   31.3718   45.1759 H   0  0  0  0  0  0  0  0  0  0  0  0
   45.0318   35.5537   44.7345 H   0  0  0  0  0  0  0  0  0  0  0  0
   47.4007   29.9728   48.9449 H   0  0  0  0  0  0  0  0  0  0  0  0
   48.5623   28.9454   46.8470 H   0  0  0  0  0  0  0  0  0  0  0  0
   49.5154   30.4509   46.7591 H   0  0  0  0  0  0  0  0  0  0  0  0
   49.5818   28.2266   48.7455 H   0  0  0  0  0  0  0  0  0  0  0  0
   50.8974   29.3418   48.1527 H   0  0  0  0  0  0  0  0  0  0  0  0
   48.9239   29.6943   50.3539 H   0  0  0  0  0  0  0  0  0  0  0  0
   50.7328   29.9163   50.3058 H   0  0  0  0  0  0  0  0  0  0  0  0
   49.4088   32.0212   50.4815 H   0  0  0  0  0  0  0  0  0  0  0  0
   50.5416   31.9011   49.0694 H   0  0  0  0  0  0  0  0  0  0  0  0
   48.8603   32.3544   47.6943 H   0  0  0  0  0  0  0  0  0  0  0  0
   47.7157   32.4094   49.0932 H   0  0  0  0  0  0  0  0  0  0  0  0
  1  6  1  0
  1  2  1  0
  2  3  1  0
  4  3  1  0
  5  4  1  0
  6  5  1  0
  6 17  1  0
  7  8  2  0
  8  9  1  0
  9  1  1  0
 10  9  2  0
 11 10  1  0
 12  7  1  0
 12 11  2  0
 13 15  1  0
 13 16  1  0
 13  7  1  0
 14 13  1  0
 17 22  1  0
 18 17  1  0
 18 19  1  0
 19 20  1  0
 21 20  1  0
 22 21  1  0
  2 23  1  0
  2 24  1  0
  3 25  1  0
  3 26  1  0
  4 27  1  0
  4 28  1  0
  5 29  1  0
  5 30  1  0
  6 31  1  6
  8 32  1  0
 11 33  1  0
 17 34  1  0
 18 35  1  0
 18 36  1  0
 19 37  1  0
 19 38  1  0
 20 39  1  0
 20 40  1  0
 21 41  1  0
 21 42  1  0
 22 43  1  0
 22 44  1  0
M  ISO  8  23  13  24  13  25  13  26  13  27  13  28  13  29  13  30  13
M  ISO  8  31  13  32  14  33  14  34  13  35  13  36  13  37  13  38  13
M  ISO  6  39  13  40  13  41  13  42  13  43  13  44  13
M  END
>  <minimizedAffinity>  (1) 
-5.40327501

>  <minimizedRMSD>  (1) 
2.03516078

$$$$
