
     RDKit          3D

 35 37  0  0  1  0  0  0  0  0999 V2000
   45.8210   32.8990   46.2250 N   0  0  0  0  0  0  0  0  0  0  0  0
   45.2900   33.1570   47.5690 C   0  0  0  0  0  0  0  0  0  0  0  0
   46.0600   32.2390   48.5070 C   0  0  0  0  0  0  0  0  0  0  0  0
   45.6400   30.8230   48.2400 C   0  0  0  0  0  0  0  0  0  0  0  0
   45.6810   30.5600   46.7670 C   0  0  0  0  0  0  0  0  0  0  0  0
   46.3870   31.6270   45.9910 C   0  0  1  0  0  0  0  0  0  0  0  0
   46.4350   34.8480   43.1490 C   0  0  0  0  0  0  0  0  0  0  0  0
   46.5830   33.8870   44.1480 C   0  0  0  0  0  0  0  0  0  0  0  0
   45.7370   33.8820   45.2410 C   0  0  0  0  0  0  0  0  0  0  0  0
   44.7950   34.8400   45.2850 N   0  0  0  0  0  0  0  0  0  0  0  0
   44.6400   35.7900   44.3210 C   0  0  0  0  0  0  0  0  0  0  0  0
   45.4730   35.7810   43.2490 N   0  0  0  0  0  0  0  0  0  0  0  0
   47.3540   34.7650   41.9640 C   0  0  0  0  0  0  0  0  0  0  0  0
   46.6410   34.6110   40.7770 F   0  0  0  0  0  0  0  0  0  0  0  0
   48.1040   35.9180   41.9540 F   0  0  0  0  0  0  0  0  0  0  0  0
   48.2090   33.6820   42.1100 F   0  0  0  0  0  0  0  0  0  0  0  0
   46.3340   31.1410   44.5610 C   0  0  0  0  0  0  0  0  0  0  0  0
   45.2110   30.7600   43.8010 C   0  0  0  0  0  0  0  0  0  0  0  0
   45.6560   30.4090   42.5530 C   0  0  0  0  0  0  0  0  0  0  0  0
   46.9840   30.5640   42.5400 N   0  0  0  0  0  0  0  0  0  0  0  0
   47.3980   30.9950   43.7150 N   0  0  0  0  0  0  0  0  0  0  0  0
   45.4495   34.2091   47.8476 H   0  0  0  0  0  0  0  0  0  0  0  0
   44.2076   32.9674   47.6180 H   0  0  0  0  0  0  0  0  0  0  0  0
   47.1399   32.3458   48.3268 H   0  0  0  0  0  0  0  0  0  0  0  0
   45.8462   32.5043   49.5529 H   0  0  0  0  0  0  0  0  0  0  0  0
   46.3256   30.1339   48.7548 H   0  0  0  0  0  0  0  0  0  0  0  0
   44.6165   30.6677   48.6120 H   0  0  0  0  0  0  0  0  0  0  0  0
   46.2000   29.6050   46.5979 H   0  0  0  0  0  0  0  0  0  0  0  0
   44.6399   30.5366   46.4128 H   0  0  0  0  0  0  0  0  0  0  0  0
   47.4335   31.7811   46.2929 H   0  0  0  0  0  0  0  0  0  0  0  0
   47.3764   33.1295   44.0661 H   0  0  0  0  0  0  0  0  0  0  0  0
   43.8522   36.5525   44.4098 H   0  0  0  0  0  0  0  0  0  0  0  0
   44.1667   30.7466   44.1463 H   0  0  0  0  0  0  0  0  0  0  0  0
   45.0337   30.0628   41.7146 H   0  0  0  0  0  0  0  0  0  0  0  0
   47.5934   30.3747   41.7315 H   0  0  0  0  0  0  0  0  0  0  0  0
  1  2  1  0
  2  3  1  0
  4  3  1  0
  5  4  1  0
  6  1  1  0
  6  5  1  0
  7 12  2  0
  7  8  1  0
  8  9  2  0
  9 10  1  0
  9  1  1  0
 11 10  2  0
 12 11  1  0
 13 16  1  0
 13  7  1  0
 14 13  1  0
 15 13  1  0
 17  6  1  0
 18 17  1  0
 19 18  2  0
 20 19  1  0
 20 21  1  0
 21 17  2  0
  2 22  1  0
  2 23  1  0
  3 24  1  0
  3 25  1  0
  4 26  1  0
  4 27  1  0
  5 28  1  0
  5 29  1  0
  6 30  1  1
  8 31  1  0
 11 32  1  0
 18 33  1  0
 19 34  1  0
 20 35  1  0
M  ISO  8  22  13  23  13  24  13  25  13  26  13  27  13  28  13  29  13
M  ISO  6  30  13  31  14  32  14  33  14  34  14  35   9
M  END
>  <minimizedAffinity>  (1) 
-5.28522825

>  <minimizedRMSD>  (1) 
0.256808966

$$$$
