
     RDKit          3D

 30 31  0  0  1  0  0  0  0  0999 V2000
   45.6760   32.5500   46.8590 N   0  0  0  0  0  0  0  0  0  0  0  0
   45.3050   32.9100   48.1990 C   0  0  0  0  0  0  0  0  0  0  0  0
   45.9000   31.8730   49.1280 C   0  0  0  0  0  0  0  0  0  0  0  0
   45.1740   30.5620   48.9080 C   0  0  0  0  0  0  0  0  0  0  0  0
   45.2310   30.2240   47.4490 C   0  0  0  0  0  0  0  0  0  0  0  0
   46.0350   31.1930   46.6330 C   0  0  2  0  0  0  0  0  0  0  0  0
   46.5190   34.3530   43.7330 C   0  0  0  0  0  0  0  0  0  0  0  0
   46.5670   33.3790   44.7420 C   0  0  0  0  0  0  0  0  0  0  0  0
   45.6880   33.4830   45.8140 C   0  0  0  0  0  0  0  0  0  0  0  0
   44.8230   34.5200   45.8370 N   0  0  0  0  0  0  0  0  0  0  0  0
   44.7770   35.4660   44.8540 C   0  0  0  0  0  0  0  0  0  0  0  0
   45.6260   35.3730   43.8130 N   0  0  0  0  0  0  0  0  0  0  0  0
   47.4770   34.2090   42.5980 C   0  0  0  0  0  0  0  0  0  0  0  0
   47.3190   32.9920   41.9540 F   0  0  0  0  0  0  0  0  0  0  0  0
   47.2550   35.2700   41.7260 F   0  0  0  0  0  0  0  0  0  0  0  0
   48.7770   34.3390   43.0740 F   0  0  0  0  0  0  0  0  0  0  0  0
   47.4970   30.9210   46.7010 C   0  0  0  0  0  0  0  0  0  0  0  0
   48.2810   30.0860   47.1180 O   0  0  0  0  0  0  0  0  0  0  0  0
   45.7019   33.9062   48.4442 H   0  0  0  0  0  0  0  0  0  0  0  0
   44.2104   32.9424   48.3034 H   0  0  0  0  0  0  0  0  0  0  0  0
   46.9702   31.7467   48.9072 H   0  0  0  0  0  0  0  0  0  0  0  0
   45.7903   32.1951   50.1741 H   0  0  0  0  0  0  0  0  0  0  0  0
   45.6599   29.7666   49.4921 H   0  0  0  0  0  0  0  0  0  0  0  0
   44.1269   30.6527   49.2325 H   0  0  0  0  0  0  0  0  0  0  0  0
   45.6792   29.2252   47.3418 H   0  0  0  0  0  0  0  0  0  0  0  0
   44.1991   30.2658   47.0703 H   0  0  0  0  0  0  0  0  0  0  0  0
   45.7629   31.0162   45.5819 H   0  0  0  0  0  0  0  0  0  0  0  0
   47.2865   32.5489   44.6858 H   0  0  0  0  0  0  0  0  0  0  0  0
   44.0552   36.2941   44.9116 H   0  0  0  0  0  0  0  0  0  0  0  0
   48.0497   31.7401   46.2176 H   0  0  0  0  0  0  0  0  0  0  0  0
  1  2  1  0
  2  3  1  0
  4  3  1  0
  5  4  1  0
  6 17  1  0
  6  1  1  0
  6  5  1  0
  7 12  2  0
  7  8  1  0
  8  9  2  0
  9 10  1  0
  9  1  1  0
 11 10  2  0
 12 11  1  0
 13 16  1  0
 13  7  1  0
 14 13  1  0
 15 13  1  0
 17 18  2  0
  2 19  1  0
  2 20  1  0
  3 21  1  0
  3 22  1  0
  4 23  1  0
  4 24  1  0
  5 25  1  0
  5 26  1  0
  6 27  1  6
  8 28  1  0
 11 29  1  0
 17 30  1  0
M  ISO  8  19  13  20  13  21  13  22  13  23  13  24  13  25  13  26  13
M  ISO  4  27  13  28  14  29  14  30   6
M  END
>  <minimizedAffinity>  (1) 
-5.09999561

>  <minimizedRMSD>  (1) 
1.031003

$$$$
