
     RDKit          3D

 31 32  0  0  1  0  0  0  0  0999 V2000
   45.5750   32.9000   46.5130 N   0  0  0  0  0  0  0  0  0  0  0  0
   45.1680   33.1410   47.8740 C   0  0  0  0  0  0  0  0  0  0  0  0
   45.9160   32.1360   48.7350 C   0  0  0  0  0  0  0  0  0  0  0  0
   45.3420   30.7670   48.4670 C   0  0  0  0  0  0  0  0  0  0  0  0
   45.3310   30.5220   46.9870 C   0  0  0  0  0  0  0  0  0  0  0  0
   46.0790   31.5860   46.2170 C   0  0  2  0  0  0  0  0  0  0  0  0
   46.0740   34.7920   43.3670 C   0  0  0  0  0  0  0  0  0  0  0  0
   46.2160   33.7580   44.3160 C   0  0  0  0  0  0  0  0  0  0  0  0
   45.4980   33.8790   45.5120 C   0  0  0  0  0  0  0  0  0  0  0  0
   44.7170   34.9550   45.7040 N   0  0  0  0  0  0  0  0  0  0  0  0
   44.5930   35.9440   44.7750 C   0  0  0  0  0  0  0  0  0  0  0  0
   45.2690   35.8590   43.6140 N   0  0  0  0  0  0  0  0  0  0  0  0
   46.8450   34.6480   42.1000 C   0  0  0  0  0  0  0  0  0  0  0  0
   46.0080   34.6390   40.9950 F   0  0  0  0  0  0  0  0  0  0  0  0
   47.7490   35.6960   42.0380 F   0  0  0  0  0  0  0  0  0  0  0  0
   47.5860   33.4760   42.1430 F   0  0  0  0  0  0  0  0  0  0  0  0
   47.5660   31.4480   46.2670 C   0  0  0  0  0  0  0  0  0  0  0  0
   45.4305   34.1666   48.1728 H   0  0  0  0  0  0  0  0  0  0  0  0
   44.0797   33.0293   47.9885 H   0  0  0  0  0  0  0  0  0  0  0  0
   46.9855   32.1483   48.4779 H   0  0  0  0  0  0  0  0  0  0  0  0
   45.8075   32.3920   49.7993 H   0  0  0  0  0  0  0  0  0  0  0  0
   45.9610   30.0044   48.9623 H   0  0  0  0  0  0  0  0  0  0  0  0
   44.3162   30.7112   48.8601 H   0  0  0  0  0  0  0  0  0  0  0  0
   45.8001   29.5472   46.7876 H   0  0  0  0  0  0  0  0  0  0  0  0
   44.2831   30.5433   46.6532 H   0  0  0  0  0  0  0  0  0  0  0  0
   45.8657   31.4189   45.1509 H   0  0  0  0  0  0  0  0  0  0  0  0
   46.8651   32.8909   44.1240 H   0  0  0  0  0  0  0  0  0  0  0  0
   43.9428   36.8089   44.9730 H   0  0  0  0  0  0  0  0  0  0  0  0
   47.8963   31.4173   47.3158 H   0  0  0  0  0  0  0  0  0  0  0  0
   47.8652   30.5182   45.7610 H   0  0  0  0  0  0  0  0  0  0  0  0
   48.0312   32.3068   45.7610 H   0  0  0  0  0  0  0  0  0  0  0  0
  1  2  1  0
  2  3  1  0
  4  3  1  0
  5  4  1  0
  6 17  1  0
  6  1  1  0
  6  5  1  0
  7 12  2  0
  7  8  1  0
  8  9  2  0
  9 10  1  0
  9  1  1  0
 11 10  2  0
 12 11  1  0
 13 16  1  0
 13  7  1  0
 14 13  1  0
 15 13  1  0
  2 18  1  0
  2 19  1  0
  3 20  1  0
  3 21  1  0
  4 22  1  0
  4 23  1  0
  5 24  1  0
  5 25  1  0
  6 26  1  6
  8 27  1  0
 11 28  1  0
 17 29  1  0
 17 30  1  0
 17 31  1  0
M  ISO  8  18  13  19  13  20  13  21  13  22  13  23  13  24  13  25  13
M  ISO  6  26  13  27  14  28  14  29   8  30   8  31   8
M  END
>  <minimizedAffinity>  (1) 
-5.18600845

>  <minimizedRMSD>  (1) 
0.217517719

$$$$
