
     RDKit          3D

 34 36  0  0  1  0  0  0  0  0999 V2000
   46.7540   32.8180   45.1190 N   0  0  0  0  0  0  0  0  0  0  0  0
   46.4330   33.1910   46.5000 C   0  0  0  0  0  0  0  0  0  0  0  0
   47.2300   32.2500   47.3890 C   0  0  0  0  0  0  0  0  0  0  0  0
   46.6120   30.8790   47.2780 C   0  0  0  0  0  0  0  0  0  0  0  0
   46.5250   30.5110   45.8320 C   0  0  0  0  0  0  0  0  0  0  0  0
   47.1600   31.4790   44.9000 C   0  0  1  0  0  0  0  0  0  0  0  0
   47.5610   35.0080   42.2580 C   0  0  0  0  0  0  0  0  0  0  0  0
   47.7310   34.1120   43.3160 C   0  0  0  0  0  0  0  0  0  0  0  0
   46.6410   33.7400   44.0780 C   0  0  0  0  0  0  0  0  0  0  0  0
   45.4370   34.2730   43.7610 N   0  0  0  0  0  0  0  0  0  0  0  0
   45.2730   35.1460   42.7330 C   0  0  0  0  0  0  0  0  0  0  0  0
   46.3450   35.5100   41.9820 N   0  0  0  0  0  0  0  0  0  0  0  0
   48.7720   35.3490   41.4390 C   0  0  0  0  0  0  0  0  0  0  0  0
   48.4960   35.3140   40.0770 F   0  0  0  0  0  0  0  0  0  0  0  0
   49.1900   36.6040   41.8340 F   0  0  0  0  0  0  0  0  0  0  0  0
   49.7910   34.4510   41.7230 F   0  0  0  0  0  0  0  0  0  0  0  0
   46.6810   30.9630   43.5420 C   0  0  0  0  0  0  0  0  0  0  0  0
   45.2270   30.7160   43.2730 C   0  0  0  0  0  0  0  0  0  0  0  0
   45.2740   30.1510   41.5880 S   0  0  0  0  0  0  0  0  0  0  0  0
   47.1650   30.3140   41.4680 C   0  0  0  0  0  0  0  0  0  0  0  0
   47.5550   30.7340   42.5860 N   0  0  0  0  0  0  0  0  0  0  0  0
   46.7245   34.2344   46.6909 H   0  0  0  0  0  0  0  0  0  0  0  0
   45.3537   33.1106   46.6966 H   0  0  0  0  0  0  0  0  0  0  0  0
   48.2775   32.2167   47.0549 H   0  0  0  0  0  0  0  0  0  0  0  0
   47.2103   32.5976   48.4325 H   0  0  0  0  0  0  0  0  0  0  0  0
   47.2370   30.1466   47.8099 H   0  0  0  0  0  0  0  0  0  0  0  0
   45.6074   30.8821   47.7261 H   0  0  0  0  0  0  0  0  0  0  0  0
   47.0154   29.5356   45.6977 H   0  0  0  0  0  0  0  0  0  0  0  0
   45.4541   30.4986   45.5810 H   0  0  0  0  0  0  0  0  0  0  0  0
   48.2532   31.5250   45.0129 H   0  0  0  0  0  0  0  0  0  0  0  0
   48.7278   33.7049   43.5410 H   0  0  0  0  0  0  0  0  0  0  0  0
   44.2770   35.5561   42.5098 H   0  0  0  0  0  0  0  0  0  0  0  0
   44.3623   30.8488   43.9398 H   0  0  0  0  0  0  0  0  0  0  0  0
   47.7924   30.0859   40.5937 H   0  0  0  0  0  0  0  0  0  0  0  0
  1  2  1  0
  2  3  1  0
  4  3  1  0
  5  4  1  0
  6  1  1  0
  6  5  1  0
  7  8  2  0
  8  9  1  0
  9  1  1  0
 10  9  2  0
 11 10  1  0
 12  7  1  0
 12 11  2  0
 13 16  1  0
 13 15  1  0
 13  7  1  0
 14 13  1  0
 17  6  1  0
 18 17  2  0
 19 18  1  0
 20 19  1  0
 20 21  2  0
 21 17  1  0
  2 22  1  0
  2 23  1  0
  3 24  1  0
  3 25  1  0
  4 26  1  0
  4 27  1  0
  5 28  1  0
  5 29  1  0
  6 30  1  6
  8 31  1  0
 11 32  1  0
 18 33  1  0
 20 34  1  0
M  ISO  8  22  13  23  13  24  13  25  13  26  13  27  13  28  13  29  13
M  ISO  5  30  13  31  14  32  14  33  14  34  14
M  END
>  <minimizedAffinity>  (1) 
-5.0596652

>  <minimizedRMSD>  (1) 
1.73916352

$$$$
