
     RDKit          3D

 24 25  0  0  0  0  0  0  0  0999 V2000
   46.1610   34.7650   43.3230 C   0  0  0  0  0  0  0  0  0  0  0  0
   45.1920   35.7580   43.4570 C   0  0  0  0  0  0  0  0  0  0  0  0
   44.5010   35.8280   44.6650 C   0  0  0  0  0  0  0  0  0  0  0  0
   44.8140   34.9230   45.6420 N   0  0  0  0  0  0  0  0  0  0  0  0
   45.7590   33.9860   45.4610 C   0  0  0  0  0  0  0  0  0  0  0  0
   46.4220   33.9110   44.3130 N   0  0  0  0  0  0  0  0  0  0  0  0
   45.9830   33.1080   46.5620 N   0  0  0  0  0  0  0  0  0  0  0  0
   47.1170   32.2450   46.7280 C   0  0  0  0  0  0  0  0  0  0  0  0
   47.2070   31.9570   48.1900 C   0  0  0  0  0  0  0  0  0  0  0  0
   45.8370   32.2520   48.7180 C   0  0  0  0  0  0  0  0  0  0  0  0
   45.0660   32.9880   47.6670 C   0  0  0  0  0  0  0  0  0  0  0  0
   46.8290   34.7600   42.0470 C   0  0  0  0  0  0  0  0  0  0  0  0
   47.9300   35.3490   41.7910 O   0  0  0  0  0  0  0  0  0  0  0  0
   44.9803   36.4614   42.6382 H   0  0  0  0  0  0  0  0  0  0  0  0
   43.7249   36.5902   44.8286 H   0  0  0  0  0  0  0  0  0  0  0  0
   46.9728   31.3121   46.1632 H   0  0  0  0  0  0  0  0  0  0  0  0
   48.0382   32.7151   46.3534 H   0  0  0  0  0  0  0  0  0  0  0  0
   47.4712   30.9033   48.3627 H   0  0  0  0  0  0  0  0  0  0  0  0
   47.9837   32.5573   48.6865 H   0  0  0  0  0  0  0  0  0  0  0  0
   45.3237   31.3103   48.9623 H   0  0  0  0  0  0  0  0  0  0  0  0
   45.9101   32.8656   49.6280 H   0  0  0  0  0  0  0  0  0  0  0  0
   44.7639   33.9812   48.0308 H   0  0  0  0  0  0  0  0  0  0  0  0
   44.1396   32.4656   47.3860 H   0  0  0  0  0  0  0  0  0  0  0  0
   46.3507   34.2032   41.2277 H   0  0  0  0  0  0  0  0  0  0  0  0
  1  2  2  0
  1  6  1  0
  2  3  1  0
  3  4  2  0
  5  4  1  0
  5  7  1  0
  6  5  2  0
  7  8  1  0
  7 11  1  0
  8  9  1  0
  9 10  1  0
 11 10  1  0
 12  1  1  0
 13 12  2  0
  2 14  1  0
  3 15  1  0
  8 16  1  0
  8 17  1  0
  9 18  1  0
  9 19  1  0
 10 20  1  0
 10 21  1  0
 11 22  1  0
 11 23  1  0
 12 24  1  0
M  ISO  8  14  14  15  14  16  13  17  13  18  13  19  13  20  13  21  13
M  ISO  3  22  13  23  13  24   6
M  END
>  <minimizedAffinity>  (1) 
-4.78110743

>  <minimizedRMSD>  (1) 
0.323072463

$$$$
