
     RDKit          3D

 14 14  0  0  0  0  0  0  0  0999 V2000
   46.1420   34.8500   43.2290 C   0  0  0  0  0  0  0  0  0  0  0  0
   45.3620   36.0030   43.2920 C   0  0  0  0  0  0  0  0  0  0  0  0
   44.5750   36.2080   44.4410 C   0  0  0  0  0  0  0  0  0  0  0  0
   44.6270   35.2640   45.4180 N   0  0  0  0  0  0  0  0  0  0  0  0
   45.4030   34.1640   45.3040 C   0  0  0  0  0  0  0  0  0  0  0  0
   46.1550   33.9500   44.2280 N   0  0  0  0  0  0  0  0  0  0  0  0
   45.4870   33.1530   46.3020 N   0  0  0  0  0  0  0  0  0  0  0  0
   46.9080   34.7200   42.0320 C   0  0  0  0  0  0  0  0  0  0  0  0
   47.9620   35.3400   41.7420 O   0  0  0  0  0  0  0  0  0  0  0  0
   45.3613   36.7317   42.4680 H   0  0  0  0  0  0  0  0  0  0  0  0
   43.9404   37.1005   44.5447 H   0  0  0  0  0  0  0  0  0  0  0  0
   46.0975   32.3361   46.1574 H   0  0  0  0  0  0  0  0  0  0  0  0
   44.9373   33.2382   47.1689 H   0  0  0  0  0  0  0  0  0  0  0  0
   46.5373   34.0023   41.2853 H   0  0  0  0  0  0  0  0  0  0  0  0
  1  2  2  0
  1  6  1  0
  2  3  1  0
  3  4  2  0
  5  4  1  0
  5  7  1  0
  6  5  2  0
  8  1  1  0
  9  8  2  0
  2 10  1  0
  3 11  1  0
  7 12  1  0
  7 13  1  0
  8 14  1  0
M  ISO  3  10  14  11  14  14   6
M  END
>  <minimizedAffinity>  (1) 
-3.55657148

>  <minimizedRMSD>  (1) 
0.201180428

$$$$
