
     RDKit          3D

 13 13  0  0  0  0  0  0  0  0999 V2000
   46.1730   34.8530   43.2130 C   0  0  0  0  0  0  0  0  0  0  0  0
   45.2710   35.9190   43.2840 C   0  0  0  0  0  0  0  0  0  0  0  0
   44.5310   36.0170   44.4650 C   0  0  0  0  0  0  0  0  0  0  0  0
   44.7220   35.0970   45.4530 N   0  0  0  0  0  0  0  0  0  0  0  0
   45.6090   34.0940   45.3200 C   0  0  0  0  0  0  0  0  0  0  0  0
   46.3270   33.9740   44.2080 N   0  0  0  0  0  0  0  0  0  0  0  0
   46.9270   34.7700   41.9840 C   0  0  0  0  0  0  0  0  0  0  0  0
   48.0150   35.3780   41.7370 O   0  0  0  0  0  0  0  0  0  0  0  0
   45.8440   33.1310   46.2900 O   0  0  0  0  0  0  0  0  0  0  0  0
   45.1512   36.6373   42.4596 H   0  0  0  0  0  0  0  0  0  0  0  0
   43.8008   36.8291   44.5966 H   0  0  0  0  0  0  0  0  0  0  0  0
   46.5235   34.1229   41.1913 H   0  0  0  0  0  0  0  0  0  0  0  0
   46.5119   32.4183   46.1284 H   0  0  0  0  0  0  0  0  0  0  0  0
  1  2  2  0
  1  6  1  0
  2  3  1  0
  3  4  2  0
  5  4  1  0
  5  9  1  0
  6  5  2  0
  7  1  1  0
  8  7  2  0
  2 10  1  0
  3 11  1  0
  7 12  1  0
  9 13  1  0
M  ISO  4  10  14  11  14  12   6  13   3
M  END
>  <minimizedAffinity>  (1) 
-3.4109776

>  <minimizedRMSD>  (1) 
0.0540301576

$$$$
