
     RDKit          3D

 26 28  0  0  0  0  0  0  0  0999 V2000
   46.0480   31.6920   45.1410 C   0  0  0  0  0  0  0  0  0  0  0  0
   45.8000   32.9990   45.5290 C   0  0  0  0  0  0  0  0  0  0  0  0
   45.5190   33.2810   46.8510 C   0  0  0  0  0  0  0  0  0  0  0  0
   45.4900   32.2540   47.7710 C   0  0  0  0  0  0  0  0  0  0  0  0
   45.2550   32.2070   49.0920 N   0  0  0  0  0  0  0  0  0  0  0  0
   45.3430   30.9450   49.5480 C   0  0  0  0  0  0  0  0  0  0  0  0
   45.6480   30.1170   48.4900 C   0  0  0  0  0  0  0  0  0  0  0  0
   45.7400   30.9360   47.3820 C   0  0  0  0  0  0  0  0  0  0  0  0
   46.0190   30.6640   46.0590 C   0  0  0  0  0  0  0  0  0  0  0  0
   46.8920   34.9290   42.6280 C   0  0  0  0  0  0  0  0  0  0  0  0
   45.9720   35.9700   42.5500 C   0  0  0  0  0  0  0  0  0  0  0  0
   44.9650   36.0070   43.5070 C   0  0  0  0  0  0  0  0  0  0  0  0
   44.9300   35.0400   44.4570 N   0  0  0  0  0  0  0  0  0  0  0  0
   45.8470   34.0410   44.4970 C   0  0  0  0  0  0  0  0  0  0  0  0
   46.8330   33.9810   43.5820 N   0  0  0  0  0  0  0  0  0  0  0  0
   47.9180   34.9370   41.6090 C   0  0  0  0  0  0  0  0  0  0  0  0
   48.8240   35.8220   41.4820 O   0  0  0  0  0  0  0  0  0  0  0  0
   46.2709   31.4719   44.0866 H   0  0  0  0  0  0  0  0  0  0  0  0
   45.3200   34.3155   47.1676 H   0  0  0  0  0  0  0  0  0  0  0  0
   45.0369   33.0264   49.6768 H   0  0  0  0  0  0  0  0  0  0  0  0
   45.1961   30.6271   50.5908 H   0  0  0  0  0  0  0  0  0  0  0  0
   45.7893   29.0266   48.5214 H   0  0  0  0  0  0  0  0  0  0  0  0
   46.2176   29.6309   45.7376 H   0  0  0  0  0  0  0  0  0  0  0  0
   46.0392   36.7340   41.7615 H   0  0  0  0  0  0  0  0  0  0  0  0
   44.2097   36.8066   43.4941 H   0  0  0  0  0  0  0  0  0  0  0  0
   47.9153   34.1100   40.8837 H   0  0  0  0  0  0  0  0  0  0  0  0
  1  2  2  0
  1  9  1  0
  2  3  1  0
  3  4  2  0
  4  5  1  0
  5  6  1  0
  7  6  2  0
  8  4  1  0
  8  7  1  0
  9  8  2  0
 10 15  2  0
 11 10  1  0
 11 12  2  0
 12 13  1  0
 13 14  2  0
 14  2  1  0
 15 14  1  0
 16 10  1  0
 17 16  2  0
  1 18  1  0
  3 19  1  0
  5 20  1  0
  6 21  1  0
  7 22  1  0
  9 23  1  0
 11 24  1  0
 12 25  1  0
 16 26  1  0
M  ISO  8  18  14  19  14  20   9  21  14  22  14  23  14  24  14  25  14
M  ISO  1  26   6
M  END
>  <minimizedAffinity>  (1) 
-5.17161083

>  <minimizedRMSD>  (1) 
0.933439672

$$$$
