
     RDKit          3D

 36 39  0  0  0  0  0  0  0  0999 V2000
   47.2380   34.8070   42.7560 C   0  0  0  0  0  0  0  0  0  0  0  0
   46.2440   35.7540   42.4800 C   0  0  0  0  0  0  0  0  0  0  0  0
   45.0990   35.7230   43.2530 C   0  0  0  0  0  0  0  0  0  0  0  0
   44.9960   34.7900   44.2270 N   0  0  0  0  0  0  0  0  0  0  0  0
   45.9870   33.8840   44.4660 C   0  0  0  0  0  0  0  0  0  0  0  0
   47.1120   33.8960   43.7260 N   0  0  0  0  0  0  0  0  0  0  0  0
   46.0040   31.5530   45.1730 C   0  0  0  0  0  0  0  0  0  0  0  0
   45.8540   32.8780   45.5300 C   0  0  0  0  0  0  0  0  0  0  0  0
   45.5890   33.2210   46.8430 C   0  0  0  0  0  0  0  0  0  0  0  0
   45.4800   32.2050   47.7800 C   0  0  0  0  0  0  0  0  0  0  0  0
   45.2350   32.2160   49.1040 N   0  0  0  0  0  0  0  0  0  0  0  0
   45.2270   30.9520   49.5790 C   0  0  0  0  0  0  0  0  0  0  0  0
   45.4730   30.0830   48.5480 C   0  0  0  0  0  0  0  0  0  0  0  0
   45.6310   30.8720   47.4250 C   0  0  0  0  0  0  0  0  0  0  0  0
   45.8950   30.5490   46.1070 C   0  0  0  0  0  0  0  0  0  0  0  0
   48.4230   34.8780   41.9190 C   0  0  0  0  0  0  0  0  0  0  0  0
   48.9010   35.9680   41.4590 O   0  0  0  0  0  0  0  0  0  0  0  0
   47.4670   33.5370   39.4870 Cl  0  0  0  0  0  0  0  0  0  0  0  0
   48.9070   33.0340   40.3460 C   0  0  0  0  0  0  0  0  0  0  0  0
   49.2420   33.7530   41.4740 C   0  0  0  0  0  0  0  0  0  0  0  0
   50.3770   33.3570   42.1500 C   0  0  0  0  0  0  0  0  0  0  0  0
   51.1290   32.2910   41.7040 C   0  0  0  0  0  0  0  0  0  0  0  0
   50.7440   31.6100   40.5690 C   0  0  0  0  0  0  0  0  0  0  0  0
   49.6040   31.9590   39.8360 C   0  0  0  0  0  0  0  0  0  0  0  0
   46.3700   36.4954   41.6772 H   0  0  0  0  0  0  0  0  0  0  0  0
   44.2863   36.4437   43.0795 H   0  0  0  0  0  0  0  0  0  0  0  0
   46.2142   31.2958   44.1243 H   0  0  0  0  0  0  0  0  0  0  0  0
   45.4677   34.2740   47.1369 H   0  0  0  0  0  0  0  0  0  0  0  0
   45.0773   33.0621   49.6699 H   0  0  0  0  0  0  0  0  0  0  0  0
   45.0511   30.6654   50.6264 H   0  0  0  0  0  0  0  0  0  0  0  0
   45.5323   28.9860   48.6032 H   0  0  0  0  0  0  0  0  0  0  0  0
   46.0169   29.4976   45.8076 H   0  0  0  0  0  0  0  0  0  0  0  0
   50.6861   33.8984   43.0563 H   0  0  0  0  0  0  0  0  0  0  0  0
   52.0326   31.9851   42.2517 H   0  0  0  0  0  0  0  0  0  0  0  0
   51.3549   30.7616   40.2270 H   0  0  0  0  0  0  0  0  0  0  0  0
   49.2903   31.4210   38.9293 H   0  0  0  0  0  0  0  0  0  0  0  0
  1  6  1  0
  2  1  2  0
  2  3  1  0
  3  4  2  0
  4  5  1  0
  5  8  1  0
  6  5  2  0
  7  8  2  0
  7 15  1  0
  8  9  1  0
  9 10  2  0
 10 11  1  0
 11 12  1  0
 13 12  2  0
 14 10  1  0
 14 13  1  0
 15 14  2  0
 16  1  1  0
 17 16  2  0
 18 19  1  0
 19 20  2  0
 20 16  1  0
 20 21  1  0
 22 21  2  0
 23 22  1  0
 24 19  1  0
 24 23  2  0
  2 25  1  0
  3 26  1  0
  7 27  1  0
  9 28  1  0
 11 29  1  0
 12 30  1  0
 13 31  1  0
 15 32  1  0
 21 33  1  0
 22 34  1  0
 23 35  1  0
 24 36  1  0
M  ISO  8  25  14  26  14  27  14  28  14  29   9  30  14  31  14  32  14
M  ISO  4  33  14  34  14  35  14  36  14
M  END
>  <minimizedAffinity>  (1) 
-6.58201504

>  <minimizedRMSD>  (1) 
1.35914242

$$$$
