
     RDKit          3D

 33 36  0  0  0  0  0  0  0  0999 V2000
   46.8150   34.9840   42.6780 C   0  0  0  0  0  0  0  0  0  0  0  0
   45.8790   36.0250   42.6270 C   0  0  0  0  0  0  0  0  0  0  0  0
   44.8910   36.0380   43.6020 C   0  0  0  0  0  0  0  0  0  0  0  0
   44.8700   35.0690   44.5410 N   0  0  0  0  0  0  0  0  0  0  0  0
   45.8020   34.0730   44.5550 C   0  0  0  0  0  0  0  0  0  0  0  0
   46.7640   34.0400   43.6250 N   0  0  0  0  0  0  0  0  0  0  0  0
   46.0410   31.7230   45.1680 C   0  0  0  0  0  0  0  0  0  0  0  0
   45.7680   33.0250   45.5810 C   0  0  0  0  0  0  0  0  0  0  0  0
   45.4830   33.2830   46.8970 C   0  0  0  0  0  0  0  0  0  0  0  0
   45.4700   32.2350   47.8080 C   0  0  0  0  0  0  0  0  0  0  0  0
   45.2340   32.1720   49.1180 N   0  0  0  0  0  0  0  0  0  0  0  0
   45.3410   30.9040   49.5610 C   0  0  0  0  0  0  0  0  0  0  0  0
   45.6650   30.0890   48.4860 C   0  0  0  0  0  0  0  0  0  0  0  0
   45.7430   30.9260   47.3990 C   0  0  0  0  0  0  0  0  0  0  0  0
   46.0260   30.6810   46.0780 C   0  0  0  0  0  0  0  0  0  0  0  0
   47.8290   34.9920   41.6510 C   0  0  0  0  0  0  0  0  0  0  0  0
   48.9900   35.5200   41.7980 O   0  0  0  0  0  0  0  0  0  0  0  0
   47.5450   34.3820   40.3860 C   0  0  0  0  0  0  0  0  0  0  0  0
   48.2250   34.4670   39.2210 C   0  0  0  0  0  0  0  0  0  0  0  0
   47.8240   33.8190   38.0860 C   0  0  0  0  0  0  0  0  0  0  0  0
   46.5690   33.0280   38.3050 C   0  0  0  0  0  0  0  0  0  0  0  0
   46.1840   33.3390   40.0590 S   0  0  0  0  0  0  0  0  0  0  0  0
   45.9250   36.7995   41.8472 H   0  0  0  0  0  0  0  0  0  0  0  0
   44.1304   36.8327   43.6092 H   0  0  0  0  0  0  0  0  0  0  0  0
   46.2701   31.5219   44.1111 H   0  0  0  0  0  0  0  0  0  0  0  0
   45.2669   34.3096   47.2278 H   0  0  0  0  0  0  0  0  0  0  0  0
   45.0016   32.9817   49.7107 H   0  0  0  0  0  0  0  0  0  0  0  0
   45.1960   30.5713   50.5994 H   0  0  0  0  0  0  0  0  0  0  0  0
   45.8257   29.0009   48.5007 H   0  0  0  0  0  0  0  0  0  0  0  0
   46.2409   29.6555   45.7430 H   0  0  0  0  0  0  0  0  0  0  0  0
   49.1366   35.0815   39.1847 H   0  0  0  0  0  0  0  0  0  0  0  0
   48.3585   33.8716   37.1260 H   0  0  0  0  0  0  0  0  0  0  0  0
   46.0154   32.4102   37.5826 H   0  0  0  0  0  0  0  0  0  0  0  0
  1  6  1  0
  2  1  2  0
  2  3  1  0
  3  4  2  0
  4  5  1  0
  5  8  1  0
  6  5  2  0
  7  8  2  0
  7 15  1  0
  8  9  1  0
  9 10  2  0
 10 11  1  0
 11 12  1  0
 13 12  2  0
 14 10  1  0
 14 13  1  0
 15 14  2  0
 16 17  2  0
 16  1  1  0
 18 16  1  0
 19 18  2  0
 20 21  2  0
 20 19  1  0
 21 22  1  0
 22 18  1  0
  2 23  1  0
  3 24  1  0
  7 25  1  0
  9 26  1  0
 11 27  1  0
 12 28  1  0
 13 29  1  0
 15 30  1  0
 19 31  1  0
 20 32  1  0
 21 33  1  0
M  ISO  8  23  14  24  14  25  14  26  14  27   9  28  14  29  14  30  14
M  ISO  3  31  14  32  14  33  14
M  END
>  <minimizedAffinity>  (1) 
-6.11467457

>  <minimizedRMSD>  (1) 
0.716990888

$$$$
