
     RDKit          3D

 41 44  0  0  0  0  0  0  0  0999 V2000
   46.6790   34.9850   42.6400 C   0  0  0  0  0  0  0  0  0  0  0  0
   45.7960   36.0660   42.6610 C   0  0  0  0  0  0  0  0  0  0  0  0
   44.8690   36.1190   43.6970 C   0  0  0  0  0  0  0  0  0  0  0  0
   44.8670   35.1320   44.6230 N   0  0  0  0  0  0  0  0  0  0  0  0
   45.7380   34.1010   44.5660 C   0  0  0  0  0  0  0  0  0  0  0  0
   46.6540   34.0230   43.5680 N   0  0  0  0  0  0  0  0  0  0  0  0
   46.0390   31.7450   45.1650 C   0  0  0  0  0  0  0  0  0  0  0  0
   45.7380   33.0280   45.5700 C   0  0  0  0  0  0  0  0  0  0  0  0
   45.4440   33.2810   46.9040 C   0  0  0  0  0  0  0  0  0  0  0  0
   45.4610   32.2280   47.8020 C   0  0  0  0  0  0  0  0  0  0  0  0
   45.2280   32.1490   49.1190 N   0  0  0  0  0  0  0  0  0  0  0  0
   45.3670   30.8890   49.5600 C   0  0  0  0  0  0  0  0  0  0  0  0
   45.7080   30.0940   48.4770 C   0  0  0  0  0  0  0  0  0  0  0  0
   45.7650   30.9360   47.3850 C   0  0  0  0  0  0  0  0  0  0  0  0
   46.0540   30.7000   46.0620 C   0  0  0  0  0  0  0  0  0  0  0  0
   47.6140   34.9970   41.5350 C   0  0  0  0  0  0  0  0  0  0  0  0
   48.7040   35.6770   41.5120 O   0  0  0  0  0  0  0  0  0  0  0  0
   47.3190   34.2010   40.3820 N   0  0  0  0  0  0  0  0  0  0  0  0
   45.9960   33.6550   40.1570 C   0  0  0  0  0  0  0  0  0  0  0  0
   46.0770   32.5170   39.1560 C   0  0  0  0  0  0  0  0  0  0  0  0
   46.5520   33.0640   37.8240 C   0  0  0  0  0  0  0  0  0  0  0  0
   47.7240   33.9950   37.9860 C   0  0  0  0  0  0  0  0  0  0  0  0
   48.3250   33.9000   39.3830 C   0  0  0  0  0  0  0  0  0  0  0  0
   45.8318   36.8469   41.8871 H   0  0  0  0  0  0  0  0  0  0  0  0
   44.1500   36.9489   43.7624 H   0  0  0  0  0  0  0  0  0  0  0  0
   46.2712   31.5526   44.1071 H   0  0  0  0  0  0  0  0  0  0  0  0
   45.2020   34.2999   47.2405 H   0  0  0  0  0  0  0  0  0  0  0  0
   44.9753   32.9502   49.7149 H   0  0  0  0  0  0  0  0  0  0  0  0
   45.2339   30.5477   50.5972 H   0  0  0  0  0  0  0  0  0  0  0  0
   45.8955   29.0101   48.4861 H   0  0  0  0  0  0  0  0  0  0  0  0
   46.2959   29.6823   45.7217 H   0  0  0  0  0  0  0  0  0  0  0  0
   45.5892   33.2783   41.1071 H   0  0  0  0  0  0  0  0  0  0  0  0
   45.3386   34.4431   39.7610 H   0  0  0  0  0  0  0  0  0  0  0  0
   46.7866   31.7580   39.5171 H   0  0  0  0  0  0  0  0  0  0  0  0
   45.0854   32.0562   39.0362 H   0  0  0  0  0  0  0  0  0  0  0  0
   45.7250   33.6124   37.3493 H   0  0  0  0  0  0  0  0  0  0  0  0
   46.8735   32.2157   37.2019 H   0  0  0  0  0  0  0  0  0  0  0  0
   48.4947   33.7311   37.2468 H   0  0  0  0  0  0  0  0  0  0  0  0
   47.3698   35.0250   37.8325 H   0  0  0  0  0  0  0  0  0  0  0  0
   48.7058   32.8810   39.5463 H   0  0  0  0  0  0  0  0  0  0  0  0
   49.1465   34.6263   39.4706 H   0  0  0  0  0  0  0  0  0  0  0  0
  1  2  2  0
  1  6  1  0
  2  3  1  0
  3  4  2  0
  5  4  1  0
  5  8  1  0
  6  5  2  0
  7  8  2  0
  7 15  1  0
  8  9  1  0
  9 10  2  0
 10 11  1  0
 11 12  1  0
 13 12  2  0
 14 10  1  0
 14 13  1  0
 15 14  2  0
 16  1  1  0
 17 16  2  0
 18 16  1  0
 19 18  1  0
 20 19  1  0
 21 22  1  0
 21 20  1  0
 22 23  1  0
 23 18  1  0
  2 24  1  0
  3 25  1  0
  7 26  1  0
  9 27  1  0
 11 28  1  0
 12 29  1  0
 13 30  1  0
 15 31  1  0
 19 32  1  0
 19 33  1  0
 20 34  1  0
 20 35  1  0
 21 36  1  0
 21 37  1  0
 22 38  1  0
 22 39  1  0
 23 40  1  0
 23 41  1  0
M  ISO  8  24  14  25  14  26  14  27  14  28   9  29  14  30  14  31  14
M  ISO  8  32  13  33  13  34  13  35  13  36  13  37  13  38  13  39  13
M  ISO  2  40  13  41  13
M  END
>  <minimizedAffinity>  (1) 
-6.40509558

>  <minimizedRMSD>  (1) 
0.563216567

$$$$
