
     RDKit          3D

 34 36  0  0  0  0  0  0  0  0999 V2000
   46.1630   31.3460   44.9190 C   0  0  0  0  0  0  0  0  0  0  0  0
   46.1740   32.7330   45.0010 C   0  0  0  0  0  0  0  0  0  0  0  0
   45.9870   33.3180   46.2220 C   0  0  0  0  0  0  0  0  0  0  0  0
   45.7900   32.5510   47.3460 C   0  0  0  0  0  0  0  0  0  0  0  0
   45.5830   32.8480   48.6450 N   0  0  0  0  0  0  0  0  0  0  0  0
   45.4440   31.7200   49.3720 C   0  0  0  0  0  0  0  0  0  0  0  0
   45.5630   30.6500   48.5250 C   0  0  0  0  0  0  0  0  0  0  0  0
   45.7780   31.1640   47.2600 C   0  0  0  0  0  0  0  0  0  0  0  0
   45.9660   30.5560   46.0400 C   0  0  0  0  0  0  0  0  0  0  0  0
   47.7850   34.7460   42.4350 C   0  0  0  0  0  0  0  0  0  0  0  0
   46.8180   34.9180   41.4780 C   0  0  0  0  0  0  0  0  0  0  0  0
   45.5850   34.3310   41.7160 C   0  0  0  0  0  0  0  0  0  0  0  0
   45.4050   33.6340   42.8600 N   0  0  0  0  0  0  0  0  0  0  0  0
   46.3890   33.4930   43.7700 C   0  0  0  0  0  0  0  0  0  0  0  0
   47.5900   34.0500   43.5630 N   0  0  0  0  0  0  0  0  0  0  0  0
   49.0590   35.3780   42.1410 C   0  0  0  0  0  0  0  0  0  0  0  0
   49.2930   36.2100   41.2340 O   0  0  0  0  0  0  0  0  0  0  0  0
   49.9950   34.8740   43.0820 N   0  0  0  0  0  0  0  0  0  0  0  0
   44.4380   34.4170   40.7980 C   0  0  0  0  0  0  0  0  0  0  0  0
   43.4450   35.4740   41.1350 C   0  0  0  0  0  0  0  0  0  0  0  0
   46.3141   30.8642   43.9418 H   0  0  0  0  0  0  0  0  0  0  0  0
   45.9942   34.4147   46.3064 H   0  0  0  0  0  0  0  0  0  0  0  0
   45.5374   33.8028   49.0286 H   0  0  0  0  0  0  0  0  0  0  0  0
   45.2661   31.6685   50.4563 H   0  0  0  0  0  0  0  0  0  0  0  0
   45.4997   29.5865   48.7988 H   0  0  0  0  0  0  0  0  0  0  0  0
   45.9600   29.4592   45.9560 H   0  0  0  0  0  0  0  0  0  0  0  0
   47.0121   35.4959   40.5624 H   0  0  0  0  0  0  0  0  0  0  0  0
   50.9741   35.1926   43.0557 H   0  0  0  0  0  0  0  0  0  0  0  0
   49.6949   34.1897   43.7910 H   0  0  0  0  0  0  0  0  0  0  0  0
   43.9203   33.4465   40.8057 H   0  0  0  0  0  0  0  0  0  0  0  0
   44.8496   34.6823   39.8130 H   0  0  0  0  0  0  0  0  0  0  0  0
   43.3612   35.5632   42.2282 H   0  0  0  0  0  0  0  0  0  0  0  0
   43.7747   36.4348   40.7129 H   0  0  0  0  0  0  0  0  0  0  0  0
   42.4655   35.2049   40.7129 H   0  0  0  0  0  0  0  0  0  0  0  0
  1  2  2  0
  1  9  1  0
  2  3  1  0
  3  4  2  0
  4  5  1  0
  5  6  1  0
  7  6  2  0
  8  4  1  0
  8  7  1  0
  9  8  2  0
 10 15  2  0
 11 12  2  0
 11 10  1  0
 12 13  1  0
 13 14  2  0
 14  2  1  0
 15 14  1  0
 16 10  1  0
 16 18  1  0
 17 16  2  0
 19 20  1  0
 19 12  1  0
  1 21  1  0
  3 22  1  0
  5 23  1  0
  6 24  1  0
  7 25  1  0
  9 26  1  0
 11 27  1  0
 18 28  1  0
 18 29  1  0
 19 30  1  0
 19 31  1  0
 20 32  1  0
 20 33  1  0
 20 34  1  0
M  ISO  8  21  14  22  14  23   9  24  14  25  14  26  14  27  14  30   8
M  ISO  4  31   8  32   8  33   8  34   8
M  END
>  <minimizedAffinity>  (1) 
-6.58460474

>  <minimizedRMSD>  (1) 
1.8876276

$$$$
