
     RDKit          3D

 21 22  0  0  0  0  0  0  0  0999 V2000
   45.6290   32.1220   48.3670 C   0  0  0  0  0  0  0  0  0  0  0  0
   45.3420   33.1360   47.4340 C   0  0  0  0  0  0  0  0  0  0  0  0
   45.9790   33.0630   46.2000 C   0  0  0  0  0  0  0  0  0  0  0  0
   46.8500   32.0290   45.9370 N   0  0  0  0  0  0  0  0  0  0  0  0
   47.0940   31.0720   46.8710 C   0  0  0  0  0  0  0  0  0  0  0  0
   46.4880   31.1270   48.0680 N   0  0  0  0  0  0  0  0  0  0  0  0
   47.6800   32.8310   43.7150 Cl  0  0  0  0  0  0  0  0  0  0  0  0
   46.4720   34.1020   43.8690 C   0  0  0  0  0  0  0  0  0  0  0  0
   45.8310   34.0160   45.1120 C   0  0  0  0  0  0  0  0  0  0  0  0
   44.8280   34.9310   45.4460 C   0  0  0  0  0  0  0  0  0  0  0  0
   44.4980   35.9140   44.4980 C   0  0  0  0  0  0  0  0  0  0  0  0
   45.1490   35.9680   43.2830 C   0  0  0  0  0  0  0  0  0  0  0  0
   46.1510   35.0560   42.9520 C   0  0  0  0  0  0  0  0  0  0  0  0
   44.4780   34.1970   47.6550 O   0  0  0  0  0  0  0  0  0  0  0  0
   45.1452   32.1417   49.3547 H   0  0  0  0  0  0  0  0  0  0  0  0
   47.7897   30.2503   46.6456 H   0  0  0  0  0  0  0  0  0  0  0  0
   44.3148   34.8829   46.4178 H   0  0  0  0  0  0  0  0  0  0  0  0
   43.7119   36.6486   44.7271 H   0  0  0  0  0  0  0  0  0  0  0  0
   44.8716   36.7481   42.5587 H   0  0  0  0  0  0  0  0  0  0  0  0
   46.6656   35.1058   41.9810 H   0  0  0  0  0  0  0  0  0  0  0  0
   44.3297   34.8708   46.9450 H   0  0  0  0  0  0  0  0  0  0  0  0
  2 14  1  0
  2  1  2  0
  3  2  1  0
  4  3  2  0
  4  5  1  0
  5  6  2  0
  6  1  1  0
  7  8  1  0
  8  9  2  0
  9 10  1  0
  9  3  1  0
 11 10  2  0
 12 11  1  0
 13 12  2  0
 13  8  1  0
  1 15  1  0
  5 16  1  0
 10 17  1  0
 11 18  1  0
 12 19  1  0
 13 20  1  0
 14 21  1  0
M  ISO  7  15  14  16  14  17  14  18  14  19  14  20  14  21   3
M  END
>  <minimizedAffinity>  (1) 
-5.59368277

>  <minimizedRMSD>  (1) 
4.30028439

$$$$
