
     RDKit          3D

 26 29  0  0  1  0  0  0  0  0999 V2000
   45.2890   34.0060   40.9160 C   0  0  1  0  0  0  0  0  0  0  0  0
   46.5860   34.0840   40.2030 C   0  0  2  0  0  0  0  0  0  0  0  0
   46.0180   32.7650   40.5180 C   0  0  0  0  0  0  0  0  0  0  0  0
   44.8940   35.7090   42.6790 C   0  0  0  0  0  0  0  0  0  0  0  0
   45.1970   34.3770   42.3610 C   0  0  0  0  0  0  0  0  0  0  0  0
   45.3850   33.4430   43.3900 C   0  0  0  0  0  0  0  0  0  0  0  0
   45.2570   33.9050   44.6730 N   0  0  0  0  0  0  0  0  0  0  0  0
   44.9660   35.1890   44.9590 C   0  0  0  0  0  0  0  0  0  0  0  0
   44.7810   36.1070   43.9520 N   0  0  0  0  0  0  0  0  0  0  0  0
   47.7590   34.5450   40.9360 C   0  0  0  0  0  0  0  0  0  0  0  0
   48.4930   35.3080   40.3880 O   0  0  0  0  0  0  0  0  0  0  0  0
   48.9060   34.9630   41.7210 C   0  0  0  0  0  0  0  0  0  0  0  0
   49.9040   33.8260   42.0270 C   0  0  0  0  0  0  0  0  0  0  0  0
   49.1850   34.5400   43.1000 C   0  0  0  0  0  0  0  0  0  0  0  0
   44.2824   34.4160   40.7465 H   0  0  0  0  0  0  0  0  0  0  0  0
   46.9374   34.5713   39.2816 H   0  0  0  0  0  0  0  0  0  0  0  0
   45.6228   32.1296   39.7117 H   0  0  0  0  0  0  0  0  0  0  0  0
   46.3767   31.8700   41.0475 H   0  0  0  0  0  0  0  0  0  0  0  0
   44.7468   36.4385   41.8690 H   0  0  0  0  0  0  0  0  0  0  0  0
   45.6237   32.3905   43.1771 H   0  0  0  0  0  0  0  0  0  0  0  0
   44.8755   35.5061   46.0084 H   0  0  0  0  0  0  0  0  0  0  0  0
   48.3399   33.7001   40.5377 H   0  0  0  0  0  0  0  0  0  0  0  0
   49.6485   32.7835   41.7862 H   0  0  0  0  0  0  0  0  0  0  0  0
   50.9570   33.6158   41.7882 H   0  0  0  0  0  0  0  0  0  0  0  0
   49.7416   35.2120   43.7697 H   0  0  0  0  0  0  0  0  0  0  0  0
   48.5497   34.2117   43.9358 H   0  0  0  0  0  0  0  0  0  0  0  0
  1  5  1  0
  2  3  1  0
  2  1  1  0
  2 10  1  0
  3  1  1  0
  4  9  2  0
  5  4  1  0
  5  6  2  0
  6  7  1  0
  7  8  2  0
  9  8  1  0
 10 11  1  0
 10 12  1  0
 11 12  1  0
 12 13  1  0
 12 14  1  0
 13 14  1  0
  1 15  1  6
  2 16  1  6
  3 17  1  0
  3 18  1  0
  4 19  1  0
  6 20  1  0
  8 21  1  0
 10 22  1  0
 13 23  1  0
 13 24  1  0
 14 25  1  0
 14 26  1  0
M  ISO  8  15  13  16  13  17  13  18  13  19  14  20  14  21  14  22  13
M  ISO  4  23  13  24  13  25  13  26  13
M  END
>  <minimizedAffinity>  (1) 
-4.05144978

>  <minimizedRMSD>  (1) 
1.24397337

$$$$
