
     RDKit          3D

 19 20  0  0  0  0  0  0  0  0999 V2000
   45.6550   32.1110   48.4410 C   0  0  0  0  0  0  0  0  0  0  0  0
   45.3280   33.1170   47.5150 C   0  0  0  0  0  0  0  0  0  0  0  0
   45.9720   33.0710   46.2820 C   0  0  0  0  0  0  0  0  0  0  0  0
   46.8630   32.0930   46.0240 N   0  0  0  0  0  0  0  0  0  0  0  0
   47.1600   31.1300   46.9420 C   0  0  0  0  0  0  0  0  0  0  0  0
   46.5360   31.1690   48.1430 N   0  0  0  0  0  0  0  0  0  0  0  0
   45.6780   34.0920   45.2680 C   0  0  0  0  0  0  0  0  0  0  0  0
   44.7530   35.0980   45.4520 C   0  0  0  0  0  0  0  0  0  0  0  0
   44.6050   35.9760   44.3830 C   0  0  0  0  0  0  0  0  0  0  0  0
   45.3250   35.8250   43.2740 N   0  0  0  0  0  0  0  0  0  0  0  0
   46.2170   34.8530   43.1010 C   0  0  0  0  0  0  0  0  0  0  0  0
   46.3790   33.9900   44.1180 N   0  0  0  0  0  0  0  0  0  0  0  0
   44.4160   34.1300   47.7600 O   0  0  0  0  0  0  0  0  0  0  0  0
   45.1711   32.1066   49.4288 H   0  0  0  0  0  0  0  0  0  0  0  0
   47.8897   30.3396   46.7124 H   0  0  0  0  0  0  0  0  0  0  0  0
   44.1719   35.1994   46.3805 H   0  0  0  0  0  0  0  0  0  0  0  0
   43.8848   36.8043   44.4552 H   0  0  0  0  0  0  0  0  0  0  0  0
   46.7945   34.7603   42.1694 H   0  0  0  0  0  0  0  0  0  0  0  0
   44.2310   34.8087   47.0634 H   0  0  0  0  0  0  0  0  0  0  0  0
  2 13  1  0
  2  1  2  0
  3  2  1  0
  4  3  2  0
  4  5  1  0
  5  6  2  0
  6  1  1  0
  7  8  2  0
  7  3  1  0
  9  8  1  0
 10  9  2  0
 11 10  1  0
 11 12  2  0
 12  7  1  0
  1 14  1  0
  5 15  1  0
  8 16  1  0
  9 17  1  0
 11 18  1  0
 13 19  1  0
M  ISO  6  14  14  15  14  16  14  17  14  18  14  19   3
M  END
>  <minimizedAffinity>  (1) 
-5.03935337

>  <minimizedRMSD>  (1) 
4.28692102

$$$$
