
     RDKit          3D

 26 27  0  0  0  0  0  0  0  0999 V2000
   44.4830   35.6790   45.0610 C   0  0  0  0  0  0  0  0  0  0  0  0
   45.0730   35.6930   43.7900 C   0  0  0  0  0  0  0  0  0  0  0  0
   45.9990   34.7050   43.4870 C   0  0  0  0  0  0  0  0  0  0  0  0
   46.2960   33.7700   44.4250 N   0  0  0  0  0  0  0  0  0  0  0  0
   45.7130   33.7770   45.6440 C   0  0  0  0  0  0  0  0  0  0  0  0
   44.8100   34.7350   45.9470 N   0  0  0  0  0  0  0  0  0  0  0  0
   46.6750   34.6000   42.2370 N   0  0  0  0  0  0  0  0  0  0  0  0
   47.9030   35.3840   42.0840 C   0  0  0  0  0  0  0  0  0  0  0  0
   48.5490   35.2040   40.7620 C   0  0  0  0  0  0  0  0  0  0  0  0
   48.1560   33.9390   40.0460 C   0  0  0  0  0  0  0  0  0  0  0  0
   46.6480   33.8780   39.8920 C   0  0  0  0  0  0  0  0  0  0  0  0
   46.0420   33.7120   41.2620 C   0  0  0  0  0  0  0  0  0  0  0  0
   44.7840   36.6400   42.8140 O   0  0  0  0  0  0  0  0  0  0  0  0
   43.7462   36.4501   45.3304 H   0  0  0  0  0  0  0  0  0  0  0  0
   45.9722   33.0069   46.3855 H   0  0  0  0  0  0  0  0  0  0  0  0
   47.6564   36.4485   42.2107 H   0  0  0  0  0  0  0  0  0  0  0  0
   48.6135   35.0313   42.8461 H   0  0  0  0  0  0  0  0  0  0  0  0
   48.2755   36.0588   40.1259 H   0  0  0  0  0  0  0  0  0  0  0  0
   49.6312   35.1372   40.9473 H   0  0  0  0  0  0  0  0  0  0  0  0
   48.6249   33.9227   39.0511 H   0  0  0  0  0  0  0  0  0  0  0  0
   48.4948   33.0719   40.6319 H   0  0  0  0  0  0  0  0  0  0  0  0
   46.2824   34.8085   39.4332 H   0  0  0  0  0  0  0  0  0  0  0  0
   46.3655   33.0335   39.2462 H   0  0  0  0  0  0  0  0  0  0  0  0
   44.9684   33.9458   41.2091 H   0  0  0  0  0  0  0  0  0  0  0  0
   46.1998   32.6729   41.5867 H   0  0  0  0  0  0  0  0  0  0  0  0
   45.2346   36.5968   41.9336 H   0  0  0  0  0  0  0  0  0  0  0  0
  1  6  2  0
  2  1  1  0
  3  2  2  0
  3  4  1  0
  4  5  2  0
  5  6  1  0
  7  3  1  0
  8  7  1  0
  9  8  1  0
 10  9  1  0
 11 10  1  0
 11 12  1  0
 12  7  1  0
 13  2  1  0
  1 14  1  0
  5 15  1  0
  8 16  1  0
  8 17  1  0
  9 18  1  0
  9 19  1  0
 10 20  1  0
 10 21  1  0
 11 22  1  0
 11 23  1  0
 12 24  1  0
 12 25  1  0
 13 26  1  0
M  ISO  8  14  14  15  14  16  13  17  13  18  13  19  13  20  13  21  13
M  ISO  5  22  13  23  13  24  13  25  13  26   3
M  END
>  <minimizedAffinity>  (1) 
-4.67327547

>  <minimizedRMSD>  (1) 
0.695103824

$$$$
