
     RDKit          3D

 17 17  0  0  0  0  0  0  0  0999 V2000
   44.5860   35.5800   45.0960 C   0  0  0  0  0  0  0  0  0  0  0  0
   45.0490   35.7610   43.7730 C   0  0  0  0  0  0  0  0  0  0  0  0
   45.9560   34.8350   43.2830 C   0  0  0  0  0  0  0  0  0  0  0  0
   46.3680   33.8000   44.0750 N   0  0  0  0  0  0  0  0  0  0  0  0
   45.9030   33.6530   45.3470 C   0  0  0  0  0  0  0  0  0  0  0  0
   45.0110   34.5540   45.8370 N   0  0  0  0  0  0  0  0  0  0  0  0
   44.6530   36.7990   42.9420 O   0  0  0  0  0  0  0  0  0  0  0  0
   46.5160   34.8840   41.9070 C   0  0  0  0  0  0  0  0  0  0  0  0
   48.0090   35.2430   41.9620 C   0  0  0  0  0  0  0  0  0  0  0  0
   43.8655   36.2943   45.5210 H   0  0  0  0  0  0  0  0  0  0  0  0
   46.2457   32.8143   45.9708 H   0  0  0  0  0  0  0  0  0  0  0  0
   45.0183   36.8652   42.0242 H   0  0  0  0  0  0  0  0  0  0  0  0
   45.9792   35.6452   41.3217 H   0  0  0  0  0  0  0  0  0  0  0  0
   46.3979   33.8985   41.4328 H   0  0  0  0  0  0  0  0  0  0  0  0
   48.3292   35.3200   43.0116 H   0  0  0  0  0  0  0  0  0  0  0  0
   48.5933   34.4598   41.4569 H   0  0  0  0  0  0  0  0  0  0  0  0
   48.1733   36.2063   41.4569 H   0  0  0  0  0  0  0  0  0  0  0  0
  1  6  2  0
  2  1  1  0
  3  2  2  0
  3  4  1  0
  4  5  2  0
  5  6  1  0
  7  2  1  0
  8  9  1  0
  8  3  1  0
  1 10  1  0
  5 11  1  0
  7 12  1  0
  8 13  1  0
  8 14  1  0
  9 15  1  0
  9 16  1  0
  9 17  1  0
M  ISO  8  10  14  11  14  12   3  13   8  14   8  15   8  16   8  17   8
M  END
>  <minimizedAffinity>  (1) 
-3.70563555

>  <minimizedRMSD>  (1) 
0.419435024

$$$$
