
     RDKit          3D

 12 12  0  0  0  0  0  0  0  0999 V2000
   44.5120   35.6090   45.1000 C   0  0  0  0  0  0  0  0  0  0  0  0
   45.0810   35.7140   43.8170 C   0  0  0  0  0  0  0  0  0  0  0  0
   46.0300   34.7590   43.4680 C   0  0  0  0  0  0  0  0  0  0  0  0
   46.3650   33.7890   44.3480 N   0  0  0  0  0  0  0  0  0  0  0  0
   45.8010   33.7120   45.5720 C   0  0  0  0  0  0  0  0  0  0  0  0
   44.8810   34.6270   45.9280 N   0  0  0  0  0  0  0  0  0  0  0  0
   44.7480   36.6990   42.9140 O   0  0  0  0  0  0  0  0  0  0  0  0
   46.8390   34.7680   41.8700 S   0  0  0  0  0  0  0  0  0  0  0  0
   43.7575   36.3411   45.4238 H   0  0  0  0  0  0  0  0  0  0  0  0
   46.0898   32.9117   46.2692 H   0  0  0  0  0  0  0  0  0  0  0  0
   45.1822   36.7225   42.0246 H   0  0  0  0  0  0  0  0  0  0  0  0
   48.1976   34.7831   42.0460 H   0  0  0  0  0  0  0  0  0  0  0  0
  1  6  2  0
  2  1  1  0
  3  2  2  0
  3  4  1  0
  4  5  2  0
  5  6  1  0
  7  2  1  0
  8  3  1  0
  1  9  1  0
  5 10  1  0
  7 11  1  0
  8 12  1  0
M  ISO  4   9  14  10  14  11   3  12  11
M  END
>  <minimizedAffinity>  (1) 
-3.27269197

>  <minimizedRMSD>  (1) 
0.313515514

$$$$
