
     RDKit          3D

 13 13  0  0  0  0  0  0  0  0999 V2000
   44.5300   35.6010   45.1110 C   0  0  0  0  0  0  0  0  0  0  0  0
   45.0540   35.7850   43.8190 C   0  0  0  0  0  0  0  0  0  0  0  0
   45.9980   34.8670   43.3810 C   0  0  0  0  0  0  0  0  0  0  0  0
   46.3710   33.8550   44.1900 N   0  0  0  0  0  0  0  0  0  0  0  0
   45.8430   33.7010   45.4410 C   0  0  0  0  0  0  0  0  0  0  0  0
   44.9250   34.5910   45.8720 N   0  0  0  0  0  0  0  0  0  0  0  0
   46.5810   34.9750   42.0900 N   0  0  0  0  0  0  0  0  0  0  0  0
   44.6810   36.8150   42.9850 O   0  0  0  0  0  0  0  0  0  0  0  0
   43.7798   36.3073   45.4961 H   0  0  0  0  0  0  0  0  0  0  0  0
   46.1604   32.8672   46.0845 H   0  0  0  0  0  0  0  0  0  0  0  0
   47.2803   34.2846   41.7813 H   0  0  0  0  0  0  0  0  0  0  0  0
   46.3044   35.7437   41.4627 H   0  0  0  0  0  0  0  0  0  0  0  0
   45.0848   36.8938   42.0845 H   0  0  0  0  0  0  0  0  0  0  0  0
  1  6  2  0
  2  1  1  0
  3  2  2  0
  3  4  1  0
  4  5  2  0
  5  6  1  0
  7  3  1  0
  8  2  1  0
  1  9  1  0
  5 10  1  0
  7 11  1  0
  7 12  1  0
  8 13  1  0
M  ISO  3   9  14  10  14  13   3
M  END
>  <minimizedAffinity>  (1) 
-3.34028721

>  <minimizedRMSD>  (1) 
0.169927716

$$$$
