
     RDKit          3D

 18 18  0  0  0  0  0  0  0  0999 V2000
   44.4860   35.6680   45.1140 C   0  0  0  0  0  0  0  0  0  0  0  0
   45.0420   35.8470   43.8440 C   0  0  0  0  0  0  0  0  0  0  0  0
   45.9850   34.9030   43.4590 C   0  0  0  0  0  0  0  0  0  0  0  0
   46.3250   33.8900   44.2760 N   0  0  0  0  0  0  0  0  0  0  0  0
   45.7570   33.7540   45.5080 C   0  0  0  0  0  0  0  0  0  0  0  0
   44.8420   34.6580   45.8950 N   0  0  0  0  0  0  0  0  0  0  0  0
   44.7160   36.8730   42.9830 O   0  0  0  0  0  0  0  0  0  0  0  0
   46.6560   34.9480   42.1720 C   0  0  0  0  0  0  0  0  0  0  0  0
   47.9420   35.1900   41.9770 C   0  0  0  0  0  0  0  0  0  0  0  0
   48.5460   35.2160   40.6200 C   0  0  0  0  0  0  0  0  0  0  0  0
   43.7331   36.3843   45.4747 H   0  0  0  0  0  0  0  0  0  0  0  0
   46.0416   32.9229   46.1700 H   0  0  0  0  0  0  0  0  0  0  0  0
   45.1537   36.9337   42.0971 H   0  0  0  0  0  0  0  0  0  0  0  0
   46.0400   34.7645   41.2794 H   0  0  0  0  0  0  0  0  0  0  0  0
   48.5856   35.3783   42.8490 H   0  0  0  0  0  0  0  0  0  0  0  0
   49.6415   35.2632   40.7071 H   0  0  0  0  0  0  0  0  0  0  0  0
   48.2605   34.3047   40.0740 H   0  0  0  0  0  0  0  0  0  0  0  0
   48.1832   36.0994   40.0740 H   0  0  0  0  0  0  0  0  0  0  0  0
  1  6  2  0
  2  1  1  0
  3  2  2  0
  3  4  1  0
  4  5  2  0
  5  6  1  0
  7  2  1  0
  8  3  1  0
  9  8  2  0
 10  9  1  0
  1 11  1  0
  5 12  1  0
  7 13  1  0
  8 14  1  0
  9 15  1  0
 10 16  1  0
 10 17  1  0
 10 18  1  0
M  ISO  6  11  14  12  14  13   3  16   8  17   8  18   8
M  END
>  <minimizedAffinity>  (1) 
-4.31462002

>  <minimizedRMSD>  (1) 
0.646945596

$$$$
