
     RDKit          3D

 23 24  0  0  0  0  0  0  0  0999 V2000
   44.5300   35.5780   45.0970 C   0  0  0  0  0  0  0  0  0  0  0  0
   45.1260   35.6820   43.8180 C   0  0  0  0  0  0  0  0  0  0  0  0
   46.0890   34.7030   43.5090 C   0  0  0  0  0  0  0  0  0  0  0  0
   46.3930   33.7460   44.4050 N   0  0  0  0  0  0  0  0  0  0  0  0
   45.7900   33.6900   45.6240 C   0  0  0  0  0  0  0  0  0  0  0  0
   44.8530   34.6200   45.9590 N   0  0  0  0  0  0  0  0  0  0  0  0
   46.6920   34.8030   42.2220 N   0  0  0  0  0  0  0  0  0  0  0  0
   47.9510   35.4230   41.8370 C   0  0  0  0  0  0  0  0  0  0  0  0
   48.5850   34.2230   41.1300 C   0  0  0  0  0  0  0  0  0  0  0  0
   47.4790   33.9330   40.1360 C   0  0  0  0  0  0  0  0  0  0  0  0
   46.2520   34.3300   40.9240 C   0  0  0  0  0  0  0  0  0  0  0  0
   44.8160   36.6590   42.8990 O   0  0  0  0  0  0  0  0  0  0  0  0
   43.7705   36.3183   45.3887 H   0  0  0  0  0  0  0  0  0  0  0  0
   46.0586   32.8961   46.3364 H   0  0  0  0  0  0  0  0  0  0  0  0
   47.8031   36.2747   41.1567 H   0  0  0  0  0  0  0  0  0  0  0  0
   48.5392   35.8611   42.6568 H   0  0  0  0  0  0  0  0  0  0  0  0
   49.5297   34.4875   40.6324 H   0  0  0  0  0  0  0  0  0  0  0  0
   48.8724   33.3841   41.7808 H   0  0  0  0  0  0  0  0  0  0  0  0
   47.4536   32.8677   39.8629 H   0  0  0  0  0  0  0  0  0  0  0  0
   47.5872   34.4631   39.1782 H   0  0  0  0  0  0  0  0  0  0  0  0
   45.7121   35.1307   40.3974 H   0  0  0  0  0  0  0  0  0  0  0  0
   45.5743   33.4711   41.0378 H   0  0  0  0  0  0  0  0  0  0  0  0
   45.2715   36.6743   42.0201 H   0  0  0  0  0  0  0  0  0  0  0  0
  1  6  2  0
  2  1  1  0
  3  2  2  0
  3  4  1  0
  4  5  2  0
  5  6  1  0
  7  3  1  0
  8  7  1  0
  9  8  1  0
 10 11  1  0
 10  9  1  0
 11  7  1  0
 12  2  1  0
  1 13  1  0
  5 14  1  0
  8 15  1  0
  8 16  1  0
  9 17  1  0
  9 18  1  0
 10 19  1  0
 10 20  1  0
 11 21  1  0
 11 22  1  0
 12 23  1  0
M  ISO  8  13  14  14  14  15  13  16  13  17  13  18  13  19  13  20  13
M  ISO  3  21  13  22  13  23   3
M  END
>  <minimizedAffinity>  (1) 
-4.31548929

>  <minimizedRMSD>  (1) 
1.07166588

$$$$
