
     RDKit          3D

 18 19  0  0  0  0  0  0  0  0999 V2000
   45.1850   34.1670   46.1330 C   0  0  0  0  0  0  0  0  0  0  0  0
   45.3460   34.4960   44.7770 C   0  0  0  0  0  0  0  0  0  0  0  0
   46.2930   33.7480   44.0390 C   0  0  0  0  0  0  0  0  0  0  0  0
   46.9800   32.7700   44.6710 N   0  0  0  0  0  0  0  0  0  0  0  0
   46.7870   32.4940   45.9740 C   0  0  0  0  0  0  0  0  0  0  0  0
   45.8980   33.1810   46.7130 N   0  0  0  0  0  0  0  0  0  0  0  0
   44.5570   35.5750   44.1690 C   0  0  0  0  0  0  0  0  0  0  0  0
   45.2060   36.5620   43.2540 C   0  0  0  0  0  0  0  0  0  0  0  0
   44.1830   35.5220   42.7600 C   0  0  0  0  0  0  0  0  0  0  0  0
   44.2730   34.8850   46.8530 O   0  0  0  0  0  0  0  0  0  0  0  0
   46.4668   33.9577   42.9732 H   0  0  0  0  0  0  0  0  0  0  0  0
   47.3694   31.6885   46.4450 H   0  0  0  0  0  0  0  0  0  0  0  0
   43.9831   35.6637   45.1032 H   0  0  0  0  0  0  0  0  0  0  0  0
   44.9374   37.6276   43.3034 H   0  0  0  0  0  0  0  0  0  0  0  0
   46.2373   36.8440   42.9955 H   0  0  0  0  0  0  0  0  0  0  0  0
   43.1796   35.8434   42.4440 H   0  0  0  0  0  0  0  0  0  0  0  0
   44.1765   34.7425   41.9839 H   0  0  0  0  0  0  0  0  0  0  0  0
   43.7551   35.6069   46.4162 H   0  0  0  0  0  0  0  0  0  0  0  0
  1  6  2  0
  1 10  1  0
  2  1  1  0
  3  4  1  0
  3  2  2  0
  4  5  2  0
  5  6  1  0
  7  2  1  0
  8  7  1  0
  9  8  1  0
  9  7  1  0
  3 11  1  0
  5 12  1  0
  7 13  1  0
  8 14  1  0
  8 15  1  0
  9 16  1  0
  9 17  1  0
 10 18  1  0
M  ISO  8  11  14  12  14  13  13  14  13  15  13  16  13  17  13  18   3
M  END
>  <minimizedAffinity>  (1) 
-4.08635998

>  <minimizedRMSD>  (1) 
2.32960725

$$$$
