
     RDKit          3D

 14 14  0  0  0  0  0  0  0  0999 V2000
   45.0470   34.6920   44.9990 C   0  0  0  0  0  0  0  0  0  0  0  0
   45.8480   34.5570   43.8520 C   0  0  0  0  0  0  0  0  0  0  0  0
   46.9060   33.6410   43.9070 C   0  0  0  0  0  0  0  0  0  0  0  0
   47.1010   32.9370   45.0590 N   0  0  0  0  0  0  0  0  0  0  0  0
   46.3090   33.1000   46.1310 C   0  0  0  0  0  0  0  0  0  0  0  0
   45.2820   33.9730   46.1100 N   0  0  0  0  0  0  0  0  0  0  0  0
   45.5390   35.3770   42.6590 C   0  0  0  0  0  0  0  0  0  0  0  0
   44.2370   35.1100   42.2170 F   0  0  0  0  0  0  0  0  0  0  0  0
   45.5540   36.7050   43.0230 F   0  0  0  0  0  0  0  0  0  0  0  0
   46.3720   35.1670   41.6050 F   0  0  0  0  0  0  0  0  0  0  0  0
   44.0170   35.5810   44.9500 O   0  0  0  0  0  0  0  0  0  0  0  0
   47.5658   33.4924   43.0395 H   0  0  0  0  0  0  0  0  0  0  0  0
   46.5012   32.5120   47.0406 H   0  0  0  0  0  0  0  0  0  0  0  0
   43.8540   36.1048   44.1259 H   0  0  0  0  0  0  0  0  0  0  0  0
  1  6  2  0
  2  3  2  0
  2  1  1  0
  3  4  1  0
  4  5  2  0
  6  5  1  0
  7  9  1  0
  7  2  1  0
  8  7  1  0
 10  7  1  0
 11  1  1  0
  3 12  1  0
  5 13  1  0
 11 14  1  0
M  ISO  3  12  14  13  14  14   3
M  END
>  <minimizedAffinity>  (1) 
-4.18315554

>  <minimizedRMSD>  (1) 
1.29983997

$$$$
