
     RDKit          3D

 12 12  0  0  0  0  0  0  0  0999 V2000
   44.9670   35.4910   44.2850 C   0  0  0  0  0  0  0  0  0  0  0  0
   45.9320   34.8120   43.4920 C   0  0  0  0  0  0  0  0  0  0  0  0
   46.5760   33.7200   44.0930 C   0  0  0  0  0  0  0  0  0  0  0  0
   46.2540   33.3810   45.3610 N   0  0  0  0  0  0  0  0  0  0  0  0
   45.3240   34.0630   46.0770 C   0  0  0  0  0  0  0  0  0  0  0  0
   44.6910   35.1070   45.5360 N   0  0  0  0  0  0  0  0  0  0  0  0
   44.3350   36.5600   43.6970 O   0  0  0  0  0  0  0  0  0  0  0  0
   46.1880   35.2440   42.1960 O   0  0  0  0  0  0  0  0  0  0  0  0
   47.3338   33.1467   43.5389 H   0  0  0  0  0  0  0  0  0  0  0  0
   45.0909   33.7545   47.1068 H   0  0  0  0  0  0  0  0  0  0  0  0
   44.5615   36.8196   42.7689 H   0  0  0  0  0  0  0  0  0  0  0  0
   45.6995   36.0226   41.8282 H   0  0  0  0  0  0  0  0  0  0  0  0
  1  6  2  0
  2  3  2  0
  2  1  1  0
  3  4  1  0
  4  5  2  0
  6  5  1  0
  7  1  1  0
  8  2  1  0
  3  9  1  0
  5 10  1  0
  7 11  1  0
  8 12  1  0
M  ISO  4   9  14  10  14  11   3  12   3
M  END
>  <minimizedAffinity>  (1) 
-3.17571664

>  <minimizedRMSD>  (1) 
0.237949327

$$$$
