
     RDKit          3D

 25 25  0  0  0  0  0  0  0  0999 V2000
   46.7720   33.4980   43.7770 C   0  0  0  0  0  0  0  0  0  0  0  0
   45.7240   34.3780   44.0830 C   0  0  0  0  0  0  0  0  0  0  0  0
   45.2020   34.3340   45.3900 C   0  0  0  0  0  0  0  0  0  0  0  0
   45.7230   33.4610   46.2720 N   0  0  0  0  0  0  0  0  0  0  0  0
   46.7350   32.6310   45.9320 C   0  0  0  0  0  0  0  0  0  0  0  0
   47.2580   32.6420   44.7030 N   0  0  0  0  0  0  0  0  0  0  0  0
   47.2230   31.7440   46.9270 N   0  0  0  0  0  0  0  0  0  0  0  0
   45.2240   35.3010   43.0320 C   0  0  0  0  0  0  0  0  0  0  0  0
   46.1820   36.2600   42.7620 F   0  0  0  0  0  0  0  0  0  0  0  0
   45.0280   34.5730   41.8760 F   0  0  0  0  0  0  0  0  0  0  0  0
   44.0760   35.9510   43.3750 F   0  0  0  0  0  0  0  0  0  0  0  0
   46.3390   31.4410   48.3660 S   0  0  0  0  0  0  0  0  0  0  0  0
   45.8040   32.7340   48.9630 O   0  0  0  0  0  0  0  0  0  0  0  0
   45.1530   30.5830   48.0300 O   0  0  0  0  0  0  0  0  0  0  0  0
   47.2590   30.6020   49.4900 O   0  0  0  0  0  0  0  0  0  0  0  0
   47.2680   33.5500   42.5150 O   0  0  0  0  0  0  0  0  0  0  0  0
   48.5220   34.0530   42.1300 C   0  0  0  0  0  0  0  0  0  0  0  0
   48.9990   34.8240   43.1850 F   0  0  0  0  0  0  0  0  0  0  0  0
   49.3570   33.0250   41.8040 F   0  0  0  0  0  0  0  0  0  0  0  0
   48.3570   34.9410   41.0780 F   0  0  0  0  0  0  0  0  0  0  0  0
   44.3806   35.0032   45.6858 H   0  0  0  0  0  0  0  0  0  0  0  0
   48.1270   31.2722   46.7821 H   0  0  0  0  0  0  0  0  0  0  0  0
   45.8280   32.6760   49.9510 H   0  0  0  0  0  0  0  0  0  0  0  0
   44.7232   30.2721   48.8659 H   0  0  0  0  0  0  0  0  0  0  0  0
   46.9779   30.8584   50.4040 H   0  0  0  0  0  0  0  0  0  0  0  0
  1  2  2  0
  1  6  1  0
  2  3  1  0
  3  4  2  0
  5  4  1  0
  5  7  1  0
  6  5  2  0
  7 12  1  0
  8 11  1  0
  8  2  1  0
  9  8  1  0
 10  8  1  0
 12 13  1  0
 12 15  1  0
 14 12  1  0
 16  1  1  0
 17 16  1  0
 17 18  1  0
 19 17  1  0
 20 17  1  0
  3 21  1  0
  7 22  1  0
 13 23  1  0
 14 24  1  0
 15 25  1  0
M  ISO  4  21  14  23   3  24   3  25   3
M  END
>  <minimizedAffinity>  (1) 
-5.43878651

>  <minimizedRMSD>  (1) 
1.83992445

$$$$
