
     RDKit          3D

 43 45  0  0  0  0  0  0  0  0999 V2000
   46.5390   34.1290   42.9800 C   0  0  0  0  0  0  0  0  0  0  0  0
   45.4830   33.6200   42.2200 C   0  0  0  0  0  0  0  0  0  0  0  0
   44.6980   32.6110   42.8160 C   0  0  0  0  0  0  0  0  0  0  0  0
   45.0010   32.1890   44.0750 N   0  0  0  0  0  0  0  0  0  0  0  0
   46.0340   32.7140   44.7650 C   0  0  0  0  0  0  0  0  0  0  0  0
   46.8010   33.6840   44.2150 N   0  0  0  0  0  0  0  0  0  0  0  0
   48.0580   30.8140   45.2900 F   0  0  0  0  0  0  0  0  0  0  0  0
   47.3580   31.3510   46.3440 C   0  0  0  0  0  0  0  0  0  0  0  0
   46.3720   32.2750   46.1110 C   0  0  0  0  0  0  0  0  0  0  0  0
   45.7100   32.7730   47.2310 C   0  0  0  0  0  0  0  0  0  0  0  0
   46.0510   32.3380   48.5020 C   0  0  0  0  0  0  0  0  0  0  0  0
   47.0590   31.3990   48.6710 C   0  0  0  0  0  0  0  0  0  0  0  0
   47.7430   30.8790   47.5830 C   0  0  0  0  0  0  0  0  0  0  0  0
   48.8230   29.8730   47.7630 C   0  0  0  0  0  0  0  0  0  0  0  0
   48.2880   28.4590   47.6840 C   0  0  0  0  0  0  0  0  0  0  0  0
   49.3790   27.4470   47.7420 C   0  0  0  0  0  0  0  0  0  0  0  0
   50.6960   28.1400   47.9600 C   0  0  0  0  0  0  0  0  0  0  0  0
   50.6780   29.0760   49.1270 C   0  0  0  0  0  0  0  0  0  0  0  0
   49.4760   29.9900   49.1230 C   0  0  0  0  0  0  0  0  0  0  0  0
   45.2240   34.1310   40.8670 C   0  0  0  0  0  0  0  0  0  0  0  0
   44.8230   35.4530   40.9350 F   0  0  0  0  0  0  0  0  0  0  0  0
   46.4320   34.1230   40.1740 F   0  0  0  0  0  0  0  0  0  0  0  0
   44.3110   33.4320   40.1480 F   0  0  0  0  0  0  0  0  0  0  0  0
   47.2950   35.1030   42.4000 O   0  0  0  0  0  0  0  0  0  0  0  0
   48.6270   34.9930   41.9830 C   0  0  0  0  0  0  0  0  0  0  0  0
   49.4350   35.3120   43.0760 F   0  0  0  0  0  0  0  0  0  0  0  0
   48.8790   33.7290   41.4980 F   0  0  0  0  0  0  0  0  0  0  0  0
   48.9030   35.9750   41.0490 F   0  0  0  0  0  0  0  0  0  0  0  0
   43.8508   32.1700   42.2702 H   0  0  0  0  0  0  0  0  0  0  0  0
   44.9101   33.5176   47.1056 H   0  0  0  0  0  0  0  0  0  0  0  0
   45.5213   32.7380   49.3792 H   0  0  0  0  0  0  0  0  0  0  0  0
   47.3195   31.0618   49.6851 H   0  0  0  0  0  0  0  0  0  0  0  0
   49.5436   30.0732   46.9564 H   0  0  0  0  0  0  0  0  0  0  0  0
   47.7413   28.3383   46.7372 H   0  0  0  0  0  0  0  0  0  0  0  0
   47.6268   28.2965   48.5480 H   0  0  0  0  0  0  0  0  0  0  0  0
   49.1893   26.7508   48.5723 H   0  0  0  0  0  0  0  0  0  0  0  0
   49.4113   26.8887   46.7948 H   0  0  0  0  0  0  0  0  0  0  0  0
   51.4689   27.3770   48.1345 H   0  0  0  0  0  0  0  0  0  0  0  0
   50.9055   28.7387   47.0613 H   0  0  0  0  0  0  0  0  0  0  0  0
   50.6660   28.4831   50.0534 H   0  0  0  0  0  0  0  0  0  0  0  0
   51.5759   29.7079   49.0597 H   0  0  0  0  0  0  0  0  0  0  0  0
   49.7927   31.0285   49.2999 H   0  0  0  0  0  0  0  0  0  0  0  0
   48.7705   29.7073   49.9182 H   0  0  0  0  0  0  0  0  0  0  0  0
  1  6  2  0
  2  3  2  0
  2  1  1  0
  3  4  1  0
  4  5  2  0
  5  9  1  0
  6  5  1  0
  7  8  1  0
  8 13  2  0
  9  8  1  0
  9 10  2  0
 10 11  1  0
 11 12  2  0
 13 14  1  0
 13 12  1  0
 14 19  1  0
 15 16  1  0
 15 14  1  0
 16 17  1  0
 17 18  1  0
 19 18  1  0
 20 21  1  0
 20  2  1  0
 22 20  1  0
 23 20  1  0
 24  1  1  0
 25 24  1  0
 25 26  1  0
 27 25  1  0
 28 25  1  0
  3 29  1  0
 10 30  1  0
 11 31  1  0
 12 32  1  0
 14 33  1  0
 15 34  1  0
 15 35  1  0
 16 36  1  0
 16 37  1  0
 17 38  1  0
 17 39  1  0
 18 40  1  0
 18 41  1  0
 19 42  1  0
 19 43  1  0
M  ISO  8  29  14  30  14  31  14  32  14  33  13  34  13  35  13  36  13
M  ISO  7  37  13  38  13  39  13  40  13  41  13  42  13  43  13
M  END
>  <minimizedAffinity>  (1) 
-5.74551344

>  <minimizedRMSD>  (1) 
1.23816538

$$$$
