
     RDKit          3D

 34 36  0  0  0  0  0  0  0  0999 V2000
   47.6250   30.0440   44.8990 F   0  0  0  0  0  0  0  0  0  0  0  0
   47.5040   30.8050   46.0400 C   0  0  0  0  0  0  0  0  0  0  0  0
   46.9340   32.0580   45.9710 C   0  0  0  0  0  0  0  0  0  0  0  0
   46.8500   32.7610   47.1710 C   0  0  0  0  0  0  0  0  0  0  0  0
   47.3130   32.2290   48.3500 C   0  0  0  0  0  0  0  0  0  0  0  0
   47.8760   30.9640   48.3510 C   0  0  0  0  0  0  0  0  0  0  0  0
   47.9830   30.2230   47.1900 C   0  0  0  0  0  0  0  0  0  0  0  0
   48.5740   28.8910   47.1790 C   0  0  0  0  0  0  0  0  0  0  0  0
   49.9140   28.6290   46.9750 C   0  0  0  0  0  0  0  0  0  0  0  0
   49.9910   27.2420   47.0530 C   0  0  0  0  0  0  0  0  0  0  0  0
   48.7760   26.7160   47.2880 N   0  0  0  0  0  0  0  0  0  0  0  0
   47.9210   27.7290   47.3640 N   0  0  0  0  0  0  0  0  0  0  0  0
   46.7480   34.1360   42.9860 C   0  0  0  0  0  0  0  0  0  0  0  0
   45.6010   33.7150   42.3440 C   0  0  0  0  0  0  0  0  0  0  0  0
   44.8640   32.6780   42.9600 C   0  0  0  0  0  0  0  0  0  0  0  0
   45.3130   32.1640   44.1260 N   0  0  0  0  0  0  0  0  0  0  0  0
   46.4450   32.6140   44.7120 C   0  0  0  0  0  0  0  0  0  0  0  0
   47.1690   33.6030   44.1460 N   0  0  0  0  0  0  0  0  0  0  0  0
   45.1800   34.3300   41.0740 C   0  0  0  0  0  0  0  0  0  0  0  0
   44.9230   35.6670   41.2640 F   0  0  0  0  0  0  0  0  0  0  0  0
   46.2680   34.2690   40.1970 F   0  0  0  0  0  0  0  0  0  0  0  0
   44.1150   33.7560   40.4700 F   0  0  0  0  0  0  0  0  0  0  0  0
   47.4570   35.1390   42.3850 O   0  0  0  0  0  0  0  0  0  0  0  0
   48.7610   35.0600   41.8730 C   0  0  0  0  0  0  0  0  0  0  0  0
   49.6390   35.3660   42.9140 F   0  0  0  0  0  0  0  0  0  0  0  0
   48.9800   33.8190   41.3440 F   0  0  0  0  0  0  0  0  0  0  0  0
   48.9520   36.0650   40.9480 F   0  0  0  0  0  0  0  0  0  0  0  0
   46.4024   33.7658   47.1745 H   0  0  0  0  0  0  0  0  0  0  0  0
   47.2371   32.8031   49.2852 H   0  0  0  0  0  0  0  0  0  0  0  0
   48.2459   30.5401   49.2962 H   0  0  0  0  0  0  0  0  0  0  0  0
   50.7278   29.3466   46.7938 H   0  0  0  0  0  0  0  0  0  0  0  0
   50.9159   26.6577   46.9385 H   0  0  0  0  0  0  0  0  0  0  0  0
   48.5510   25.7160   47.3898 H   0  0  0  0  0  0  0  0  0  0  0  0
   43.9414   32.2963   42.4983 H   0  0  0  0  0  0  0  0  0  0  0  0
  1  2  1  0
  2  7  2  0
  3  2  1  0
  3  4  2  0
  4  5  1  0
  5  6  2  0
  7  6  1  0
  8  7  1  0
  8 12  2  0
  9 10  2  0
  9  8  1  0
 10 11  1  0
 11 12  1  0
 13 18  2  0
 14 15  2  0
 14 13  1  0
 15 16  1  0
 16 17  2  0
 17  3  1  0
 18 17  1  0
 19 20  1  0
 19 14  1  0
 21 19  1  0
 22 19  1  0
 23 13  1  0
 24 23  1  0
 24 25  1  0
 26 24  1  0
 27 24  1  0
  4 28  1  0
  5 29  1  0
  6 30  1  0
  9 31  1  0
 10 32  1  0
 11 33  1  0
 15 34  1  0
M  ISO  7  28  14  29  14  30  14  31  14  32  14  33   9  34  14
M  END
>  <minimizedAffinity>  (1) 
-5.52370548

>  <minimizedRMSD>  (1) 
0.277838439

$$$$
