
     RDKit          3D

 28 29  0  0  0  0  0  0  0  0999 V2000
   46.8140   34.1070   43.0630 C   0  0  0  0  0  0  0  0  0  0  0  0
   45.6410   33.7110   42.4360 C   0  0  0  0  0  0  0  0  0  0  0  0
   44.9090   32.6590   43.0320 C   0  0  0  0  0  0  0  0  0  0  0  0
   45.3810   32.0970   44.1690 N   0  0  0  0  0  0  0  0  0  0  0  0
   46.5270   32.5160   44.7430 C   0  0  0  0  0  0  0  0  0  0  0  0
   47.2400   33.5230   44.1850 N   0  0  0  0  0  0  0  0  0  0  0  0
   47.6830   29.9220   44.8060 F   0  0  0  0  0  0  0  0  0  0  0  0
   47.6010   30.6450   45.9660 C   0  0  0  0  0  0  0  0  0  0  0  0
   47.0440   31.9130   45.9730 C   0  0  0  0  0  0  0  0  0  0  0  0
   47.0010   32.5730   47.1910 C   0  0  0  0  0  0  0  0  0  0  0  0
   47.4910   31.9860   48.3270 C   0  0  0  0  0  0  0  0  0  0  0  0
   48.0410   30.7160   48.2820 C   0  0  0  0  0  0  0  0  0  0  0  0
   48.1050   30.0150   47.0800 C   0  0  0  0  0  0  0  0  0  0  0  0
   48.6600   28.7490   47.0680 O   0  0  0  0  0  0  0  0  0  0  0  0
   45.1980   34.3790   41.1960 C   0  0  0  0  0  0  0  0  0  0  0  0
   44.9130   35.6970   41.4450 F   0  0  0  0  0  0  0  0  0  0  0  0
   46.2610   34.3640   40.3030 F   0  0  0  0  0  0  0  0  0  0  0  0
   44.1230   33.8220   40.5840 F   0  0  0  0  0  0  0  0  0  0  0  0
   47.5120   35.1180   42.4830 O   0  0  0  0  0  0  0  0  0  0  0  0
   48.8050   35.0470   41.9500 C   0  0  0  0  0  0  0  0  0  0  0  0
   49.6920   35.2910   42.9960 F   0  0  0  0  0  0  0  0  0  0  0  0
   48.9940   33.8340   41.3430 F   0  0  0  0  0  0  0  0  0  0  0  0
   49.0040   36.1000   41.0840 F   0  0  0  0  0  0  0  0  0  0  0  0
   43.9717   32.3032   42.5794 H   0  0  0  0  0  0  0  0  0  0  0  0
   46.5672   33.5824   47.2459 H   0  0  0  0  0  0  0  0  0  0  0  0
   47.4473   32.5279   49.2833 H   0  0  0  0  0  0  0  0  0  0  0  0
   48.4304   30.2571   49.2027 H   0  0  0  0  0  0  0  0  0  0  0  0
   49.0054   28.3520   47.9066 H   0  0  0  0  0  0  0  0  0  0  0  0
  1  6  2  0
  2  3  2  0
  2  1  1  0
  3  4  1  0
  4  5  2  0
  5  9  1  0
  6  5  1  0
  7  8  1  0
  8  9  2  0
  8 13  1  0
  9 10  1  0
 10 11  2  0
 12 11  1  0
 13 12  2  0
 14 13  1  0
 15 16  1  0
 15  2  1  0
 17 15  1  0
 18 15  1  0
 19  1  1  0
 20 19  1  0
 20 21  1  0
 22 20  1  0
 23 20  1  0
  3 24  1  0
 10 25  1  0
 11 26  1  0
 12 27  1  0
 14 28  1  0
M  ISO  5  24  14  25  14  26  14  27  14  28   3
M  END
>  <minimizedAffinity>  (1) 
-5.42770052

>  <minimizedRMSD>  (1) 
0.0098500764

$$$$
