
     RDKit          3D

 29 32  0  0  1  0  0  0  0  0999 V2000
   44.3600   33.7700   40.9690 C   0  0  1  0  0  0  0  0  0  0  0  0
   45.4290   33.6730   40.0170 C   0  0  2  0  0  0  0  0  0  0  0  0
   44.7360   32.4530   40.4870 C   0  0  0  0  0  0  0  0  0  0  0  0
   44.5230   35.5740   42.5990 C   0  0  0  0  0  0  0  0  0  0  0  0
   44.6520   34.2180   42.3360 C   0  0  0  0  0  0  0  0  0  0  0  0
   44.9940   33.3220   43.3540 C   0  0  0  0  0  0  0  0  0  0  0  0
   45.1850   33.8720   44.5990 N   0  0  0  0  0  0  0  0  0  0  0  0
   45.0570   35.1870   44.8520 C   0  0  0  0  0  0  0  0  0  0  0  0
   44.7240   36.0390   43.8390 N   0  0  0  0  0  0  0  0  0  0  0  0
   46.8650   33.6860   40.3550 C   0  0  1  0  0  0  0  0  0  0  0  0
   47.5910   34.2650   39.5240 O   0  0  0  0  0  0  0  0  0  0  0  0
   48.1260   34.2290   40.8610 C   0  0  2  0  0  0  0  0  0  0  0  0
   49.0310   33.1360   41.4320 C   0  0  0  0  0  0  0  0  0  0  0  0
   48.6410   34.2780   42.2100 C   0  0  1  0  0  0  0  0  0  0  0  0
   49.7370   35.2850   42.4960 C   0  0  0  0  0  0  0  0  0  0  0  0
   43.3999   34.3043   41.0203 H   0  0  0  0  0  0  0  0  0  0  0  0
   45.6120   34.2433   39.0944 H   0  0  0  0  0  0  0  0  0  0  0  0
   44.0686   31.8996   39.8101 H   0  0  0  0  0  0  0  0  0  0  0  0
   45.0429   31.5042   40.9513 H   0  0  0  0  0  0  0  0  0  0  0  0
   44.2554   36.2679   41.7885 H   0  0  0  0  0  0  0  0  0  0  0  0
   45.1034   32.2431   43.1695 H   0  0  0  0  0  0  0  0  0  0  0  0
   45.2197   35.5733   45.8690 H   0  0  0  0  0  0  0  0  0  0  0  0
   46.3936   32.8585   40.9055 H   0  0  0  0  0  0  0  0  0  0  0  0
   48.6219   32.1413   41.6629 H   0  0  0  0  0  0  0  0  0  0  0  0
   49.9833   32.6690   41.1402 H   0  0  0  0  0  0  0  0  0  0  0  0
   48.1554   34.4034   43.1890 H   0  0  0  0  0  0  0  0  0  0  0  0
   49.8580   35.3962   43.5836 H   0  0  0  0  0  0  0  0  0  0  0  0
   50.6819   34.9335   42.0560 H   0  0  0  0  0  0  0  0  0  0  0  0
   49.4665   36.2562   42.0560 H   0  0  0  0  0  0  0  0  0  0  0  0
  1  5  1  0
  2 10  1  0
  2  3  1  0
  2  1  1  0
  3  1  1  0
  4  9  2  0
  5  4  1  0
  5  6  2  0
  6  7  1  0
  7  8  2  0
  9  8  1  0
 10 12  1  0
 11 10  1  0
 12 11  1  6
 12 13  1  0
 12 14  1  0
 13 14  1  0
 14 15  1  0
  1 16  1  6
  2 17  1  6
  3 18  1  0
  3 19  1  0
  4 20  1  0
  6 21  1  0
  8 22  1  0
 10 23  1  6
 13 24  1  0
 13 25  1  0
 14 26  1  1
 15 27  1  0
 15 28  1  0
 15 29  1  0
M  ISO  8  16  13  17  13  18  13  19  13  20  14  21  14  22  14  23  13
M  ISO  6  24  13  25  13  26  13  27   8  28   8  29   8
M  END
>  <minimizedAffinity>  (1) 
-4.100739

>  <minimizedRMSD>  (1) 
1.03769672

$$$$
