
     RDKit          3D

 29 30  0  0  0  0  0  0  0  0999 V2000
   46.8070   34.1070   43.0530 C   0  0  0  0  0  0  0  0  0  0  0  0
   45.6380   33.7120   42.4330 C   0  0  0  0  0  0  0  0  0  0  0  0
   44.9070   32.6600   43.0270 C   0  0  0  0  0  0  0  0  0  0  0  0
   45.3810   32.0920   44.1660 N   0  0  0  0  0  0  0  0  0  0  0  0
   46.5360   32.5220   44.7300 C   0  0  0  0  0  0  0  0  0  0  0  0
   47.2450   33.5190   44.1840 N   0  0  0  0  0  0  0  0  0  0  0  0
   47.6860   29.9300   44.8100 F   0  0  0  0  0  0  0  0  0  0  0  0
   47.6010   30.6510   45.9700 C   0  0  0  0  0  0  0  0  0  0  0  0
   47.0470   31.9120   45.9550 C   0  0  0  0  0  0  0  0  0  0  0  0
   46.9980   32.5760   47.1780 C   0  0  0  0  0  0  0  0  0  0  0  0
   47.4850   31.9880   48.3270 C   0  0  0  0  0  0  0  0  0  0  0  0
   48.0310   30.7170   48.2770 C   0  0  0  0  0  0  0  0  0  0  0  0
   48.1000   30.0180   47.0870 C   0  0  0  0  0  0  0  0  0  0  0  0
   48.6640   28.7140   47.0560 N   0  0  0  0  0  0  0  0  0  0  0  0
   45.1920   34.3860   41.1910 C   0  0  0  0  0  0  0  0  0  0  0  0
   44.9060   35.7060   41.4600 F   0  0  0  0  0  0  0  0  0  0  0  0
   46.2720   34.3750   40.3000 F   0  0  0  0  0  0  0  0  0  0  0  0
   44.1190   33.8230   40.5850 F   0  0  0  0  0  0  0  0  0  0  0  0
   47.5060   35.1190   42.4780 O   0  0  0  0  0  0  0  0  0  0  0  0
   48.8140   35.0500   41.9430 C   0  0  0  0  0  0  0  0  0  0  0  0
   49.7030   35.2960   42.9970 F   0  0  0  0  0  0  0  0  0  0  0  0
   49.0090   33.8410   41.3490 F   0  0  0  0  0  0  0  0  0  0  0  0
   49.0090   36.1030   41.0770 F   0  0  0  0  0  0  0  0  0  0  0  0
   43.9688   32.3062   42.5746 H   0  0  0  0  0  0  0  0  0  0  0  0
   46.5640   33.5855   47.2287 H   0  0  0  0  0  0  0  0  0  0  0  0
   47.4394   32.5295   49.2834 H   0  0  0  0  0  0  0  0  0  0  0  0
   48.4159   30.2563   49.1988 H   0  0  0  0  0  0  0  0  0  0  0  0
   49.0228   28.2874   47.9221 H   0  0  0  0  0  0  0  0  0  0  0  0
   48.7139   28.1955   46.1674 H   0  0  0  0  0  0  0  0  0  0  0  0
  1  6  2  0
  2  3  2  0
  2  1  1  0
  3  4  1  0
  4  5  2  0
  5  9  1  0
  6  5  1  0
  7  8  1  0
  8 13  2  0
  9  8  1  0
  9 10  2  0
 10 11  1  0
 12 11  2  0
 13 12  1  0
 14 13  1  0
 15 16  1  0
 15  2  1  0
 17 15  1  0
 18 15  1  0
 19  1  1  0
 20 19  1  0
 20 21  1  0
 22 20  1  0
 23 20  1  0
  3 24  1  0
 10 25  1  0
 11 26  1  0
 12 27  1  0
 14 28  1  0
 14 29  1  0
M  ISO  4  24  14  25  14  26  14  27  14
M  END
>  <minimizedAffinity>  (1) 
-5.44483805

>  <minimizedRMSD>  (1) 
0.0121225687

$$$$
