
     RDKit          3D

 31 32  0  0  0  0  0  0  0  0999 V2000
   46.8080   34.1060   43.0600 C   0  0  0  0  0  0  0  0  0  0  0  0
   45.6370   33.7140   42.4230 C   0  0  0  0  0  0  0  0  0  0  0  0
   44.9080   32.6630   43.0220 C   0  0  0  0  0  0  0  0  0  0  0  0
   45.3690   32.1000   44.1570 N   0  0  0  0  0  0  0  0  0  0  0  0
   46.5130   32.5160   44.7390 C   0  0  0  0  0  0  0  0  0  0  0  0
   47.2340   33.5200   44.1920 N   0  0  0  0  0  0  0  0  0  0  0  0
   47.6130   29.9040   44.8170 F   0  0  0  0  0  0  0  0  0  0  0  0
   47.5590   30.6390   45.9840 C   0  0  0  0  0  0  0  0  0  0  0  0
   47.0250   31.9170   45.9690 C   0  0  0  0  0  0  0  0  0  0  0  0
   47.0040   32.5950   47.1770 C   0  0  0  0  0  0  0  0  0  0  0  0
   47.4910   32.0150   48.3290 C   0  0  0  0  0  0  0  0  0  0  0  0
   48.0170   30.7240   48.2850 C   0  0  0  0  0  0  0  0  0  0  0  0
   48.0610   30.0060   47.1020 C   0  0  0  0  0  0  0  0  0  0  0  0
   47.6740   27.6050   47.2640 C   0  0  0  0  0  0  0  0  0  0  0  0
   46.4600   27.8200   47.5170 O   0  0  0  0  0  0  0  0  0  0  0  0
   48.5930   28.6890   47.0320 N   0  0  0  0  0  0  0  0  0  0  0  0
   45.2060   34.3830   41.1860 C   0  0  0  0  0  0  0  0  0  0  0  0
   44.9130   35.7080   41.4500 F   0  0  0  0  0  0  0  0  0  0  0  0
   46.2910   34.3840   40.3010 F   0  0  0  0  0  0  0  0  0  0  0  0
   44.1450   33.8150   40.5580 F   0  0  0  0  0  0  0  0  0  0  0  0
   47.5070   35.1160   42.4840 O   0  0  0  0  0  0  0  0  0  0  0  0
   48.8220   35.0440   41.9530 C   0  0  0  0  0  0  0  0  0  0  0  0
   49.7040   35.2860   43.0060 F   0  0  0  0  0  0  0  0  0  0  0  0
   49.0230   33.8280   41.3650 F   0  0  0  0  0  0  0  0  0  0  0  0
   49.0110   36.1030   41.0920 F   0  0  0  0  0  0  0  0  0  0  0  0
   43.9722   32.3069   42.5664 H   0  0  0  0  0  0  0  0  0  0  0  0
   46.5915   33.6139   47.2177 H   0  0  0  0  0  0  0  0  0  0  0  0
   47.4648   32.5684   49.2793 H   0  0  0  0  0  0  0  0  0  0  0  0
   48.4043   30.2675   49.2078 H   0  0  0  0  0  0  0  0  0  0  0  0
   48.0402   26.5687   47.2192 H   0  0  0  0  0  0  0  0  0  0  0  0
   49.5876   28.5188   46.8253 H   0  0  0  0  0  0  0  0  0  0  0  0
  1  6  2  0
  2  3  2  0
  2  1  1  0
  3  4  1  0
  4  5  2  0
  5  9  1  0
  6  5  1  0
  7  8  1  0
  8 13  2  0
  9  8  1  0
  9 10  2  0
 10 11  1  0
 12 11  2  0
 13 12  1  0
 14 15  2  0
 16 13  1  0
 16 14  1  0
 17 18  1  0
 17  2  1  0
 19 17  1  0
 20 17  1  0
 21  1  1  0
 22 21  1  0
 22 23  1  0
 24 22  1  0
 25 22  1  0
  3 26  1  0
 10 27  1  0
 11 28  1  0
 12 29  1  0
 14 30  1  0
 16 31  1  0
M  ISO  5  26  14  27  14  28  14  29  14  30   6
M  END
>  <minimizedAffinity>  (1) 
-5.44590569

>  <minimizedRMSD>  (1) 
0.134049043

$$$$
