
     RDKit          3D

 43 45  0  0  0  0  0  0  0  0999 V2000
   47.2130   29.8000   44.8700 F   0  0  0  0  0  0  0  0  0  0  0  0
   47.3050   30.5740   46.0080 C   0  0  0  0  0  0  0  0  0  0  0  0
   46.9340   31.8920   45.9770 C   0  0  0  0  0  0  0  0  0  0  0  0
   47.0640   32.5890   47.1770 C   0  0  0  0  0  0  0  0  0  0  0  0
   47.5360   31.9820   48.3140 C   0  0  0  0  0  0  0  0  0  0  0  0
   47.8980   30.6360   48.2810 C   0  0  0  0  0  0  0  0  0  0  0  0
   47.7860   29.8880   47.0980 C   0  0  0  0  0  0  0  0  0  0  0  0
   46.7660   34.1360   43.1120 C   0  0  0  0  0  0  0  0  0  0  0  0
   45.5690   33.7680   42.4790 C   0  0  0  0  0  0  0  0  0  0  0  0
   44.8300   32.7380   43.0630 C   0  0  0  0  0  0  0  0  0  0  0  0
   45.2720   32.1380   44.1860 N   0  0  0  0  0  0  0  0  0  0  0  0
   46.4340   32.5240   44.7620 C   0  0  0  0  0  0  0  0  0  0  0  0
   47.1740   33.5170   44.2280 N   0  0  0  0  0  0  0  0  0  0  0  0
   45.1500   34.4690   41.2570 C   0  0  0  0  0  0  0  0  0  0  0  0
   44.8990   35.8060   41.5290 F   0  0  0  0  0  0  0  0  0  0  0  0
   46.2200   34.4550   40.3620 F   0  0  0  0  0  0  0  0  0  0  0  0
   44.0700   33.9510   40.6320 F   0  0  0  0  0  0  0  0  0  0  0  0
   47.4770   35.1280   42.5530 O   0  0  0  0  0  0  0  0  0  0  0  0
   48.7760   35.0390   42.0040 C   0  0  0  0  0  0  0  0  0  0  0  0
   49.6910   35.2390   43.0250 F   0  0  0  0  0  0  0  0  0  0  0  0
   48.9330   33.8230   41.3940 F   0  0  0  0  0  0  0  0  0  0  0  0
   48.9920   36.0840   41.1240 F   0  0  0  0  0  0  0  0  0  0  0  0
   48.1730   28.4550   47.0700 C   0  0  0  0  0  0  0  0  0  0  0  0
   47.3210   26.3750   48.0200 C   0  0  0  0  0  0  0  0  0  0  0  0
   47.0350   27.5980   47.4640 C   0  0  0  0  0  0  0  0  0  0  0  0
   45.7140   27.9590   47.3050 C   0  0  0  0  0  0  0  0  0  0  0  0
   44.6560   27.1290   47.6860 C   0  0  0  0  0  0  0  0  0  0  0  0
   44.9480   25.8840   48.2520 C   0  0  0  0  0  0  0  0  0  0  0  0
   46.2820   25.5300   48.4080 C   0  0  0  0  0  0  0  0  0  0  0  0
   48.9860   25.8680   48.2450 S   0  0  0  0  0  0  0  0  0  0  0  0
   49.7780   25.9270   46.9730 O   0  0  0  0  0  0  0  0  0  0  0  0
   49.6300   26.8340   49.2290 O   0  0  0  0  0  0  0  0  0  0  0  0
   46.7814   33.6515   47.2137 H   0  0  0  0  0  0  0  0  0  0  0  0
   47.6283   32.5556   49.2481 H   0  0  0  0  0  0  0  0  0  0  0  0
   48.2765   30.1535   49.1942 H   0  0  0  0  0  0  0  0  0  0  0  0
   43.8835   32.4148   42.6051 H   0  0  0  0  0  0  0  0  0  0  0  0
   48.4912   28.1869   46.0517 H   0  0  0  0  0  0  0  0  0  0  0  0
   48.9969   28.2975   47.7816 H   0  0  0  0  0  0  0  0  0  0  0  0
   45.4837   28.9386   46.8609 H   0  0  0  0  0  0  0  0  0  0  0  0
   43.6133   27.4490   47.5433 H   0  0  0  0  0  0  0  0  0  0  0  0
   44.1427   25.2033   48.5653 H   0  0  0  0  0  0  0  0  0  0  0  0
   46.5262   24.5533   48.8511 H   0  0  0  0  0  0  0  0  0  0  0  0
   48.9825   24.5719   48.6890 H   0  0  0  0  0  0  0  0  0  0  0  0
  1  2  1  0
  2  7  2  0
  3  2  1  0
  3  4  2  0
  4  5  1  0
  6  5  2  0
  7  6  1  0
  8 13  2  0
  9 10  2  0
  9  8  1  0
 10 11  1  0
 11 12  2  0
 12  3  1  0
 13 12  1  0
 14 15  1  0
 14  9  1  0
 16 14  1  0
 17 14  1  0
 18  8  1  0
 19 18  1  0
 19 20  1  0
 21 19  1  0
 22 19  1  0
 23  7  1  0
 23 25  1  0
 24 30  1  0
 24 29  2  0
 25 24  1  0
 26 25  2  0
 26 27  1  0
 27 28  2  0
 28 29  1  0
 30 32  2  0
 31 30  2  0
  4 33  1  0
  5 34  1  0
  6 35  1  0
 10 36  1  0
 23 37  1  0
 23 38  1  0
 26 39  1  0
 27 40  1  0
 28 41  1  0
 29 42  1  0
 30 43  1  0
M  ISO  8  33  14  34  14  35  14  36  14  37   8  38   8  39  14  40  14
M  ISO  3  41  14  42  14  43  11
M  END
>  <minimizedAffinity>  (1) 
-5.85910988

>  <minimizedRMSD>  (1) 
0.897122741

$$$$
