
     RDKit          3D

 17 17  0  0  0  0  0  0  0  0999 V2000
   45.5990   34.6180   44.2060 C   0  0  0  0  0  0  0  0  0  0  0  0
   46.6180   33.8770   43.5920 C   0  0  0  0  0  0  0  0  0  0  0  0
   47.2270   32.8510   44.3370 C   0  0  0  0  0  0  0  0  0  0  0  0
   46.8060   32.6280   45.5990 N   0  0  0  0  0  0  0  0  0  0  0  0
   45.8260   33.3530   46.1660 C   0  0  0  0  0  0  0  0  0  0  0  0
   45.2250   34.3410   45.4770 N   0  0  0  0  0  0  0  0  0  0  0  0
   44.8750   35.9040   43.1900 S   0  0  0  0  0  0  0  0  0  0  0  0
   45.3360   33.1900   47.4520 O   0  0  0  0  0  0  0  0  0  0  0  0
   46.9880   31.2350   48.1320 O   0  0  0  0  0  0  0  0  0  0  0  0
   45.5530   31.6750   48.2160 P   0  0  0  0  0  0  0  0  0  0  0  0
   45.1160   31.7730   49.8530 O   0  0  0  0  0  0  0  0  0  0  0  0
   44.6350   30.4570   47.4950 O   0  0  0  0  0  0  0  0  0  0  0  0
   46.9317   34.0911   42.5597 H   0  0  0  0  0  0  0  0  0  0  0  0
   48.0314   32.2420   43.8988 H   0  0  0  0  0  0  0  0  0  0  0  0
   44.3311   36.8700   43.9950 H   0  0  0  0  0  0  0  0  0  0  0  0
   45.9095   31.5951   50.4176 H   0  0  0  0  0  0  0  0  0  0  0  0
   44.2153   29.9002   48.1978 H   0  0  0  0  0  0  0  0  0  0  0  0
  1  6  2  0
  2  1  1  0
  2  3  2  0
  3  4  1  0
  4  5  2  0
  5  8  1  0
  6  5  1  0
  7  1  1  0
  8 10  1  0
  9 10  2  0
 10 11  1  0
 12 10  1  0
  2 13  1  0
  3 14  1  0
  7 15  1  0
 11 16  1  0
 12 17  1  0
M  ISO  5  13  14  14  14  15  11  16   3  17   3
M  END
>  <minimizedAffinity>  (1) 
-4.19839573

>  <minimizedRMSD>  (1) 
0.644704998

$$$$
