
     RDKit          3D

 31 32  0  0  0  0  0  0  0  0999 V2000
   46.8220   34.1280   43.0460 C   0  0  0  0  0  0  0  0  0  0  0  0
   45.6300   33.7170   42.4210 C   0  0  0  0  0  0  0  0  0  0  0  0
   44.9160   32.6820   43.0240 C   0  0  0  0  0  0  0  0  0  0  0  0
   45.3730   32.1140   44.1640 N   0  0  0  0  0  0  0  0  0  0  0  0
   46.5220   32.5370   44.7330 C   0  0  0  0  0  0  0  0  0  0  0  0
   47.2250   33.5290   44.1730 N   0  0  0  0  0  0  0  0  0  0  0  0
   47.7870   30.0130   44.8020 F   0  0  0  0  0  0  0  0  0  0  0  0
   47.6550   30.7140   45.9710 C   0  0  0  0  0  0  0  0  0  0  0  0
   47.0420   31.9490   45.9550 C   0  0  0  0  0  0  0  0  0  0  0  0
   46.9530   32.5900   47.1840 C   0  0  0  0  0  0  0  0  0  0  0  0
   47.4440   32.0250   48.3310 C   0  0  0  0  0  0  0  0  0  0  0  0
   48.0490   30.7810   48.2800 C   0  0  0  0  0  0  0  0  0  0  0  0
   48.1700   30.0830   47.0710 C   0  0  0  0  0  0  0  0  0  0  0  0
   48.8160   28.7420   47.0030 C   0  0  0  0  0  0  0  0  0  0  0  0
   50.1560   28.9260   46.6640 O   0  0  0  0  0  0  0  0  0  0  0  0
   45.1930   34.3840   41.1850 C   0  0  0  0  0  0  0  0  0  0  0  0
   44.9060   35.7150   41.4240 F   0  0  0  0  0  0  0  0  0  0  0  0
   46.2670   34.3600   40.2860 F   0  0  0  0  0  0  0  0  0  0  0  0
   44.1300   33.8210   40.5720 F   0  0  0  0  0  0  0  0  0  0  0  0
   47.5060   35.1260   42.4580 O   0  0  0  0  0  0  0  0  0  0  0  0
   48.8240   35.0590   41.9420 C   0  0  0  0  0  0  0  0  0  0  0  0
   49.6920   35.2950   42.9920 F   0  0  0  0  0  0  0  0  0  0  0  0
   49.0000   33.8550   41.3250 F   0  0  0  0  0  0  0  0  0  0  0  0
   49.0180   36.1210   41.0710 F   0  0  0  0  0  0  0  0  0  0  0  0
   43.9786   32.3263   42.5716 H   0  0  0  0  0  0  0  0  0  0  0  0
   46.4748   33.5792   47.2376 H   0  0  0  0  0  0  0  0  0  0  0  0
   47.3579   32.5579   49.2894 H   0  0  0  0  0  0  0  0  0  0  0  0
   48.4416   30.3326   49.2046 H   0  0  0  0  0  0  0  0  0  0  0  0
   48.7434   28.2427   47.9804 H   0  0  0  0  0  0  0  0  0  0  0  0
   48.3146   28.1139   46.2520 H   0  0  0  0  0  0  0  0  0  0  0  0
   50.6979   29.0004   47.4892 H   0  0  0  0  0  0  0  0  0  0  0  0
  1  6  2  0
  2  3  2  0
  2  1  1  0
  3  4  1  0
  4  5  2  0
  5  9  1  0
  6  5  1  0
  7  8  1  0
  8 13  2  0
  9  8  1  0
  9 10  2  0
 10 11  1  0
 12 11  2  0
 13 12  1  0
 14 13  1  0
 15 14  1  0
 16 17  1  0
 16  2  1  0
 18 16  1  0
 19 16  1  0
 20  1  1  0
 21 20  1  0
 21 22  1  0
 23 21  1  0
 24 21  1  0
  3 25  1  0
 10 26  1  0
 11 27  1  0
 12 28  1  0
 14 29  1  0
 14 30  1  0
 15 31  1  0
M  ISO  7  25  14  26  14  27  14  28  14  29   8  30   8  31   3
M  END
>  <minimizedAffinity>  (1) 
-5.30371571

>  <minimizedRMSD>  (1) 
0.0876948461

$$$$
