
     RDKit          3D

 22 24  0  0  0  0  0  0  0  0999 V2000
   45.4350   35.1010   43.2170 C   0  0  0  0  0  0  0  0  0  0  0  0
   44.6210   34.9720   42.0710 C   0  0  0  0  0  0  0  0  0  0  0  0
   45.2260   34.4410   40.9020 C   0  0  0  0  0  0  0  0  0  0  0  0
   46.5300   34.0960   40.9600 N   0  0  0  0  0  0  0  0  0  0  0  0
   47.2680   34.2380   42.0770 C   0  0  0  0  0  0  0  0  0  0  0  0
   46.7270   34.7410   43.2140 N   0  0  0  0  0  0  0  0  0  0  0  0
   48.6370   33.8510   42.0560 N   0  0  0  0  0  0  0  0  0  0  0  0
   49.6300   34.5430   42.6520 C   0  0  0  0  0  0  0  0  0  0  0  0
   50.7880   33.8910   42.4320 N   0  0  0  0  0  0  0  0  0  0  0  0
   50.5280   32.7900   41.6990 C   0  0  0  0  0  0  0  0  0  0  0  0
   51.3880   31.7970   41.2160 C   0  0  0  0  0  0  0  0  0  0  0  0
   50.7820   30.8250   40.5060 N   0  0  0  0  0  0  0  0  0  0  0  0
   49.4580   30.7820   40.2640 C   0  0  0  0  0  0  0  0  0  0  0  0
   48.6210   31.7510   40.7360 N   0  0  0  0  0  0  0  0  0  0  0  0
   49.1700   32.7660   41.4630 C   0  0  0  0  0  0  0  0  0  0  0  0
   44.5840   35.7810   44.6470 S   0  0  0  0  0  0  0  0  0  0  0  0
   43.5623   35.2704   42.0834 H   0  0  0  0  0  0  0  0  0  0  0  0
   44.6484   34.3141   39.9745 H   0  0  0  0  0  0  0  0  0  0  0  0
   49.5140   35.4781   43.2196 H   0  0  0  0  0  0  0  0  0  0  0  0
   52.4722   31.8090   41.4012 H   0  0  0  0  0  0  0  0  0  0  0  0
   49.0435   29.9505   39.6750 H   0  0  0  0  0  0  0  0  0  0  0  0
   45.1705   35.3123   45.7930 H   0  0  0  0  0  0  0  0  0  0  0  0
  1 16  1  0
  2  1  2  0
  3  4  2  0
  3  2  1  0
  4  5  1  0
  5  6  2  0
  6  1  1  0
  7  5  1  0
  7  8  1  0
  9  8  2  0
 10  9  1  0
 11 10  2  0
 12 11  1  0
 13 12  2  0
 13 14  1  0
 14 15  2  0
 15 10  1  0
 15  7  1  0
  2 17  1  0
  3 18  1  0
  8 19  1  0
 11 20  1  0
 13 21  1  0
 16 22  1  0
M  ISO  6  17  14  18  14  19  14  20  14  21  14  22  11
M  END
>  <minimizedAffinity>  (1) 
-4.46714497

>  <minimizedRMSD>  (1) 
7.38752651

$$$$
