
     RDKit          3D

 12 12  0  0  0  0  0  0  0  0999 V2000
   45.5160   34.7940   44.3040 C   0  0  0  0  0  0  0  0  0  0  0  0
   46.5450   33.9370   43.9070 C   0  0  0  0  0  0  0  0  0  0  0  0
   46.9600   32.9470   44.8120 C   0  0  0  0  0  0  0  0  0  0  0  0
   46.3510   32.8690   46.0190 N   0  0  0  0  0  0  0  0  0  0  0  0
   45.3600   33.7100   46.3730 C   0  0  0  0  0  0  0  0  0  0  0  0
   44.9290   34.6810   45.5250 N   0  0  0  0  0  0  0  0  0  0  0  0
   45.0520   36.0260   43.0840 S   0  0  0  0  0  0  0  0  0  0  0  0
   44.6990   33.6780   47.5940 O   0  0  0  0  0  0  0  0  0  0  0  0
   47.0151   34.0345   42.9173 H   0  0  0  0  0  0  0  0  0  0  0  0
   47.7656   32.2471   44.5453 H   0  0  0  0  0  0  0  0  0  0  0  0
   44.6245   37.1611   43.7210 H   0  0  0  0  0  0  0  0  0  0  0  0
   43.9786   34.3299   47.7841 H   0  0  0  0  0  0  0  0  0  0  0  0
  1  6  2  0
  2  1  1  0
  2  3  2  0
  3  4  1  0
  4  5  2  0
  5  8  1  0
  6  5  1  0
  7  1  1  0
  2  9  1  0
  3 10  1  0
  7 11  1  0
  8 12  1  0
M  ISO  4   9  14  10  14  11  11  12   3
M  END
>  <minimizedAffinity>  (1) 
-3.3662405

>  <minimizedRMSD>  (1) 
0.242286786

$$$$
