
     RDKit          3D

 12 12  0  0  0  0  0  0  0  0999 V2000
   45.7770   34.6280   44.1260 C   0  0  0  0  0  0  0  0  0  0  0  0
   46.6700   34.5960   43.0580 C   0  0  0  0  0  0  0  0  0  0  0  0
   47.6500   33.5980   43.0350 C   0  0  0  0  0  0  0  0  0  0  0  0
   47.6760   32.7090   44.0630 N   0  0  0  0  0  0  0  0  0  0  0  0
   46.8010   32.7690   45.0750 C   0  0  0  0  0  0  0  0  0  0  0  0
   45.8330   33.7210   45.1380 N   0  0  0  0  0  0  0  0  0  0  0  0
   44.5540   35.9420   44.0730 S   0  0  0  0  0  0  0  0  0  0  0  0
   46.9160   31.5480   46.3870 S   0  0  0  0  0  0  0  0  0  0  0  0
   46.6062   35.3395   42.2498 H   0  0  0  0  0  0  0  0  0  0  0  0
   48.3764   33.5347   42.2114 H   0  0  0  0  0  0  0  0  0  0  0  0
   44.2170   36.3040   45.3506 H   0  0  0  0  0  0  0  0  0  0  0  0
   46.8568   32.1770   47.6026 H   0  0  0  0  0  0  0  0  0  0  0  0
  1  6  2  0
  2  1  1  0
  3  2  2  0
  3  4  1  0
  4  5  2  0
  5  6  1  0
  5  8  1  0
  7  1  1  0
  2  9  1  0
  3 10  1  0
  7 11  1  0
  8 12  1  0
M  ISO  4   9  14  10  14  11  11  12  11
M  END
>  <minimizedAffinity>  (1) 
-2.51372313

>  <minimizedRMSD>  (1) 
1.74060047

$$$$
