
     RDKit          3D

 14 14  0  0  0  0  0  0  0  0999 V2000
   45.6050   34.5610   44.5070 C   0  0  0  0  0  0  0  0  0  0  0  0
   46.6150   33.8990   43.8070 C   0  0  0  0  0  0  0  0  0  0  0  0
   47.2450   32.8000   44.4250 C   0  0  0  0  0  0  0  0  0  0  0  0
   46.8210   32.4600   45.6620 N   0  0  0  0  0  0  0  0  0  0  0  0
   45.8480   33.1150   46.3080 C   0  0  0  0  0  0  0  0  0  0  0  0
   45.2310   34.1690   45.7370 N   0  0  0  0  0  0  0  0  0  0  0  0
   44.8680   35.9460   43.6320 S   0  0  0  0  0  0  0  0  0  0  0  0
   45.4410   32.6650   47.6830 C   0  0  0  0  0  0  0  0  0  0  0  0
   46.9115   34.2264   42.7996 H   0  0  0  0  0  0  0  0  0  0  0  0
   48.0483   32.2424   43.9213 H   0  0  0  0  0  0  0  0  0  0  0  0
   44.3851   36.8535   44.5376 H   0  0  0  0  0  0  0  0  0  0  0  0
   45.9782   33.2589   48.4371 H   0  0  0  0  0  0  0  0  0  0  0  0
   44.3574   32.8058   47.8091 H   0  0  0  0  0  0  0  0  0  0  0  0
   45.6896   31.6009   47.8091 H   0  0  0  0  0  0  0  0  0  0  0  0
  1  6  2  0
  2  3  2  0
  2  1  1  0
  3  4  1  0
  4  5  2  0
  5  8  1  0
  6  5  1  0
  7  1  1  0
  2  9  1  0
  3 10  1  0
  7 11  1  0
  8 12  1  0
  8 13  1  0
  8 14  1  0
M  ISO  6   9  14  10  14  11  11  12   8  13   8  14   8
M  END
>  <minimizedAffinity>  (1) 
-2.86855221

>  <minimizedRMSD>  (1) 
0.492579788

$$$$
