
     RDKit          3D

 18 19  0  0  0  0  0  0  0  0999 V2000
   46.2490   33.8550   44.7540 C   0  0  0  0  0  0  0  0  0  0  0  0
   45.1320   34.6870   44.8760 C   0  0  0  0  0  0  0  0  0  0  0  0
   44.9010   35.6300   43.8410 C   0  0  0  0  0  0  0  0  0  0  0  0
   45.7890   35.6460   42.8110 N   0  0  0  0  0  0  0  0  0  0  0  0
   46.8480   34.8290   42.7340 C   0  0  0  0  0  0  0  0  0  0  0  0
   47.0880   33.9280   43.7010 N   0  0  0  0  0  0  0  0  0  0  0  0
   47.7900   34.8930   41.5770 C   0  0  0  0  0  0  0  0  0  0  0  0
   49.1560   34.2970   41.6880 C   0  0  0  0  0  0  0  0  0  0  0  0
   48.9440   35.8180   41.6080 C   0  0  0  0  0  0  0  0  0  0  0  0
   46.4600   32.6890   46.1190 S   0  0  0  0  0  0  0  0  0  0  0  0
   44.4575   34.6134   45.7418 H   0  0  0  0  0  0  0  0  0  0  0  0
   44.0424   36.3170   43.8705 H   0  0  0  0  0  0  0  0  0  0  0  0
   46.9461   34.7473   40.8866 H   0  0  0  0  0  0  0  0  0  0  0  0
   49.4830   33.8315   42.6295 H   0  0  0  0  0  0  0  0  0  0  0  0
   49.7382   33.5526   41.1251 H   0  0  0  0  0  0  0  0  0  0  0  0
   49.2343   36.3687   40.7011 H   0  0  0  0  0  0  0  0  0  0  0  0
   49.2373   36.6815   42.2231 H   0  0  0  0  0  0  0  0  0  0  0  0
   46.3396   33.3542   47.3106 H   0  0  0  0  0  0  0  0  0  0  0  0
  1  2  2  0
  1 10  1  0
  3  2  1  0
  4  3  2  0
  5  4  1  0
  5  6  2  0
  6  1  1  0
  7  9  1  0
  7  8  1  0
  7  5  1  0
  9  8  1  0
  2 11  1  0
  3 12  1  0
  7 13  1  0
  8 14  1  0
  8 15  1  0
  9 16  1  0
  9 17  1  0
 10 18  1  0
M  ISO  8  11  14  12  14  13  13  14  13  15  13  16  13  17  13  18  11
M  END
>  <minimizedAffinity>  (1) 
-3.9815731

>  <minimizedRMSD>  (1) 
5.12956285

$$$$
