
     RDKit          3D

 37 41  0  0  0  0  0  0  0  0999 V2000
   46.3240   33.1550   40.0780 C   0  0  0  0  0  0  0  0  0  0  0  0
   47.6800   32.8600   39.8910 C   0  0  0  0  0  0  0  0  0  0  0  0
   48.5180   32.8250   41.0240 C   0  0  0  0  0  0  0  0  0  0  0  0
   47.9460   33.0820   42.2340 N   0  0  0  0  0  0  0  0  0  0  0  0
   46.6260   33.3630   42.3680 C   0  0  0  0  0  0  0  0  0  0  0  0
   45.8240   33.3980   41.2930 N   0  0  0  0  0  0  0  0  0  0  0  0
   46.1220   33.6170   43.6730 N   0  0  0  0  0  0  0  0  0  0  0  0
   45.2750   34.6170   44.0180 C   0  0  0  0  0  0  0  0  0  0  0  0
   45.0330   34.5170   45.3570 N   0  0  0  0  0  0  0  0  0  0  0  0
   45.7260   33.4730   45.7990 C   0  0  0  0  0  0  0  0  0  0  0  0
   45.8810   32.8880   47.0260 C   0  0  0  0  0  0  0  0  0  0  0  0
   46.6530   31.8200   47.2190 N   0  0  0  0  0  0  0  0  0  0  0  0
   47.3370   31.2410   46.2070 C   0  0  0  0  0  0  0  0  0  0  0  0
   47.1900   31.8070   45.0030 N   0  0  0  0  0  0  0  0  0  0  0  0
   46.4270   32.8810   44.7610 C   0  0  0  0  0  0  0  0  0  0  0  0
   45.2410   33.3640   48.1890 N   0  0  0  0  0  0  0  0  0  0  0  0
   45.3600   33.1700   38.5540 S   0  0  0  0  0  0  0  0  0  0  0  0
   42.5680   33.5080   38.0970 N   0  0  0  0  0  0  0  0  0  0  0  0
   43.6740   33.6460   38.8490 C   0  0  0  0  0  0  0  0  0  0  0  0
   43.2730   34.2670   39.9860 N   0  0  0  0  0  0  0  0  0  0  0  0
   41.9670   34.4970   39.9230 C   0  0  0  0  0  0  0  0  0  0  0  0
   41.0400   35.0810   40.7590 C   0  0  0  0  0  0  0  0  0  0  0  0
   39.7660   35.1500   40.3700 N   0  0  0  0  0  0  0  0  0  0  0  0
   39.3370   34.6740   39.1930 C   0  0  0  0  0  0  0  0  0  0  0  0
   40.2120   34.0920   38.3370 N   0  0  0  0  0  0  0  0  0  0  0  0
   41.4970   34.0180   38.7190 C   0  0  0  0  0  0  0  0  0  0  0  0
   41.4200   35.6000   42.0080 N   0  0  0  0  0  0  0  0  0  0  0  0
   48.0809   32.6608   38.8862 H   0  0  0  0  0  0  0  0  0  0  0  0
   49.5909   32.5992   40.9350 H   0  0  0  0  0  0  0  0  0  0  0  0
   44.8568   35.3748   43.3391 H   0  0  0  0  0  0  0  0  0  0  0  0
   47.9752   30.3588   46.3633 H   0  0  0  0  0  0  0  0  0  0  0  0
   45.3901   32.8882   49.0903 H   0  0  0  0  0  0  0  0  0  0  0  0
   44.6245   34.1875   48.1372 H   0  0  0  0  0  0  0  0  0  0  0  0
   42.5471   33.0683   37.1658 H   0  0  0  0  0  0  0  0  0  0  0  0
   38.2742   34.7557   38.9215 H   0  0  0  0  0  0  0  0  0  0  0  0
   40.7153   36.0335   42.6216 H   0  0  0  0  0  0  0  0  0  0  0  0
   42.4033   35.5470   42.3101 H   0  0  0  0  0  0  0  0  0  0  0  0
  1  6  1  0
  2  1  2  0
  2  3  1  0
  3  4  2  0
  4  5  1  0
  5  7  1  0
  6  5  2  0
  7  8  1  0
  7 15  1  0
  8  9  2  0
  9 10  1  0
 10 11  2  0
 11 12  1  0
 11 16  1  0
 13 12  2  0
 14 13  1  0
 15 14  2  0
 15 10  1  0
 17 19  1  0
 17  1  1  0
 18 26  1  0
 18 19  1  0
 19 20  2  0
 21 20  1  0
 21 22  2  0
 22 27  1  0
 23 22  1  0
 24 23  2  0
 25 26  2  0
 25 24  1  0
 26 21  1  0
  2 28  1  0
  3 29  1  0
  8 30  1  0
 13 31  1  0
 16 32  1  0
 16 33  1  0
 18 34  1  0
 24 35  1  0
 27 36  1  0
 27 37  1  0
M  ISO  6  28  14  29  14  30  14  31  14  34   9  35  14
M  END
>  <minimizedAffinity>  (1) 
-7.05160046

>  <minimizedRMSD>  (1) 
1.66493833

$$$$
