
     RDKit          3D

 36 39  0  0  1  0  0  0  0  0999 V2000
   49.3860   32.2440   39.9960 C   0  0  0  0  0  0  0  0  0  0  0  0
   50.5440   31.9220   40.7230 C   0  0  0  0  0  0  0  0  0  0  0  0
   50.6250   32.3260   42.0780 C   0  0  0  0  0  0  0  0  0  0  0  0
   49.5540   33.0090   42.5820 N   0  0  0  0  0  0  0  0  0  0  0  0
   48.4610   33.2990   41.8560 C   0  0  0  0  0  0  0  0  0  0  0  0
   48.3860   32.9140   40.5670 N   0  0  0  0  0  0  0  0  0  0  0  0
   47.3960   34.0120   42.4680 N   0  0  0  0  0  0  0  0  0  0  0  0
   46.7110   35.0460   41.9300 C   0  0  0  0  0  0  0  0  0  0  0  0
   45.7720   35.4490   42.8350 N   0  0  0  0  0  0  0  0  0  0  0  0
   45.8990   34.6600   43.9030 C   0  0  0  0  0  0  0  0  0  0  0  0
   45.2590   34.5630   45.1230 C   0  0  0  0  0  0  0  0  0  0  0  0
   45.5780   33.6670   46.0430 N   0  0  0  0  0  0  0  0  0  0  0  0
   46.5700   32.7780   45.8370 C   0  0  0  0  0  0  0  0  0  0  0  0
   47.2050   32.8520   44.6630 N   0  0  0  0  0  0  0  0  0  0  0  0
   46.9140   33.7450   43.7000 C   0  0  0  0  0  0  0  0  0  0  0  0
   44.1940   35.4430   45.4620 N   0  0  0  0  0  0  0  0  0  0  0  0
   49.4040   31.6750   38.3000 S   0  0  0  0  0  0  0  0  0  0  0  0
   47.3650   33.0960   37.0580 C   0  0  1  0  0  0  0  0  0  0  0  0
   47.7580   31.7210   37.6010 C   0  0  1  0  0  0  0  0  0  0  0  0
   47.6540   30.9320   36.3070 C   0  0  0  0  0  0  0  0  0  0  0  0
   46.6040   31.4740   35.5780 O   0  0  0  0  0  0  0  0  0  0  0  0
   46.1700   32.6280   36.2160 C   0  0  0  0  0  0  0  0  0  0  0  0
   46.9590   33.9580   38.0590 O   0  0  0  0  0  0  0  0  0  0  0  0
   51.3691   31.3687   40.2507 H   0  0  0  0  0  0  0  0  0  0  0  0
   51.5074   32.1009   42.6950 H   0  0  0  0  0  0  0  0  0  0  0  0
   46.8808   35.4859   40.9362 H   0  0  0  0  0  0  0  0  0  0  0  0
   46.8430   32.0300   46.5960 H   0  0  0  0  0  0  0  0  0  0  0  0
   43.7267   35.3579   46.3759 H   0  0  0  0  0  0  0  0  0  0  0  0
   43.8901   36.1653   44.7935 H   0  0  0  0  0  0  0  0  0  0  0  0
   48.1569   33.6593   36.5426 H   0  0  0  0  0  0  0  0  0  0  0  0
   47.1465   31.3573   38.4399 H   0  0  0  0  0  0  0  0  0  0  0  0
   48.5913   31.0170   35.7376 H   0  0  0  0  0  0  0  0  0  0  0  0
   47.4766   29.8662   36.5131 H   0  0  0  0  0  0  0  0  0  0  0  0
   45.8935   33.3958   35.4784 H   0  0  0  0  0  0  0  0  0  0  0  0
   45.2782   32.4457   36.8336 H   0  0  0  0  0  0  0  0  0  0  0  0
   47.1501   33.5522   38.9416 H   0  0  0  0  0  0  0  0  0  0  0  0
  1  6  1  0
  1  2  2  0
  2  3  1  0
  3  4  2  0
  5  7  1  0
  5  4  1  0
  6  5  2  0
  7 15  1  0
  8  7  1  0
  8  9  2  0
  9 10  1  0
 10 11  2  0
 11 16  1  0
 11 12  1  0
 13 12  2  0
 14 13  1  0
 15 10  1  0
 15 14  2  0
 17  1  1  0
 18 19  1  0
 18 23  1  0
 19 17  1  0
 20 19  1  0
 21 22  1  0
 21 20  1  0
 22 18  1  0
  2 24  1  0
  3 25  1  0
  8 26  1  0
 13 27  1  0
 16 28  1  0
 16 29  1  0
 18 30  1  6
 19 31  1  1
 20 32  1  0
 20 33  1  0
 22 34  1  0
 22 35  1  0
 23 36  1  0
M  ISO  8  24  14  25  14  26  14  27  14  30  13  31  13  32  13  33  13
M  ISO  3  34  13  35  13  36   3
M  END
>  <minimizedAffinity>  (1) 
-5.89840794

>  <minimizedRMSD>  (1) 
2.53467822

$$$$
