
     RDKit          3D

 25 26  0  0  1  0  0  0  0  0999 V2000
   46.5060   34.5170   41.7760 C   0  0  0  0  0  0  0  0  0  0  0  0
   45.2220   35.9230   43.3150 C   0  0  0  0  0  0  0  0  0  0  0  0
   45.9010   34.7010   43.1090 C   0  0  0  0  0  0  0  0  0  0  0  0
   45.9180   33.8170   44.1810 C   0  0  0  0  0  0  0  0  0  0  0  0
   45.3030   34.1660   45.3260 N   0  0  0  0  0  0  0  0  0  0  0  0
   44.6680   35.3370   45.4860 C   0  0  0  0  0  0  0  0  0  0  0  0
   44.6190   36.2350   44.4770 N   0  0  0  0  0  0  0  0  0  0  0  0
   49.3510   33.3590   41.9310 C   0  0  2  0  0  0  0  0  0  0  0  0
   48.8870   34.6470   42.5710 C   0  0  0  0  0  0  0  0  0  0  0  0
   47.8430   35.1410   41.5980 C   0  0  1  0  0  0  0  0  0  0  0  0
   48.3460   34.7110   40.3730 O   0  0  0  0  0  0  0  0  0  0  0  0
   48.7980   33.4120   40.5210 C   0  0  0  0  0  0  0  0  0  0  0  0
   48.8770   32.2760   42.6590 O   0  0  0  0  0  0  0  0  0  0  0  0
   46.6073   33.4369   41.5941 H   0  0  0  0  0  0  0  0  0  0  0  0
   45.8360   35.0208   41.0637 H   0  0  0  0  0  0  0  0  0  0  0  0
   45.1847   36.6502   42.4905 H   0  0  0  0  0  0  0  0  0  0  0  0
   46.4270   32.8456   44.0949 H   0  0  0  0  0  0  0  0  0  0  0  0
   44.1834   35.5681   46.4461 H   0  0  0  0  0  0  0  0  0  0  0  0
   50.4447   33.2433   41.9122 H   0  0  0  0  0  0  0  0  0  0  0  0
   48.4493   34.4622   43.5631 H   0  0  0  0  0  0  0  0  0  0  0  0
   49.7001   35.3675   42.7434 H   0  0  0  0  0  0  0  0  0  0  0  0
   47.6862   36.2233   41.7167 H   0  0  0  0  0  0  0  0  0  0  0  0
   47.9709   32.6968   40.4009 H   0  0  0  0  0  0  0  0  0  0  0  0
   49.5521   33.1438   39.7664 H   0  0  0  0  0  0  0  0  0  0  0  0
   48.9606   32.4669   43.6268 H   0  0  0  0  0  0  0  0  0  0  0  0
  1  3  1  0
  2  7  2  0
  3  2  1  0
  3  4  2  0
  4  5  1  0
  5  6  2  0
  7  6  1  0
  8  9  1  0
  8 13  1  0
 10  1  1  0
 10  9  1  0
 11 12  1  0
 11 10  1  0
 12  8  1  0
  1 14  1  0
  1 15  1  0
  2 16  1  0
  4 17  1  0
  6 18  1  0
  8 19  1  6
  9 20  1  0
  9 21  1  0
 10 22  1  6
 12 23  1  0
 12 24  1  0
 13 25  1  0
M  ISO  8  14   8  15   8  16  14  17  14  18  14  19  13  20  13  21  13
M  ISO  4  22  13  23  13  24  13  25   3
M  END
>  <minimizedAffinity>  (1) 
-4.15434027

>  <minimizedRMSD>  (1) 
2.46091366

$$$$
