
     RDKit          3D

 15 15  0  0  0  0  0  0  0  0999 V2000
   44.4290   35.7550   43.6040 C   0  0  0  0  0  0  0  0  0  0  0  0
   44.7740   34.6460   42.8120 C   0  0  0  0  0  0  0  0  0  0  0  0
   45.2790   33.5160   43.4410 C   0  0  0  0  0  0  0  0  0  0  0  0
   45.4120   33.5450   44.7800 N   0  0  0  0  0  0  0  0  0  0  0  0
   45.0740   34.6240   45.5200 C   0  0  0  0  0  0  0  0  0  0  0  0
   44.5740   35.7570   44.9460 N   0  0  0  0  0  0  0  0  0  0  0  0
   44.5540   34.8090   41.3560 C   0  0  0  0  0  0  0  0  0  0  0  0
   45.6360   34.3480   40.5580 N   0  0  0  0  0  0  0  0  0  0  0  0
   44.0266   36.6531   43.1126 H   0  0  0  0  0  0  0  0  0  0  0  0
   45.5618   32.6241   42.8626 H   0  0  0  0  0  0  0  0  0  0  0  0
   45.2050   34.5884   46.6116 H   0  0  0  0  0  0  0  0  0  0  0  0
   43.6517   34.2454   41.0762 H   0  0  0  0  0  0  0  0  0  0  0  0
   44.4520   35.8876   41.1658 H   0  0  0  0  0  0  0  0  0  0  0  0
   46.3990   34.0229   41.1688 H   0  0  0  0  0  0  0  0  0  0  0  0
   45.3169   33.5698   39.9634 H   0  0  0  0  0  0  0  0  0  0  0  0
  1  6  2  0
  2  3  2  0
  2  1  1  0
  3  4  1  0
  4  5  2  0
  6  5  1  0
  7  2  1  0
  8  7  1  0
  1  9  1  0
  3 10  1  0
  5 11  1  0
  7 12  1  0
  7 13  1  0
  8 14  1  0
  8 15  1  0
M  ISO  7   9  14  10  14  11  14  12   8  13   8  14   5  15   5
M  END
>  <minimizedAffinity>  (1) 
-2.84425735

>  <minimizedRMSD>  (1) 
1.08900154

$$$$
