
     RDKit          3D

 30 32  0  0  0  0  0  0  0  0999 V2000
   43.7120   35.1510   40.9650 C   0  0  0  0  0  0  0  0  0  0  0  0
   44.3330   35.8190   43.2030 C   0  0  0  0  0  0  0  0  0  0  0  0
   44.2560   34.7730   42.2830 C   0  0  0  0  0  0  0  0  0  0  0  0
   44.6820   33.5190   42.6770 C   0  0  0  0  0  0  0  0  0  0  0  0
   45.1490   33.4000   43.9400 N   0  0  0  0  0  0  0  0  0  0  0  0
   45.2130   34.4200   44.8060 C   0  0  0  0  0  0  0  0  0  0  0  0
   44.8010   35.6900   44.4690 N   0  0  0  0  0  0  0  0  0  0  0  0
   42.3660   35.5110   41.0060 O   0  0  0  0  0  0  0  0  0  0  0  0
   41.5650   35.2710   39.9000 C   0  0  0  0  0  0  0  0  0  0  0  0
   41.7880   35.8590   38.6740 C   0  0  0  0  0  0  0  0  0  0  0  0
   40.9180   35.5330   37.6660 C   0  0  0  0  0  0  0  0  0  0  0  0
   39.8460   34.6680   37.7950 C   0  0  0  0  0  0  0  0  0  0  0  0
   39.6650   34.1000   39.0600 C   0  0  0  0  0  0  0  0  0  0  0  0
   38.6160   33.2290   39.2580 C   0  0  0  0  0  0  0  0  0  0  0  0
   38.3580   32.6140   40.4850 C   0  0  0  0  0  0  0  0  0  0  0  0
   39.2330   32.9410   41.5010 C   0  0  0  0  0  0  0  0  0  0  0  0
   40.3000   33.8050   41.3630 C   0  0  0  0  0  0  0  0  0  0  0  0
   40.5110   34.3910   40.1150 C   0  0  0  0  0  0  0  0  0  0  0  0
   43.8238   34.2953   40.2828 H   0  0  0  0  0  0  0  0  0  0  0  0
   44.2742   36.0318   40.6213 H   0  0  0  0  0  0  0  0  0  0  0  0
   43.9916   36.8136   42.8801 H   0  0  0  0  0  0  0  0  0  0  0  0
   44.6429   32.6573   41.9944 H   0  0  0  0  0  0  0  0  0  0  0  0
   45.6066   34.2376   45.8169 H   0  0  0  0  0  0  0  0  0  0  0  0
   42.6234   36.5560   38.5120 H   0  0  0  0  0  0  0  0  0  0  0  0
   41.0847   35.9935   36.6811 H   0  0  0  0  0  0  0  0  0  0  0  0
   39.1760   34.4406   36.9528 H   0  0  0  0  0  0  0  0  0  0  0  0
   37.9508   33.0077   38.4103 H   0  0  0  0  0  0  0  0  0  0  0  0
   37.5179   31.9191   40.6312 H   0  0  0  0  0  0  0  0  0  0  0  0
   39.0688   32.4820   42.4871 H   0  0  0  0  0  0  0  0  0  0  0  0
   40.9642   34.0250   42.2117 H   0  0  0  0  0  0  0  0  0  0  0  0
  1  8  1  0
  1  3  1  0
  2  7  2  0
  3  4  2  0
  3  2  1  0
  4  5  1  0
  5  6  2  0
  7  6  1  0
  9 18  1  0
  9  8  1  0
 10  9  2  0
 11 12  2  0
 11 10  1  0
 12 13  1  0
 13 14  1  0
 13 18  2  0
 14 15  2  0
 15 16  1  0
 17 16  2  0
 18 17  1  0
  1 19  1  0
  1 20  1  0
  2 21  1  0
  4 22  1  0
  6 23  1  0
 10 24  1  0
 11 25  1  0
 12 26  1  0
 14 27  1  0
 15 28  1  0
 16 29  1  0
 17 30  1  0
M  ISO  8  19   8  20   8  21  14  22  14  23  14  24  14  25  14  26  14
M  ISO  4  27  14  28  14  29  14  30  14
M  END
>  <minimizedAffinity>  (1) 
-5.6709857

>  <minimizedRMSD>  (1) 
2.56188178

$$$$
