
     RDKit          3D

 27 29  0  0  0  0  0  0  0  0999 V2000
   43.2260   35.2890   39.8390 N   0  0  0  0  0  0  0  0  0  0  0  0
   43.6890   35.0440   41.0780 C   0  0  0  0  0  0  0  0  0  0  0  0
   42.6780   34.6130   41.8290 N   0  0  0  0  0  0  0  0  0  0  0  0
   41.5490   34.5760   41.0830 C   0  0  0  0  0  0  0  0  0  0  0  0
   40.2300   34.2410   41.2540 C   0  0  0  0  0  0  0  0  0  0  0  0
   39.3410   34.3270   40.2540 N   0  0  0  0  0  0  0  0  0  0  0  0
   39.7170   34.7540   39.0160 C   0  0  0  0  0  0  0  0  0  0  0  0
   41.0050   35.0900   38.8210 N   0  0  0  0  0  0  0  0  0  0  0  0
   41.9080   35.0090   39.8160 C   0  0  0  0  0  0  0  0  0  0  0  0
   39.8320   33.7950   42.5350 N   0  0  0  0  0  0  0  0  0  0  0  0
   44.9900   35.1900   41.5680 O   0  0  0  0  0  0  0  0  0  0  0  0
   45.2080   35.7900   42.7980 C   0  0  0  0  0  0  0  0  0  0  0  0
   44.9260   34.9360   45.0310 C   0  0  0  0  0  0  0  0  0  0  0  0
   45.6360   34.8600   43.8470 C   0  0  0  0  0  0  0  0  0  0  0  0
   46.6590   33.9360   43.7670 C   0  0  0  0  0  0  0  0  0  0  0  0
   46.8970   33.1710   44.8500 N   0  0  0  0  0  0  0  0  0  0  0  0
   46.1940   33.2580   45.9950 C   0  0  0  0  0  0  0  0  0  0  0  0
   45.1630   34.1590   46.1360 N   0  0  0  0  0  0  0  0  0  0  0  0
   43.7836   35.6320   39.0438 H   0  0  0  0  0  0  0  0  0  0  0  0
   38.9861   34.8223   38.1968 H   0  0  0  0  0  0  0  0  0  0  0  0
   38.8509   33.5332   42.7073 H   0  0  0  0  0  0  0  0  0  0  0  0
   40.5231   33.7319   43.2961 H   0  0  0  0  0  0  0  0  0  0  0  0
   45.9877   36.5563   42.6758 H   0  0  0  0  0  0  0  0  0  0  0  0
   44.2454   36.2132   43.1210 H   0  0  0  0  0  0  0  0  0  0  0  0
   44.1119   35.6733   45.0910 H   0  0  0  0  0  0  0  0  0  0  0  0
   47.2586   33.8284   42.8511 H   0  0  0  0  0  0  0  0  0  0  0  0
   46.4489   32.5953   46.8352 H   0  0  0  0  0  0  0  0  0  0  0  0
  1  2  1  0
  2 11  1  0
  2  3  2  0
  4  5  2  0
  4  3  1  0
  5 10  1  0
  6  5  1  0
  7  6  2  0
  8  7  1  0
  8  9  2  0
  9  1  1  0
  9  4  1  0
 11 12  1  0
 12 14  1  0
 13 18  2  0
 14 13  1  0
 15 14  2  0
 15 16  1  0
 16 17  2  0
 17 18  1  0
  1 19  1  0
  7 20  1  0
 10 21  1  0
 10 22  1  0
 12 23  1  0
 12 24  1  0
 13 25  1  0
 15 26  1  0
 17 27  1  0
M  ISO  7  19   9  20  14  23   8  24   8  25  14  26  14  27  14
M  END
>  <minimizedAffinity>  (1) 
-5.6629858

>  <minimizedRMSD>  (1) 
2.97625613

$$$$
