
     RDKit          3D

 24 25  0  0  0  0  0  0  0  0999 V2000
   43.5070   35.3960   41.1300 C   0  0  0  0  0  0  0  0  0  0  0  0
   44.2030   35.8930   43.3950 C   0  0  0  0  0  0  0  0  0  0  0  0
   44.1230   34.9330   42.3860 C   0  0  0  0  0  0  0  0  0  0  0  0
   44.6140   33.6700   42.6530 C   0  0  0  0  0  0  0  0  0  0  0  0
   45.1390   33.4530   43.8730 N   0  0  0  0  0  0  0  0  0  0  0  0
   45.2050   34.3910   44.8260 C   0  0  0  0  0  0  0  0  0  0  0  0
   44.7350   35.6710   44.6320 N   0  0  0  0  0  0  0  0  0  0  0  0
   42.1610   35.7060   41.2570 O   0  0  0  0  0  0  0  0  0  0  0  0
   41.2910   35.3500   40.2240 C   0  0  0  0  0  0  0  0  0  0  0  0
   41.5770   35.3460   38.8730 C   0  0  0  0  0  0  0  0  0  0  0  0
   40.6260   34.9740   37.9680 C   0  0  0  0  0  0  0  0  0  0  0  0
   39.3600   34.5930   38.3660 C   0  0  0  0  0  0  0  0  0  0  0  0
   39.0510   34.5910   39.7120 C   0  0  0  0  0  0  0  0  0  0  0  0
   40.0130   34.9670   40.6150 C   0  0  0  0  0  0  0  0  0  0  0  0
   43.6120   34.6013   40.3767 H   0  0  0  0  0  0  0  0  0  0  0  0
   44.0262   36.3200   40.8356 H   0  0  0  0  0  0  0  0  0  0  0  0
   43.8105   36.8976   43.1788 H   0  0  0  0  0  0  0  0  0  0  0  0
   44.5773   32.8717   41.8971 H   0  0  0  0  0  0  0  0  0  0  0  0
   45.6500   34.1304   45.7976 H   0  0  0  0  0  0  0  0  0  0  0  0
   42.5768   35.6443   38.5246 H   0  0  0  0  0  0  0  0  0  0  0  0
   40.8738   34.9777   36.8963 H   0  0  0  0  0  0  0  0  0  0  0  0
   38.6076   34.2950   37.6210 H   0  0  0  0  0  0  0  0  0  0  0  0
   38.0493   34.2926   40.0547 H   0  0  0  0  0  0  0  0  0  0  0  0
   39.7643   34.9654   41.6865 H   0  0  0  0  0  0  0  0  0  0  0  0
  1  8  1  0
  1  3  1  0
  2  7  2  0
  3  4  2  0
  3  2  1  0
  4  5  1  0
  5  6  2  0
  7  6  1  0
  9 14  1  0
  9  8  1  0
 10  9  2  0
 11 12  2  0
 11 10  1  0
 12 13  1  0
 13 14  2  0
  1 15  1  0
  1 16  1  0
  2 17  1  0
  4 18  1  0
  6 19  1  0
 10 20  1  0
 11 21  1  0
 12 22  1  0
 13 23  1  0
 14 24  1  0
M  ISO  8  15   8  16   8  17  14  18  14  19  14  20  14  21  14  22  14
M  ISO  2  23  14  24  14
M  END
>  <minimizedAffinity>  (1) 
-4.70999479

>  <minimizedRMSD>  (1) 
1.69164801

$$$$
