
     RDKit          3D

 17 17  0  0  0  0  0  0  0  0999 V2000
   44.4110   35.7610   44.5360 C   0  0  0  0  0  0  0  0  0  0  0  0
   44.8170   35.1770   43.3380 C   0  0  0  0  0  0  0  0  0  0  0  0
   45.5030   33.9810   43.4200 C   0  0  0  0  0  0  0  0  0  0  0  0
   45.7340   33.4640   44.6360 N   0  0  0  0  0  0  0  0  0  0  0  0
   45.3320   34.0490   45.7730 C   0  0  0  0  0  0  0  0  0  0  0  0
   44.6430   35.2400   45.7790 N   0  0  0  0  0  0  0  0  0  0  0  0
   44.4430   35.9380   42.1430 C   0  0  0  0  0  0  0  0  0  0  0  0
   43.7040   35.2000   41.2250 O   0  0  0  0  0  0  0  0  0  0  0  0
   42.3490   35.2590   41.3920 C   0  0  0  0  0  0  0  0  0  0  0  0
   43.8626   36.7128   44.4777 H   0  0  0  0  0  0  0  0  0  0  0  0
   45.8507   33.4661   42.5122 H   0  0  0  0  0  0  0  0  0  0  0  0
   45.5603   33.5613   46.7322 H   0  0  0  0  0  0  0  0  0  0  0  0
   43.8433   36.8054   42.4560 H   0  0  0  0  0  0  0  0  0  0  0  0
   45.3766   36.2353   41.6430 H   0  0  0  0  0  0  0  0  0  0  0  0
   42.1121   35.2693   42.4661 H   0  0  0  0  0  0  0  0  0  0  0  0
   41.9612   36.1749   40.9222 H   0  0  0  0  0  0  0  0  0  0  0  0
   41.8830   34.3803   40.9222 H   0  0  0  0  0  0  0  0  0  0  0  0
  1  6  2  0
  2  3  2  0
  2  1  1  0
  3  4  1  0
  4  5  2  0
  5  6  1  0
  7  2  1  0
  8  9  1  0
  8  7  1  0
  1 10  1  0
  3 11  1  0
  5 12  1  0
  7 13  1  0
  7 14  1  0
  9 15  1  0
  9 16  1  0
  9 17  1  0
M  ISO  8  10  14  11  14  12  14  13   8  14   8  15   8  16   8  17   8
M  END
>  <minimizedAffinity>  (1) 
-2.87200379

>  <minimizedRMSD>  (1) 
0.520266712

$$$$
