
     RDKit          3D

 25 26  0  0  1  0  0  0  0  0999 V2000
   43.7020   35.2650   41.3440 C   0  0  0  0  0  0  0  0  0  0  0  0
   44.2820   35.7520   43.6360 C   0  0  0  0  0  0  0  0  0  0  0  0
   44.2780   34.8220   42.6160 C   0  0  0  0  0  0  0  0  0  0  0  0
   44.8140   33.5710   42.8930 C   0  0  0  0  0  0  0  0  0  0  0  0
   45.2940   33.3620   44.1230 N   0  0  0  0  0  0  0  0  0  0  0  0
   45.2930   34.2740   45.1040 C   0  0  0  0  0  0  0  0  0  0  0  0
   44.7710   35.5310   44.8810 N   0  0  0  0  0  0  0  0  0  0  0  0
   42.4220   35.7760   41.4550 O   0  0  0  0  0  0  0  0  0  0  0  0
   41.5740   35.0850   40.5960 C   0  0  2  0  0  0  0  0  0  0  0  0
   40.3950   35.9620   40.1570 C   0  0  0  0  0  0  0  0  0  0  0  0
   39.3350   34.9310   39.9040 C   0  0  0  0  0  0  0  0  0  0  0  0
   39.6440   33.8020   40.6210 O   0  0  0  0  0  0  0  0  0  0  0  0
   40.7940   34.0220   41.3500 C   0  0  0  0  0  0  0  0  0  0  0  0
   43.6731   34.4048   40.6589 H   0  0  0  0  0  0  0  0  0  0  0  0
   44.3397   36.0806   40.9722 H   0  0  0  0  0  0  0  0  0  0  0  0
   43.8577   36.7443   43.4233 H   0  0  0  0  0  0  0  0  0  0  0  0
   44.8425   32.7810   42.1281 H   0  0  0  0  0  0  0  0  0  0  0  0
   45.7095   34.0198   46.0899 H   0  0  0  0  0  0  0  0  0  0  0  0
   42.2296   34.7255   39.7892 H   0  0  0  0  0  0  0  0  0  0  0  0
   40.0951   36.6601   40.9524 H   0  0  0  0  0  0  0  0  0  0  0  0
   40.6117   36.6050   39.2912 H   0  0  0  0  0  0  0  0  0  0  0  0
   38.3568   35.3182   40.2253 H   0  0  0  0  0  0  0  0  0  0  0  0
   39.2887   34.6943   38.8308 H   0  0  0  0  0  0  0  0  0  0  0  0
   41.3830   33.0958   41.4225 H   0  0  0  0  0  0  0  0  0  0  0  0
   40.5637   34.3447   42.3761 H   0  0  0  0  0  0  0  0  0  0  0  0
  1  8  1  0
  1  3  1  0
  2  7  2  0
  3  4  2  0
  3  2  1  0
  4  5  1  0
  5  6  2  0
  7  6  1  0
  9 13  1  0
  9  8  1  0
 10  9  1  0
 11 10  1  0
 11 12  1  0
 12 13  1  0
  1 14  1  0
  1 15  1  0
  2 16  1  0
  4 17  1  0
  6 18  1  0
  9 19  1  6
 10 20  1  0
 10 21  1  0
 11 22  1  0
 11 23  1  0
 13 24  1  0
 13 25  1  0
M  ISO  8  14   8  15   8  16  14  17  14  18  14  19  13  20  13  21  13
M  ISO  4  22  13  23  13  24  13  25  13
M  END
>  <minimizedAffinity>  (1) 
-3.92078543

>  <minimizedRMSD>  (1) 
2.34198594

$$$$
