
     RDKit          3D

 21 21  0  0  0  0  0  0  0  0999 V2000
   44.3090   35.7620   44.1430 C   0  0  0  0  0  0  0  0  0  0  0  0
   44.5450   34.9050   43.0710 C   0  0  0  0  0  0  0  0  0  0  0  0
   45.1570   33.6990   43.3540 C   0  0  0  0  0  0  0  0  0  0  0  0
   45.4800   33.4390   44.6220 N   0  0  0  0  0  0  0  0  0  0  0  0
   45.2500   34.2700   45.6470 C   0  0  0  0  0  0  0  0  0  0  0  0
   44.6440   35.4870   45.4340 N   0  0  0  0  0  0  0  0  0  0  0  0
   44.1040   35.4010   41.7670 C   0  0  0  0  0  0  0  0  0  0  0  0
   42.7440   35.6630   41.6940 O   0  0  0  0  0  0  0  0  0  0  0  0
   41.8340   35.0270   40.8860 C   0  0  0  0  0  0  0  0  0  0  0  0
   40.5970   35.5300   40.7330 C   0  0  0  0  0  0  0  0  0  0  0  0
   39.4560   35.0160   39.9160 C   0  0  0  0  0  0  0  0  0  0  0  0
   43.8197   36.7246   43.9331 H   0  0  0  0  0  0  0  0  0  0  0  0
   45.3720   32.9733   42.5558 H   0  0  0  0  0  0  0  0  0  0  0  0
   45.5473   33.9779   46.6650 H   0  0  0  0  0  0  0  0  0  0  0  0
   44.6479   36.3320   41.5490 H   0  0  0  0  0  0  0  0  0  0  0  0
   44.3149   34.6064   41.0362 H   0  0  0  0  0  0  0  0  0  0  0  0
   42.1184   34.1025   40.3621 H   0  0  0  0  0  0  0  0  0  0  0  0
   40.3947   36.4561   41.2911 H   0  0  0  0  0  0  0  0  0  0  0  0
   38.6592   34.6570   40.5840 H   0  0  0  0  0  0  0  0  0  0  0  0
   39.0656   35.8252   39.2814 H   0  0  0  0  0  0  0  0  0  0  0  0
   39.8034   34.1874   39.2814 H   0  0  0  0  0  0  0  0  0  0  0  0
  1  6  2  0
  2  3  2  0
  2  1  1  0
  3  4  1  0
  4  5  2  0
  6  5  1  0
  7  2  1  0
  8  7  1  0
  9  8  1  0
 10  9  2  0
 11 10  1  0
  1 12  1  0
  3 13  1  0
  5 14  1  0
  7 15  1  0
  7 16  1  0
  9 17  1  0
 10 18  1  0
 11 19  1  0
 11 20  1  0
 11 21  1  0
M  ISO  8  12  14  13  14  14  14  15   8  16   8  19   8  20   8  21   8
M  END
>  <minimizedAffinity>  (1) 
-3.59622788

>  <minimizedRMSD>  (1) 
0.719285369

$$$$
