
     RDKit          3D

 21 22  0  0  0  0  0  0  0  0999 V2000
   44.2640   35.8600   43.8310 C   0  0  0  0  0  0  0  0  0  0  0  0
   44.2130   35.0620   42.6960 C   0  0  0  0  0  0  0  0  0  0  0  0
   44.7330   33.7840   42.8060 C   0  0  0  0  0  0  0  0  0  0  0  0
   45.2510   33.4040   43.9930 N   0  0  0  0  0  0  0  0  0  0  0  0
   45.2860   34.2020   45.0690 C   0  0  0  0  0  0  0  0  0  0  0  0
   44.7850   35.4760   45.0190 N   0  0  0  0  0  0  0  0  0  0  0  0
   43.6070   35.6600   41.4980 C   0  0  0  0  0  0  0  0  0  0  0  0
   42.4960   34.9790   41.0390 O   0  0  0  0  0  0  0  0  0  0  0  0
   41.2910   35.4450   41.5250 C   0  0  0  0  0  0  0  0  0  0  0  0
   40.3890   36.2870   40.7050 C   0  0  0  0  0  0  0  0  0  0  0  0
   40.0770   34.8520   40.8030 C   0  0  0  0  0  0  0  0  0  0  0  0
   43.8513   36.8771   43.7592 H   0  0  0  0  0  0  0  0  0  0  0  0
   44.7243   33.0957   41.9480 H   0  0  0  0  0  0  0  0  0  0  0  0
   45.7236   33.8284   46.0065 H   0  0  0  0  0  0  0  0  0  0  0  0
   43.3078   36.6910   41.7379 H   0  0  0  0  0  0  0  0  0  0  0  0
   44.3628   35.6173   40.6999 H   0  0  0  0  0  0  0  0  0  0  0  0
   41.6829   35.5610   42.5463 H   0  0  0  0  0  0  0  0  0  0  0  0
   40.7498   36.7003   39.7516 H   0  0  0  0  0  0  0  0  0  0  0  0
   39.8180   37.2069   40.8993 H   0  0  0  0  0  0  0  0  0  0  0  0
   39.2023   34.5147   41.3784 H   0  0  0  0  0  0  0  0  0  0  0  0
   39.9150   34.0348   40.0847 H   0  0  0  0  0  0  0  0  0  0  0  0
  1  6  2  0
  2  3  2  0
  2  1  1  0
  3  4  1  0
  4  5  2  0
  6  5  1  0
  7  2  1  0
  8  7  1  0
  8  9  1  0
 10 11  1  0
 10  9  1  0
 11  9  1  0
  1 12  1  0
  3 13  1  0
  5 14  1  0
  7 15  1  0
  7 16  1  0
  9 17  1  0
 10 18  1  0
 10 19  1  0
 11 20  1  0
 11 21  1  0
M  ISO  8  12  14  13  14  14  14  15   8  16   8  17  13  18  13  19  13
M  ISO  2  20  13  21  13
M  END
>  <minimizedAffinity>  (1) 
-3.63205838

>  <minimizedRMSD>  (1) 
1.47497654

$$$$
