
     RDKit          3D

 27 27  0  0  0  0  0  0  0  0999 V2000
   47.6670   33.9340   42.4610 C   0  0  0  0  0  0  0  0  0  0  0  0
   45.9540   35.5610   42.8590 C   0  0  0  0  0  0  0  0  0  0  0  0
   46.5920   34.4080   43.3460 C   0  0  0  0  0  0  0  0  0  0  0  0
   46.1570   33.8940   44.5400 C   0  0  0  0  0  0  0  0  0  0  0  0
   45.1550   34.5300   45.1550 N   0  0  0  0  0  0  0  0  0  0  0  0
   44.5550   35.6200   44.6890 C   0  0  0  0  0  0  0  0  0  0  0  0
   44.9380   36.1980   43.4900 N   0  0  0  0  0  0  0  0  0  0  0  0
   47.3680   34.0020   41.1080 O   0  0  0  0  0  0  0  0  0  0  0  0
   48.1530   34.5930   40.1360 C   0  0  0  0  0  0  0  0  0  0  0  0
   47.9440   34.1310   38.8780 C   0  0  0  0  0  0  0  0  0  0  0  0
   48.5890   34.6030   37.5900 C   0  0  0  0  0  0  0  0  0  0  0  0
   48.9550   32.5190   36.2450 C   0  0  0  0  0  0  0  0  0  0  0  0
   47.8000   32.5320   35.7480 O   0  0  0  0  0  0  0  0  0  0  0  0
   49.4270   33.4990   37.1610 N   0  0  0  0  0  0  0  0  0  0  0  0
   48.5610   34.5473   42.6469 H   0  0  0  0  0  0  0  0  0  0  0  0
   47.8200   32.8702   42.6953 H   0  0  0  0  0  0  0  0  0  0  0  0
   46.3026   35.9745   41.9011 H   0  0  0  0  0  0  0  0  0  0  0  0
   46.6147   32.9933   44.9751 H   0  0  0  0  0  0  0  0  0  0  0  0
   43.7366   36.0731   45.2678 H   0  0  0  0  0  0  0  0  0  0  0  0
   47.9492   35.6739   40.1419 H   0  0  0  0  0  0  0  0  0  0  0  0
   49.1952   34.3467   40.3874 H   0  0  0  0  0  0  0  0  0  0  0  0
   48.1833   33.0587   38.9322 H   0  0  0  0  0  0  0  0  0  0  0  0
   46.9354   34.5395   38.7172 H   0  0  0  0  0  0  0  0  0  0  0  0
   47.8226   34.8233   36.8323 H   0  0  0  0  0  0  0  0  0  0  0  0
   49.1668   35.5280   37.7330 H   0  0  0  0  0  0  0  0  0  0  0  0
   49.6369   31.7058   35.9557 H   0  0  0  0  0  0  0  0  0  0  0  0
   50.3862   33.4233   37.5285 H   0  0  0  0  0  0  0  0  0  0  0  0
  1  3  1  0
  2  3  2  0
  2  7  1  0
  3  4  1  0
  4  5  2  0
  6  5  1  0
  7  6  2  0
  8  1  1  0
  9  8  1  0
 10  9  1  0
 11 10  1  0
 12 14  1  0
 13 12  2  0
 14 11  1  0
  1 15  1  0
  1 16  1  0
  2 17  1  0
  4 18  1  0
  6 19  1  0
  9 20  1  0
  9 21  1  0
 10 22  1  0
 10 23  1  0
 11 24  1  0
 11 25  1  0
 12 26  1  0
 14 27  1  0
M  ISO  8  15   8  16   8  17  14  18  14  19  14  20   8  21   8  22   8
M  ISO  4  23   8  24   8  25   8  26   6
M  END
>  <minimizedAffinity>  (1) 
-3.97258854

>  <minimizedRMSD>  (1) 
6.20530939

$$$$
