
     RDKit          3D

 28 29  0  0  0  0  0  0  0  0999 V2000
   44.5350   35.1140   41.7700 C   0  0  0  0  0  0  0  0  0  0  0  0
   44.4430   35.6290   44.1060 C   0  0  0  0  0  0  0  0  0  0  0  0
   44.8330   34.6950   43.1340 C   0  0  0  0  0  0  0  0  0  0  0  0
   45.4240   33.5420   43.5800 C   0  0  0  0  0  0  0  0  0  0  0  0
   45.5900   33.3780   44.9040 N   0  0  0  0  0  0  0  0  0  0  0  0
   45.2110   34.2780   45.8120 C   0  0  0  0  0  0  0  0  0  0  0  0
   44.6080   35.4720   45.4480 N   0  0  0  0  0  0  0  0  0  0  0  0
   43.3210   35.7600   41.6020 O   0  0  0  0  0  0  0  0  0  0  0  0
   42.3030   35.3430   40.8000 C   0  0  0  0  0  0  0  0  0  0  0  0
   41.0730   35.8300   40.9500 C   0  0  0  0  0  0  0  0  0  0  0  0
   39.8100   35.5860   40.2170 C   0  0  0  0  0  0  0  0  0  0  0  0
   40.0450   34.5170   39.1850 C   0  0  0  0  0  0  0  0  0  0  0  0
   40.0850   34.8540   37.7160 C   0  0  0  0  0  0  0  0  0  0  0  0
   38.9570   34.0750   38.2810 C   0  0  0  0  0  0  0  0  0  0  0  0
   45.3321   35.7976   41.4424 H   0  0  0  0  0  0  0  0  0  0  0  0
   44.4741   34.1913   41.1743 H   0  0  0  0  0  0  0  0  0  0  0  0
   43.9682   36.5579   43.7572 H   0  0  0  0  0  0  0  0  0  0  0  0
   45.7549   32.7686   42.8712 H   0  0  0  0  0  0  0  0  0  0  0  0
   45.3813   34.0674   46.8781 H   0  0  0  0  0  0  0  0  0  0  0  0
   42.4992   34.5944   40.0183 H   0  0  0  0  0  0  0  0  0  0  0  0
   40.9769   36.5507   41.7755 H   0  0  0  0  0  0  0  0  0  0  0  0
   39.0323   35.2551   40.9211 H   0  0  0  0  0  0  0  0  0  0  0  0
   39.4791   36.5127   39.7254 H   0  0  0  0  0  0  0  0  0  0  0  0
   40.7242   34.0171   39.8913 H   0  0  0  0  0  0  0  0  0  0  0  0
   40.8181   34.3650   37.0576 H   0  0  0  0  0  0  0  0  0  0  0  0
   40.1787   35.7796   37.1290 H   0  0  0  0  0  0  0  0  0  0  0  0
   37.9605   34.5341   38.3594 H   0  0  0  0  0  0  0  0  0  0  0  0
   38.4962   33.1042   38.0461 H   0  0  0  0  0  0  0  0  0  0  0  0
  1  3  1  0
  2  7  2  0
  3  4  2  0
  3  2  1  0
  4  5  1  0
  5  6  2  0
  7  6  1  0
  8  1  1  0
  9 10  2  0
  9  8  1  0
 11 10  1  0
 12 11  1  0
 13 14  1  0
 13 12  1  0
 14 12  1  0
  1 15  1  0
  1 16  1  0
  2 17  1  0
  4 18  1  0
  6 19  1  0
  9 20  1  0
 10 21  1  0
 11 22  1  0
 11 23  1  0
 12 24  1  0
 13 25  1  0
 13 26  1  0
 14 27  1  0
 14 28  1  0
M  ISO  8  15   8  16   8  17  14  18  14  19  14  22   8  23   8  24  13
M  ISO  4  25  13  26  13  27  13  28  13
M  END
>  <minimizedAffinity>  (1) 
-4.48024511

>  <minimizedRMSD>  (1) 
0.776211679

$$$$
