
     RDKit          3D

 22 22  0  0  0  0  0  0  0  0999 V2000
   44.0580   35.4910   41.7670 C   0  0  0  0  0  0  0  0  0  0  0  0
   44.3040   35.7730   44.1570 C   0  0  0  0  0  0  0  0  0  0  0  0
   44.5270   34.9640   43.0610 C   0  0  0  0  0  0  0  0  0  0  0  0
   45.1610   33.7400   43.2630 C   0  0  0  0  0  0  0  0  0  0  0  0
   45.5130   33.4300   44.5230 N   0  0  0  0  0  0  0  0  0  0  0  0
   45.2870   34.2270   45.5630 C   0  0  0  0  0  0  0  0  0  0  0  0
   44.6710   35.4390   45.4360 N   0  0  0  0  0  0  0  0  0  0  0  0
   42.6650   35.5970   41.7130 O   0  0  0  0  0  0  0  0  0  0  0  0
   41.8790   35.1700   40.6900 C   0  0  0  0  0  0  0  0  0  0  0  0
   40.5440   35.3490   40.7610 C   0  0  0  0  0  0  0  0  0  0  0  0
   39.5280   34.9520   39.7180 C   0  0  0  0  0  0  0  0  0  0  0  0
   38.6520   33.4460   40.1510 S   0  0  0  0  0  0  0  0  0  0  0  0
   44.4954   36.4882   41.6113 H   0  0  0  0  0  0  0  0  0  0  0  0
   44.3736   34.7881   40.9820 H   0  0  0  0  0  0  0  0  0  0  0  0
   43.8041   36.7395   43.9959 H   0  0  0  0  0  0  0  0  0  0  0  0
   45.3651   33.0556   42.4264 H   0  0  0  0  0  0  0  0  0  0  0  0
   45.6080   33.8979   46.5623 H   0  0  0  0  0  0  0  0  0  0  0  0
   42.3275   34.6827   39.8117 H   0  0  0  0  0  0  0  0  0  0  0  0
   40.1571   35.8327   41.6700 H   0  0  0  0  0  0  0  0  0  0  0  0
   40.0474   34.7954   38.7610 H   0  0  0  0  0  0  0  0  0  0  0  0
   38.7868   35.7617   39.6477 H   0  0  0  0  0  0  0  0  0  0  0  0
   38.5858   33.3322   41.5147 H   0  0  0  0  0  0  0  0  0  0  0  0
  1  3  1  0
  2  7  2  0
  3  4  2  0
  3  2  1  0
  4  5  1  0
  5  6  2  0
  7  6  1  0
  8  1  1  0
  9 10  2  0
  9  8  1  0
 11 12  1  0
 11 10  1  0
  1 13  1  0
  1 14  1  0
  2 15  1  0
  4 16  1  0
  6 17  1  0
  9 18  1  0
 10 19  1  0
 11 20  1  0
 11 21  1  0
 12 22  1  0
M  ISO  8  13   8  14   8  15  14  16  14  17  14  20   8  21   8  22  11
M  END
>  <minimizedAffinity>  (1) 
-3.62233424

>  <minimizedRMSD>  (1) 
0.425885826

$$$$
