
     RDKit          3D

 37 38  0  0  0  0  0  0  0  0999 V2000
   45.4600   35.6010   43.1210 C   0  0  0  0  0  0  0  0  0  0  0  0
   43.8060   35.1120   41.2670 C   0  0  0  0  0  0  0  0  0  0  0  0
   44.1460   35.7740   42.3860 C   0  0  0  0  0  0  0  0  0  0  0  0
   42.5550   35.4020   40.7330 O   0  0  0  0  0  0  0  0  0  0  0  0
   41.3870   35.5730   41.4350 C   0  0  0  0  0  0  0  0  0  0  0  0
   40.2070   33.4920   41.6600 C   0  0  0  0  0  0  0  0  0  0  0  0
   40.2760   34.7120   40.9570 C   0  0  0  0  0  0  0  0  0  0  0  0
   39.3530   34.9440   39.9810 C   0  0  0  0  0  0  0  0  0  0  0  0
   38.4430   33.9970   39.7550 N   0  0  0  0  0  0  0  0  0  0  0  0
   38.3650   32.8330   40.4180 C   0  0  0  0  0  0  0  0  0  0  0  0
   39.2690   32.5250   41.4230 N   0  0  0  0  0  0  0  0  0  0  0  0
   45.1510   35.1630   44.3960 O   0  0  0  0  0  0  0  0  0  0  0  0
   45.2210   32.5690   43.8140 O   0  0  0  0  0  0  0  0  0  0  0  0
   45.8260   33.6340   44.6820 P   0  0  1  0  0  0  0  0  0  0  0  0
   47.4920   33.6670   44.3800 O   0  0  0  0  0  0  0  0  0  0  0  0
   45.6070   33.2500   46.3230 O   0  0  0  0  0  0  0  0  0  0  0  0
   45.7640   32.9390   49.0810 F   0  0  0  0  0  0  0  0  0  0  0  0
   46.4080   32.0840   48.2450 C   0  0  0  0  0  0  0  0  0  0  0  0
   46.3520   32.2070   46.8560 C   0  0  0  0  0  0  0  0  0  0  0  0
   47.0580   31.2600   46.1430 C   0  0  0  0  0  0  0  0  0  0  0  0
   47.7710   30.2570   46.7510 C   0  0  0  0  0  0  0  0  0  0  0  0
   47.8200   30.1440   48.1160 C   0  0  0  0  0  0  0  0  0  0  0  0
   47.1300   31.0670   48.8740 C   0  0  0  0  0  0  0  0  0  0  0  0
   45.9956   36.5606   43.1698 H   0  0  0  0  0  0  0  0  0  0  0  0
   46.1096   34.8801   42.6030 H   0  0  0  0  0  0  0  0  0  0  0  0
   44.4807   34.3803   40.7987 H   0  0  0  0  0  0  0  0  0  0  0  0
   43.4202   36.4912   42.7970 H   0  0  0  0  0  0  0  0  0  0  0  0
   41.5790   35.3382   42.4924 H   0  0  0  0  0  0  0  0  0  0  0  0
   41.0724   36.6169   41.2893 H   0  0  0  0  0  0  0  0  0  0  0  0
   40.9528   33.3064   42.4470 H   0  0  0  0  0  0  0  0  0  0  0  0
   39.3591   35.8787   39.4012 H   0  0  0  0  0  0  0  0  0  0  0  0
   37.5735   32.1138   40.1608 H   0  0  0  0  0  0  0  0  0  0  0  0
   47.9831   33.6767   45.2396 H   0  0  0  0  0  0  0  0  0  0  0  0
   47.0491   31.3108   45.0442 H   0  0  0  0  0  0  0  0  0  0  0  0
   48.3140   29.5292   46.1302 H   0  0  0  0  0  0  0  0  0  0  0  0
   48.3950   29.3377   48.5949 H   0  0  0  0  0  0  0  0  0  0  0  0
   47.1483   31.0023   49.9719 H   0  0  0  0  0  0  0  0  0  0  0  0
  1 12  1  0
  2  3  2  0
  3  1  1  0
  4  2  1  0
  4  5  1  0
  7  5  1  0
  7  6  2  0
  8  7  1  0
  9  8  2  0
  9 10  1  0
 10 11  2  0
 11  6  1  0
 12 14  1  0
 14 13  2  0
 14 16  1  0
 15 14  1  0
 16 19  1  0
 18 23  2  0
 18 17  1  0
 19 18  1  0
 20 21  1  0
 20 19  2  0
 21 22  2  0
 22 23  1  0
  1 24  1  0
  1 25  1  0
  2 26  1  0
  3 27  1  0
  5 28  1  0
  5 29  1  0
  6 30  1  0
  8 31  1  0
 10 32  1  0
 15 33  1  0
 20 34  1  0
 21 35  1  0
 22 36  1  0
 23 37  1  0
M  ISO  8  24   8  25   8  28   8  29   8  30  14  31  14  32  14  33   3
M  ISO  4  34  14  35  14  36  14  37  14
M  END
>  <minimizedAffinity>  (1) 
-5.5629282

>  <minimizedRMSD>  (1) 
1.75655544

$$$$
