
     RDKit          3D

 29 29  0  0  0  0  0  0  0  0999 V2000
   43.7300   35.1130   41.0700 C   0  0  0  0  0  0  0  0  0  0  0  0
   44.1760   35.7400   42.1660 C   0  0  0  0  0  0  0  0  0  0  0  0
   45.5330   35.5190   42.8150 C   0  0  0  0  0  0  0  0  0  0  0  0
   45.3060   35.3250   44.1560 O   0  0  0  0  0  0  0  0  0  0  0  0
   45.0990   32.6960   43.8610 O   0  0  0  0  0  0  0  0  0  0  0  0
   45.7710   33.7730   44.6560 P   0  0  1  0  0  0  0  0  0  0  0  0
   47.4450   33.5950   44.5040 O   0  0  0  0  0  0  0  0  0  0  0  0
   45.3980   33.6000   46.3050 O   0  0  0  0  0  0  0  0  0  0  0  0
   45.8950   32.5510   47.0400 C   0  0  0  0  0  0  0  0  0  0  0  0
   47.1390   32.6790   47.2700 O   0  0  0  0  0  0  0  0  0  0  0  0
   42.4550   35.4560   40.6370 O   0  0  0  0  0  0  0  0  0  0  0  0
   41.3110   35.5800   41.3860 C   0  0  0  0  0  0  0  0  0  0  0  0
   40.2000   33.4740   41.6810 C   0  0  0  0  0  0  0  0  0  0  0  0
   40.2160   34.6770   40.9450 C   0  0  0  0  0  0  0  0  0  0  0  0
   39.2730   34.8530   39.9770 C   0  0  0  0  0  0  0  0  0  0  0  0
   38.3970   33.8570   39.7990 N   0  0  0  0  0  0  0  0  0  0  0  0
   38.3650   32.7220   40.4790 C   0  0  0  0  0  0  0  0  0  0  0  0
   39.2960   32.4660   41.4860 N   0  0  0  0  0  0  0  0  0  0  0  0
   44.3403   34.3664   40.5408 H   0  0  0  0  0  0  0  0  0  0  0  0
   43.5056   36.4752   42.6352 H   0  0  0  0  0  0  0  0  0  0  0  0
   46.0201   34.6331   42.3815 H   0  0  0  0  0  0  0  0  0  0  0  0
   46.1950   36.3815   42.6480 H   0  0  0  0  0  0  0  0  0  0  0  0
   47.8553   33.5514   45.4039 H   0  0  0  0  0  0  0  0  0  0  0  0
   45.2889   31.7016   47.3880 H   0  0  0  0  0  0  0  0  0  0  0  0
   41.5533   35.3484   42.4337 H   0  0  0  0  0  0  0  0  0  0  0  0
   40.9512   36.6119   41.2608 H   0  0  0  0  0  0  0  0  0  0  0  0
   40.9630   33.3376   42.4615 H   0  0  0  0  0  0  0  0  0  0  0  0
   39.2337   35.7701   39.3708 H   0  0  0  0  0  0  0  0  0  0  0  0
   37.5950   31.9714   40.2474 H   0  0  0  0  0  0  0  0  0  0  0  0
  1  2  2  0
  2  3  1  0
  3  4  1  0
  4  6  1  0
  6  5  2  0
  6  8  1  0
  7  6  1  0
  8  9  1  0
  9 10  2  0
 11  1  1  0
 11 12  1  0
 14 12  1  0
 14 13  2  0
 15 14  1  0
 16 15  2  0
 16 17  1  0
 17 18  2  0
 18 13  1  0
  1 19  1  0
  2 20  1  0
  3 21  1  0
  3 22  1  0
  7 23  1  0
  9 24  1  0
 12 25  1  0
 12 26  1  0
 13 27  1  0
 15 28  1  0
 17 29  1  0
M  ISO  8  21   8  22   8  23   3  24   6  25   8  26   8  27  14  28  14
M  ISO  1  29  14
M  END
>  <minimizedAffinity>  (1) 
-4.52515268

>  <minimizedRMSD>  (1) 
0.825896144

$$$$
