
     RDKit          3D

 31 31  0  0  0  0  0  0  0  0999 V2000
   43.7510   35.6540   41.3170 C   0  0  0  0  0  0  0  0  0  0  0  0
   43.9570   35.3010   42.5930 C   0  0  0  0  0  0  0  0  0  0  0  0
   45.2230   35.6110   43.3800 C   0  0  0  0  0  0  0  0  0  0  0  0
   45.0800   34.9920   44.6100 O   0  0  0  0  0  0  0  0  0  0  0  0
   45.3830   32.4240   44.0000 O   0  0  0  0  0  0  0  0  0  0  0  0
   46.0150   33.5840   44.7150 P   0  0  1  0  0  0  0  0  0  0  0  0
   47.5450   33.8750   44.0430 O   0  0  0  0  0  0  0  0  0  0  0  0
   46.2500   33.2150   46.3560 O   0  0  0  0  0  0  0  0  0  0  0  0
   45.2270   33.2610   47.2940 C   0  0  0  0  0  0  0  0  0  0  0  0
   45.1690   32.2690   48.0800 O   0  0  0  0  0  0  0  0  0  0  0  0
   44.2850   34.3200   47.4090 N   0  0  0  0  0  0  0  0  0  0  0  0
   42.5380   35.2890   40.7540 O   0  0  0  0  0  0  0  0  0  0  0  0
   41.2880   35.6710   41.1890 C   0  0  0  0  0  0  0  0  0  0  0  0
   40.2610   33.5540   41.6160 C   0  0  0  0  0  0  0  0  0  0  0  0
   40.2090   34.7230   40.8400 C   0  0  0  0  0  0  0  0  0  0  0  0
   39.2180   34.8390   39.9230 C   0  0  0  0  0  0  0  0  0  0  0  0
   38.3470   33.8230   39.8170 N   0  0  0  0  0  0  0  0  0  0  0  0
   38.3890   32.7030   40.5550 C   0  0  0  0  0  0  0  0  0  0  0  0
   39.3840   32.5280   41.5130 N   0  0  0  0  0  0  0  0  0  0  0  0
   44.5089   36.2075   40.7431 H   0  0  0  0  0  0  0  0  0  0  0  0
   43.1564   34.7493   43.1074 H   0  0  0  0  0  0  0  0  0  0  0  0
   46.1043   35.2143   42.8546 H   0  0  0  0  0  0  0  0  0  0  0  0
   45.3663   36.6957   43.4937 H   0  0  0  0  0  0  0  0  0  0  0  0
   48.2059   34.0007   44.7693 H   0  0  0  0  0  0  0  0  0  0  0  0
   43.5530   34.2818   48.1326 H   0  0  0  0  0  0  0  0  0  0  0  0
   44.3347   35.1253   46.7687 H   0  0  0  0  0  0  0  0  0  0  0  0
   41.3192   35.7701   42.2841 H   0  0  0  0  0  0  0  0  0  0  0  0
   41.0527   36.6183   40.6818 H   0  0  0  0  0  0  0  0  0  0  0  0
   41.0687   33.4660   42.3575 H   0  0  0  0  0  0  0  0  0  0  0  0
   39.1305   35.7333   39.2885 H   0  0  0  0  0  0  0  0  0  0  0  0
   37.6330   31.9187   40.4022 H   0  0  0  0  0  0  0  0  0  0  0  0
  1  2  2  0
  2  3  1  0
  3  4  1  0
  4  6  1  0
  6  5  2  0
  6  8  1  0
  7  6  1  0
  8  9  1  0
  9 11  1  0
  9 10  2  0
 12 13  1  0
 12  1  1  0
 15 13  1  0
 15 14  2  0
 16 15  1  0
 17 16  2  0
 17 18  1  0
 18 19  2  0
 19 14  1  0
  1 20  1  0
  2 21  1  0
  3 22  1  0
  3 23  1  0
  7 24  1  0
 11 25  1  0
 11 26  1  0
 13 27  1  0
 13 28  1  0
 14 29  1  0
 16 30  1  0
 18 31  1  0
M  ISO  8  22   8  23   8  24   3  27   8  28   8  29  14  30  14  31  14
M  END
>  <minimizedAffinity>  (1) 
-5.11772537

>  <minimizedRMSD>  (1) 
0.736597359

$$$$
