
     RDKit          3D

 38 39  0  0  1  0  0  0  0  0999 V2000
   45.1710   35.6780   43.4970 C   0  0  0  0  0  0  0  0  0  0  0  0
   43.7490   35.6440   41.3810 C   0  0  0  0  0  0  0  0  0  0  0  0
   43.9300   35.3560   42.6760 C   0  0  0  0  0  0  0  0  0  0  0  0
   42.5420   35.2550   40.8230 O   0  0  0  0  0  0  0  0  0  0  0  0
   41.2850   35.6840   41.1820 C   0  0  0  0  0  0  0  0  0  0  0  0
   40.2740   33.5520   41.6310 C   0  0  0  0  0  0  0  0  0  0  0  0
   40.2080   34.7190   40.8470 C   0  0  0  0  0  0  0  0  0  0  0  0
   39.2080   34.8170   39.9260 C   0  0  0  0  0  0  0  0  0  0  0  0
   38.3540   33.8000   39.8260 N   0  0  0  0  0  0  0  0  0  0  0  0
   38.4140   32.6870   40.5720 C   0  0  0  0  0  0  0  0  0  0  0  0
   39.4050   32.5050   41.5370 N   0  0  0  0  0  0  0  0  0  0  0  0
   45.0600   35.0270   44.6890 O   0  0  0  0  0  0  0  0  0  0  0  0
   45.4210   32.4450   44.1880 O   0  0  0  0  0  0  0  0  0  0  0  0
   46.0640   33.6680   44.7800 P   0  0  1  0  0  0  0  0  0  0  0  0
   47.5020   33.9610   43.9190 O   0  0  0  0  0  0  0  0  0  0  0  0
   46.4720   33.3520   46.3730 O   0  0  0  0  0  0  0  0  0  0  0  0
   46.0930   32.1480   46.8770 C   0  0  1  0  0  0  0  0  0  0  0  0
   47.1680   31.2300   47.3460 C   0  0  0  0  0  0  0  0  0  0  0  0
   47.1230   31.3660   48.8470 C   0  0  0  0  0  0  0  0  0  0  0  0
   45.9200   31.9270   49.1940 O   0  0  0  0  0  0  0  0  0  0  0  0
   45.1880   32.2220   48.0750 C   0  0  0  0  0  0  0  0  0  0  0  0
   45.2364   36.7628   43.6673 H   0  0  0  0  0  0  0  0  0  0  0  0
   46.0786   35.3561   42.9654 H   0  0  0  0  0  0  0  0  0  0  0  0
   44.5188   36.1626   40.7907 H   0  0  0  0  0  0  0  0  0  0  0  0
   43.1077   34.8401   43.1935 H   0  0  0  0  0  0  0  0  0  0  0  0
   41.2732   35.8545   42.2686 H   0  0  0  0  0  0  0  0  0  0  0  0
   41.0832   36.6025   40.6114 H   0  0  0  0  0  0  0  0  0  0  0  0
   41.0837   33.4792   42.3720 H   0  0  0  0  0  0  0  0  0  0  0  0
   39.1096   35.7066   39.2865 H   0  0  0  0  0  0  0  0  0  0  0  0
   37.6630   31.8979   40.4191 H   0  0  0  0  0  0  0  0  0  0  0  0
   48.2437   34.1121   44.5571 H   0  0  0  0  0  0  0  0  0  0  0  0
   45.6057   31.7583   45.9711 H   0  0  0  0  0  0  0  0  0  0  0  0
   46.9609   30.1941   47.0394 H   0  0  0  0  0  0  0  0  0  0  0  0
   48.1537   31.4766   46.9246 H   0  0  0  0  0  0  0  0  0  0  0  0
   47.2189   30.3743   49.3131 H   0  0  0  0  0  0  0  0  0  0  0  0
   47.9511   32.0013   49.1944 H   0  0  0  0  0  0  0  0  0  0  0  0
   44.7704   33.2359   48.1619 H   0  0  0  0  0  0  0  0  0  0  0  0
   44.3614   31.5044   47.9666 H   0  0  0  0  0  0  0  0  0  0  0  0
  1 12  1  0
  2  3  2  0
  3  1  1  0
  4  5  1  0
  4  2  1  0
  7  5  1  0
  7  6  2  0
  8  7  1  0
  9  8  2  0
  9 10  1  0
 10 11  2  0
 11  6  1  0
 12 14  1  0
 14 13  2  0
 14 16  1  0
 15 14  1  0
 17 16  1  0
 17 18  1  0
 17 21  1  0
 18 19  1  0
 19 20  1  0
 21 20  1  0
  1 22  1  0
  1 23  1  0
  2 24  1  0
  3 25  1  0
  5 26  1  0
  5 27  1  0
  6 28  1  0
  8 29  1  0
 10 30  1  0
 15 31  1  0
 17 32  1  6
 18 33  1  0
 18 34  1  0
 19 35  1  0
 19 36  1  0
 21 37  1  0
 21 38  1  0
M  ISO  8  22   8  23   8  26   8  27   8  28  14  29  14  30  14  31   3
M  ISO  7  32  13  33  13  34  13  35  13  36  13  37  13  38  13
M  END
>  <minimizedAffinity>  (1) 
-5.16178226

>  <minimizedRMSD>  (1) 
1.39555156

$$$$
