
     RDKit          3D

 33 33  0  0  0  0  0  0  0  0999 V2000
   43.9210   35.2250   41.1810 C   0  0  0  0  0  0  0  0  0  0  0  0
   43.9410   35.6110   42.4700 C   0  0  0  0  0  0  0  0  0  0  0  0
   45.1920   35.7370   43.3260 C   0  0  0  0  0  0  0  0  0  0  0  0
   44.9260   35.1160   44.5170 O   0  0  0  0  0  0  0  0  0  0  0  0
   45.1950   32.5610   43.8390 O   0  0  0  0  0  0  0  0  0  0  0  0
   45.7850   33.6630   44.6680 P   0  0  1  0  0  0  0  0  0  0  0  0
   47.3940   33.8820   44.1730 O   0  0  0  0  0  0  0  0  0  0  0  0
   45.8230   33.2220   46.3050 O   0  0  0  0  0  0  0  0  0  0  0  0
   46.8640   32.3320   46.5620 C   0  0  0  0  0  0  0  0  0  0  0  0
   47.3700   32.3770   47.9720 C   0  0  0  0  0  0  0  0  0  0  0  0
   42.6760   35.1710   40.5670 O   0  0  0  0  0  0  0  0  0  0  0  0
   41.4800   35.6100   41.0960 C   0  0  0  0  0  0  0  0  0  0  0  0
   40.3550   33.5320   41.5740 C   0  0  0  0  0  0  0  0  0  0  0  0
   40.3400   34.7090   40.7970 C   0  0  0  0  0  0  0  0  0  0  0  0
   39.3170   34.8580   39.9070 C   0  0  0  0  0  0  0  0  0  0  0  0
   38.4150   33.8840   39.8420 N   0  0  0  0  0  0  0  0  0  0  0  0
   38.4270   32.7750   40.5740 C   0  0  0  0  0  0  0  0  0  0  0  0
   39.4410   32.5480   41.5060 N   0  0  0  0  0  0  0  0  0  0  0  0
   44.8435   34.9654   40.6410 H   0  0  0  0  0  0  0  0  0  0  0  0
   42.9774   35.8544   42.9414 H   0  0  0  0  0  0  0  0  0  0  0  0
   46.0420   35.2488   42.8269 H   0  0  0  0  0  0  0  0  0  0  0  0
   45.4549   36.7934   43.4841 H   0  0  0  0  0  0  0  0  0  0  0  0
   47.9764   33.9613   44.9696 H   0  0  0  0  0  0  0  0  0  0  0  0
   46.5065   31.3125   46.3551 H   0  0  0  0  0  0  0  0  0  0  0  0
   47.7022   32.6266   45.9134 H   0  0  0  0  0  0  0  0  0  0  0  0
   46.5219   32.3016   48.6685 H   0  0  0  0  0  0  0  0  0  0  0  0
   48.0593   31.5366   48.1412 H   0  0  0  0  0  0  0  0  0  0  0  0
   47.9002   33.3258   48.1412 H   0  0  0  0  0  0  0  0  0  0  0  0
   41.5881   35.6856   42.1881 H   0  0  0  0  0  0  0  0  0  0  0  0
   41.2566   36.5826   40.6332 H   0  0  0  0  0  0  0  0  0  0  0  0
   41.1792   33.4093   42.2921 H   0  0  0  0  0  0  0  0  0  0  0  0
   39.2415   35.7500   39.2677 H   0  0  0  0  0  0  0  0  0  0  0  0
   37.6298   32.0283   40.4441 H   0  0  0  0  0  0  0  0  0  0  0  0
  1  2  2  0
  2  3  1  0
  3  4  1  0
  4  6  1  0
  6  5  2  0
  6  8  1  0
  7  6  1  0
  8  9  1  0
  9 10  1  0
 11 12  1  0
 11  1  1  0
 14 12  1  0
 14 13  2  0
 15 14  1  0
 16 15  2  0
 16 17  1  0
 17 18  2  0
 18 13  1  0
  1 19  1  0
  2 20  1  0
  3 21  1  0
  3 22  1  0
  7 23  1  0
  9 24  1  0
  9 25  1  0
 10 26  1  0
 10 27  1  0
 10 28  1  0
 12 29  1  0
 12 30  1  0
 13 31  1  0
 15 32  1  0
 17 33  1  0
M  ISO  8  21   8  22   8  23   3  24   8  25   8  26   8  27   8  28   8
M  ISO  5  29   8  30   8  31  14  32  14  33  14
M  END
>  <minimizedAffinity>  (1) 
-4.51938581

>  <minimizedRMSD>  (1) 
0.639950395

$$$$
