
     RDKit          3D

 34 35  0  0  0  0  0  0  0  0999 V2000
   43.8760   35.2300   41.1930 C   0  0  0  0  0  0  0  0  0  0  0  0
   43.9520   35.5780   42.4850 C   0  0  0  0  0  0  0  0  0  0  0  0
   45.2170   35.5410   43.3180 C   0  0  0  0  0  0  0  0  0  0  0  0
   45.0020   34.6470   44.3460 O   0  0  0  0  0  0  0  0  0  0  0  0
   45.7070   32.4950   42.9540 O   0  0  0  0  0  0  0  0  0  0  0  0
   46.0150   33.2940   44.1860 P   0  0  1  0  0  0  0  0  0  0  0  0
   47.6350   33.7820   44.0960 O   0  0  0  0  0  0  0  0  0  0  0  0
   45.8420   32.3290   45.5730 O   0  0  0  0  0  0  0  0  0  0  0  0
   46.2190   32.9820   46.7170 C   0  0  0  0  0  0  0  0  0  0  0  0
   47.0610   32.3370   47.7530 C   0  0  0  0  0  0  0  0  0  0  0  0
   45.5700   32.4240   47.9820 C   0  0  0  0  0  0  0  0  0  0  0  0
   42.6240   35.3310   40.6000 O   0  0  0  0  0  0  0  0  0  0  0  0
   41.4430   35.6480   41.2270 C   0  0  0  0  0  0  0  0  0  0  0  0
   40.2760   33.5600   41.5860 C   0  0  0  0  0  0  0  0  0  0  0  0
   40.3120   34.7600   40.8430 C   0  0  0  0  0  0  0  0  0  0  0  0
   39.3420   34.9410   39.9110 C   0  0  0  0  0  0  0  0  0  0  0  0
   38.4360   33.9730   39.7700 N   0  0  0  0  0  0  0  0  0  0  0  0
   38.4000   32.8490   40.4630 C   0  0  0  0  0  0  0  0  0  0  0  0
   39.3590   32.5870   41.4400 N   0  0  0  0  0  0  0  0  0  0  0  0
   44.7569   34.8833   40.6328 H   0  0  0  0  0  0  0  0  0  0  0  0
   43.0278   35.9154   42.9769 H   0  0  0  0  0  0  0  0  0  0  0  0
   46.0650   35.2091   42.7010 H   0  0  0  0  0  0  0  0  0  0  0  0
   45.4544   36.5401   43.7124 H   0  0  0  0  0  0  0  0  0  0  0  0
   47.9980   33.8913   45.0105 H   0  0  0  0  0  0  0  0  0  0  0  0
   46.3187   33.9451   46.1950 H   0  0  0  0  0  0  0  0  0  0  0  0
   47.5263   31.3613   47.5491 H   0  0  0  0  0  0  0  0  0  0  0  0
   47.9473   32.6458   48.3267 H   0  0  0  0  0  0  0  0  0  0  0  0
   45.1651   33.1058   48.7443 H   0  0  0  0  0  0  0  0  0  0  0  0
   44.7646   31.7082   48.2033 H   0  0  0  0  0  0  0  0  0  0  0  0
   41.5936   35.5703   42.3139 H   0  0  0  0  0  0  0  0  0  0  0  0
   41.1743   36.6683   40.9159 H   0  0  0  0  0  0  0  0  0  0  0  0
   41.0592   33.4090   42.3435 H   0  0  0  0  0  0  0  0  0  0  0  0
   39.3048   35.8518   39.2953 H   0  0  0  0  0  0  0  0  0  0  0  0
   37.6061   32.1132   40.2673 H   0  0  0  0  0  0  0  0  0  0  0  0
  1  2  2  0
  2  3  1  0
  3  4  1  0
  6  5  2  0
  6  4  1  0
  6  8  1  0
  7  6  1  0
  8  9  1  0
  9 10  1  0
  9 11  1  0
 10 11  1  0
 12  1  1  0
 12 13  1  0
 15 13  1  0
 15 14  2  0
 16 15  1  0
 17 16  2  0
 17 18  1  0
 18 19  2  0
 19 14  1  0
  1 20  1  0
  2 21  1  0
  3 22  1  0
  3 23  1  0
  7 24  1  0
  9 25  1  0
 10 26  1  0
 10 27  1  0
 11 28  1  0
 11 29  1  0
 13 30  1  0
 13 31  1  0
 14 32  1  0
 16 33  1  0
 18 34  1  0
M  ISO  8  22   8  23   8  24   3  25  13  26  13  27  13  28  13  29  13
M  ISO  5  30   8  31   8  32  14  33  14  34  14
M  END
>  <minimizedAffinity>  (1) 
-4.60771084

>  <minimizedRMSD>  (1) 
1.21076381

$$$$
