
     RDKit          3D

 44 46  0  0  0  0  0  0  0  0999 V2000
   42.8010   35.4520   40.6760 O   0  0  0  0  0  0  0  0  0  0  0  0
   41.5620   35.6620   41.2000 C   0  0  0  0  0  0  0  0  0  0  0  0
   41.0430   33.2700   41.2970 C   0  0  0  0  0  0  0  0  0  0  0  0
   40.6070   34.5480   40.8710 C   0  0  0  0  0  0  0  0  0  0  0  0
   39.4090   34.6180   40.2330 C   0  0  0  0  0  0  0  0  0  0  0  0
   38.7420   33.4860   40.0590 N   0  0  0  0  0  0  0  0  0  0  0  0
   39.1420   32.2940   40.4540 C   0  0  0  0  0  0  0  0  0  0  0  0
   40.3570   32.1390   41.1140 N   0  0  0  0  0  0  0  0  0  0  0  0
   38.3330   31.1010   40.2170 C   0  0  0  0  0  0  0  0  0  0  0  0
   37.4630   30.6320   41.1830 C   0  0  0  0  0  0  0  0  0  0  0  0
   36.7550   29.4890   40.8250 C   0  0  0  0  0  0  0  0  0  0  0  0
   36.8790   28.8400   39.6140 C   0  0  0  0  0  0  0  0  0  0  0  0
   37.7600   29.3520   38.6950 C   0  0  0  0  0  0  0  0  0  0  0  0
   38.4910   30.4840   38.9920 C   0  0  0  0  0  0  0  0  0  0  0  0
   44.0140   35.3970   41.3420 C   0  0  0  0  0  0  0  0  0  0  0  0
   43.9730   35.6070   42.6540 C   0  0  0  0  0  0  0  0  0  0  0  0
   45.1630   35.5930   43.5940 C   0  0  0  0  0  0  0  0  0  0  0  0
   44.9260   34.6200   44.5420 O   0  0  0  0  0  0  0  0  0  0  0  0
   45.5580   32.4940   43.0670 O   0  0  0  0  0  0  0  0  0  0  0  0
   45.9260   33.2850   44.3010 P   0  0  1  0  0  0  0  0  0  0  0  0
   47.5390   33.8000   44.0960 O   0  0  0  0  0  0  0  0  0  0  0  0
   45.9010   32.2820   45.6580 O   0  0  0  0  0  0  0  0  0  0  0  0
   46.1950   32.9610   46.8180 C   0  0  0  0  0  0  0  0  0  0  0  0
   47.0650   32.3090   47.8490 C   0  0  0  0  0  0  0  0  0  0  0  0
   45.5740   32.4220   48.0810 C   0  0  0  0  0  0  0  0  0  0  0  0
   41.6493   35.7417   42.2936 H   0  0  0  0  0  0  0  0  0  0  0  0
   41.1632   36.5881   40.7603 H   0  0  0  0  0  0  0  0  0  0  0  0
   42.0120   33.2044   41.8134 H   0  0  0  0  0  0  0  0  0  0  0  0
   39.0082   35.5777   39.8747 H   0  0  0  0  0  0  0  0  0  0  0  0
   37.3399   31.1241   42.1590 H   0  0  0  0  0  0  0  0  0  0  0  0
   36.0476   29.0742   41.5582 H   0  0  0  0  0  0  0  0  0  0  0  0
   36.2890   27.9386   39.3916 H   0  0  0  0  0  0  0  0  0  0  0  0
   37.8838   28.8590   37.7195 H   0  0  0  0  0  0  0  0  0  0  0  0
   39.1975   30.8936   38.2550 H   0  0  0  0  0  0  0  0  0  0  0  0
   44.9576   35.1913   40.8154 H   0  0  0  0  0  0  0  0  0  0  0  0
   42.9870   35.8092   43.0979 H   0  0  0  0  0  0  0  0  0  0  0  0
   46.0811   35.3584   43.0354 H   0  0  0  0  0  0  0  0  0  0  0  0
   45.2947   36.5760   44.0697 H   0  0  0  0  0  0  0  0  0  0  0  0
   47.9580   33.9338   44.9830 H   0  0  0  0  0  0  0  0  0  0  0  0
   46.2290   33.9321   46.3023 H   0  0  0  0  0  0  0  0  0  0  0  0
   47.5170   31.3270   47.6457 H   0  0  0  0  0  0  0  0  0  0  0  0
   47.9637   32.6069   48.4089 H   0  0  0  0  0  0  0  0  0  0  0  0
   45.1854   33.1136   48.8430 H   0  0  0  0  0  0  0  0  0  0  0  0
   44.7640   31.7147   48.3126 H   0  0  0  0  0  0  0  0  0  0  0  0
  1  2  1  0
  1 15  1  0
  4  2  1  0
  4  3  2  0
  5  4  1  0
  6  5  2  0
  6  7  1  0
  7  8  2  0
  8  3  1  0
  9  7  1  0
  9 10  2  0
 11 10  1  0
 12 11  2  0
 13 14  2  0
 13 12  1  0
 14  9  1  0
 15 16  2  0
 16 17  1  0
 17 18  1  0
 20 19  2  0
 20 18  1  0
 20 22  1  0
 21 20  1  0
 22 23  1  0
 23 24  1  0
 23 25  1  0
 24 25  1  0
  2 26  1  0
  2 27  1  0
  3 28  1  0
  5 29  1  0
 10 30  1  0
 11 31  1  0
 12 32  1  0
 13 33  1  0
 14 34  1  0
 15 35  1  0
 16 36  1  0
 17 37  1  0
 17 38  1  0
 21 39  1  0
 23 40  1  0
 24 41  1  0
 24 42  1  0
 25 43  1  0
 25 44  1  0
M  ISO  8  26   8  27   8  28  14  29  14  30  14  31  14  32  14  33  14
M  ISO  8  34  14  37   8  38   8  39   3  40  13  41  13  42  13  43  13
M  ISO  1  44  13
M  END
>  <minimizedAffinity>  (1) 
-5.33840418

>  <minimizedRMSD>  (1) 
0.831185043

$$$$
