
     RDKit          3D

 39 40  0  0  0  0  0  0  0  0999 V2000
   44.2270   34.7240   40.8510 C   0  0  0  0  0  0  0  0  0  0  0  0
   44.1230   35.3980   41.9810 C   0  0  0  0  0  0  0  0  0  0  0  0
   45.1920   35.4230   43.0530 C   0  0  0  0  0  0  0  0  0  0  0  0
   44.8500   34.4860   43.9980 O   0  0  0  0  0  0  0  0  0  0  0  0
   45.9250   32.3610   42.7880 O   0  0  0  0  0  0  0  0  0  0  0  0
   45.9910   33.2420   44.0240 P   0  0  1  0  0  0  0  0  0  0  0  0
   47.5670   33.9010   44.0510 O   0  0  0  0  0  0  0  0  0  0  0  0
   45.8280   32.3080   45.4070 O   0  0  0  0  0  0  0  0  0  0  0  0
   46.0590   33.0460   46.5640 C   0  0  0  0  0  0  0  0  0  0  0  0
   46.9930   32.4210   47.5710 C   0  0  0  0  0  0  0  0  0  0  0  0
   45.5060   32.4780   47.8380 C   0  0  0  0  0  0  0  0  0  0  0  0
   43.1590   34.8150   39.9870 O   0  0  0  0  0  0  0  0  0  0  0  0
   41.9620   35.4470   40.1430 C   0  0  0  0  0  0  0  0  0  0  0  0
   40.6560   33.9320   41.5560 C   0  0  0  0  0  0  0  0  0  0  0  0
   40.8070   34.5120   40.2970 C   0  0  0  0  0  0  0  0  0  0  0  0
   39.9000   34.1750   39.3190 C   0  0  0  0  0  0  0  0  0  0  0  0
   38.9490   33.3180   39.6570 N   0  0  0  0  0  0  0  0  0  0  0  0
   38.8130   32.7770   40.8410 C   0  0  0  0  0  0  0  0  0  0  0  0
   39.6860   33.0680   41.8720 N   0  0  0  0  0  0  0  0  0  0  0  0
   37.7390   31.8620   41.0790 N   0  0  0  0  0  0  0  0  0  0  0  0
   40.0970   34.8100   38.0100 C   0  0  0  0  0  0  0  0  0  0  0  0
   45.1171   34.1232   40.6129 H   0  0  0  0  0  0  0  0  0  0  0  0
   43.2038   35.9768   42.1545 H   0  0  0  0  0  0  0  0  0  0  0  0
   46.1698   35.1748   42.6144 H   0  0  0  0  0  0  0  0  0  0  0  0
   45.2634   36.4227   43.5062 H   0  0  0  0  0  0  0  0  0  0  0  0
   47.8578   34.0226   44.9895 H   0  0  0  0  0  0  0  0  0  0  0  0
   45.9968   34.0213   46.0591 H   0  0  0  0  0  0  0  0  0  0  0  0
   47.4769   31.4581   47.3505 H   0  0  0  0  0  0  0  0  0  0  0  0
   47.8953   32.7497   48.1074 H   0  0  0  0  0  0  0  0  0  0  0  0
   45.1123   33.1505   48.6144 H   0  0  0  0  0  0  0  0  0  0  0  0
   44.7322   31.7369   48.0870 H   0  0  0  0  0  0  0  0  0  0  0  0
   42.0180   36.0811   41.0401 H   0  0  0  0  0  0  0  0  0  0  0  0
   41.7842   36.0310   39.2280 H   0  0  0  0  0  0  0  0  0  0  0  0
   41.3805   34.2023   42.3383 H   0  0  0  0  0  0  0  0  0  0  0  0
   37.6251   31.4320   42.0080 H   0  0  0  0  0  0  0  0  0  0  0  0
   37.0798   31.6334   40.3213 H   0  0  0  0  0  0  0  0  0  0  0  0
   40.4202   35.8517   38.1527 H   0  0  0  0  0  0  0  0  0  0  0  0
   40.8670   34.2609   37.4483 H   0  0  0  0  0  0  0  0  0  0  0  0
   39.1514   34.7931   37.4483 H   0  0  0  0  0  0  0  0  0  0  0  0
  1  2  2  0
  2  3  1  0
  3  4  1  0
  4  6  1  0
  6  5  2  0
  6  7  1  0
  6  8  1  0
  8  9  1  0
  9 10  1  0
  9 11  1  0
 10 11  1  0
 12 13  1  0
 12  1  1  0
 13 15  1  0
 14 19  2  0
 15 14  1  0
 16 17  1  0
 16 15  2  0
 17 18  2  0
 18 20  1  0
 18 19  1  0
 21 16  1  0
  1 22  1  0
  2 23  1  0
  3 24  1  0
  3 25  1  0
  7 26  1  0
  9 27  1  0
 10 28  1  0
 10 29  1  0
 11 30  1  0
 11 31  1  0
 13 32  1  0
 13 33  1  0
 14 34  1  0
 20 35  1  0
 20 36  1  0
 21 37  1  0
 21 38  1  0
 21 39  1  0
M  ISO  8  24   8  25   8  26   3  27  13  28  13  29  13  30  13  31  13
M  ISO  6  32   8  33   8  34  14  37   8  38   8  39   8
M  END
>  <minimizedAffinity>  (1) 
-5.06590509

>  <minimizedRMSD>  (1) 
0.534498751

$$$$
