
     RDKit          3D

 37 38  0  0  0  0  0  0  0  0999 V2000
   44.2030   34.7220   40.7990 C   0  0  0  0  0  0  0  0  0  0  0  0
   44.0970   35.4030   41.9480 C   0  0  0  0  0  0  0  0  0  0  0  0
   45.1810   35.4340   43.0060 C   0  0  0  0  0  0  0  0  0  0  0  0
   44.8430   34.5050   43.9640 O   0  0  0  0  0  0  0  0  0  0  0  0
   45.9140   32.3740   42.7720 O   0  0  0  0  0  0  0  0  0  0  0  0
   45.9650   33.2580   44.0070 P   0  0  1  0  0  0  0  0  0  0  0  0
   47.5440   33.9140   44.0530 O   0  0  0  0  0  0  0  0  0  0  0  0
   45.7940   32.3210   45.3860 O   0  0  0  0  0  0  0  0  0  0  0  0
   46.0530   33.0440   46.5460 C   0  0  0  0  0  0  0  0  0  0  0  0
   47.0130   32.4250   47.5300 C   0  0  0  0  0  0  0  0  0  0  0  0
   45.5160   32.4790   47.8260 C   0  0  0  0  0  0  0  0  0  0  0  0
   43.1230   34.8070   39.9530 O   0  0  0  0  0  0  0  0  0  0  0  0
   41.9370   35.4370   40.1150 C   0  0  0  0  0  0  0  0  0  0  0  0
   40.6570   33.8920   41.5240 C   0  0  0  0  0  0  0  0  0  0  0  0
   40.7750   34.5010   40.2730 C   0  0  0  0  0  0  0  0  0  0  0  0
   39.8470   34.2020   39.3150 C   0  0  0  0  0  0  0  0  0  0  0  0
   38.8970   33.3400   39.6590 N   0  0  0  0  0  0  0  0  0  0  0  0
   38.7930   32.7730   40.8320 C   0  0  0  0  0  0  0  0  0  0  0  0
   39.6950   33.0310   41.8460 N   0  0  0  0  0  0  0  0  0  0  0  0
   37.7170   31.8590   41.0860 N   0  0  0  0  0  0  0  0  0  0  0  0
   40.0010   34.8300   38.0890 O   0  0  0  0  0  0  0  0  0  0  0  0
   45.0973   34.1325   40.5487 H   0  0  0  0  0  0  0  0  0  0  0  0
   43.1729   35.9703   42.1332 H   0  0  0  0  0  0  0  0  0  0  0  0
   46.1521   35.1768   42.5579 H   0  0  0  0  0  0  0  0  0  0  0  0
   45.2654   36.4375   43.4485 H   0  0  0  0  0  0  0  0  0  0  0  0
   47.8255   34.0309   44.9949 H   0  0  0  0  0  0  0  0  0  0  0  0
   45.9841   34.0201   46.0435 H   0  0  0  0  0  0  0  0  0  0  0  0
   47.4962   31.4639   47.3002 H   0  0  0  0  0  0  0  0  0  0  0  0
   47.9255   32.7564   48.0473 H   0  0  0  0  0  0  0  0  0  0  0  0
   45.1331   33.1521   48.6072 H   0  0  0  0  0  0  0  0  0  0  0  0
   44.7464   31.7382   48.0884 H   0  0  0  0  0  0  0  0  0  0  0  0
   41.9990   36.0688   41.0133 H   0  0  0  0  0  0  0  0  0  0  0  0
   41.7564   36.0233   39.2020 H   0  0  0  0  0  0  0  0  0  0  0  0
   41.4058   34.1394   42.2909 H   0  0  0  0  0  0  0  0  0  0  0  0
   37.6302   31.4093   42.0086 H   0  0  0  0  0  0  0  0  0  0  0  0
   37.0312   31.6524   40.3458 H   0  0  0  0  0  0  0  0  0  0  0  0
   40.7526   35.4582   37.9456 H   0  0  0  0  0  0  0  0  0  0  0  0
  1  2  2  0
  2  3  1  0
  3  4  1  0
  4  6  1  0
  6  5  2  0
  6  7  1  0
  6  8  1  0
  8  9  1  0
  9 10  1  0
  9 11  1  0
 10 11  1  0
 12 13  1  0
 12  1  1  0
 13 15  1  0
 14 19  2  0
 15 14  1  0
 16 17  1  0
 16 15  2  0
 17 18  2  0
 18 20  1  0
 18 19  1  0
 21 16  1  0
  1 22  1  0
  2 23  1  0
  3 24  1  0
  3 25  1  0
  7 26  1  0
  9 27  1  0
 10 28  1  0
 10 29  1  0
 11 30  1  0
 11 31  1  0
 13 32  1  0
 13 33  1  0
 14 34  1  0
 20 35  1  0
 20 36  1  0
 21 37  1  0
M  ISO  8  24   8  25   8  26   3  27  13  28  13  29  13  30  13  31  13
M  ISO  4  32   8  33   8  34  14  37   3
M  END
>  <minimizedAffinity>  (1) 
-4.92761707

>  <minimizedRMSD>  (1) 
0.509415805

$$$$
