
     RDKit          3D

 18 18  0  0  0  0  0  0  0  0999 V2000
   44.8200   35.7450   43.6920 C   0  0  0  0  0  0  0  0  0  0  0  0
   44.3050   35.6720   42.3630 C   0  0  0  0  0  0  0  0  0  0  0  0
   44.2350   34.4110   41.7500 C   0  0  0  0  0  0  0  0  0  0  0  0
   44.6650   33.3250   42.4580 N   0  0  0  0  0  0  0  0  0  0  0  0
   45.1510   33.4330   43.7250 C   0  0  0  0  0  0  0  0  0  0  0  0
   45.2180   34.6460   44.3150 N   0  0  0  0  0  0  0  0  0  0  0  0
   44.8710   37.0700   44.2890 C   0  0  0  0  0  0  0  0  0  0  0  0
   45.3480   38.0850   43.5640 C   0  0  0  0  0  0  0  0  0  0  0  0
   45.4240   39.4560   44.1030 C   0  0  0  0  0  0  0  0  0  0  0  0
   45.1970   39.3450   45.4920 O   0  0  0  0  0  0  0  0  0  0  0  0
   43.9726   36.5775   41.8343 H   0  0  0  0  0  0  0  0  0  0  0  0
   43.8446   34.3006   40.7276 H   0  0  0  0  0  0  0  0  0  0  0  0
   45.4877   32.5363   44.2659 H   0  0  0  0  0  0  0  0  0  0  0  0
   44.5228   37.2333   45.3196 H   0  0  0  0  0  0  0  0  0  0  0  0
   45.6935   37.8936   42.5374 H   0  0  0  0  0  0  0  0  0  0  0  0
   46.4181   39.8865   43.9121 H   0  0  0  0  0  0  0  0  0  0  0  0
   44.6840   40.1161   43.6269 H   0  0  0  0  0  0  0  0  0  0  0  0
   45.9689   39.7225   45.9837 H   0  0  0  0  0  0  0  0  0  0  0  0
  1  7  1  0
  1  6  2  0
  2  1  1  0
  3  2  2  0
  3  4  1  0
  4  5  2  0
  5  6  1  0
  8  9  1  0
  8  7  2  0
  9 10  1  0
  2 11  1  0
  3 12  1  0
  5 13  1  0
  7 14  1  0
  8 15  1  0
  9 16  1  0
  9 17  1  0
 10 18  1  0
M  ISO  6  11  14  12  14  13  14  16   8  17   8  18   3
M  END
>  <minimizedAffinity>  (1) 
-2.95939112

>  <minimizedRMSD>  (1) 
0.335272968

$$$$
