
     RDKit          3D

 27 28  0  0  0  0  0  0  0  0999 V2000
   45.4200   34.1370   45.3470 C   0  0  0  0  0  0  0  0  0  0  0  0
   45.9070   33.0330   46.2340 C   0  0  0  0  0  0  0  0  0  0  0  0
   46.9590   32.1960   45.9720 C   0  0  0  0  0  0  0  0  0  0  0  0
   47.0230   31.3760   47.0370 N   0  0  0  0  0  0  0  0  0  0  0  0
   46.0660   31.6560   47.9530 C   0  0  0  0  0  0  0  0  0  0  0  0
   45.3930   32.6920   47.4170 N   0  0  0  0  0  0  0  0  0  0  0  0
   45.8270   30.9680   49.2470 C   0  0  0  0  0  0  0  0  0  0  0  0
   45.1760   31.8720   50.0920 F   0  0  0  0  0  0  0  0  0  0  0  0
   44.9940   29.9030   49.0890 F   0  0  0  0  0  0  0  0  0  0  0  0
   47.0570   30.6160   49.7950 F   0  0  0  0  0  0  0  0  0  0  0  0
   46.0330   35.0400   43.1270 C   0  0  0  0  0  0  0  0  0  0  0  0
   46.1130   34.0720   44.0290 C   0  0  0  0  0  0  0  0  0  0  0  0
   46.7720   34.8340   41.8750 C   0  0  0  0  0  0  0  0  0  0  0  0
   48.0530   35.4350   41.7100 C   0  0  0  0  0  0  0  0  0  0  0  0
   48.7090   35.2060   40.5130 C   0  0  0  0  0  0  0  0  0  0  0  0
   48.1080   34.4310   39.5700 N   0  0  0  0  0  0  0  0  0  0  0  0
   46.8890   33.8740   39.7560 C   0  0  0  0  0  0  0  0  0  0  0  0
   46.2550   34.0870   40.8960 N   0  0  0  0  0  0  0  0  0  0  0  0
   44.3358   34.0310   45.1946 H   0  0  0  0  0  0  0  0  0  0  0  0
   45.6358   35.1053   45.8223 H   0  0  0  0  0  0  0  0  0  0  0  0
   47.6094   32.1944   45.0849 H   0  0  0  0  0  0  0  0  0  0  0  0
   47.7184   30.6236   47.1430 H   0  0  0  0  0  0  0  0  0  0  0  0
   45.4432   35.9509   43.3071 H   0  0  0  0  0  0  0  0  0  0  0  0
   46.7166   33.1827   43.7948 H   0  0  0  0  0  0  0  0  0  0  0  0
   48.5017   36.0547   42.5003 H   0  0  0  0  0  0  0  0  0  0  0  0
   49.7008   35.6438   40.3270 H   0  0  0  0  0  0  0  0  0  0  0  0
   46.4327   33.2535   38.9706 H   0  0  0  0  0  0  0  0  0  0  0  0
  1  2  1  0
  2  6  1  0
  3  2  2  0
  3  4  1  0
  4  5  1  0
  5  7  1  0
  6  5  2  0
  7 10  1  0
  7  8  1  0
  9  7  1  0
 11 12  2  0
 12  1  1  0
 13 11  1  0
 14 13  2  0
 15 14  1  0
 16 17  1  0
 16 15  2  0
 17 18  2  0
 18 13  1  0
  1 19  1  0
  1 20  1  0
  3 21  1  0
  4 22  1  0
 11 23  1  0
 12 24  1  0
 14 25  1  0
 15 26  1  0
 17 27  1  0
M  ISO  7  19   8  20   8  21  14  22   9  25  14  26  14  27  14
M  END
>  <minimizedAffinity>  (1) 
-5.16864347

>  <minimizedRMSD>  (1) 
7.53937387

$$$$
