
     RDKit          3D

 30 31  0  0  0  0  0  0  0  0999 V2000
   46.8150   31.2520   46.9520 C   0  0  0  0  0  0  0  0  0  0  0  0
   45.9470   32.4720   46.9270 C   0  0  0  0  0  0  0  0  0  0  0  0
   45.1190   32.9170   47.9400 C   0  0  0  0  0  0  0  0  0  0  0  0
   44.5410   34.0370   47.4810 N   0  0  0  0  0  0  0  0  0  0  0  0
   44.9620   34.3120   46.2430 C   0  0  0  0  0  0  0  0  0  0  0  0
   45.8270   33.3450   45.9080 N   0  0  0  0  0  0  0  0  0  0  0  0
   44.6190   35.4340   45.3100 C   0  0  0  0  0  0  0  0  0  0  0  0
   45.1880   35.1820   43.9310 C   0  0  0  0  0  0  0  0  0  0  0  0
   48.2000   30.6700   48.9010 C   0  0  0  0  0  0  0  0  0  0  0  0
   47.9600   31.4600   47.8610 C   0  0  0  0  0  0  0  0  0  0  0  0
   49.3720   30.9940   49.7200 C   0  0  0  0  0  0  0  0  0  0  0  0
   49.8770   30.0780   50.6720 C   0  0  0  0  0  0  0  0  0  0  0  0
   50.9820   30.4430   51.4080 C   0  0  0  0  0  0  0  0  0  0  0  0
   51.5470   31.6670   51.1950 N   0  0  0  0  0  0  0  0  0  0  0  0
   51.0460   32.5210   50.2840 C   0  0  0  0  0  0  0  0  0  0  0  0
   49.9770   32.1760   49.5650 N   0  0  0  0  0  0  0  0  0  0  0  0
   47.1885   31.0508   45.9371 H   0  0  0  0  0  0  0  0  0  0  0  0
   46.2227   30.3971   47.3102 H   0  0  0  0  0  0  0  0  0  0  0  0
   44.9652   32.4480   48.9230 H   0  0  0  0  0  0  0  0  0  0  0  0
   43.8655   34.6068   48.0101 H   0  0  0  0  0  0  0  0  0  0  0  0
   43.5248   35.5208   45.2379 H   0  0  0  0  0  0  0  0  0  0  0  0
   45.0528   36.3646   45.7047 H   0  0  0  0  0  0  0  0  0  0  0  0
   46.1902   34.7381   44.0234 H   0  0  0  0  0  0  0  0  0  0  0  0
   44.5300   34.4911   43.3835 H   0  0  0  0  0  0  0  0  0  0  0  0
   45.2574   36.1335   43.3835 H   0  0  0  0  0  0  0  0  0  0  0  0
   47.5508   29.8138   49.1366 H   0  0  0  0  0  0  0  0  0  0  0  0
   48.6408   32.3024   47.6691 H   0  0  0  0  0  0  0  0  0  0  0  0
   49.3990   29.0985   50.8207 H   0  0  0  0  0  0  0  0  0  0  0  0
   51.4037   29.7573   52.1576 H   0  0  0  0  0  0  0  0  0  0  0  0
   51.5178   33.5031   50.1323 H   0  0  0  0  0  0  0  0  0  0  0  0
  1 10  1  0
  2  1  1  0
  2  3  2  0
  4  3  1  0
  5  4  1  0
  6  5  2  0
  6  2  1  0
  7  5  1  0
  8  7  1  0
  9 11  1  0
 10  9  2  0
 11 12  2  0
 12 13  1  0
 14 13  2  0
 15 14  1  0
 16 11  1  0
 16 15  2  0
  1 17  1  0
  1 18  1  0
  3 19  1  0
  4 20  1  0
  7 21  1  0
  7 22  1  0
  8 23  1  0
  8 24  1  0
  8 25  1  0
  9 26  1  0
 10 27  1  0
 12 28  1  0
 13 29  1  0
 15 30  1  0
M  ISO  8  17   8  18   8  19  14  20   9  21   8  22   8  23   8  24   8
M  ISO  4  25   8  28  14  29  14  30  14
M  END
>  <minimizedAffinity>  (1) 
-4.86978006

>  <minimizedRMSD>  (1) 
3.9011662

$$$$
