
     RDKit          3D

 27 28  0  0  0  0  0  0  0  0999 V2000
   45.6760   33.3340   43.8260 C   0  0  0  0  0  0  0  0  0  0  0  0
   45.3160   34.7580   44.0950 C   0  0  0  0  0  0  0  0  0  0  0  0
   44.6750   35.2470   45.2240 C   0  0  0  0  0  0  0  0  0  0  0  0
   44.5670   36.5750   45.0230 N   0  0  0  0  0  0  0  0  0  0  0  0
   45.0980   36.9270   43.8490 C   0  0  0  0  0  0  0  0  0  0  0  0
   45.5690   35.7940   43.2630 N   0  0  0  0  0  0  0  0  0  0  0  0
   45.1700   38.3140   43.2710 C   0  0  0  0  0  0  0  0  0  0  0  0
   46.0790   31.7490   45.6700 C   0  0  0  0  0  0  0  0  0  0  0  0
   46.4800   32.8010   44.9510 C   0  0  0  0  0  0  0  0  0  0  0  0
   46.9650   31.3250   46.7570 C   0  0  0  0  0  0  0  0  0  0  0  0
   47.4200   29.9890   46.8580 C   0  0  0  0  0  0  0  0  0  0  0  0
   48.2530   29.6530   47.9070 C   0  0  0  0  0  0  0  0  0  0  0  0
   48.6050   30.6120   48.7960 N   0  0  0  0  0  0  0  0  0  0  0  0
   48.1640   31.8790   48.6870 C   0  0  0  0  0  0  0  0  0  0  0  0
   47.3550   32.2200   47.6740 N   0  0  0  0  0  0  0  0  0  0  0  0
   44.7573   32.7386   43.7188 H   0  0  0  0  0  0  0  0  0  0  0  0
   46.2642   33.2759   42.8983 H   0  0  0  0  0  0  0  0  0  0  0  0
   44.3290   34.6734   46.0965 H   0  0  0  0  0  0  0  0  0  0  0  0
   44.1325   37.2318   45.6868 H   0  0  0  0  0  0  0  0  0  0  0  0
   45.2082   39.0500   44.0876 H   0  0  0  0  0  0  0  0  0  0  0  0
   46.0742   38.4065   42.6514 H   0  0  0  0  0  0  0  0  0  0  0  0
   44.2803   38.4997   42.6514 H   0  0  0  0  0  0  0  0  0  0  0  0
   45.1335   31.2286   45.4572 H   0  0  0  0  0  0  0  0  0  0  0  0
   47.4351   33.2859   45.2014 H   0  0  0  0  0  0  0  0  0  0  0  0
   47.1168   29.2345   46.1172 H   0  0  0  0  0  0  0  0  0  0  0  0
   48.6244   28.6236   48.0186 H   0  0  0  0  0  0  0  0  0  0  0  0
   48.4670   32.6334   49.4280 H   0  0  0  0  0  0  0  0  0  0  0  0
  1  2  1  0
  1  9  1  0
  2  3  2  0
  4  3  1  0
  5  4  1  0
  6  5  2  0
  6  2  1  0
  7  5  1  0
  8 10  1  0
  9  8  2  0
 10 11  2  0
 10 15  1  0
 11 12  1  0
 12 13  2  0
 14 13  1  0
 15 14  2  0
  1 16  1  0
  1 17  1  0
  3 18  1  0
  4 19  1  0
  7 20  1  0
  7 21  1  0
  7 22  1  0
  8 23  1  0
  9 24  1  0
 11 25  1  0
 12 26  1  0
 14 27  1  0
M  ISO  8  16   8  17   8  18  14  19   9  20   8  21   8  22   8  25  14
M  ISO  2  26  14  27  14
M  END
>  <minimizedAffinity>  (1) 
-3.46787047

>  <minimizedRMSD>  (1) 
0.34774211

$$$$
