
     RDKit          3D

 25 26  0  0  0  0  0  0  0  0999 V2000
   45.5120   33.2170   44.0670 C   0  0  0  0  0  0  0  0  0  0  0  0
   45.2170   34.6750   44.1960 C   0  0  0  0  0  0  0  0  0  0  0  0
   44.6740   35.2790   45.2960 C   0  0  0  0  0  0  0  0  0  0  0  0
   44.5770   36.5850   44.9890 N   0  0  0  0  0  0  0  0  0  0  0  0
   45.0400   36.8200   43.7360 C   0  0  0  0  0  0  0  0  0  0  0  0
   45.4250   35.6230   43.2770 N   0  0  0  0  0  0  0  0  0  0  0  0
   45.0260   38.1120   43.2270 O   0  0  0  0  0  0  0  0  0  0  0  0
   46.3180   31.4700   45.6030 C   0  0  0  0  0  0  0  0  0  0  0  0
   46.3180   32.7470   45.2270 C   0  0  0  0  0  0  0  0  0  0  0  0
   47.1560   31.1450   46.7590 C   0  0  0  0  0  0  0  0  0  0  0  0
   47.6920   29.8270   46.9010 C   0  0  0  0  0  0  0  0  0  0  0  0
   48.4820   29.5940   48.0300 C   0  0  0  0  0  0  0  0  0  0  0  0
   48.6980   30.5970   48.9110 N   0  0  0  0  0  0  0  0  0  0  0  0
   48.1770   31.8290   48.7460 C   0  0  0  0  0  0  0  0  0  0  0  0
   47.4220   32.0740   47.6810 N   0  0  0  0  0  0  0  0  0  0  0  0
   44.5657   32.6572   44.0323 H   0  0  0  0  0  0  0  0  0  0  0  0
   46.0842   33.0487   43.1428 H   0  0  0  0  0  0  0  0  0  0  0  0
   44.3773   34.7959   46.2387 H   0  0  0  0  0  0  0  0  0  0  0  0
   44.2022   37.3081   45.6195 H   0  0  0  0  0  0  0  0  0  0  0  0
   45.3631   38.2876   42.3129 H   0  0  0  0  0  0  0  0  0  0  0  0
   45.7253   30.7064   45.0779 H   0  0  0  0  0  0  0  0  0  0  0  0
   46.9277   33.4718   45.7864 H   0  0  0  0  0  0  0  0  0  0  0  0
   47.4930   29.0381   46.1607 H   0  0  0  0  0  0  0  0  0  0  0  0
   48.9250   28.6017   48.2008 H   0  0  0  0  0  0  0  0  0  0  0  0
   48.3744   32.6210   49.4834 H   0  0  0  0  0  0  0  0  0  0  0  0
  1  2  1  0
  1  9  1  0
  2  3  2  0
  4  3  1  0
  5  4  1  0
  6  5  2  0
  6  2  1  0
  7  5  1  0
  8 10  1  0
  9  8  2  0
 10 11  2  0
 10 15  1  0
 11 12  1  0
 12 13  2  0
 14 13  1  0
 15 14  2  0
  1 16  1  0
  1 17  1  0
  3 18  1  0
  4 19  1  0
  7 20  1  0
  8 21  1  0
  9 22  1  0
 11 23  1  0
 12 24  1  0
 14 25  1  0
M  ISO  8  16   8  17   8  18  14  19   9  20   3  23  14  24  14  25  14
M  END
>  <minimizedAffinity>  (1) 
-4.28241825

>  <minimizedRMSD>  (1) 
0.296243042

$$$$
