
     RDKit          3D

 59 63  0  0  1  0  0  0  0  0999 V2000
   45.3500   32.8250   47.3130 C   0  0  0  0  0  0  0  0  0  0  0  0
   46.3270   32.0580   48.1420 C   0  0  0  0  0  0  0  0  0  0  0  0
   46.0300   31.2240   49.1880 C   0  0  0  0  0  0  0  0  0  0  0  0
   47.1940   30.7530   49.6360 N   0  0  0  0  0  0  0  0  0  0  0  0
   48.2230   31.2440   48.9280 C   0  0  0  0  0  0  0  0  0  0  0  0
   47.6680   32.0630   47.9910 N   0  0  0  0  0  0  0  0  0  0  0  0
   49.6190   31.0400   49.0260 N   0  0  0  0  0  0  0  0  0  0  0  0
   50.3700   31.9300   49.9380 C   0  0  0  0  0  0  0  0  0  0  0  0
   50.6790   31.0600   51.1510 C   0  0  0  0  0  0  0  0  0  0  0  0
   51.2330   29.7250   50.7200 C   0  0  0  0  0  0  0  0  0  0  0  0
   51.6890   29.8090   49.2850 C   0  0  0  0  0  0  0  0  0  0  0  0
   50.5020   30.1050   48.3940 C   0  0  0  0  0  0  0  0  0  0  0  0
   45.9320   32.9970   44.9250 C   0  0  0  0  0  0  0  0  0  0  0  0
   46.0300   33.4610   46.1630 C   0  0  0  0  0  0  0  0  0  0  0  0
   46.6560   33.7220   43.8810 C   0  0  0  0  0  0  0  0  0  0  0  0
   46.0240   34.7820   43.1650 C   0  0  0  0  0  0  0  0  0  0  0  0
   46.8040   35.4060   42.1900 C   0  0  0  0  0  0  0  0  0  0  0  0
   48.0810   35.0160   41.9520 N   0  0  0  0  0  0  0  0  0  0  0  0
   48.6480   33.9980   42.6600 C   0  0  0  0  0  0  0  0  0  0  0  0
   47.9260   33.3850   43.5950 N   0  0  0  0  0  0  0  0  0  0  0  0
   50.0250   33.5770   42.4770 C   0  0  0  0  0  0  0  0  0  0  0  0
   50.3280   32.3870   41.7170 C   0  0  0  0  0  0  0  0  0  0  0  0
   50.0560   31.9670   40.4980 C   0  0  0  0  0  0  0  0  0  0  0  0
   50.4870   30.6970   40.0190 N   0  0  0  0  0  0  0  0  0  0  0  0
   51.1250   29.9340   39.0030 C   0  0  0  0  0  0  0  0  0  0  0  0
   51.1720   30.0900   37.7440 O   0  0  0  0  0  0  0  0  0  0  0  0
   51.5990   29.0310   40.0890 C   0  0  0  0  0  0  0  0  0  0  0  0
   50.3040   29.4110   40.7280 C   0  0  1  0  0  0  0  0  0  0  0  0
   50.3750   29.8270   42.4850 S   0  0  0  0  0  0  0  0  0  0  0  0
   51.1670   31.4830   42.5460 C   0  0  0  0  0  0  0  0  0  0  0  0
   49.2750   32.8530   39.6530 C   0  0  0  0  0  0  0  0  0  0  0  0
   48.0920   32.5510   39.3750 O   0  0  0  0  0  0  0  0  0  0  0  0
   48.6000   33.7380   38.8530 O   0  0  0  0  0  0  0  0  0  0  0  0
   44.5748   32.1391   46.9406 H   0  0  0  0  0  0  0  0  0  0  0  0
   44.8959   33.6102   47.9353 H   0  0  0  0  0  0  0  0  0  0  0  0
   45.0294   30.9896   49.5803 H   0  0  0  0  0  0  0  0  0  0  0  0
   47.2911   30.0968   50.4240 H   0  0  0  0  0  0  0  0  0  0  0  0
   51.2988   32.2792   49.4631 H   0  0  0  0  0  0  0  0  0  0  0  0
   49.8006   32.8326   50.2046 H   0  0  0  0  0  0  0  0  0  0  0  0
   51.4196   31.5715   51.7834 H   0  0  0  0  0  0  0  0  0  0  0  0
   49.7486   30.8928   51.7135 H   0  0  0  0  0  0  0  0  0  0  0  0
   52.0863   29.4581   51.3608 H   0  0  0  0  0  0  0  0  0  0  0  0
   50.4510   28.9569   50.8116 H   0  0  0  0  0  0  0  0  0  0  0  0
   52.4330   30.6128   49.1833 H   0  0  0  0  0  0  0  0  0  0  0  0
   52.1405   28.8511   48.9875 H   0  0  0  0  0  0  0  0  0  0  0  0
   49.9570   29.1704   48.1952 H   0  0  0  0  0  0  0  0  0  0  0  0
   50.8653   30.5409   47.4517 H   0  0  0  0  0  0  0  0  0  0  0  0
   45.3319   32.1049   44.6928 H   0  0  0  0  0  0  0  0  0  0  0  0
   46.6427   34.3567   46.3429 H   0  0  0  0  0  0  0  0  0  0  0  0
   44.9873   35.0882   43.3685 H   0  0  0  0  0  0  0  0  0  0  0  0
   46.3742   36.2309   41.6027 H   0  0  0  0  0  0  0  0  0  0  0  0
   50.5470   34.4094   41.9825 H   0  0  0  0  0  0  0  0  0  0  0  0
   50.3419   33.3099   43.4959 H   0  0  0  0  0  0  0  0  0  0  0  0
   51.7000   27.9706   39.8146 H   0  0  0  0  0  0  0  0  0  0  0  0
   52.5781   29.1236   40.5818 H   0  0  0  0  0  0  0  0  0  0  0  0
   49.4544   28.7144   40.6741 H   0  0  0  0  0  0  0  0  0  0  0  0
   52.1869   31.4310   42.1371 H   0  0  0  0  0  0  0  0  0  0  0  0
   51.2408   31.8490   43.5807 H   0  0  0  0  0  0  0  0  0  0  0  0
   47.6694   33.5446   38.5761 H   0  0  0  0  0  0  0  0  0  0  0  0
  1  2  1  0
  2  3  2  0
  3  4  1  0
  5  7  1  0
  5  4  1  0
  6  2  1  0
  6  5  2  0
  7  8  1  0
  8  9  1  0
 10  9  1  0
 11 10  1  0
 12  7  1  0
 12 11  1  0
 13 14  2  0
 14  1  1  0
 15 13  1  0
 16 15  2  0
 17 16  1  0
 18 17  2  0
 18 19  1  0
 19 20  2  0
 20 15  1  0
 21 19  1  0
 22 21  1  0
 22 30  1  0
 23 22  2  0
 24 23  1  0
 24 28  1  0
 25 24  1  0
 25 27  1  0
 26 25  2  0
 28 27  1  0
 28 29  1  0
 29 30  1  0
 31 23  1  0
 32 31  2  0
 33 31  1  0
  1 34  1  0
  1 35  1  0
  3 36  1  0
  4 37  1  0
  8 38  1  0
  8 39  1  0
  9 40  1  0
  9 41  1  0
 10 42  1  0
 10 43  1  0
 11 44  1  0
 11 45  1  0
 12 46  1  0
 12 47  1  0
 13 48  1  0
 14 49  1  0
 16 50  1  0
 17 51  1  0
 21 52  1  0
 21 53  1  0
 27 54  1  0
 27 55  1  0
 28 56  1  1
 30 57  1  0
 30 58  1  0
 33 59  1  0
M  ISO  8  34   8  35   8  36  14  37   9  38  13  39  13  40  13  41  13
M  ISO  8  42  13  43  13  44  13  45  13  46  13  47  13  50  14  51  14
M  ISO  8  52   8  53   8  54  13  55  13  56  13  57  13  58  13  59   3
M  END
>  <minimizedAffinity>  (1) 
-6.36561251

>  <minimizedRMSD>  (1) 
1.33666968

$$$$
