
     RDKit          3D

 42 44  0  0  0  0  0  0  0  0999 V2000
   46.3480   32.1960   48.0010 C   0  0  0  0  0  0  0  0  0  0  0  0
   45.9800   31.4870   49.1190 C   0  0  0  0  0  0  0  0  0  0  0  0
   47.1030   30.9840   49.6190 N   0  0  0  0  0  0  0  0  0  0  0  0
   48.1630   31.3250   48.8930 C   0  0  0  0  0  0  0  0  0  0  0  0
   47.6880   32.0870   47.8760 N   0  0  0  0  0  0  0  0  0  0  0  0
   49.5460   31.0280   49.0370 N   0  0  0  0  0  0  0  0  0  0  0  0
   50.3740   31.9500   49.8440 C   0  0  0  0  0  0  0  0  0  0  0  0
   50.5910   31.2130   51.1660 C   0  0  0  0  0  0  0  0  0  0  0  0
   51.0320   29.8000   50.9020 C   0  0  0  0  0  0  0  0  0  0  0  0
   51.5110   29.6700   49.4690 C   0  0  0  0  0  0  0  0  0  0  0  0
   50.3560   29.9580   48.5380 C   0  0  0  0  0  0  0  0  0  0  0  0
   45.4500   32.9530   47.0800 C   0  0  0  0  0  0  0  0  0  0  0  0
   46.2140   32.9180   44.7430 C   0  0  0  0  0  0  0  0  0  0  0  0
   46.1950   33.4930   45.9370 C   0  0  0  0  0  0  0  0  0  0  0  0
   46.9950   33.5550   43.6860 C   0  0  0  0  0  0  0  0  0  0  0  0
   46.5450   34.7020   42.9830 C   0  0  0  0  0  0  0  0  0  0  0  0
   47.3640   35.2250   41.9990 C   0  0  0  0  0  0  0  0  0  0  0  0
   48.5480   34.6390   41.7400 N   0  0  0  0  0  0  0  0  0  0  0  0
   48.9700   33.5440   42.4170 C   0  0  0  0  0  0  0  0  0  0  0  0
   48.2040   33.0180   43.3690 N   0  0  0  0  0  0  0  0  0  0  0  0
   50.2910   32.9270   42.0950 C   0  0  0  0  0  0  0  0  0  0  0  0
   51.2410   33.9070   42.3250 F   0  0  0  0  0  0  0  0  0  0  0  0
   50.5640   31.8050   42.8200 F   0  0  0  0  0  0  0  0  0  0  0  0
   50.3230   32.5930   40.7530 F   0  0  0  0  0  0  0  0  0  0  0  0
   44.9628   31.3616   49.5185 H   0  0  0  0  0  0  0  0  0  0  0  0
   47.1472   30.4004   50.4666 H   0  0  0  0  0  0  0  0  0  0  0  0
   51.3350   32.1462   49.3461 H   0  0  0  0  0  0  0  0  0  0  0  0
   49.8928   32.9290   49.9853 H   0  0  0  0  0  0  0  0  0  0  0  0
   51.3649   31.7328   51.7498 H   0  0  0  0  0  0  0  0  0  0  0  0
   49.6461   31.1966   51.7290 H   0  0  0  0  0  0  0  0  0  0  0  0
   51.8530   29.5399   51.5864 H   0  0  0  0  0  0  0  0  0  0  0  0
   50.1838   29.1187   51.0644 H   0  0  0  0  0  0  0  0  0  0  0  0
   52.3223   30.3895   49.2843 H   0  0  0  0  0  0  0  0  0  0  0  0
   51.8862   28.6511   49.2928 H   0  0  0  0  0  0  0  0  0  0  0  0
   49.7373   29.0535   48.4426 H   0  0  0  0  0  0  0  0  0  0  0  0
   50.7616   30.2541   47.5593 H   0  0  0  0  0  0  0  0  0  0  0  0
   44.6645   32.2779   46.7096 H   0  0  0  0  0  0  0  0  0  0  0  0
   45.0089   33.7932   47.6364 H   0  0  0  0  0  0  0  0  0  0  0  0
   45.6577   31.9881   44.5537 H   0  0  0  0  0  0  0  0  0  0  0  0
   46.7667   34.4221   46.0783 H   0  0  0  0  0  0  0  0  0  0  0  0
   45.5729   35.1621   43.2138 H   0  0  0  0  0  0  0  0  0  0  0  0
   47.0501   36.1137   41.4318 H   0  0  0  0  0  0  0  0  0  0  0  0
  1  2  2  0
  2  3  1  0
  4  6  1  0
  4  3  1  0
  5  1  1  0
  5  4  2  0
  6  7  1  0
  7  8  1  0
  9  8  1  0
 10  9  1  0
 11  6  1  0
 11 10  1  0
 12  1  1  0
 13 14  2  0
 14 12  1  0
 15 13  1  0
 16 15  2  0
 17 16  1  0
 18 17  2  0
 18 19  1  0
 19 20  2  0
 20 15  1  0
 21 22  1  0
 21 19  1  0
 21 23  1  0
 24 21  1  0
  2 25  1  0
  3 26  1  0
  7 27  1  0
  7 28  1  0
  8 29  1  0
  8 30  1  0
  9 31  1  0
  9 32  1  0
 10 33  1  0
 10 34  1  0
 11 35  1  0
 11 36  1  0
 12 37  1  0
 12 38  1  0
 13 39  1  0
 14 40  1  0
 16 41  1  0
 17 42  1  0
M  ISO  8  25  14  26   9  27  13  28  13  29  13  30  13  31  13  32  13
M  ISO  8  33  13  34  13  35  13  36  13  37   8  38   8  41  14  42  14
M  END
>  <minimizedAffinity>  (1) 
-6.22094774

>  <minimizedRMSD>  (1) 
0.833441019

$$$$
