
     RDKit          3D

 46 49  0  0  0  0  0  0  0  0999 V2000
   46.3970   32.1640   47.8060 C   0  0  0  0  0  0  0  0  0  0  0  0
   45.9340   31.8290   49.0420 C   0  0  0  0  0  0  0  0  0  0  0  0
   46.9010   31.1280   49.6330 N   0  0  0  0  0  0  0  0  0  0  0  0
   47.9550   31.0030   48.8330 C   0  0  0  0  0  0  0  0  0  0  0  0
   47.6380   31.6580   47.6730 N   0  0  0  0  0  0  0  0  0  0  0  0
   49.2190   30.3560   49.0090 N   0  0  0  0  0  0  0  0  0  0  0  0
   50.3070   31.1620   49.6090 C   0  0  0  0  0  0  0  0  0  0  0  0
   50.4150   30.6650   51.0460 C   0  0  0  0  0  0  0  0  0  0  0  0
   50.4380   29.1520   51.0670 C   0  0  0  0  0  0  0  0  0  0  0  0
   50.7740   28.6320   49.6770 C   0  0  0  0  0  0  0  0  0  0  0  0
   49.6740   29.0370   48.7140 C   0  0  0  0  0  0  0  0  0  0  0  0
   45.6730   32.9540   46.7770 C   0  0  0  0  0  0  0  0  0  0  0  0
   46.1770   33.9250   44.5590 C   0  0  0  0  0  0  0  0  0  0  0  0
   46.4860   33.1180   45.5500 C   0  0  0  0  0  0  0  0  0  0  0  0
   47.0720   33.9870   43.4070 C   0  0  0  0  0  0  0  0  0  0  0  0
   46.9460   34.9920   42.4250 C   0  0  0  0  0  0  0  0  0  0  0  0
   47.8480   34.9630   41.3690 C   0  0  0  0  0  0  0  0  0  0  0  0
   48.7960   33.9930   41.3140 N   0  0  0  0  0  0  0  0  0  0  0  0
   48.8920   33.0450   42.2670 C   0  0  0  0  0  0  0  0  0  0  0  0
   48.0500   33.0410   43.2900 N   0  0  0  0  0  0  0  0  0  0  0  0
   49.9640   32.1130   42.0190 C   0  0  0  0  0  0  0  0  0  0  0  0
   51.0260   32.1960   41.1930 C   0  0  0  0  0  0  0  0  0  0  0  0
   51.9250   31.1570   41.1340 C   0  0  0  0  0  0  0  0  0  0  0  0
   51.6590   30.0600   41.9630 C   0  0  0  0  0  0  0  0  0  0  0  0
   50.1150   30.5210   42.8270 S   0  0  0  0  0  0  0  0  0  0  0  0
   44.9536   32.0866   49.4690 H   0  0  0  0  0  0  0  0  0  0  0  0
   46.8398   30.7353   50.5832 H   0  0  0  0  0  0  0  0  0  0  0  0
   51.2522   30.9984   49.0706 H   0  0  0  0  0  0  0  0  0  0  0  0
   50.1000   32.2411   49.5580 H   0  0  0  0  0  0  0  0  0  0  0  0
   51.3416   31.0502   51.4966 H   0  0  0  0  0  0  0  0  0  0  0  0
   49.5467   31.0221   51.6191 H   0  0  0  0  0  0  0  0  0  0  0  0
   51.1992   28.8065   51.7820 H   0  0  0  0  0  0  0  0  0  0  0  0
   49.4511   28.7739   51.3720 H   0  0  0  0  0  0  0  0  0  0  0  0
   51.7306   29.0616   49.3447 H   0  0  0  0  0  0  0  0  0  0  0  0
   50.8577   27.5355   49.7027 H   0  0  0  0  0  0  0  0  0  0  0  0
   48.8332   28.3338   48.8069 H   0  0  0  0  0  0  0  0  0  0  0  0
   50.0708   29.0163   47.6883 H   0  0  0  0  0  0  0  0  0  0  0  0
   44.7379   32.4349   46.5199 H   0  0  0  0  0  0  0  0  0  0  0  0
   45.4649   33.9520   47.1901 H   0  0  0  0  0  0  0  0  0  0  0  0
   45.2653   34.5393   44.5969 H   0  0  0  0  0  0  0  0  0  0  0  0
   47.4088   32.5259   45.4620 H   0  0  0  0  0  0  0  0  0  0  0  0
   46.1668   35.7655   42.4926 H   0  0  0  0  0  0  0  0  0  0  0  0
   47.7941   35.7255   40.5780 H   0  0  0  0  0  0  0  0  0  0  0  0
   51.1728   33.0902   40.5694 H   0  0  0  0  0  0  0  0  0  0  0  0
   52.8036   31.1859   40.4728 H   0  0  0  0  0  0  0  0  0  0  0  0
   52.2440   29.1346   42.0697 H   0  0  0  0  0  0  0  0  0  0  0  0
  1  2  2  0
  2  3  1  0
  4  6  1  0
  4  3  1  0
  5  1  1  0
  5  4  2  0
  6  7  1  0
  7  8  1  0
  8  9  1  0
 10  9  1  0
 11  6  1  0
 11 10  1  0
 12  1  1  0
 13 14  2  0
 14 12  1  0
 15 13  1  0
 16 15  2  0
 17 16  1  0
 18 17  2  0
 18 19  1  0
 19 20  2  0
 20 15  1  0
 21 19  1  0
 21 25  1  0
 22 21  2  0
 23 22  1  0
 23 24  2  0
 24 25  1  0
  2 26  1  0
  3 27  1  0
  7 28  1  0
  7 29  1  0
  8 30  1  0
  8 31  1  0
  9 32  1  0
  9 33  1  0
 10 34  1  0
 10 35  1  0
 11 36  1  0
 11 37  1  0
 12 38  1  0
 12 39  1  0
 13 40  1  0
 14 41  1  0
 16 42  1  0
 17 43  1  0
 22 44  1  0
 23 45  1  0
 24 46  1  0
M  ISO  8  26  14  27   9  28  13  29  13  30  13  31  13  32  13  33  13
M  ISO  8  34  13  35  13  36  13  37  13  38   8  39   8  42  14  43  14
M  ISO  3  44  14  45  14  46  14
M  END
>  <minimizedAffinity>  (1) 
-5.91285467

>  <minimizedRMSD>  (1) 
0.372668982

$$$$
