
     RDKit          3D

 49 52  0  0  0  0  0  0  0  0999 V2000
   46.3810   32.1820   47.8060 C   0  0  0  0  0  0  0  0  0  0  0  0
   45.9200   31.8360   49.0420 C   0  0  0  0  0  0  0  0  0  0  0  0
   46.9000   31.1410   49.6270 N   0  0  0  0  0  0  0  0  0  0  0  0
   47.9670   31.0230   48.8250 C   0  0  0  0  0  0  0  0  0  0  0  0
   47.6300   31.6830   47.6780 N   0  0  0  0  0  0  0  0  0  0  0  0
   49.2210   30.3860   49.0010 N   0  0  0  0  0  0  0  0  0  0  0  0
   50.3100   31.1860   49.6040 C   0  0  0  0  0  0  0  0  0  0  0  0
   50.4160   30.6720   51.0400 C   0  0  0  0  0  0  0  0  0  0  0  0
   50.4340   29.1490   51.0450 C   0  0  0  0  0  0  0  0  0  0  0  0
   50.7600   28.6390   49.6560 C   0  0  0  0  0  0  0  0  0  0  0  0
   49.6720   29.0650   48.7010 C   0  0  0  0  0  0  0  0  0  0  0  0
   45.6600   32.9680   46.7630 C   0  0  0  0  0  0  0  0  0  0  0  0
   46.1520   33.9380   44.5560 C   0  0  0  0  0  0  0  0  0  0  0  0
   46.4730   33.1250   45.5500 C   0  0  0  0  0  0  0  0  0  0  0  0
   47.0560   33.9960   43.4030 C   0  0  0  0  0  0  0  0  0  0  0  0
   46.9470   35.0010   42.4150 C   0  0  0  0  0  0  0  0  0  0  0  0
   47.8380   34.9790   41.3680 C   0  0  0  0  0  0  0  0  0  0  0  0
   48.7810   34.0140   41.3060 N   0  0  0  0  0  0  0  0  0  0  0  0
   48.8640   33.0610   42.2660 C   0  0  0  0  0  0  0  0  0  0  0  0
   48.0310   33.0460   43.2860 N   0  0  0  0  0  0  0  0  0  0  0  0
   49.9200   32.0690   42.0980 C   0  0  0  0  0  0  0  0  0  0  0  0
   50.0070   30.9120   42.8360 C   0  0  0  0  0  0  0  0  0  0  0  0
   50.9850   29.9600   42.7020 C   0  0  0  0  0  0  0  0  0  0  0  0
   51.9330   30.2400   41.7340 C   0  0  0  0  0  0  0  0  0  0  0  0
   51.9580   31.3630   40.9300 C   0  0  0  0  0  0  0  0  0  0  0  0
   50.9150   32.2470   41.1630 C   0  0  0  0  0  0  0  0  0  0  0  0
   44.9373   32.0803   49.4717 H   0  0  0  0  0  0  0  0  0  0  0  0
   46.8424   30.7453   50.5762 H   0  0  0  0  0  0  0  0  0  0  0  0
   51.2546   31.0260   49.0635 H   0  0  0  0  0  0  0  0  0  0  0  0
   50.1070   32.2663   49.5614 H   0  0  0  0  0  0  0  0  0  0  0  0
   51.3437   31.0493   51.4950 H   0  0  0  0  0  0  0  0  0  0  0  0
   49.5486   31.0260   51.6165 H   0  0  0  0  0  0  0  0  0  0  0  0
   51.1971   28.7944   51.7534 H   0  0  0  0  0  0  0  0  0  0  0  0
   49.4458   28.7734   51.3490 H   0  0  0  0  0  0  0  0  0  0  0  0
   51.7225   29.0579   49.3271 H   0  0  0  0  0  0  0  0  0  0  0  0
   50.8271   27.5412   49.6726 H   0  0  0  0  0  0  0  0  0  0  0  0
   48.8256   28.3675   48.7847 H   0  0  0  0  0  0  0  0  0  0  0  0
   50.0774   29.0552   47.6785 H   0  0  0  0  0  0  0  0  0  0  0  0
   44.7272   32.4461   46.5031 H   0  0  0  0  0  0  0  0  0  0  0  0
   45.4488   33.9683   47.1690 H   0  0  0  0  0  0  0  0  0  0  0  0
   45.2382   34.5493   44.5936 H   0  0  0  0  0  0  0  0  0  0  0  0
   47.3977   32.5357   45.4629 H   0  0  0  0  0  0  0  0  0  0  0  0
   46.1716   35.7784   42.4818 H   0  0  0  0  0  0  0  0  0  0  0  0
   47.7829   35.7464   40.5818 H   0  0  0  0  0  0  0  0  0  0  0  0
   49.2300   30.7360   43.5945 H   0  0  0  0  0  0  0  0  0  0  0  0
   51.0134   29.0471   43.3150 H   0  0  0  0  0  0  0  0  0  0  0  0
   52.7377   29.5035   41.5921 H   0  0  0  0  0  0  0  0  0  0  0  0
   52.7357   31.5403   40.1726 H   0  0  0  0  0  0  0  0  0  0  0  0
   50.8799   33.1618   40.5532 H   0  0  0  0  0  0  0  0  0  0  0  0
  1  2  2  0
  2  3  1  0
  4  6  1  0
  4  3  1  0
  5  1  1  0
  5  4  2  0
  6  7  1  0
  7  8  1  0
  8  9  1  0
 10  9  1  0
 11  6  1  0
 11 10  1  0
 12  1  1  0
 13 14  2  0
 14 12  1  0
 15 13  1  0
 16 15  2  0
 17 16  1  0
 18 17  2  0
 18 19  1  0
 19 20  2  0
 20 15  1  0
 21 19  1  0
 21 22  2  0
 23 22  1  0
 24 23  2  0
 25 26  2  0
 25 24  1  0
 26 21  1  0
  2 27  1  0
  3 28  1  0
  7 29  1  0
  7 30  1  0
  8 31  1  0
  8 32  1  0
  9 33  1  0
  9 34  1  0
 10 35  1  0
 10 36  1  0
 11 37  1  0
 11 38  1  0
 12 39  1  0
 12 40  1  0
 13 41  1  0
 14 42  1  0
 16 43  1  0
 17 44  1  0
 22 45  1  0
 23 46  1  0
 24 47  1  0
 25 48  1  0
 26 49  1  0
M  ISO  8  27  14  28   9  29  13  30  13  31  13  32  13  33  13  34  13
M  ISO  8  35  13  36  13  37  13  38  13  39   8  40   8  43  14  44  14
M  ISO  5  45  14  46  14  47  14  48  14  49  14
M  END
>  <minimizedAffinity>  (1) 
-6.10632515

>  <minimizedRMSD>  (1) 
0.469394833

$$$$
