
     RDKit          3D

 40 42  0  0  0  0  0  0  0  0999 V2000
   46.3510   32.1940   47.8110 C   0  0  0  0  0  0  0  0  0  0  0  0
   45.8860   31.7960   49.0270 C   0  0  0  0  0  0  0  0  0  0  0  0
   46.8830   31.1300   49.6110 N   0  0  0  0  0  0  0  0  0  0  0  0
   47.9590   31.0850   48.8270 C   0  0  0  0  0  0  0  0  0  0  0  0
   47.6120   31.7590   47.6950 N   0  0  0  0  0  0  0  0  0  0  0  0
   49.2530   30.4970   49.0020 N   0  0  0  0  0  0  0  0  0  0  0  0
   50.2840   31.3020   49.6650 C   0  0  0  0  0  0  0  0  0  0  0  0
   50.3840   30.7080   51.0660 C   0  0  0  0  0  0  0  0  0  0  0  0
   50.4790   29.2020   50.9980 C   0  0  0  0  0  0  0  0  0  0  0  0
   50.8390   28.7690   49.5880 C   0  0  0  0  0  0  0  0  0  0  0  0
   49.7530   29.2010   48.6330 C   0  0  0  0  0  0  0  0  0  0  0  0
   45.6040   32.9750   46.7800 C   0  0  0  0  0  0  0  0  0  0  0  0
   46.0080   33.8610   44.5140 C   0  0  0  0  0  0  0  0  0  0  0  0
   46.4490   33.2550   45.6030 C   0  0  0  0  0  0  0  0  0  0  0  0
   46.9610   34.0690   43.4250 C   0  0  0  0  0  0  0  0  0  0  0  0
   46.6790   34.9670   42.3540 C   0  0  0  0  0  0  0  0  0  0  0  0
   47.6350   35.1050   41.3650 C   0  0  0  0  0  0  0  0  0  0  0  0
   48.7830   34.3990   41.4430 N   0  0  0  0  0  0  0  0  0  0  0  0
   49.0250   33.5510   42.4750 C   0  0  0  0  0  0  0  0  0  0  0  0
   48.1280   33.3960   43.4410 N   0  0  0  0  0  0  0  0  0  0  0  0
   50.2520   32.8690   42.4550 O   0  0  0  0  0  0  0  0  0  0  0  0
   44.8864   31.9860   49.4449 H   0  0  0  0  0  0  0  0  0  0  0  0
   46.8281   30.7051   50.5477 H   0  0  0  0  0  0  0  0  0  0  0  0
   51.2448   31.2166   49.1362 H   0  0  0  0  0  0  0  0  0  0  0  0
   50.0352   32.3734   49.6799 H   0  0  0  0  0  0  0  0  0  0  0  0
   51.2809   31.1049   51.5640 H   0  0  0  0  0  0  0  0  0  0  0  0
   49.4821   30.9818   51.6331 H   0  0  0  0  0  0  0  0  0  0  0  0
   51.2550   28.8538   51.6956 H   0  0  0  0  0  0  0  0  0  0  0  0
   49.5076   28.7655   51.2735 H   0  0  0  0  0  0  0  0  0  0  0  0
   51.7914   29.2343   49.2940 H   0  0  0  0  0  0  0  0  0  0  0  0
   50.9390   27.6740   49.5564 H   0  0  0  0  0  0  0  0  0  0  0  0
   48.9301   28.4717   48.6648 H   0  0  0  0  0  0  0  0  0  0  0  0
   50.1697   29.2536   47.6163 H   0  0  0  0  0  0  0  0  0  0  0  0
   44.7245   32.3969   46.4603 H   0  0  0  0  0  0  0  0  0  0  0  0
   45.2990   33.9339   47.2244 H   0  0  0  0  0  0  0  0  0  0  0  0
   44.9636   34.1960   44.4304 H   0  0  0  0  0  0  0  0  0  0  0  0
   47.5032   32.9424   45.6335 H   0  0  0  0  0  0  0  0  0  0  0  0
   45.7346   35.5298   42.3161 H   0  0  0  0  0  0  0  0  0  0  0  0
   47.4612   35.7864   40.5191 H   0  0  0  0  0  0  0  0  0  0  0  0
   50.4797   32.2383   43.1833 H   0  0  0  0  0  0  0  0  0  0  0  0
  1  2  2  0
  2  3  1  0
  4  6  1  0
  4  3  1  0
  5  1  1  0
  5  4  2  0
  6  7  1  0
  7  8  1  0
  9  8  1  0
 10  9  1  0
 11  6  1  0
 11 10  1  0
 12  1  1  0
 13 14  2  0
 14 12  1  0
 15 20  1  0
 15 13  1  0
 16 15  2  0
 17 18  2  0
 17 16  1  0
 18 19  1  0
 19 20  2  0
 21 19  1  0
  2 22  1  0
  3 23  1  0
  7 24  1  0
  7 25  1  0
  8 26  1  0
  8 27  1  0
  9 28  1  0
  9 29  1  0
 10 30  1  0
 10 31  1  0
 11 32  1  0
 11 33  1  0
 12 34  1  0
 12 35  1  0
 13 36  1  0
 14 37  1  0
 16 38  1  0
 17 39  1  0
 21 40  1  0
M  ISO  8  22  14  23   9  24  13  25  13  26  13  27  13  28  13  29  13
M  ISO  8  30  13  31  13  32  13  33  13  34   8  35   8  38  14  39  14
M  ISO  1  40   3
M  END
>  <minimizedAffinity>  (1) 
-5.65182304

>  <minimizedRMSD>  (1) 
0.168258429

$$$$
