
     RDKit          3D

 28 29  0  0  0  0  0  0  0  0999 V2000
   45.4540   34.5230   44.9050 C   0  0  0  0  0  0  0  0  0  0  0  0
   46.2270   34.2930   43.7580 C   0  0  0  0  0  0  0  0  0  0  0  0
   47.1440   33.2270   43.8050 C   0  0  0  0  0  0  0  0  0  0  0  0
   47.2360   32.4880   44.9370 N   0  0  0  0  0  0  0  0  0  0  0  0
   46.4500   32.7650   46.0260 C   0  0  0  0  0  0  0  0  0  0  0  0
   45.5670   33.7770   46.0060 N   0  0  0  0  0  0  0  0  0  0  0  0
   46.5700   31.9710   47.1970 N   0  0  0  0  0  0  0  0  0  0  0  0
   47.2660   30.6790   47.1490 C   0  0  0  0  0  0  0  0  0  0  0  0
   46.3630   29.6430   47.7330 C   0  0  0  0  0  0  0  0  0  0  0  0
   44.9830   30.1720   48.0660 C   0  0  0  0  0  0  0  0  0  0  0  0
   45.0560   31.3620   48.9940 C   0  0  0  0  0  0  0  0  0  0  0  0
   46.0160   32.4020   48.4620 C   0  0  0  0  0  0  0  0  0  0  0  0
   44.4770   35.6640   44.8430 C   0  0  0  0  0  0  0  0  0  0  0  0
   46.1210   34.9192   42.8599 H   0  0  0  0  0  0  0  0  0  0  0  0
   47.7771   32.9968   42.9354 H   0  0  0  0  0  0  0  0  0  0  0  0
   47.5030   30.4218   46.1061 H   0  0  0  0  0  0  0  0  0  0  0  0
   48.2051   30.7309   47.7194 H   0  0  0  0  0  0  0  0  0  0  0  0
   46.2572   28.8228   47.0077 H   0  0  0  0  0  0  0  0  0  0  0  0
   46.8195   29.3057   48.6753 H   0  0  0  0  0  0  0  0  0  0  0  0
   44.4819   30.4749   47.1348 H   0  0  0  0  0  0  0  0  0  0  0  0
   44.4198   29.3737   48.5716 H   0  0  0  0  0  0  0  0  0  0  0  0
   44.0552   31.8091   49.0860 H   0  0  0  0  0  0  0  0  0  0  0  0
   45.4157   31.0208   49.9759 H   0  0  0  0  0  0  0  0  0  0  0  0
   46.8320   32.5469   49.1853 H   0  0  0  0  0  0  0  0  0  0  0  0
   45.4738   33.3474   48.3125 H   0  0  0  0  0  0  0  0  0  0  0  0
   44.2109   35.9748   45.8641 H   0  0  0  0  0  0  0  0  0  0  0  0
   44.9348   36.5102   44.3098 H   0  0  0  0  0  0  0  0  0  0  0  0
   43.5704   35.3419   44.3098 H   0  0  0  0  0  0  0  0  0  0  0  0
  1  6  2  0
  2  3  2  0
  2  1  1  0
  3  4  1  0
  4  5  2  0
  5  7  1  0
  6  5  1  0
  7 12  1  0
  8  7  1  0
  8  9  1  0
  9 10  1  0
 10 11  1  0
 12 11  1  0
 13  1  1  0
  2 14  1  0
  3 15  1  0
  8 16  1  0
  8 17  1  0
  9 18  1  0
  9 19  1  0
 10 20  1  0
 10 21  1  0
 11 22  1  0
 11 23  1  0
 12 24  1  0
 12 25  1  0
 13 26  1  0
 13 27  1  0
 13 28  1  0
M  ISO  8  14  14  15  14  16  13  17  13  18  13  19  13  20  13  21  13
M  ISO  7  22  13  23  13  24  13  25  13  26   8  27   8  28   8
M  END
>  <minimizedAffinity>  (1) 
-4.66924953

>  <minimizedRMSD>  (1) 
2.33132958

$$$$
