
     RDKit          3D

 20 21  0  0  0  0  0  0  0  0999 V2000
   46.2630   33.8590   44.7410 C   0  0  0  0  0  0  0  0  0  0  0  0
   45.1520   34.7150   44.8620 C   0  0  0  0  0  0  0  0  0  0  0  0
   44.9110   35.6430   43.8390 C   0  0  0  0  0  0  0  0  0  0  0  0
   45.7650   35.6630   42.7880 N   0  0  0  0  0  0  0  0  0  0  0  0
   46.8250   34.8250   42.7020 C   0  0  0  0  0  0  0  0  0  0  0  0
   47.0660   33.9260   43.6830 N   0  0  0  0  0  0  0  0  0  0  0  0
   46.5090   32.8720   45.8380 C   0  0  0  0  0  0  0  0  0  0  0  0
   47.7610   34.8530   41.5400 C   0  0  0  0  0  0  0  0  0  0  0  0
   49.1490   34.3120   41.7230 C   0  0  0  0  0  0  0  0  0  0  0  0
   48.8980   35.7960   41.6610 C   0  0  0  0  0  0  0  0  0  0  0  0
   44.4890   34.6572   45.7379 H   0  0  0  0  0  0  0  0  0  0  0  0
   44.0556   36.3328   43.8884 H   0  0  0  0  0  0  0  0  0  0  0  0
   46.3854   33.3680   46.8120 H   0  0  0  0  0  0  0  0  0  0  0  0
   45.7898   32.0439   45.7543 H   0  0  0  0  0  0  0  0  0  0  0  0
   47.5327   32.4783   45.7543 H   0  0  0  0  0  0  0  0  0  0  0  0
   46.9649   34.6608   40.8056 H   0  0  0  0  0  0  0  0  0  0  0  0
   49.4370   33.8395   42.6737 H   0  0  0  0  0  0  0  0  0  0  0  0
   49.7912   33.6028   41.1802 H   0  0  0  0  0  0  0  0  0  0  0  0
   49.2288   36.3728   40.7847 H   0  0  0  0  0  0  0  0  0  0  0  0
   49.1316   36.6505   42.3131 H   0  0  0  0  0  0  0  0  0  0  0  0
  1  2  2  0
  1  7  1  0
  3  2  1  0
  4  3  2  0
  5  4  1  0
  5  6  2  0
  6  1  1  0
  8 10  1  0
  8  9  1  0
  8  5  1  0
 10  9  1  0
  2 11  1  0
  3 12  1  0
  7 13  1  0
  7 14  1  0
  7 15  1  0
  8 16  1  0
  9 17  1  0
  9 18  1  0
 10 19  1  0
 10 20  1  0
M  ISO  8  11  14  12  14  13   8  14   8  15   8  16  13  17  13  18  13
M  ISO  2  19  13  20  13
M  END
>  <minimizedAffinity>  (1) 
-3.96725345

>  <minimizedRMSD>  (1) 
4.97255707

$$$$
