
     RDKit          3D

 14 14  0  0  0  0  0  0  0  0999 V2000
   45.3870   35.0510   44.1580 C   0  0  0  0  0  0  0  0  0  0  0  0
   46.4180   34.2180   43.7260 C   0  0  0  0  0  0  0  0  0  0  0  0
   46.8600   33.2170   44.6220 C   0  0  0  0  0  0  0  0  0  0  0  0
   46.2700   33.1190   45.8330 N   0  0  0  0  0  0  0  0  0  0  0  0
   45.2620   33.9650   46.2040 C   0  0  0  0  0  0  0  0  0  0  0  0
   44.8320   34.9220   45.3600 N   0  0  0  0  0  0  0  0  0  0  0  0
   44.9240   36.1070   43.2080 C   0  0  0  0  0  0  0  0  0  0  0  0
   44.6270   33.9010   47.4390 O   0  0  0  0  0  0  0  0  0  0  0  0
   46.8690   34.3345   42.7295 H   0  0  0  0  0  0  0  0  0  0  0  0
   47.6705   32.5299   44.3375 H   0  0  0  0  0  0  0  0  0  0  0  0
   44.5456   36.9701   43.7753 H   0  0  0  0  0  0  0  0  0  0  0  0
   45.7653   36.4248   42.5746 H   0  0  0  0  0  0  0  0  0  0  0  0
   44.1202   35.7035   42.5746 H   0  0  0  0  0  0  0  0  0  0  0  0
   43.9019   34.5390   47.6564 H   0  0  0  0  0  0  0  0  0  0  0  0
  1  6  2  0
  2  1  1  0
  2  3  2  0
  3  4  1  0
  4  5  2  0
  5  8  1  0
  6  5  1  0
  7  1  1  0
  2  9  1  0
  3 10  1  0
  7 11  1  0
  7 12  1  0
  7 13  1  0
  8 14  1  0
M  ISO  6   9  14  10  14  11   8  12   8  13   8  14   3
M  END
>  <minimizedAffinity>  (1) 
-3.55126309

>  <minimizedRMSD>  (1) 
0.259360194

$$$$
