
     RDKit          3D

 15 15  0  0  0  0  0  0  0  0999 V2000
   45.4120   34.8510   44.3830 C   0  0  0  0  0  0  0  0  0  0  0  0
   46.3770   34.4710   43.4440 C   0  0  0  0  0  0  0  0  0  0  0  0
   47.2270   33.4120   43.7720 C   0  0  0  0  0  0  0  0  0  0  0  0
   47.0720   32.8040   44.9880 N   0  0  0  0  0  0  0  0  0  0  0  0
   46.1200   33.2120   45.8570 C   0  0  0  0  0  0  0  0  0  0  0  0
   45.2900   34.2290   45.5650 N   0  0  0  0  0  0  0  0  0  0  0  0
   44.5070   35.9850   44.0220 C   0  0  0  0  0  0  0  0  0  0  0  0
   46.0410   32.4930   47.1260 C   0  0  0  0  0  0  0  0  0  0  0  0
   45.0930   32.7720   47.9050 O   0  0  0  0  0  0  0  0  0  0  0  0
   46.4637   34.9897   42.4779 H   0  0  0  0  0  0  0  0  0  0  0  0
   48.0029   33.0747   43.0690 H   0  0  0  0  0  0  0  0  0  0  0  0
   44.1289   36.4588   44.9399 H   0  0  0  0  0  0  0  0  0  0  0  0
   45.0651   36.7255   43.4303 H   0  0  0  0  0  0  0  0  0  0  0  0
   43.6612   35.6050   43.4303 H   0  0  0  0  0  0  0  0  0  0  0  0
   46.7877   31.7306   47.3926 H   0  0  0  0  0  0  0  0  0  0  0  0
  1  6  2  0
  2  3  2  0
  2  1  1  0
  3  4  1  0
  4  5  2  0
  5  8  1  0
  6  5  1  0
  7  1  1  0
  8  9  2  0
  2 10  1  0
  3 11  1  0
  7 12  1  0
  7 13  1  0
  7 14  1  0
  8 15  1  0
M  ISO  6  10  14  11  14  12   8  13   8  14   8  15   6
M  END
>  <minimizedAffinity>  (1) 
-3.1538527

>  <minimizedRMSD>  (1) 
1.03006864

$$$$
