
     RDKit          3D

 19 19  0  0  0  0  0  0  0  0999 V2000
   45.5010   34.9130   44.1460 C   0  0  0  0  0  0  0  0  0  0  0  0
   46.5450   34.2270   43.5210 C   0  0  0  0  0  0  0  0  0  0  0  0
   47.1480   33.1680   44.2200 C   0  0  0  0  0  0  0  0  0  0  0  0
   46.6820   32.8750   45.4530 N   0  0  0  0  0  0  0  0  0  0  0  0
   45.6650   33.5690   46.0220 C   0  0  0  0  0  0  0  0  0  0  0  0
   45.0710   34.5960   45.3600 N   0  0  0  0  0  0  0  0  0  0  0  0
   44.8670   36.0390   43.3940 C   0  0  0  0  0  0  0  0  0  0  0  0
   45.3060   33.1430   47.2940 O   0  0  0  0  0  0  0  0  0  0  0  0
   45.3380   31.7180   49.4440 O   0  0  0  0  0  0  0  0  0  0  0  0
   45.6110   31.6180   47.9400 P   0  0  0  0  0  0  0  0  0  0  0  0
   44.6030   30.4060   47.3450 O   0  0  0  0  0  0  0  0  0  0  0  0
   47.2140   31.1670   47.6490 O   0  0  0  0  0  0  0  0  0  0  0  0
   46.8844   34.5072   42.5129 H   0  0  0  0  0  0  0  0  0  0  0  0
   47.9751   32.5946   43.7761 H   0  0  0  0  0  0  0  0  0  0  0  0
   44.4556   36.7697   44.1059 H   0  0  0  0  0  0  0  0  0  0  0  0
   45.6221   36.5285   42.7614 H   0  0  0  0  0  0  0  0  0  0  0  0
   44.0569   35.6472   42.7614 H   0  0  0  0  0  0  0  0  0  0  0  0
   44.1948   29.9152   48.1017 H   0  0  0  0  0  0  0  0  0  0  0  0
   47.6816   31.0354   48.5116 H   0  0  0  0  0  0  0  0  0  0  0  0
  1  6  2  0
  2  1  1  0
  2  3  2  0
  3  4  1  0
  4  5  2  0
  5  8  1  0
  6  5  1  0
  7  1  1  0
  8 10  1  0
 10  9  2  0
 11 10  1  0
 12 10  1  0
  2 13  1  0
  3 14  1  0
  7 15  1  0
  7 16  1  0
  7 17  1  0
 11 18  1  0
 12 19  1  0
M  ISO  7  13  14  14  14  15   8  16   8  17   8  18   3  19   3
M  END
>  <minimizedAffinity>  (1) 
-4.05544996

>  <minimizedRMSD>  (1) 
0.880053937

$$$$
