
     RDKit          3D

 32 33  0  0  1  0  0  0  0  0999 V2000
   45.3440   31.2080   49.5390 O   0  0  0  0  0  0  0  0  0  0  0  0
   45.6960   31.2260   48.0460 P   0  0  1  0  0  0  0  0  0  0  0  0
   44.5180   30.3210   47.2490 O   0  0  0  0  0  0  0  0  0  0  0  0
   45.7360   32.8490   47.5880 O   0  0  0  0  0  0  0  0  0  0  0  0
   45.3900   34.6740   44.4900 C   0  0  0  0  0  0  0  0  0  0  0  0
   46.3800   34.0680   43.7030 C   0  0  0  0  0  0  0  0  0  0  0  0
   47.1330   33.0400   44.2900 C   0  0  0  0  0  0  0  0  0  0  0  0
   46.8640   32.6920   45.5760 N   0  0  0  0  0  0  0  0  0  0  0  0
   45.8980   33.3130   46.2800 C   0  0  0  0  0  0  0  0  0  0  0  0
   45.1370   34.3200   45.7520 N   0  0  0  0  0  0  0  0  0  0  0  0
   44.5900   35.7680   43.8630 C   0  0  0  0  0  0  0  0  0  0  0  0
   47.1950   30.5090   47.7790 O   0  0  0  0  0  0  0  0  0  0  0  0
   49.0690   29.6900   49.0480 C   0  0  2  0  0  0  0  0  0  0  0  0
   47.9700   30.7470   48.9080 C   0  0  1  0  0  0  0  0  0  0  0  0
   48.6960   31.9070   48.8040 O   0  0  0  0  0  0  0  0  0  0  0  0
   49.7700   31.8320   49.6520 C   0  0  0  0  0  0  0  0  0  0  0  0
   49.9160   30.3980   50.1130 C   0  0  2  0  0  0  0  0  0  0  0  0
   49.8410   29.6670   47.8990 O   0  0  0  0  0  0  0  0  0  0  0  0
   51.2070   29.9360   50.1250 O   0  0  0  0  0  0  0  0  0  0  0  0
   43.9375   29.8750   47.9155 H   0  0  0  0  0  0  0  0  0  0  0  0
   46.5592   34.3864   42.6655 H   0  0  0  0  0  0  0  0  0  0  0  0
   47.9233   32.5272   43.7222 H   0  0  0  0  0  0  0  0  0  0  0  0
   44.1365   36.3881   44.6503 H   0  0  0  0  0  0  0  0  0  0  0  0
   45.2471   36.3910   43.2384 H   0  0  0  0  0  0  0  0  0  0  0  0
   43.7971   35.3307   43.2384 H   0  0  0  0  0  0  0  0  0  0  0  0
   48.7162   28.6684   49.2523 H   0  0  0  0  0  0  0  0  0  0  0  0
   47.2504   30.7640   49.7398 H   0  0  0  0  0  0  0  0  0  0  0  0
   50.6824   32.1473   49.1246 H   0  0  0  0  0  0  0  0  0  0  0  0
   49.6149   32.4931   50.5174 H   0  0  0  0  0  0  0  0  0  0  0  0
   49.6072   30.2408   51.1570 H   0  0  0  0  0  0  0  0  0  0  0  0
   50.7993   29.6384   48.1458 H   0  0  0  0  0  0  0  0  0  0  0  0
   51.5100   29.8276   51.0612 H   0  0  0  0  0  0  0  0  0  0  0  0
  2  1  2  0
  3  2  1  0
  4  2  1  0
  5 10  2  0
  6  7  2  0
  6  5  1  0
  7  8  1  0
  8  9  2  0
  9  4  1  0
 10  9  1  0
 11  5  1  0
 12  2  1  0
 13 18  1  0
 13 17  1  0
 14 12  1  0
 14 13  1  0
 15 14  1  0
 15 16  1  0
 16 17  1  0
 17 19  1  0
  3 20  1  0
  6 21  1  0
  7 22  1  0
 11 23  1  0
 11 24  1  0
 11 25  1  0
 13 26  1  1
 14 27  1  1
 16 28  1  0
 16 29  1  0
 17 30  1  1
 18 31  1  0
 19 32  1  0
M  ISO  8  20   3  21  14  22  14  23   8  24   8  25   8  26  13  27  13
M  ISO  5  28  13  29  13  30  13  31   3  32   3
M  END
>  <minimizedAffinity>  (1) 
-5.01698828

>  <minimizedRMSD>  (1) 
0.985707998

$$$$
