
     RDKit          3D

 30 31  0  0  0  0  0  0  0  0999 V2000
   45.2340   34.6960   44.8300 C   0  0  0  0  0  0  0  0  0  0  0  0
   46.0670   34.3770   43.7570 C   0  0  0  0  0  0  0  0  0  0  0  0
   46.9950   33.3510   43.9630 C   0  0  0  0  0  0  0  0  0  0  0  0
   47.0290   32.7390   45.1750 N   0  0  0  0  0  0  0  0  0  0  0  0
   46.1970   33.0880   46.1870 C   0  0  0  0  0  0  0  0  0  0  0  0
   45.2980   34.0670   46.0170 N   0  0  0  0  0  0  0  0  0  0  0  0
   46.2910   32.4030   47.4240 N   0  0  0  0  0  0  0  0  0  0  0  0
   45.1610   31.6730   47.9570 C   0  0  0  0  0  0  0  0  0  0  0  0
   45.4580   31.3970   49.4320 C   0  0  0  0  0  0  0  0  0  0  0  0
   46.5860   30.5180   49.4520 N   0  0  0  0  0  0  0  0  0  0  0  0
   47.7620   31.1820   48.9790 C   0  0  0  0  0  0  0  0  0  0  0  0
   47.5260   32.4210   48.1810 C   0  0  0  0  0  0  0  0  0  0  0  0
   45.9270   35.1080   42.5170 C   0  0  0  0  0  0  0  0  0  0  0  0
   47.2110   34.9460   41.7220 C   0  0  0  0  0  0  0  0  0  0  0  0
   44.4921   35.4975   44.6992 H   0  0  0  0  0  0  0  0  0  0  0  0
   47.6827   33.0462   43.1604 H   0  0  0  0  0  0  0  0  0  0  0  0
   44.2449   32.2746   47.8629 H   0  0  0  0  0  0  0  0  0  0  0  0
   45.0075   30.7332   47.4064 H   0  0  0  0  0  0  0  0  0  0  0  0
   45.6955   32.3348   49.9555 H   0  0  0  0  0  0  0  0  0  0  0  0
   44.5908   30.9494   49.9395 H   0  0  0  0  0  0  0  0  0  0  0  0
   46.7458   30.1970   50.4176 H   0  0  0  0  0  0  0  0  0  0  0  0
   48.3721   31.4535   49.8531 H   0  0  0  0  0  0  0  0  0  0  0  0
   48.2537   30.4734   48.2963 H   0  0  0  0  0  0  0  0  0  0  0  0
   48.3623   32.5447   47.4772 H   0  0  0  0  0  0  0  0  0  0  0  0
   47.4509   33.2532   48.8964 H   0  0  0  0  0  0  0  0  0  0  0  0
   45.0798   34.7063   41.9417 H   0  0  0  0  0  0  0  0  0  0  0  0
   45.7397   36.1722   42.7228 H   0  0  0  0  0  0  0  0  0  0  0  0
   48.0595   34.8389   42.4138 H   0  0  0  0  0  0  0  0  0  0  0  0
   47.1393   34.0498   41.0882 H   0  0  0  0  0  0  0  0  0  0  0  0
   47.3641   35.8319   41.0882 H   0  0  0  0  0  0  0  0  0  0  0  0
  1  6  2  0
  2  3  2  0
  2  1  1  0
  3  4  1  0
  4  5  2  0
  5  7  1  0
  6  5  1  0
  7  8  1  0
  7 12  1  0
  8  9  1  0
  9 10  1  0
 11 10  1  0
 12 11  1  0
 13  2  1  0
 14 13  1  0
  1 15  1  0
  3 16  1  0
  8 17  1  0
  8 18  1  0
  9 19  1  0
  9 20  1  0
 10 21  1  0
 11 22  1  0
 11 23  1  0
 12 24  1  0
 12 25  1  0
 13 26  1  0
 13 27  1  0
 14 28  1  0
 14 29  1  0
 14 30  1  0
M  ISO  8  15  14  16  14  17  13  18  13  19  13  20  13  21   5  22  13
M  ISO  8  23  13  24  13  25  13  26   8  27   8  28   8  29   8  30   8
M  END
>  <minimizedAffinity>  (1) 
-5.15277386

>  <minimizedRMSD>  (1) 
1.56319273

$$$$
