
     RDKit          3D

 22 22  0  0  0  0  0  0  0  0999 V2000
   45.2840   35.1150   44.0170 C   0  0  0  0  0  0  0  0  0  0  0  0
   46.3620   34.5940   43.3060 C   0  0  0  0  0  0  0  0  0  0  0  0
   47.0930   33.5720   43.9120 C   0  0  0  0  0  0  0  0  0  0  0  0
   46.7210   33.1410   45.1450 N   0  0  0  0  0  0  0  0  0  0  0  0
   45.6650   33.6740   45.8060 C   0  0  0  0  0  0  0  0  0  0  0  0
   44.9500   34.6570   45.2420 N   0  0  0  0  0  0  0  0  0  0  0  0
   46.6770   35.1170   41.9990 C   0  0  0  0  0  0  0  0  0  0  0  0
   48.1830   35.2450   41.8580 C   0  0  0  0  0  0  0  0  0  0  0  0
   45.3000   33.2250   47.0570 O   0  0  0  0  0  0  0  0  0  0  0  0
   45.6160   32.0640   49.3630 O   0  0  0  0  0  0  0  0  0  0  0  0
   46.2780   32.2040   48.0130 P   0  0  0  0  0  0  0  0  0  0  0  0
   46.4030   30.6390   47.3380 O   0  0  0  0  0  0  0  0  0  0  0  0
   47.7970   32.8960   48.1220 O   0  0  0  0  0  0  0  0  0  0  0  0
   44.6877   35.9227   43.5676 H   0  0  0  0  0  0  0  0  0  0  0  0
   47.9565   33.1226   43.3996 H   0  0  0  0  0  0  0  0  0  0  0  0
   46.2927   34.4335   41.2276 H   0  0  0  0  0  0  0  0  0  0  0  0
   46.2106   36.1056   41.8761 H   0  0  0  0  0  0  0  0  0  0  0  0
   48.6428   35.2841   42.8565 H   0  0  0  0  0  0  0  0  0  0  0  0
   48.5748   34.3769   41.3076 H   0  0  0  0  0  0  0  0  0  0  0  0
   48.4227   36.1668   41.3076 H   0  0  0  0  0  0  0  0  0  0  0  0
   46.4565   29.9693   48.0651 H   0  0  0  0  0  0  0  0  0  0  0  0
   48.0413   33.0073   49.0749 H   0  0  0  0  0  0  0  0  0  0  0  0
  1  6  2  0
  2  3  2  0
  2  1  1  0
  3  4  1  0
  4  5  2  0
  5  9  1  0
  6  5  1  0
  7  2  1  0
  8  7  1  0
  9 11  1  0
 11 13  1  0
 11 10  2  0
 12 11  1  0
  1 14  1  0
  3 15  1  0
  7 16  1  0
  7 17  1  0
  8 18  1  0
  8 19  1  0
  8 20  1  0
 12 21  1  0
 13 22  1  0
M  ISO  8  14  14  15  14  16   8  17   8  18   8  19   8  20   8  21   3
M  ISO  1  22   3
M  END
>  <minimizedAffinity>  (1) 
-4.41081715

>  <minimizedRMSD>  (1) 
0.622923672

$$$$
