
     RDKit          3D

 29 30  0  0  0  0  0  0  0  0999 V2000
   45.3560   34.6760   44.2640 C   0  0  0  0  0  0  0  0  0  0  0  0
   46.3010   34.2000   43.3290 C   0  0  0  0  0  0  0  0  0  0  0  0
   47.2090   33.2470   43.7980 C   0  0  0  0  0  0  0  0  0  0  0  0
   47.1490   32.8310   45.0880 N   0  0  0  0  0  0  0  0  0  0  0  0
   46.2270   33.3150   45.9420 C   0  0  0  0  0  0  0  0  0  0  0  0
   45.3390   34.2300   45.5290 N   0  0  0  0  0  0  0  0  0  0  0  0
   46.2370   32.8210   47.2770 N   0  0  0  0  0  0  0  0  0  0  0  0
   47.4440   32.3880   47.9000 C   0  0  0  0  0  0  0  0  0  0  0  0
   47.3330   31.1620   48.7300 C   0  0  0  0  0  0  0  0  0  0  0  0
   45.9790   30.7110   49.0950 C   0  0  0  0  0  0  0  0  0  0  0  0
   44.8550   31.2280   48.2720 C   0  0  0  0  0  0  0  0  0  0  0  0
   45.0270   32.7320   48.0720 C   0  0  0  0  0  0  0  0  0  0  0  0
   46.2760   34.7130   41.9770 C   0  0  0  0  0  0  0  0  0  0  0  0
   47.7260   34.9140   41.5250 C   0  0  0  0  0  0  0  0  0  0  0  0
   44.6182   35.4284   43.9484 H   0  0  0  0  0  0  0  0  0  0  0  0
   47.9720   32.8343   43.1216 H   0  0  0  0  0  0  0  0  0  0  0  0
   48.3948   32.9267   47.7741 H   0  0  0  0  0  0  0  0  0  0  0  0
   48.2268   30.6120   49.0595 H   0  0  0  0  0  0  0  0  0  0  0  0
   45.9642   29.6133   49.0261 H   0  0  0  0  0  0  0  0  0  0  0  0
   45.8047   31.1125   50.1042 H   0  0  0  0  0  0  0  0  0  0  0  0
   44.8539   30.7249   47.2938 H   0  0  0  0  0  0  0  0  0  0  0  0
   43.9017   31.0307   48.7842 H   0  0  0  0  0  0  0  0  0  0  0  0
   45.1490   33.2473   49.0361 H   0  0  0  0  0  0  0  0  0  0  0  0
   44.1583   33.2069   47.5926 H   0  0  0  0  0  0  0  0  0  0  0  0
   45.7735   33.9940   41.3133 H   0  0  0  0  0  0  0  0  0  0  0  0
   45.7260   35.6648   41.9375 H   0  0  0  0  0  0  0  0  0  0  0  0
   48.3761   35.0041   42.4078 H   0  0  0  0  0  0  0  0  0  0  0  0
   48.0448   34.0515   40.9214 H   0  0  0  0  0  0  0  0  0  0  0  0
   47.7982   35.8307   40.9214 H   0  0  0  0  0  0  0  0  0  0  0  0
  1  6  2  0
  2  3  2  0
  2  1  1  0
  3  4  1  0
  4  5  2  0
  5  7  1  0
  6  5  1  0
  7  8  1  0
  7 12  1  0
  8  9  2  0
  9 10  1  0
 11 10  1  0
 12 11  1  0
 13  2  1  0
 14 13  1  0
  1 15  1  0
  3 16  1  0
  8 17  1  0
  9 18  1  0
 10 19  1  0
 10 20  1  0
 11 21  1  0
 11 22  1  0
 12 23  1  0
 12 24  1  0
 13 25  1  0
 13 26  1  0
 14 27  1  0
 14 28  1  0
 14 29  1  0
M  ISO  8  15  14  16  14  17  13  18  13  19  13  20  13  21  13  22  13
M  ISO  7  23  13  24  13  25   8  26   8  27   8  28   8  29   8
M  END
>  <minimizedAffinity>  (1) 
-4.82322311

>  <minimizedRMSD>  (1) 
1.16478777

$$$$
