
     RDKit          3D

 19 19  0  0  0  0  0  0  0  0999 V2000
   45.5350   34.8340   44.0010 C   0  0  0  0  0  0  0  0  0  0  0  0
   46.5920   34.4140   43.2010 C   0  0  0  0  0  0  0  0  0  0  0  0
   47.4030   33.3960   43.7020 C   0  0  0  0  0  0  0  0  0  0  0  0
   47.1250   32.8700   44.9270 N   0  0  0  0  0  0  0  0  0  0  0  0
   46.0830   33.3090   45.6740 C   0  0  0  0  0  0  0  0  0  0  0  0
   45.2870   34.2920   45.2100 N   0  0  0  0  0  0  0  0  0  0  0  0
   45.8020   32.7160   47.0100 C   0  0  0  0  0  0  0  0  0  0  0  0
   45.4670   31.3780   46.8460 F   0  0  0  0  0  0  0  0  0  0  0  0
   46.9390   32.7720   47.7900 F   0  0  0  0  0  0  0  0  0  0  0  0
   44.7640   33.4050   47.6400 F   0  0  0  0  0  0  0  0  0  0  0  0
   46.7960   35.0360   41.9170 C   0  0  0  0  0  0  0  0  0  0  0  0
   48.2770   35.3120   41.7280 C   0  0  0  0  0  0  0  0  0  0  0  0
   44.8782   35.6367   43.6344 H   0  0  0  0  0  0  0  0  0  0  0  0
   48.2557   33.0230   43.1156 H   0  0  0  0  0  0  0  0  0  0  0  0
   46.4423   34.3635   41.1216 H   0  0  0  0  0  0  0  0  0  0  0  0
   46.2341   35.9805   41.8694 H   0  0  0  0  0  0  0  0  0  0  0  0
   48.7616   35.4023   42.7114 H   0  0  0  0  0  0  0  0  0  0  0  0
   48.7357   34.4839   41.1678 H   0  0  0  0  0  0  0  0  0  0  0  0
   48.4067   36.2498   41.1678 H   0  0  0  0  0  0  0  0  0  0  0  0
  1  6  2  0
  2  3  2  0
  2  1  1  0
  3  4  1  0
  4  5  2  0
  5  7  1  0
  6  5  1  0
  7 10  1  0
  7  9  1  0
  8  7  1  0
 11  2  1  0
 12 11  1  0
  1 13  1  0
  3 14  1  0
 11 15  1  0
 11 16  1  0
 12 17  1  0
 12 18  1  0
 12 19  1  0
M  ISO  7  13  14  14  14  15   8  16   8  17   8  18   8  19   8
M  END
>  <minimizedAffinity>  (1) 
-4.08582354

>  <minimizedRMSD>  (1) 
1.54148638

$$$$
