
     RDKit          3D

 24 25  0  0  0  0  0  0  0  0999 V2000
   49.0490   33.8220   41.3450 C   0  0  0  0  0  0  0  0  0  0  0  0
   49.1230   32.4380   41.2230 C   0  0  0  0  0  0  0  0  0  0  0  0
   48.2170   31.6790   41.9650 C   0  0  0  0  0  0  0  0  0  0  0  0
   47.3210   32.3460   42.7540 N   0  0  0  0  0  0  0  0  0  0  0  0
   47.2740   33.6770   42.8500 C   0  0  0  0  0  0  0  0  0  0  0  0
   48.1430   34.4270   42.1420 N   0  0  0  0  0  0  0  0  0  0  0  0
   46.2960   34.3290   43.7090 C   0  0  0  0  0  0  0  0  0  0  0  0
   46.0060   33.8130   44.9550 C   0  0  0  0  0  0  0  0  0  0  0  0
   45.0800   34.4330   45.7650 C   0  0  0  0  0  0  0  0  0  0  0  0
   44.4920   35.5440   45.2790 N   0  0  0  0  0  0  0  0  0  0  0  0
   44.7640   36.0540   44.0740 C   0  0  0  0  0  0  0  0  0  0  0  0
   45.6670   35.4430   43.2940 N   0  0  0  0  0  0  0  0  0  0  0  0
   50.1170   31.8680   40.3490 C   0  0  0  0  0  0  0  0  0  0  0  0
   51.4620   31.8970   41.0520 C   0  0  0  0  0  0  0  0  0  0  0  0
   49.7526   34.4443   40.7726 H   0  0  0  0  0  0  0  0  0  0  0  0
   48.2233   30.5801   41.9168 H   0  0  0  0  0  0  0  0  0  0  0  0
   46.5162   32.9028   45.3033 H   0  0  0  0  0  0  0  0  0  0  0  0
   44.8321   34.0396   46.7619 H   0  0  0  0  0  0  0  0  0  0  0  0
   44.2531   36.9641   43.7264 H   0  0  0  0  0  0  0  0  0  0  0  0
   50.1727   32.4548   39.4203 H   0  0  0  0  0  0  0  0  0  0  0  0
   49.8468   30.8306   40.1025 H   0  0  0  0  0  0  0  0  0  0  0  0
   51.3067   31.8937   42.1410 H   0  0  0  0  0  0  0  0  0  0  0  0
   52.0464   31.0112   40.7622 H   0  0  0  0  0  0  0  0  0  0  0  0
   52.0076   32.8071   40.7622 H   0  0  0  0  0  0  0  0  0  0  0  0
  1  6  2  0
  2  1  1  0
  2  3  2  0
  3  4  1  0
  4  5  2  0
  5  7  1  0
  6  5  1  0
  7  8  2  0
  8  9  1  0
 10  9  2  0
 11 10  1  0
 12  7  1  0
 12 11  2  0
 13 14  1  0
 13  2  1  0
  1 15  1  0
  3 16  1  0
  8 17  1  0
  9 18  1  0
 11 19  1  0
 13 20  1  0
 13 21  1  0
 14 22  1  0
 14 23  1  0
 14 24  1  0
M  ISO  8  15  14  16  14  17  14  18  14  19  14  20   8  21   8  22   8
M  ISO  2  23   8  24   8
M  END
>  <minimizedAffinity>  (1) 
-3.78485727

>  <minimizedRMSD>  (1) 
4.42994881

$$$$
