
     RDKit          3D

 33 35  0  0  1  0  0  0  0  0999 V2000
   47.2450   34.0500   42.4610 C   0  0  2  0  0  0  0  0  0  0  0  0
   48.5740   34.6860   42.5850 C   0  0  0  0  0  0  0  0  0  0  0  0
   48.8660   35.6850   41.5100 C   0  0  0  0  0  0  0  0  0  0  0  0
   48.6750   35.1380   40.1070 C   0  0  0  0  0  0  0  0  0  0  0  0
   47.4860   34.2290   39.9750 C   0  0  0  0  0  0  0  0  0  0  0  0
   46.5470   34.3460   41.1440 C   0  0  1  0  0  0  0  0  0  0  0  0
   46.3310   34.4460   43.5480 C   0  0  0  0  0  0  0  0  0  0  0  0
   45.5930   35.6260   43.3300 C   0  0  0  0  0  0  0  0  0  0  0  0
   44.6930   36.0910   44.2970 C   0  0  0  0  0  0  0  0  0  0  0  0
   44.5940   35.3270   45.4420 N   0  0  0  0  0  0  0  0  0  0  0  0
   45.3150   34.1990   45.6240 C   0  0  0  0  0  0  0  0  0  0  0  0
   46.1810   33.7580   44.6800 N   0  0  0  0  0  0  0  0  0  0  0  0
   45.4970   33.3100   40.9580 C   0  0  0  0  0  0  0  0  0  0  0  0
   45.7860   31.9620   40.8870 C   0  0  0  0  0  0  0  0  0  0  0  0
   44.6230   31.3090   40.7170 N   0  0  0  0  0  0  0  0  0  0  0  0
   43.6140   32.2200   40.6790 C   0  0  0  0  0  0  0  0  0  0  0  0
   44.1570   33.4600   40.8290 N   0  0  0  0  0  0  0  0  0  0  0  0
   47.4624   32.9731   42.5159 H   0  0  0  0  0  0  0  0  0  0  0  0
   48.6247   35.1976   43.5575 H   0  0  0  0  0  0  0  0  0  0  0  0
   49.3230   33.8858   42.4919 H   0  0  0  0  0  0  0  0  0  0  0  0
   48.1939   36.5457   41.6426 H   0  0  0  0  0  0  0  0  0  0  0  0
   49.9255   35.9642   41.6069 H   0  0  0  0  0  0  0  0  0  0  0  0
   48.5438   35.9852   39.4178 H   0  0  0  0  0  0  0  0  0  0  0  0
   49.5672   34.5405   39.8684 H   0  0  0  0  0  0  0  0  0  0  0  0
   46.9411   34.4901   39.0558 H   0  0  0  0  0  0  0  0  0  0  0  0
   47.8555   33.1934   39.9418 H   0  0  0  0  0  0  0  0  0  0  0  0
   46.1482   35.3704   41.1818 H   0  0  0  0  0  0  0  0  0  0  0  0
   45.7247   36.1866   42.3928 H   0  0  0  0  0  0  0  0  0  0  0  0
   44.1021   37.0076   44.1529 H   0  0  0  0  0  0  0  0  0  0  0  0
   45.1966   33.6277   46.5565 H   0  0  0  0  0  0  0  0  0  0  0  0
   46.7845   31.5058   40.9567 H   0  0  0  0  0  0  0  0  0  0  0  0
   44.5144   30.2884   40.6300 H   0  0  0  0  0  0  0  0  0  0  0  0
   42.5451   31.9946   40.5496 H   0  0  0  0  0  0  0  0  0  0  0  0
  1  2  1  0
  1  7  1  0
  3  2  1  0
  4  3  1  0
  5  4  1  0
  5  6  1  0
  6  1  1  0
  7 12  1  0
  8  7  2  0
  8  9  1  0
  9 10  2  0
 10 11  1  0
 12 11  2  0
 13  6  1  0
 14 13  2  0
 15 14  1  0
 16 15  1  0
 16 17  2  0
 17 13  1  0
  1 18  1  1
  2 19  1  0
  2 20  1  0
  3 21  1  0
  3 22  1  0
  4 23  1  0
  4 24  1  0
  5 25  1  0
  5 26  1  0
  6 27  1  1
  8 28  1  0
  9 29  1  0
 11 30  1  0
 14 31  1  0
 15 32  1  0
 16 33  1  0
M  ISO  8  18  13  19  13  20  13  21  13  22  13  23  13  24  13  25  13
M  ISO  8  26  13  27  13  28  14  29  14  30  14  31  14  32   9  33  14
M  END
>  <minimizedAffinity>  (1) 
-5.21472788

>  <minimizedRMSD>  (1) 
5.31686401

$$$$
