
     RDKit          3D

 36 38  0  0  0  0  0  0  0  0999 V2000
   46.8490   34.6910   42.7640 C   0  0  0  0  0  0  0  0  0  0  0  0
   47.9300   34.2290   42.0320 C   0  0  0  0  0  0  0  0  0  0  0  0
   48.5670   33.0770   42.5300 C   0  0  0  0  0  0  0  0  0  0  0  0
   48.0900   32.5100   43.6710 N   0  0  0  0  0  0  0  0  0  0  0  0
   47.0450   32.9920   44.3390 C   0  0  0  0  0  0  0  0  0  0  0  0
   46.4180   34.0920   43.8830 N   0  0  0  0  0  0  0  0  0  0  0  0
   45.6240   30.3230   43.9000 Cl  0  0  0  0  0  0  0  0  0  0  0  0
   45.9220   31.1110   45.4600 C   0  0  0  0  0  0  0  0  0  0  0  0
   46.5840   32.3360   45.5550 C   0  0  0  0  0  0  0  0  0  0  0  0
   46.8010   32.9220   46.7770 C   0  0  0  0  0  0  0  0  0  0  0  0
   46.3540   32.2810   47.9270 C   0  0  0  0  0  0  0  0  0  0  0  0
   45.7060   31.0760   47.7910 C   0  0  0  0  0  0  0  0  0  0  0  0
   45.1530   30.2930   49.2540 Cl  0  0  0  0  0  0  0  0  0  0  0  0
   45.4700   30.4550   46.5750 C   0  0  0  0  0  0  0  0  0  0  0  0
   48.3240   34.9370   40.8370 C   0  0  0  0  0  0  0  0  0  0  0  0
   47.6660   34.2680   39.6450 C   0  0  0  0  0  0  0  0  0  0  0  0
   48.5420   33.8850   38.6040 N   0  0  0  0  0  0  0  0  0  0  0  0
   48.3130   34.4040   37.3090 C   0  0  0  0  0  0  0  0  0  0  0  0
   48.3750   33.2480   36.3300 C   0  0  0  0  0  0  0  0  0  0  0  0
   48.8420   32.0610   37.1160 C   0  0  0  0  0  0  0  0  0  0  0  0
   48.9460   32.5250   38.5460 C   0  0  0  0  0  0  0  0  0  0  0  0
   46.3207   35.5892   42.4116 H   0  0  0  0  0  0  0  0  0  0  0  0
   49.4327   32.6440   42.0074 H   0  0  0  0  0  0  0  0  0  0  0  0
   47.3227   33.8880   46.8458 H   0  0  0  0  0  0  0  0  0  0  0  0
   46.5146   32.7264   48.9199 H   0  0  0  0  0  0  0  0  0  0  0  0
   44.9486   29.4887   46.5084 H   0  0  0  0  0  0  0  0  0  0  0  0
   47.9974   35.9854   40.9016 H   0  0  0  0  0  0  0  0  0  0  0  0
   49.4182   34.9133   40.7272 H   0  0  0  0  0  0  0  0  0  0  0  0
   47.1510   33.3649   40.0044 H   0  0  0  0  0  0  0  0  0  0  0  0
   46.9902   35.0196   39.2109 H   0  0  0  0  0  0  0  0  0  0  0  0
   48.1237   35.4579   37.0569 H   0  0  0  0  0  0  0  0  0  0  0  0
   48.1271   33.2753   35.2586 H   0  0  0  0  0  0  0  0  0  0  0  0
   48.1168   31.2381   37.0329 H   0  0  0  0  0  0  0  0  0  0  0  0
   49.8061   31.6847   36.7432 H   0  0  0  0  0  0  0  0  0  0  0  0
   48.2898   31.9145   39.1838 H   0  0  0  0  0  0  0  0  0  0  0  0
   49.9811   32.4216   38.9036 H   0  0  0  0  0  0  0  0  0  0  0  0
  1  6  2  0
  2  3  2  0
  2  1  1  0
  3  4  1  0
  4  5  2  0
  5  9  1  0
  6  5  1  0
  7  8  1  0
  8  9  2  0
  8 14  1  0
  9 10  1  0
 10 11  2  0
 12 11  1  0
 12 13  1  0
 14 12  2  0
 15  2  1  0
 16 15  1  0
 17 16  1  0
 18 17  1  0
 19 20  1  0
 19 18  2  0
 20 21  1  0
 21 17  1  0
  1 22  1  0
  3 23  1  0
 10 24  1  0
 11 25  1  0
 14 26  1  0
 15 27  1  0
 15 28  1  0
 16 29  1  0
 16 30  1  0
 18 31  1  0
 19 32  1  0
 20 33  1  0
 20 34  1  0
 21 35  1  0
 21 36  1  0
M  ISO  8  22  14  23  14  24  14  25  14  26  14  27   8  28   8  29   8
M  ISO  7  30   8  31  13  32  13  33  13  34  13  35  13  36  13
M  END
>  <minimizedAffinity>  (1) 
-4.89600515

>  <minimizedRMSD>  (1) 
1.06653631

$$$$
