
     RDKit          3D

 28 29  0  0  0  0  0  0  0  0999 V2000
   46.8290   34.7780   42.7010 C   0  0  0  0  0  0  0  0  0  0  0  0
   47.9770   34.3690   42.0070 C   0  0  0  0  0  0  0  0  0  0  0  0
   48.6450   33.2590   42.5160 C   0  0  0  0  0  0  0  0  0  0  0  0
   48.1610   32.6430   43.6330 N   0  0  0  0  0  0  0  0  0  0  0  0
   47.0670   33.0630   44.2610 C   0  0  0  0  0  0  0  0  0  0  0  0
   46.3900   34.1410   43.7960 N   0  0  0  0  0  0  0  0  0  0  0  0
   45.7710   30.3450   43.7590 Cl  0  0  0  0  0  0  0  0  0  0  0  0
   45.9820   31.1330   45.3210 C   0  0  0  0  0  0  0  0  0  0  0  0
   46.5870   32.3750   45.4490 C   0  0  0  0  0  0  0  0  0  0  0  0
   46.7370   32.9680   46.6890 C   0  0  0  0  0  0  0  0  0  0  0  0
   46.2700   32.2980   47.8140 C   0  0  0  0  0  0  0  0  0  0  0  0
   45.6700   31.0590   47.6430 C   0  0  0  0  0  0  0  0  0  0  0  0
   45.1050   30.2830   49.1000 Cl  0  0  0  0  0  0  0  0  0  0  0  0
   45.5070   30.4420   46.4110 C   0  0  0  0  0  0  0  0  0  0  0  0
   48.4010   35.0890   40.8410 C   0  0  0  0  0  0  0  0  0  0  0  0
   48.0100   34.2950   39.5980 C   0  0  0  0  0  0  0  0  0  0  0  0
   48.7800   34.8690   38.4870 N   0  0  0  0  0  0  0  0  0  0  0  0
   46.2696   35.6513   42.3344 H   0  0  0  0  0  0  0  0  0  0  0  0
   49.5534   32.8825   42.0230 H   0  0  0  0  0  0  0  0  0  0  0  0
   47.2176   33.9529   46.7837 H   0  0  0  0  0  0  0  0  0  0  0  0
   46.3738   32.7398   48.8160 H   0  0  0  0  0  0  0  0  0  0  0  0
   45.0260   29.4577   46.3119 H   0  0  0  0  0  0  0  0  0  0  0  0
   47.9126   36.0744   40.8180 H   0  0  0  0  0  0  0  0  0  0  0  0
   49.4920   35.2276   40.8658 H   0  0  0  0  0  0  0  0  0  0  0  0
   48.2632   33.2326   39.7288 H   0  0  0  0  0  0  0  0  0  0  0  0
   46.9280   34.3535   39.4086 H   0  0  0  0  0  0  0  0  0  0  0  0
   49.5490   35.4423   38.8623 H   0  0  0  0  0  0  0  0  0  0  0  0
   49.1681   34.1094   37.9097 H   0  0  0  0  0  0  0  0  0  0  0  0
  1  6  2  0
  2  3  2  0
  2  1  1  0
  3  4  1  0
  4  5  2  0
  5  9  1  0
  6  5  1  0
  7  8  1  0
  8  9  2  0
  8 14  1  0
  9 10  1  0
 10 11  2  0
 12 11  1  0
 12 13  1  0
 14 12  2  0
 15  2  1  0
 16 15  1  0
 17 16  1  0
  1 18  1  0
  3 19  1  0
 10 20  1  0
 11 21  1  0
 14 22  1  0
 15 23  1  0
 15 24  1  0
 16 25  1  0
 16 26  1  0
 17 27  1  0
 17 28  1  0
M  ISO  8  18  14  19  14  20  14  21  14  22  14  23   8  24   8  25   8
M  ISO  3  26   8  27   5  28   5
M  END
>  <minimizedAffinity>  (1) 
-4.67288065

>  <minimizedRMSD>  (1) 
0.242191896

$$$$
