
     RDKit          3D

 13 13  0  0  0  0  0  0  0  0999 V2000
   44.5630   36.0060   44.4960 C   0  0  0  0  0  0  0  0  0  0  0  0
   45.3060   35.9240   43.2940 C   0  0  0  0  0  0  0  0  0  0  0  0
   46.1940   34.8560   43.1730 C   0  0  0  0  0  0  0  0  0  0  0  0
   46.3050   33.9600   44.1970 N   0  0  0  0  0  0  0  0  0  0  0  0
   45.5690   34.0850   45.3300 C   0  0  0  0  0  0  0  0  0  0  0  0
   44.7040   35.1050   45.4720 N   0  0  0  0  0  0  0  0  0  0  0  0
   46.9610   34.7790   41.9210 C   0  0  0  0  0  0  0  0  0  0  0  0
   43.8507   36.8335   44.6299 H   0  0  0  0  0  0  0  0  0  0  0  0
   45.1883   36.6683   42.4926 H   0  0  0  0  0  0  0  0  0  0  0  0
   45.6806   33.3470   46.1380 H   0  0  0  0  0  0  0  0  0  0  0  0
   48.0310   34.6716   42.1525 H   0  0  0  0  0  0  0  0  0  0  0  0
   46.6232   33.9103   41.3369 H   0  0  0  0  0  0  0  0  0  0  0  0
   46.8026   35.6976   41.3369 H   0  0  0  0  0  0  0  0  0  0  0  0
  1  6  2  0
  2  1  1  0
  3  2  2  0
  3  4  1  0
  4  5  2  0
  5  6  1  0
  7  3  1  0
  1  8  1  0
  2  9  1  0
  5 10  1  0
  7 11  1  0
  7 12  1  0
  7 13  1  0
M  ISO  6   8  14   9  14  10  14  11   8  12   8  13   8
M  END
>  <minimizedAffinity>  (1) 
-3.06054163

>  <minimizedRMSD>  (1) 
0.389213651

$$$$
