
     RDKit          3D

 26 27  0  0  0  0  0  0  0  0999 V2000
   47.0410   34.6530   42.0680 C   0  0  0  0  0  0  0  0  0  0  0  0
   44.5500   36.0490   44.4650 C   0  0  0  0  0  0  0  0  0  0  0  0
   45.3530   35.8860   43.3060 C   0  0  0  0  0  0  0  0  0  0  0  0
   46.2300   34.7890   43.2780 C   0  0  0  0  0  0  0  0  0  0  0  0
   46.2630   33.9500   44.3540 N   0  0  0  0  0  0  0  0  0  0  0  0
   45.4790   34.1500   45.4330 C   0  0  0  0  0  0  0  0  0  0  0  0
   44.6300   35.1940   45.4840 N   0  0  0  0  0  0  0  0  0  0  0  0
   48.1850   33.8750   42.1460 N   0  0  0  0  0  0  0  0  0  0  0  0
   49.4300   34.5230   42.2900 C   0  0  0  0  0  0  0  0  0  0  0  0
   50.5880   33.6100   42.4280 C   0  0  0  0  0  0  0  0  0  0  0  0
   50.5320   32.7040   41.3430 O   0  0  0  0  0  0  0  0  0  0  0  0
   49.4540   31.8680   41.6320 C   0  0  0  0  0  0  0  0  0  0  0  0
   48.1440   32.5550   41.6540 C   0  0  0  0  0  0  0  0  0  0  0  0
   47.3507   35.6638   41.7642 H   0  0  0  0  0  0  0  0  0  0  0  0
   46.3918   34.1239   41.3549 H   0  0  0  0  0  0  0  0  0  0  0  0
   43.8498   36.8954   44.5230 H   0  0  0  0  0  0  0  0  0  0  0  0
   45.2911   36.5905   42.4635 H   0  0  0  0  0  0  0  0  0  0  0  0
   45.5337   33.4520   46.2814 H   0  0  0  0  0  0  0  0  0  0  0  0
   49.5935   35.1529   41.4032 H   0  0  0  0  0  0  0  0  0  0  0  0
   49.3748   35.1000   43.2249 H   0  0  0  0  0  0  0  0  0  0  0  0
   51.5266   34.1826   42.3940 H   0  0  0  0  0  0  0  0  0  0  0  0
   50.5537   33.0749   43.3884 H   0  0  0  0  0  0  0  0  0  0  0  0
   49.4162   31.0771   40.8685 H   0  0  0  0  0  0  0  0  0  0  0  0
   49.6218   31.4739   42.6452 H   0  0  0  0  0  0  0  0  0  0  0  0
   47.7535   32.5834   40.6260 H   0  0  0  0  0  0  0  0  0  0  0  0
   47.5027   31.9843   42.3418 H   0  0  0  0  0  0  0  0  0  0  0  0
  1  8  1  0
  1  4  1  0
  2  7  2  0
  3  2  1  0
  4  3  2  0
  4  5  1  0
  5  6  2  0
  6  7  1  0
  8  9  1  0
  9 10  1  0
 11 12  1  0
 11 10  1  0
 12 13  1  0
 13  8  1  0
  1 14  1  0
  1 15  1  0
  2 16  1  0
  3 17  1  0
  6 18  1  0
  9 19  1  0
  9 20  1  0
 10 21  1  0
 10 22  1  0
 12 23  1  0
 12 24  1  0
 13 25  1  0
 13 26  1  0
M  ISO  8  14   8  15   8  16  14  17  14  18  14  19  13  20  13  21  13
M  ISO  5  22  13  23  13  24  13  25  13  26  13
M  END
>  <minimizedAffinity>  (1) 
-3.98988152

>  <minimizedRMSD>  (1) 
2.15545416

$$$$
