
     RDKit          3D

 20 21  0  0  0  0  0  0  0  0999 V2000
   44.4980   36.0090   44.8180 C   0  0  0  0  0  0  0  0  0  0  0  0
   45.0130   36.0500   43.5100 C   0  0  0  0  0  0  0  0  0  0  0  0
   45.8350   34.9980   43.1250 C   0  0  0  0  0  0  0  0  0  0  0  0
   46.1000   34.0000   44.0050 N   0  0  0  0  0  0  0  0  0  0  0  0
   45.5860   33.9960   45.2540 C   0  0  0  0  0  0  0  0  0  0  0  0
   44.7870   35.0080   45.6450 N   0  0  0  0  0  0  0  0  0  0  0  0
   46.3670   35.0480   41.7630 C   0  0  0  0  0  0  0  0  0  0  0  0
   47.8350   34.7410   41.7570 C   0  0  0  0  0  0  0  0  0  0  0  0
   48.5050   34.9090   40.4120 C   0  0  0  0  0  0  0  0  0  0  0  0
   48.8520   35.8020   41.5910 C   0  0  0  0  0  0  0  0  0  0  0  0
   43.8425   36.8216   45.1644 H   0  0  0  0  0  0  0  0  0  0  0  0
   44.7761   36.8764   42.8237 H   0  0  0  0  0  0  0  0  0  0  0  0
   45.8178   33.1733   45.9464 H   0  0  0  0  0  0  0  0  0  0  0  0
   45.8406   34.3081   41.1421 H   0  0  0  0  0  0  0  0  0  0  0  0
   46.2152   36.0604   41.3604 H   0  0  0  0  0  0  0  0  0  0  0  0
   47.7193   33.9541   42.5169 H   0  0  0  0  0  0  0  0  0  0  0  0
   47.9409   35.3124   39.5582 H   0  0  0  0  0  0  0  0  0  0  0  0
   49.0665   34.2581   39.7256 H   0  0  0  0  0  0  0  0  0  0  0  0
   49.8311   35.7051   42.0830 H   0  0  0  0  0  0  0  0  0  0  0  0
   48.8722   36.8888   41.7599 H   0  0  0  0  0  0  0  0  0  0  0  0
  1  6  2  0
  2  1  1  0
  3  2  2  0
  3  4  1  0
  4  5  2  0
  5  6  1  0
  7  3  1  0
  8  7  1  0
  9 10  1  0
  9  8  1  0
 10  8  1  0
  1 11  1  0
  2 12  1  0
  5 13  1  0
  7 14  1  0
  7 15  1  0
  8 16  1  0
  9 17  1  0
  9 18  1  0
 10 19  1  0
 10 20  1  0
M  ISO  8  11  14  12  14  13  14  14   8  15   8  16  13  17  13  18  13
M  ISO  2  19  13  20  13
M  END
>  <minimizedAffinity>  (1) 
-4.16738939

>  <minimizedRMSD>  (1) 
1.30344522

$$$$
