
     RDKit          3D

 28 29  0  0  0  0  0  0  0  0999 V2000
   47.7680   34.1520   42.4230 C   0  0  0  0  0  0  0  0  0  0  0  0
   44.8080   35.8910   43.8490 C   0  0  0  0  0  0  0  0  0  0  0  0
   45.8590   35.5560   42.9660 C   0  0  0  0  0  0  0  0  0  0  0  0
   46.6830   34.4940   43.3410 C   0  0  0  0  0  0  0  0  0  0  0  0
   46.4400   33.8520   44.5120 N   0  0  0  0  0  0  0  0  0  0  0  0
   45.4200   34.2100   45.3260 C   0  0  0  0  0  0  0  0  0  0  0  0
   44.6170   35.2240   44.9850 N   0  0  0  0  0  0  0  0  0  0  0  0
   47.2710   33.8770   41.1000 N   0  0  0  0  0  0  0  0  0  0  0  0
   47.0390   32.5040   40.8010 C   0  0  0  0  0  0  0  0  0  0  0  0
   45.9230   32.4740   39.7630 C   0  0  0  0  0  0  0  0  0  0  0  0
   46.4030   33.2680   38.5870 C   0  0  0  0  0  0  0  0  0  0  0  0
   47.8000   33.8110   38.7370 C   0  0  0  0  0  0  0  0  0  0  0  0
   48.0530   34.4720   40.0590 C   0  0  0  0  0  0  0  0  0  0  0  0
   48.4728   34.9951   42.3723 H   0  0  0  0  0  0  0  0  0  0  0  0
   48.2674   33.2472   42.7997 H   0  0  0  0  0  0  0  0  0  0  0  0
   44.1331   36.7208   43.5921 H   0  0  0  0  0  0  0  0  0  0  0  0
   46.0201   36.1063   42.0273 H   0  0  0  0  0  0  0  0  0  0  0  0
   45.2512   33.6673   46.2678 H   0  0  0  0  0  0  0  0  0  0  0  0
   47.9510   32.0438   40.3929 H   0  0  0  0  0  0  0  0  0  0  0  0
   46.7604   31.9402   41.7035 H   0  0  0  0  0  0  0  0  0  0  0  0
   45.7154   31.4371   39.4603 H   0  0  0  0  0  0  0  0  0  0  0  0
   44.9933   32.8969   40.1713 H   0  0  0  0  0  0  0  0  0  0  0  0
   45.7174   34.1156   38.4401 H   0  0  0  0  0  0  0  0  0  0  0  0
   46.4216   32.5809   37.7282 H   0  0  0  0  0  0  0  0  0  0  0  0
   48.5099   32.9783   38.6240 H   0  0  0  0  0  0  0  0  0  0  0  0
   47.9292   34.5819   37.9631 H   0  0  0  0  0  0  0  0  0  0  0  0
   49.1191   34.3718   40.3108 H   0  0  0  0  0  0  0  0  0  0  0  0
   47.7688   35.5314   39.9757 H   0  0  0  0  0  0  0  0  0  0  0  0
  1  4  1  0
  2  7  2  0
  3  4  2  0
  3  2  1  0
  4  5  1  0
  5  6  2  0
  7  6  1  0
  8  1  1  0
  9  8  1  0
 10  9  1  0
 11 12  1  0
 11 10  1  0
 12 13  1  0
 13  8  1  0
  1 14  1  0
  1 15  1  0
  2 16  1  0
  3 17  1  0
  6 18  1  0
  9 19  1  0
  9 20  1  0
 10 21  1  0
 10 22  1  0
 11 23  1  0
 11 24  1  0
 12 25  1  0
 12 26  1  0
 13 27  1  0
 13 28  1  0
M  ISO  8  14   8  15   8  16  14  17  14  18  14  19  13  20  13  21  13
M  ISO  7  22  13  23  13  24  13  25  13  26  13  27  13  28  13
M  END
>  <minimizedAffinity>  (1) 
-3.64447212

>  <minimizedRMSD>  (1) 
1.04946578

$$$$
