
     RDKit          3D

 29 30  0  0  1  0  0  0  0  0999 V2000
   48.1170   33.9990   42.1270 N   0  0  0  0  0  0  0  0  0  0  0  0
   47.8940   34.0840   40.7170 C   0  0  0  0  0  0  0  0  0  0  0  0
   48.5780   35.3910   40.3960 C   0  0  0  0  0  0  0  0  0  0  0  0
   49.2250   35.9410   41.6380 C   0  0  0  0  0  0  0  0  0  0  0  0
   49.2020   34.7210   42.5900 C   0  0  2  0  0  0  0  0  0  0  0  0
   47.2040   33.3150   42.8720 C   0  0  0  0  0  0  0  0  0  0  0  0
   44.7590   35.8610   44.2110 C   0  0  0  0  0  0  0  0  0  0  0  0
   45.6360   35.2460   43.2790 C   0  0  0  0  0  0  0  0  0  0  0  0
   46.3080   34.1080   43.7010 C   0  0  0  0  0  0  0  0  0  0  0  0
   46.0910   33.6610   44.9570 N   0  0  0  0  0  0  0  0  0  0  0  0
   45.2380   34.2740   45.8400 C   0  0  0  0  0  0  0  0  0  0  0  0
   44.5700   35.3790   45.4620 N   0  0  0  0  0  0  0  0  0  0  0  0
   50.5450   34.0380   42.4910 C   0  0  0  0  0  0  0  0  0  0  0  0
   50.4550   32.5440   42.3300 C   0  0  0  0  0  0  0  0  0  0  0  0
   47.3675   33.3870   40.0485 H   0  0  0  0  0  0  0  0  0  0  0  0
   48.6000   35.8684   39.4052 H   0  0  0  0  0  0  0  0  0  0  0  0
   50.2552   36.2707   41.4379 H   0  0  0  0  0  0  0  0  0  0  0  0
   48.7152   36.8267   42.0448 H   0  0  0  0  0  0  0  0  0  0  0  0
   49.0752   34.9179   43.6648 H   0  0  0  0  0  0  0  0  0  0  0  0
   46.5837   32.7262   42.1802 H   0  0  0  0  0  0  0  0  0  0  0  0
   47.7984   32.7181   43.5794 H   0  0  0  0  0  0  0  0  0  0  0  0
   44.2116   36.7646   43.9046 H   0  0  0  0  0  0  0  0  0  0  0  0
   45.7764   35.6538   42.2671 H   0  0  0  0  0  0  0  0  0  0  0  0
   45.1011   33.8641   46.8516 H   0  0  0  0  0  0  0  0  0  0  0  0
   51.0802   34.4491   41.6223 H   0  0  0  0  0  0  0  0  0  0  0  0
   51.0720   34.2276   43.4377 H   0  0  0  0  0  0  0  0  0  0  0  0
   50.4264   32.0694   43.3219 H   0  0  0  0  0  0  0  0  0  0  0  0
   49.5399   32.2895   41.7752 H   0  0  0  0  0  0  0  0  0  0  0  0
   51.3329   32.1814   41.7752 H   0  0  0  0  0  0  0  0  0  0  0  0
  1  5  1  0
  1  6  1  0
  2  1  1  0
  3  2  2  0
  3  4  1  0
  4  5  1  0
  6  9  1  0
  7 12  2  0
  8  9  2  0
  8  7  1  0
  9 10  1  0
 10 11  2  0
 12 11  1  0
 13  5  1  0
 14 13  1  0
  2 15  1  0
  3 16  1  0
  4 17  1  0
  4 18  1  0
  5 19  1  1
  6 20  1  0
  6 21  1  0
  7 22  1  0
  8 23  1  0
 11 24  1  0
 13 25  1  0
 13 26  1  0
 14 27  1  0
 14 28  1  0
 14 29  1  0
M  ISO  8  15  13  16  13  17  13  18  13  19  13  20   8  21   8  22  14
M  ISO  7  23  14  24  14  25   8  26   8  27   8  28   8  29   8
M  END
>  <minimizedAffinity>  (1) 
-4.81167316

>  <minimizedRMSD>  (1) 
1.38764048

$$$$
