
     RDKit          3D

 30 31  0  0  1  0  0  0  0  0999 V2000
   47.9820   34.0230   42.0260 N   0  0  0  0  0  0  0  0  0  0  0  0
   47.8900   34.5220   40.6920 C   0  0  0  0  0  0  0  0  0  0  0  0
   48.8290   35.6770   40.7140 C   0  0  0  0  0  0  0  0  0  0  0  0
   49.4830   35.7480   42.0800 C   0  0  0  0  0  0  0  0  0  0  0  0
   49.1810   34.3330   42.6370 C   0  0  2  0  0  0  0  0  0  0  0  0
   46.9010   33.4080   42.5790 C   0  0  0  0  0  0  0  0  0  0  0  0
   44.7210   35.9960   44.2450 C   0  0  0  0  0  0  0  0  0  0  0  0
   45.4930   35.3850   43.2210 C   0  0  0  0  0  0  0  0  0  0  0  0
   46.1220   34.1820   43.5290 C   0  0  0  0  0  0  0  0  0  0  0  0
   45.9690   33.6650   44.7680 N   0  0  0  0  0  0  0  0  0  0  0  0
   45.2170   34.2750   45.7440 C   0  0  0  0  0  0  0  0  0  0  0  0
   44.6010   35.4310   45.4730 N   0  0  0  0  0  0  0  0  0  0  0  0
   50.3560   33.5000   42.2650 C   0  0  0  0  0  0  0  0  0  0  0  0
   50.3350   32.2840   41.7330 C   0  0  0  0  0  0  0  0  0  0  0  0
   51.6050   31.5340   41.3960 C   0  0  0  0  0  0  0  0  0  0  0  0
   47.2790   34.1474   39.8575 H   0  0  0  0  0  0  0  0  0  0  0  0
   49.0173   36.3655   39.8770 H   0  0  0  0  0  0  0  0  0  0  0  0
   50.5655   35.9261   41.9992 H   0  0  0  0  0  0  0  0  0  0  0  0
   49.1147   36.5687   42.7130 H   0  0  0  0  0  0  0  0  0  0  0  0
   49.0609   34.2007   43.7224 H   0  0  0  0  0  0  0  0  0  0  0  0
   46.2294   33.1146   41.7587 H   0  0  0  0  0  0  0  0  0  0  0  0
   47.3129   32.5697   43.1600 H   0  0  0  0  0  0  0  0  0  0  0  0
   44.2095   36.9476   44.0381 H   0  0  0  0  0  0  0  0  0  0  0  0
   45.5898   35.8435   42.2258 H   0  0  0  0  0  0  0  0  0  0  0  0
   45.1227   33.8163   46.7393 H   0  0  0  0  0  0  0  0  0  0  0  0
   51.3477   33.9383   42.4505 H   0  0  0  0  0  0  0  0  0  0  0  0
   49.3646   31.8071   41.5310 H   0  0  0  0  0  0  0  0  0  0  0  0
   52.1117   31.2348   42.3254 H   0  0  0  0  0  0  0  0  0  0  0  0
   51.3566   30.6376   40.8088 H   0  0  0  0  0  0  0  0  0  0  0  0
   52.2700   32.1843   40.8088 H   0  0  0  0  0  0  0  0  0  0  0  0
  1  6  1  0
  1  5  1  0
  2  3  2  0
  2  1  1  0
  3  4  1  0
  4  5  1  0
  6  9  1  0
  7 12  2  0
  8  9  2  0
  8  7  1  0
  9 10  1  0
 10 11  2  0
 12 11  1  0
 13  5  1  0
 14 13  2  0
 15 14  1  0
  2 16  1  0
  3 17  1  0
  4 18  1  0
  4 19  1  0
  5 20  1  1
  6 21  1  0
  6 22  1  0
  7 23  1  0
  8 24  1  0
 11 25  1  0
 13 26  1  0
 14 27  1  0
 15 28  1  0
 15 29  1  0
 15 30  1  0
M  ISO  8  16  13  17  13  18  13  19  13  20  13  21   8  22   8  23  14
M  ISO  5  24  14  25  14  28   8  29   8  30   8
M  END
>  <minimizedAffinity>  (1) 
-4.90044546

>  <minimizedRMSD>  (1) 
1.2557193

$$$$
