
     RDKit          3D

 27 28  0  0  1  0  0  0  0  0999 V2000
   47.7840   33.9710   42.0510 N   0  0  0  0  0  0  0  0  0  0  0  0
   47.8040   34.7380   40.8470 C   0  0  0  0  0  0  0  0  0  0  0  0
   48.9710   35.6630   41.1050 C   0  0  0  0  0  0  0  0  0  0  0  0
   49.5990   35.3140   42.4290 C   0  0  0  0  0  0  0  0  0  0  0  0
   48.9980   33.9150   42.7120 C   0  0  2  0  0  0  0  0  0  0  0  0
   49.8660   31.4740   42.4150 C   0  0  0  0  0  0  0  0  0  0  0  0
   49.0340   31.0100   43.2650 O   0  0  0  0  0  0  0  0  0  0  0  0
   49.8340   32.8680   42.1630 N   0  0  0  0  0  0  0  0  0  0  0  0
   46.5890   33.4730   42.4710 C   0  0  0  0  0  0  0  0  0  0  0  0
   44.6080   35.9960   44.4650 C   0  0  0  0  0  0  0  0  0  0  0  0
   45.2680   35.4380   43.3430 C   0  0  0  0  0  0  0  0  0  0  0  0
   45.9050   34.2160   43.5220 C   0  0  0  0  0  0  0  0  0  0  0  0
   45.8590   33.6400   44.7430 N   0  0  0  0  0  0  0  0  0  0  0  0
   45.2100   34.2060   45.8180 C   0  0  0  0  0  0  0  0  0  0  0  0
   44.5930   35.3830   45.6530 N   0  0  0  0  0  0  0  0  0  0  0  0
   47.1465   34.6731   39.9676 H   0  0  0  0  0  0  0  0  0  0  0  0
   49.3086   36.4649   40.4319 H   0  0  0  0  0  0  0  0  0  0  0  0
   50.6954   35.2698   42.3520 H   0  0  0  0  0  0  0  0  0  0  0  0
   49.4006   36.0504   43.2217 H   0  0  0  0  0  0  0  0  0  0  0  0
   48.9073   33.6874   43.7844 H   0  0  0  0  0  0  0  0  0  0  0  0
   50.5805   30.8166   41.8980 H   0  0  0  0  0  0  0  0  0  0  0  0
   50.5239   33.1922   41.4703 H   0  0  0  0  0  0  0  0  0  0  0  0
   45.9189   33.4343   41.5996 H   0  0  0  0  0  0  0  0  0  0  0  0
   46.8227   32.4935   42.9136 H   0  0  0  0  0  0  0  0  0  0  0  0
   44.0928   36.9617   44.3558 H   0  0  0  0  0  0  0  0  0  0  0  0
   45.2760   35.9508   42.3699 H   0  0  0  0  0  0  0  0  0  0  0  0
   45.1987   33.7002   46.7947 H   0  0  0  0  0  0  0  0  0  0  0  0
  1  9  1  0
  1  5  1  0
  2  3  2  0
  2  1  1  0
  3  4  1  0
  4  5  1  0
  6  7  2  0
  8  6  1  0
  8  5  1  0
  9 12  1  0
 10 15  2  0
 11 12  2  0
 11 10  1  0
 12 13  1  0
 13 14  2  0
 15 14  1  0
  2 16  1  0
  3 17  1  0
  4 18  1  0
  4 19  1  0
  5 20  1  1
  6 21  1  0
  8 22  1  0
  9 23  1  0
  9 24  1  0
 10 25  1  0
 11 26  1  0
 14 27  1  0
M  ISO  8  16  13  17  13  18  13  19  13  20  13  21   6  23   8  24   8
M  ISO  3  25  14  26  14  27  14
M  END
>  <minimizedAffinity>  (1) 
-4.5846262

>  <minimizedRMSD>  (1) 
1.45095897

$$$$
