
     RDKit          3D

 26 27  0  0  1  0  0  0  0  0999 V2000
   45.9880   35.4900   42.4110 C   0  0  0  0  0  0  0  0  0  0  0  0
   46.7060   34.6860   41.5900 N   0  0  0  0  0  0  0  0  0  0  0  0
   45.9620   33.7560   40.7890 C   0  0  0  0  0  0  0  0  0  0  0  0
   46.8310   33.6030   39.5930 C   0  0  0  0  0  0  0  0  0  0  0  0
   48.0880   34.4160   39.8090 C   0  0  0  0  0  0  0  0  0  0  0  0
   48.0410   34.6650   41.3400 C   0  0  1  0  0  0  0  0  0  0  0  0
   48.9380   35.8100   41.5170 C   0  0  0  0  0  0  0  0  0  0  0  0
   44.6550   34.8750   45.8760 C   0  0  0  0  0  0  0  0  0  0  0  0
   44.7840   35.5050   44.6340 C   0  0  0  0  0  0  0  0  0  0  0  0
   45.7400   34.9900   43.7600 C   0  0  0  0  0  0  0  0  0  0  0  0
   46.4730   33.9290   44.1670 N   0  0  0  0  0  0  0  0  0  0  0  0
   46.3180   33.3350   45.3990 C   0  0  0  0  0  0  0  0  0  0  0  0
   45.4050   33.8200   46.2380 N   0  0  0  0  0  0  0  0  0  0  0  0
   45.0119   35.6668   41.9356 H   0  0  0  0  0  0  0  0  0  0  0  0
   46.6022   36.3928   42.5439 H   0  0  0  0  0  0  0  0  0  0  0  0
   44.9950   33.2782   41.0052 H   0  0  0  0  0  0  0  0  0  0  0  0
   46.5993   33.0008   38.7021 H   0  0  0  0  0  0  0  0  0  0  0  0
   48.9863   33.8497   39.5221 H   0  0  0  0  0  0  0  0  0  0  0  0
   48.1341   35.3360   39.2077 H   0  0  0  0  0  0  0  0  0  0  0  0
   48.4181   33.9598   42.0954 H   0  0  0  0  0  0  0  0  0  0  0  0
   49.0852   35.9979   42.5908 H   0  0  0  0  0  0  0  0  0  0  0  0
   49.9081   35.5920   41.0465 H   0  0  0  0  0  0  0  0  0  0  0  0
   48.4941   36.6997   41.0465 H   0  0  0  0  0  0  0  0  0  0  0  0
   43.9083   35.2591   46.5865 H   0  0  0  0  0  0  0  0  0  0  0  0
   44.1594   36.3678   44.3593 H   0  0  0  0  0  0  0  0  0  0  0  0
   46.9386   32.4733   45.6858 H   0  0  0  0  0  0  0  0  0  0  0  0
  1 10  1  0
  2  1  1  0
  3  2  1  0
  4  5  1  0
  4  3  2  0
  5  6  1  0
  6  7  1  0
  6  2  1  0
  8 13  2  0
  9  8  1  0
 10 11  1  0
 10  9  2  0
 11 12  2  0
 12 13  1  0
  1 14  1  0
  1 15  1  0
  3 16  1  0
  4 17  1  0
  5 18  1  0
  5 19  1  0
  6 20  1  1
  7 21  1  0
  7 22  1  0
  7 23  1  0
  8 24  1  0
  9 25  1  0
 12 26  1  0
M  ISO  8  14   8  15   8  16  13  17  13  18  13  19  13  20  13  21   8
M  ISO  5  22   8  23   8  24  14  25  14  26  14
M  END
>  <minimizedAffinity>  (1) 
-4.41965294

>  <minimizedRMSD>  (1) 
1.37551093

$$$$
