
     RDKit          3D

 30 31  0  0  1  0  0  0  0  0999 V2000
   46.4430   33.7700   43.3140 C   0  0  2  0  0  0  0  0  0  0  0  0
   45.7260   34.7260   42.4490 C   0  0  0  0  0  0  0  0  0  0  0  0
   45.3230   35.9900   43.1370 C   0  0  0  0  0  0  0  0  0  0  0  0
   44.5450   35.7520   44.4200 C   0  0  0  0  0  0  0  0  0  0  0  0
   45.0320   34.5860   45.2260 C   0  0  0  0  0  0  0  0  0  0  0  0
   46.4090   34.1430   44.7900 C   0  0  1  0  0  0  0  0  0  0  0  0
   47.8610   33.6150   42.9350 C   0  0  0  0  0  0  0  0  0  0  0  0
   48.5830   34.8090   42.7460 C   0  0  0  0  0  0  0  0  0  0  0  0
   49.9350   34.7580   42.3890 C   0  0  0  0  0  0  0  0  0  0  0  0
   50.4790   33.5120   42.2430 N   0  0  0  0  0  0  0  0  0  0  0  0
   49.7630   32.3770   42.4310 C   0  0  0  0  0  0  0  0  0  0  0  0
   48.4540   32.4310   42.7770 N   0  0  0  0  0  0  0  0  0  0  0  0
   46.2560   32.6160   46.7680 C   0  0  0  0  0  0  0  0  0  0  0  0
   45.2650   32.9970   47.4620 O   0  0  0  0  0  0  0  0  0  0  0  0
   46.8620   33.0370   45.5710 N   0  0  0  0  0  0  0  0  0  0  0  0
   45.9005   32.8251   43.1627 H   0  0  0  0  0  0  0  0  0  0  0  0
   44.8178   34.2346   42.0701 H   0  0  0  0  0  0  0  0  0  0  0  0
   46.4224   35.0106   41.6464 H   0  0  0  0  0  0  0  0  0  0  0  0
   46.2315   36.5606   43.3799 H   0  0  0  0  0  0  0  0  0  0  0  0
   44.6612   36.5387   42.4507 H   0  0  0  0  0  0  0  0  0  0  0  0
   44.6197   36.6564   45.0416 H   0  0  0  0  0  0  0  0  0  0  0  0
   43.5106   35.5223   44.1246 H   0  0  0  0  0  0  0  0  0  0  0  0
   45.0698   34.8762   46.2864 H   0  0  0  0  0  0  0  0  0  0  0  0
   44.3367   33.7476   45.0719 H   0  0  0  0  0  0  0  0  0  0  0  0
   47.0824   34.9984   44.9474 H   0  0  0  0  0  0  0  0  0  0  0  0
   48.0848   35.7807   42.8788 H   0  0  0  0  0  0  0  0  0  0  0  0
   50.5284   35.6712   42.2341 H   0  0  0  0  0  0  0  0  0  0  0  0
   50.2505   31.3995   42.3011 H   0  0  0  0  0  0  0  0  0  0  0  0
   46.7642   31.7459   47.2092 H   0  0  0  0  0  0  0  0  0  0  0  0
   47.6844   32.5147   45.2366 H   0  0  0  0  0  0  0  0  0  0  0  0
  1  6  1  0
  2  3  1  0
  2  1  1  0
  3  4  1  0
  4  5  1  0
  6  5  1  0
  6 15  1  0
  7  1  1  0
  8  7  2  0
  9  8  1  0
 10  9  2  0
 10 11  1  0
 11 12  2  0
 12  7  1  0
 13 14  2  0
 15 13  1  0
  1 16  1  1
  2 17  1  0
  2 18  1  0
  3 19  1  0
  3 20  1  0
  4 21  1  0
  4 22  1  0
  5 23  1  0
  5 24  1  0
  6 25  1  6
  8 26  1  0
  9 27  1  0
 11 28  1  0
 13 29  1  0
 15 30  1  0
M  ISO  8  16  13  17  13  18  13  19  13  20  13  21  13  22  13  23  13
M  ISO  6  24  13  25  13  26  14  27  14  28  14  29   6
M  END
>  <minimizedAffinity>  (1) 
-4.77912092

>  <minimizedRMSD>  (1) 
1.88419974

$$$$
