
     RDKit          3D

 39 41  0  0  1  0  0  0  0  0999 V2000
   47.8260   33.9610   41.9700 N   0  0  0  0  0  0  0  0  0  0  0  0
   47.8380   34.9250   40.9380 C   0  0  0  0  0  0  0  0  0  0  0  0
   49.0350   35.7350   41.2670 C   0  0  0  0  0  0  0  0  0  0  0  0
   49.6990   35.1340   42.5000 C   0  0  0  0  0  0  0  0  0  0  0  0
   49.1020   33.7170   42.5050 C   0  0  2  0  0  0  0  0  0  0  0  0
   46.6370   33.4020   42.3660 C   0  0  0  0  0  0  0  0  0  0  0  0
   44.5790   35.8230   44.4250 C   0  0  0  0  0  0  0  0  0  0  0  0
   45.2320   35.2650   43.2830 C   0  0  0  0  0  0  0  0  0  0  0  0
   45.9560   34.0850   43.4430 C   0  0  0  0  0  0  0  0  0  0  0  0
   45.9950   33.5400   44.6850 N   0  0  0  0  0  0  0  0  0  0  0  0
   45.3580   34.0940   45.7740 C   0  0  0  0  0  0  0  0  0  0  0  0
   44.6590   35.2220   45.6440 N   0  0  0  0  0  0  0  0  0  0  0  0
   49.8120   32.9980   41.5330 O   0  0  0  0  0  0  0  0  0  0  0  0
   49.3090   30.7930   42.9420 O   0  0  0  0  0  0  0  0  0  0  0  0
   50.2950   31.4690   42.0120 P   0  0  2  0  0  0  0  0  0  0  0  0
   51.7390   31.6730   42.9170 O   0  0  0  0  0  0  0  0  0  0  0  0
   50.7160   30.5050   40.7070 O   0  0  0  0  0  0  0  0  0  0  0  0
   53.5610   29.3290   41.3890 Cl  0  0  0  0  0  0  0  0  0  0  0  0
   53.1750   30.2800   39.9880 C   0  0  0  0  0  0  0  0  0  0  0  0
   51.8510   30.6490   39.9640 C   0  0  0  0  0  0  0  0  0  0  0  0
   51.4660   31.4240   38.8540 C   0  0  0  0  0  0  0  0  0  0  0  0
   52.3780   31.7860   37.8500 C   0  0  0  0  0  0  0  0  0  0  0  0
   53.6940   31.3810   37.9360 C   0  0  0  0  0  0  0  0  0  0  0  0
   54.0850   30.6220   39.0170 C   0  0  0  0  0  0  0  0  0  0  0  0
   47.1353   35.0447   40.1002 H   0  0  0  0  0  0  0  0  0  0  0  0
   49.3847   36.6198   40.7148 H   0  0  0  0  0  0  0  0  0  0  0  0
   50.7938   35.1091   42.3957 H   0  0  0  0  0  0  0  0  0  0  0  0
   49.5228   35.6997   43.4268 H   0  0  0  0  0  0  0  0  0  0  0  0
   49.1142   33.1939   43.4726 H   0  0  0  0  0  0  0  0  0  0  0  0
   45.9640   33.3855   41.4961 H   0  0  0  0  0  0  0  0  0  0  0  0
   46.8870   32.4029   42.7524 H   0  0  0  0  0  0  0  0  0  0  0  0
   44.0022   36.7534   44.3174 H   0  0  0  0  0  0  0  0  0  0  0  0
   45.1648   35.7554   42.3006 H   0  0  0  0  0  0  0  0  0  0  0  0
   45.4265   33.6030   46.7560 H   0  0  0  0  0  0  0  0  0  0  0  0
   51.5293   31.6434   43.8841 H   0  0  0  0  0  0  0  0  0  0  0  0
   50.4205   31.7556   38.7708 H   0  0  0  0  0  0  0  0  0  0  0  0
   52.0435   32.3922   36.9952 H   0  0  0  0  0  0  0  0  0  0  0  0
   54.4177   31.6591   37.1557 H   0  0  0  0  0  0  0  0  0  0  0  0
   55.1297   30.2885   39.1032 H   0  0  0  0  0  0  0  0  0  0  0  0
  1  6  1  0
  1  5  1  0
  2  3  2  0
  2  1  1  0
  3  4  1  0
  4  5  1  0
  6  9  1  0
  7 12  2  0
  8  9  2  0
  8  7  1  0
  9 10  1  0
 10 11  2  0
 12 11  1  0
 13 15  1  0
 13  5  1  0
 15 16  1  0
 15 14  2  0
 17 15  1  0
 19 18  1  0
 20 19  2  0
 20 17  1  0
 21 20  1  0
 22 23  1  0
 22 21  2  0
 23 24  2  0
 24 19  1  0
  2 25  1  0
  3 26  1  0
  4 27  1  0
  4 28  1  0
  5 29  1  1
  6 30  1  0
  6 31  1  0
  7 32  1  0
  8 33  1  0
 11 34  1  0
 16 35  1  0
 21 36  1  0
 22 37  1  0
 23 38  1  0
 24 39  1  0
M  ISO  8  25  13  26  13  27  13  28  13  29  13  30   8  31   8  32  14
M  ISO  7  33  14  34  14  35   3  36  14  37  14  38  14  39  14
M  END
>  <minimizedAffinity>  (1) 
-5.36087894

>  <minimizedRMSD>  (1) 
2.51913095

$$$$
