
     RDKit          3D

 36 38  0  0  1  0  0  0  0  0999 V2000
   47.9010   33.9920   42.0580 N   0  0  0  0  0  0  0  0  0  0  0  0
   47.8760   34.9780   41.0450 C   0  0  0  0  0  0  0  0  0  0  0  0
   49.0500   35.8150   41.3820 C   0  0  0  0  0  0  0  0  0  0  0  0
   49.7440   35.2110   42.5930 C   0  0  0  0  0  0  0  0  0  0  0  0
   49.1890   33.7780   42.5800 C   0  0  2  0  0  0  0  0  0  0  0  0
   46.7320   33.3880   42.4500 C   0  0  0  0  0  0  0  0  0  0  0  0
   44.6050   35.7370   44.5230 C   0  0  0  0  0  0  0  0  0  0  0  0
   45.2770   35.2130   43.3760 C   0  0  0  0  0  0  0  0  0  0  0  0
   46.0240   34.0450   43.5290 C   0  0  0  0  0  0  0  0  0  0  0  0
   46.0610   33.4880   44.7580 N   0  0  0  0  0  0  0  0  0  0  0  0
   45.4050   34.0080   45.8550 C   0  0  0  0  0  0  0  0  0  0  0  0
   44.6840   35.1290   45.7230 N   0  0  0  0  0  0  0  0  0  0  0  0
   49.9110   33.0940   41.5910 O   0  0  0  0  0  0  0  0  0  0  0  0
   49.3220   30.8830   42.9410 O   0  0  0  0  0  0  0  0  0  0  0  0
   50.2870   31.5260   41.9780 P   0  0  2  0  0  0  0  0  0  0  0  0
   51.8160   31.5150   42.7160 O   0  0  0  0  0  0  0  0  0  0  0  0
   50.4510   30.5720   40.5610 O   0  0  0  0  0  0  0  0  0  0  0  0
   51.4770   30.9540   39.6770 C   0  0  0  0  0  0  0  0  0  0  0  0
   51.3030   31.4340   38.4030 C   0  0  0  0  0  0  0  0  0  0  0  0
   52.5700   31.6770   37.9080 C   0  0  0  0  0  0  0  0  0  0  0  0
   53.4550   31.3320   38.9080 C   0  0  0  0  0  0  0  0  0  0  0  0
   52.7570   30.9010   39.9550 O   0  0  0  0  0  0  0  0  0  0  0  0
   47.1634   35.0941   40.2151 H   0  0  0  0  0  0  0  0  0  0  0  0
   49.3671   36.7218   40.8462 H   0  0  0  0  0  0  0  0  0  0  0  0
   50.8377   35.2196   42.4753 H   0  0  0  0  0  0  0  0  0  0  0  0
   49.5619   35.7543   43.5320 H   0  0  0  0  0  0  0  0  0  0  0  0
   49.2250   33.2415   43.5396 H   0  0  0  0  0  0  0  0  0  0  0  0
   46.0617   33.3488   41.5787 H   0  0  0  0  0  0  0  0  0  0  0  0
   47.0170   32.3974   42.8339 H   0  0  0  0  0  0  0  0  0  0  0  0
   44.0101   36.6570   44.4243 H   0  0  0  0  0  0  0  0  0  0  0  0
   45.2072   35.7163   42.4004 H   0  0  0  0  0  0  0  0  0  0  0  0
   45.4737   33.5054   46.8310 H   0  0  0  0  0  0  0  0  0  0  0  0
   51.7075   31.5158   43.7000 H   0  0  0  0  0  0  0  0  0  0  0  0
   50.3477   31.5931   37.8813 H   0  0  0  0  0  0  0  0  0  0  0  0
   52.8231   32.0688   36.9118 H   0  0  0  0  0  0  0  0  0  0  0  0
   54.5513   31.4014   38.8496 H   0  0  0  0  0  0  0  0  0  0  0  0
  1  6  1  0
  1  5  1  0
  2  3  2  0
  2  1  1  0
  3  4  1  0
  5  4  1  0
  6  9  1  0
  7 12  2  0
  8  9  2  0
  8  7  1  0
  9 10  1  0
 10 11  2  0
 12 11  1  0
 13 15  1  0
 13  5  1  0
 15 16  1  0
 15 14  2  0
 17 15  1  0
 18 22  1  0
 18 17  1  0
 19 18  2  0
 20 19  1  0
 20 21  2  0
 21 22  1  0
  2 23  1  0
  3 24  1  0
  4 25  1  0
  4 26  1  0
  5 27  1  1
  6 28  1  0
  6 29  1  0
  7 30  1  0
  8 31  1  0
 11 32  1  0
 16 33  1  0
 19 34  1  0
 20 35  1  0
 21 36  1  0
M  ISO  8  23  13  24  13  25  13  26  13  27  13  28   8  29   8  30  14
M  ISO  6  31  14  32  14  33   3  34  14  35  14  36  14
M  END
>  <minimizedAffinity>  (1) 
-5.1257906

>  <minimizedRMSD>  (1) 
0.578105211

$$$$
