
     RDKit          3D

 37 39  0  0  1  0  0  0  0  0999 V2000
   47.9600   34.1000   42.0220 N   0  0  0  0  0  0  0  0  0  0  0  0
   48.0120   34.9740   40.9190 C   0  0  0  0  0  0  0  0  0  0  0  0
   49.1220   35.8900   41.2790 C   0  0  0  0  0  0  0  0  0  0  0  0
   49.7030   35.4330   42.6160 C   0  0  0  0  0  0  0  0  0  0  0  0
   49.1930   33.9860   42.6870 C   0  0  2  0  0  0  0  0  0  0  0  0
   46.7720   33.4960   42.3590 C   0  0  0  0  0  0  0  0  0  0  0  0
   44.6130   35.7380   44.5120 C   0  0  0  0  0  0  0  0  0  0  0  0
   45.2950   35.2630   43.3470 C   0  0  0  0  0  0  0  0  0  0  0  0
   46.0570   34.1000   43.4600 C   0  0  0  0  0  0  0  0  0  0  0  0
   46.0970   33.5010   44.6710 N   0  0  0  0  0  0  0  0  0  0  0  0
   45.4350   33.9690   45.7810 C   0  0  0  0  0  0  0  0  0  0  0  0
   44.7000   35.0780   45.7010 N   0  0  0  0  0  0  0  0  0  0  0  0
   50.0300   33.2390   41.8450 O   0  0  0  0  0  0  0  0  0  0  0  0
   49.1610   31.1970   43.3160 O   0  0  0  0  0  0  0  0  0  0  0  0
   50.0840   31.6120   42.1850 P   0  0  2  0  0  0  0  0  0  0  0  0
   51.6600   31.2500   42.7280 O   0  0  0  0  0  0  0  0  0  0  0  0
   49.8600   30.6730   40.8000 O   0  0  0  0  0  0  0  0  0  0  0  0
   49.5600   31.2480   39.5790 C   0  0  0  0  0  0  0  0  0  0  0  0
   48.4150   31.7540   39.0040 C   0  0  0  0  0  0  0  0  0  0  0  0
   48.4510   32.2730   37.7310 C   0  0  0  0  0  0  0  0  0  0  0  0
   49.6310   32.2810   37.0440 N   0  0  0  0  0  0  0  0  0  0  0  0
   50.7550   31.7900   37.5950 C   0  0  0  0  0  0  0  0  0  0  0  0
   50.7180   31.2770   38.8550 N   0  0  0  0  0  0  0  0  0  0  0  0
   47.3852   34.9768   40.0150 H   0  0  0  0  0  0  0  0  0  0  0  0
   49.4671   36.7497   40.6858 H   0  0  0  0  0  0  0  0  0  0  0  0
   50.8023   35.4728   42.6120 H   0  0  0  0  0  0  0  0  0  0  0  0
   49.4078   36.0572   43.4723 H   0  0  0  0  0  0  0  0  0  0  0  0
   49.1467   33.5449   43.6936 H   0  0  0  0  0  0  0  0  0  0  0  0
   46.1170   33.5203   41.4756 H   0  0  0  0  0  0  0  0  0  0  0  0
   47.0332   32.4800   42.6898 H   0  0  0  0  0  0  0  0  0  0  0  0
   44.0068   36.6536   44.4464 H   0  0  0  0  0  0  0  0  0  0  0  0
   45.2205   35.7997   42.3897 H   0  0  0  0  0  0  0  0  0  0  0  0
   45.5118   33.4281   46.7357 H   0  0  0  0  0  0  0  0  0  0  0  0
   51.6753   31.2465   43.7179 H   0  0  0  0  0  0  0  0  0  0  0  0
   47.4688   31.7429   39.5649 H   0  0  0  0  0  0  0  0  0  0  0  0
   47.5378   32.6779   37.2705 H   0  0  0  0  0  0  0  0  0  0  0  0
   51.6990   31.8029   37.0305 H   0  0  0  0  0  0  0  0  0  0  0  0
  1  6  1  0
  1  5  1  0
  2  3  2  0
  2  1  1  0
  3  4  1  0
  4  5  1  0
  6  9  1  0
  7 12  2  0
  8  9  2  0
  8  7  1  0
  9 10  1  0
 10 11  2  0
 12 11  1  0
 13 15  1  0
 13  5  1  0
 15 16  1  0
 15 14  2  0
 17 15  1  0
 18 17  1  0
 19 18  2  0
 20 19  1  0
 21 22  1  0
 21 20  2  0
 22 23  2  0
 23 18  1  0
  2 24  1  0
  3 25  1  0
  4 26  1  0
  4 27  1  0
  5 28  1  1
  6 29  1  0
  6 30  1  0
  7 31  1  0
  8 32  1  0
 11 33  1  0
 16 34  1  0
 19 35  1  0
 20 36  1  0
 22 37  1  0
M  ISO  8  24  13  25  13  26  13  27  13  28  13  29   8  30   8  31  14
M  ISO  6  32  14  33  14  34   3  35  14  36  14  37  14
M  END
>  <minimizedAffinity>  (1) 
-4.98229599

>  <minimizedRMSD>  (1) 
1.92833769

$$$$
