
     RDKit          3D

 17 18  0  0  0  0  0  0  0  0999 V2000
   46.2330   35.4080   42.7380 C   0  0  0  0  0  0  0  0  0  0  0  0
   47.2830   34.4880   42.9200 C   0  0  0  0  0  0  0  0  0  0  0  0
   47.1870   33.6020   44.0060 C   0  0  0  0  0  0  0  0  0  0  0  0
   46.0900   33.6790   44.8200 N   0  0  0  0  0  0  0  0  0  0  0  0
   45.1070   34.5740   44.6120 C   0  0  0  0  0  0  0  0  0  0  0  0
   45.1810   35.4350   43.5720 N   0  0  0  0  0  0  0  0  0  0  0  0
   48.4450   34.4700   41.9860 C   0  0  0  0  0  0  0  0  0  0  0  0
   48.9460   35.7520   41.4360 C   0  0  0  0  0  0  0  0  0  0  0  0
   49.7510   35.0330   42.4540 C   0  0  0  0  0  0  0  0  0  0  0  0
   46.2751   36.1170   41.8980 H   0  0  0  0  0  0  0  0  0  0  0  0
   47.9775   32.8616   44.1979 H   0  0  0  0  0  0  0  0  0  0  0  0
   44.2411   34.6053   45.2897 H   0  0  0  0  0  0  0  0  0  0  0  0
   48.1162   33.5139   41.5526 H   0  0  0  0  0  0  0  0  0  0  0  0
   49.2970   35.8020   40.3947 H   0  0  0  0  0  0  0  0  0  0  0  0
   48.5374   36.7696   41.3497 H   0  0  0  0  0  0  0  0  0  0  0  0
   49.8426   35.4397   43.4719 H   0  0  0  0  0  0  0  0  0  0  0  0
   50.7848   34.6616   42.5109 H   0  0  0  0  0  0  0  0  0  0  0  0
  1  2  2  0
  1  6  1  0
  2  3  1  0
  3  4  2  0
  5  4  1  0
  6  5  2  0
  7  9  1  0
  7  2  1  0
  8  7  1  0
  8  9  1  0
  1 10  1  0
  3 11  1  0
  5 12  1  0
  7 13  1  0
  8 14  1  0
  8 15  1  0
  9 16  1  0
  9 17  1  0
M  ISO  8  10  14  11  14  12  14  13  13  14  13  15  13  16  13  17  13
M  END
>  <minimizedAffinity>  (1) 
-3.6983676

>  <minimizedRMSD>  (1) 
2.50038886

$$$$
