
     RDKit          3D

 26 27  0  0  1  0  0  0  0  0999 V2000
   47.2770   33.8230   42.5490 C   0  0  2  0  0  0  0  0  0  0  0  0
   48.5150   34.6490   42.6470 C   0  0  0  0  0  0  0  0  0  0  0  0
   48.6940   35.6430   41.5520 C   0  0  0  0  0  0  0  0  0  0  0  0
   48.6630   34.8360   40.2630 C   0  0  0  0  0  0  0  0  0  0  0  0
   47.3300   34.2660   40.0130 C   0  0  0  0  0  0  0  0  0  0  0  0
   46.6400   33.7560   41.2350 C   0  0  0  0  0  0  0  0  0  0  0  0
   45.3660   34.1490   45.6960 C   0  0  0  0  0  0  0  0  0  0  0  0
   44.6070   35.3250   45.4710 C   0  0  0  0  0  0  0  0  0  0  0  0
   44.7690   35.9790   44.2330 C   0  0  0  0  0  0  0  0  0  0  0  0
   45.6390   35.4530   43.3280 N   0  0  0  0  0  0  0  0  0  0  0  0
   46.3420   34.3360   43.5750 C   0  0  0  0  0  0  0  0  0  0  0  0
   46.2080   33.6830   44.7570 N   0  0  0  0  0  0  0  0  0  0  0  0
   45.3650   33.2410   40.8780 C   0  0  0  0  0  0  0  0  0  0  0  0
   44.1700   33.5740   40.7520 O   0  0  0  0  0  0  0  0  0  0  0  0
   47.5680   32.7761   42.7204 H   0  0  0  0  0  0  0  0  0  0  0  0
   48.4875   35.1940   43.6021 H   0  0  0  0  0  0  0  0  0  0  0  0
   49.3599   33.9490   42.5694 H   0  0  0  0  0  0  0  0  0  0  0  0
   47.8774   36.3799   41.5642 H   0  0  0  0  0  0  0  0  0  0  0  0
   49.6336   36.2048   41.6598 H   0  0  0  0  0  0  0  0  0  0  0  0
   48.9333   35.4935   39.4236 H   0  0  0  0  0  0  0  0  0  0  0  0
   49.3794   34.0068   40.3589 H   0  0  0  0  0  0  0  0  0  0  0  0
   46.8797   34.2195   39.0105 H   0  0  0  0  0  0  0  0  0  0  0  0
   45.2649   33.6113   46.6503 H   0  0  0  0  0  0  0  0  0  0  0  0
   43.9169   35.7129   46.2347 H   0  0  0  0  0  0  0  0  0  0  0  0
   44.2045   36.8947   44.0032 H   0  0  0  0  0  0  0  0  0  0  0  0
   45.4680   32.1758   40.6238 H   0  0  0  0  0  0  0  0  0  0  0  0
  1  2  1  0
  1 11  1  0
  3  2  1  0
  4  3  1  0
  5  4  1  0
  5  6  2  0
  6  1  1  0
  8  7  2  0
  9  8  1  0
 10 11  1  0
 10  9  2  0
 11 12  2  0
 12  7  1  0
 13  6  1  0
 14 13  2  0
  1 15  1  1
  2 16  1  0
  2 17  1  0
  3 18  1  0
  3 19  1  0
  4 20  1  0
  4 21  1  0
  5 22  1  0
  7 23  1  0
  8 24  1  0
  9 25  1  0
 13 26  1  0
M  ISO  8  15  13  16  13  17  13  18  13  19  13  20  13  21  13  22  13
M  ISO  4  23  14  24  14  25  14  26   6
M  END
>  <minimizedAffinity>  (1) 
-4.6257596

>  <minimizedRMSD>  (1) 
5.6759429

$$$$
