
     RDKit          3D

 36 38  0  0  1  0  0  0  0  0999 V2000
   46.4260   32.9700   46.4230 C   0  0  2  0  0  0  0  0  0  0  0  0
   46.9450   31.7730   45.7000 C   0  0  0  0  0  0  0  0  0  0  0  0
   46.0820   30.5790   45.7430 C   0  0  0  0  0  0  0  0  0  0  0  0
   45.8430   30.2900   47.2200 C   0  0  0  0  0  0  0  0  0  0  0  0
   45.0460   31.3500   47.8660 C   0  0  0  0  0  0  0  0  0  0  0  0
   45.3870   32.7420   47.4160 C   0  0  0  0  0  0  0  0  0  0  0  0
   44.5520   35.6330   44.6730 C   0  0  0  0  0  0  0  0  0  0  0  0
   45.1820   35.6740   43.4130 C   0  0  0  0  0  0  0  0  0  0  0  0
   46.2380   34.7740   43.1960 C   0  0  0  0  0  0  0  0  0  0  0  0
   46.6030   33.9100   44.2040 N   0  0  0  0  0  0  0  0  0  0  0  0
   45.9680   33.9190   45.3790 C   0  0  0  0  0  0  0  0  0  0  0  0
   44.9310   34.7830   45.6330 N   0  0  0  0  0  0  0  0  0  0  0  0
   46.9600   34.7270   41.9320 C   0  0  0  0  0  0  0  0  0  0  0  0
   48.1350   35.3820   41.6650 C   0  0  0  0  0  0  0  0  0  0  0  0
   48.7870   35.3100   40.4510 C   0  0  0  0  0  0  0  0  0  0  0  0
   48.2620   34.5470   39.4230 C   0  0  0  0  0  0  0  0  0  0  0  0
   47.0790   33.8760   39.6610 C   0  0  0  0  0  0  0  0  0  0  0  0
   46.4620   33.9770   40.8900 C   0  0  0  0  0  0  0  0  0  0  0  0
   44.6860   33.8540   47.9620 N   0  0  0  0  0  0  0  0  0  0  0  0
   47.2490   33.3595   47.0403 H   0  0  0  0  0  0  0  0  0  0  0  0
   47.9158   31.5050   46.1425 H   0  0  0  0  0  0  0  0  0  0  0  0
   47.0039   32.0635   44.6407 H   0  0  0  0  0  0  0  0  0  0  0  0
   45.1280   30.7777   45.2327 H   0  0  0  0  0  0  0  0  0  0  0  0
   46.5504   29.7234   45.2345 H   0  0  0  0  0  0  0  0  0  0  0  0
   45.3059   29.3346   47.3130 H   0  0  0  0  0  0  0  0  0  0  0  0
   46.8211   30.2455   47.7213 H   0  0  0  0  0  0  0  0  0  0  0  0
   44.2677   31.1389   48.6141 H   0  0  0  0  0  0  0  0  0  0  0  0
   43.7199   36.3240   44.8735 H   0  0  0  0  0  0  0  0  0  0  0  0
   44.8605   36.3803   42.6334 H   0  0  0  0  0  0  0  0  0  0  0  0
   48.5811   35.9971   42.4604 H   0  0  0  0  0  0  0  0  0  0  0  0
   49.7271   35.8609   40.3000 H   0  0  0  0  0  0  0  0  0  0  0  0
   48.7697   34.4774   38.4496 H   0  0  0  0  0  0  0  0  0  0  0  0
   46.6281   33.2600   38.8691 H   0  0  0  0  0  0  0  0  0  0  0  0
   45.5212   33.4289   41.0465 H   0  0  0  0  0  0  0  0  0  0  0  0
   43.9489   33.7032   48.6654 H   0  0  0  0  0  0  0  0  0  0  0  0
   44.9159   34.8095   47.6537 H   0  0  0  0  0  0  0  0  0  0  0  0
  1  6  1  0
  2  3  1  0
  2  1  1  0
  3  4  1  0
  4  5  1  0
  6  5  2  0
  6 19  1  0
  7 12  2  0
  8  7  1  0
  9  8  2  0
  9 10  1  0
 10 11  2  0
 11 12  1  0
 11  1  1  0
 13  9  1  0
 14 13  2  0
 15 14  1  0
 16 17  1  0
 16 15  2  0
 17 18  2  0
 18 13  1  0
  1 20  1  1
  2 21  1  0
  2 22  1  0
  3 23  1  0
  3 24  1  0
  4 25  1  0
  4 26  1  0
  5 27  1  0
  7 28  1  0
  8 29  1  0
 14 30  1  0
 15 31  1  0
 16 32  1  0
 17 33  1  0
 18 34  1  0
 19 35  1  0
 19 36  1  0
M  ISO  8  20  13  21  13  22  13  23  13  24  13  25  13  26  13  27  13
M  ISO  7  28  14  29  14  30  14  31  14  32  14  33  14  34  14
M  END
>  <minimizedAffinity>  (1) 
-6.96240568

>  <minimizedRMSD>  (1) 
1.15959358

$$$$
