
     RDKit          3D

 32 34  0  0  1  0  0  0  0  0999 V2000
   46.4440   32.9480   46.4510 C   0  0  2  0  0  0  0  0  0  0  0  0
   46.9670   31.7320   45.7660 C   0  0  0  0  0  0  0  0  0  0  0  0
   46.0980   30.5420   45.7950 C   0  0  0  0  0  0  0  0  0  0  0  0
   45.7960   30.2840   47.2630 C   0  0  0  0  0  0  0  0  0  0  0  0
   44.9980   31.3600   47.8790 C   0  0  0  0  0  0  0  0  0  0  0  0
   45.3750   32.7450   47.4200 C   0  0  0  0  0  0  0  0  0  0  0  0
   44.5780   35.5510   44.5900 C   0  0  0  0  0  0  0  0  0  0  0  0
   45.2790   35.5960   43.3600 C   0  0  0  0  0  0  0  0  0  0  0  0
   46.3800   34.7220   43.2000 C   0  0  0  0  0  0  0  0  0  0  0  0
   46.6950   33.9000   44.2290 N   0  0  0  0  0  0  0  0  0  0  0  0
   46.0140   33.8820   45.3740 C   0  0  0  0  0  0  0  0  0  0  0  0
   44.9440   34.7100   45.5700 N   0  0  0  0  0  0  0  0  0  0  0  0
   47.1450   34.7220   41.9500 C   0  0  0  0  0  0  0  0  0  0  0  0
   46.7460   33.8730   40.8580 C   0  0  0  0  0  0  0  0  0  0  0  0
   47.9940   34.2490   39.5900 S   0  0  0  0  0  0  0  0  0  0  0  0
   48.8590   35.4940   40.7350 C   0  0  0  0  0  0  0  0  0  0  0  0
   48.2150   35.4510   41.7030 N   0  0  0  0  0  0  0  0  0  0  0  0
   44.6800   33.8780   47.9310 N   0  0  0  0  0  0  0  0  0  0  0  0
   47.2565   33.3447   47.0775 H   0  0  0  0  0  0  0  0  0  0  0  0
   47.9206   31.4624   46.2434 H   0  0  0  0  0  0  0  0  0  0  0  0
   47.0525   32.0071   44.7044 H   0  0  0  0  0  0  0  0  0  0  0  0
   45.1675   30.7338   45.2406 H   0  0  0  0  0  0  0  0  0  0  0  0
   46.5836   29.6749   45.3235 H   0  0  0  0  0  0  0  0  0  0  0  0
   45.2374   29.3401   47.3464 H   0  0  0  0  0  0  0  0  0  0  0  0
   46.7571   30.2373   47.7960 H   0  0  0  0  0  0  0  0  0  0  0  0
   44.1979   31.1686   48.6093 H   0  0  0  0  0  0  0  0  0  0  0  0
   43.7172   36.2180   44.7450 H   0  0  0  0  0  0  0  0  0  0  0  0
   44.9781   36.2859   42.5578 H   0  0  0  0  0  0  0  0  0  0  0  0
   45.8992   33.1730   40.8042 H   0  0  0  0  0  0  0  0  0  0  0  0
   49.7505   36.1057   40.5324 H   0  0  0  0  0  0  0  0  0  0  0  0
   43.9219   33.7510   48.6166 H   0  0  0  0  0  0  0  0  0  0  0  0
   44.9354   34.8245   47.6150 H   0  0  0  0  0  0  0  0  0  0  0  0
  1  6  1  0
  2  3  1  0
  2  1  1  0
  3  4  1  0
  4  5  1  0
  6  5  2  0
  6 18  1  0
  7 12  2  0
  8  7  1  0
  9  8  2  0
  9 10  1  0
 10 11  2  0
 11 12  1  0
 11  1  1  0
 13  9  1  0
 14 13  2  0
 15 16  1  0
 15 14  1  0
 16 17  2  0
 17 13  1  0
  1 19  1  1
  2 20  1  0
  2 21  1  0
  3 22  1  0
  3 23  1  0
  4 24  1  0
  4 25  1  0
  5 26  1  0
  7 27  1  0
  8 28  1  0
 14 29  1  0
 16 30  1  0
 18 31  1  0
 18 32  1  0
M  ISO  8  19  13  20  13  21  13  22  13  23  13  24  13  25  13  26  13
M  ISO  4  27  14  28  14  29  14  30  14
M  END
>  <minimizedAffinity>  (1) 
-6.11387873

>  <minimizedRMSD>  (1) 
0.947556674

$$$$
