
     RDKit          3D

 33 35  0  0  1  0  0  0  0  0999 V2000
   46.4420   32.9370   46.4420 C   0  0  2  0  0  0  0  0  0  0  0  0
   46.9520   31.7150   45.7520 C   0  0  0  0  0  0  0  0  0  0  0  0
   46.0730   30.5330   45.8060 C   0  0  0  0  0  0  0  0  0  0  0  0
   45.8050   30.2800   47.2830 C   0  0  0  0  0  0  0  0  0  0  0  0
   45.0240   31.3590   47.8890 C   0  0  0  0  0  0  0  0  0  0  0  0
   45.3840   32.7440   47.4200 C   0  0  0  0  0  0  0  0  0  0  0  0
   44.5870   35.5310   44.5810 C   0  0  0  0  0  0  0  0  0  0  0  0
   45.2930   35.6020   43.3670 C   0  0  0  0  0  0  0  0  0  0  0  0
   46.3860   34.7540   43.2170 C   0  0  0  0  0  0  0  0  0  0  0  0
   46.7270   33.9090   44.2240 N   0  0  0  0  0  0  0  0  0  0  0  0
   46.0180   33.8760   45.3750 C   0  0  0  0  0  0  0  0  0  0  0  0
   44.9450   34.6860   45.5590 N   0  0  0  0  0  0  0  0  0  0  0  0
   47.1280   34.7770   42.0360 C   0  0  0  0  0  0  0  0  0  0  0  0
   48.2750   35.4210   41.6110 C   0  0  0  0  0  0  0  0  0  0  0  0
   48.7700   35.2320   40.3520 C   0  0  0  0  0  0  0  0  0  0  0  0
   47.9900   34.3090   39.5190 C   0  0  0  0  0  0  0  0  0  0  0  0
   46.6280   33.7970   40.6030 S   0  0  0  0  0  0  0  0  0  0  0  0
   44.6860   33.8700   47.9350 N   0  0  0  0  0  0  0  0  0  0  0  0
   47.2626   33.3254   47.0631 H   0  0  0  0  0  0  0  0  0  0  0  0
   47.9123   31.4426   46.2141 H   0  0  0  0  0  0  0  0  0  0  0  0
   47.0271   31.9827   44.6877 H   0  0  0  0  0  0  0  0  0  0  0  0
   45.1306   30.7323   45.2747 H   0  0  0  0  0  0  0  0  0  0  0  0
   46.5391   29.6606   45.3247 H   0  0  0  0  0  0  0  0  0  0  0  0
   45.2487   29.3368   47.3869 H   0  0  0  0  0  0  0  0  0  0  0  0
   46.7740   30.2283   47.8011 H   0  0  0  0  0  0  0  0  0  0  0  0
   44.2337   31.1725   48.6310 H   0  0  0  0  0  0  0  0  0  0  0  0
   43.7169   36.1867   44.7327 H   0  0  0  0  0  0  0  0  0  0  0  0
   44.9939   36.2984   42.5697 H   0  0  0  0  0  0  0  0  0  0  0  0
   48.7995   36.0991   42.3003 H   0  0  0  0  0  0  0  0  0  0  0  0
   49.6809   35.7319   39.9911 H   0  0  0  0  0  0  0  0  0  0  0  0
   48.1852   34.0002   38.4814 H   0  0  0  0  0  0  0  0  0  0  0  0
   43.9356   33.7379   48.6281 H   0  0  0  0  0  0  0  0  0  0  0  0
   44.9306   34.8180   47.6151 H   0  0  0  0  0  0  0  0  0  0  0  0
  1  6  1  0
  2  3  1  0
  2  1  1  0
  3  4  1  0
  4  5  1  0
  6  5  2  0
  6 18  1  0
  7 12  2  0
  8  7  1  0
  9  8  2  0
  9 10  1  0
 10 11  2  0
 11 12  1  0
 11  1  1  0
 13  9  1  0
 14 13  2  0
 15 14  1  0
 16 15  2  0
 16 17  1  0
 17 13  1  0
  1 19  1  1
  2 20  1  0
  2 21  1  0
  3 22  1  0
  3 23  1  0
  4 24  1  0
  4 25  1  0
  5 26  1  0
  7 27  1  0
  8 28  1  0
 14 29  1  0
 15 30  1  0
 16 31  1  0
 18 32  1  0
 18 33  1  0
M  ISO  8  19  13  20  13  21  13  22  13  23  13  24  13  25  13  26  13
M  ISO  5  27  14  28  14  29  14  30  14  31  14
M  END
>  <minimizedAffinity>  (1) 
-6.4479022

>  <minimizedRMSD>  (1) 
0.960197628

$$$$
