
     RDKit          3D

 30 31  0  0  1  0  0  0  0  0999 V2000
   46.3450   33.1810   46.2610 C   0  0  2  0  0  0  0  0  0  0  0  0
   47.0130   31.9990   45.6360 C   0  0  0  0  0  0  0  0  0  0  0  0
   46.2980   30.7120   45.7510 C   0  0  0  0  0  0  0  0  0  0  0  0
   46.0780   30.5050   47.2400 C   0  0  0  0  0  0  0  0  0  0  0  0
   45.1590   31.5060   47.7990 C   0  0  0  0  0  0  0  0  0  0  0  0
   45.3300   32.8890   47.2620 C   0  0  0  0  0  0  0  0  0  0  0  0
   44.4640   35.7650   44.3940 C   0  0  0  0  0  0  0  0  0  0  0  0
   44.8070   35.4530   43.0530 C   0  0  0  0  0  0  0  0  0  0  0  0
   45.6760   34.3610   42.8150 C   0  0  0  0  0  0  0  0  0  0  0  0
   46.1390   33.6660   43.8850 N   0  0  0  0  0  0  0  0  0  0  0  0
   45.7910   33.9900   45.1410 C   0  0  0  0  0  0  0  0  0  0  0  0
   44.9620   35.0280   45.4070 N   0  0  0  0  0  0  0  0  0  0  0  0
   47.2860   34.6390   41.1230 C   0  0  0  0  0  0  0  0  0  0  0  0
   47.9700   35.3560   41.9160 O   0  0  0  0  0  0  0  0  0  0  0  0
   46.0280   34.0370   41.4780 N   0  0  0  0  0  0  0  0  0  0  0  0
   44.5020   33.9450   47.7240 N   0  0  0  0  0  0  0  0  0  0  0  0
   47.1008   33.7247   46.8468 H   0  0  0  0  0  0  0  0  0  0  0  0
   47.9980   31.8797   46.1109 H   0  0  0  0  0  0  0  0  0  0  0  0
   47.0544   32.2186   44.5589 H   0  0  0  0  0  0  0  0  0  0  0  0
   45.3345   30.7583   45.2223 H   0  0  0  0  0  0  0  0  0  0  0  0
   46.8686   29.8853   45.3027 H   0  0  0  0  0  0  0  0  0  0  0  0
   45.6543   29.5028   47.4016 H   0  0  0  0  0  0  0  0  0  0  0  0
   47.0484   30.6099   47.7474 H   0  0  0  0  0  0  0  0  0  0  0  0
   44.4017   31.2554   48.5564 H   0  0  0  0  0  0  0  0  0  0  0  0
   43.7913   36.6088   44.6072 H   0  0  0  0  0  0  0  0  0  0  0  0
   44.4069   36.0460   42.2174 H   0  0  0  0  0  0  0  0  0  0  0  0
   47.6761   34.4684   40.1088 H   0  0  0  0  0  0  0  0  0  0  0  0
   45.4607   33.4514   40.8486 H   0  0  0  0  0  0  0  0  0  0  0  0
   43.7776   33.7593   48.4322 H   0  0  0  0  0  0  0  0  0  0  0  0
   44.6255   34.8971   47.3511 H   0  0  0  0  0  0  0  0  0  0  0  0
  1  6  1  0
  2  3  1  0
  2  1  1  0
  3  4  1  0
  4  5  1  0
  6 16  1  0
  6  5  2  0
  7 12  2  0
  8  7  1  0
  9  8  2  0
  9 10  1  0
 10 11  2  0
 11 12  1  0
 11  1  1  0
 13 15  1  0
 13 14  2  0
 15  9  1  0
  1 17  1  1
  2 18  1  0
  2 19  1  0
  3 20  1  0
  3 21  1  0
  4 22  1  0
  4 23  1  0
  5 24  1  0
  7 25  1  0
  8 26  1  0
 13 27  1  0
 15 28  1  0
 16 29  1  0
 16 30  1  0
M  ISO  8  17  13  18  13  19  13  20  13  21  13  22  13  23  13  24  13
M  ISO  3  25  14  26  14  27   6
M  END
>  <minimizedAffinity>  (1) 
-5.36959219

>  <minimizedRMSD>  (1) 
1.43862915

$$$$
