
     RDKit          3D

 28 29  0  0  1  0  0  0  0  0999 V2000
   46.4620   32.8860   46.5730 C   0  0  2  0  0  0  0  0  0  0  0  0
   46.9700   31.6000   46.0130 C   0  0  0  0  0  0  0  0  0  0  0  0
   46.0440   30.4510   46.0650 C   0  0  0  0  0  0  0  0  0  0  0  0
   45.6530   30.3100   47.5310 C   0  0  0  0  0  0  0  0  0  0  0  0
   44.8540   31.4550   48.0070 C   0  0  0  0  0  0  0  0  0  0  0  0
   45.3220   32.7880   47.4720 C   0  0  0  0  0  0  0  0  0  0  0  0
   44.7610   35.3390   44.3750 C   0  0  0  0  0  0  0  0  0  0  0  0
   45.5670   35.3080   43.2070 C   0  0  0  0  0  0  0  0  0  0  0  0
   46.6810   34.4330   43.2150 C   0  0  0  0  0  0  0  0  0  0  0  0
   46.9210   33.6810   44.3160 N   0  0  0  0  0  0  0  0  0  0  0  0
   46.1210   33.7480   45.4050 C   0  0  0  0  0  0  0  0  0  0  0  0
   45.0370   34.5760   45.4430 N   0  0  0  0  0  0  0  0  0  0  0  0
   47.5410   34.3620   42.0400 C   0  0  0  0  0  0  0  0  0  0  0  0
   48.1570   35.3870   41.6600 O   0  0  0  0  0  0  0  0  0  0  0  0
   44.6310   33.9680   47.8550 N   0  0  0  0  0  0  0  0  0  0  0  0
   47.2554   33.3010   47.2120 H   0  0  0  0  0  0  0  0  0  0  0  0
   47.8760   31.3255   46.5732 H   0  0  0  0  0  0  0  0  0  0  0  0
   47.1375   31.7926   44.9430 H   0  0  0  0  0  0  0  0  0  0  0  0
   45.1551   30.6453   45.4469 H   0  0  0  0  0  0  0  0  0  0  0  0
   46.5098   29.5333   45.6766 H   0  0  0  0  0  0  0  0  0  0  0  0
   45.0620   29.3904   47.6532 H   0  0  0  0  0  0  0  0  0  0  0  0
   46.5779   30.2732   48.1252 H   0  0  0  0  0  0  0  0  0  0  0  0
   43.9970   31.3481   48.6883 H   0  0  0  0  0  0  0  0  0  0  0  0
   43.8871   36.0063   44.4050 H   0  0  0  0  0  0  0  0  0  0  0  0
   45.3366   35.9360   42.3338 H   0  0  0  0  0  0  0  0  0  0  0  0
   47.6492   33.4156   41.4899 H   0  0  0  0  0  0  0  0  0  0  0  0
   43.8230   33.9082   48.4909 H   0  0  0  0  0  0  0  0  0  0  0  0
   44.9378   34.8837   47.4969 H   0  0  0  0  0  0  0  0  0  0  0  0
  1  6  1  0
  2  3  1  0
  2  1  1  0
  3  4  1  0
  4  5  1  0
  6 15  1  0
  6  5  2  0
  7 12  2  0
  8  9  2  0
  8  7  1  0
  9 10  1  0
 10 11  2  0
 11 12  1  0
 11  1  1  0
 13  9  1  0
 14 13  2  0
  1 16  1  1
  2 17  1  0
  2 18  1  0
  3 19  1  0
  3 20  1  0
  4 21  1  0
  4 22  1  0
  5 23  1  0
  7 24  1  0
  8 25  1  0
 13 26  1  0
 15 27  1  0
 15 28  1  0
M  ISO  8  16  13  17  13  18  13  19  13  20  13  21  13  22  13  23  13
M  ISO  3  24  14  25  14  26   6
M  END
>  <minimizedAffinity>  (1) 
-5.24036932

>  <minimizedRMSD>  (1) 
0.427627832

$$$$
