
     RDKit          3D

 34 35  0  0  1  0  0  0  0  0999 V2000
   47.6400   34.1670   43.2590 C   0  0  2  0  0  0  0  0  0  0  0  0
   46.7530   33.5220   44.2470 C   0  0  0  0  0  0  0  0  0  0  0  0
   45.4090   33.1730   43.7030 C   0  0  0  0  0  0  0  0  0  0  0  0
   44.7000   34.3520   43.0700 C   0  0  0  0  0  0  0  0  0  0  0  0
   45.6140   35.2310   42.2570 C   0  0  0  0  0  0  0  0  0  0  0  0
   46.9460   34.5620   41.9720 C   0  0  2  0  0  0  0  0  0  0  0  0
   48.7870   33.3120   42.9040 C   0  0  0  0  0  0  0  0  0  0  0  0
   48.6050   31.9210   43.0970 C   0  0  0  0  0  0  0  0  0  0  0  0
   49.6390   31.0280   42.7870 C   0  0  0  0  0  0  0  0  0  0  0  0
   50.7900   31.5750   42.3020 N   0  0  0  0  0  0  0  0  0  0  0  0
   50.9370   32.9100   42.1260 C   0  0  0  0  0  0  0  0  0  0  0  0
   49.9410   33.7770   42.4250 N   0  0  0  0  0  0  0  0  0  0  0  0
   46.8110   33.5110   41.0170 N   0  0  0  0  0  0  0  0  0  0  0  0
   47.7290   33.8350   39.5680 S   0  0  0  0  0  0  0  0  0  0  0  0
   48.4320   35.1470   39.6350 O   0  0  0  0  0  0  0  0  0  0  0  0
   48.7260   32.7730   39.3060 O   0  0  0  0  0  0  0  0  0  0  0  0
   46.5820   33.9420   38.3320 O   0  0  0  0  0  0  0  0  0  0  0  0
   47.9796   35.0810   43.7682 H   0  0  0  0  0  0  0  0  0  0  0  0
   47.2367   32.5986   44.5983 H   0  0  0  0  0  0  0  0  0  0  0  0
   46.5944   34.2459   45.0599 H   0  0  0  0  0  0  0  0  0  0  0  0
   45.5323   32.3887   42.9416 H   0  0  0  0  0  0  0  0  0  0  0  0
   44.7913   32.8336   44.5475 H   0  0  0  0  0  0  0  0  0  0  0  0
   43.9066   33.9695   42.4111 H   0  0  0  0  0  0  0  0  0  0  0  0
   44.2986   34.9681   43.8881 H   0  0  0  0  0  0  0  0  0  0  0  0
   45.1229   35.4649   41.3009 H   0  0  0  0  0  0  0  0  0  0  0  0
   45.8113   36.1436   42.8385 H   0  0  0  0  0  0  0  0  0  0  0  0
   47.6173   35.2889   41.4914 H   0  0  0  0  0  0  0  0  0  0  0  0
   47.6507   31.5412   43.4908 H   0  0  0  0  0  0  0  0  0  0  0  0
   49.5282   29.9427   42.9275 H   0  0  0  0  0  0  0  0  0  0  0  0
   51.8873   33.2986   41.7311 H   0  0  0  0  0  0  0  0  0  0  0  0
   47.1483   32.6330   41.4367 H   0  0  0  0  0  0  0  0  0  0  0  0
   48.5679   35.4006   40.5823 H   0  0  0  0  0  0  0  0  0  0  0  0
   49.0614   32.4157   40.1662 H   0  0  0  0  0  0  0  0  0  0  0  0
   45.6781   34.0263   38.7270 H   0  0  0  0  0  0  0  0  0  0  0  0
  1  2  1  0
  3  2  1  0
  4  3  1  0
  5  4  1  0
  6  5  1  0
  6  1  1  0
  7  8  2  0
  7  1  1  0
  9  8  1  0
 10  9  2  0
 11 10  1  0
 11 12  2  0
 12  7  1  0
 13  6  1  0
 14 15  1  0
 14 13  1  0
 16 14  1  0
 17 14  1  0
  1 18  1  1
  2 19  1  0
  2 20  1  0
  3 21  1  0
  3 22  1  0
  4 23  1  0
  4 24  1  0
  5 25  1  0
  5 26  1  0
  6 27  1  6
  8 28  1  0
  9 29  1  0
 11 30  1  0
 13 31  1  0
 15 32  1  0
 16 33  1  0
 17 34  1  0
M  ISO  8  18  13  19  13  20  13  21  13  22  13  23  13  24  13  25  13
M  ISO  8  26  13  27  13  28  14  29  14  30  14  31   5  32   3  33   3
M  ISO  1  34   3
M  END
>  <minimizedAffinity>  (1) 
-4.14397955

>  <minimizedRMSD>  (1) 
3.14407659

$$$$
