
     RDKit          3D

 45 48  0  0  1  0  0  0  0  0999 V2000
   44.5700   35.5600   44.6530 C   0  0  0  0  0  0  0  0  0  0  0  0
   45.2410   35.5890   43.4110 C   0  0  0  0  0  0  0  0  0  0  0  0
   46.3420   34.6920   43.2330 C   0  0  0  0  0  0  0  0  0  0  0  0
   46.6810   33.8700   44.2520 N   0  0  0  0  0  0  0  0  0  0  0  0
   46.0150   33.8760   45.4200 C   0  0  0  0  0  0  0  0  0  0  0  0
   44.9540   34.7190   45.6290 N   0  0  0  0  0  0  0  0  0  0  0  0
   46.4420   32.9490   46.5040 C   0  0  2  0  0  0  0  0  0  0  0  0
   46.9690   31.7240   45.8080 C   0  0  0  0  0  0  0  0  0  0  0  0
   46.0940   30.5380   45.8100 C   0  0  0  0  0  0  0  0  0  0  0  0
   45.7890   30.2710   47.2820 C   0  0  0  0  0  0  0  0  0  0  0  0
   45.0050   31.3320   47.8910 C   0  0  0  0  0  0  0  0  0  0  0  0
   45.3800   32.7080   47.4550 C   0  0  0  0  0  0  0  0  0  0  0  0
   44.6870   33.8520   47.9750 N   0  0  0  0  0  0  0  0  0  0  0  0
   47.0520   34.7000   41.9640 C   0  0  0  0  0  0  0  0  0  0  0  0
   48.1930   35.4220   41.8620 C   0  0  0  0  0  0  0  0  0  0  0  0
   48.8380   35.4020   40.6210 C   0  0  0  0  0  0  0  0  0  0  0  0
   48.2530   34.6510   39.6250 C   0  0  0  0  0  0  0  0  0  0  0  0
   47.1070   33.9270   39.7320 C   0  0  0  0  0  0  0  0  0  0  0  0
   46.5100   33.9770   40.9670 N   0  0  0  0  0  0  0  0  0  0  0  0
   48.1520   34.5470   37.0440 Cl  0  0  0  0  0  0  0  0  0  0  0  0
   46.9130   33.3410   37.3640 C   0  0  0  0  0  0  0  0  0  0  0  0
   46.5020   33.1370   38.6640 C   0  0  0  0  0  0  0  0  0  0  0  0
   45.5310   32.1930   38.9160 C   0  0  0  0  0  0  0  0  0  0  0  0
   44.9470   31.4350   37.9120 C   0  0  0  0  0  0  0  0  0  0  0  0
   45.3600   31.6430   36.6220 C   0  0  0  0  0  0  0  0  0  0  0  0
   46.3310   32.5830   36.3400 C   0  0  0  0  0  0  0  0  0  0  0  0
   43.7196   36.2362   44.8247 H   0  0  0  0  0  0  0  0  0  0  0  0
   44.9292   36.2754   42.6100 H   0  0  0  0  0  0  0  0  0  0  0  0
   47.2366   33.3735   47.1352 H   0  0  0  0  0  0  0  0  0  0  0  0
   47.9138   31.4429   46.2962 H   0  0  0  0  0  0  0  0  0  0  0  0
   47.0681   32.0104   44.7506 H   0  0  0  0  0  0  0  0  0  0  0  0
   45.1668   30.7413   45.2542 H   0  0  0  0  0  0  0  0  0  0  0  0
   46.5705   29.6736   45.3245 H   0  0  0  0  0  0  0  0  0  0  0  0
   45.2273   29.3285   47.3602 H   0  0  0  0  0  0  0  0  0  0  0  0
   46.7487   30.2166   47.8168 H   0  0  0  0  0  0  0  0  0  0  0  0
   44.2002   31.1362   48.6149 H   0  0  0  0  0  0  0  0  0  0  0  0
   43.9236   33.7265   48.6549 H   0  0  0  0  0  0  0  0  0  0  0  0
   44.9530   34.7986   47.6683 H   0  0  0  0  0  0  0  0  0  0  0  0
   48.5923   35.9951   42.7118 H   0  0  0  0  0  0  0  0  0  0  0  0
   49.7698   35.9604   40.4481 H   0  0  0  0  0  0  0  0  0  0  0  0
   48.7617   34.6356   38.6498 H   0  0  0  0  0  0  0  0  0  0  0  0
   45.2059   32.0340   39.9548 H   0  0  0  0  0  0  0  0  0  0  0  0
   44.1740   30.6878   38.1447 H   0  0  0  0  0  0  0  0  0  0  0  0
   44.9144   31.0565   35.8050 H   0  0  0  0  0  0  0  0  0  0  0  0
   46.6513   32.7385   35.2992 H   0  0  0  0  0  0  0  0  0  0  0  0
  1  6  2  0
  2  1  1  0
  3  2  2  0
  3  4  1  0
  4  5  2  0
  5  6  1  0
  5  7  1  0
  7 12  1  0
  8  9  1  0
  8  7  1  0
  9 10  1  0
 10 11  1  0
 12 11  2  0
 12 13  1  0
 14  3  1  0
 15 14  2  0
 16 15  1  0
 17 18  1  0
 17 16  2  0
 18 19  2  0
 19 14  1  0
 20 21  1  0
 21 22  2  0
 22 23  1  0
 22 18  1  0
 24 23  2  0
 25 24  1  0
 26 25  2  0
 26 21  1  0
  1 27  1  0
  2 28  1  0
  7 29  1  1
  8 30  1  0
  8 31  1  0
  9 32  1  0
  9 33  1  0
 10 34  1  0
 10 35  1  0
 11 36  1  0
 13 37  1  0
 13 38  1  0
 15 39  1  0
 16 40  1  0
 17 41  1  0
 23 42  1  0
 24 43  1  0
 25 44  1  0
 26 45  1  0
M  ISO  8  27  14  28  14  29  13  30  13  31  13  32  13  33  13  34  13
M  ISO  8  35  13  36  13  39  14  40  14  41  14  42  14  43  14  44  14
M  ISO  1  45  14
M  END
>  <minimizedAffinity>  (1) 
-7.7517705

>  <minimizedRMSD>  (1) 
0.121236034

$$$$
