
     RDKit          3D

 39 41  0  0  1  0  0  0  0  0999 V2000
   44.5460   35.5430   44.6030 C   0  0  0  0  0  0  0  0  0  0  0  0
   45.2430   35.6180   43.3730 C   0  0  0  0  0  0  0  0  0  0  0  0
   46.3580   34.7590   43.2150 C   0  0  0  0  0  0  0  0  0  0  0  0
   46.7100   33.9160   44.2260 N   0  0  0  0  0  0  0  0  0  0  0  0
   46.0100   33.8860   45.3780 C   0  0  0  0  0  0  0  0  0  0  0  0
   44.9250   34.6980   45.5740 N   0  0  0  0  0  0  0  0  0  0  0  0
   46.4310   32.9520   46.4570 C   0  0  2  0  0  0  0  0  0  0  0  0
   46.9430   31.7250   45.7520 C   0  0  0  0  0  0  0  0  0  0  0  0
   46.0710   30.5470   45.7740 C   0  0  0  0  0  0  0  0  0  0  0  0
   45.7740   30.2790   47.2480 C   0  0  0  0  0  0  0  0  0  0  0  0
   45.0020   31.3540   47.8560 C   0  0  0  0  0  0  0  0  0  0  0  0
   45.3750   32.7230   47.4170 C   0  0  0  0  0  0  0  0  0  0  0  0
   44.6930   33.8650   47.9370 N   0  0  0  0  0  0  0  0  0  0  0  0
   47.1050   34.7980   41.9660 C   0  0  0  0  0  0  0  0  0  0  0  0
   48.2650   35.4990   41.9210 C   0  0  0  0  0  0  0  0  0  0  0  0
   48.9450   35.5020   40.6890 C   0  0  0  0  0  0  0  0  0  0  0  0
   48.3730   34.7980   39.6500 C   0  0  0  0  0  0  0  0  0  0  0  0
   47.2060   34.0940   39.7030 C   0  0  0  0  0  0  0  0  0  0  0  0
   46.5960   34.1290   40.9140 N   0  0  0  0  0  0  0  0  0  0  0  0
   47.2040   33.6830   37.2900 C   0  0  0  0  0  0  0  0  0  0  0  0
   48.1270   34.5540   37.1990 O   0  0  0  0  0  0  0  0  0  0  0  0
   46.6640   33.3860   38.5930 N   0  0  0  0  0  0  0  0  0  0  0  0
   43.6734   36.1926   44.7665 H   0  0  0  0  0  0  0  0  0  0  0  0
   44.9330   36.3111   42.5771 H   0  0  0  0  0  0  0  0  0  0  0  0
   47.2327   33.3640   47.0875 H   0  0  0  0  0  0  0  0  0  0  0  0
   47.8972   31.4434   46.2214 H   0  0  0  0  0  0  0  0  0  0  0  0
   47.0218   32.0094   44.6923 H   0  0  0  0  0  0  0  0  0  0  0  0
   45.1391   30.7496   45.2258 H   0  0  0  0  0  0  0  0  0  0  0  0
   46.5475   29.6805   45.2922 H   0  0  0  0  0  0  0  0  0  0  0  0
   45.2033   29.3422   47.3301 H   0  0  0  0  0  0  0  0  0  0  0  0
   46.7345   30.2094   47.7797 H   0  0  0  0  0  0  0  0  0  0  0  0
   44.2015   31.1658   48.5866 H   0  0  0  0  0  0  0  0  0  0  0  0
   43.9345   33.7436   48.6232 H   0  0  0  0  0  0  0  0  0  0  0  0
   44.9596   34.8100   47.6258 H   0  0  0  0  0  0  0  0  0  0  0  0
   48.6530   36.0358   42.7992 H   0  0  0  0  0  0  0  0  0  0  0  0
   49.8937   36.0435   40.5599 H   0  0  0  0  0  0  0  0  0  0  0  0
   48.9079   34.8050   38.6889 H   0  0  0  0  0  0  0  0  0  0  0  0
   46.8265   33.1681   36.3942 H   0  0  0  0  0  0  0  0  0  0  0  0
   45.9156   32.6891   38.7162 H   0  0  0  0  0  0  0  0  0  0  0  0
  1  6  2  0
  2  1  1  0
  3  2  2  0
  3  4  1  0
  4  5  2  0
  5  6  1  0
  5  7  1  0
  7 12  1  0
  8  9  1  0
  8  7  1  0
  9 10  1  0
 10 11  1  0
 12 11  2  0
 12 13  1  0
 14  3  1  0
 15 14  2  0
 16 15  1  0
 17 18  1  0
 17 16  2  0
 18 19  2  0
 19 14  1  0
 20 22  1  0
 21 20  2  0
 22 18  1  0
  1 23  1  0
  2 24  1  0
  7 25  1  1
  8 26  1  0
  8 27  1  0
  9 28  1  0
  9 29  1  0
 10 30  1  0
 10 31  1  0
 11 32  1  0
 13 33  1  0
 13 34  1  0
 15 35  1  0
 16 36  1  0
 17 37  1  0
 20 38  1  0
 22 39  1  0
M  ISO  8  23  14  24  14  25  13  26  13  27  13  28  13  29  13  30  13
M  ISO  6  31  13  32  13  35  14  36  14  37  14  38   6
M  END
>  <minimizedAffinity>  (1) 
-7.61546659

>  <minimizedRMSD>  (1) 
0.234966725

$$$$
