
     RDKit          3D

 38 40  0  0  1  0  0  0  0  0999 V2000
   44.5740   35.5820   44.6020 C   0  0  0  0  0  0  0  0  0  0  0  0
   45.2400   35.6000   43.3550 C   0  0  0  0  0  0  0  0  0  0  0  0
   46.3310   34.6930   43.1820 C   0  0  0  0  0  0  0  0  0  0  0  0
   46.6690   33.8760   44.2020 N   0  0  0  0  0  0  0  0  0  0  0  0
   46.0060   33.8950   45.3700 C   0  0  0  0  0  0  0  0  0  0  0  0
   44.9560   34.7440   45.5840 N   0  0  0  0  0  0  0  0  0  0  0  0
   46.4380   32.9680   46.4530 C   0  0  2  0  0  0  0  0  0  0  0  0
   46.9600   31.7420   45.7550 C   0  0  0  0  0  0  0  0  0  0  0  0
   46.0970   30.5530   45.7790 C   0  0  0  0  0  0  0  0  0  0  0  0
   45.8100   30.2960   47.2620 C   0  0  0  0  0  0  0  0  0  0  0  0
   45.0190   31.3640   47.8640 C   0  0  0  0  0  0  0  0  0  0  0  0
   45.3820   32.7360   47.4120 C   0  0  0  0  0  0  0  0  0  0  0  0
   44.6810   33.8780   47.9230 N   0  0  0  0  0  0  0  0  0  0  0  0
   47.0310   34.6900   41.9050 C   0  0  0  0  0  0  0  0  0  0  0  0
   48.1720   35.4180   41.7900 C   0  0  0  0  0  0  0  0  0  0  0  0
   48.8080   35.3820   40.5410 C   0  0  0  0  0  0  0  0  0  0  0  0
   48.2170   34.6160   39.5620 C   0  0  0  0  0  0  0  0  0  0  0  0
   47.0740   33.8850   39.6780 C   0  0  0  0  0  0  0  0  0  0  0  0
   46.4940   33.9540   40.9130 N   0  0  0  0  0  0  0  0  0  0  0  0
   46.4600   33.0760   38.6270 C   0  0  0  0  0  0  0  0  0  0  0  0
   46.7220   33.6760   37.4020 F   0  0  0  0  0  0  0  0  0  0  0  0
   46.9610   31.7940   38.5300 F   0  0  0  0  0  0  0  0  0  0  0  0
   45.0730   33.0720   38.7400 F   0  0  0  0  0  0  0  0  0  0  0  0
   43.7287   36.2648   44.7729 H   0  0  0  0  0  0  0  0  0  0  0  0
   44.9312   36.2841   42.5508 H   0  0  0  0  0  0  0  0  0  0  0  0
   47.2386   33.3878   47.0798 H   0  0  0  0  0  0  0  0  0  0  0  0
   47.9154   31.4704   46.2277 H   0  0  0  0  0  0  0  0  0  0  0  0
   47.0367   32.0230   44.6943 H   0  0  0  0  0  0  0  0  0  0  0  0
   45.1617   30.7439   45.2324 H   0  0  0  0  0  0  0  0  0  0  0  0
   46.5750   29.6878   45.2964 H   0  0  0  0  0  0  0  0  0  0  0  0
   45.2576   29.3495   47.3570 H   0  0  0  0  0  0  0  0  0  0  0  0
   46.7742   30.2518   47.7896 H   0  0  0  0  0  0  0  0  0  0  0  0
   44.2185   31.1713   48.5934 H   0  0  0  0  0  0  0  0  0  0  0  0
   43.9222   33.7524   48.6081 H   0  0  0  0  0  0  0  0  0  0  0  0
   44.9363   34.8238   47.6049 H   0  0  0  0  0  0  0  0  0  0  0  0
   48.5746   36.0032   42.6300 H   0  0  0  0  0  0  0  0  0  0  0  0
   49.7367   35.9404   40.3521 H   0  0  0  0  0  0  0  0  0  0  0  0
   48.7203   34.5918   38.5842 H   0  0  0  0  0  0  0  0  0  0  0  0
  1  6  2  0
  2  1  1  0
  3  2  2  0
  3  4  1  0
  4  5  2  0
  5  6  1  0
  5  7  1  0
  7 12  1  0
  8  9  1  0
  8  7  1  0
  9 10  1  0
 10 11  1  0
 12 11  2  0
 12 13  1  0
 14  3  1  0
 15 14  2  0
 16 15  1  0
 17 18  1  0
 17 16  2  0
 18 19  2  0
 19 14  1  0
 20 23  1  0
 20 18  1  0
 21 20  1  0
 22 20  1  0
  1 24  1  0
  2 25  1  0
  7 26  1  1
  8 27  1  0
  8 28  1  0
  9 29  1  0
  9 30  1  0
 10 31  1  0
 10 32  1  0
 11 33  1  0
 13 34  1  0
 13 35  1  0
 15 36  1  0
 16 37  1  0
 17 38  1  0
M  ISO  8  24  14  25  14  26  13  27  13  28  13  29  13  30  13  31  13
M  ISO  5  32  13  33  13  36  14  37  14  38  14
M  END
>  <minimizedAffinity>  (1) 
-7.07781935

>  <minimizedRMSD>  (1) 
0.0816398114

$$$$
