
     RDKit          3D

 43 46  0  0  1  0  0  0  0  0999 V2000
   44.5760   35.5840   44.6020 C   0  0  0  0  0  0  0  0  0  0  0  0
   45.2330   35.5940   43.3520 C   0  0  0  0  0  0  0  0  0  0  0  0
   46.3190   34.6820   43.1750 C   0  0  0  0  0  0  0  0  0  0  0  0
   46.6650   33.8650   44.1890 N   0  0  0  0  0  0  0  0  0  0  0  0
   46.0060   33.8910   45.3660 C   0  0  0  0  0  0  0  0  0  0  0  0
   44.9620   34.7460   45.5800 N   0  0  0  0  0  0  0  0  0  0  0  0
   46.4340   32.9690   46.4520 C   0  0  2  0  0  0  0  0  0  0  0  0
   46.9600   31.7430   45.7580 C   0  0  0  0  0  0  0  0  0  0  0  0
   46.0890   30.5530   45.7760 C   0  0  0  0  0  0  0  0  0  0  0  0
   45.8010   30.3000   47.2600 C   0  0  0  0  0  0  0  0  0  0  0  0
   45.0150   31.3650   47.8600 C   0  0  0  0  0  0  0  0  0  0  0  0
   45.3770   32.7340   47.4110 C   0  0  0  0  0  0  0  0  0  0  0  0
   44.6810   33.8790   47.9210 N   0  0  0  0  0  0  0  0  0  0  0  0
   47.0110   34.6720   41.8960 C   0  0  0  0  0  0  0  0  0  0  0  0
   48.1650   35.3790   41.7730 C   0  0  0  0  0  0  0  0  0  0  0  0
   48.7900   35.3320   40.5130 C   0  0  0  0  0  0  0  0  0  0  0  0
   48.1750   34.5790   39.5320 C   0  0  0  0  0  0  0  0  0  0  0  0
   47.0170   33.8740   39.6630 C   0  0  0  0  0  0  0  0  0  0  0  0
   46.4550   33.9540   40.9030 N   0  0  0  0  0  0  0  0  0  0  0  0
   46.4140   33.1020   38.6060 C   0  0  0  0  0  0  0  0  0  0  0  0
   46.7470   33.3630   37.2930 C   0  0  0  0  0  0  0  0  0  0  0  0
   46.1140   32.5660   36.3340 C   0  0  0  0  0  0  0  0  0  0  0  0
   45.2380   31.6140   36.7120 N   0  0  0  0  0  0  0  0  0  0  0  0
   44.9290   31.3790   38.0080 C   0  0  0  0  0  0  0  0  0  0  0  0
   45.5350   32.1440   38.9470 N   0  0  0  0  0  0  0  0  0  0  0  0
   43.7360   36.2720   44.7781 H   0  0  0  0  0  0  0  0  0  0  0  0
   44.9215   36.2761   42.5472 H   0  0  0  0  0  0  0  0  0  0  0  0
   47.2297   33.3949   47.0809 H   0  0  0  0  0  0  0  0  0  0  0  0
   47.9107   31.4688   46.2385 H   0  0  0  0  0  0  0  0  0  0  0  0
   47.0485   32.0234   44.6980 H   0  0  0  0  0  0  0  0  0  0  0  0
   45.1554   30.7480   45.2280 H   0  0  0  0  0  0  0  0  0  0  0  0
   46.5613   29.6858   45.2913 H   0  0  0  0  0  0  0  0  0  0  0  0
   45.2471   29.3545   47.3564 H   0  0  0  0  0  0  0  0  0  0  0  0
   46.7657   30.2568   47.7868 H   0  0  0  0  0  0  0  0  0  0  0  0
   44.2146   31.1725   48.5896 H   0  0  0  0  0  0  0  0  0  0  0  0
   43.9214   33.7571   48.6058 H   0  0  0  0  0  0  0  0  0  0  0  0
   44.9406   34.8235   47.6026 H   0  0  0  0  0  0  0  0  0  0  0  0
   48.5863   35.9549   42.6101 H   0  0  0  0  0  0  0  0  0  0  0  0
   49.7283   35.8719   40.3178 H   0  0  0  0  0  0  0  0  0  0  0  0
   48.6684   34.5454   38.5494 H   0  0  0  0  0  0  0  0  0  0  0  0
   47.4656   34.1490   37.0176 H   0  0  0  0  0  0  0  0  0  0  0  0
   46.3320   32.7167   35.2664 H   0  0  0  0  0  0  0  0  0  0  0  0
   44.2110   30.5944   38.2891 H   0  0  0  0  0  0  0  0  0  0  0  0
  1  6  2  0
  2  1  1  0
  3  2  2  0
  3  4  1  0
  4  5  2  0
  5  6  1  0
  5  7  1  0
  7 12  1  0
  8  9  1  0
  8  7  1  0
  9 10  1  0
 10 11  1  0
 12 11  2  0
 12 13  1  0
 14  3  1  0
 15 14  2  0
 16 15  1  0
 17 18  1  0
 17 16  2  0
 18 19  2  0
 19 14  1  0
 20 25  1  0
 20 18  1  0
 21 20  2  0
 22 23  2  0
 22 21  1  0
 23 24  1  0
 24 25  2  0
  1 26  1  0
  2 27  1  0
  7 28  1  1
  8 29  1  0
  8 30  1  0
  9 31  1  0
  9 32  1  0
 10 33  1  0
 10 34  1  0
 11 35  1  0
 13 36  1  0
 13 37  1  0
 15 38  1  0
 16 39  1  0
 17 40  1  0
 21 41  1  0
 22 42  1  0
 24 43  1  0
M  ISO  8  26  14  27  14  28  13  29  13  30  13  31  13  32  13  33  13
M  ISO  8  34  13  35  13  38  14  39  14  40  14  41  14  42  14  43  14
M  END
>  <minimizedAffinity>  (1) 
-7.3608036

>  <minimizedRMSD>  (1) 
0.225699931

$$$$
