
     RDKit          3D

 27 28  0  0  1  0  0  0  0  0999 V2000
   47.1500   32.7570   42.7810 C   0  0  2  0  0  0  0  0  0  0  0  0
   46.5970   33.2200   41.5000 C   0  0  0  0  0  0  0  0  0  0  0  0
   46.3800   34.7060   41.4410 C   0  0  0  0  0  0  0  0  0  0  0  0
   45.4780   35.1860   42.5650 C   0  0  0  0  0  0  0  0  0  0  0  0
   45.7730   34.5360   43.8840 C   0  0  0  0  0  0  0  0  0  0  0  0
   47.1050   33.8200   43.8720 C   0  0  1  0  0  0  0  0  0  0  0  0
   48.5440   32.2950   42.6850 C   0  0  0  0  0  0  0  0  0  0  0  0
   49.4730   33.2420   42.2160 C   0  0  0  0  0  0  0  0  0  0  0  0
   50.8240   32.8990   42.0930 C   0  0  0  0  0  0  0  0  0  0  0  0
   51.1620   31.6210   42.4480 N   0  0  0  0  0  0  0  0  0  0  0  0
   50.2470   30.7240   42.8990 C   0  0  0  0  0  0  0  0  0  0  0  0
   48.9570   31.0680   43.0100 N   0  0  0  0  0  0  0  0  0  0  0  0
   47.2330   33.1630   45.0890 O   0  0  0  0  0  0  0  0  0  0  0  0
   46.4962   31.9135   43.0475 H   0  0  0  0  0  0  0  0  0  0  0  0
   47.2948   32.9382   40.6977 H   0  0  0  0  0  0  0  0  0  0  0  0
   45.6118   32.7450   41.3831 H   0  0  0  0  0  0  0  0  0  0  0  0
   47.3531   35.2121   41.5237 H   0  0  0  0  0  0  0  0  0  0  0  0
   45.8926   34.9441   40.4841 H   0  0  0  0  0  0  0  0  0  0  0  0
   45.6066   36.2729   42.6753 H   0  0  0  0  0  0  0  0  0  0  0  0
   44.4473   34.9149   42.2926 H   0  0  0  0  0  0  0  0  0  0  0  0
   45.7916   35.3095   44.6658 H   0  0  0  0  0  0  0  0  0  0  0  0
   44.9870   33.7924   44.0821 H   0  0  0  0  0  0  0  0  0  0  0  0
   47.9046   34.5543   43.6948 H   0  0  0  0  0  0  0  0  0  0  0  0
   49.1366   34.2538   41.9456 H   0  0  0  0  0  0  0  0  0  0  0  0
   51.5739   33.6176   41.7306 H   0  0  0  0  0  0  0  0  0  0  0  0
   50.5674   29.7085   43.1749 H   0  0  0  0  0  0  0  0  0  0  0  0
   47.1070   33.8097   45.8280 H   0  0  0  0  0  0  0  0  0  0  0  0
  1  6  1  0
  2  1  1  0
  3  2  1  0
  3  4  1  0
  4  5  1  0
  6  5  1  0
  6 13  1  0
  7  1  1  0
  7 12  1  0
  8  7  2  0
  9  8  1  0
  9 10  2  0
 10 11  1  0
 11 12  2  0
  1 14  1  1
  2 15  1  0
  2 16  1  0
  3 17  1  0
  3 18  1  0
  4 19  1  0
  4 20  1  0
  5 21  1  0
  5 22  1  0
  6 23  1  6
  8 24  1  0
  9 25  1  0
 11 26  1  0
 13 27  1  0
M  ISO  8  14  13  15  13  16  13  17  13  18  13  19  13  20  13  21  13
M  ISO  6  22  13  23  13  24  14  25  14  26  14  27   3
M  END
>  <minimizedAffinity>  (1) 
-3.49072194

>  <minimizedRMSD>  (1) 
0.494897783

$$$$
