
     RDKit          3D

 44 47  0  0  1  0  0  0  0  0999 V2000
   44.5590   35.5650   44.6130 C   0  0  0  0  0  0  0  0  0  0  0  0
   45.2450   35.6020   43.3760 C   0  0  0  0  0  0  0  0  0  0  0  0
   46.3430   34.7270   43.1990 C   0  0  0  0  0  0  0  0  0  0  0  0
   46.6910   33.8920   44.2140 N   0  0  0  0  0  0  0  0  0  0  0  0
   46.0110   33.8890   45.3750 C   0  0  0  0  0  0  0  0  0  0  0  0
   44.9440   34.7220   45.5820 N   0  0  0  0  0  0  0  0  0  0  0  0
   46.4320   32.9580   46.4610 C   0  0  2  0  0  0  0  0  0  0  0  0
   46.9480   31.7270   45.7460 C   0  0  0  0  0  0  0  0  0  0  0  0
   46.0610   30.5580   45.7760 C   0  0  0  0  0  0  0  0  0  0  0  0
   45.8020   30.2920   47.2560 C   0  0  0  0  0  0  0  0  0  0  0  0
   45.0140   31.3580   47.8630 C   0  0  0  0  0  0  0  0  0  0  0  0
   45.3840   32.7310   47.4160 C   0  0  0  0  0  0  0  0  0  0  0  0
   44.6910   33.8620   47.9410 N   0  0  0  0  0  0  0  0  0  0  0  0
   47.0580   34.7450   41.9410 C   0  0  0  0  0  0  0  0  0  0  0  0
   48.2190   35.4700   41.8690 C   0  0  0  0  0  0  0  0  0  0  0  0
   48.8720   35.4520   40.6210 C   0  0  0  0  0  0  0  0  0  0  0  0
   48.2950   34.7230   39.6180 C   0  0  0  0  0  0  0  0  0  0  0  0
   47.1340   33.9950   39.6800 C   0  0  0  0  0  0  0  0  0  0  0  0
   46.5320   34.0400   40.9110 N   0  0  0  0  0  0  0  0  0  0  0  0
   46.6020   33.2840   38.6430 O   0  0  0  0  0  0  0  0  0  0  0  0
   47.2190   33.0780   37.4620 C   0  0  0  0  0  0  0  0  0  0  0  0
   46.1820   32.4850   36.7050 C   0  0  0  0  0  0  0  0  0  0  0  0
   46.3820   32.0910   35.3670 C   0  0  0  0  0  0  0  0  0  0  0  0
   47.5890   32.2850   34.7980 N   0  0  0  0  0  0  0  0  0  0  0  0
   48.5570   32.8460   35.5290 C   0  0  0  0  0  0  0  0  0  0  0  0
   48.4020   33.2290   36.7930 N   0  0  0  0  0  0  0  0  0  0  0  0
   43.7021   36.2339   44.7812 H   0  0  0  0  0  0  0  0  0  0  0  0
   44.9342   36.2901   42.5761 H   0  0  0  0  0  0  0  0  0  0  0  0
   47.2295   33.3698   47.0970 H   0  0  0  0  0  0  0  0  0  0  0  0
   47.9022   31.4399   46.2120 H   0  0  0  0  0  0  0  0  0  0  0  0
   47.0378   32.0096   44.6867 H   0  0  0  0  0  0  0  0  0  0  0  0
   45.1184   30.7751   45.2521 H   0  0  0  0  0  0  0  0  0  0  0  0
   46.5092   29.6881   45.2736 H   0  0  0  0  0  0  0  0  0  0  0  0
   45.2563   29.3424   47.3579 H   0  0  0  0  0  0  0  0  0  0  0  0
   46.7723   30.2448   47.7720 H   0  0  0  0  0  0  0  0  0  0  0  0
   44.2123   31.1649   48.5910 H   0  0  0  0  0  0  0  0  0  0  0  0
   43.9347   33.7295   48.6276 H   0  0  0  0  0  0  0  0  0  0  0  0
   44.9469   34.8111   47.6335 H   0  0  0  0  0  0  0  0  0  0  0  0
   48.6149   36.0293   42.7295 H   0  0  0  0  0  0  0  0  0  0  0  0
   49.8101   36.0032   40.4594 H   0  0  0  0  0  0  0  0  0  0  0  0
   48.8215   34.7201   38.6522 H   0  0  0  0  0  0  0  0  0  0  0  0
   45.1980   32.3279   37.1708 H   0  0  0  0  0  0  0  0  0  0  0  0
   45.5637   31.6309   34.7938 H   0  0  0  0  0  0  0  0  0  0  0  0
   49.5390   32.9999   35.0577 H   0  0  0  0  0  0  0  0  0  0  0  0
  1  6  2  0
  2  1  1  0
  3  2  2  0
  3  4  1  0
  4  5  2  0
  5  6  1  0
  5  7  1  0
  7 12  1  0
  8  9  1  0
  8  7  1  0
  9 10  1  0
 10 11  1  0
 12 11  2  0
 12 13  1  0
 14  3  1  0
 15 14  2  0
 16 15  1  0
 17 18  1  0
 17 16  2  0
 18 19  2  0
 19 14  1  0
 20 18  1  0
 21 20  1  0
 22 21  2  0
 23 22  1  0
 24 23  2  0
 24 25  1  0
 25 26  2  0
 26 21  1  0
  1 27  1  0
  2 28  1  0
  7 29  1  1
  8 30  1  0
  8 31  1  0
  9 32  1  0
  9 33  1  0
 10 34  1  0
 10 35  1  0
 11 36  1  0
 13 37  1  0
 13 38  1  0
 15 39  1  0
 16 40  1  0
 17 41  1  0
 22 42  1  0
 23 43  1  0
 25 44  1  0
M  ISO  8  27  14  28  14  29  13  30  13  31  13  32  13  33  13  34  13
M  ISO  8  35  13  36  13  39  14  40  14  41  14  42  14  43  14  44  14
M  END
>  <minimizedAffinity>  (1) 
-7.39657259

>  <minimizedRMSD>  (1) 
0.216535762

$$$$
