
     RDKit          3D

 50 54  0  0  1  0  0  0  0  0999 V2000
   44.5550   35.5320   44.6020 C   0  0  0  0  0  0  0  0  0  0  0  0
   45.2650   35.5970   43.3780 C   0  0  0  0  0  0  0  0  0  0  0  0
   46.3980   34.7300   43.2200 C   0  0  0  0  0  0  0  0  0  0  0  0
   46.7280   33.8960   44.2520 N   0  0  0  0  0  0  0  0  0  0  0  0
   46.0260   33.8720   45.3900 C   0  0  0  0  0  0  0  0  0  0  0  0
   44.9350   34.6880   45.5760 N   0  0  0  0  0  0  0  0  0  0  0  0
   46.4310   32.9480   46.4840 C   0  0  2  0  0  0  0  0  0  0  0  0
   46.9470   31.7120   45.7790 C   0  0  0  0  0  0  0  0  0  0  0  0
   46.0580   30.5400   45.7860 C   0  0  0  0  0  0  0  0  0  0  0  0
   45.7720   30.2700   47.2590 C   0  0  0  0  0  0  0  0  0  0  0  0
   44.9880   31.3510   47.8760 C   0  0  0  0  0  0  0  0  0  0  0  0
   45.3790   32.7160   47.4310 C   0  0  0  0  0  0  0  0  0  0  0  0
   44.6990   33.8540   47.9470 N   0  0  0  0  0  0  0  0  0  0  0  0
   47.1430   34.7670   41.9870 C   0  0  0  0  0  0  0  0  0  0  0  0
   48.2280   35.5630   41.8980 C   0  0  0  0  0  0  0  0  0  0  0  0
   48.9130   35.5580   40.6700 C   0  0  0  0  0  0  0  0  0  0  0  0
   48.4040   34.7360   39.6740 C   0  0  0  0  0  0  0  0  0  0  0  0
   47.3020   33.9280   39.7670 C   0  0  0  0  0  0  0  0  0  0  0  0
   46.6970   33.9920   40.9870 N   0  0  0  0  0  0  0  0  0  0  0  0
   46.8630   33.1450   38.7320 O   0  0  0  0  0  0  0  0  0  0  0  0
   48.4970   31.4900   37.8910 C   0  0  0  0  0  0  0  0  0  0  0  0
   47.6470   32.5600   37.7820 C   0  0  0  0  0  0  0  0  0  0  0  0
   47.5440   33.1650   36.5290 C   0  0  0  0  0  0  0  0  0  0  0  0
   48.2650   32.7110   35.4360 C   0  0  0  0  0  0  0  0  0  0  0  0
   48.3710   33.0800   34.1380 N   0  0  0  0  0  0  0  0  0  0  0  0
   49.2260   32.2910   33.4990 C   0  0  0  0  0  0  0  0  0  0  0  0
   49.7230   31.3580   34.3690 C   0  0  0  0  0  0  0  0  0  0  0  0
   49.1180   31.6250   35.5800 C   0  0  0  0  0  0  0  0  0  0  0  0
   49.2280   31.0210   36.8100 C   0  0  0  0  0  0  0  0  0  0  0  0
   43.6807   36.1813   44.7572 H   0  0  0  0  0  0  0  0  0  0  0  0
   44.9592   36.2869   42.5776 H   0  0  0  0  0  0  0  0  0  0  0  0
   47.2185   33.3715   47.1246 H   0  0  0  0  0  0  0  0  0  0  0  0
   47.8910   31.4198   46.2623 H   0  0  0  0  0  0  0  0  0  0  0  0
   47.0482   31.9976   44.7216 H   0  0  0  0  0  0  0  0  0  0  0  0
   45.1256   30.7589   45.2450 H   0  0  0  0  0  0  0  0  0  0  0  0
   46.5149   29.6720   45.2881 H   0  0  0  0  0  0  0  0  0  0  0  0
   45.2083   29.3293   47.3446 H   0  0  0  0  0  0  0  0  0  0  0  0
   46.7356   30.2062   47.7858 H   0  0  0  0  0  0  0  0  0  0  0  0
   44.1831   31.1664   48.6027 H   0  0  0  0  0  0  0  0  0  0  0  0
   43.9370   33.7331   48.6294 H   0  0  0  0  0  0  0  0  0  0  0  0
   44.9686   34.7989   47.6382 H   0  0  0  0  0  0  0  0  0  0  0  0
   48.5601   36.1843   42.7428 H   0  0  0  0  0  0  0  0  0  0  0  0
   49.8086   36.1754   40.5066 H   0  0  0  0  0  0  0  0  0  0  0  0
   48.9396   34.7333   38.7132 H   0  0  0  0  0  0  0  0  0  0  0  0
   48.6023   30.9888   38.8645 H   0  0  0  0  0  0  0  0  0  0  0  0
   46.8715   34.0267   36.4052 H   0  0  0  0  0  0  0  0  0  0  0  0
   47.8598   33.8633   33.7066 H   0  0  0  0  0  0  0  0  0  0  0  0
   49.4937   32.3739   32.4353 H   0  0  0  0  0  0  0  0  0  0  0  0
   50.4510   30.5632   34.1490 H   0  0  0  0  0  0  0  0  0  0  0  0
   49.9004   30.1599   36.9376 H   0  0  0  0  0  0  0  0  0  0  0  0
  1  6  2  0
  2  1  1  0
  3  2  2  0
  3  4  1  0
  4  5  2  0
  5  6  1  0
  5  7  1  0
  7 12  1  0
  8  9  1  0
  8  7  1  0
  9 10  1  0
 10 11  1  0
 12 11  2  0
 12 13  1  0
 14  3  1  0
 15 14  2  0
 16 15  1  0
 17 18  1  0
 17 16  2  0
 18 19  2  0
 19 14  1  0
 20 18  1  0
 22 21  2  0
 22 20  1  0
 23 22  1  0
 24 28  1  0
 24 23  2  0
 25 24  1  0
 26 25  1  0
 26 27  2  0
 27 28  1  0
 28 29  2  0
 29 21  1  0
  1 30  1  0
  2 31  1  0
  7 32  1  1
  8 33  1  0
  8 34  1  0
  9 35  1  0
  9 36  1  0
 10 37  1  0
 10 38  1  0
 11 39  1  0
 13 40  1  0
 13 41  1  0
 15 42  1  0
 16 43  1  0
 17 44  1  0
 21 45  1  0
 23 46  1  0
 25 47  1  0
 26 48  1  0
 27 49  1  0
 29 50  1  0
M  ISO  8  30  14  31  14  32  13  33  13  34  13  35  13  36  13  37  13
M  ISO  8  38  13  39  13  42  14  43  14  44  14  45  14  46  14  47   9
M  ISO  3  48  14  49  14  50  14
M  END
>  <minimizedAffinity>  (1) 
-7.86738825

>  <minimizedRMSD>  (1) 
1.1100018

$$$$
