
     RDKit          3D

 39 41  0  0  1  0  0  0  0  0999 V2000
   44.5680   35.5980   44.6150 C   0  0  0  0  0  0  0  0  0  0  0  0
   45.2350   35.6030   43.3650 C   0  0  0  0  0  0  0  0  0  0  0  0
   46.3160   34.7020   43.1820 C   0  0  0  0  0  0  0  0  0  0  0  0
   46.6740   33.8720   44.2000 N   0  0  0  0  0  0  0  0  0  0  0  0
   46.0140   33.9010   45.3680 C   0  0  0  0  0  0  0  0  0  0  0  0
   44.9620   34.7570   45.5880 N   0  0  0  0  0  0  0  0  0  0  0  0
   46.4350   32.9780   46.4680 C   0  0  2  0  0  0  0  0  0  0  0  0
   46.9560   31.7460   45.7600 C   0  0  0  0  0  0  0  0  0  0  0  0
   46.0810   30.5680   45.7720 C   0  0  0  0  0  0  0  0  0  0  0  0
   45.7920   30.2960   47.2500 C   0  0  0  0  0  0  0  0  0  0  0  0
   45.0040   31.3650   47.8550 C   0  0  0  0  0  0  0  0  0  0  0  0
   45.3820   32.7370   47.4130 C   0  0  0  0  0  0  0  0  0  0  0  0
   44.6850   33.8700   47.9320 N   0  0  0  0  0  0  0  0  0  0  0  0
   47.0150   34.6850   41.9070 C   0  0  0  0  0  0  0  0  0  0  0  0
   48.1510   35.3970   41.7760 C   0  0  0  0  0  0  0  0  0  0  0  0
   48.7760   35.3370   40.5130 C   0  0  0  0  0  0  0  0  0  0  0  0
   48.1780   34.5700   39.5470 C   0  0  0  0  0  0  0  0  0  0  0  0
   47.0350   33.8550   39.6800 C   0  0  0  0  0  0  0  0  0  0  0  0
   46.4700   33.9470   40.9210 N   0  0  0  0  0  0  0  0  0  0  0  0
   46.4690   33.0880   38.6600 O   0  0  0  0  0  0  0  0  0  0  0  0
   45.0660   32.9010   38.6980 C   0  0  0  0  0  0  0  0  0  0  0  0
   43.7258   36.2836   44.7902 H   0  0  0  0  0  0  0  0  0  0  0  0
   44.9241   36.2852   42.5601 H   0  0  0  0  0  0  0  0  0  0  0  0
   47.2217   33.4062   47.1066 H   0  0  0  0  0  0  0  0  0  0  0  0
   47.9058   31.4624   46.2369 H   0  0  0  0  0  0  0  0  0  0  0  0
   47.0457   32.0328   44.7018 H   0  0  0  0  0  0  0  0  0  0  0  0
   45.1474   30.7757   45.2285 H   0  0  0  0  0  0  0  0  0  0  0  0
   46.5498   29.7033   45.2795 H   0  0  0  0  0  0  0  0  0  0  0  0
   45.2351   29.3512   47.3357 H   0  0  0  0  0  0  0  0  0  0  0  0
   46.7537   30.2384   47.7809 H   0  0  0  0  0  0  0  0  0  0  0  0
   44.1973   31.1737   48.5779 H   0  0  0  0  0  0  0  0  0  0  0  0
   43.9229   33.7386   48.6124 H   0  0  0  0  0  0  0  0  0  0  0  0
   44.9443   34.8187   47.6260 H   0  0  0  0  0  0  0  0  0  0  0  0
   48.5663   35.9897   42.6044 H   0  0  0  0  0  0  0  0  0  0  0  0
   49.7081   35.8850   40.3108 H   0  0  0  0  0  0  0  0  0  0  0  0
   48.6755   34.5312   38.5667 H   0  0  0  0  0  0  0  0  0  0  0  0
   44.7303   32.8563   39.7446 H   0  0  0  0  0  0  0  0  0  0  0  0
   44.5702   33.7410   38.1895 H   0  0  0  0  0  0  0  0  0  0  0  0
   44.8075   31.9605   38.1895 H   0  0  0  0  0  0  0  0  0  0  0  0
  1  6  2  0
  2  1  1  0
  3  2  2  0
  3  4  1  0
  4  5  2  0
  5  6  1  0
  5  7  1  0
  7 12  1  0
  8  9  1  0
  8  7  1  0
  9 10  1  0
 10 11  1  0
 12 11  2  0
 12 13  1  0
 14  3  1  0
 15 14  2  0
 16 15  1  0
 17 18  1  0
 17 16  2  0
 18 19  2  0
 19 14  1  0
 20 21  1  0
 20 18  1  0
  1 22  1  0
  2 23  1  0
  7 24  1  1
  8 25  1  0
  8 26  1  0
  9 27  1  0
  9 28  1  0
 10 29  1  0
 10 30  1  0
 11 31  1  0
 13 32  1  0
 13 33  1  0
 15 34  1  0
 16 35  1  0
 17 36  1  0
 21 37  1  0
 21 38  1  0
 21 39  1  0
M  ISO  8  22  14  23  14  24  13  25  13  26  13  27  13  28  13  29  13
M  ISO  8  30  13  31  13  34  14  35  14  36  14  37   8  38   8  39   8
M  END
>  <minimizedAffinity>  (1) 
-6.76053524

>  <minimizedRMSD>  (1) 
0.134560183

$$$$
