
     RDKit          3D

 27 29  0  0  0  0  0  0  0  0999 V2000
   45.0440   34.8560   42.5720 C   0  0  0  0  0  0  0  0  0  0  0  0
   46.2530   35.0410   41.8800 C   0  0  0  0  0  0  0  0  0  0  0  0
   47.3710   34.4460   42.4450 C   0  0  0  0  0  0  0  0  0  0  0  0
   47.2710   33.7340   43.6020 N   0  0  0  0  0  0  0  0  0  0  0  0
   46.0720   33.5790   44.2440 C   0  0  0  0  0  0  0  0  0  0  0  0
   44.9780   34.1500   43.7070 N   0  0  0  0  0  0  0  0  0  0  0  0
   46.6060   30.5650   44.1850 Cl  0  0  0  0  0  0  0  0  0  0  0  0
   46.1290   31.4640   45.5820 C   0  0  0  0  0  0  0  0  0  0  0  0
   45.9180   32.8220   45.4810 C   0  0  0  0  0  0  0  0  0  0  0  0
   45.5380   33.4510   46.6500 C   0  0  0  0  0  0  0  0  0  0  0  0
   45.3810   32.7700   47.8380 C   0  0  0  0  0  0  0  0  0  0  0  0
   45.6010   31.4110   47.8970 C   0  0  0  0  0  0  0  0  0  0  0  0
   45.3860   30.6000   49.4340 Cl  0  0  0  0  0  0  0  0  0  0  0  0
   45.9820   30.7450   46.7500 C   0  0  0  0  0  0  0  0  0  0  0  0
   48.7150   34.5520   41.7880 C   0  0  0  0  0  0  0  0  0  0  0  0
   49.1340   35.9800   41.5140 C   0  0  0  0  0  0  0  0  0  0  0  0
   49.8350   35.0790   42.5540 C   0  0  0  0  0  0  0  0  0  0  0  0
   44.1243   35.3049   42.1687 H   0  0  0  0  0  0  0  0  0  0  0  0
   46.3091   35.6220   40.9476 H   0  0  0  0  0  0  0  0  0  0  0  0
   45.3538   34.5353   46.6325 H   0  0  0  0  0  0  0  0  0  0  0  0
   45.0783   33.3147   48.7445 H   0  0  0  0  0  0  0  0  0  0  0  0
   46.1651   29.6605   46.7668 H   0  0  0  0  0  0  0  0  0  0  0  0
   48.6026   33.6279   41.2020 H   0  0  0  0  0  0  0  0  0  0  0  0
   49.6385   36.2432   40.5726 H   0  0  0  0  0  0  0  0  0  0  0  0
   48.6471   36.9664   41.5150 H   0  0  0  0  0  0  0  0  0  0  0  0
   49.7163   35.2858   43.6278 H   0  0  0  0  0  0  0  0  0  0  0  0
   50.8731   34.7597   42.7283 H   0  0  0  0  0  0  0  0  0  0  0  0
  1  6  2  0
  2  3  2  0
  2  1  1  0
  3  4  1  0
  4  5  2  0
  5  9  1  0
  6  5  1  0
  7  8  1  0
  8 14  2  0
  9  8  1  0
  9 10  2  0
 10 11  1  0
 11 12  2  0
 12 13  1  0
 14 12  1  0
 15  3  1  0
 15 17  1  0
 16 15  1  0
 16 17  1  0
  1 18  1  0
  2 19  1  0
 10 20  1  0
 11 21  1  0
 14 22  1  0
 15 23  1  0
 16 24  1  0
 16 25  1  0
 17 26  1  0
 17 27  1  0
M  ISO  8  18  14  19  14  20  14  21  14  22  14  23  13  24  13  25  13
M  ISO  2  26  13  27  13
M  END
>  <minimizedAffinity>  (1) 
-5.40624619

>  <minimizedRMSD>  (1) 
1.34860098

$$$$
