
     RDKit          3D

 27 29  0  0  0  0  0  0  0  0999 V2000
   44.5240   35.8600   44.6530 C   0  0  0  0  0  0  0  0  0  0  0  0
   45.1810   35.8300   43.4090 C   0  0  0  0  0  0  0  0  0  0  0  0
   46.1290   34.8190   43.2130 C   0  0  0  0  0  0  0  0  0  0  0  0
   46.3710   33.9190   44.2220 N   0  0  0  0  0  0  0  0  0  0  0  0
   45.7110   33.9820   45.4130 C   0  0  0  0  0  0  0  0  0  0  0  0
   44.8010   34.9500   45.6040 N   0  0  0  0  0  0  0  0  0  0  0  0
   45.9940   33.0060   46.4600 C   0  0  0  0  0  0  0  0  0  0  0  0
   45.2070   32.9800   47.5930 C   0  0  0  0  0  0  0  0  0  0  0  0
   45.4600   32.0570   48.6050 C   0  0  0  0  0  0  0  0  0  0  0  0
   46.5120   31.1800   48.4360 C   0  0  0  0  0  0  0  0  0  0  0  0
   47.3090   31.2040   47.2930 C   0  0  0  0  0  0  0  0  0  0  0  0
   47.0460   32.1280   46.2940 C   0  0  0  0  0  0  0  0  0  0  0  0
   46.8450   34.6900   41.9190 C   0  0  0  0  0  0  0  0  0  0  0  0
   48.1990   35.3580   41.8990 C   0  0  0  0  0  0  0  0  0  0  0  0
   48.0120   33.8180   41.8590 C   0  0  0  0  0  0  0  0  0  0  0  0
   43.7729   36.6390   44.8506 H   0  0  0  0  0  0  0  0  0  0  0  0
   44.9593   36.5688   42.6248 H   0  0  0  0  0  0  0  0  0  0  0  0
   44.3752   33.6921   47.6976 H   0  0  0  0  0  0  0  0  0  0  0  0
   44.8392   32.0280   49.5126 H   0  0  0  0  0  0  0  0  0  0  0  0
   46.7270   30.4430   49.2238 H   0  0  0  0  0  0  0  0  0  0  0  0
   48.1419   30.4938   47.1843 H   0  0  0  0  0  0  0  0  0  0  0  0
   47.6646   32.1610   45.3850 H   0  0  0  0  0  0  0  0  0  0  0  0
   45.9333   34.7416   41.3057 H   0  0  0  0  0  0  0  0  0  0  0  0
   48.5400   35.9026   41.0062 H   0  0  0  0  0  0  0  0  0  0  0  0
   48.7407   36.0777   42.5303 H   0  0  0  0  0  0  0  0  0  0  0  0
   48.2351   33.2610   40.9371 H   0  0  0  0  0  0  0  0  0  0  0  0
   48.3833   32.9743   42.4592 H   0  0  0  0  0  0  0  0  0  0  0  0
  1  6  2  0
  2  1  1  0
  3  2  2  0
  3  4  1  0
  4  5  2  0
  5  6  1  0
  5  7  1  0
  7  8  2  0
  8  9  1  0
 10  9  2  0
 11 10  1  0
 12  7  1  0
 12 11  2  0
 13  3  1  0
 14 13  1  0
 15 14  1  0
 15 13  1  0
  1 16  1  0
  2 17  1  0
  8 18  1  0
  9 19  1  0
 10 20  1  0
 11 21  1  0
 12 22  1  0
 13 23  1  0
 14 24  1  0
 14 25  1  0
 15 26  1  0
 15 27  1  0
M  ISO  8  16  14  17  14  18  14  19  14  20  14  21  14  22  14  23  13
M  ISO  4  24  13  25  13  26  13  27  13
M  END
>  <minimizedAffinity>  (1) 
-5.38244009

>  <minimizedRMSD>  (1) 
0.51695329

$$$$
