
     RDKit          3D

 29 31  0  0  0  0  0  0  0  0999 V2000
   44.6140   35.9580   44.3810 C   0  0  0  0  0  0  0  0  0  0  0  0
   45.3310   35.9240   43.1720 C   0  0  0  0  0  0  0  0  0  0  0  0
   46.2440   34.8900   43.0490 C   0  0  0  0  0  0  0  0  0  0  0  0
   46.4070   33.9800   44.0650 N   0  0  0  0  0  0  0  0  0  0  0  0
   45.6810   34.0640   45.2190 C   0  0  0  0  0  0  0  0  0  0  0  0
   44.7910   35.0600   45.3530 N   0  0  0  0  0  0  0  0  0  0  0  0
   45.8640   33.1110   46.2580 N   0  0  0  0  0  0  0  0  0  0  0  0
   45.1520   33.1010   47.5210 C   0  0  0  0  0  0  0  0  0  0  0  0
   45.5010   31.8200   48.2020 C   0  0  0  0  0  0  0  0  0  0  0  0
   45.9770   30.9520   47.0560 C   0  0  0  0  0  0  0  0  0  0  0  0
   46.7790   31.9860   46.2560 C   0  0  0  0  0  0  0  0  0  0  0  0
   47.0630   34.7120   41.8030 C   0  0  0  0  0  0  0  0  0  0  0  0
   48.3560   35.4990   41.8260 C   0  0  0  0  0  0  0  0  0  0  0  0
   48.3010   33.9470   41.8770 C   0  0  0  0  0  0  0  0  0  0  0  0
   43.8754   36.7590   44.5325 H   0  0  0  0  0  0  0  0  0  0  0  0
   45.1771   36.6687   42.3772 H   0  0  0  0  0  0  0  0  0  0  0  0
   45.4646   33.9558   48.1388 H   0  0  0  0  0  0  0  0  0  0  0  0
   44.0664   33.1812   47.3629 H   0  0  0  0  0  0  0  0  0  0  0  0
   46.2991   31.9700   48.9440 H   0  0  0  0  0  0  0  0  0  0  0  0
   44.6623   31.3813   48.7625 H   0  0  0  0  0  0  0  0  0  0  0  0
   46.6118   30.1248   47.4064 H   0  0  0  0  0  0  0  0  0  0  0  0
   45.1778   30.4481   46.4927 H   0  0  0  0  0  0  0  0  0  0  0  0
   46.9844   31.6347   45.2341 H   0  0  0  0  0  0  0  0  0  0  0  0
   47.7721   32.2096   46.6729 H   0  0  0  0  0  0  0  0  0  0  0  0
   46.1954   34.6271   41.1321 H   0  0  0  0  0  0  0  0  0  0  0  0
   48.7116   36.0163   40.9227 H   0  0  0  0  0  0  0  0  0  0  0  0
   48.7894   36.3014   42.4410 H   0  0  0  0  0  0  0  0  0  0  0  0
   48.5653   33.4182   42.8046 H   0  0  0  0  0  0  0  0  0  0  0  0
   48.7480   33.1346   41.2853 H   0  0  0  0  0  0  0  0  0  0  0  0
  1  6  2  0
  2  1  1  0
  3  2  2  0
  3  4  1  0
  4  5  2  0
  5  6  1  0
  5  7  1  0
  7  8  1  0
  8  9  1  0
 10  9  1  0
 11  7  1  0
 11 10  1  0
 12 13  1  0
 12 14  1  0
 12  3  1  0
 13 14  1  0
  1 15  1  0
  2 16  1  0
  8 17  1  0
  8 18  1  0
  9 19  1  0
  9 20  1  0
 10 21  1  0
 10 22  1  0
 11 23  1  0
 11 24  1  0
 12 25  1  0
 13 26  1  0
 13 27  1  0
 14 28  1  0
 14 29  1  0
M  ISO  8  15  14  16  14  17  13  18  13  19  13  20  13  21  13  22  13
M  ISO  7  23  13  24  13  25  13  26  13  27  13  28  13  29  13
M  END
>  <minimizedAffinity>  (1) 
-5.16312742

>  <minimizedRMSD>  (1) 
0.0764809251

$$$$
