
     RDKit          3D

 25 27  0  0  0  0  0  0  0  0999 V2000
   44.5270   35.9290   44.5500 C   0  0  0  0  0  0  0  0  0  0  0  0
   45.1750   35.9030   43.3030 C   0  0  0  0  0  0  0  0  0  0  0  0
   46.0990   34.8830   43.1270 C   0  0  0  0  0  0  0  0  0  0  0  0
   46.3450   33.9730   44.1270 N   0  0  0  0  0  0  0  0  0  0  0  0
   45.6840   34.0490   45.3190 C   0  0  0  0  0  0  0  0  0  0  0  0
   44.7840   35.0300   45.5080 N   0  0  0  0  0  0  0  0  0  0  0  0
   46.8380   34.7360   41.8240 C   0  0  0  0  0  0  0  0  0  0  0  0
   48.2080   35.3790   41.8490 C   0  0  0  0  0  0  0  0  0  0  0  0
   47.9910   33.8470   41.7770 C   0  0  0  0  0  0  0  0  0  0  0  0
   45.9610   33.0700   46.3650 C   0  0  0  0  0  0  0  0  0  0  0  0
   46.9930   32.1790   46.2090 C   0  0  0  0  0  0  0  0  0  0  0  0
   47.2150   31.2740   47.2240 C   0  0  0  0  0  0  0  0  0  0  0  0
   46.4410   31.2620   48.3420 N   0  0  0  0  0  0  0  0  0  0  0  0
   45.4390   32.1530   48.4550 C   0  0  0  0  0  0  0  0  0  0  0  0
   45.1910   33.0630   47.4690 N   0  0  0  0  0  0  0  0  0  0  0  0
   43.7830   36.7153   44.7455 H   0  0  0  0  0  0  0  0  0  0  0  0
   44.9633   36.6434   42.5175 H   0  0  0  0  0  0  0  0  0  0  0  0
   45.9405   34.8014   41.1913 H   0  0  0  0  0  0  0  0  0  0  0  0
   48.5816   35.9320   40.9746 H   0  0  0  0  0  0  0  0  0  0  0  0
   48.7482   36.0766   42.5059 H   0  0  0  0  0  0  0  0  0  0  0  0
   48.2340   33.2168   42.6452 H   0  0  0  0  0  0  0  0  0  0  0  0
   48.3265   33.0471   41.1005 H   0  0  0  0  0  0  0  0  0  0  0  0
   47.6207   32.1870   45.3057 H   0  0  0  0  0  0  0  0  0  0  0  0
   48.0347   30.5467   47.1280 H   0  0  0  0  0  0  0  0  0  0  0  0
   44.8095   32.1477   49.3571 H   0  0  0  0  0  0  0  0  0  0  0  0
  1  6  2  0
  2  1  1  0
  3  2  2  0
  3  4  1  0
  4  5  2  0
  5  6  1  0
  5 10  1  0
  7  8  1  0
  7  3  1  0
  9  7  1  0
  9  8  1  0
 10 15  1  0
 11 10  2  0
 11 12  1  0
 12 13  2  0
 13 14  1  0
 15 14  2  0
  1 16  1  0
  2 17  1  0
  7 18  1  0
  8 19  1  0
  8 20  1  0
  9 21  1  0
  9 22  1  0
 11 23  1  0
 12 24  1  0
 14 25  1  0
M  ISO  8  16  14  17  14  18  13  19  13  20  13  21  13  22  13  23  14
M  ISO  2  24  14  25  14
M  END
>  <minimizedAffinity>  (1) 
-5.16498137

>  <minimizedRMSD>  (1) 
0.348822474

$$$$
