
     RDKit          3D

 19 20  0  0  0  0  0  0  0  0999 V2000
   44.6120   35.9570   44.3380 C   0  0  0  0  0  0  0  0  0  0  0  0
   45.3320   35.9190   43.1320 C   0  0  0  0  0  0  0  0  0  0  0  0
   46.2600   34.8940   43.0190 C   0  0  0  0  0  0  0  0  0  0  0  0
   46.4230   34.0010   44.0520 N   0  0  0  0  0  0  0  0  0  0  0  0
   45.7000   34.0830   45.1970 C   0  0  0  0  0  0  0  0  0  0  0  0
   44.7920   35.0710   45.3300 N   0  0  0  0  0  0  0  0  0  0  0  0
   46.0380   33.0530   46.1210 N   0  0  0  0  0  0  0  0  0  0  0  0
   47.0760   34.7340   41.7650 C   0  0  0  0  0  0  0  0  0  0  0  0
   48.3790   35.5040   41.8120 C   0  0  0  0  0  0  0  0  0  0  0  0
   48.3040   33.9530   41.8420 C   0  0  0  0  0  0  0  0  0  0  0  0
   43.8642   36.7518   44.4759 H   0  0  0  0  0  0  0  0  0  0  0  0
   45.1704   36.6541   42.3298 H   0  0  0  0  0  0  0  0  0  0  0  0
   45.5606   33.0016   47.0323 H   0  0  0  0  0  0  0  0  0  0  0  0
   46.7598   32.3596   45.8779 H   0  0  0  0  0  0  0  0  0  0  0  0
   46.2142   34.6754   41.0840 H   0  0  0  0  0  0  0  0  0  0  0  0
   48.7508   36.0284   40.9194 H   0  0  0  0  0  0  0  0  0  0  0  0
   48.8159   36.2927   42.4421 H   0  0  0  0  0  0  0  0  0  0  0  0
   48.5518   33.4090   42.7654 H   0  0  0  0  0  0  0  0  0  0  0  0
   48.7473   33.1429   41.2443 H   0  0  0  0  0  0  0  0  0  0  0  0
  1  6  2  0
  2  1  1  0
  3  2  2  0
  3  4  1  0
  4  5  2  0
  5  6  1  0
  5  7  1  0
  8  9  1  0
  8 10  1  0
  8  3  1  0
  9 10  1  0
  1 11  1  0
  2 12  1  0
  7 13  1  0
  7 14  1  0
  8 15  1  0
  9 16  1  0
  9 17  1  0
 10 18  1  0
 10 19  1  0
M  ISO  7  11  14  12  14  15  13  16  13  17  13  18  13  19  13
M  END
>  <minimizedAffinity>  (1) 
-3.99417377

>  <minimizedRMSD>  (1) 
0.0431496166

$$$$
