
     RDKit          3D

 41 44  0  0  0  0  0  0  0  0999 V2000
   44.8980   35.0840   44.6430 C   0  0  0  0  0  0  0  0  0  0  0  0
   45.7740   34.9780   43.5490 C   0  0  0  0  0  0  0  0  0  0  0  0
   46.8210   34.0860   43.6930 C   0  0  0  0  0  0  0  0  0  0  0  0
   46.9770   33.3590   44.8440 N   0  0  0  0  0  0  0  0  0  0  0  0
   46.1000   33.4970   45.8790 C   0  0  0  0  0  0  0  0  0  0  0  0
   45.0700   34.3600   45.7640 N   0  0  0  0  0  0  0  0  0  0  0  0
   46.2840   32.6750   47.0800 C   0  0  0  0  0  0  0  0  0  0  0  0
   45.1750   32.4200   47.8710 C   0  0  0  0  0  0  0  0  0  0  0  0
   45.3150   31.6330   48.9930 C   0  0  0  0  0  0  0  0  0  0  0  0
   46.5660   31.1340   49.2740 C   0  0  0  0  0  0  0  0  0  0  0  0
   47.6550   31.4110   48.4570 C   0  0  0  0  0  0  0  0  0  0  0  0
   47.4960   32.1930   47.3500 N   0  0  0  0  0  0  0  0  0  0  0  0
   48.9810   30.9360   48.6770 N   0  0  0  0  0  0  0  0  0  0  0  0
   49.6770   30.0770   47.7280 C   0  0  0  0  0  0  0  0  0  0  0  0
   50.5950   29.1670   48.4750 C   0  0  0  0  0  0  0  0  0  0  0  0
   50.0590   28.7520   49.8370 C   0  0  0  0  0  0  0  0  0  0  0  0
   49.9140   29.9930   50.7120 C   0  0  0  0  0  0  0  0  0  0  0  0
   49.7850   31.2390   49.8390 C   0  0  0  0  0  0  0  0  0  0  0  0
   47.7920   33.8600   42.5770 C   0  0  0  0  0  0  0  0  0  0  0  0
   48.0200   35.1010   41.7150 C   0  0  0  0  0  0  0  0  0  0  0  0
   49.1000   34.4530   42.6430 C   0  0  0  0  0  0  0  0  0  0  0  0
   44.0474   35.7788   44.5810 H   0  0  0  0  0  0  0  0  0  0  0  0
   45.6350   35.5697   42.6322 H   0  0  0  0  0  0  0  0  0  0  0  0
   44.1940   32.8412   47.6059 H   0  0  0  0  0  0  0  0  0  0  0  0
   44.4554   31.4110   49.6425 H   0  0  0  0  0  0  0  0  0  0  0  0
   46.7068   30.5028   50.1638 H   0  0  0  0  0  0  0  0  0  0  0  0
   50.2596   30.6958   47.0297 H   0  0  0  0  0  0  0  0  0  0  0  0
   48.9457   29.4820   47.1612 H   0  0  0  0  0  0  0  0  0  0  0  0
   50.7541   28.2608   47.8721 H   0  0  0  0  0  0  0  0  0  0  0  0
   51.5296   29.7204   48.6490 H   0  0  0  0  0  0  0  0  0  0  0  0
   49.0780   28.2693   49.7160 H   0  0  0  0  0  0  0  0  0  0  0  0
   50.7541   28.0427   50.3099 H   0  0  0  0  0  0  0  0  0  0  0  0
   49.0154   29.8933   51.3386 H   0  0  0  0  0  0  0  0  0  0  0  0
   50.8057   30.0905   51.3487 H   0  0  0  0  0  0  0  0  0  0  0  0
   50.7849   31.5656   49.5172 H   0  0  0  0  0  0  0  0  0  0  0  0
   49.3036   32.0416   50.4170 H   0  0  0  0  0  0  0  0  0  0  0  0
   47.4816   32.8189   42.4048 H   0  0  0  0  0  0  0  0  0  0  0  0
   48.0967   35.0193   40.6207 H   0  0  0  0  0  0  0  0  0  0  0  0
   47.5554   36.0904   41.5914 H   0  0  0  0  0  0  0  0  0  0  0  0
   49.4191   34.9739   43.5578 H   0  0  0  0  0  0  0  0  0  0  0  0
   50.1243   34.0814   42.4925 H   0  0  0  0  0  0  0  0  0  0  0  0
  1  6  2  0
  2  3  2  0
  2  1  1  0
  3  4  1  0
  4  5  2  0
  5  7  1  0
  6  5  1  0
  7 12  1  0
  7  8  2  0
  8  9  1  0
  9 10  2  0
 11 13  1  0
 11 10  1  0
 12 11  2  0
 13 18  1  0
 14 15  1  0
 14 13  1  0
 15 16  1  0
 16 17  1  0
 18 17  1  0
 19 21  1  0
 19  3  1  0
 20 19  1  0
 20 21  1  0
  1 22  1  0
  2 23  1  0
  8 24  1  0
  9 25  1  0
 10 26  1  0
 14 27  1  0
 14 28  1  0
 15 29  1  0
 15 30  1  0
 16 31  1  0
 16 32  1  0
 17 33  1  0
 17 34  1  0
 18 35  1  0
 18 36  1  0
 19 37  1  0
 20 38  1  0
 20 39  1  0
 21 40  1  0
 21 41  1  0
M  ISO  8  22  14  23  14  24  14  25  14  26  14  27  13  28  13  29  13
M  ISO  8  30  13  31  13  32  13  33  13  34  13  35  13  36  13  37  13
M  ISO  4  38  13  39  13  40  13  41  13
M  END
>  <minimizedAffinity>  (1) 
-6.36396408

>  <minimizedRMSD>  (1) 
1.46614504

$$$$
