
     RDKit          3D

 35 38  0  0  0  0  0  0  0  0999 V2000
   46.0840   32.7590   47.0860 C   0  0  0  0  0  0  0  0  0  0  0  0
   44.9820   32.3690   47.8190 C   0  0  0  0  0  0  0  0  0  0  0  0
   45.1500   31.5490   48.9250 C   0  0  0  0  0  0  0  0  0  0  0  0
   46.4310   31.1540   49.2430 C   0  0  0  0  0  0  0  0  0  0  0  0
   47.5050   31.5770   48.4690 C   0  0  0  0  0  0  0  0  0  0  0  0
   47.3390   32.3780   47.3880 N   0  0  0  0  0  0  0  0  0  0  0  0
   44.7230   35.3140   44.7980 C   0  0  0  0  0  0  0  0  0  0  0  0
   45.5270   35.1970   43.6510 C   0  0  0  0  0  0  0  0  0  0  0  0
   46.5150   34.2430   43.7080 C   0  0  0  0  0  0  0  0  0  0  0  0
   46.6890   33.4620   44.8300 N   0  0  0  0  0  0  0  0  0  0  0  0
   45.8710   33.6210   45.9220 C   0  0  0  0  0  0  0  0  0  0  0  0
   44.9000   34.5440   45.8940 N   0  0  0  0  0  0  0  0  0  0  0  0
   47.4160   34.0030   42.5310 C   0  0  0  0  0  0  0  0  0  0  0  0
   47.9220   35.2980   41.8950 C   0  0  0  0  0  0  0  0  0  0  0  0
   48.8260   34.2690   42.6500 C   0  0  0  0  0  0  0  0  0  0  0  0
   48.8450   31.1350   48.8410 C   0  0  0  0  0  0  0  0  0  0  0  0
   49.2660   29.8590   48.5270 C   0  0  0  0  0  0  0  0  0  0  0  0
   50.5230   29.3830   48.8520 C   0  0  0  0  0  0  0  0  0  0  0  0
   51.3810   30.2550   49.5280 C   0  0  0  0  0  0  0  0  0  0  0  0
   50.9340   31.5400   49.8340 C   0  0  0  0  0  0  0  0  0  0  0  0
   49.6840   31.9350   49.4820 N   0  0  0  0  0  0  0  0  0  0  0  0
   43.9763   32.7064   47.5280 H   0  0  0  0  0  0  0  0  0  0  0  0
   44.2891   31.2249   49.5282 H   0  0  0  0  0  0  0  0  0  0  0  0
   46.6042   30.5020   50.1119 H   0  0  0  0  0  0  0  0  0  0  0  0
   43.9171   36.0627   44.8035 H   0  0  0  0  0  0  0  0  0  0  0  0
   45.3751   35.8291   42.7636 H   0  0  0  0  0  0  0  0  0  0  0  0
   46.8804   33.1043   42.1912 H   0  0  0  0  0  0  0  0  0  0  0  0
   47.9808   35.4016   40.8015 H   0  0  0  0  0  0  0  0  0  0  0  0
   47.6934   36.3715   41.9676 H   0  0  0  0  0  0  0  0  0  0  0  0
   49.2526   34.5309   43.6295 H   0  0  0  0  0  0  0  0  0  0  0  0
   49.7404   33.7129   42.3958 H   0  0  0  0  0  0  0  0  0  0  0  0
   48.5718   29.1917   47.9952 H   0  0  0  0  0  0  0  0  0  0  0  0
   50.8345   28.3612   48.5896 H   0  0  0  0  0  0  0  0  0  0  0  0
   52.3930   29.9327   49.8142 H   0  0  0  0  0  0  0  0  0  0  0  0
   51.5987   32.2380   50.3641 H   0  0  0  0  0  0  0  0  0  0  0  0
  1  6  1  0
  1  2  2  0
  2  3  1  0
  3  4  2  0
  5 16  1  0
  5  4  1  0
  6  5  2  0
  7 12  2  0
  8  9  2  0
  8  7  1  0
  9 10  1  0
 10 11  2  0
 11  1  1  0
 12 11  1  0
 13 15  1  0
 13  9  1  0
 14 13  1  0
 14 15  1  0
 16 21  1  0
 17 16  2  0
 17 18  1  0
 18 19  2  0
 19 20  1  0
 21 20  2  0
  2 22  1  0
  3 23  1  0
  4 24  1  0
  7 25  1  0
  8 26  1  0
 13 27  1  0
 14 28  1  0
 14 29  1  0
 15 30  1  0
 15 31  1  0
 17 32  1  0
 18 33  1  0
 19 34  1  0
 20 35  1  0
M  ISO  8  22  14  23  14  24  14  25  14  26  14  27  13  28  13  29  13
M  ISO  6  30  13  31  13  32  14  33  14  34  14  35  14
M  END
>  <minimizedAffinity>  (1) 
-6.26821041

>  <minimizedRMSD>  (1) 
1.52148438

$$$$
