
     RDKit          3D

 32 34  0  0  0  0  0  0  0  0999 V2000
   44.9530   35.1470   44.4080 C   0  0  0  0  0  0  0  0  0  0  0  0
   45.8710   35.0970   43.3500 C   0  0  0  0  0  0  0  0  0  0  0  0
   46.9160   34.2130   43.5050 C   0  0  0  0  0  0  0  0  0  0  0  0
   47.0270   33.4370   44.6440 N   0  0  0  0  0  0  0  0  0  0  0  0
   46.0950   33.5340   45.6450 C   0  0  0  0  0  0  0  0  0  0  0  0
   45.0620   34.3930   45.5140 N   0  0  0  0  0  0  0  0  0  0  0  0
   46.2390   32.6890   46.8240 C   0  0  0  0  0  0  0  0  0  0  0  0
   45.2090   32.6800   47.7550 C   0  0  0  0  0  0  0  0  0  0  0  0
   45.3350   31.8750   48.8780 C   0  0  0  0  0  0  0  0  0  0  0  0
   46.4730   31.1160   49.0280 C   0  0  0  0  0  0  0  0  0  0  0  0
   47.4620   31.1740   48.0560 C   0  0  0  0  0  0  0  0  0  0  0  0
   47.3610   31.9540   46.9510 N   0  0  0  0  0  0  0  0  0  0  0  0
   48.5670   30.3690   48.3060 O   0  0  0  0  0  0  0  0  0  0  0  0
   50.0530   32.1770   49.6080 O   0  0  0  0  0  0  0  0  0  0  0  0
   49.7590   30.7130   49.4790 P   0  0  0  0  0  0  0  0  0  0  0  0
   51.2090   29.9550   48.9740 O   0  0  0  0  0  0  0  0  0  0  0  0
   49.3630   30.0940   50.9950 O   0  0  0  0  0  0  0  0  0  0  0  0
   47.9450   34.0390   42.4300 C   0  0  0  0  0  0  0  0  0  0  0  0
   48.2400   35.3320   41.6730 C   0  0  0  0  0  0  0  0  0  0  0  0
   49.2590   34.6020   42.6100 C   0  0  0  0  0  0  0  0  0  0  0  0
   44.1010   35.8382   44.3285 H   0  0  0  0  0  0  0  0  0  0  0  0
   45.7637   35.7241   42.4526 H   0  0  0  0  0  0  0  0  0  0  0  0
   44.3116   33.2983   47.6054 H   0  0  0  0  0  0  0  0  0  0  0  0
   44.5384   31.8440   49.6359 H   0  0  0  0  0  0  0  0  0  0  0  0
   46.5976   30.4698   49.9094 H   0  0  0  0  0  0  0  0  0  0  0  0
   51.7324   29.6814   49.7685 H   0  0  0  0  0  0  0  0  0  0  0  0
   49.7381   30.6803   51.6991 H   0  0  0  0  0  0  0  0  0  0  0  0
   47.6295   33.0182   42.1685 H   0  0  0  0  0  0  0  0  0  0  0  0
   48.3760   35.3256   40.5815 H   0  0  0  0  0  0  0  0  0  0  0  0
   47.7973   36.3360   41.5953 H   0  0  0  0  0  0  0  0  0  0  0  0
   49.5344   35.0518   43.5753 H   0  0  0  0  0  0  0  0  0  0  0  0
   50.2848   34.2234   42.4897 H   0  0  0  0  0  0  0  0  0  0  0  0
  1  6  2  0
  2  3  2  0
  2  1  1  0
  3  4  1  0
  4  5  2  0
  5  7  1  0
  6  5  1  0
  7 12  1  0
  7  8  2  0
  8  9  1  0
  9 10  2  0
 11 13  1  0
 11 10  1  0
 12 11  2  0
 13 15  1  0
 15 14  2  0
 15 17  1  0
 16 15  1  0
 18 20  1  0
 18  3  1  0
 19 18  1  0
 19 20  1  0
  1 21  1  0
  2 22  1  0
  8 23  1  0
  9 24  1  0
 10 25  1  0
 16 26  1  0
 17 27  1  0
 18 28  1  0
 19 29  1  0
 19 30  1  0
 20 31  1  0
 20 32  1  0
M  ISO  8  21  14  22  14  23  14  24  14  25  14  26   3  27   3  28  13
M  ISO  4  29  13  30  13  31  13  32  13
M  END
>  <minimizedAffinity>  (1) 
-6.055655

>  <minimizedRMSD>  (1) 
1.09368801

$$$$
