
     RDKit          3D

 33 36  0  0  0  0  0  0  0  0999 V2000
   46.1620   32.6960   47.0500 C   0  0  0  0  0  0  0  0  0  0  0  0
   45.0280   32.3280   47.7480 C   0  0  0  0  0  0  0  0  0  0  0  0
   45.1290   31.5520   48.8810 C   0  0  0  0  0  0  0  0  0  0  0  0
   46.3940   31.1740   49.2670 C   0  0  0  0  0  0  0  0  0  0  0  0
   47.5140   31.5620   48.5390 C   0  0  0  0  0  0  0  0  0  0  0  0
   47.3970   32.3280   47.4250 N   0  0  0  0  0  0  0  0  0  0  0  0
   44.8970   35.1600   44.6220 C   0  0  0  0  0  0  0  0  0  0  0  0
   45.7720   35.0550   43.5400 C   0  0  0  0  0  0  0  0  0  0  0  0
   46.7840   34.1320   43.6840 C   0  0  0  0  0  0  0  0  0  0  0  0
   46.8870   33.3880   44.8290 N   0  0  0  0  0  0  0  0  0  0  0  0
   46.0150   33.5200   45.8570 C   0  0  0  0  0  0  0  0  0  0  0  0
   45.0220   34.4110   45.7410 N   0  0  0  0  0  0  0  0  0  0  0  0
   47.7820   33.9030   42.5760 C   0  0  0  0  0  0  0  0  0  0  0  0
   48.0500   35.1540   41.7480 C   0  0  0  0  0  0  0  0  0  0  0  0
   49.1010   34.4700   42.6820 C   0  0  0  0  0  0  0  0  0  0  0  0
   48.8690   31.1790   48.9200 C   0  0  0  0  0  0  0  0  0  0  0  0
   49.4490   29.9250   48.7180 C   0  0  0  0  0  0  0  0  0  0  0  0
   50.7440   29.9340   49.2080 C   0  0  0  0  0  0  0  0  0  0  0  0
   50.9170   31.1700   49.6910 N   0  0  0  0  0  0  0  0  0  0  0  0
   49.8310   31.9000   49.5270 N   0  0  0  0  0  0  0  0  0  0  0  0
   44.0388   32.6568   47.3967 H   0  0  0  0  0  0  0  0  0  0  0  0
   44.2388   31.2483   49.4513 H   0  0  0  0  0  0  0  0  0  0  0  0
   46.5221   30.5543   50.1668 H   0  0  0  0  0  0  0  0  0  0  0  0
   44.0702   35.8830   44.5621 H   0  0  0  0  0  0  0  0  0  0  0  0
   45.6610   35.6680   42.6334 H   0  0  0  0  0  0  0  0  0  0  0  0
   47.4569   32.8713   42.3761 H   0  0  0  0  0  0  0  0  0  0  0  0
   48.1470   35.0936   40.6540 H   0  0  0  0  0  0  0  0  0  0  0  0
   47.6050   36.1538   41.6368 H   0  0  0  0  0  0  0  0  0  0  0  0
   49.4107   34.9660   43.6137 H   0  0  0  0  0  0  0  0  0  0  0  0
   50.1217   34.0837   42.5445 H   0  0  0  0  0  0  0  0  0  0  0  0
   48.9544   29.0645   48.2437 H   0  0  0  0  0  0  0  0  0  0  0  0
   51.4701   29.1078   49.2017 H   0  0  0  0  0  0  0  0  0  0  0  0
   51.7843   31.5069   50.1328 H   0  0  0  0  0  0  0  0  0  0  0  0
  1  6  1  0
  1  2  2  0
  2  3  1  0
  3  4  2  0
  5 16  1  0
  5  4  1  0
  6  5  2  0
  7 12  2  0
  8  9  2  0
  8  7  1  0
  9 10  1  0
 10 11  2  0
 11  1  1  0
 12 11  1  0
 13 15  1  0
 13  9  1  0
 14 13  1  0
 14 15  1  0
 16 20  2  0
 17 16  1  0
 17 18  2  0
 18 19  1  0
 20 19  1  0
  2 21  1  0
  3 22  1  0
  4 23  1  0
  7 24  1  0
  8 25  1  0
 13 26  1  0
 14 27  1  0
 14 28  1  0
 15 29  1  0
 15 30  1  0
 17 31  1  0
 18 32  1  0
 19 33  1  0
M  ISO  8  21  14  22  14  23  14  24  14  25  14  26  13  27  13  28  13
M  ISO  5  29  13  30  13  31  14  32  14  33   9
M  END
>  <minimizedAffinity>  (1) 
-6.07869148

>  <minimizedRMSD>  (1) 
1.57397854

$$$$
