
     RDKit          3D

 20 21  0  0  0  0  0  0  0  0999 V2000
   44.5480   35.8690   44.5800 C   0  0  0  0  0  0  0  0  0  0  0  0
   45.2090   35.8340   43.3280 C   0  0  0  0  0  0  0  0  0  0  0  0
   46.1550   34.8190   43.1360 C   0  0  0  0  0  0  0  0  0  0  0  0
   46.3830   33.9320   44.1520 N   0  0  0  0  0  0  0  0  0  0  0  0
   45.7300   34.0040   45.3240 C   0  0  0  0  0  0  0  0  0  0  0  0
   44.8200   34.9640   45.5390 N   0  0  0  0  0  0  0  0  0  0  0  0
   44.2930   33.9590   47.6670 F   0  0  0  0  0  0  0  0  0  0  0  0
   45.2790   33.0270   47.5390 C   0  0  0  0  0  0  0  0  0  0  0  0
   46.0170   33.0280   46.3710 C   0  0  0  0  0  0  0  0  0  0  0  0
   47.0120   32.0970   46.2300 C   0  0  0  0  0  0  0  0  0  0  0  0
   47.2640   31.1840   47.2360 C   0  0  0  0  0  0  0  0  0  0  0  0
   46.5380   31.1700   48.4050 C   0  0  0  0  0  0  0  0  0  0  0  0
   45.5230   32.1210   48.5470 C   0  0  0  0  0  0  0  0  0  0  0  0
   43.7981   36.6504   44.7726 H   0  0  0  0  0  0  0  0  0  0  0  0
   44.9893   36.5710   42.5415 H   0  0  0  0  0  0  0  0  0  0  0  0
   46.7040   34.7368   42.1864 H   0  0  0  0  0  0  0  0  0  0  0  0
   47.6143   32.0762   45.3098 H   0  0  0  0  0  0  0  0  0  0  0  0
   48.0686   30.4466   47.0984 H   0  0  0  0  0  0  0  0  0  0  0  0
   46.7485   30.4377   49.1984 H   0  0  0  0  0  0  0  0  0  0  0  0
   44.9183   32.1456   49.4655 H   0  0  0  0  0  0  0  0  0  0  0  0
  1  6  2  0
  2  1  1  0
  3  2  2  0
  3  4  1  0
  4  5  2  0
  5  6  1  0
  5  9  1  0
  8  7  1  0
  8 13  2  0
  9  8  1  0
 10  9  2  0
 10 11  1  0
 11 12  2  0
 12 13  1  0
  1 14  1  0
  2 15  1  0
  3 16  1  0
 10 17  1  0
 11 18  1  0
 12 19  1  0
 13 20  1  0
M  ISO  7  14  14  15  14  16  14  17  14  18  14  19  14  20  14
M  END
>  <minimizedAffinity>  (1) 
-4.8555398

>  <minimizedRMSD>  (1) 
0.914649367

$$$$
