
     RDKit          3D

 27 29  0  0  0  0  0  0  0  0999 V2000
   44.5310   35.8360   44.6420 C   0  0  0  0  0  0  0  0  0  0  0  0
   45.1800   35.7910   43.3930 C   0  0  0  0  0  0  0  0  0  0  0  0
   46.1130   34.7870   43.2340 C   0  0  0  0  0  0  0  0  0  0  0  0
   46.3810   33.8900   44.2450 N   0  0  0  0  0  0  0  0  0  0  0  0
   45.7160   33.9830   45.4360 C   0  0  0  0  0  0  0  0  0  0  0  0
   44.8060   34.9500   45.6150 N   0  0  0  0  0  0  0  0  0  0  0  0
   46.0180   32.9860   46.4730 C   0  0  0  0  0  0  0  0  0  0  0  0
   45.2200   32.9810   47.6090 C   0  0  0  0  0  0  0  0  0  0  0  0
   45.4670   32.0450   48.6000 C   0  0  0  0  0  0  0  0  0  0  0  0
   46.5100   31.1520   48.4060 C   0  0  0  0  0  0  0  0  0  0  0  0
   47.2780   31.2100   47.2380 C   0  0  0  0  0  0  0  0  0  0  0  0
   47.0250   32.1300   46.2780 N   0  0  0  0  0  0  0  0  0  0  0  0
   48.3070   30.2840   47.1120 O   0  0  0  0  0  0  0  0  0  0  0  0
   46.8430   34.6190   41.9330 C   0  0  0  0  0  0  0  0  0  0  0  0
   48.1880   35.3510   41.9010 C   0  0  0  0  0  0  0  0  0  0  0  0
   48.0220   33.7970   41.8850 C   0  0  0  0  0  0  0  0  0  0  0  0
   43.7788   36.6171   44.8264 H   0  0  0  0  0  0  0  0  0  0  0  0
   44.9567   36.5122   42.5930 H   0  0  0  0  0  0  0  0  0  0  0  0
   44.4035   33.7096   47.7206 H   0  0  0  0  0  0  0  0  0  0  0  0
   44.8544   32.0112   49.5130 H   0  0  0  0  0  0  0  0  0  0  0  0
   46.7342   30.3958   49.1727 H   0  0  0  0  0  0  0  0  0  0  0  0
   48.8780   30.2855   46.3033 H   0  0  0  0  0  0  0  0  0  0  0  0
   45.9294   34.6053   41.3205 H   0  0  0  0  0  0  0  0  0  0  0  0
   48.5130   35.8912   40.9996 H   0  0  0  0  0  0  0  0  0  0  0  0
   48.7120   36.0973   42.5162 H   0  0  0  0  0  0  0  0  0  0  0  0
   48.2573   33.2315   40.9713 H   0  0  0  0  0  0  0  0  0  0  0  0
   48.4131   32.9738   42.5010 H   0  0  0  0  0  0  0  0  0  0  0  0
  1  6  2  0
  2  1  1  0
  3  2  2  0
  3  4  1  0
  4  5  2  0
  5  6  1  0
  5  7  1  0
  7  8  2  0
  8  9  1  0
 10  9  2  0
 11 10  1  0
 12  7  1  0
 12 11  2  0
 13 11  1  0
 14  3  1  0
 15 14  1  0
 16 15  1  0
 16 14  1  0
  1 17  1  0
  2 18  1  0
  8 19  1  0
  9 20  1  0
 10 21  1  0
 13 22  1  0
 14 23  1  0
 15 24  1  0
 15 25  1  0
 16 26  1  0
 16 27  1  0
M  ISO  8  17  14  18  14  19  14  20  14  21  14  22   3  23  13  24  13
M  ISO  3  25  13  26  13  27  13
M  END
>  <minimizedAffinity>  (1) 
-5.42127609

>  <minimizedRMSD>  (1) 
0.0449125022

$$$$
