
     RDKit          3D

 29 31  0  0  0  0  0  0  0  0999 V2000
   46.9350   33.4380   44.9940 F   0  0  0  0  0  0  0  0  0  0  0  0
   47.4350   32.2210   44.6830 C   0  0  0  0  0  0  0  0  0  0  0  0
   48.1400   32.1110   43.4930 C   0  0  0  0  0  0  0  0  0  0  0  0
   48.6540   30.8940   43.1560 C   0  0  0  0  0  0  0  0  0  0  0  0
   48.4760   29.8110   43.9790 C   0  0  0  0  0  0  0  0  0  0  0  0
   47.7850   29.9030   45.1540 C   0  0  0  0  0  0  0  0  0  0  0  0
   47.2440   31.1570   45.5170 C   0  0  0  0  0  0  0  0  0  0  0  0
   49.4490   35.2510   42.1210 C   0  0  0  0  0  0  0  0  0  0  0  0
   48.6220   35.4780   41.0010 C   0  0  0  0  0  0  0  0  0  0  0  0
   47.6280   34.5340   40.7460 C   0  0  0  0  0  0  0  0  0  0  0  0
   47.5040   33.4570   41.5770 N   0  0  0  0  0  0  0  0  0  0  0  0
   48.3150   33.2810   42.6340 C   0  0  0  0  0  0  0  0  0  0  0  0
   49.2850   34.1750   42.9080 N   0  0  0  0  0  0  0  0  0  0  0  0
   46.5250   31.1720   46.7790 C   0  0  0  0  0  0  0  0  0  0  0  0
   45.5570   30.3170   47.2070 C   0  0  0  0  0  0  0  0  0  0  0  0
   44.9120   30.3820   48.4140 C   0  0  0  0  0  0  0  0  0  0  0  0
   45.2250   31.3650   49.3000 C   0  0  0  0  0  0  0  0  0  0  0  0
   46.2040   32.2270   48.8650 C   0  0  0  0  0  0  0  0  0  0  0  0
   46.8000   32.1240   47.6850 N   0  0  0  0  0  0  0  0  0  0  0  0
   49.2156   30.7797   42.2171 H   0  0  0  0  0  0  0  0  0  0  0  0
   48.9019   28.8405   43.6844 H   0  0  0  0  0  0  0  0  0  0  0  0
   47.6531   29.0233   45.8011 H   0  0  0  0  0  0  0  0  0  0  0  0
   50.2464   35.9716   42.3552 H   0  0  0  0  0  0  0  0  0  0  0  0
   48.7553   36.3602   40.3576 H   0  0  0  0  0  0  0  0  0  0  0  0
   46.9522   34.6550   39.8865 H   0  0  0  0  0  0  0  0  0  0  0  0
   45.2674   29.5037   46.5254 H   0  0  0  0  0  0  0  0  0  0  0  0
   44.1410   29.6391   48.6664 H   0  0  0  0  0  0  0  0  0  0  0  0
   44.7367   31.4623   50.2809 H   0  0  0  0  0  0  0  0  0  0  0  0
   46.5093   33.0466   49.5322 H   0  0  0  0  0  0  0  0  0  0  0  0
  2  1  1  0
  2  7  2  0
  3  2  1  0
  4  3  2  0
  4  5  1  0
  5  6  2  0
  6  7  1  0
  7 14  1  0
  8 13  2  0
  9  8  1  0
 10  9  2  0
 10 11  1  0
 11 12  2  0
 12 13  1  0
 12  3  1  0
 14 15  2  0
 14 19  1  0
 15 16  1  0
 16 17  2  0
 18 17  1  0
 19 18  2  0
  4 20  1  0
  5 21  1  0
  6 22  1  0
  8 23  1  0
  9 24  1  0
 10 25  1  0
 15 26  1  0
 16 27  1  0
 17 28  1  0
 18 29  1  0
M  ISO  8  20  14  21  14  22  14  23  14  24  14  25  14  26  14  27  14
M  ISO  2  28  14  29  14
M  END
>  <minimizedAffinity>  (1) 
-5.29873419

>  <minimizedRMSD>  (1) 
3.84581971

$$$$
