
     RDKit          3D

 27 29  0  0  0  0  0  0  0  0999 V2000
   47.3080   33.0010   44.1080 F   0  0  0  0  0  0  0  0  0  0  0  0
   46.3560   33.9400   44.3140 C   0  0  0  0  0  0  0  0  0  0  0  0
   46.0760   34.8070   43.2750 C   0  0  0  0  0  0  0  0  0  0  0  0
   45.1190   35.7630   43.4620 C   0  0  0  0  0  0  0  0  0  0  0  0
   44.4510   35.8520   44.6670 C   0  0  0  0  0  0  0  0  0  0  0  0
   44.7210   34.9900   45.7190 C   0  0  0  0  0  0  0  0  0  0  0  0
   45.7020   34.0190   45.5120 C   0  0  0  0  0  0  0  0  0  0  0  0
   48.6290   35.2320   40.6760 C   0  0  0  0  0  0  0  0  0  0  0  0
   48.1240   34.4420   39.6100 C   0  0  0  0  0  0  0  0  0  0  0  0
   46.9130   33.7840   39.8180 C   0  0  0  0  0  0  0  0  0  0  0  0
   46.2950   33.9380   41.0220 N   0  0  0  0  0  0  0  0  0  0  0  0
   46.7960   34.6910   42.0110 C   0  0  0  0  0  0  0  0  0  0  0  0
   47.9640   35.3390   41.8410 N   0  0  0  0  0  0  0  0  0  0  0  0
   45.9690   33.1250   46.6290 C   0  0  0  0  0  0  0  0  0  0  0  0
   45.1740   32.7140   47.6780 C   0  0  0  0  0  0  0  0  0  0  0  0
   45.8670   31.8510   48.5040 C   0  0  0  0  0  0  0  0  0  0  0  0
   47.0810   31.7530   47.9360 N   0  0  0  0  0  0  0  0  0  0  0  0
   47.1380   32.4940   46.8470 N   0  0  0  0  0  0  0  0  0  0  0  0
   44.8794   36.4648   42.6495 H   0  0  0  0  0  0  0  0  0  0  0  0
   43.6829   36.6287   44.7962 H   0  0  0  0  0  0  0  0  0  0  0  0
   44.1847   35.0681   46.6762 H   0  0  0  0  0  0  0  0  0  0  0  0
   49.5817   35.7666   40.5473 H   0  0  0  0  0  0  0  0  0  0  0  0
   48.6670   34.3527   38.6575 H   0  0  0  0  0  0  0  0  0  0  0  0
   46.4683   33.1572   39.0310 H   0  0  0  0  0  0  0  0  0  0  0  0
   44.1321   33.0298   47.8352 H   0  0  0  0  0  0  0  0  0  0  0  0
   45.5073   31.3565   49.4184 H   0  0  0  0  0  0  0  0  0  0  0  0
   47.8563   31.1806   48.2996 H   0  0  0  0  0  0  0  0  0  0  0  0
  1  2  1  0
  2  7  2  0
  3  4  2  0
  3  2  1  0
  4  5  1  0
  5  6  2  0
  7  6  1  0
  7 14  1  0
  8 13  2  0
  9 10  2  0
  9  8  1  0
 10 11  1  0
 11 12  2  0
 12  3  1  0
 13 12  1  0
 14 18  2  0
 14 15  1  0
 15 16  2  0
 17 16  1  0
 18 17  1  0
  4 19  1  0
  5 20  1  0
  6 21  1  0
  8 22  1  0
  9 23  1  0
 10 24  1  0
 15 25  1  0
 16 26  1  0
 17 27  1  0
M  ISO  8  19  14  20  14  21  14  22  14  23  14  24  14  25  14  26  14
M  ISO  1  27   9
M  END
>  <minimizedAffinity>  (1) 
-5.96697617

>  <minimizedRMSD>  (1) 
4.40161896

$$$$
