
     RDKit          3D

 26 27  0  0  0  0  0  0  0  0999 V2000
   44.8060   33.8170   47.3570 F   0  0  0  0  0  0  0  0  0  0  0  0
   45.6770   32.8750   46.9270 C   0  0  0  0  0  0  0  0  0  0  0  0
   46.1950   32.9900   45.6460 C   0  0  0  0  0  0  0  0  0  0  0  0
   47.0760   32.0410   45.2030 C   0  0  0  0  0  0  0  0  0  0  0  0
   47.4330   30.9970   46.0210 C   0  0  0  0  0  0  0  0  0  0  0  0
   46.9280   30.8600   47.3060 C   0  0  0  0  0  0  0  0  0  0  0  0
   46.0280   31.8370   47.7480 C   0  0  0  0  0  0  0  0  0  0  0  0
   44.4930   36.0020   44.4520 C   0  0  0  0  0  0  0  0  0  0  0  0
   45.0720   36.2100   43.1780 C   0  0  0  0  0  0  0  0  0  0  0  0
   46.0410   35.3010   42.7630 C   0  0  0  0  0  0  0  0  0  0  0  0
   46.3590   34.2820   43.6070 N   0  0  0  0  0  0  0  0  0  0  0  0
   45.7920   34.1120   44.8060 C   0  0  0  0  0  0  0  0  0  0  0  0
   44.8610   34.9730   45.2240 N   0  0  0  0  0  0  0  0  0  0  0  0
   45.5160   31.6620   49.1020 C   0  0  0  0  0  0  0  0  0  0  0  0
   44.9940   30.3010   49.4030 C   0  0  0  0  0  0  0  0  0  0  0  0
   47.4989   32.1145   44.1902 H   0  0  0  0  0  0  0  0  0  0  0  0
   48.1424   30.2450   45.6451 H   0  0  0  0  0  0  0  0  0  0  0  0
   47.2225   30.0188   47.9506 H   0  0  0  0  0  0  0  0  0  0  0  0
   43.7247   36.7004   44.8152 H   0  0  0  0  0  0  0  0  0  0  0  0
   44.7691   37.0548   42.5420 H   0  0  0  0  0  0  0  0  0  0  0  0
   46.5336   35.4030   41.7848 H   0  0  0  0  0  0  0  0  0  0  0  0
   46.3323   31.8786   49.8068 H   0  0  0  0  0  0  0  0  0  0  0  0
   44.6624   32.3488   49.2005 H   0  0  0  0  0  0  0  0  0  0  0  0
   44.9405   30.1615   50.4928 H   0  0  0  0  0  0  0  0  0  0  0  0
   43.9893   30.1894   48.9693 H   0  0  0  0  0  0  0  0  0  0  0  0
   45.6664   29.5462   48.9693 H   0  0  0  0  0  0  0  0  0  0  0  0
  2  1  1  0
  2  7  2  0
  3  2  1  0
  4  3  2  0
  4  5  1  0
  5  6  2  0
  6  7  1  0
  7 14  1  0
  8 13  2  0
  9  8  1  0
 10  9  2  0
 10 11  1  0
 11 12  2  0
 12 13  1  0
 12  3  1  0
 14 15  1  0
  4 16  1  0
  5 17  1  0
  6 18  1  0
  8 19  1  0
  9 20  1  0
 10 21  1  0
 14 22  1  0
 14 23  1  0
 15 24  1  0
 15 25  1  0
 15 26  1  0
M  ISO  8  16  14  17  14  18  14  19  14  20  14  21  14  22   8  23   8
M  ISO  3  24   8  25   8  26   8
M  END
>  <minimizedAffinity>  (1) 
-5.01549959

>  <minimizedRMSD>  (1) 
0.994633853

$$$$
