
     RDKit          3D

 35 37  0  0  0  0  0  0  0  0999 V2000
   46.9610   33.3570   45.0490 F   0  0  0  0  0  0  0  0  0  0  0  0
   47.4610   32.1270   44.6980 C   0  0  0  0  0  0  0  0  0  0  0  0
   48.1140   32.0450   43.4960 C   0  0  0  0  0  0  0  0  0  0  0  0
   48.6210   30.8200   43.1440 C   0  0  0  0  0  0  0  0  0  0  0  0
   48.4780   29.7250   43.9590 C   0  0  0  0  0  0  0  0  0  0  0  0
   47.8210   29.8220   45.1590 C   0  0  0  0  0  0  0  0  0  0  0  0
   47.2860   31.0660   45.5580 C   0  0  0  0  0  0  0  0  0  0  0  0
   47.5340   34.4780   40.8200 C   0  0  0  0  0  0  0  0  0  0  0  0
   48.5460   35.4320   41.0380 C   0  0  0  0  0  0  0  0  0  0  0  0
   49.4190   35.2120   42.1210 C   0  0  0  0  0  0  0  0  0  0  0  0
   49.2400   34.1000   42.8900 N   0  0  0  0  0  0  0  0  0  0  0  0
   48.2580   33.2130   42.6440 C   0  0  0  0  0  0  0  0  0  0  0  0
   47.4190   33.4060   41.6200 N   0  0  0  0  0  0  0  0  0  0  0  0
   46.5980   31.1350   46.8040 N   0  0  0  0  0  0  0  0  0  0  0  0
   47.0090   32.0870   47.8170 C   0  0  0  0  0  0  0  0  0  0  0  0
   45.8490   32.5110   48.6900 C   0  0  0  0  0  0  0  0  0  0  0  0
   45.3590   31.2770   49.3630 C   0  0  0  0  0  0  0  0  0  0  0  0
   44.9860   30.1750   48.4300 C   0  0  0  0  0  0  0  0  0  0  0  0
   45.4940   30.2380   47.0500 C   0  0  0  0  0  0  0  0  0  0  0  0
   49.1538   30.7129   42.1876 H   0  0  0  0  0  0  0  0  0  0  0  0
   48.8958   28.7569   43.6456 H   0  0  0  0  0  0  0  0  0  0  0  0
   47.7119   28.9383   45.8048 H   0  0  0  0  0  0  0  0  0  0  0  0
   46.8301   34.6123   39.9854 H   0  0  0  0  0  0  0  0  0  0  0  0
   48.6507   36.3137   40.3887 H   0  0  0  0  0  0  0  0  0  0  0  0
   50.2289   35.9227   42.3422 H   0  0  0  0  0  0  0  0  0  0  0  0
   47.7804   31.6236   48.4496 H   0  0  0  0  0  0  0  0  0  0  0  0
   47.4003   32.9807   47.3089 H   0  0  0  0  0  0  0  0  0  0  0  0
   46.1836   33.2452   49.4376 H   0  0  0  0  0  0  0  0  0  0  0  0
   45.0538   32.9846   48.0956 H   0  0  0  0  0  0  0  0  0  0  0  0
   46.1532   30.9098   50.0296 H   0  0  0  0  0  0  0  0  0  0  0  0
   44.4421   31.5560   49.9029 H   0  0  0  0  0  0  0  0  0  0  0  0
   45.3509   29.2355   48.8706 H   0  0  0  0  0  0  0  0  0  0  0  0
   43.8943   30.2602   48.3257 H   0  0  0  0  0  0  0  0  0  0  0  0
   44.6611   30.5497   46.4025 H   0  0  0  0  0  0  0  0  0  0  0  0
   45.8878   29.2323   46.8416 H   0  0  0  0  0  0  0  0  0  0  0  0
  2  1  1  0
  2  7  2  0
  3  2  1  0
  4  3  2  0
  4  5  1  0
  5  6  2  0
  6  7  1  0
  7 14  1  0
  8  9  2  0
  8 13  1  0
  9 10  1  0
 10 11  2  0
 12 11  1  0
 12  3  1  0
 13 12  2  0
 14 19  1  0
 14 15  1  0
 15 16  1  0
 16 17  1  0
 18 17  1  0
 19 18  1  0
  4 20  1  0
  5 21  1  0
  6 22  1  0
  8 23  1  0
  9 24  1  0
 10 25  1  0
 15 26  1  0
 15 27  1  0
 16 28  1  0
 16 29  1  0
 17 30  1  0
 17 31  1  0
 18 32  1  0
 18 33  1  0
 19 34  1  0
 19 35  1  0
M  ISO  8  20  14  21  14  22  14  23  14  24  14  25  14  26  13  27  13
M  ISO  8  28  13  29  13  30  13  31  13  32  13  33  13  34  13  35  13
M  END
>  <minimizedAffinity>  (1) 
-5.27328587

>  <minimizedRMSD>  (1) 
3.84375644

$$$$
