
     RDKit          3D

 27 29  0  0  0  0  0  0  0  0999 V2000
   46.9430   33.5130   45.0810 F   0  0  0  0  0  0  0  0  0  0  0  0
   47.3900   32.2650   44.7790 C   0  0  0  0  0  0  0  0  0  0  0  0
   48.0420   32.0950   43.5620 C   0  0  0  0  0  0  0  0  0  0  0  0
   48.5070   30.8600   43.2200 C   0  0  0  0  0  0  0  0  0  0  0  0
   48.3310   29.7940   44.0670 C   0  0  0  0  0  0  0  0  0  0  0  0
   47.6830   29.9390   45.2850 C   0  0  0  0  0  0  0  0  0  0  0  0
   47.2160   31.2020   45.6210 C   0  0  0  0  0  0  0  0  0  0  0  0
   49.3630   35.1790   42.0830 C   0  0  0  0  0  0  0  0  0  0  0  0
   48.5220   35.3900   40.9680 C   0  0  0  0  0  0  0  0  0  0  0  0
   47.5140   34.4570   40.7530 C   0  0  0  0  0  0  0  0  0  0  0  0
   47.4070   33.4140   41.6230 N   0  0  0  0  0  0  0  0  0  0  0  0
   48.2210   33.2450   42.6700 C   0  0  0  0  0  0  0  0  0  0  0  0
   49.2050   34.1290   42.9040 N   0  0  0  0  0  0  0  0  0  0  0  0
   46.5560   31.3730   46.8510 C   0  0  0  0  0  0  0  0  0  0  0  0
   46.6690   32.2980   47.8390 C   0  0  0  0  0  0  0  0  0  0  0  0
   45.8860   32.2300   48.9620 C   0  0  0  0  0  0  0  0  0  0  0  0
   44.9640   31.1650   49.0430 C   0  0  0  0  0  0  0  0  0  0  0  0
   45.2860   30.2600   47.4100 S   0  0  0  0  0  0  0  0  0  0  0  0
   49.0258   30.7169   42.2606 H   0  0  0  0  0  0  0  0  0  0  0  0
   48.7117   28.8045   43.7738 H   0  0  0  0  0  0  0  0  0  0  0  0
   47.5441   29.0825   45.9611 H   0  0  0  0  0  0  0  0  0  0  0  0
   50.1718   35.8968   42.2846 H   0  0  0  0  0  0  0  0  0  0  0  0
   48.6584   36.2533   40.3001 H   0  0  0  0  0  0  0  0  0  0  0  0
   46.8220   34.5581   39.9040 H   0  0  0  0  0  0  0  0  0  0  0  0
   47.3997   33.1138   47.7365 H   0  0  0  0  0  0  0  0  0  0  0  0
   45.9728   32.9749   49.7668 H   0  0  0  0  0  0  0  0  0  0  0  0
   44.2479   30.9240   49.8425 H   0  0  0  0  0  0  0  0  0  0  0  0
  2  1  1  0
  2  7  2  0
  3  2  1  0
  4  3  2  0
  4  5  1  0
  5  6  2  0
  6  7  1  0
  7 14  1  0
  8 13  2  0
  9  8  1  0
 10  9  2  0
 10 11  1  0
 11 12  2  0
 12 13  1  0
 12  3  1  0
 14 18  1  0
 14 15  2  0
 15 16  1  0
 16 17  2  0
 18 17  1  0
  4 19  1  0
  5 20  1  0
  6 21  1  0
  8 22  1  0
  9 23  1  0
 10 24  1  0
 15 25  1  0
 16 26  1  0
 17 27  1  0
M  ISO  8  19  14  20  14  21  14  22  14  23  14  24  14  25  14  26  14
M  ISO  1  27  14
M  END
>  <minimizedAffinity>  (1) 
-4.89790154

>  <minimizedRMSD>  (1) 
3.76399112

$$$$
