
     RDKit          3D

 21 22  0  0  0  0  0  0  0  0999 V2000
   44.4420   33.8200   47.6280 F   0  0  0  0  0  0  0  0  0  0  0  0
   45.4040   32.8830   47.3500 C   0  0  0  0  0  0  0  0  0  0  0  0
   46.0430   32.9730   46.1390 C   0  0  0  0  0  0  0  0  0  0  0  0
   47.0050   32.0540   45.8350 C   0  0  0  0  0  0  0  0  0  0  0  0
   47.3220   31.0530   46.7420 C   0  0  0  0  0  0  0  0  0  0  0  0
   46.6820   30.9570   47.9640 C   0  0  0  0  0  0  0  0  0  0  0  0
   45.7050   31.9040   48.2550 C   0  0  0  0  0  0  0  0  0  0  0  0
   44.4840   35.9680   44.6910 C   0  0  0  0  0  0  0  0  0  0  0  0
   45.0580   36.0250   43.4050 C   0  0  0  0  0  0  0  0  0  0  0  0
   45.9700   35.0340   43.0610 C   0  0  0  0  0  0  0  0  0  0  0  0
   46.2610   34.0630   43.9770 N   0  0  0  0  0  0  0  0  0  0  0  0
   45.7010   34.0340   45.1890 C   0  0  0  0  0  0  0  0  0  0  0  0
   44.8180   34.9800   45.5430 N   0  0  0  0  0  0  0  0  0  0  0  0
   45.0380   31.8430   49.4700 O   0  0  0  0  0  0  0  0  0  0  0  0
   47.5298   32.1069   44.8697 H   0  0  0  0  0  0  0  0  0  0  0  0
   48.0998   30.3194   46.4832 H   0  0  0  0  0  0  0  0  0  0  0  0
   46.9359   30.1612   48.6797 H   0  0  0  0  0  0  0  0  0  0  0  0
   43.7589   36.7351   45.0006 H   0  0  0  0  0  0  0  0  0  0  0  0
   44.7936   36.8255   42.6984 H   0  0  0  0  0  0  0  0  0  0  0  0
   46.4482   35.0316   42.0704 H   0  0  0  0  0  0  0  0  0  0  0  0
   45.2603   31.1316   50.1216 H   0  0  0  0  0  0  0  0  0  0  0  0
  2  1  1  0
  2  7  2  0
  3  2  1  0
  4  3  2  0
  4  5  1  0
  5  6  2  0
  6  7  1  0
  7 14  1  0
  8 13  2  0
  9  8  1  0
 10  9  2  0
 10 11  1  0
 11 12  2  0
 12 13  1  0
 12  3  1  0
  4 15  1  0
  5 16  1  0
  6 17  1  0
  8 18  1  0
  9 19  1  0
 10 20  1  0
 14 21  1  0
M  ISO  7  15  14  16  14  17  14  18  14  19  14  20  14  21   3
M  END
>  <minimizedAffinity>  (1) 
-5.28183651

>  <minimizedRMSD>  (1) 
0.329880506

$$$$
