
     RDKit          3D

 36 38  0  0  1  0  0  0  0  0999 V2000
   46.7360   33.2100   46.7090 F   0  0  0  0  0  0  0  0  0  0  0  0
   46.9320   32.2740   45.7610 C   0  0  0  0  0  0  0  0  0  0  0  0
   46.6080   32.5610   44.4640 C   0  0  0  0  0  0  0  0  0  0  0  0
   46.8080   31.6090   43.5100 C   0  0  0  0  0  0  0  0  0  0  0  0
   47.3330   30.3820   43.8770 C   0  0  0  0  0  0  0  0  0  0  0  0
   47.6630   30.0750   45.1730 C   0  0  0  0  0  0  0  0  0  0  0  0
   47.4490   31.0700   46.1370 C   0  0  0  0  0  0  0  0  0  0  0  0
   47.8050   30.7120   47.4610 N   0  0  0  0  0  0  0  0  0  0  0  0
   48.4350   29.5180   47.9860 C   0  0  0  0  0  0  0  0  0  0  0  0
   49.5800   30.0940   48.8180 C   0  0  0  0  0  0  0  0  0  0  0  0
   49.0450   31.4440   49.2240 C   0  0  0  0  0  0  0  0  0  0  0  0
   47.6550   31.4250   48.7100 C   0  0  2  0  0  0  0  0  0  0  0  0
   45.2560   31.0380   49.4220 C   0  0  0  0  0  0  0  0  0  0  0  0
   44.6990   31.6050   48.4800 O   0  0  0  0  0  0  0  0  0  0  0  0
   46.6510   30.9230   49.5790 N   0  0  0  0  0  0  0  0  0  0  0  0
   46.0240   35.7360   42.7020 C   0  0  0  0  0  0  0  0  0  0  0  0
   45.0260   36.3570   43.5160 C   0  0  0  0  0  0  0  0  0  0  0  0
   44.5900   35.6460   44.6510 C   0  0  0  0  0  0  0  0  0  0  0  0
   45.1340   34.4230   44.9120 N   0  0  0  0  0  0  0  0  0  0  0  0
   46.0570   33.8790   44.1360 C   0  0  0  0  0  0  0  0  0  0  0  0
   46.5030   34.5330   43.0330 N   0  0  0  0  0  0  0  0  0  0  0  0
   46.5549   31.8134   42.4592 H   0  0  0  0  0  0  0  0  0  0  0  0
   47.4922   29.6220   43.0979 H   0  0  0  0  0  0  0  0  0  0  0  0
   48.0769   29.0923   45.4434 H   0  0  0  0  0  0  0  0  0  0  0  0
   47.7378   28.9421   48.6123 H   0  0  0  0  0  0  0  0  0  0  0  0
   48.7662   28.8155   47.2070 H   0  0  0  0  0  0  0  0  0  0  0  0
   49.7856   29.4672   49.6983 H   0  0  0  0  0  0  0  0  0  0  0  0
   50.5335   30.1474   48.2722 H   0  0  0  0  0  0  0  0  0  0  0  0
   49.0597   31.5617   50.3176 H   0  0  0  0  0  0  0  0  0  0  0  0
   49.6399   32.2807   48.8291 H   0  0  0  0  0  0  0  0  0  0  0  0
   47.2479   32.4403   48.5941 H   0  0  0  0  0  0  0  0  0  0  0  0
   44.6170   30.5890   50.1967 H   0  0  0  0  0  0  0  0  0  0  0  0
   46.9785   30.4196   50.4158 H   0  0  0  0  0  0  0  0  0  0  0  0
   46.3976   36.2484   41.8032 H   0  0  0  0  0  0  0  0  0  0  0  0
   44.6165   37.3470   43.2667 H   0  0  0  0  0  0  0  0  0  0  0  0
   43.8233   36.0702   45.3160 H   0  0  0  0  0  0  0  0  0  0  0  0
  2  7  2  0
  2  1  1  0
  3  2  1  0
  4  5  1  0
  4  3  2  0
  5  6  2  0
  6  7  1  0
  7  8  1  0
  8  9  1  0
  8 12  1  0
  9 10  1  0
 10 11  1  0
 12 11  1  0
 12 15  1  0
 13 15  1  0
 14 13  2  0
 16 21  2  0
 16 17  1  0
 17 18  2  0
 18 19  1  0
 20  3  1  0
 20 19  2  0
 21 20  1  0
  4 22  1  0
  5 23  1  0
  6 24  1  0
  9 25  1  0
  9 26  1  0
 10 27  1  0
 10 28  1  0
 11 29  1  0
 11 30  1  0
 12 31  1  6
 13 32  1  0
 15 33  1  0
 16 34  1  0
 17 35  1  0
 18 36  1  0
M  ISO  8  22  14  23  14  24  14  25  13  26  13  27  13  28  13  29  13
M  ISO  6  30  13  31  13  32   6  34  14  35  14  36  14
M  END
>  <minimizedAffinity>  (1) 
-5.85701799

>  <minimizedRMSD>  (1) 
2.93421912

$$$$
