
     RDKit          3D

 52 55  0  0  1  0  0  0  0  0999 V2000
   46.8200   33.4620   44.6710 F   0  0  0  0  0  0  0  0  0  0  0  0
   47.4150   32.2610   44.4590 C   0  0  0  0  0  0  0  0  0  0  0  0
   48.2080   32.1070   43.3560 C   0  0  0  0  0  0  0  0  0  0  0  0
   48.8000   30.8970   43.1500 C   0  0  0  0  0  0  0  0  0  0  0  0
   48.5870   29.8680   44.0500 C   0  0  0  0  0  0  0  0  0  0  0  0
   47.7950   30.0120   45.1560 C   0  0  0  0  0  0  0  0  0  0  0  0
   47.1950   31.2560   45.3550 C   0  0  0  0  0  0  0  0  0  0  0  0
   46.3780   31.3690   46.5170 N   0  0  0  0  0  0  0  0  0  0  0  0
   45.3110   30.5280   47.0080 C   0  0  0  0  0  0  0  0  0  0  0  0
   45.7100   30.3080   48.4780 C   0  0  0  0  0  0  0  0  0  0  0  0
   46.5720   31.4960   48.7810 C   0  0  0  0  0  0  0  0  0  0  0  0
   46.3670   32.3770   47.5740 C   0  0  2  0  0  0  0  0  0  0  0  0
   45.1170   33.1950   47.6080 C   0  0  0  0  0  0  0  0  0  0  0  0
   49.2580   35.3440   41.9790 C   0  0  0  0  0  0  0  0  0  0  0  0
   48.7460   35.3100   40.6810 C   0  0  0  0  0  0  0  0  0  0  0  0
   48.0400   34.1680   40.2900 C   0  0  0  0  0  0  0  0  0  0  0  0
   47.9070   33.1690   41.2120 N   0  0  0  0  0  0  0  0  0  0  0  0
   48.4010   33.2290   42.4290 C   0  0  0  0  0  0  0  0  0  0  0  0
   49.0700   34.3100   42.8080 N   0  0  0  0  0  0  0  0  0  0  0  0
   48.2300   33.9650   37.7810 C   0  0  2  0  0  0  0  0  0  0  0  0
   47.3820   33.8230   39.0160 C   0  0  1  0  0  0  0  0  0  0  0  0
   46.6610   32.6580   39.0420 O   0  0  0  0  0  0  0  0  0  0  0  0
   47.3440   31.4840   38.9830 C   0  0  0  0  0  0  0  0  0  0  0  0
   48.7460   31.6100   38.5000 C   0  0  1  0  0  0  0  0  0  0  0  0
   49.0420   32.7100   37.5530 C   0  0  2  0  0  0  0  0  0  0  0  0
   48.9510   35.1340   37.7020 O   0  0  0  0  0  0  0  0  0  0  0  0
   49.6770   31.5370   39.5660 O   0  0  0  0  0  0  0  0  0  0  0  0
   50.4130   32.9930   37.6010 O   0  0  0  0  0  0  0  0  0  0  0  0
   49.4441   30.7391   42.2724 H   0  0  0  0  0  0  0  0  0  0  0  0
   49.0727   28.8977   43.8694 H   0  0  0  0  0  0  0  0  0  0  0  0
   47.6376   29.1812   45.8596 H   0  0  0  0  0  0  0  0  0  0  0  0
   44.3379   31.0353   46.9318 H   0  0  0  0  0  0  0  0  0  0  0  0
   45.1934   29.5928   46.4409 H   0  0  0  0  0  0  0  0  0  0  0  0
   44.8232   30.2880   49.1286 H   0  0  0  0  0  0  0  0  0  0  0  0
   46.2223   29.3493   48.6468 H   0  0  0  0  0  0  0  0  0  0  0  0
   46.2410   32.0010   49.7005 H   0  0  0  0  0  0  0  0  0  0  0  0
   47.6264   31.2350   48.9545 H   0  0  0  0  0  0  0  0  0  0  0  0
   47.1225   33.1692   47.4657 H   0  0  0  0  0  0  0  0  0  0  0  0
   44.8300   33.3828   48.6532 H   0  0  0  0  0  0  0  0  0  0  0  0
   45.2922   34.1537   47.0979 H   0  0  0  0  0  0  0  0  0  0  0  0
   44.3086   32.6507   47.0979 H   0  0  0  0  0  0  0  0  0  0  0  0
   49.8192   36.2255   42.3226 H   0  0  0  0  0  0  0  0  0  0  0  0
   48.8928   36.1526   39.9893 H   0  0  0  0  0  0  0  0  0  0  0  0
   47.5395   34.0686   36.9310 H   0  0  0  0  0  0  0  0  0  0  0  0
   46.6372   34.6268   38.9203 H   0  0  0  0  0  0  0  0  0  0  0  0
   47.3662   31.0482   39.9927 H   0  0  0  0  0  0  0  0  0  0  0  0
   46.8171   30.8515   38.2534 H   0  0  0  0  0  0  0  0  0  0  0  0
   48.8707   30.7237   37.8606 H   0  0  0  0  0  0  0  0  0  0  0  0
   48.7484   32.3588   36.5528 H   0  0  0  0  0  0  0  0  0  0  0  0
   49.1521   35.4600   38.6149 H   0  0  0  0  0  0  0  0  0  0  0  0
   49.1939   31.5749   40.4293 H   0  0  0  0  0  0  0  0  0  0  0  0
   50.7047   33.0532   38.5451 H   0  0  0  0  0  0  0  0  0  0  0  0
  2  1  1  0
  2  7  2  0
  3  2  1  0
  4  3  2  0
  4  5  1  0
  5  6  2  0
  6  7  1  0
  7  8  1  0
  8  9  1  0
  8 12  1  0
  9 10  1  0
 10 11  1  0
 12 13  1  0
 12 11  1  0
 14 19  2  0
 15 14  1  0
 16 15  2  0
 16 17  1  0
 17 18  2  0
 18 19  1  0
 18  3  1  0
 20 26  1  0
 20 21  1  0
 21 22  1  0
 21 16  1  0
 23 22  1  0
 24 23  1  0
 24 27  1  0
 25 28  1  0
 25 20  1  0
 25 24  1  0
  4 29  1  0
  5 30  1  0
  6 31  1  0
  9 32  1  0
  9 33  1  0
 10 34  1  0
 10 35  1  0
 11 36  1  0
 11 37  1  0
 12 38  1  6
 13 39  1  0
 13 40  1  0
 13 41  1  0
 14 42  1  0
 15 43  1  0
 20 44  1  6
 21 45  1  6
 23 46  1  0
 23 47  1  0
 24 48  1  6
 25 49  1  6
 26 50  1  0
 27 51  1  0
 28 52  1  0
M  ISO  8  29  14  30  14  31  14  32  13  33  13  34  13  35  13  36  13
M  ISO  8  37  13  38  13  39   8  40   8  41   8  42  14  43  14  44  13
M  ISO  8  45  13  46  13  47  13  48  13  49  13  50   3  51   3  52   3
M  END
>  <minimizedAffinity>  (1) 
-6.77985525

>  <minimizedRMSD>  (1) 
0.770287871

$$$$
