
     RDKit          3D

 37 39  0  0  1  0  0  0  0  0999 V2000
   46.7210   33.3610   44.7420 F   0  0  0  0  0  0  0  0  0  0  0  0
   47.3730   32.1720   44.5340 C   0  0  0  0  0  0  0  0  0  0  0  0
   48.1770   32.0790   43.4300 C   0  0  0  0  0  0  0  0  0  0  0  0
   48.8290   30.8830   43.2270 C   0  0  0  0  0  0  0  0  0  0  0  0
   48.6550   29.8450   44.1200 C   0  0  0  0  0  0  0  0  0  0  0  0
   47.8440   29.9540   45.2240 C   0  0  0  0  0  0  0  0  0  0  0  0
   47.1800   31.1770   45.4280 C   0  0  0  0  0  0  0  0  0  0  0  0
   46.3580   31.2290   46.5850 N   0  0  0  0  0  0  0  0  0  0  0  0
   45.2920   30.3740   47.0170 C   0  0  0  0  0  0  0  0  0  0  0  0
   45.6390   30.0990   48.4810 C   0  0  0  0  0  0  0  0  0  0  0  0
   46.5470   31.2500   48.8540 C   0  0  0  0  0  0  0  0  0  0  0  0
   46.3590   32.1740   47.6790 C   0  0  2  0  0  0  0  0  0  0  0  0
   45.1320   33.0270   47.7540 C   0  0  0  0  0  0  0  0  0  0  0  0
   49.2260   35.2910   42.0150 C   0  0  0  0  0  0  0  0  0  0  0  0
   48.5930   35.3180   40.7680 C   0  0  0  0  0  0  0  0  0  0  0  0
   47.8030   34.1950   40.4480 C   0  0  0  0  0  0  0  0  0  0  0  0
   47.7230   33.2020   41.3540 N   0  0  0  0  0  0  0  0  0  0  0  0
   48.3260   33.1980   42.5220 C   0  0  0  0  0  0  0  0  0  0  0  0
   49.0830   34.2450   42.8580 N   0  0  0  0  0  0  0  0  0  0  0  0
   47.1110   34.1110   39.2050 N   0  0  0  0  0  0  0  0  0  0  0  0
   49.4871   30.7552   42.3549 H   0  0  0  0  0  0  0  0  0  0  0  0
   49.1841   28.8972   43.9417 H   0  0  0  0  0  0  0  0  0  0  0  0
   47.7185   29.1144   45.9235 H   0  0  0  0  0  0  0  0  0  0  0  0
   44.3196   30.8808   46.9302 H   0  0  0  0  0  0  0  0  0  0  0  0
   45.2016   29.4579   46.4148 H   0  0  0  0  0  0  0  0  0  0  0  0
   44.7333   30.0951   49.1052 H   0  0  0  0  0  0  0  0  0  0  0  0
   46.1107   29.1167   48.6311 H   0  0  0  0  0  0  0  0  0  0  0  0
   46.2284   31.7249   49.7936 H   0  0  0  0  0  0  0  0  0  0  0  0
   47.5924   30.9572   49.0315 H   0  0  0  0  0  0  0  0  0  0  0  0
   47.1341   32.9502   47.5974 H   0  0  0  0  0  0  0  0  0  0  0  0
   44.8740   33.2064   48.8082 H   0  0  0  0  0  0  0  0  0  0  0  0
   45.3226   33.9883   47.2545 H   0  0  0  0  0  0  0  0  0  0  0  0
   44.2973   32.5134   47.2545 H   0  0  0  0  0  0  0  0  0  0  0  0
   49.8551   36.1415   42.3164 H   0  0  0  0  0  0  0  0  0  0  0  0
   48.7051   36.1664   40.0769 H   0  0  0  0  0  0  0  0  0  0  0  0
   46.5386   33.2823   38.9892 H   0  0  0  0  0  0  0  0  0  0  0  0
   47.1833   34.8790   38.5224 H   0  0  0  0  0  0  0  0  0  0  0  0
  2  1  1  0
  2  7  2  0
  3  2  1  0
  4  3  2  0
  4  5  1  0
  5  6  2  0
  6  7  1  0
  7  8  1  0
  8  9  1  0
  8 12  1  0
  9 10  1  0
 10 11  1  0
 12 13  1  0
 12 11  1  0
 14 19  2  0
 15 14  1  0
 16 15  2  0
 16 17  1  0
 17 18  2  0
 18 19  1  0
 18  3  1  0
 20 16  1  0
  4 21  1  0
  5 22  1  0
  6 23  1  0
  9 24  1  0
  9 25  1  0
 10 26  1  0
 10 27  1  0
 11 28  1  0
 11 29  1  0
 12 30  1  6
 13 31  1  0
 13 32  1  0
 13 33  1  0
 14 34  1  0
 15 35  1  0
 20 36  1  0
 20 37  1  0
M  ISO  8  21  14  22  14  23  14  24  13  25  13  26  13  27  13  28  13
M  ISO  7  29  13  30  13  31   8  32   8  33   8  34  14  35  14
M  END
>  <minimizedAffinity>  (1) 
-5.1862092

>  <minimizedRMSD>  (1) 
0.278983921

$$$$
