
     RDKit          3D

 38 40  0  0  1  0  0  0  0  0999 V2000
   46.7490   33.3640   44.7110 F   0  0  0  0  0  0  0  0  0  0  0  0
   47.3900   32.1840   44.5170 C   0  0  0  0  0  0  0  0  0  0  0  0
   48.2170   32.0710   43.4160 C   0  0  0  0  0  0  0  0  0  0  0  0
   48.8650   30.8740   43.2220 C   0  0  0  0  0  0  0  0  0  0  0  0
   48.6720   29.8400   44.1150 C   0  0  0  0  0  0  0  0  0  0  0  0
   47.8530   29.9520   45.2030 C   0  0  0  0  0  0  0  0  0  0  0  0
   47.1940   31.1760   45.3990 C   0  0  0  0  0  0  0  0  0  0  0  0
   46.3570   31.2340   46.5460 N   0  0  0  0  0  0  0  0  0  0  0  0
   45.2850   30.3960   46.9810 C   0  0  0  0  0  0  0  0  0  0  0  0
   45.6560   30.1150   48.4560 C   0  0  0  0  0  0  0  0  0  0  0  0
   46.5260   31.2700   48.8300 C   0  0  0  0  0  0  0  0  0  0  0  0
   46.3560   32.2050   47.6450 C   0  0  2  0  0  0  0  0  0  0  0  0
   45.1340   33.0480   47.7020 C   0  0  0  0  0  0  0  0  0  0  0  0
   49.1630   35.3490   42.0750 C   0  0  0  0  0  0  0  0  0  0  0  0
   48.6740   35.3000   40.7560 C   0  0  0  0  0  0  0  0  0  0  0  0
   48.0270   34.1270   40.3660 C   0  0  0  0  0  0  0  0  0  0  0  0
   47.9090   33.1230   41.2640 N   0  0  0  0  0  0  0  0  0  0  0  0
   48.3830   33.1930   42.5090 C   0  0  0  0  0  0  0  0  0  0  0  0
   49.0030   34.3000   42.9050 N   0  0  0  0  0  0  0  0  0  0  0  0
   47.4560   33.9030   39.0290 C   0  0  0  0  0  0  0  0  0  0  0  0
   49.5341   30.7413   42.3590 H   0  0  0  0  0  0  0  0  0  0  0  0
   49.1977   28.8889   43.9445 H   0  0  0  0  0  0  0  0  0  0  0  0
   47.7149   29.1128   45.9006 H   0  0  0  0  0  0  0  0  0  0  0  0
   44.3186   30.9161   46.9065 H   0  0  0  0  0  0  0  0  0  0  0  0
   45.1689   29.4840   46.3770 H   0  0  0  0  0  0  0  0  0  0  0  0
   44.7557   30.0818   49.0872 H   0  0  0  0  0  0  0  0  0  0  0  0
   46.1554   29.1444   48.5919 H   0  0  0  0  0  0  0  0  0  0  0  0
   46.1814   31.7422   49.7619 H   0  0  0  0  0  0  0  0  0  0  0  0
   47.5721   30.9882   49.0204 H   0  0  0  0  0  0  0  0  0  0  0  0
   47.1318   32.9811   47.5695 H   0  0  0  0  0  0  0  0  0  0  0  0
   44.8652   33.2335   48.7524 H   0  0  0  0  0  0  0  0  0  0  0  0
   45.3260   34.0067   47.1979 H   0  0  0  0  0  0  0  0  0  0  0  0
   44.3060   32.5281   47.1979 H   0  0  0  0  0  0  0  0  0  0  0  0
   49.6804   36.2520   42.4313 H   0  0  0  0  0  0  0  0  0  0  0  0
   48.7963   36.1470   40.0649 H   0  0  0  0  0  0  0  0  0  0  0  0
   46.4361   33.5029   39.1282 H   0  0  0  0  0  0  0  0  0  0  0  0
   47.4244   34.8554   38.4795 H   0  0  0  0  0  0  0  0  0  0  0  0
   48.0804   33.1832   38.4795 H   0  0  0  0  0  0  0  0  0  0  0  0
  2  1  1  0
  2  7  2  0
  3  2  1  0
  4  3  2  0
  4  5  1  0
  5  6  2  0
  6  7  1  0
  7  8  1  0
  8  9  1  0
  8 12  1  0
  9 10  1  0
 10 11  1  0
 12 13  1  0
 12 11  1  0
 14 19  2  0
 15 14  1  0
 16 15  2  0
 16 17  1  0
 17 18  2  0
 18 19  1  0
 18  3  1  0
 20 16  1  0
  4 21  1  0
  5 22  1  0
  6 23  1  0
  9 24  1  0
  9 25  1  0
 10 26  1  0
 10 27  1  0
 11 28  1  0
 11 29  1  0
 12 30  1  6
 13 31  1  0
 13 32  1  0
 13 33  1  0
 14 34  1  0
 15 35  1  0
 20 36  1  0
 20 37  1  0
 20 38  1  0
M  ISO  8  21  14  22  14  23  14  24  13  25  13  26  13  27  13  28  13
M  ISO  8  29  13  30  13  31   8  32   8  33   8  34  14  35  14  36   8
M  ISO  2  37   8  38   8
M  END
>  <minimizedAffinity>  (1) 
-4.99010372

>  <minimizedRMSD>  (1) 
0.385633826

$$$$
