
     RDKit          3D

 16 16  0  0  0  0  0  0  0  0999 V2000
   44.4780   35.6990   44.5900 C   0  0  0  0  0  0  0  0  0  0  0  0
   44.9330   35.8200   43.2640 C   0  0  0  0  0  0  0  0  0  0  0  0
   46.0080   35.0030   42.8820 C   0  0  0  0  0  0  0  0  0  0  0  0
   46.5400   34.1550   43.8000 N   0  0  0  0  0  0  0  0  0  0  0  0
   46.0690   34.0730   45.0650 C   0  0  0  0  0  0  0  0  0  0  0  0
   45.0440   34.8400   45.4560 N   0  0  0  0  0  0  0  0  0  0  0  0
   46.5940   33.2150   46.0220 O   0  0  0  0  0  0  0  0  0  0  0  0
   46.7740   32.2190   48.4000 O   0  0  0  0  0  0  0  0  0  0  0  0
   45.7560   32.5210   47.3040 P   0  0  0  0  0  0  0  0  0  0  0  0
   44.5310   33.5280   47.8570 O   0  0  0  0  0  0  0  0  0  0  0  0
   45.0630   31.0280   46.8870 O   0  0  0  0  0  0  0  0  0  0  0  0
   43.6374   36.3234   44.9270 H   0  0  0  0  0  0  0  0  0  0  0  0
   44.4669   36.5235   42.5585 H   0  0  0  0  0  0  0  0  0  0  0  0
   46.4117   35.0484   41.8598 H   0  0  0  0  0  0  0  0  0  0  0  0
   44.5277   33.5307   48.8470 H   0  0  0  0  0  0  0  0  0  0  0  0
   44.8318   30.5299   47.7108 H   0  0  0  0  0  0  0  0  0  0  0  0
  1  6  2  0
  2  1  1  0
  3  2  2  0
  3  4  1  0
  4  5  2  0
  5  6  1  0
  5  7  1  0
  7  9  1  0
  9 10  1  0
  9  8  2  0
 11  9  1  0
  1 12  1  0
  2 13  1  0
  3 14  1  0
 10 15  1  0
 11 16  1  0
M  ISO  5  12  14  13  14  14  14  15   3  16   3
M  END
>  <minimizedAffinity>  (1) 
-4.28875923

>  <minimizedRMSD>  (1) 
1.2743001

$$$$
