
     RDKit          3D

 36 38  0  0  1  0  0  0  0  0999 V2000
   46.6820   33.4260   44.8490 F   0  0  0  0  0  0  0  0  0  0  0  0
   47.2980   32.2330   44.6210 C   0  0  0  0  0  0  0  0  0  0  0  0
   48.1070   32.1090   43.5200 C   0  0  0  0  0  0  0  0  0  0  0  0
   48.7260   30.8990   43.2990 C   0  0  0  0  0  0  0  0  0  0  0  0
   48.5160   29.8620   44.1790 C   0  0  0  0  0  0  0  0  0  0  0  0
   47.7060   29.9790   45.2860 C   0  0  0  0  0  0  0  0  0  0  0  0
   47.0840   31.2140   45.4970 C   0  0  0  0  0  0  0  0  0  0  0  0
   46.2630   31.2710   46.6530 N   0  0  0  0  0  0  0  0  0  0  0  0
   45.2050   30.4210   47.1060 C   0  0  0  0  0  0  0  0  0  0  0  0
   45.5410   30.1580   48.5600 C   0  0  0  0  0  0  0  0  0  0  0  0
   46.4400   31.3120   48.9260 C   0  0  0  0  0  0  0  0  0  0  0  0
   46.2610   32.2440   47.7450 C   0  0  2  0  0  0  0  0  0  0  0  0
   45.0520   33.0910   47.8240 C   0  0  0  0  0  0  0  0  0  0  0  0
   49.3480   35.2500   42.1060 C   0  0  0  0  0  0  0  0  0  0  0  0
   48.6350   35.3620   40.9020 C   0  0  0  0  0  0  0  0  0  0  0  0
   47.7270   34.3300   40.6050 C   0  0  0  0  0  0  0  0  0  0  0  0
   47.6040   33.3090   41.4920 N   0  0  0  0  0  0  0  0  0  0  0  0
   48.2960   33.2370   42.6210 C   0  0  0  0  0  0  0  0  0  0  0  0
   49.1640   34.1970   42.9330 N   0  0  0  0  0  0  0  0  0  0  0  0
   46.9330   34.2560   39.4760 O   0  0  0  0  0  0  0  0  0  0  0  0
   49.3824   30.7625   42.4269 H   0  0  0  0  0  0  0  0  0  0  0  0
   49.0157   28.9004   43.9902 H   0  0  0  0  0  0  0  0  0  0  0  0
   47.5542   29.1360   45.9762 H   0  0  0  0  0  0  0  0  0  0  0  0
   44.2320   30.9259   47.0150 H   0  0  0  0  0  0  0  0  0  0  0  0
   45.1244   29.4957   46.5167 H   0  0  0  0  0  0  0  0  0  0  0  0
   44.6321   30.1554   49.1796 H   0  0  0  0  0  0  0  0  0  0  0  0
   46.0139   29.1779   48.7207 H   0  0  0  0  0  0  0  0  0  0  0  0
   46.1158   31.7886   49.8629 H   0  0  0  0  0  0  0  0  0  0  0  0
   47.4854   31.0187   49.1026 H   0  0  0  0  0  0  0  0  0  0  0  0
   47.0309   33.0239   47.6498 H   0  0  0  0  0  0  0  0  0  0  0  0
   44.7975   33.2693   48.8792 H   0  0  0  0  0  0  0  0  0  0  0  0
   45.2448   34.0526   47.3258 H   0  0  0  0  0  0  0  0  0  0  0  0
   44.2141   32.5814   47.3258 H   0  0  0  0  0  0  0  0  0  0  0  0
   50.0695   36.0334   42.3813 H   0  0  0  0  0  0  0  0  0  0  0  0
   48.7795   36.2158   40.2236 H   0  0  0  0  0  0  0  0  0  0  0  0
   46.3206   33.4882   39.3510 H   0  0  0  0  0  0  0  0  0  0  0  0
  2  1  1  0
  2  7  2  0
  3  2  1  0
  4  3  2  0
  4  5  1  0
  5  6  2  0
  6  7  1  0
  7  8  1  0
  8  9  1  0
  8 12  1  0
  9 10  1  0
 10 11  1  0
 12 13  1  0
 12 11  1  0
 14 19  2  0
 15 14  1  0
 16 15  2  0
 16 17  1  0
 17 18  2  0
 18 19  1  0
 18  3  1  0
 20 16  1  0
  4 21  1  0
  5 22  1  0
  6 23  1  0
  9 24  1  0
  9 25  1  0
 10 26  1  0
 10 27  1  0
 11 28  1  0
 11 29  1  0
 12 30  1  6
 13 31  1  0
 13 32  1  0
 13 33  1  0
 14 34  1  0
 15 35  1  0
 20 36  1  0
M  ISO  8  21  14  22  14  23  14  24  13  25  13  26  13  27  13  28  13
M  ISO  8  29  13  30  13  31   8  32   8  33   8  34  14  35  14  36   3
M  END
>  <minimizedAffinity>  (1) 
-5.25841665

>  <minimizedRMSD>  (1) 
0.141790211

$$$$
