
     RDKit          3D

 29 31  0  0  0  0  0  0  0  0999 V2000
   47.0130   31.3840   48.1020 O   0  0  0  0  0  0  0  0  0  0  0  0
   45.9840   31.9240   47.1100 P   0  0  1  0  0  0  0  0  0  0  0  0
   44.6180   32.4970   47.9160 O   0  0  0  0  0  0  0  0  0  0  0  0
   46.7320   33.1480   46.2470 O   0  0  0  0  0  0  0  0  0  0  0  0
   44.4640   35.4980   44.8460 C   0  0  0  0  0  0  0  0  0  0  0  0
   44.8630   35.6380   43.5050 C   0  0  0  0  0  0  0  0  0  0  0  0
   45.9710   34.8700   43.1030 C   0  0  0  0  0  0  0  0  0  0  0  0
   46.5650   34.0610   44.0200 N   0  0  0  0  0  0  0  0  0  0  0  0
   46.1420   33.9650   45.2940 C   0  0  0  0  0  0  0  0  0  0  0  0
   45.0850   34.6870   45.7080 N   0  0  0  0  0  0  0  0  0  0  0  0
   45.5040   30.6160   46.1470 O   0  0  0  0  0  0  0  0  0  0  0  0
   45.5020   28.2930   45.8200 C   0  0  0  0  0  0  0  0  0  0  0  0
   45.3180   29.3540   46.6950 C   0  0  0  0  0  0  0  0  0  0  0  0
   44.9750   29.0550   47.9960 C   0  0  0  0  0  0  0  0  0  0  0  0
   44.8290   27.7220   48.3790 C   0  0  0  0  0  0  0  0  0  0  0  0
   44.5050   27.1860   49.5700 N   0  0  0  0  0  0  0  0  0  0  0  0
   44.4880   25.8390   49.4450 C   0  0  0  0  0  0  0  0  0  0  0  0
   44.7990   25.5270   48.1800 N   0  0  0  0  0  0  0  0  0  0  0  0
   45.0190   26.6670   47.4790 C   0  0  0  0  0  0  0  0  0  0  0  0
   45.3640   26.9660   46.1720 C   0  0  0  0  0  0  0  0  0  0  0  0
   44.7621   32.4366   48.8936 H   0  0  0  0  0  0  0  0  0  0  0  0
   43.6023   36.0820   45.2015 H   0  0  0  0  0  0  0  0  0  0  0  0
   44.3385   36.3099   42.8097 H   0  0  0  0  0  0  0  0  0  0  0  0
   46.3479   34.9228   42.0709 H   0  0  0  0  0  0  0  0  0  0  0  0
   45.7752   28.5244   44.7799 H   0  0  0  0  0  0  0  0  0  0  0  0
   44.8176   29.8619   48.7269 H   0  0  0  0  0  0  0  0  0  0  0  0
   44.3038   27.7127   50.4320 H   0  0  0  0  0  0  0  0  0  0  0  0
   44.2578   25.1215   50.2464 H   0  0  0  0  0  0  0  0  0  0  0  0
   45.5239   26.1666   45.4335 H   0  0  0  0  0  0  0  0  0  0  0  0
  2  3  1  0
  2  1  2  0
  4  2  1  0
  5 10  2  0
  6  5  1  0
  7  6  2  0
  7  8  1  0
  8  9  2  0
  9 10  1  0
  9  4  1  0
 11 13  1  0
 11  2  1  0
 12 20  2  0
 12 13  1  0
 13 14  2  0
 14 15  1  0
 15 16  1  0
 17 16  1  0
 18 17  2  0
 19 18  1  0
 19 15  2  0
 20 19  1  0
  3 21  1  0
  5 22  1  0
  6 23  1  0
  7 24  1  0
 12 25  1  0
 14 26  1  0
 16 27  1  0
 17 28  1  0
 20 29  1  0
M  ISO  8  21   3  22  14  23  14  24  14  25  14  26  14  27   9  28  14
M  ISO  1  29  14
M  END
>  <minimizedAffinity>  (1) 
-4.98471069

>  <minimizedRMSD>  (1) 
1.54479182

$$$$
