
     RDKit          3D

 22 22  0  0  0  0  0  0  0  0999 V2000
   44.4860   35.6290   44.7410 C   0  0  0  0  0  0  0  0  0  0  0  0
   44.8770   35.7780   43.3880 C   0  0  0  0  0  0  0  0  0  0  0  0
   45.9450   34.9740   42.9600 C   0  0  0  0  0  0  0  0  0  0  0  0
   46.5340   34.1230   43.8260 N   0  0  0  0  0  0  0  0  0  0  0  0
   46.1220   34.0170   45.1150 C   0  0  0  0  0  0  0  0  0  0  0  0
   45.1150   34.7580   45.5640 N   0  0  0  0  0  0  0  0  0  0  0  0
   46.6990   33.1550   46.0390 O   0  0  0  0  0  0  0  0  0  0  0  0
   46.9490   32.2300   48.4370 O   0  0  0  0  0  0  0  0  0  0  0  0
   45.9250   32.4020   47.3240 P   0  0  1  0  0  0  0  0  0  0  0  0
   44.6250   33.3380   47.8610 O   0  0  0  0  0  0  0  0  0  0  0  0
   45.3280   30.8690   46.9540 O   0  0  0  0  0  0  0  0  0  0  0  0
   45.0980   30.1130   48.0930 C   0  0  0  0  0  0  0  0  0  0  0  0
   45.1230   28.6130   47.7830 C   0  0  0  0  0  0  0  0  0  0  0  0
   43.6539   36.2336   45.1310 H   0  0  0  0  0  0  0  0  0  0  0  0
   44.3726   36.4834   42.7113 H   0  0  0  0  0  0  0  0  0  0  0  0
   46.3010   35.0375   41.9211 H   0  0  0  0  0  0  0  0  0  0  0  0
   44.6118   33.3475   48.8509 H   0  0  0  0  0  0  0  0  0  0  0  0
   45.8779   30.3380   48.8354 H   0  0  0  0  0  0  0  0  0  0  0  0
   44.1019   30.3692   48.4832 H   0  0  0  0  0  0  0  0  0  0  0  0
   45.1325   28.0441   48.7244 H   0  0  0  0  0  0  0  0  0  0  0  0
   44.2292   28.3439   47.2010 H   0  0  0  0  0  0  0  0  0  0  0  0
   46.0253   28.3739   47.2010 H   0  0  0  0  0  0  0  0  0  0  0  0
  1  6  2  0
  2  1  1  0
  3  2  2  0
  3  4  1  0
  4  5  2  0
  5  6  1  0
  5  7  1  0
  7  9  1  0
  9 10  1  0
  9  8  2  0
 11  9  1  0
 11 12  1  0
 13 12  1  0
  1 14  1  0
  2 15  1  0
  3 16  1  0
 10 17  1  0
 12 18  1  0
 12 19  1  0
 13 20  1  0
 13 21  1  0
 13 22  1  0
M  ISO  8  14  14  15  14  16  14  17   3  18   8  19   8  20   8  21   8
M  ISO  1  22   8
M  END
>  <minimizedAffinity>  (1) 
-4.2024765

>  <minimizedRMSD>  (1) 
0.390583277

$$$$
