
     RDKit          3D

 43 46  0  0  1  0  0  0  0  0999 V2000
   47.0850   34.0470   42.4920 C   0  0  2  0  0  0  0  0  0  0  0  0
   48.4940   34.4870   42.6760 C   0  0  0  0  0  0  0  0  0  0  0  0
   48.9270   35.5140   41.6930 C   0  0  0  0  0  0  0  0  0  0  0  0
   48.7190   35.0720   40.2650 C   0  0  0  0  0  0  0  0  0  0  0  0
   47.4100   34.3600   40.0370 C   0  0  0  0  0  0  0  0  0  0  0  0
   46.4660   34.4840   41.2030 C   0  0  1  0  0  0  0  0  0  0  0  0
   46.2080   34.4630   43.6030 C   0  0  0  0  0  0  0  0  0  0  0  0
   45.5290   35.6650   43.3960 C   0  0  0  0  0  0  0  0  0  0  0  0
   44.6630   36.1650   44.3800 C   0  0  0  0  0  0  0  0  0  0  0  0
   44.5470   35.3900   45.5280 N   0  0  0  0  0  0  0  0  0  0  0  0
   45.2210   34.2310   45.6930 C   0  0  0  0  0  0  0  0  0  0  0  0
   46.0490   33.7750   44.7260 N   0  0  0  0  0  0  0  0  0  0  0  0
   45.2860   33.5860   40.9250 C   0  0  2  0  0  0  0  0  0  0  0  0
   44.8660   33.3950   39.4810 C   0  0  0  0  0  0  0  0  0  0  0  0
   44.0040   34.1100   40.4590 C   0  0  1  0  0  0  0  0  0  0  0  0
   43.6070   31.8050   42.5040 Cl  0  0  0  0  0  0  0  0  0  0  0  0
   42.3140   32.4870   41.5440 C   0  0  0  0  0  0  0  0  0  0  0  0
   42.6960   33.4920   40.6820 C   0  0  0  0  0  0  0  0  0  0  0  0
   41.6420   34.0040   39.9150 C   0  0  0  0  0  0  0  0  0  0  0  0
   40.3500   33.5600   40.0000 C   0  0  0  0  0  0  0  0  0  0  0  0
   40.0200   32.5500   40.8790 C   0  0  0  0  0  0  0  0  0  0  0  0
   38.4360   31.8510   41.1320 Cl  0  0  0  0  0  0  0  0  0  0  0  0
   41.0240   32.0150   41.6560 C   0  0  0  0  0  0  0  0  0  0  0  0
   47.1622   32.9499   42.4735 H   0  0  0  0  0  0  0  0  0  0  0  0
   48.5985   34.9070   43.6873 H   0  0  0  0  0  0  0  0  0  0  0  0
   49.1316   33.6037   42.5235 H   0  0  0  0  0  0  0  0  0  0  0  0
   48.3482   36.4334   41.8655 H   0  0  0  0  0  0  0  0  0  0  0  0
   50.0046   35.6811   41.8373 H   0  0  0  0  0  0  0  0  0  0  0  0
   48.7482   35.9613   39.6182 H   0  0  0  0  0  0  0  0  0  0  0  0
   49.5203   34.3561   40.0295 H   0  0  0  0  0  0  0  0  0  0  0  0
   46.9270   34.7895   39.1469 H   0  0  0  0  0  0  0  0  0  0  0  0
   47.6337   33.2911   39.9051 H   0  0  0  0  0  0  0  0  0  0  0  0
   46.1836   35.5419   41.3085 H   0  0  0  0  0  0  0  0  0  0  0  0
   45.6734   36.2219   42.4584 H   0  0  0  0  0  0  0  0  0  0  0  0
   44.1120   37.1083   44.2515 H   0  0  0  0  0  0  0  0  0  0  0  0
   45.0954   33.6538   46.6209 H   0  0  0  0  0  0  0  0  0  0  0  0
   45.5751   32.9430   41.7694 H   0  0  0  0  0  0  0  0  0  0  0  0
   44.5797   32.3985   39.1136 H   0  0  0  0  0  0  0  0  0  0  0  0
   45.3001   33.6256   38.4969 H   0  0  0  0  0  0  0  0  0  0  0  0
   43.5595   35.1054   40.6061 H   0  0  0  0  0  0  0  0  0  0  0  0
   41.8657   34.8110   39.2018 H   0  0  0  0  0  0  0  0  0  0  0  0
   39.5726   34.0102   39.3652 H   0  0  0  0  0  0  0  0  0  0  0  0
   40.7953   31.2084   42.3681 H   0  0  0  0  0  0  0  0  0  0  0  0
  1  2  1  0
  1  7  1  0
  3  2  1  0
  4  3  1  0
  5  4  1  0
  5  6  1  0
  6  1  1  0
  7 12  1  0
  8  7  2  0
  8  9  1  0
  9 10  2  0
 10 11  1  0
 12 11  2  0
 13  6  1  0
 14 15  1  0
 14 13  1  0
 15 18  1  0
 15 13  1  0
 17 23  2  0
 17 16  1  0
 18 17  1  0
 19 20  1  0
 19 18  2  0
 20 21  2  0
 21 22  1  0
 21 23  1  0
  1 24  1  6
  2 25  1  0
  2 26  1  0
  3 27  1  0
  3 28  1  0
  4 29  1  0
  4 30  1  0
  5 31  1  0
  5 32  1  0
  6 33  1  1
  8 34  1  0
  9 35  1  0
 11 36  1  0
 13 37  1  1
 14 38  1  0
 14 39  1  0
 15 40  1  6
 19 41  1  0
 20 42  1  0
 23 43  1  0
M  ISO  8  24  13  25  13  26  13  27  13  28  13  29  13  30  13  31  13
M  ISO  8  32  13  33  13  34  14  35  14  36  14  37  13  38  13  39  13
M  ISO  4  40  13  41  14  42  14  43  14
M  END
>  <minimizedAffinity>  (1) 
-6.65824842

>  <minimizedRMSD>  (1) 
1.61964655

$$$$
