
     RDKit          3D

 19 19  0  0  0  0  0  0  0  0999 V2000
   44.5180   35.6210   44.7930 C   0  0  0  0  0  0  0  0  0  0  0  0
   44.9160   35.8300   43.4480 C   0  0  0  0  0  0  0  0  0  0  0  0
   45.9740   35.0160   42.9830 C   0  0  0  0  0  0  0  0  0  0  0  0
   46.5300   34.1050   43.8400 N   0  0  0  0  0  0  0  0  0  0  0  0
   46.1000   33.9630   45.1030 C   0  0  0  0  0  0  0  0  0  0  0  0
   45.1040   34.7120   45.5770 N   0  0  0  0  0  0  0  0  0  0  0  0
   46.6570   33.0460   45.9760 O   0  0  0  0  0  0  0  0  0  0  0  0
   46.9840   32.2960   48.4410 O   0  0  0  0  0  0  0  0  0  0  0  0
   45.9150   32.4020   47.3530 P   0  0  1  0  0  0  0  0  0  0  0  0
   44.6220   33.3560   47.8510 O   0  0  0  0  0  0  0  0  0  0  0  0
   45.3390   30.8400   47.0860 O   0  0  0  0  0  0  0  0  0  0  0  0
   45.1190   30.2420   48.3060 C   0  0  0  0  0  0  0  0  0  0  0  0
   43.6985   36.2283   45.2048 H   0  0  0  0  0  0  0  0  0  0  0  0
   44.4310   36.5798   42.8057 H   0  0  0  0  0  0  0  0  0  0  0  0
   46.3436   35.1129   41.9515 H   0  0  0  0  0  0  0  0  0  0  0  0
   44.5907   33.3791   48.8402 H   0  0  0  0  0  0  0  0  0  0  0  0
   45.3778   30.9454   49.1111 H   0  0  0  0  0  0  0  0  0  0  0  0
   44.0588   29.9614   48.3910 H   0  0  0  0  0  0  0  0  0  0  0  0
   45.7446   29.3412   48.3910 H   0  0  0  0  0  0  0  0  0  0  0  0
  1  6  2  0
  2  1  1  0
  3  2  2  0
  3  4  1  0
  4  5  2  0
  5  6  1  0
  5  7  1  0
  7  9  1  0
  9 10  1  0
  9  8  2  0
 11  9  1  0
 11 12  1  0
  1 13  1  0
  2 14  1  0
  3 15  1  0
 10 16  1  0
 12 17  1  0
 12 18  1  0
 12 19  1  0
M  ISO  7  13  14  14  14  15  14  16   3  17   8  18   8  19   8
M  END
>  <minimizedAffinity>  (1) 
-4.21853209

>  <minimizedRMSD>  (1) 
0.216727898

$$$$
