
     RDKit          3D

 43 46  0  0  1  0  0  0  0  0999 V2000
   46.9720   34.0080   42.5490 C   0  0  2  0  0  0  0  0  0  0  0  0
   48.3980   34.3940   42.7070 C   0  0  0  0  0  0  0  0  0  0  0  0
   48.8490   35.3950   41.7080 C   0  0  0  0  0  0  0  0  0  0  0  0
   48.5770   35.0110   40.2840 C   0  0  0  0  0  0  0  0  0  0  0  0
   47.2640   34.2900   40.0910 C   0  0  0  0  0  0  0  0  0  0  0  0
   46.3390   34.4590   41.2660 C   0  0  1  0  0  0  0  0  0  0  0  0
   46.1340   34.4500   43.6830 C   0  0  0  0  0  0  0  0  0  0  0  0
   45.4710   35.6600   43.4700 C   0  0  0  0  0  0  0  0  0  0  0  0
   44.6360   36.1860   44.4670 C   0  0  0  0  0  0  0  0  0  0  0  0
   44.5350   35.4300   45.6280 N   0  0  0  0  0  0  0  0  0  0  0  0
   45.1930   34.2660   45.7970 C   0  0  0  0  0  0  0  0  0  0  0  0
   45.9890   33.7860   44.8170 N   0  0  0  0  0  0  0  0  0  0  0  0
   45.1390   33.5730   41.0260 C   0  0  2  0  0  0  0  0  0  0  0  0
   44.6610   33.4120   39.5980 C   0  0  0  0  0  0  0  0  0  0  0  0
   43.8460   34.1420   40.5970 C   0  0  1  0  0  0  0  0  0  0  0  0
   42.5890   33.5510   40.9110 N   0  0  0  0  0  0  0  0  0  0  0  0
   42.5040   32.2230   40.6010 C   0  0  0  0  0  0  0  0  0  0  0  0
   41.3250   31.5420   40.8630 C   0  0  0  0  0  0  0  0  0  0  0  0
   40.2140   32.1680   41.4370 C   0  0  0  0  0  0  0  0  0  0  0  0
   39.1640   31.5130   41.6570 O   0  0  0  0  0  0  0  0  0  0  0  0
   40.3670   33.4670   41.7150 N   0  0  0  0  0  0  0  0  0  0  0  0
   41.5170   34.1090   41.4530 C   0  0  0  0  0  0  0  0  0  0  0  0
   41.6200   35.3250   41.7280 O   0  0  0  0  0  0  0  0  0  0  0  0
   47.0095   32.9089   42.5254 H   0  0  0  0  0  0  0  0  0  0  0  0
   48.5357   34.8178   43.7127 H   0  0  0  0  0  0  0  0  0  0  0  0
   49.0003   33.4864   42.5539 H   0  0  0  0  0  0  0  0  0  0  0  0
   48.3323   36.3440   41.9137 H   0  0  0  0  0  0  0  0  0  0  0  0
   49.9415   35.4724   41.8104 H   0  0  0  0  0  0  0  0  0  0  0  0
   48.5639   35.9261   39.6738 H   0  0  0  0  0  0  0  0  0  0  0  0
   49.3737   34.3160   39.9802 H   0  0  0  0  0  0  0  0  0  0  0  0
   46.7705   34.6891   39.1926 H   0  0  0  0  0  0  0  0  0  0  0  0
   47.4825   33.2169   39.9876 H   0  0  0  0  0  0  0  0  0  0  0  0
   46.0806   35.5244   41.3559 H   0  0  0  0  0  0  0  0  0  0  0  0
   45.6033   36.2005   42.5211 H   0  0  0  0  0  0  0  0  0  0  0  0
   44.0962   37.1357   44.3378 H   0  0  0  0  0  0  0  0  0  0  0  0
   45.0814   33.7048   46.7365 H   0  0  0  0  0  0  0  0  0  0  0  0
   45.4433   32.9099   41.8493 H   0  0  0  0  0  0  0  0  0  0  0  0
   44.3350   32.4272   39.2320 H   0  0  0  0  0  0  0  0  0  0  0  0
   45.0719   33.6413   38.6037 H   0  0  0  0  0  0  0  0  0  0  0  0
   43.4228   35.1494   40.7241 H   0  0  0  0  0  0  0  0  0  0  0  0
   43.3602   31.7007   40.1492 H   0  0  0  0  0  0  0  0  0  0  0  0
   41.2614   30.4732   40.6108 H   0  0  0  0  0  0  0  0  0  0  0  0
   39.5855   33.9866   42.1395 H   0  0  0  0  0  0  0  0  0  0  0  0
  1  2  1  0
  1  7  1  0
  3  2  1  0
  4  3  1  0
  5  4  1  0
  5  6  1  0
  6  1  1  0
  7 12  1  0
  8  7  2  0
  8  9  1  0
  9 10  2  0
 10 11  1  0
 12 11  2  0
 13  6  1  0
 14 15  1  0
 14 13  1  0
 15 16  1  0
 15 13  1  0
 16 22  1  0
 17 18  2  0
 17 16  1  0
 18 19  1  0
 19 20  2  0
 19 21  1  0
 22 21  1  0
 22 23  2  0
  1 24  1  6
  2 25  1  0
  2 26  1  0
  3 27  1  0
  3 28  1  0
  4 29  1  0
  4 30  1  0
  5 31  1  0
  5 32  1  0
  6 33  1  1
  8 34  1  0
  9 35  1  0
 11 36  1  0
 13 37  1  1
 14 38  1  0
 14 39  1  0
 15 40  1  6
 17 41  1  0
 18 42  1  0
 21 43  1  0
M  ISO  8  24  13  25  13  26  13  27  13  28  13  29  13  30  13  31  13
M  ISO  8  32  13  33  13  34  14  35  14  36  14  37  13  38  13  39  13
M  ISO  4  40  13  41  14  42  14  43   9
M  END
>  <minimizedAffinity>  (1) 
-6.58939457

>  <minimizedRMSD>  (1) 
1.40686214

$$$$
