
     RDKit          3D

 29 30  0  0  0  0  0  0  0  0999 V2000
   47.2550   32.7640   47.6270 O   0  0  0  0  0  0  0  0  0  0  0  0
   45.8470   32.4560   47.1000 P   0  0  1  0  0  0  0  0  0  0  0  0
   44.6950   33.4390   47.8030 O   0  0  0  0  0  0  0  0  0  0  0  0
   45.8930   32.6380   45.4110 O   0  0  0  0  0  0  0  0  0  0  0  0
   44.6190   35.8770   44.7250 C   0  0  0  0  0  0  0  0  0  0  0  0
   45.1240   36.2140   43.4470 C   0  0  0  0  0  0  0  0  0  0  0  0
   45.9400   35.2270   42.8470 C   0  0  0  0  0  0  0  0  0  0  0  0
   46.1740   34.0530   43.5240 N   0  0  0  0  0  0  0  0  0  0  0  0
   45.6560   33.8190   44.7290 C   0  0  0  0  0  0  0  0  0  0  0  0
   44.8860   34.7220   45.3210 N   0  0  0  0  0  0  0  0  0  0  0  0
   45.5070   30.8590   47.5350 O   0  0  0  0  0  0  0  0  0  0  0  0
   45.4650   30.1050   46.3750 C   0  0  0  0  0  0  0  0  0  0  0  0
   44.8550   28.8290   46.7180 N   0  0  0  0  0  0  0  0  0  0  0  0
   45.2110   28.1790   47.8570 C   0  0  0  0  0  0  0  0  0  0  0  0
   44.6060   26.9550   48.1550 C   0  0  0  0  0  0  0  0  0  0  0  0
   43.6690   26.4530   47.2770 C   0  0  0  0  0  0  0  0  0  0  0  0
   43.1690   25.3500   47.6110 O   0  0  0  0  0  0  0  0  0  0  0  0
   43.3140   27.0850   46.1550 N   0  0  0  0  0  0  0  0  0  0  0  0
   43.9300   28.2450   45.9360 C   0  0  0  0  0  0  0  0  0  0  0  0
   43.6410   28.9060   44.8810 O   0  0  0  0  0  0  0  0  0  0  0  0
   44.7663   33.3782   48.7886 H   0  0  0  0  0  0  0  0  0  0  0  0
   43.9780   36.6031   45.2464 H   0  0  0  0  0  0  0  0  0  0  0  0
   44.8987   37.1725   42.9565 H   0  0  0  0  0  0  0  0  0  0  0  0
   46.3810   35.3958   41.8535 H   0  0  0  0  0  0  0  0  0  0  0  0
   46.4834   29.9456   45.9911 H   0  0  0  0  0  0  0  0  0  0  0  0
   44.8860   30.6192   45.5937 H   0  0  0  0  0  0  0  0  0  0  0  0
   45.9636   28.6095   48.5339 H   0  0  0  0  0  0  0  0  0  0  0  0
   44.8714   26.4044   49.0696 H   0  0  0  0  0  0  0  0  0  0  0  0
   42.6130   26.7019   45.5049 H   0  0  0  0  0  0  0  0  0  0  0  0
  2 11  1  0
  2  1  2  0
  2  3  1  0
  4  2  1  0
  5 10  2  0
  6  5  1  0
  7  6  2  0
  7  8  1  0
  8  9  2  0
  9 10  1  0
  9  4  1  0
 12 13  1  0
 12 11  1  0
 13 14  1  0
 14 15  2  0
 16 17  2  0
 16 15  1  0
 18 16  1  0
 19 18  1  0
 19 13  1  0
 20 19  2  0
  3 21  1  0
  5 22  1  0
  6 23  1  0
  7 24  1  0
 12 25  1  0
 12 26  1  0
 14 27  1  0
 15 28  1  0
 18 29  1  0
M  ISO  8  21   3  22  14  23  14  24  14  25   8  26   8  27  14  28  14
M  ISO  1  29   9
M  END
>  <minimizedAffinity>  (1) 
-5.06707573

>  <minimizedRMSD>  (1) 
0.859680474

$$$$
