
     RDKit          3D

 29 30  0  0  0  0  0  0  0  0999 V2000
   47.0210   32.3690   48.4840 O   0  0  0  0  0  0  0  0  0  0  0  0
   45.9020   31.8480   47.5660 P   0  0  1  0  0  0  0  0  0  0  0  0
   44.3990   32.4330   48.0100 O   0  0  0  0  0  0  0  0  0  0  0  0
   46.3200   32.3220   45.9850 O   0  0  0  0  0  0  0  0  0  0  0  0
   44.6000   35.3930   45.4870 C   0  0  0  0  0  0  0  0  0  0  0  0
   44.9110   35.7530   44.1610 C   0  0  0  0  0  0  0  0  0  0  0  0
   45.7490   34.8770   43.4430 C   0  0  0  0  0  0  0  0  0  0  0  0
   46.1990   33.7490   44.0760 N   0  0  0  0  0  0  0  0  0  0  0  0
   45.8640   33.4610   45.3510 C   0  0  0  0  0  0  0  0  0  0  0  0
   45.0680   34.2800   46.0510 N   0  0  0  0  0  0  0  0  0  0  0  0
   45.8970   30.1610   47.7280 O   0  0  0  0  0  0  0  0  0  0  0  0
   45.2700   29.6450   46.6100 C   0  0  0  0  0  0  0  0  0  0  0  0
   43.2120   28.6720   44.6100 Cl  0  0  0  0  0  0  0  0  0  0  0  0
   43.7070   27.8550   46.0820 C   0  0  0  0  0  0  0  0  0  0  0  0
   44.6640   28.3410   46.9820 C   0  0  0  0  0  0  0  0  0  0  0  0
   44.9690   27.6070   48.1080 C   0  0  0  0  0  0  0  0  0  0  0  0
   44.3600   26.4000   48.3810 C   0  0  0  0  0  0  0  0  0  0  0  0
   43.4000   25.8700   47.5210 C   0  0  0  0  0  0  0  0  0  0  0  0
   43.1310   26.6440   46.4090 C   0  0  0  0  0  0  0  0  0  0  0  0
   44.3334   32.4585   48.9975 H   0  0  0  0  0  0  0  0  0  0  0  0
   43.9481   36.0537   46.0774 H   0  0  0  0  0  0  0  0  0  0  0  0
   44.5180   36.6748   43.7074 H   0  0  0  0  0  0  0  0  0  0  0  0
   46.0339   35.0931   42.4028 H   0  0  0  0  0  0  0  0  0  0  0  0
   46.0048   29.4986   45.8046 H   0  0  0  0  0  0  0  0  0  0  0  0
   44.4938   30.3384   46.2540 H   0  0  0  0  0  0  0  0  0  0  0  0
   45.7211   27.9957   48.8104 H   0  0  0  0  0  0  0  0  0  0  0  0
   44.6362   25.8474   49.2912 H   0  0  0  0  0  0  0  0  0  0  0  0
   42.8963   24.9111   47.7126 H   0  0  0  0  0  0  0  0  0  0  0  0
   42.3773   26.2536   45.7094 H   0  0  0  0  0  0  0  0  0  0  0  0
  2 11  1  0
  2  3  1  0
  2  1  2  0
  4  2  1  0
  5 10  2  0
  6  5  1  0
  7  8  1  0
  7  6  2  0
  8  9  2  0
  9  4  1  0
  9 10  1  0
 12 15  1  0
 12 11  1  0
 13 14  1  0
 14 19  2  0
 14 15  1  0
 15 16  2  0
 16 17  1  0
 18 17  2  0
 19 18  1  0
  3 20  1  0
  5 21  1  0
  6 22  1  0
  7 23  1  0
 12 24  1  0
 12 25  1  0
 16 26  1  0
 17 27  1  0
 18 28  1  0
 19 29  1  0
M  ISO  8  20   3  21  14  22  14  23  14  24   8  25   8  26  14  27  14
M  ISO  2  28  14  29  14
M  END
>  <minimizedAffinity>  (1) 
-4.9686017

>  <minimizedRMSD>  (1) 
0.933072865

$$$$
