
     RDKit          3D

 29 30  0  0  0  0  0  0  0  0999 V2000
   47.0000   31.9900   48.2910 O   0  0  0  0  0  0  0  0  0  0  0  0
   45.9540   32.3180   47.2200 P   0  0  1  0  0  0  0  0  0  0  0  0
   44.6950   33.2390   47.8730 O   0  0  0  0  0  0  0  0  0  0  0  0
   46.7360   33.1450   45.9710 O   0  0  0  0  0  0  0  0  0  0  0  0
   44.4860   35.6210   44.7590 C   0  0  0  0  0  0  0  0  0  0  0  0
   44.8860   35.8150   43.4080 C   0  0  0  0  0  0  0  0  0  0  0  0
   45.9670   35.0450   42.9520 C   0  0  0  0  0  0  0  0  0  0  0  0
   46.5610   34.1660   43.8310 N   0  0  0  0  0  0  0  0  0  0  0  0
   46.1330   34.0330   45.0920 C   0  0  0  0  0  0  0  0  0  0  0  0
   45.1150   34.7500   45.5400 N   0  0  0  0  0  0  0  0  0  0  0  0
   45.3140   30.8480   46.7010 O   0  0  0  0  0  0  0  0  0  0  0  0
   45.7020   29.8760   47.5870 C   0  0  0  0  0  0  0  0  0  0  0  0
   44.9090   28.6490   47.3160 C   0  0  0  0  0  0  0  0  0  0  0  0
   44.0940   28.6780   46.1850 C   0  0  0  0  0  0  0  0  0  0  0  0
   43.3350   27.5670   45.8830 C   0  0  0  0  0  0  0  0  0  0  0  0
   43.3290   26.4000   46.6480 C   0  0  0  0  0  0  0  0  0  0  0  0
   44.1630   26.4590   47.7480 C   0  0  0  0  0  0  0  0  0  0  0  0
   44.9450   27.5210   48.1110 C   0  0  0  0  0  0  0  0  0  0  0  0
   44.7402   33.2059   48.8614 H   0  0  0  0  0  0  0  0  0  0  0  0
   43.6432   36.2009   45.1631 H   0  0  0  0  0  0  0  0  0  0  0  0
   44.3729   36.5338   42.7523 H   0  0  0  0  0  0  0  0  0  0  0  0
   46.3310   35.1409   41.9184 H   0  0  0  0  0  0  0  0  0  0  0  0
   46.7732   29.6619   47.4576 H   0  0  0  0  0  0  0  0  0  0  0  0
   45.5306   30.2159   48.6190 H   0  0  0  0  0  0  0  0  0  0  0  0
   44.0571   29.5717   45.5447 H   0  0  0  0  0  0  0  0  0  0  0  0
   42.6975   27.6028   44.9873 H   0  0  0  0  0  0  0  0  0  0  0  0
   42.7195   25.5187   46.3994 H   0  0  0  0  0  0  0  0  0  0  0  0
   44.2018   25.5683   48.3923 H   0  0  0  0  0  0  0  0  0  0  0  0
   45.5816   27.4776   49.0070 H   0  0  0  0  0  0  0  0  0  0  0  0
  2  3  1  0
  2  1  2  0
  4  2  1  0
  5 10  2  0
  6  5  1  0
  7  6  2  0
  7  8  1  0
  8  9  2  0
  9 10  1  0
  9  4  1  0
 11  2  1  0
 11 12  1  0
 13 12  1  0
 13 18  1  0
 14 13  2  0
 15 14  1  0
 15 16  2  0
 16 17  1  0
 17 18  2  0
  3 19  1  0
  5 20  1  0
  6 21  1  0
  7 22  1  0
 12 23  1  0
 12 24  1  0
 14 25  1  0
 15 26  1  0
 16 27  1  0
 17 28  1  0
 18 29  1  0
M  ISO  8  19   3  20  14  21  14  22  14  23   8  24   8  25  14  26  14
M  ISO  3  27  14  28  14  29  14
M  END
>  <minimizedAffinity>  (1) 
-4.94404936

>  <minimizedRMSD>  (1) 
0.646402359

$$$$
