
     RDKit          3D

 20 20  0  0  0  0  0  0  0  0999 V2000
   46.7020   33.1550   46.0170 O   0  0  0  0  0  0  0  0  0  0  0  0
   44.4980   35.6170   44.7480 C   0  0  0  0  0  0  0  0  0  0  0  0
   44.8700   35.8020   43.4020 C   0  0  0  0  0  0  0  0  0  0  0  0
   45.9570   34.9970   42.9600 C   0  0  0  0  0  0  0  0  0  0  0  0
   46.5390   34.1310   43.8600 N   0  0  0  0  0  0  0  0  0  0  0  0
   46.1170   34.0230   45.1190 C   0  0  0  0  0  0  0  0  0  0  0  0
   45.1080   34.7600   45.5550 N   0  0  0  0  0  0  0  0  0  0  0  0
   46.9660   32.1830   48.4180 O   0  0  0  0  0  0  0  0  0  0  0  0
   45.9280   32.4040   47.3180 P   0  0  1  0  0  0  0  0  0  0  0  0
   44.6230   33.3150   47.8720 O   0  0  0  0  0  0  0  0  0  0  0  0
   45.3350   30.8750   46.8870 O   0  0  0  0  0  0  0  0  0  0  0  0
   45.1700   30.1430   48.0490 C   0  0  0  0  0  0  0  0  0  0  0  0
   45.1680   28.3510   47.6840 S   0  0  0  0  0  0  0  0  0  0  0  0
   43.6630   36.2109   45.1479 H   0  0  0  0  0  0  0  0  0  0  0  0
   44.3577   36.5165   42.7409 H   0  0  0  0  0  0  0  0  0  0  0  0
   46.3237   35.0644   41.9251 H   0  0  0  0  0  0  0  0  0  0  0  0
   44.6191   33.3178   48.8620 H   0  0  0  0  0  0  0  0  0  0  0  0
   45.9950   30.3705   48.7401 H   0  0  0  0  0  0  0  0  0  0  0  0
   44.2065   30.4136   48.5055 H   0  0  0  0  0  0  0  0  0  0  0  0
   45.1672   27.6457   48.8585 H   0  0  0  0  0  0  0  0  0  0  0  0
  1  9  1  0
  2  7  2  0
  3  2  1  0
  4  3  2  0
  4  5  1  0
  5  6  2  0
  6  7  1  0
  6  1  1  0
  9 10  1  0
  9  8  2  0
 11  9  1  0
 11 12  1  0
 13 12  1  0
  2 14  1  0
  3 15  1  0
  4 16  1  0
 10 17  1  0
 12 18  1  0
 12 19  1  0
 13 20  1  0
M  ISO  7  14  14  15  14  16  14  17   3  18   8  19   8  20  11
M  END
>  <minimizedAffinity>  (1) 
-4.09666014

>  <minimizedRMSD>  (1) 
0.258193702

$$$$
