
     RDKit          3D

 29 31  0  0  0  0  0  0  0  0999 V2000
   46.5770   34.7550   42.1450 C   0  0  0  0  0  0  0  0  0  0  0  0
   47.9100   35.0710   42.0820 C   0  0  0  0  0  0  0  0  0  0  0  0
   48.6870   34.8800   40.9410 C   0  0  0  0  0  0  0  0  0  0  0  0
   48.1020   34.3480   39.8110 C   0  0  0  0  0  0  0  0  0  0  0  0
   46.7720   34.0340   39.8780 C   0  0  0  0  0  0  0  0  0  0  0  0
   46.0230   34.2300   41.0090 C   0  0  0  0  0  0  0  0  0  0  0  0
   44.4170   36.2420   44.8380 C   0  0  0  0  0  0  0  0  0  0  0  0
   45.0620   36.1140   43.5980 C   0  0  0  0  0  0  0  0  0  0  0  0
   45.8710   34.9930   43.3710 C   0  0  0  0  0  0  0  0  0  0  0  0
   45.9870   34.0900   44.3630 N   0  0  0  0  0  0  0  0  0  0  0  0
   45.3470   34.2480   45.5490 C   0  0  0  0  0  0  0  0  0  0  0  0
   44.5670   35.3250   45.7770 N   0  0  0  0  0  0  0  0  0  0  0  0
   45.4910   33.2680   46.5850 N   0  0  0  0  0  0  0  0  0  0  0  0
   44.6050   33.8700   41.0120 C   0  0  0  0  0  0  0  0  0  0  0  0
   43.5230   34.5150   40.5500 C   0  0  0  0  0  0  0  0  0  0  0  0
   42.2970   33.9100   40.7000 C   0  0  0  0  0  0  0  0  0  0  0  0
   42.2280   32.7060   41.2980 C   0  0  0  0  0  0  0  0  0  0  0  0
   43.9480   32.2910   41.7250 S   0  0  0  0  0  0  0  0  0  0  0  0
   48.3895   35.4961   42.9761 H   0  0  0  0  0  0  0  0  0  0  0  0
   49.7533   35.1501   40.9416 H   0  0  0  0  0  0  0  0  0  0  0  0
   48.6823   34.1825   38.8913 H   0  0  0  0  0  0  0  0  0  0  0  0
   46.2845   33.6074   38.9890 H   0  0  0  0  0  0  0  0  0  0  0  0
   43.7786   37.1169   45.0303 H   0  0  0  0  0  0  0  0  0  0  0  0
   44.9346   36.8798   42.8187 H   0  0  0  0  0  0  0  0  0  0  0  0
   45.0030   33.3928   47.4834 H   0  0  0  0  0  0  0  0  0  0  0  0
   46.0825   32.4390   46.4311 H   0  0  0  0  0  0  0  0  0  0  0  0
   43.6138   35.4984   40.0657 H   0  0  0  0  0  0  0  0  0  0  0  0
   41.3841   34.4039   40.3358 H   0  0  0  0  0  0  0  0  0  0  0  0
   41.3274   32.1035   41.4875 H   0  0  0  0  0  0  0  0  0  0  0  0
  1  9  1  0
  2  1  2  0
  3  2  1  0
  4  5  1  0
  4  3  2  0
  5  6  2  0
  6 14  1  0
  6  1  1  0
  7 12  2  0
  8  7  1  0
  9  8  2  0
  9 10  1  0
 10 11  2  0
 11 12  1  0
 11 13  1  0
 14 18  1  0
 15 16  1  0
 15 14  2  0
 16 17  2  0
 17 18  1  0
  2 19  1  0
  3 20  1  0
  4 21  1  0
  5 22  1  0
  7 23  1  0
  8 24  1  0
 13 25  1  0
 13 26  1  0
 15 27  1  0
 16 28  1  0
 17 29  1  0
M  ISO  8  19  14  20  14  21  14  22  14  23  14  24  14  27  14  28  14
M  ISO  1  29  14
M  END
>  <minimizedAffinity>  (1) 
-6.01644135

>  <minimizedRMSD>  (1) 
0.718614936

$$$$
