
     RDKit          3D

 32 34  0  0  0  0  0  0  0  0999 V2000
   46.4920   34.7440   42.1420 C   0  0  0  0  0  0  0  0  0  0  0  0
   47.7990   35.1260   42.0220 C   0  0  0  0  0  0  0  0  0  0  0  0
   48.5660   34.9430   40.8750 C   0  0  0  0  0  0  0  0  0  0  0  0
   47.9660   34.3300   39.7760 C   0  0  0  0  0  0  0  0  0  0  0  0
   46.6500   33.9480   39.9040 C   0  0  0  0  0  0  0  0  0  0  0  0
   45.9260   34.1460   41.0510 C   0  0  0  0  0  0  0  0  0  0  0  0
   44.4140   36.2330   44.9000 C   0  0  0  0  0  0  0  0  0  0  0  0
   45.0280   36.1070   43.6350 C   0  0  0  0  0  0  0  0  0  0  0  0
   45.8140   34.9890   43.3790 C   0  0  0  0  0  0  0  0  0  0  0  0
   45.9500   34.0660   44.3750 N   0  0  0  0  0  0  0  0  0  0  0  0
   45.3390   34.2300   45.5800 C   0  0  0  0  0  0  0  0  0  0  0  0
   44.5760   35.3130   45.8280 N   0  0  0  0  0  0  0  0  0  0  0  0
   45.4880   33.2540   46.6090 N   0  0  0  0  0  0  0  0  0  0  0  0
   44.5370   33.7080   41.0790 C   0  0  0  0  0  0  0  0  0  0  0  0
   43.9140   32.5920   41.5940 C   0  0  0  0  0  0  0  0  0  0  0  0
   42.5490   32.4450   41.4700 C   0  0  0  0  0  0  0  0  0  0  0  0
   41.7640   33.3850   40.8410 C   0  0  0  0  0  0  0  0  0  0  0  0
   42.3770   34.5210   40.3130 C   0  0  0  0  0  0  0  0  0  0  0  0
   43.7440   34.6690   40.4360 C   0  0  0  0  0  0  0  0  0  0  0  0
   48.2754   35.6092   42.8878 H   0  0  0  0  0  0  0  0  0  0  0  0
   49.6148   35.2724   40.8368 H   0  0  0  0  0  0  0  0  0  0  0  0
   48.5227   34.1583   38.8429 H   0  0  0  0  0  0  0  0  0  0  0  0
   46.1576   33.4626   39.0485 H   0  0  0  0  0  0  0  0  0  0  0  0
   43.7904   37.1136   45.1138 H   0  0  0  0  0  0  0  0  0  0  0  0
   44.8870   36.8800   42.8652 H   0  0  0  0  0  0  0  0  0  0  0  0
   45.0212   33.3879   47.5173 H   0  0  0  0  0  0  0  0  0  0  0  0
   46.0624   32.4151   46.4439 H   0  0  0  0  0  0  0  0  0  0  0  0
   44.5062   31.8181   42.1043 H   0  0  0  0  0  0  0  0  0  0  0  0
   42.0710   31.5466   41.8876 H   0  0  0  0  0  0  0  0  0  0  0  0
   40.6765   33.2431   40.7567 H   0  0  0  0  0  0  0  0  0  0  0  0
   41.7779   35.2905   39.8042 H   0  0  0  0  0  0  0  0  0  0  0  0
   44.2245   35.5658   40.0179 H   0  0  0  0  0  0  0  0  0  0  0  0
  1  9  1  0
  2  1  2  0
  3  2  1  0
  4  5  1  0
  4  3  2  0
  5  6  2  0
  6 14  1  0
  6  1  1  0
  7 12  2  0
  8  7  1  0
  9  8  2  0
  9 10  1  0
 10 11  2  0
 11 12  1  0
 11 13  1  0
 14 15  2  0
 16 15  1  0
 17 16  2  0
 18 19  2  0
 18 17  1  0
 19 14  1  0
  2 20  1  0
  3 21  1  0
  4 22  1  0
  5 23  1  0
  7 24  1  0
  8 25  1  0
 13 26  1  0
 13 27  1  0
 15 28  1  0
 16 29  1  0
 17 30  1  0
 18 31  1  0
 19 32  1  0
M  ISO  8  20  14  21  14  22  14  23  14  24  14  25  14  28  14  29  14
M  ISO  3  30  14  31  14  32  14
M  END
>  <minimizedAffinity>  (1) 
-6.31370592

>  <minimizedRMSD>  (1) 
0.614565372

$$$$
