
     RDKit          3D

 36 38  0  0  0  0  0  0  0  0999 V2000
   46.5590   34.7670   42.0560 C   0  0  0  0  0  0  0  0  0  0  0  0
   47.8680   35.2070   41.9820 C   0  0  0  0  0  0  0  0  0  0  0  0
   48.6650   35.0210   40.8530 C   0  0  0  0  0  0  0  0  0  0  0  0
   48.1180   34.3640   39.7570 C   0  0  0  0  0  0  0  0  0  0  0  0
   46.8220   33.9380   39.8500 C   0  0  0  0  0  0  0  0  0  0  0  0
   46.0350   34.1250   40.9700 C   0  0  0  0  0  0  0  0  0  0  0  0
   44.4040   36.2310   44.7660 C   0  0  0  0  0  0  0  0  0  0  0  0
   45.0490   36.1000   43.5170 C   0  0  0  0  0  0  0  0  0  0  0  0
   45.8540   35.0050   43.2850 C   0  0  0  0  0  0  0  0  0  0  0  0
   45.9900   34.0880   44.2910 N   0  0  0  0  0  0  0  0  0  0  0  0
   45.3510   34.2500   45.4830 C   0  0  0  0  0  0  0  0  0  0  0  0
   44.5660   35.3150   45.7110 N   0  0  0  0  0  0  0  0  0  0  0  0
   45.5290   33.2910   46.5260 N   0  0  0  0  0  0  0  0  0  0  0  0
   44.7080   33.6580   40.9070 N   0  0  0  0  0  0  0  0  0  0  0  0
   43.6930   34.3630   40.1460 C   0  0  0  0  0  0  0  0  0  0  0  0
   42.5510   34.8220   41.0020 C   0  0  0  0  0  0  0  0  0  0  0  0
   42.1130   33.8040   41.9330 N   0  0  0  0  0  0  0  0  0  0  0  0
   42.5850   32.5410   41.4490 C   0  0  0  0  0  0  0  0  0  0  0  0
   44.1050   32.5050   41.5540 C   0  0  0  0  0  0  0  0  0  0  0  0
   48.2989   35.7259   42.8509 H   0  0  0  0  0  0  0  0  0  0  0  0
   49.7025   35.3857   40.8303 H   0  0  0  0  0  0  0  0  0  0  0  0
   48.7083   34.1924   38.8448 H   0  0  0  0  0  0  0  0  0  0  0  0
   46.3821   33.4182   38.9861 H   0  0  0  0  0  0  0  0  0  0  0  0
   43.7602   37.1022   44.9573 H   0  0  0  0  0  0  0  0  0  0  0  0
   44.9108   36.8635   42.7372 H   0  0  0  0  0  0  0  0  0  0  0  0
   45.0454   33.4143   47.4270 H   0  0  0  0  0  0  0  0  0  0  0  0
   46.1410   32.4760   46.3773 H   0  0  0  0  0  0  0  0  0  0  0  0
   44.1542   35.2419   39.6718 H   0  0  0  0  0  0  0  0  0  0  0  0
   43.2907   33.6648   39.3972 H   0  0  0  0  0  0  0  0  0  0  0  0
   42.8704   35.7072   41.5716 H   0  0  0  0  0  0  0  0  0  0  0  0
   41.7059   35.0529   40.3367 H   0  0  0  0  0  0  0  0  0  0  0  0
   42.5048   33.9906   42.8671 H   0  0  0  0  0  0  0  0  0  0  0  0
   42.2849   32.4133   40.3984 H   0  0  0  0  0  0  0  0  0  0  0  0
   42.1520   31.7278   42.0500 H   0  0  0  0  0  0  0  0  0  0  0  0
   44.4756   31.5889   41.0709 H   0  0  0  0  0  0  0  0  0  0  0  0
   44.3792   32.5226   42.6191 H   0  0  0  0  0  0  0  0  0  0  0  0
  1  9  1  0
  2  1  2  0
  3  2  1  0
  4  5  1  0
  4  3  2  0
  5  6  2  0
  6  1  1  0
  7 12  2  0
  8  7  1  0
  9  8  2  0
  9 10  1  0
 10 11  2  0
 11 12  1  0
 11 13  1  0
 14  6  1  0
 14 19  1  0
 15 14  1  0
 15 16  1  0
 16 17  1  0
 18 19  1  0
 18 17  1  0
  2 20  1  0
  3 21  1  0
  4 22  1  0
  5 23  1  0
  7 24  1  0
  8 25  1  0
 13 26  1  0
 13 27  1  0
 15 28  1  0
 15 29  1  0
 16 30  1  0
 16 31  1  0
 17 32  1  0
 18 33  1  0
 18 34  1  0
 19 35  1  0
 19 36  1  0
M  ISO  8  20  14  21  14  22  14  23  14  24  14  25  14  28  13  29  13
M  ISO  7  30  13  31  13  32   5  33  13  34  13  35  13  36  13
M  END
>  <minimizedAffinity>  (1) 
-6.34905577

>  <minimizedRMSD>  (1) 
0.304163784

$$$$
