
     RDKit          3D

 38 40  0  0  0  0  0  0  0  0999 V2000
   46.5720   34.7550   42.0970 C   0  0  0  0  0  0  0  0  0  0  0  0
   47.8760   35.1980   42.0180 C   0  0  0  0  0  0  0  0  0  0  0  0
   48.6420   35.0310   40.8600 C   0  0  0  0  0  0  0  0  0  0  0  0
   48.0810   34.4050   39.7620 C   0  0  0  0  0  0  0  0  0  0  0  0
   46.7860   33.9770   39.8720 C   0  0  0  0  0  0  0  0  0  0  0  0
   46.0010   34.1260   41.0010 C   0  0  0  0  0  0  0  0  0  0  0  0
   44.4190   36.2150   44.8250 C   0  0  0  0  0  0  0  0  0  0  0  0
   45.0550   36.0980   43.5730 C   0  0  0  0  0  0  0  0  0  0  0  0
   45.8680   34.9820   43.3410 C   0  0  0  0  0  0  0  0  0  0  0  0
   46.0070   34.0700   44.3230 N   0  0  0  0  0  0  0  0  0  0  0  0
   45.3690   34.2240   45.5240 C   0  0  0  0  0  0  0  0  0  0  0  0
   44.5810   35.2970   45.7620 N   0  0  0  0  0  0  0  0  0  0  0  0
   45.5160   33.2630   46.5610 N   0  0  0  0  0  0  0  0  0  0  0  0
   44.6000   33.6450   41.1030 C   0  0  0  0  0  0  0  0  0  0  0  0
   44.5860   32.2560   40.5160 C   0  0  0  0  0  0  0  0  0  0  0  0
   43.2190   31.7220   40.2240 C   0  0  0  0  0  0  0  0  0  0  0  0
   42.4750   32.7040   39.3440 C   0  0  0  0  0  0  0  0  0  0  0  0
   42.3990   34.0670   39.9320 C   0  0  0  0  0  0  0  0  0  0  0  0
   43.7030   34.6240   40.4400 C   0  0  0  0  0  0  0  0  0  0  0  0
   48.3255   35.6962   42.8896 H   0  0  0  0  0  0  0  0  0  0  0  0
   49.6798   35.3938   40.8229 H   0  0  0  0  0  0  0  0  0  0  0  0
   48.6543   34.2567   38.8350 H   0  0  0  0  0  0  0  0  0  0  0  0
   46.3371   33.4787   39.0001 H   0  0  0  0  0  0  0  0  0  0  0  0
   43.7768   37.0852   45.0259 H   0  0  0  0  0  0  0  0  0  0  0  0
   44.9161   36.8649   42.7967 H   0  0  0  0  0  0  0  0  0  0  0  0
   45.0283   33.3952   47.4585 H   0  0  0  0  0  0  0  0  0  0  0  0
   46.1102   32.4345   46.4149 H   0  0  0  0  0  0  0  0  0  0  0  0
   44.2239   33.5737   42.1343 H   0  0  0  0  0  0  0  0  0  0  0  0
   45.1564   32.2742   39.5756 H   0  0  0  0  0  0  0  0  0  0  0  0
   45.0277   31.5910   41.2727 H   0  0  0  0  0  0  0  0  0  0  0  0
   43.3051   30.7559   39.7051 H   0  0  0  0  0  0  0  0  0  0  0  0
   42.6692   31.5823   41.1664 H   0  0  0  0  0  0  0  0  0  0  0  0
   41.4517   32.3311   39.1895 H   0  0  0  0  0  0  0  0  0  0  0  0
   43.0295   32.7839   38.3974 H   0  0  0  0  0  0  0  0  0  0  0  0
   42.0165   34.7495   39.1588 H   0  0  0  0  0  0  0  0  0  0  0  0
   41.7423   33.9825   40.8104 H   0  0  0  0  0  0  0  0  0  0  0  0
   44.2441   35.0544   39.5844 H   0  0  0  0  0  0  0  0  0  0  0  0
   43.4367   35.3611   41.2119 H   0  0  0  0  0  0  0  0  0  0  0  0
  1  9  1  0
  2  1  2  0
  3  2  1  0
  4  5  1  0
  4  3  2  0
  5  6  2  0
  6 14  1  0
  6  1  1  0
  7 12  2  0
  8  7  1  0
  9  8  2  0
  9 10  1  0
 10 11  2  0
 11 12  1  0
 11 13  1  0
 15 14  1  0
 16 15  1  0
 17 18  1  0
 17 16  1  0
 18 19  1  0
 19 14  1  0
  2 20  1  0
  3 21  1  0
  4 22  1  0
  5 23  1  0
  7 24  1  0
  8 25  1  0
 13 26  1  0
 13 27  1  0
 14 28  1  0
 15 29  1  0
 15 30  1  0
 16 31  1  0
 16 32  1  0
 17 33  1  0
 17 34  1  0
 18 35  1  0
 18 36  1  0
 19 37  1  0
 19 38  1  0
M  ISO  8  20  14  21  14  22  14  23  14  24  14  25  14  28  13  29  13
M  ISO  8  30  13  31  13  32  13  33  13  34  13  35  13  36  13  37  13
M  ISO  1  38  13
M  END
>  <minimizedAffinity>  (1) 
-6.12787342

>  <minimizedRMSD>  (1) 
0.983970761

$$$$
