
     RDKit          3D

 28 29  0  0  0  0  0  0  0  0999 V2000
   46.6180   34.7700   42.1050 C   0  0  0  0  0  0  0  0  0  0  0  0
   47.8840   35.3020   41.9860 C   0  0  0  0  0  0  0  0  0  0  0  0
   48.6640   35.1520   40.8420 C   0  0  0  0  0  0  0  0  0  0  0  0
   48.1650   34.4440   39.7730 C   0  0  0  0  0  0  0  0  0  0  0  0
   46.9000   33.9170   39.9050 C   0  0  0  0  0  0  0  0  0  0  0  0
   46.1170   34.0600   41.0330 C   0  0  0  0  0  0  0  0  0  0  0  0
   44.4060   36.1960   44.7950 C   0  0  0  0  0  0  0  0  0  0  0  0
   45.0610   36.0840   43.5580 C   0  0  0  0  0  0  0  0  0  0  0  0
   45.8980   34.9860   43.3340 C   0  0  0  0  0  0  0  0  0  0  0  0
   46.0420   34.0770   44.3220 N   0  0  0  0  0  0  0  0  0  0  0  0
   45.3920   34.2170   45.5070 C   0  0  0  0  0  0  0  0  0  0  0  0
   44.5760   35.2760   45.7430 N   0  0  0  0  0  0  0  0  0  0  0  0
   45.5560   33.2430   46.5420 N   0  0  0  0  0  0  0  0  0  0  0  0
   44.7520   33.4820   41.1540 C   0  0  0  0  0  0  0  0  0  0  0  0
   43.7520   34.3450   40.3840 C   0  0  0  0  0  0  0  0  0  0  0  0
   48.2967   35.8705   42.8325 H   0  0  0  0  0  0  0  0  0  0  0  0
   49.6695   35.5954   40.7936 H   0  0  0  0  0  0  0  0  0  0  0  0
   48.7514   34.3051   38.8528 H   0  0  0  0  0  0  0  0  0  0  0  0
   46.4877   33.3468   39.0595 H   0  0  0  0  0  0  0  0  0  0  0  0
   43.7442   37.0542   44.9834 H   0  0  0  0  0  0  0  0  0  0  0  0
   44.9183   36.8468   42.7784 H   0  0  0  0  0  0  0  0  0  0  0  0
   45.0604   33.3551   47.4379 H   0  0  0  0  0  0  0  0  0  0  0  0
   46.1697   32.4296   46.3912 H   0  0  0  0  0  0  0  0  0  0  0  0
   44.7493   32.4629   40.7399 H   0  0  0  0  0  0  0  0  0  0  0  0
   44.4636   33.4526   42.2151 H   0  0  0  0  0  0  0  0  0  0  0  0
   43.1168   34.8932   41.0953 H   0  0  0  0  0  0  0  0  0  0  0  0
   44.2967   35.0613   39.7514 H   0  0  0  0  0  0  0  0  0  0  0  0
   43.1231   33.7014   39.7514 H   0  0  0  0  0  0  0  0  0  0  0  0
  1  9  1  0
  2  1  2  0
  3  2  1  0
  4  5  1  0
  4  3  2  0
  5  6  2  0
  6 14  1  0
  6  1  1  0
  7 12  2  0
  8  7  1  0
  9  8  2  0
  9 10  1  0
 10 11  2  0
 11 12  1  0
 11 13  1  0
 15 14  1  0
  2 16  1  0
  3 17  1  0
  4 18  1  0
  5 19  1  0
  7 20  1  0
  8 21  1  0
 13 22  1  0
 13 23  1  0
 14 24  1  0
 14 25  1  0
 15 26  1  0
 15 27  1  0
 15 28  1  0
M  ISO  8  16  14  17  14  18  14  19  14  20  14  21  14  24   8  25   8
M  ISO  3  26   8  27   8  28   8
M  END
>  <minimizedAffinity>  (1) 
-5.56814146

>  <minimizedRMSD>  (1) 
0.514280736

$$$$
