
     RDKit          3D

 43 46  0  0  1  0  0  0  0  0999 V2000
   46.8360   33.9460   42.5960 C   0  0  2  0  0  0  0  0  0  0  0  0
   48.2820   34.2650   42.7420 C   0  0  0  0  0  0  0  0  0  0  0  0
   48.7690   35.2450   41.7380 C   0  0  0  0  0  0  0  0  0  0  0  0
   48.4800   34.8230   40.3210 C   0  0  0  0  0  0  0  0  0  0  0  0
   47.1010   34.2770   40.1300 C   0  0  0  0  0  0  0  0  0  0  0  0
   46.2140   34.4400   41.3250 C   0  0  1  0  0  0  0  0  0  0  0  0
   46.0330   34.4250   43.7400 C   0  0  0  0  0  0  0  0  0  0  0  0
   45.4060   35.6520   43.5290 C   0  0  0  0  0  0  0  0  0  0  0  0
   44.6040   36.2120   44.5350 C   0  0  0  0  0  0  0  0  0  0  0  0
   44.4980   35.4700   45.7040 N   0  0  0  0  0  0  0  0  0  0  0  0
   45.1230   34.2850   45.8700 C   0  0  0  0  0  0  0  0  0  0  0  0
   45.8860   33.7740   44.8820 N   0  0  0  0  0  0  0  0  0  0  0  0
   44.9740   33.6050   41.0900 C   0  0  2  0  0  0  0  0  0  0  0  0
   44.4220   33.5390   39.6790 C   0  0  0  0  0  0  0  0  0  0  0  0
   43.6750   34.2240   40.7620 C   0  0  1  0  0  0  0  0  0  0  0  0
   42.4150   33.5400   41.1540 C   0  0  0  0  0  0  0  0  0  0  0  0
   42.2900   32.2000   41.4890 C   0  0  0  0  0  0  0  0  0  0  0  0
   41.0670   31.6720   41.8380 C   0  0  0  0  0  0  0  0  0  0  0  0
   39.9100   32.4390   41.8740 C   0  0  0  0  0  0  0  0  0  0  0  0
   39.9910   33.7770   41.5470 C   0  0  0  0  0  0  0  0  0  0  0  0
   41.2230   34.2720   41.2050 C   0  0  0  0  0  0  0  0  0  0  0  0
   46.8191   32.8466   42.5651 H   0  0  0  0  0  0  0  0  0  0  0  0
   48.4485   34.6814   43.7464 H   0  0  0  0  0  0  0  0  0  0  0  0
   48.8405   33.3305   42.5844 H   0  0  0  0  0  0  0  0  0  0  0  0
   48.2780   36.2116   41.9237 H   0  0  0  0  0  0  0  0  0  0  0  0
   49.8615   35.3143   41.8462 H   0  0  0  0  0  0  0  0  0  0  0  0
   48.6018   35.6980   39.6656 H   0  0  0  0  0  0  0  0  0  0  0  0
   49.1846   34.0151   40.0742 H   0  0  0  0  0  0  0  0  0  0  0  0
   46.6365   34.7984   39.2800 H   0  0  0  0  0  0  0  0  0  0  0  0
   47.2065   33.1961   39.9553 H   0  0  0  0  0  0  0  0  0  0  0  0
   46.0099   35.5148   41.4395 H   0  0  0  0  0  0  0  0  0  0  0  0
   45.5399   36.1811   42.5740 H   0  0  0  0  0  0  0  0  0  0  0  0
   44.0920   37.1770   44.4059 H   0  0  0  0  0  0  0  0  0  0  0  0
   45.0095   33.7337   46.8151 H   0  0  0  0  0  0  0  0  0  0  0  0
   45.3015   32.8898   41.8589 H   0  0  0  0  0  0  0  0  0  0  0  0
   44.0557   32.5847   39.2726 H   0  0  0  0  0  0  0  0  0  0  0  0
   44.7877   33.8192   38.6801 H   0  0  0  0  0  0  0  0  0  0  0  0
   43.2725   35.2312   40.9453 H   0  0  0  0  0  0  0  0  0  0  0  0
   43.1783   31.5513   41.4758 H   0  0  0  0  0  0  0  0  0  0  0  0
   41.0044   30.6049   42.0974 H   0  0  0  0  0  0  0  0  0  0  0  0
   38.9474   31.9885   42.1578 H   0  0  0  0  0  0  0  0  0  0  0  0
   39.1004   34.4225   41.5602 H   0  0  0  0  0  0  0  0  0  0  0  0
   41.2798   35.3400   40.9477 H   0  0  0  0  0  0  0  0  0  0  0  0
  1  2  1  0
  1  7  1  0
  3  2  1  0
  4  3  1  0
  5  4  1  0
  5  6  1  0
  6  1  1  0
  7 12  1  0
  8  7  2  0
  8  9  1  0
  9 10  2  0
 10 11  1  0
 12 11  2  0
 13  6  1  0
 14 15  1  0
 14 13  1  0
 15 13  1  0
 15 16  1  0
 16 21  1  0
 16 17  2  0
 17 18  1  0
 18 19  2  0
 20 19  1  0
 21 20  2  0
  1 22  1  6
  2 23  1  0
  2 24  1  0
  3 25  1  0
  3 26  1  0
  4 27  1  0
  4 28  1  0
  5 29  1  0
  5 30  1  0
  6 31  1  1
  8 32  1  0
  9 33  1  0
 11 34  1  0
 13 35  1  1
 14 36  1  0
 14 37  1  0
 15 38  1  6
 17 39  1  0
 18 40  1  0
 19 41  1  0
 20 42  1  0
 21 43  1  0
M  ISO  8  22  13  23  13  24  13  25  13  26  13  27  13  28  13  29  13
M  ISO  8  30  13  31  13  32  14  33  14  34  14  35  13  36  13  37  13
M  ISO  6  38  13  39  14  40  14  41  14  42  14  43  14
M  END
>  <minimizedAffinity>  (1) 
-6.29956341

>  <minimizedRMSD>  (1) 
1.35850263

$$$$
