
     RDKit          3D

 25 26  0  0  0  0  0  0  0  0999 V2000
   46.6300   34.7670   42.1040 C   0  0  0  0  0  0  0  0  0  0  0  0
   47.8860   35.3400   41.9880 C   0  0  0  0  0  0  0  0  0  0  0  0
   48.6740   35.1890   40.8410 C   0  0  0  0  0  0  0  0  0  0  0  0
   48.1930   34.4450   39.7790 C   0  0  0  0  0  0  0  0  0  0  0  0
   46.9460   33.8820   39.9080 C   0  0  0  0  0  0  0  0  0  0  0  0
   46.1630   34.0250   41.0350 C   0  0  0  0  0  0  0  0  0  0  0  0
   44.4080   36.1750   44.7840 C   0  0  0  0  0  0  0  0  0  0  0  0
   45.0720   36.0610   43.5440 C   0  0  0  0  0  0  0  0  0  0  0  0
   45.9070   34.9830   43.3230 C   0  0  0  0  0  0  0  0  0  0  0  0
   46.0480   34.0800   44.3140 N   0  0  0  0  0  0  0  0  0  0  0  0
   45.4040   34.2010   45.5000 C   0  0  0  0  0  0  0  0  0  0  0  0
   44.5840   35.2550   45.7260 N   0  0  0  0  0  0  0  0  0  0  0  0
   45.5580   33.2430   46.5440 N   0  0  0  0  0  0  0  0  0  0  0  0
   44.8260   33.4020   41.1330 C   0  0  0  0  0  0  0  0  0  0  0  0
   48.2777   35.9344   42.8266 H   0  0  0  0  0  0  0  0  0  0  0  0
   49.6674   35.6581   40.7848 H   0  0  0  0  0  0  0  0  0  0  0  0
   48.7875   34.3087   38.8636 H   0  0  0  0  0  0  0  0  0  0  0  0
   46.5523   33.2874   39.0705 H   0  0  0  0  0  0  0  0  0  0  0  0
   43.7415   37.0298   44.9714 H   0  0  0  0  0  0  0  0  0  0  0  0
   44.9264   36.8215   42.7627 H   0  0  0  0  0  0  0  0  0  0  0  0
   45.0536   33.3653   47.4337 H   0  0  0  0  0  0  0  0  0  0  0  0
   46.1737   32.4284   46.4088 H   0  0  0  0  0  0  0  0  0  0  0  0
   44.5567   33.2765   42.1921 H   0  0  0  0  0  0  0  0  0  0  0  0
   44.0839   34.0471   40.6399 H   0  0  0  0  0  0  0  0  0  0  0  0
   44.8426   32.4189   40.6399 H   0  0  0  0  0  0  0  0  0  0  0  0
  1  9  1  0
  2  1  2  0
  3  2  1  0
  4  5  1  0
  4  3  2  0
  5  6  2  0
  6 14  1  0
  6  1  1  0
  7 12  2  0
  8  7  1  0
  9  8  2  0
  9 10  1  0
 10 11  2  0
 11 12  1  0
 11 13  1  0
  2 15  1  0
  3 16  1  0
  4 17  1  0
  5 18  1  0
  7 19  1  0
  8 20  1  0
 13 21  1  0
 13 22  1  0
 14 23  1  0
 14 24  1  0
 14 25  1  0
M  ISO  8  15  14  16  14  17  14  18  14  19  14  20  14  23   8  24   8
M  ISO  1  25   8
M  END
>  <minimizedAffinity>  (1) 
-5.57965994

>  <minimizedRMSD>  (1) 
0.0240480732

$$$$
