
     RDKit          3D

 41 44  0  0  1  0  0  0  0  0999 V2000
   46.8100   33.9270   42.5530 C   0  0  2  0  0  0  0  0  0  0  0  0
   48.2570   34.2330   42.6840 C   0  0  0  0  0  0  0  0  0  0  0  0
   48.7460   35.2060   41.6750 C   0  0  0  0  0  0  0  0  0  0  0  0
   48.4230   34.8330   40.2560 C   0  0  0  0  0  0  0  0  0  0  0  0
   47.0650   34.2020   40.0860 C   0  0  0  0  0  0  0  0  0  0  0  0
   46.1790   34.4250   41.2820 C   0  0  1  0  0  0  0  0  0  0  0  0
   46.0190   34.4150   43.7010 C   0  0  0  0  0  0  0  0  0  0  0  0
   45.4110   35.6550   43.4950 C   0  0  0  0  0  0  0  0  0  0  0  0
   44.6260   36.2270   44.5050 C   0  0  0  0  0  0  0  0  0  0  0  0
   44.5110   35.4850   45.6730 N   0  0  0  0  0  0  0  0  0  0  0  0
   45.1160   34.2870   45.8350 C   0  0  0  0  0  0  0  0  0  0  0  0
   45.8640   33.7670   44.8430 N   0  0  0  0  0  0  0  0  0  0  0  0
   44.9350   33.5910   41.0660 C   0  0  2  0  0  0  0  0  0  0  0  0
   44.3800   33.5010   39.6580 C   0  0  0  0  0  0  0  0  0  0  0  0
   43.6350   34.1960   40.7360 C   0  0  1  0  0  0  0  0  0  0  0  0
   42.3730   33.5450   41.1670 C   0  0  0  0  0  0  0  0  0  0  0  0
   41.1920   34.2650   41.2050 C   0  0  0  0  0  0  0  0  0  0  0  0
   40.0220   33.6430   41.6090 C   0  0  0  0  0  0  0  0  0  0  0  0
   39.9980   32.3340   41.9720 N   0  0  0  0  0  0  0  0  0  0  0  0
   41.1670   31.6550   41.9250 C   0  0  0  0  0  0  0  0  0  0  0  0
   42.3280   32.2300   41.5360 N   0  0  0  0  0  0  0  0  0  0  0  0
   46.7854   32.8276   42.5273 H   0  0  0  0  0  0  0  0  0  0  0  0
   48.4363   34.6497   43.6861 H   0  0  0  0  0  0  0  0  0  0  0  0
   48.8044   33.2928   42.5215 H   0  0  0  0  0  0  0  0  0  0  0  0
   48.2887   36.1835   41.8878 H   0  0  0  0  0  0  0  0  0  0  0  0
   49.8428   35.2232   41.7566 H   0  0  0  0  0  0  0  0  0  0  0  0
   48.4613   35.7441   39.6408 H   0  0  0  0  0  0  0  0  0  0  0  0
   49.1654   34.0831   39.9454 H   0  0  0  0  0  0  0  0  0  0  0  0
   46.5803   34.6384   39.2002 H   0  0  0  0  0  0  0  0  0  0  0  0
   47.2093   33.1176   39.9710 H   0  0  0  0  0  0  0  0  0  0  0  0
   45.9842   35.5033   41.3785 H   0  0  0  0  0  0  0  0  0  0  0  0
   45.5483   36.1829   42.5398 H   0  0  0  0  0  0  0  0  0  0  0  0
   44.1322   37.2020   44.3805 H   0  0  0  0  0  0  0  0  0  0  0  0
   44.9971   33.7355   46.7793 H   0  0  0  0  0  0  0  0  0  0  0  0
   45.2660   32.8919   41.8481 H   0  0  0  0  0  0  0  0  0  0  0  0
   44.0178   32.5390   39.2663 H   0  0  0  0  0  0  0  0  0  0  0  0
   44.7398   33.7689   38.6536 H   0  0  0  0  0  0  0  0  0  0  0  0
   43.2257   35.2040   40.8981 H   0  0  0  0  0  0  0  0  0  0  0  0
   41.1822   35.3263   40.9158 H   0  0  0  0  0  0  0  0  0  0  0  0
   39.0883   34.2239   41.6366 H   0  0  0  0  0  0  0  0  0  0  0  0
   41.1738   30.5938   42.2144 H   0  0  0  0  0  0  0  0  0  0  0  0
  1  2  1  0
  1  7  1  0
  3  2  1  0
  4  3  1  0
  5  4  1  0
  5  6  1  0
  6  1  1  0
  7 12  1  0
  8  7  2  0
  8  9  1  0
  9 10  2  0
 10 11  1  0
 12 11  2  0
 13  6  1  0
 14 15  1  0
 14 13  1  0
 15 13  1  0
 15 16  1  0
 16 17  2  0
 16 21  1  0
 17 18  1  0
 18 19  2  0
 20 19  1  0
 21 20  2  0
  1 22  1  6
  2 23  1  0
  2 24  1  0
  3 25  1  0
  3 26  1  0
  4 27  1  0
  4 28  1  0
  5 29  1  0
  5 30  1  0
  6 31  1  1
  8 32  1  0
  9 33  1  0
 11 34  1  0
 13 35  1  1
 14 36  1  0
 14 37  1  0
 15 38  1  6
 17 39  1  0
 18 40  1  0
 20 41  1  0
M  ISO  8  22  13  23  13  24  13  25  13  26  13  27  13  28  13  29  13
M  ISO  8  30  13  31  13  32  14  33  14  34  14  35  13  36  13  37  13
M  ISO  4  38  13  39  14  40  14  41  14
M  END
>  <minimizedAffinity>  (1) 
-6.21944046

>  <minimizedRMSD>  (1) 
1.35440254

$$$$
