
     RDKit          3D

 23 24  0  0  0  0  0  0  0  0999 V2000
   46.6240   34.7530   42.1050 C   0  0  0  0  0  0  0  0  0  0  0  0
   47.8440   35.3850   41.9330 C   0  0  0  0  0  0  0  0  0  0  0  0
   48.6180   35.2260   40.7840 C   0  0  0  0  0  0  0  0  0  0  0  0
   48.1620   34.4040   39.7620 C   0  0  0  0  0  0  0  0  0  0  0  0
   46.9550   33.7870   39.9480 C   0  0  0  0  0  0  0  0  0  0  0  0
   46.1850   33.9400   41.0820 C   0  0  0  0  0  0  0  0  0  0  0  0
   44.4270   36.1840   44.7840 C   0  0  0  0  0  0  0  0  0  0  0  0
   45.0790   36.0830   43.5350 C   0  0  0  0  0  0  0  0  0  0  0  0
   45.8990   34.9820   43.3320 C   0  0  0  0  0  0  0  0  0  0  0  0
   46.0420   34.0620   44.3150 N   0  0  0  0  0  0  0  0  0  0  0  0
   45.3890   34.2070   45.5070 C   0  0  0  0  0  0  0  0  0  0  0  0
   44.5820   35.2680   45.7380 N   0  0  0  0  0  0  0  0  0  0  0  0
   45.5450   33.2350   46.5380 N   0  0  0  0  0  0  0  0  0  0  0  0
   44.9640   33.3150   41.2700 O   0  0  0  0  0  0  0  0  0  0  0  0
   48.2176   36.0387   42.7349 H   0  0  0  0  0  0  0  0  0  0  0  0
   49.5818   35.7474   40.6880 H   0  0  0  0  0  0  0  0  0  0  0  0
   48.7463   34.2552   38.8420 H   0  0  0  0  0  0  0  0  0  0  0  0
   46.5777   33.1324   39.1485 H   0  0  0  0  0  0  0  0  0  0  0  0
   43.7709   37.0461   44.9745 H   0  0  0  0  0  0  0  0  0  0  0  0
   44.9423   36.8463   42.7548 H   0  0  0  0  0  0  0  0  0  0  0  0
   45.0500   33.3505   47.4338 H   0  0  0  0  0  0  0  0  0  0  0  0
   46.1527   32.4172   46.3871 H   0  0  0  0  0  0  0  0  0  0  0  0
   44.4556   33.4633   42.1064 H   0  0  0  0  0  0  0  0  0  0  0  0
  1  9  1  0
  2  1  2  0
  3  2  1  0
  4  5  1  0
  4  3  2  0
  5  6  2  0
  6 14  1  0
  6  1  1  0
  7 12  2  0
  8  7  1  0
  9  8  2  0
  9 10  1  0
 10 11  2  0
 11 12  1  0
 11 13  1  0
  2 15  1  0
  3 16  1  0
  4 17  1  0
  5 18  1  0
  7 19  1  0
  8 20  1  0
 13 21  1  0
 13 22  1  0
 14 23  1  0
M  ISO  7  15  14  16  14  17  14  18  14  19  14  20  14  23   3
M  END
>  <minimizedAffinity>  (1) 
-5.51332331

>  <minimizedRMSD>  (1) 
0.0435977243

$$$$
