
     RDKit          3D

 29 30  0  0  0  0  0  0  0  0999 V2000
   44.3630   36.1310   44.9840 C   0  0  0  0  0  0  0  0  0  0  0  0
   45.0230   36.0750   43.7360 C   0  0  0  0  0  0  0  0  0  0  0  0
   45.8680   35.0180   43.4840 C   0  0  0  0  0  0  0  0  0  0  0  0
   46.0260   34.0770   44.4560 N   0  0  0  0  0  0  0  0  0  0  0  0
   45.3710   34.1690   45.6460 C   0  0  0  0  0  0  0  0  0  0  0  0
   44.5420   35.1910   45.9100 N   0  0  0  0  0  0  0  0  0  0  0  0
   45.5670   33.1720   46.6500 N   0  0  0  0  0  0  0  0  0  0  0  0
   46.5900   34.8410   42.2650 C   0  0  0  0  0  0  0  0  0  0  0  0
   47.8780   35.3600   42.1990 C   0  0  0  0  0  0  0  0  0  0  0  0
   48.6790   35.2370   41.0560 C   0  0  0  0  0  0  0  0  0  0  0  0
   48.1720   34.5750   39.9530 C   0  0  0  0  0  0  0  0  0  0  0  0
   46.9010   34.0650   40.0220 C   0  0  0  0  0  0  0  0  0  0  0  0
   46.1130   34.1880   41.1520 C   0  0  0  0  0  0  0  0  0  0  0  0
   44.7510   33.6300   41.2100 C   0  0  0  0  0  0  0  0  0  0  0  0
   44.6040   32.7560   40.1380 F   0  0  0  0  0  0  0  0  0  0  0  0
   43.8250   34.6520   41.1190 F   0  0  0  0  0  0  0  0  0  0  0  0
   44.4610   32.9580   42.3740 F   0  0  0  0  0  0  0  0  0  0  0  0
   45.0120   38.3980   43.3990 C   0  0  0  0  0  0  0  0  0  0  0  0
   45.3550   38.6430   44.6000 O   0  0  0  0  0  0  0  0  0  0  0  0
   44.8050   37.1140   42.8220 N   0  0  0  0  0  0  0  0  0  0  0  0
   43.6852   36.9711   45.1957 H   0  0  0  0  0  0  0  0  0  0  0  0
   45.0709   33.2428   47.5499 H   0  0  0  0  0  0  0  0  0  0  0  0
   46.2045   32.3823   46.4741 H   0  0  0  0  0  0  0  0  0  0  0  0
   48.2830   35.8863   43.0759 H   0  0  0  0  0  0  0  0  0  0  0  0
   49.6942   35.6600   41.0365 H   0  0  0  0  0  0  0  0  0  0  0  0
   48.7750   34.4600   39.0402 H   0  0  0  0  0  0  0  0  0  0  0  0
   46.4931   33.5387   39.1464 H   0  0  0  0  0  0  0  0  0  0  0  0
   44.8603   39.2663   42.7409 H   0  0  0  0  0  0  0  0  0  0  0  0
   44.5260   36.9651   41.8418 H   0  0  0  0  0  0  0  0  0  0  0  0
  1  6  2  0
  2  1  1  0
  3  2  2  0
  3  4  1  0
  4  5  2  0
  5  6  1  0
  5  7  1  0
  8  3  1  0
  9  8  2  0
 10  9  1  0
 11 12  1  0
 11 10  2  0
 12 13  2  0
 13 14  1  0
 13  8  1  0
 14 17  1  0
 15 14  1  0
 16 14  1  0
 18 19  2  0
 20 18  1  0
 20  2  1  0
  1 21  1  0
  7 22  1  0
  7 23  1  0
  9 24  1  0
 10 25  1  0
 11 26  1  0
 12 27  1  0
 18 28  1  0
 20 29  1  0
M  ISO  6  21  14  24  14  25  14  26  14  27  14  28   6
M  END
>  <minimizedAffinity>  (1) 
-5.53020525

>  <minimizedRMSD>  (1) 
0.27776292

$$$$
