
     RDKit          3D

 37 39  0  0  1  0  0  0  0  0999 V2000
   44.9650   34.3380   45.3360 C   0  0  0  0  0  0  0  0  0  0  0  0
   45.8070   34.0960   44.2120 C   0  0  0  0  0  0  0  0  0  0  0  0
   46.9460   33.3460   44.4150 C   0  0  0  0  0  0  0  0  0  0  0  0
   47.2110   32.8800   45.6680 N   0  0  0  0  0  0  0  0  0  0  0  0
   46.3790   33.1390   46.7090 C   0  0  0  0  0  0  0  0  0  0  0  0
   45.2640   33.8600   46.5520 N   0  0  0  0  0  0  0  0  0  0  0  0
   46.6930   32.6650   48.0200 N   0  0  0  0  0  0  0  0  0  0  0  0
   47.8730   33.0190   43.3740 C   0  0  0  0  0  0  0  0  0  0  0  0
   48.7530   34.0100   42.9580 C   0  0  0  0  0  0  0  0  0  0  0  0
   49.6980   33.7820   41.9450 C   0  0  0  0  0  0  0  0  0  0  0  0
   49.7610   32.5560   41.3440 C   0  0  0  0  0  0  0  0  0  0  0  0
   48.9000   31.5890   41.7540 C   0  0  0  0  0  0  0  0  0  0  0  0
   47.9620   31.7990   42.7530 C   0  0  0  0  0  0  0  0  0  0  0  0
   47.0390   30.7210   43.1890 C   0  0  0  0  0  0  0  0  0  0  0  0
   47.2040   29.6400   42.3270 F   0  0  0  0  0  0  0  0  0  0  0  0
   45.7390   31.1810   43.1290 F   0  0  0  0  0  0  0  0  0  0  0  0
   47.2370   30.2960   44.4800 F   0  0  0  0  0  0  0  0  0  0  0  0
   44.5170   35.9280   43.1460 C   0  0  1  0  0  0  0  0  0  0  0  0
   45.4350   34.7240   42.9560 C   0  0  2  0  0  0  0  0  0  0  0  0
   44.6210   33.8940   42.0110 C   0  0  0  0  0  0  0  0  0  0  0  0
   44.2310   34.8460   41.0790 O   0  0  0  0  0  0  0  0  0  0  0  0
   43.9300   36.0100   41.7490 C   0  0  0  0  0  0  0  0  0  0  0  0
   43.5060   35.6740   44.0530 O   0  0  0  0  0  0  0  0  0  0  0  0
   44.0482   34.9310   45.2025 H   0  0  0  0  0  0  0  0  0  0  0  0
   46.0577   32.8648   48.8057 H   0  0  0  0  0  0  0  0  0  0  0  0
   47.5546   32.1236   48.1792 H   0  0  0  0  0  0  0  0  0  0  0  0
   48.7083   35.0001   43.4351 H   0  0  0  0  0  0  0  0  0  0  0  0
   50.3835   34.5852   41.6369 H   0  0  0  0  0  0  0  0  0  0  0  0
   50.4922   32.3571   40.5466 H   0  0  0  0  0  0  0  0  0  0  0  0
   48.9488   30.6002   41.2745 H   0  0  0  0  0  0  0  0  0  0  0  0
   45.0230   36.8275   43.5265 H   0  0  0  0  0  0  0  0  0  0  0  0
   46.4343   34.9458   42.5531 H   0  0  0  0  0  0  0  0  0  0  0  0
   45.2265   33.1012   41.5475 H   0  0  0  0  0  0  0  0  0  0  0  0
   43.7849   33.3601   42.4862 H   0  0  0  0  0  0  0  0  0  0  0  0
   44.3632   36.8683   41.2145 H   0  0  0  0  0  0  0  0  0  0  0  0
   42.8392   36.1404   41.8059 H   0  0  0  0  0  0  0  0  0  0  0  0
   43.8588   35.7626   44.9738 H   0  0  0  0  0  0  0  0  0  0  0  0
  1  6  2  0
  2  3  2  0
  2  1  1  0
  3  4  1  0
  4  5  2  0
  5  7  1  0
  6  5  1  0
  8  3  1  0
  9  8  2  0
 10  9  1  0
 11 12  1  0
 11 10  2  0
 12 13  2  0
 13 14  1  0
 13  8  1  0
 14 17  1  0
 15 14  1  0
 16 14  1  0
 18 23  1  0
 19 18  1  0
 19  2  1  0
 20 19  1  0
 21 22  1  0
 21 20  1  0
 22 18  1  0
  1 24  1  0
  7 25  1  0
  7 26  1  0
  9 27  1  0
 10 28  1  0
 11 29  1  0
 12 30  1  0
 18 31  1  1
 19 32  1  6
 20 33  1  0
 20 34  1  0
 22 35  1  0
 22 36  1  0
 23 37  1  0
M  ISO  8  24  14  27  14  28  14  29  14  30  14  31  13  32  13  33  13
M  ISO  4  34  13  35  13  36  13  37   3
M  END
>  <minimizedAffinity>  (1) 
-5.27887678

>  <minimizedRMSD>  (1) 
3.00924802

$$$$
