
     RDKit          3D

 45 48  0  0  1  0  0  0  0  0999 V2000
   46.8990   33.9690   42.5910 C   0  0  2  0  0  0  0  0  0  0  0  0
   48.3470   34.2450   42.7750 C   0  0  0  0  0  0  0  0  0  0  0  0
   48.8700   35.2700   41.8310 C   0  0  0  0  0  0  0  0  0  0  0  0
   48.5830   34.9630   40.3830 C   0  0  0  0  0  0  0  0  0  0  0  0
   47.2310   34.3350   40.1550 C   0  0  0  0  0  0  0  0  0  0  0  0
   46.3110   34.5380   41.3310 C   0  0  1  0  0  0  0  0  0  0  0  0
   46.0820   34.4100   43.7410 C   0  0  0  0  0  0  0  0  0  0  0  0
   45.3900   35.6050   43.5340 C   0  0  0  0  0  0  0  0  0  0  0  0
   44.5740   36.1270   44.5470 C   0  0  0  0  0  0  0  0  0  0  0  0
   44.5190   35.3840   45.7200 N   0  0  0  0  0  0  0  0  0  0  0  0
   45.2060   34.2330   45.8820 C   0  0  0  0  0  0  0  0  0  0  0  0
   45.9810   33.7580   44.8870 N   0  0  0  0  0  0  0  0  0  0  0  0
   45.0520   33.7600   41.0360 C   0  0  2  0  0  0  0  0  0  0  0  0
   44.8050   33.3020   39.6160 C   0  0  0  0  0  0  0  0  0  0  0  0
   43.9470   34.3340   40.2380 C   0  0  1  0  0  0  0  0  0  0  0  0
   42.6330   34.0640   40.7450 N   0  0  0  0  0  0  0  0  0  0  0  0
   42.1230   35.1040   41.6100 C   0  0  0  0  0  0  0  0  0  0  0  0
   40.7190   35.4200   41.1580 C   0  0  0  0  0  0  0  0  0  0  0  0
   40.8240   35.0670   39.6690 C   0  0  0  0  0  0  0  0  0  0  0  0
   41.6480   33.8180   39.7240 C   0  0  0  0  0  0  0  0  0  0  0  0
   46.8601   32.8726   42.5106 H   0  0  0  0  0  0  0  0  0  0  0  0
   48.5077   34.6014   43.8032 H   0  0  0  0  0  0  0  0  0  0  0  0
   48.8877   33.3082   42.5749 H   0  0  0  0  0  0  0  0  0  0  0  0
   48.4092   36.2376   42.0788 H   0  0  0  0  0  0  0  0  0  0  0  0
   49.9639   35.2844   41.9458 H   0  0  0  0  0  0  0  0  0  0  0  0
   48.6308   35.9022   39.8124 H   0  0  0  0  0  0  0  0  0  0  0  0
   49.3371   34.2336   40.0525 H   0  0  0  0  0  0  0  0  0  0  0  0
   46.7739   34.7891   39.2635 H   0  0  0  0  0  0  0  0  0  0  0  0
   47.3765   33.2532   40.0190 H   0  0  0  0  0  0  0  0  0  0  0  0
   46.1356   35.6144   41.4746 H   0  0  0  0  0  0  0  0  0  0  0  0
   45.4853   36.1368   42.5758 H   0  0  0  0  0  0  0  0  0  0  0  0
   44.0130   37.0648   44.4215 H   0  0  0  0  0  0  0  0  0  0  0  0
   45.1328   33.6805   46.8304 H   0  0  0  0  0  0  0  0  0  0  0  0
   45.1111   33.2942   42.0307 H   0  0  0  0  0  0  0  0  0  0  0  0
   44.4057   32.2956   39.4221 H   0  0  0  0  0  0  0  0  0  0  0  0
   45.4092   33.2357   38.6992 H   0  0  0  0  0  0  0  0  0  0  0  0
   43.6286   35.3212   39.8718 H   0  0  0  0  0  0  0  0  0  0  0  0
   42.1122   34.7538   42.6527 H   0  0  0  0  0  0  0  0  0  0  0  0
   42.7588   36.0000   41.5560 H   0  0  0  0  0  0  0  0  0  0  0  0
   39.9752   34.7943   41.6731 H   0  0  0  0  0  0  0  0  0  0  0  0
   40.3894   36.4489   41.3650 H   0  0  0  0  0  0  0  0  0  0  0  0
   41.3321   35.8605   39.1014 H   0  0  0  0  0  0  0  0  0  0  0  0
   39.8542   34.9464   39.1640 H   0  0  0  0  0  0  0  0  0  0  0  0
   41.0222   32.9538   39.9912 H   0  0  0  0  0  0  0  0  0  0  0  0
   42.1096   33.5853   38.7530 H   0  0  0  0  0  0  0  0  0  0  0  0
  1  2  1  0
  1  7  1  0
  3  2  1  0
  4  3  1  0
  5  4  1  0
  5  6  1  0
  6  1  1  0
  7 12  1  0
  8  7  2  0
  8  9  1  0
  9 10  2  0
 10 11  1  0
 12 11  2  0
 13  6  1  0
 14 15  1  0
 14 13  1  0
 15 16  1  0
 15 13  1  0
 16 17  1  0
 18 17  1  0
 19 20  1  0
 19 18  1  0
 20 16  1  0
  1 21  1  6
  2 22  1  0
  2 23  1  0
  3 24  1  0
  3 25  1  0
  4 26  1  0
  4 27  1  0
  5 28  1  0
  5 29  1  0
  6 30  1  1
  8 31  1  0
  9 32  1  0
 11 33  1  0
 13 34  1  1
 14 35  1  0
 14 36  1  0
 15 37  1  6
 17 38  1  0
 17 39  1  0
 18 40  1  0
 18 41  1  0
 19 42  1  0
 19 43  1  0
 20 44  1  0
 20 45  1  0
M  ISO  8  21  13  22  13  23  13  24  13  25  13  26  13  27  13  28  13
M  ISO  8  29  13  30  13  31  14  32  14  33  14  34  13  35  13  36  13
M  ISO  8  37  13  38  13  39  13  40  13  41  13  42  13  43  13  44  13
M  ISO  1  45  13
M  END
>  <minimizedAffinity>  (1) 
-6.21384668

>  <minimizedRMSD>  (1) 
1.59622025

$$$$
