
     RDKit          3D

 40 43  0  0  1  0  0  0  0  0999 V2000
   47.0550   34.0440   42.5220 C   0  0  2  0  0  0  0  0  0  0  0  0
   48.4540   34.5260   42.6680 C   0  0  0  0  0  0  0  0  0  0  0  0
   48.8320   35.5380   41.6430 C   0  0  0  0  0  0  0  0  0  0  0  0
   48.6120   35.0510   40.2370 C   0  0  0  0  0  0  0  0  0  0  0  0
   47.3220   34.2980   40.0520 C   0  0  0  0  0  0  0  0  0  0  0  0
   46.3990   34.4210   41.2300 C   0  0  1  0  0  0  0  0  0  0  0  0
   46.1850   34.4680   43.6390 C   0  0  0  0  0  0  0  0  0  0  0  0
   45.5100   35.6710   43.4290 C   0  0  0  0  0  0  0  0  0  0  0  0
   44.6500   36.1700   44.4180 C   0  0  0  0  0  0  0  0  0  0  0  0
   44.5380   35.3990   45.5670 N   0  0  0  0  0  0  0  0  0  0  0  0
   45.2080   34.2410   45.7320 C   0  0  0  0  0  0  0  0  0  0  0  0
   46.0260   33.7870   44.7620 N   0  0  0  0  0  0  0  0  0  0  0  0
   45.2480   33.4750   41.0090 C   0  0  2  0  0  0  0  0  0  0  0  0
   44.6740   33.3400   39.6200 C   0  0  0  0  0  0  0  0  0  0  0  0
   43.8880   33.9740   40.7040 C   0  0  1  0  0  0  0  0  0  0  0  0
   42.6770   33.2710   41.1960 C   0  0  0  0  0  0  0  0  0  0  0  0
   41.3570   33.6520   41.0140 C   0  0  0  0  0  0  0  0  0  0  0  0
   40.5390   32.7410   41.6190 C   0  0  0  0  0  0  0  0  0  0  0  0
   41.3590   31.8170   42.1650 N   0  0  0  0  0  0  0  0  0  0  0  0
   42.6230   32.1450   41.9040 N   0  0  0  0  0  0  0  0  0  0  0  0
   47.1640   32.9495   42.5334 H   0  0  0  0  0  0  0  0  0  0  0  0
   48.5666   34.9778   43.6646 H   0  0  0  0  0  0  0  0  0  0  0  0
   49.1162   33.6582   42.5327 H   0  0  0  0  0  0  0  0  0  0  0  0
   48.2258   36.4422   41.8010 H   0  0  0  0  0  0  0  0  0  0  0  0
   49.9065   35.7429   41.7591 H   0  0  0  0  0  0  0  0  0  0  0  0
   48.6051   35.9218   39.5650 H   0  0  0  0  0  0  0  0  0  0  0  0
   49.4286   34.3504   40.0082 H   0  0  0  0  0  0  0  0  0  0  0  0
   46.8098   34.6927   39.1622 H   0  0  0  0  0  0  0  0  0  0  0  0
   47.5746   33.2332   39.9406 H   0  0  0  0  0  0  0  0  0  0  0  0
   46.0835   35.4721   41.3047 H   0  0  0  0  0  0  0  0  0  0  0  0
   45.6520   36.2265   42.4902 H   0  0  0  0  0  0  0  0  0  0  0  0
   44.0986   37.1134   44.2912 H   0  0  0  0  0  0  0  0  0  0  0  0
   45.0867   33.6649   46.6612 H   0  0  0  0  0  0  0  0  0  0  0  0
   45.6627   32.7961   41.7687 H   0  0  0  0  0  0  0  0  0  0  0  0
   44.3859   32.3504   39.2357 H   0  0  0  0  0  0  0  0  0  0  0  0
   44.9934   33.6363   38.6100 H   0  0  0  0  0  0  0  0  0  0  0  0
   43.3921   34.9440   40.8561 H   0  0  0  0  0  0  0  0  0  0  0  0
   41.0214   34.5464   40.4687 H   0  0  0  0  0  0  0  0  0  0  0  0
   39.4397   32.7565   41.6543 H   0  0  0  0  0  0  0  0  0  0  0  0
   41.0550   30.9900   42.6985 H   0  0  0  0  0  0  0  0  0  0  0  0
  1  2  1  0
  1  7  1  0
  3  2  1  0
  4  3  1  0
  5  4  1  0
  5  6  1  0
  6  1  1  0
  7 12  1  0
  8  7  2  0
  8  9  1  0
  9 10  2  0
 10 11  1  0
 12 11  2  0
 13  6  1  0
 14 15  1  0
 14 13  1  0
 15 13  1  0
 15 16  1  0
 16 20  2  0
 17 16  1  0
 17 18  2  0
 18 19  1  0
 20 19  1  0
  1 21  1  6
  2 22  1  0
  2 23  1  0
  3 24  1  0
  3 25  1  0
  4 26  1  0
  4 27  1  0
  5 28  1  0
  5 29  1  0
  6 30  1  1
  8 31  1  0
  9 32  1  0
 11 33  1  0
 13 34  1  1
 14 35  1  0
 14 36  1  0
 15 37  1  6
 17 38  1  0
 18 39  1  0
 19 40  1  0
M  ISO  8  21  13  22  13  23  13  24  13  25  13  26  13  27  13  28  13
M  ISO  8  29  13  30  13  31  14  32  14  33  14  34  13  35  13  36  13
M  ISO  4  37  13  38  14  39  14  40   9
M  END
>  <minimizedAffinity>  (1) 
-6.13018131

>  <minimizedRMSD>  (1) 
0.895935535

$$$$
