
     RDKit          3D

 15 15  0  0  0  0  0  0  0  0999 V2000
   45.1070   35.2410   44.0890 C   0  0  0  0  0  0  0  0  0  0  0  0
   46.1170   34.9480   43.1600 C   0  0  0  0  0  0  0  0  0  0  0  0
   47.0260   33.9330   43.5020 C   0  0  0  0  0  0  0  0  0  0  0  0
   46.8670   33.3130   44.6910 N   0  0  0  0  0  0  0  0  0  0  0  0
   45.8860   33.6200   45.5570 C   0  0  0  0  0  0  0  0  0  0  0  0
   45.0020   34.5870   45.2580 N   0  0  0  0  0  0  0  0  0  0  0  0
   44.1410   36.2540   43.8290 N   0  0  0  0  0  0  0  0  0  0  0  0
   45.9030   32.8040   46.8100 C   0  0  0  0  0  0  0  0  0  0  0  0
   44.9720   33.2280   47.7100 F   0  0  0  0  0  0  0  0  0  0  0  0
   47.1800   32.8730   47.3900 F   0  0  0  0  0  0  0  0  0  0  0  0
   45.7390   31.4630   46.4810 F   0  0  0  0  0  0  0  0  0  0  0  0
   46.1936   35.4895   42.2056 H   0  0  0  0  0  0  0  0  0  0  0  0
   47.8431   33.6516   42.8214 H   0  0  0  0  0  0  0  0  0  0  0  0
   44.1766   36.7854   42.9474 H   0  0  0  0  0  0  0  0  0  0  0  0
   43.4066   36.4554   44.5225 H   0  0  0  0  0  0  0  0  0  0  0  0
  1  6  2  0
  2  3  2  0
  2  1  1  0
  3  4  1  0
  4  5  2  0
  5  8  1  0
  6  5  1  0
  7  1  1  0
  8 10  1  0
  8  9  1  0
 11  8  1  0
  2 12  1  0
  3 13  1  0
  7 14  1  0
  7 15  1  0
M  ISO  2  12  14  13  14
M  END
>  <minimizedAffinity>  (1) 
-4.17304516

>  <minimizedRMSD>  (1) 
0.876469553

$$$$
