
     RDKit          3D

 20 21  0  0  0  0  0  0  0  0999 V2000
   45.5330   34.1530   44.4070 C   0  0  0  0  0  0  0  0  0  0  0  0
   46.4870   33.5960   43.5340 C   0  0  0  0  0  0  0  0  0  0  0  0
   47.3730   32.6630   44.0590 C   0  0  0  0  0  0  0  0  0  0  0  0
   47.2750   32.3380   45.3750 N   0  0  0  0  0  0  0  0  0  0  0  0
   46.3490   32.8930   46.1790 C   0  0  0  0  0  0  0  0  0  0  0  0
   45.4820   33.7990   45.6880 N   0  0  0  0  0  0  0  0  0  0  0  0
   46.4110   32.4000   47.5910 C   0  0  0  0  0  0  0  0  0  0  0  0
   45.3760   32.9000   48.3500 F   0  0  0  0  0  0  0  0  0  0  0  0
   47.6220   32.7480   48.1680 F   0  0  0  0  0  0  0  0  0  0  0  0
   46.3850   30.9990   47.5800 F   0  0  0  0  0  0  0  0  0  0  0  0
   44.5710   35.1560   43.8710 C   0  0  0  0  0  0  0  0  0  0  0  0
   44.8350   36.5900   44.3270 C   0  0  0  0  0  0  0  0  0  0  0  0
   45.0190   36.1820   42.8990 C   0  0  0  0  0  0  0  0  0  0  0  0
   46.5294   33.8888   42.4745 H   0  0  0  0  0  0  0  0  0  0  0  0
   48.1388   32.1966   43.4218 H   0  0  0  0  0  0  0  0  0  0  0  0
   43.7346   34.4416   43.8690 H   0  0  0  0  0  0  0  0  0  0  0  0
   43.9973   37.2432   44.6125 H   0  0  0  0  0  0  0  0  0  0  0  0
   45.4621   37.0672   45.0945 H   0  0  0  0  0  0  0  0  0  0  0  0
   46.0322   36.1252   42.4744 H   0  0  0  0  0  0  0  0  0  0  0  0
   44.6299   36.5515   41.9388 H   0  0  0  0  0  0  0  0  0  0  0  0
  1  6  2  0
  2  3  2  0
  2  1  1  0
  3  4  1  0
  4  5  2  0
  5  7  1  0
  6  5  1  0
  7  9  1  0
  7  8  1  0
 10  7  1  0
 11 12  1  0
 11  1  1  0
 13 11  1  0
 13 12  1  0
  2 14  1  0
  3 15  1  0
 11 16  1  0
 12 17  1  0
 12 18  1  0
 13 19  1  0
 13 20  1  0
M  ISO  7  14  14  15  14  16  13  17  13  18  13  19  13  20  13
M  END
>  <minimizedAffinity>  (1) 
-3.96599698

>  <minimizedRMSD>  (1) 
2.02577448

$$$$
