
     RDKit          3D

 40 43  0  0  1  0  0  0  0  0999 V2000
   47.1060   34.0610   42.4950 C   0  0  2  0  0  0  0  0  0  0  0  0
   48.4970   34.5610   42.6540 C   0  0  0  0  0  0  0  0  0  0  0  0
   48.8810   35.5660   41.6320 C   0  0  0  0  0  0  0  0  0  0  0  0
   48.6550   35.1060   40.2120 C   0  0  0  0  0  0  0  0  0  0  0  0
   47.4000   34.2980   40.0310 C   0  0  0  0  0  0  0  0  0  0  0  0
   46.4570   34.4360   41.1940 C   0  0  1  0  0  0  0  0  0  0  0  0
   46.2230   34.4710   43.6070 C   0  0  0  0  0  0  0  0  0  0  0  0
   45.5430   35.6700   43.3940 C   0  0  0  0  0  0  0  0  0  0  0  0
   44.6680   36.1670   44.3720 C   0  0  0  0  0  0  0  0  0  0  0  0
   44.5490   35.3920   45.5190 N   0  0  0  0  0  0  0  0  0  0  0  0
   45.2240   34.2360   45.6900 C   0  0  0  0  0  0  0  0  0  0  0  0
   46.0570   33.7880   44.7280 N   0  0  0  0  0  0  0  0  0  0  0  0
   45.3210   33.4650   40.9700 C   0  0  2  0  0  0  0  0  0  0  0  0
   44.7740   33.3030   39.5740 C   0  0  0  0  0  0  0  0  0  0  0  0
   43.9580   33.9390   40.6360 C   0  0  1  0  0  0  0  0  0  0  0  0
   42.7660   33.2250   41.1650 C   0  0  0  0  0  0  0  0  0  0  0  0
   42.7000   32.0490   41.8960 C   0  0  0  0  0  0  0  0  0  0  0  0
   41.4040   31.7750   42.1610 N   0  0  0  0  0  0  0  0  0  0  0  0
   40.6670   32.7720   41.6000 C   0  0  0  0  0  0  0  0  0  0  0  0
   41.5040   33.6570   40.9920 N   0  0  0  0  0  0  0  0  0  0  0  0
   47.2251   32.9675   42.5040 H   0  0  0  0  0  0  0  0  0  0  0  0
   48.5908   35.0214   43.6486 H   0  0  0  0  0  0  0  0  0  0  0  0
   49.1687   33.6987   42.5308 H   0  0  0  0  0  0  0  0  0  0  0  0
   48.2873   36.4766   41.8005 H   0  0  0  0  0  0  0  0  0  0  0  0
   49.9611   35.7416   41.7445 H   0  0  0  0  0  0  0  0  0  0  0  0
   48.5929   35.9935   39.5651 H   0  0  0  0  0  0  0  0  0  0  0  0
   49.4992   34.4522   39.9476 H   0  0  0  0  0  0  0  0  0  0  0  0
   46.8885   34.6394   39.1190 H   0  0  0  0  0  0  0  0  0  0  0  0
   47.6901   33.2395   39.9581 H   0  0  0  0  0  0  0  0  0  0  0  0
   46.1293   35.4844   41.2528 H   0  0  0  0  0  0  0  0  0  0  0  0
   45.6929   36.2271   42.4575 H   0  0  0  0  0  0  0  0  0  0  0  0
   44.1132   37.1076   44.2394 H   0  0  0  0  0  0  0  0  0  0  0  0
   45.0946   33.6573   46.6165 H   0  0  0  0  0  0  0  0  0  0  0  0
   45.7322   32.8030   41.7464 H   0  0  0  0  0  0  0  0  0  0  0  0
   44.5084   32.3040   39.1980 H   0  0  0  0  0  0  0  0  0  0  0  0
   45.1067   33.5913   38.5659 H   0  0  0  0  0  0  0  0  0  0  0  0
   43.4347   34.9008   40.7416 H   0  0  0  0  0  0  0  0  0  0  0  0
   43.5608   31.4396   42.2086 H   0  0  0  0  0  0  0  0  0  0  0  0
   41.0429   30.9664   42.6869 H   0  0  0  0  0  0  0  0  0  0  0  0
   39.5703   32.8503   41.6326 H   0  0  0  0  0  0  0  0  0  0  0  0
  1  2  1  0
  1  7  1  0
  3  2  1  0
  4  3  1  0
  5  4  1  0
  5  6  1  0
  6  1  1  0
  7 12  1  0
  8  7  2  0
  8  9  1  0
  9 10  2  0
 10 11  1  0
 12 11  2  0
 13  6  1  0
 14 15  1  0
 14 13  1  0
 15 13  1  0
 15 16  1  0
 16 17  2  0
 17 18  1  0
 19 18  1  0
 20 16  1  0
 20 19  2  0
  1 21  1  6
  2 22  1  0
  2 23  1  0
  3 24  1  0
  3 25  1  0
  4 26  1  0
  4 27  1  0
  5 28  1  0
  5 29  1  0
  6 30  1  1
  8 31  1  0
  9 32  1  0
 11 33  1  0
 13 34  1  1
 14 35  1  0
 14 36  1  0
 15 37  1  6
 17 38  1  0
 18 39  1  0
 19 40  1  0
M  ISO  8  21  13  22  13  23  13  24  13  25  13  26  13  27  13  28  13
M  ISO  8  29  13  30  13  31  14  32  14  33  14  34  13  35  13  36  13
M  ISO  4  37  13  38  14  39   9  40  14
M  END
>  <minimizedAffinity>  (1) 
-6.09826708

>  <minimizedRMSD>  (1) 
0.945308149

$$$$
