
     RDKit          3D

 27 29  0  0  1  0  0  0  0  0999 V2000
   45.9700   33.9440   42.0920 C   0  0  1  0  0  0  0  0  0  0  0  0
   46.3790   35.3780   42.5010 C   0  0  0  0  0  0  0  0  0  0  0  0
   47.1520   34.5740   41.5070 C   0  0  1  0  0  0  0  0  0  0  0  0
   46.0280   32.9630   43.1980 C   0  0  0  0  0  0  0  0  0  0  0  0
   46.2770   31.6230   42.8510 C   0  0  0  0  0  0  0  0  0  0  0  0
   46.3580   30.6780   43.8690 C   0  0  0  0  0  0  0  0  0  0  0  0
   46.1880   31.1100   45.1500 N   0  0  0  0  0  0  0  0  0  0  0  0
   45.9490   32.4010   45.4460 C   0  0  0  0  0  0  0  0  0  0  0  0
   45.8710   33.3230   44.4570 N   0  0  0  0  0  0  0  0  0  0  0  0
   45.7920   32.6690   46.9090 C   0  0  0  0  0  0  0  0  0  0  0  0
   44.8990   33.6990   47.1480 F   0  0  0  0  0  0  0  0  0  0  0  0
   47.0110   32.9450   47.4810 F   0  0  0  0  0  0  0  0  0  0  0  0
   45.3500   31.4830   47.5300 F   0  0  0  0  0  0  0  0  0  0  0  0
   48.5450   34.2880   41.8880 C   0  0  0  0  0  0  0  0  0  0  0  0
   49.2970   35.2340   42.5910 C   0  0  0  0  0  0  0  0  0  0  0  0
   50.5270   34.7720   42.8540 N   0  0  0  0  0  0  0  0  0  0  0  0
   50.5820   33.5360   42.3290 C   0  0  0  0  0  0  0  0  0  0  0  0
   49.3980   33.2620   41.7590 N   0  0  0  0  0  0  0  0  0  0  0  0
   45.1247   33.4156   41.6271 H   0  0  0  0  0  0  0  0  0  0  0  0
   45.7816   36.2420   42.1746 H   0  0  0  0  0  0  0  0  0  0  0  0
   46.6019   35.9003   43.4431 H   0  0  0  0  0  0  0  0  0  0  0  0
   47.4547   34.6434   40.4518 H   0  0  0  0  0  0  0  0  0  0  0  0
   46.4048   31.3288   41.7988 H   0  0  0  0  0  0  0  0  0  0  0  0
   46.5526   29.6183   43.6472 H   0  0  0  0  0  0  0  0  0  0  0  0
   48.9277   36.2264   42.8889 H   0  0  0  0  0  0  0  0  0  0  0  0
   51.2787   35.2647   43.3570 H   0  0  0  0  0  0  0  0  0  0  0  0
   51.4510   32.8623   42.3610 H   0  0  0  0  0  0  0  0  0  0  0  0
  1  2  1  0
  1  4  1  0
  3 14  1  0
  3  1  1  0
  3  2  1  0
  4  9  1  0
  5  4  2  0
  5  6  1  0
  6  7  2  0
  7  8  1  0
  8 10  1  0
  9  8  2  0
 10 11  1  0
 10 12  1  0
 10 13  1  0
 14 15  2  0
 15 16  1  0
 17 16  1  0
 18 14  1  0
 18 17  2  0
  1 19  1  6
  2 20  1  0
  2 21  1  0
  3 22  1  6
  5 23  1  0
  6 24  1  0
 15 25  1  0
 16 26  1  0
 17 27  1  0
M  ISO  8  19  13  20  13  21  13  22  13  23  14  24  14  25  14  26   9
M  ISO  1  27  14
M  END
>  <minimizedAffinity>  (1) 
-4.9251647

>  <minimizedRMSD>  (1) 
2.40378594

$$$$
