
     RDKit          3D

 34 36  0  0  1  0  0  0  0  0999 V2000
   44.4000   34.9970   43.3110 C   0  0  1  0  0  0  0  0  0  0  0  0
   44.9750   36.3420   42.8110 C   0  0  0  0  0  0  0  0  0  0  0  0
   44.4640   35.2890   41.8790 C   0  0  2  0  0  0  0  0  0  0  0  0
   43.3180   35.4650   41.0550 N   0  0  0  0  0  0  0  0  0  0  0  0
   43.2320   34.5590   39.9290 C   0  0  0  0  0  0  0  0  0  0  0  0
   41.9260   34.6670   39.2060 C   0  0  0  0  0  0  0  0  0  0  0  0
   41.1060   35.7560   39.6640 N   0  0  0  0  0  0  0  0  0  0  0  0
   40.9620   35.8590   41.0820 C   0  0  0  0  0  0  0  0  0  0  0  0
   42.1160   35.2790   41.8460 C   0  0  0  0  0  0  0  0  0  0  0  0
   45.4180   34.1190   43.9650 C   0  0  0  0  0  0  0  0  0  0  0  0
   46.5410   33.6830   43.2140 C   0  0  0  0  0  0  0  0  0  0  0  0
   47.4730   32.8820   43.8550 C   0  0  0  0  0  0  0  0  0  0  0  0
   47.2640   32.5580   45.1570 N   0  0  0  0  0  0  0  0  0  0  0  0
   46.1800   32.9950   45.8370 C   0  0  0  0  0  0  0  0  0  0  0  0
   45.2540   33.7800   45.2300 N   0  0  0  0  0  0  0  0  0  0  0  0
   46.1430   32.5340   47.2660 C   0  0  0  0  0  0  0  0  0  0  0  0
   45.1350   33.1410   47.9740 F   0  0  0  0  0  0  0  0  0  0  0  0
   47.3590   32.8400   47.8840 F   0  0  0  0  0  0  0  0  0  0  0  0
   46.0470   31.1470   47.2890 F   0  0  0  0  0  0  0  0  0  0  0  0
   43.5836   34.6379   43.9548 H   0  0  0  0  0  0  0  0  0  0  0  0
   44.4134   37.2765   42.9571 H   0  0  0  0  0  0  0  0  0  0  0  0
   45.9152   36.8984   42.9390 H   0  0  0  0  0  0  0  0  0  0  0  0
   44.8928   34.7589   41.0158 H   0  0  0  0  0  0  0  0  0  0  0  0
   44.0451   34.7919   39.2257 H   0  0  0  0  0  0  0  0  0  0  0  0
   43.3155   33.5333   40.3177 H   0  0  0  0  0  0  0  0  0  0  0  0
   41.3702   33.7285   39.3487 H   0  0  0  0  0  0  0  0  0  0  0  0
   42.1566   34.8580   38.1475 H   0  0  0  0  0  0  0  0  0  0  0  0
   41.5229   36.6336   39.3221 H   0  0  0  0  0  0  0  0  0  0  0  0
   40.8696   36.9229   41.3459 H   0  0  0  0  0  0  0  0  0  0  0  0
   40.0682   35.2805   41.3587 H   0  0  0  0  0  0  0  0  0  0  0  0
   41.9465   34.2062   42.0204 H   0  0  0  0  0  0  0  0  0  0  0  0
   42.2190   35.7797   42.8200 H   0  0  0  0  0  0  0  0  0  0  0  0
   46.6672   33.9709   42.1599 H   0  0  0  0  0  0  0  0  0  0  0  0
   48.3625   32.5168   43.3207 H   0  0  0  0  0  0  0  0  0  0  0  0
  1 10  1  0
  2  1  1  0
  3  2  1  0
  3  1  1  0
  4  9  1  0
  4  3  1  0
  5  4  1  0
  6  7  1  0
  6  5  1  0
  7  8  1  0
  8  9  1  0
 10 15  2  0
 11 12  2  0
 11 10  1  0
 12 13  1  0
 13 14  2  0
 14 16  1  0
 15 14  1  0
 16 19  1  0
 16 18  1  0
 16 17  1  0
  1 20  1  1
  2 21  1  0
  2 22  1  0
  3 23  1  6
  5 24  1  0
  5 25  1  0
  6 26  1  0
  6 27  1  0
  7 28  1  0
  8 29  1  0
  8 30  1  0
  9 31  1  0
  9 32  1  0
 11 33  1  0
 12 34  1  0
M  ISO  8  20  13  21  13  22  13  23  13  24  13  25  13  26  13  27  13
M  ISO  7  28   5  29  13  30  13  31  13  32  13  33  14  34  14
M  END
>  <minimizedAffinity>  (1) 
-4.98159981

>  <minimizedRMSD>  (1) 
1.40006769

$$$$
