
     RDKit          3D

 34 36  0  0  1  0  0  0  0  0999 V2000
   44.5310   34.7270   43.2590 C   0  0  1  0  0  0  0  0  0  0  0  0
   45.0510   36.1540   42.9640 C   0  0  0  0  0  0  0  0  0  0  0  0
   44.7110   35.1700   41.8770 C   0  0  2  0  0  0  0  0  0  0  0  0
   43.4950   35.4340   40.9960 C   0  0  0  0  0  0  0  0  0  0  0  0
   43.4460   34.3830   39.9500 C   0  0  0  0  0  0  0  0  0  0  0  0
   42.2500   33.4660   40.1050 C   0  0  0  0  0  0  0  0  0  0  0  0
   41.1490   34.3310   40.0950 O   0  0  0  0  0  0  0  0  0  0  0  0
   41.0460   34.8880   41.3610 C   0  0  0  0  0  0  0  0  0  0  0  0
   42.2950   35.5080   41.8820 C   0  0  0  0  0  0  0  0  0  0  0  0
   45.5380   33.8630   43.9380 C   0  0  0  0  0  0  0  0  0  0  0  0
   46.6200   33.3390   43.1850 C   0  0  0  0  0  0  0  0  0  0  0  0
   47.5510   32.5410   43.8460 C   0  0  0  0  0  0  0  0  0  0  0  0
   47.3730   32.3070   45.1750 N   0  0  0  0  0  0  0  0  0  0  0  0
   46.3220   32.8300   45.8540 C   0  0  0  0  0  0  0  0  0  0  0  0
   45.4060   33.6090   45.2260 N   0  0  0  0  0  0  0  0  0  0  0  0
   46.3130   32.4620   47.3110 C   0  0  0  0  0  0  0  0  0  0  0  0
   45.2560   33.0300   47.9740 F   0  0  0  0  0  0  0  0  0  0  0  0
   47.4990   32.9000   47.9080 F   0  0  0  0  0  0  0  0  0  0  0  0
   46.3300   31.0760   47.4190 F   0  0  0  0  0  0  0  0  0  0  0  0
   43.6831   34.2446   43.7672 H   0  0  0  0  0  0  0  0  0  0  0  0
   44.4097   37.0294   43.1441 H   0  0  0  0  0  0  0  0  0  0  0  0
   45.9296   36.7527   43.2462 H   0  0  0  0  0  0  0  0  0  0  0  0
   45.2591   34.7566   41.0175 H   0  0  0  0  0  0  0  0  0  0  0  0
   43.5399   36.3929   40.4589 H   0  0  0  0  0  0  0  0  0  0  0  0
   44.3636   33.7797   40.0128 H   0  0  0  0  0  0  0  0  0  0  0  0
   43.3582   34.8852   38.9753 H   0  0  0  0  0  0  0  0  0  0  0  0
   42.1938   32.7537   39.2687 H   0  0  0  0  0  0  0  0  0  0  0  0
   42.3005   32.8597   41.0214 H   0  0  0  0  0  0  0  0  0  0  0  0
   40.2677   35.6647   41.3292 H   0  0  0  0  0  0  0  0  0  0  0  0
   40.8090   34.0577   42.0425 H   0  0  0  0  0  0  0  0  0  0  0  0
   42.5470   35.0075   42.8286 H   0  0  0  0  0  0  0  0  0  0  0  0
   42.0697   36.5804   41.9783 H   0  0  0  0  0  0  0  0  0  0  0  0
   46.7208   33.5563   42.1114 H   0  0  0  0  0  0  0  0  0  0  0  0
   48.4083   32.1108   43.3075 H   0  0  0  0  0  0  0  0  0  0  0  0
  1 10  1  0
  2  1  1  0
  3  2  1  0
  3  1  1  0
  4  3  1  0
  4  9  1  0
  5  6  1  0
  5  4  1  0
  7  6  1  0
  7  8  1  0
  8  9  1  0
 10 15  2  0
 11 12  2  0
 11 10  1  0
 12 13  1  0
 13 14  2  0
 14 16  1  0
 15 14  1  0
 16 19  1  0
 16 18  1  0
 16 17  1  0
  1 20  1  6
  2 21  1  0
  2 22  1  0
  3 23  1  6
  4 24  1  0
  5 25  1  0
  5 26  1  0
  6 27  1  0
  6 28  1  0
  8 29  1  0
  8 30  1  0
  9 31  1  0
  9 32  1  0
 11 33  1  0
 12 34  1  0
M  ISO  8  20  13  21  13  22  13  23  13  24  13  25  13  26  13  27  13
M  ISO  7  28  13  29  13  30  13  31  13  32  13  33  14  34  14
M  END
>  <minimizedAffinity>  (1) 
-4.9601388

>  <minimizedRMSD>  (1) 
1.61570048

$$$$
