
     RDKit          3D

 21 22  0  0  1  0  0  0  0  0999 V2000
   45.4770   34.1640   44.5000 C   0  0  0  0  0  0  0  0  0  0  0  0
   46.4290   33.6270   43.5940 C   0  0  0  0  0  0  0  0  0  0  0  0
   47.3500   32.6990   44.0900 C   0  0  0  0  0  0  0  0  0  0  0  0
   47.2850   32.3640   45.4030 N   0  0  0  0  0  0  0  0  0  0  0  0
   46.3630   32.9010   46.2280 C   0  0  0  0  0  0  0  0  0  0  0  0
   45.4550   33.8030   45.7790 N   0  0  0  0  0  0  0  0  0  0  0  0
   44.5100   35.1560   43.9830 C   0  0  1  0  0  0  0  0  0  0  0  0
   44.9660   36.6170   44.1400 C   0  0  0  0  0  0  0  0  0  0  0  0
   44.8010   35.9750   42.8030 C   0  0  2  0  0  0  0  0  0  0  0  0
   43.7080   36.3710   42.0330 O   0  0  0  0  0  0  0  0  0  0  0  0
   46.4670   32.4100   47.6420 C   0  0  0  0  0  0  0  0  0  0  0  0
   45.4600   32.9120   48.4370 F   0  0  0  0  0  0  0  0  0  0  0  0
   47.6930   32.8010   48.1850 F   0  0  0  0  0  0  0  0  0  0  0  0
   46.4820   31.0200   47.6350 F   0  0  0  0  0  0  0  0  0  0  0  0
   46.4417   33.9308   42.5369 H   0  0  0  0  0  0  0  0  0  0  0  0
   48.1089   32.2514   43.4314 H   0  0  0  0  0  0  0  0  0  0  0  0
   43.6474   34.5271   44.2484 H   0  0  0  0  0  0  0  0  0  0  0  0
   44.2573   37.3873   44.4781 H   0  0  0  0  0  0  0  0  0  0  0  0
   45.7749   37.1398   44.6714 H   0  0  0  0  0  0  0  0  0  0  0  0
   45.4621   35.8572   41.9318 H   0  0  0  0  0  0  0  0  0  0  0  0
   42.9647   36.6403   42.6289 H   0  0  0  0  0  0  0  0  0  0  0  0
  1  6  2  0
  2  3  2  0
  2  1  1  0
  3  4  1  0
  4  5  2  0
  5 11  1  0
  6  5  1  0
  7  8  1  0
  7  1  1  0
  9  7  1  0
  9  8  1  0
 10  9  1  0
 11 13  1  0
 11 12  1  0
 14 11  1  0
  2 15  1  0
  3 16  1  0
  7 17  1  6
  8 18  1  0
  8 19  1  0
  9 20  1  6
 10 21  1  0
M  ISO  7  15  14  16  14  17  13  18  13  19  13  20  13  21   3
M  END
>  <minimizedAffinity>  (1) 
-4.2882452

>  <minimizedRMSD>  (1) 
0.177826762

$$$$
