
     RDKit          3D

 28 30  0  0  1  0  0  0  0  0999 V2000
   44.3970   34.7180   43.2260 C   0  0  1  0  0  0  0  0  0  0  0  0
   44.8840   36.1250   42.8140 C   0  0  0  0  0  0  0  0  0  0  0  0
   44.4770   35.0870   41.8120 C   0  0  2  0  0  0  0  0  0  0  0  0
   45.4440   33.8880   43.8790 C   0  0  0  0  0  0  0  0  0  0  0  0
   46.5380   33.4280   43.0990 C   0  0  0  0  0  0  0  0  0  0  0  0
   47.5160   32.6650   43.7310 C   0  0  0  0  0  0  0  0  0  0  0  0
   47.3700   32.4040   45.0570 N   0  0  0  0  0  0  0  0  0  0  0  0
   46.3100   32.8640   45.7640 C   0  0  0  0  0  0  0  0  0  0  0  0
   45.3470   33.6090   45.1640 N   0  0  0  0  0  0  0  0  0  0  0  0
   46.3420   32.4760   47.2130 C   0  0  0  0  0  0  0  0  0  0  0  0
   45.3050   33.0340   47.9160 F   0  0  0  0  0  0  0  0  0  0  0  0
   47.5430   32.9090   47.7860 F   0  0  0  0  0  0  0  0  0  0  0  0
   46.3600   31.0900   47.3000 F   0  0  0  0  0  0  0  0  0  0  0  0
   43.1360   35.2460   41.1440 C   0  0  0  0  0  0  0  0  0  0  0  0
   42.9770   35.0850   39.7870 C   0  0  0  0  0  0  0  0  0  0  0  0
   41.7690   35.2210   39.1430 C   0  0  0  0  0  0  0  0  0  0  0  0
   40.6920   35.5290   39.8960 N   0  0  0  0  0  0  0  0  0  0  0  0
   40.8230   35.6920   41.2250 C   0  0  0  0  0  0  0  0  0  0  0  0
   42.0180   35.5550   41.8580 N   0  0  0  0  0  0  0  0  0  0  0  0
   43.5912   34.2642   43.8216 H   0  0  0  0  0  0  0  0  0  0  0  0
   44.2511   37.0072   42.9904 H   0  0  0  0  0  0  0  0  0  0  0  0
   45.7767   36.7404   42.9994 H   0  0  0  0  0  0  0  0  0  0  0  0
   44.9797   34.6794   40.9225 H   0  0  0  0  0  0  0  0  0  0  0  0
   46.6104   33.6674   42.0278 H   0  0  0  0  0  0  0  0  0  0  0  0
   48.3835   32.2836   43.1724 H   0  0  0  0  0  0  0  0  0  0  0  0
   43.8628   34.8342   39.1850 H   0  0  0  0  0  0  0  0  0  0  0  0
   41.6840   35.0838   38.0549 H   0  0  0  0  0  0  0  0  0  0  0  0
   39.9327   35.9447   41.8196 H   0  0  0  0  0  0  0  0  0  0  0  0
  1  4  1  0
  2  1  1  0
  3  2  1  0
  3  1  1  0
  4  9  2  0
  5  6  2  0
  5  4  1  0
  6  7  1  0
  7  8  2  0
  8 10  1  0
  9  8  1  0
 10 13  1  0
 10 12  1  0
 10 11  1  0
 14  3  1  0
 14 19  1  0
 15 14  2  0
 16 15  1  0
 16 17  2  0
 17 18  1  0
 18 19  2  0
  1 20  1  1
  2 21  1  0
  2 22  1  0
  3 23  1  6
  5 24  1  0
  6 25  1  0
 15 26  1  0
 16 27  1  0
 18 28  1  0
M  ISO  8  20  13  21  13  22  13  23  13  24  14  25  14  26  14  27  14
M  ISO  1  28  14
M  END
>  <minimizedAffinity>  (1) 
-5.01306438

>  <minimizedRMSD>  (1) 
1.28719437

$$$$
