
     RDKit          3D

 49 52  0  0  1  0  0  0  0  0999 V2000
   47.0480   34.0420   42.5280 C   0  0  2  0  0  0  0  0  0  0  0  0
   48.4500   34.5060   42.6900 C   0  0  0  0  0  0  0  0  0  0  0  0
   48.8530   35.5170   41.6770 C   0  0  0  0  0  0  0  0  0  0  0  0
   48.6350   35.0240   40.2610 C   0  0  0  0  0  0  0  0  0  0  0  0
   47.3260   34.3290   40.0630 C   0  0  0  0  0  0  0  0  0  0  0  0
   46.3990   34.4530   41.2380 C   0  0  1  0  0  0  0  0  0  0  0  0
   46.1820   34.4560   43.6530 C   0  0  0  0  0  0  0  0  0  0  0  0
   45.4680   35.6330   43.4260 C   0  0  0  0  0  0  0  0  0  0  0  0
   44.6050   36.1290   44.4130 C   0  0  0  0  0  0  0  0  0  0  0  0
   44.5300   35.3800   45.5810 N   0  0  0  0  0  0  0  0  0  0  0  0
   45.2390   34.2450   45.7630 C   0  0  0  0  0  0  0  0  0  0  0  0
   46.0590   33.7960   44.7910 N   0  0  0  0  0  0  0  0  0  0  0  0
   45.2520   33.4970   41.0030 C   0  0  2  0  0  0  0  0  0  0  0  0
   44.7790   33.2900   39.5790 C   0  0  0  0  0  0  0  0  0  0  0  0
   43.9240   33.9750   40.5610 C   0  0  1  0  0  0  0  0  0  0  0  0
   42.7530   33.3040   41.2480 C   0  0  0  0  0  0  0  0  0  0  0  0
   42.4640   31.9190   40.7790 C   0  0  0  0  0  0  0  0  0  0  0  0
   41.3020   31.7550   39.8590 C   0  0  0  0  0  0  0  0  0  0  0  0
   40.1120   32.6080   40.2310 C   0  0  0  0  0  0  0  0  0  0  0  0
   40.6290   34.0480   40.1320 C   0  0  0  0  0  0  0  0  0  0  0  0
   41.5580   34.2130   41.2870 C   0  0  0  0  0  0  0  0  0  0  0  0
   47.1418   32.9461   42.5146 H   0  0  0  0  0  0  0  0  0  0  0  0
   48.5576   34.9511   43.6902 H   0  0  0  0  0  0  0  0  0  0  0  0
   49.1018   33.6303   42.5552 H   0  0  0  0  0  0  0  0  0  0  0  0
   48.2580   36.4294   41.8304 H   0  0  0  0  0  0  0  0  0  0  0  0
   49.9275   35.7148   41.8050 H   0  0  0  0  0  0  0  0  0  0  0  0
   48.6758   35.8884   39.5819 H   0  0  0  0  0  0  0  0  0  0  0  0
   49.4254   34.2884   40.0507 H   0  0  0  0  0  0  0  0  0  0  0  0
   46.8311   34.7628   39.1816 H   0  0  0  0  0  0  0  0  0  0  0  0
   47.5439   33.2586   39.9339 H   0  0  0  0  0  0  0  0  0  0  0  0
   46.0896   35.5053   41.3217 H   0  0  0  0  0  0  0  0  0  0  0  0
   45.5822   36.1712   42.4735 H   0  0  0  0  0  0  0  0  0  0  0  0
   44.0241   37.0524   44.2719 H   0  0  0  0  0  0  0  0  0  0  0  0
   45.1475   33.6858   46.7058 H   0  0  0  0  0  0  0  0  0  0  0  0
   45.5989   32.8675   41.8357 H   0  0  0  0  0  0  0  0  0  0  0  0
   44.5156   32.2820   39.2261 H   0  0  0  0  0  0  0  0  0  0  0  0
   45.1731   33.5335   38.5813 H   0  0  0  0  0  0  0  0  0  0  0  0
   43.3781   34.9277   40.4952 H   0  0  0  0  0  0  0  0  0  0  0  0
   43.0571   33.1365   42.2918 H   0  0  0  0  0  0  0  0  0  0  0  0
   43.3586   31.5502   40.2559 H   0  0  0  0  0  0  0  0  0  0  0  0
   42.1984   31.3551   41.6854 H   0  0  0  0  0  0  0  0  0  0  0  0
   40.9921   30.6997   39.8747 H   0  0  0  0  0  0  0  0  0  0  0  0
   41.6321   32.0789   38.8609 H   0  0  0  0  0  0  0  0  0  0  0  0
   39.2809   32.4438   39.5294 H   0  0  0  0  0  0  0  0  0  0  0  0
   39.7223   32.3704   41.2318 H   0  0  0  0  0  0  0  0  0  0  0  0
   41.1634   34.2011   39.1828 H   0  0  0  0  0  0  0  0  0  0  0  0
   39.8090   34.7807   40.1574 H   0  0  0  0  0  0  0  0  0  0  0  0
   40.9988   34.0088   42.2120 H   0  0  0  0  0  0  0  0  0  0  0  0
   41.9415   35.2430   41.2408 H   0  0  0  0  0  0  0  0  0  0  0  0
  1  2  1  0
  1  7  1  0
  3  2  1  0
  4  3  1  0
  5  4  1  0
  5  6  1  0
  6  1  1  0
  7 12  1  0
  8  7  2  0
  8  9  1  0
  9 10  2  0
 10 11  1  0
 12 11  2  0
 13  6  1  0
 14 15  1  0
 14 13  1  0
 15 13  1  0
 15 16  1  0
 16 21  1  0
 17 16  1  0
 18 19  1  0
 18 17  1  0
 20 19  1  0
 20 21  1  0
  1 22  1  6
  2 23  1  0
  2 24  1  0
  3 25  1  0
  3 26  1  0
  4 27  1  0
  4 28  1  0
  5 29  1  0
  5 30  1  0
  6 31  1  1
  8 32  1  0
  9 33  1  0
 11 34  1  0
 13 35  1  1
 14 36  1  0
 14 37  1  0
 15 38  1  6
 16 39  1  0
 17 40  1  0
 17 41  1  0
 18 42  1  0
 18 43  1  0
 19 44  1  0
 19 45  1  0
 20 46  1  0
 20 47  1  0
 21 48  1  0
 21 49  1  0
M  ISO  8  22  13  23  13  24  13  25  13  26  13  27  13  28  13  29  13
M  ISO  8  30  13  31  13  32  14  33  14  34  14  35  13  36  13  37  13
M  ISO  8  38  13  39  13  40  13  41  13  42  13  43  13  44  13  45  13
M  ISO  4  46  13  47  13  48  13  49  13
M  END
>  <minimizedAffinity>  (1) 
-6.02304411

>  <minimizedRMSD>  (1) 
1.0587877

$$$$
