
     RDKit          3D

 32 34  0  0  1  0  0  0  0  0999 V2000
   44.3260   34.6770   40.9930 C   0  0  1  0  0  0  0  0  0  0  0  0
   44.3240   33.6550   39.8180 C   0  0  0  0  0  0  0  0  0  0  0  0
   43.2920   33.6650   40.9170 C   0  0  2  0  0  0  0  0  0  0  0  0
   41.9230   34.1980   40.5940 C   0  0  0  0  0  0  0  0  0  0  0  0
   41.5170   35.4500   41.0040 C   0  0  0  0  0  0  0  0  0  0  0  0
   40.2830   35.9730   40.7260 C   0  0  0  0  0  0  0  0  0  0  0  0
   39.4320   35.2050   40.0100 N   0  0  0  0  0  0  0  0  0  0  0  0
   39.8110   33.9720   39.5960 C   0  0  0  0  0  0  0  0  0  0  0  0
   41.0330   33.4720   39.8820 N   0  0  0  0  0  0  0  0  0  0  0  0
   38.2280   32.2360   39.6870 C   0  0  0  0  0  0  0  0  0  0  0  0
   38.2380   32.2450   40.9640 O   0  0  0  0  0  0  0  0  0  0  0  0
   38.9970   33.0800   38.8390 N   0  0  0  0  0  0  0  0  0  0  0  0
   45.5060   34.5380   41.8800 C   0  0  0  0  0  0  0  0  0  0  0  0
   45.3270   34.0130   43.1870 C   0  0  0  0  0  0  0  0  0  0  0  0
   46.4340   33.8790   44.0140 C   0  0  0  0  0  0  0  0  0  0  0  0
   47.6400   34.2600   43.5260 N   0  0  0  0  0  0  0  0  0  0  0  0
   47.7800   34.7540   42.2800 C   0  0  0  0  0  0  0  0  0  0  0  0
   46.6990   34.8840   41.4760 N   0  0  0  0  0  0  0  0  0  0  0  0
   49.1930   35.1150   41.9160 C   0  0  0  0  0  0  0  0  0  0  0  0
   49.2500   36.1510   41.0140 F   0  0  0  0  0  0  0  0  0  0  0  0
   49.8040   34.0020   41.3090 F   0  0  0  0  0  0  0  0  0  0  0  0
   49.9100   35.3440   43.0710 F   0  0  0  0  0  0  0  0  0  0  0  0
   44.2653   35.7641   41.1497 H   0  0  0  0  0  0  0  0  0  0  0  0
   45.0807   32.8582   39.7680 H   0  0  0  0  0  0  0  0  0  0  0  0
   44.3204   33.7020   38.7190 H   0  0  0  0  0  0  0  0  0  0  0  0
   42.9239   32.8759   41.5892 H   0  0  0  0  0  0  0  0  0  0  0  0
   42.2225   36.0615   41.5857 H   0  0  0  0  0  0  0  0  0  0  0  0
   39.9957   36.9772   41.0712 H   0  0  0  0  0  0  0  0  0  0  0  0
   37.5635   31.5085   39.1979 H   0  0  0  0  0  0  0  0  0  0  0  0
   38.9692   33.0504   37.8098 H   0  0  0  0  0  0  0  0  0  0  0  0
   44.3275   33.7173   43.5386 H   0  0  0  0  0  0  0  0  0  0  0  0
   46.3357   33.4764   45.0330 H   0  0  0  0  0  0  0  0  0  0  0  0
  1 13  1  0
  2  3  1  0
  2  1  1  0
  3  1  1  0
  4  3  1  0
  4  5  2  0
  6  5  1  0
  7  6  2  0
  8  9  2  0
  8  7  1  0
  9  4  1  0
 10 11  2  0
 12  8  1  0
 12 10  1  0
 13 14  2  0
 14 15  1  0
 16 15  2  0
 17 16  1  0
 18 13  1  0
 18 17  2  0
 19 17  1  0
 19 22  1  0
 20 19  1  0
 21 19  1  0
  1 23  1  6
  2 24  1  0
  2 25  1  0
  3 26  1  1
  5 27  1  0
  6 28  1  0
 10 29  1  0
 12 30  1  0
 14 31  1  0
 15 32  1  0
M  ISO  8  23  13  24  13  25  13  26  13  27  14  28  14  29   6  31  14
M  ISO  1  32  14
M  END
>  <minimizedAffinity>  (1) 
-6.1044383

>  <minimizedRMSD>  (1) 
4.33779478

$$$$
