
     RDKit          3D

 30 32  0  0  1  0  0  0  0  0999 V2000
   44.0110   34.6990   42.4790 C   0  0  1  0  0  0  0  0  0  0  0  0
   44.2270   36.1500   41.9640 C   0  0  0  0  0  0  0  0  0  0  0  0
   44.0640   34.9560   41.0530 C   0  0  2  0  0  0  0  0  0  0  0  0
   45.1700   34.1690   43.2400 C   0  0  0  0  0  0  0  0  0  0  0  0
   46.4420   34.1540   42.6090 C   0  0  0  0  0  0  0  0  0  0  0  0
   47.5260   33.6630   43.3320 C   0  0  0  0  0  0  0  0  0  0  0  0
   47.3100   33.2250   44.5980 N   0  0  0  0  0  0  0  0  0  0  0  0
   46.0880   33.2550   45.1610 C   0  0  0  0  0  0  0  0  0  0  0  0
   45.0380   33.7300   44.4640 N   0  0  0  0  0  0  0  0  0  0  0  0
   46.0630   32.7300   46.5660 C   0  0  0  0  0  0  0  0  0  0  0  0
   45.0900   33.3430   47.3230 F   0  0  0  0  0  0  0  0  0  0  0  0
   47.2960   33.0030   47.1830 F   0  0  0  0  0  0  0  0  0  0  0  0
   45.9400   31.3580   46.5410 F   0  0  0  0  0  0  0  0  0  0  0  0
   42.7450   34.7910   40.3410 C   0  0  0  0  0  0  0  0  0  0  0  0
   42.5710   35.1970   39.0400 C   0  0  0  0  0  0  0  0  0  0  0  0
   41.3840   35.0550   38.3640 C   0  0  0  0  0  0  0  0  0  0  0  0
   40.3500   34.4880   39.0250 N   0  0  0  0  0  0  0  0  0  0  0  0
   40.5060   34.0820   40.3100 C   0  0  0  0  0  0  0  0  0  0  0  0
   41.6820   34.2300   40.9580 N   0  0  0  0  0  0  0  0  0  0  0  0
   39.3800   33.4710   41.0120 C   0  0  0  0  0  0  0  0  0  0  0  0
   38.2780   33.2630   40.3980 O   0  0  0  0  0  0  0  0  0  0  0  0
   43.2895   34.1305   43.0842 H   0  0  0  0  0  0  0  0  0  0  0  0
   43.4271   36.9000   42.0521 H   0  0  0  0  0  0  0  0  0  0  0  0
   44.9715   36.9464   42.1105 H   0  0  0  0  0  0  0  0  0  0  0  0
   44.6679   34.5773   40.2152 H   0  0  0  0  0  0  0  0  0  0  0  0
   46.5674   34.5196   41.5791 H   0  0  0  0  0  0  0  0  0  0  0  0
   48.5320   33.6310   42.8881 H   0  0  0  0  0  0  0  0  0  0  0  0
   43.4216   35.6570   38.5157 H   0  0  0  0  0  0  0  0  0  0  0  0
   41.2784   35.3907   37.3218 H   0  0  0  0  0  0  0  0  0  0  0  0
   39.4804   33.1894   42.0706 H   0  0  0  0  0  0  0  0  0  0  0  0
  1  4  1  0
  2  1  1  0
  3  2  1  0
  3  1  1  0
  4  9  1  0
  5  4  2  0
  5  6  1  0
  6  7  2  0
  7  8  1  0
  8 10  1  0
  9  8  2  0
 10 12  1  0
 10 11  1  0
 13 10  1  0
 14 19  1  0
 14  3  1  0
 15 14  2  0
 16 17  2  0
 16 15  1  0
 17 18  1  0
 18 19  2  0
 18 20  1  0
 21 20  2  0
  1 22  1  6
  2 23  1  0
  2 24  1  0
  3 25  1  6
  5 26  1  0
  6 27  1  0
 15 28  1  0
 16 29  1  0
 20 30  1  0
M  ISO  8  22  13  23  13  24  13  25  13  26  14  27  14  28  14  29  14
M  ISO  1  30   6
M  END
>  <minimizedAffinity>  (1) 
-5.14259768

>  <minimizedRMSD>  (1) 
1.28456116

$$$$
