
     RDKit          3D

 39 42  0  0  1  0  0  0  0  0999 V2000
   47.1030   34.0590   42.4910 C   0  0  2  0  0  0  0  0  0  0  0  0
   48.4850   34.5900   42.6370 C   0  0  0  0  0  0  0  0  0  0  0  0
   48.8430   35.5910   41.5940 C   0  0  0  0  0  0  0  0  0  0  0  0
   48.6290   35.0890   40.1850 C   0  0  0  0  0  0  0  0  0  0  0  0
   47.3740   34.2730   40.0200 C   0  0  0  0  0  0  0  0  0  0  0  0
   46.4390   34.3990   41.1920 C   0  0  1  0  0  0  0  0  0  0  0  0
   46.2190   34.4690   43.6020 C   0  0  0  0  0  0  0  0  0  0  0  0
   45.5420   35.6710   43.3920 C   0  0  0  0  0  0  0  0  0  0  0  0
   44.6700   36.1610   44.3770 C   0  0  0  0  0  0  0  0  0  0  0  0
   44.5480   35.3800   45.5190 N   0  0  0  0  0  0  0  0  0  0  0  0
   45.2200   34.2260   45.6830 C   0  0  0  0  0  0  0  0  0  0  0  0
   46.0490   33.7820   44.7200 N   0  0  0  0  0  0  0  0  0  0  0  0
   45.3260   33.4140   40.9750 C   0  0  2  0  0  0  0  0  0  0  0  0
   44.6680   33.3420   39.6170 C   0  0  0  0  0  0  0  0  0  0  0  0
   43.9190   33.8350   40.7980 C   0  0  1  0  0  0  0  0  0  0  0  0
   42.9010   32.8830   41.3270 C   0  0  0  0  0  0  0  0  0  0  0  0
   41.6000   33.3440   41.0160 C   0  0  0  0  0  0  0  0  0  0  0  0
   40.4710   32.0390   41.7500 S   0  0  0  0  0  0  0  0  0  0  0  0
   42.0090   31.1000   42.3520 C   0  0  0  0  0  0  0  0  0  0  0  0
   42.8390   31.7560   41.9900 N   0  0  0  0  0  0  0  0  0  0  0  0
   47.2454   32.9685   42.5128 H   0  0  0  0  0  0  0  0  0  0  0  0
   48.5736   35.0670   43.6242 H   0  0  0  0  0  0  0  0  0  0  0  0
   49.1747   33.7405   42.5247 H   0  0  0  0  0  0  0  0  0  0  0  0
   48.2232   36.4874   41.7431 H   0  0  0  0  0  0  0  0  0  0  0  0
   49.9162   35.8060   41.7037 H   0  0  0  0  0  0  0  0  0  0  0  0
   48.5706   35.9569   39.5117 H   0  0  0  0  0  0  0  0  0  0  0  0
   49.4763   34.4298   39.9451 H   0  0  0  0  0  0  0  0  0  0  0  0
   46.8503   34.6128   39.1143 H   0  0  0  0  0  0  0  0  0  0  0  0
   47.6726   33.2169   39.9463 H   0  0  0  0  0  0  0  0  0  0  0  0
   46.0902   35.4405   41.2526 H   0  0  0  0  0  0  0  0  0  0  0  0
   45.6911   36.2326   42.4580 H   0  0  0  0  0  0  0  0  0  0  0  0
   44.1180   37.1043   44.2522 H   0  0  0  0  0  0  0  0  0  0  0  0
   45.0915   33.6434   46.6072 H   0  0  0  0  0  0  0  0  0  0  0  0
   45.8310   32.7158   41.6587 H   0  0  0  0  0  0  0  0  0  0  0  0
   44.4207   32.3658   39.1743 H   0  0  0  0  0  0  0  0  0  0  0  0
   44.8961   33.7350   38.6153 H   0  0  0  0  0  0  0  0  0  0  0  0
   43.3554   34.7500   41.0326 H   0  0  0  0  0  0  0  0  0  0  0  0
   41.3166   34.2561   40.4704 H   0  0  0  0  0  0  0  0  0  0  0  0
   42.0678   30.1551   42.9120 H   0  0  0  0  0  0  0  0  0  0  0  0
  1  2  1  0
  1  7  1  0
  3  2  1  0
  4  3  1  0
  5  4  1  0
  5  6  1  0
  6  1  1  0
  7 12  1  0
  8  7  2  0
  8  9  1  0
  9 10  2  0
 10 11  1  0
 12 11  2  0
 13  6  1  0
 14 15  1  0
 14 13  1  0
 15 13  1  0
 15 16  1  0
 16 20  1  0
 17 16  2  0
 17 18  1  0
 18 19  1  0
 20 19  2  0
  1 21  1  6
  2 22  1  0
  2 23  1  0
  3 24  1  0
  3 25  1  0
  4 26  1  0
  4 27  1  0
  5 28  1  0
  5 29  1  0
  6 30  1  1
  8 31  1  0
  9 32  1  0
 11 33  1  0
 13 34  1  1
 14 35  1  0
 14 36  1  0
 15 37  1  6
 17 38  1  0
 19 39  1  0
M  ISO  8  21  13  22  13  23  13  24  13  25  13  26  13  27  13  28  13
M  ISO  8  29  13  30  13  31  14  32  14  33  14  34  13  35  13  36  13
M  ISO  3  37  13  38  14  39  14
M  END
>  <minimizedAffinity>  (1) 
-5.95642996

>  <minimizedRMSD>  (1) 
0.750664115

$$$$
