
     RDKit          3D

 35 37  0  0  1  0  0  0  0  0999 V2000
   43.9650   34.6410   42.3680 C   0  0  1  0  0  0  0  0  0  0  0  0
   44.1560   36.1220   41.9040 C   0  0  0  0  0  0  0  0  0  0  0  0
   43.9900   34.9300   40.9650 C   0  0  2  0  0  0  0  0  0  0  0  0
   45.1080   34.1030   43.1330 C   0  0  0  0  0  0  0  0  0  0  0  0
   46.3470   34.0190   42.4760 C   0  0  0  0  0  0  0  0  0  0  0  0
   47.4400   33.5170   43.1790 C   0  0  0  0  0  0  0  0  0  0  0  0
   47.2460   33.1340   44.4680 N   0  0  0  0  0  0  0  0  0  0  0  0
   46.0540   33.2270   45.0620 C   0  0  0  0  0  0  0  0  0  0  0  0
   45.0190   33.7100   44.3720 N   0  0  0  0  0  0  0  0  0  0  0  0
   46.0490   32.7540   46.4840 C   0  0  0  0  0  0  0  0  0  0  0  0
   45.0750   33.4020   47.2300 F   0  0  0  0  0  0  0  0  0  0  0  0
   47.2850   33.0900   47.0770 F   0  0  0  0  0  0  0  0  0  0  0  0
   45.9660   31.3890   46.5230 F   0  0  0  0  0  0  0  0  0  0  0  0
   42.6540   34.7990   40.2780 C   0  0  0  0  0  0  0  0  0  0  0  0
   42.4790   35.2010   38.9700 C   0  0  0  0  0  0  0  0  0  0  0  0
   41.2870   35.0730   38.3090 C   0  0  0  0  0  0  0  0  0  0  0  0
   40.2490   34.5320   38.9760 N   0  0  0  0  0  0  0  0  0  0  0  0
   40.4040   34.1290   40.2690 C   0  0  0  0  0  0  0  0  0  0  0  0
   41.5810   34.2540   40.9230 N   0  0  0  0  0  0  0  0  0  0  0  0
   39.2930   33.5070   41.0520 C   0  0  0  0  0  0  0  0  0  0  0  0
   38.4890   32.5920   40.1540 C   0  0  0  0  0  0  0  0  0  0  0  0
   39.3700   31.7260   39.5050 O   0  0  0  0  0  0  0  0  0  0  0  0
   43.2588   34.0345   42.9540 H   0  0  0  0  0  0  0  0  0  0  0  0
   43.3483   36.8587   42.0264 H   0  0  0  0  0  0  0  0  0  0  0  0
   44.8896   36.9264   42.0614 H   0  0  0  0  0  0  0  0  0  0  0  0
   44.5833   34.5625   40.1147 H   0  0  0  0  0  0  0  0  0  0  0  0
   46.4517   34.3424   41.4298 H   0  0  0  0  0  0  0  0  0  0  0  0
   48.4292   33.4333   42.7052 H   0  0  0  0  0  0  0  0  0  0  0  0
   43.3330   35.6429   38.4358 H   0  0  0  0  0  0  0  0  0  0  0  0
   41.1800   35.4019   37.2648 H   0  0  0  0  0  0  0  0  0  0  0  0
   39.7136   32.9250   41.8853 H   0  0  0  0  0  0  0  0  0  0  0  0
   38.6384   34.2973   41.4482 H   0  0  0  0  0  0  0  0  0  0  0  0
   37.7754   32.0121   40.7578 H   0  0  0  0  0  0  0  0  0  0  0  0
   37.9286   33.1842   39.4156 H   0  0  0  0  0  0  0  0  0  0  0  0
   39.8879   31.2169   40.1778 H   0  0  0  0  0  0  0  0  0  0  0  0
  1  4  1  0
  2  1  1  0
  3  2  1  0
  3  1  1  0
  4  9  1  0
  5  4  2  0
  5  6  1  0
  6  7  2  0
  7  8  1  0
  8 10  1  0
  9  8  2  0
 10 13  1  0
 10 12  1  0
 10 11  1  0
 14 19  1  0
 14  3  1  0
 15 14  2  0
 16 15  1  0
 16 17  2  0
 17 18  1  0
 18 19  2  0
 18 20  1  0
 21 20  1  0
 22 21  1  0
  1 23  1  1
  2 24  1  0
  2 25  1  0
  3 26  1  6
  5 27  1  0
  6 28  1  0
 15 29  1  0
 16 30  1  0
 20 31  1  0
 20 32  1  0
 21 33  1  0
 21 34  1  0
 22 35  1  0
M  ISO  8  23  13  24  13  25  13  26  13  27  14  28  14  29  14  30  14
M  ISO  5  31   8  32   8  33   8  34   8  35   3
M  END
>  <minimizedAffinity>  (1) 
-5.0374198

>  <minimizedRMSD>  (1) 
0.0558569022

$$$$
