
     RDKit          3D

 23 24  0  0  1  0  0  0  0  0999 V2000
   46.8920   33.7850   42.8070 C   0  0  1  0  0  0  0  0  0  0  0  0
   48.3160   34.3930   42.8400 C   0  0  1  0  0  0  0  0  0  0  0  0
   48.0580   32.9500   42.9980 C   0  0  0  0  0  0  0  0  0  0  0  0
   46.0500   34.2400   43.9380 C   0  0  0  0  0  0  0  0  0  0  0  0
   46.0970   33.4930   45.1580 C   0  0  0  0  0  0  0  0  0  0  0  0
   45.3280   33.9070   46.2360 C   0  0  0  0  0  0  0  0  0  0  0  0
   44.5580   35.0290   46.0590 N   0  0  0  0  0  0  0  0  0  0  0  0
   44.5390   35.7110   44.8870 C   0  0  0  0  0  0  0  0  0  0  0  0
   45.2750   35.3230   43.8420 N   0  0  0  0  0  0  0  0  0  0  0  0
   48.9530   34.7630   41.5140 C   0  0  0  0  0  0  0  0  0  0  0  0
   49.2430   36.2300   41.3930 C   0  0  0  0  0  0  0  0  0  0  0  0
   46.0327   33.6940   42.1263 H   0  0  0  0  0  0  0  0  0  0  0  0
   48.8003   35.2024   43.4060 H   0  0  0  0  0  0  0  0  0  0  0  0
   48.2270   32.4767   43.9765 H   0  0  0  0  0  0  0  0  0  0  0  0
   48.4371   32.0559   42.4814 H   0  0  0  0  0  0  0  0  0  0  0  0
   46.7354   32.6010   45.2400 H   0  0  0  0  0  0  0  0  0  0  0  0
   45.3352   33.3601   47.1904 H   0  0  0  0  0  0  0  0  0  0  0  0
   43.9031   36.6039   44.7948 H   0  0  0  0  0  0  0  0  0  0  0  0
   49.8979   34.2092   41.4122 H   0  0  0  0  0  0  0  0  0  0  0  0
   48.2372   34.5022   40.7205 H   0  0  0  0  0  0  0  0  0  0  0  0
   49.3301   36.6706   42.3971 H   0  0  0  0  0  0  0  0  0  0  0  0
   50.1869   36.3733   40.8466 H   0  0  0  0  0  0  0  0  0  0  0  0
   48.4247   36.7217   40.8466 H   0  0  0  0  0  0  0  0  0  0  0  0
  1  2  1  0
  1  3  1  0
  1  4  1  0
  2  3  1  0
  4  5  2  0
  5  6  1  0
  7  6  2  0
  8  7  1  0
  9  4  1  0
  9  8  2  0
 10  2  1  0
 11 10  1  0
  1 12  1  6
  2 13  1  1
  3 14  1  0
  3 15  1  0
  5 16  1  0
  6 17  1  0
  8 18  1  0
 10 19  1  0
 10 20  1  0
 11 21  1  0
 11 22  1  0
 11 23  1  0
M  ISO  8  12  13  13  13  14  13  15  13  16  14  17  14  18  14  19   8
M  ISO  4  20   8  21   8  22   8  23   8
M  END
>  <minimizedAffinity>  (1) 
-3.94735456

>  <minimizedRMSD>  (1) 
3.96264911

$$$$
