
     RDKit          3D

 24 26  0  0  1  0  0  0  0  0999 V2000
   44.5640   35.0950   43.2120 C   0  0  1  0  0  0  0  0  0  0  0  0
   46.0880   35.1480   43.0470 C   0  0  2  0  0  0  0  0  0  0  0  0
   45.2670   36.3580   43.2210 C   0  0  0  0  0  0  0  0  0  0  0  0
   43.8580   34.5640   42.0290 C   0  0  0  0  0  0  0  0  0  0  0  0
   43.3820   35.5090   41.0800 C   0  0  0  0  0  0  0  0  0  0  0  0
   42.7160   35.0260   39.9360 C   0  0  0  0  0  0  0  0  0  0  0  0
   42.5740   33.6670   39.8240 N   0  0  0  0  0  0  0  0  0  0  0  0
   43.0450   32.8080   40.7560 C   0  0  0  0  0  0  0  0  0  0  0  0
   43.6770   33.2480   41.8420 N   0  0  0  0  0  0  0  0  0  0  0  0
   46.7140   34.7930   41.7560 C   0  0  0  0  0  0  0  0  0  0  0  0
   48.1530   35.1960   41.4820 C   0  0  0  0  0  0  0  0  0  0  0  0
   47.8550   33.7750   41.9220 C   0  0  0  0  0  0  0  0  0  0  0  0
   43.8070   34.6804   43.8940 H   0  0  0  0  0  0  0  0  0  0  0  0
   46.9672   34.7215   43.5521 H   0  0  0  0  0  0  0  0  0  0  0  0
   45.1419   37.0520   42.3768 H   0  0  0  0  0  0  0  0  0  0  0  0
   45.3007   37.2008   43.9271 H   0  0  0  0  0  0  0  0  0  0  0  0
   43.5295   36.5881   41.2344 H   0  0  0  0  0  0  0  0  0  0  0  0
   42.3271   35.7093   39.1667 H   0  0  0  0  0  0  0  0  0  0  0  0
   42.9035   31.7264   40.6144 H   0  0  0  0  0  0  0  0  0  0  0  0
   45.7896   34.9073   41.1708 H   0  0  0  0  0  0  0  0  0  0  0  0
   48.4796   35.3926   40.4502 H   0  0  0  0  0  0  0  0  0  0  0  0
   48.8145   35.9953   41.8474 H   0  0  0  0  0  0  0  0  0  0  0  0
   48.1492   33.4360   42.9262 H   0  0  0  0  0  0  0  0  0  0  0  0
   48.0708   32.7732   41.5222 H   0  0  0  0  0  0  0  0  0  0  0  0
  1  3  1  0
  2  1  1  0
  2  3  1  0
  4  1  1  0
  5  4  2  0
  6  5  1  0
  7  6  2  0
  7  8  1  0
  8  9  2  0
  9  4  1  0
 10 12  1  0
 10  2  1  0
 11 10  1  0
 11 12  1  0
  1 13  1  1
  2 14  1  1
  3 15  1  0
  3 16  1  0
  5 17  1  0
  6 18  1  0
  8 19  1  0
 10 20  1  0
 11 21  1  0
 11 22  1  0
 12 23  1  0
 12 24  1  0
M  ISO  8  13  13  14  13  15  13  16  13  17  14  18  14  19  14  20  13
M  ISO  4  21  13  22  13  23  13  24  13
M  END
>  <minimizedAffinity>  (1) 
-3.70248699

>  <minimizedRMSD>  (1) 
5.0076313

$$$$
