
     RDKit          3D

 23 24  0  0  1  0  0  0  0  0999 V2000
   45.2470   33.5060   43.7240 C   0  0  1  0  0  0  0  0  0  0  0  0
   45.8650   34.9320   43.5830 C   0  0  1  0  0  0  0  0  0  0  0  0
   45.9060   33.8800   42.5120 C   0  0  0  0  0  0  0  0  0  0  0  0
   45.8760   32.7470   44.8140 C   0  0  0  0  0  0  0  0  0  0  0  0
   46.8550   31.7510   44.4720 C   0  0  0  0  0  0  0  0  0  0  0  0
   47.4780   31.0150   45.4830 C   0  0  0  0  0  0  0  0  0  0  0  0
   47.1090   31.2970   46.7670 N   0  0  0  0  0  0  0  0  0  0  0  0
   46.1760   32.2520   47.0430 C   0  0  0  0  0  0  0  0  0  0  0  0
   45.5820   32.9510   46.0880 N   0  0  0  0  0  0  0  0  0  0  0  0
   45.8360   32.4920   48.4800 C   0  0  0  0  0  0  0  0  0  0  0  0
   44.8390   36.0190   43.3640 C   0  0  0  0  0  0  0  0  0  0  0  0
   45.4070   37.2710   43.3070 F   0  0  0  0  0  0  0  0  0  0  0  0
   44.2250   35.7940   42.1260 F   0  0  0  0  0  0  0  0  0  0  0  0
   43.8420   35.9480   44.3100 F   0  0  0  0  0  0  0  0  0  0  0  0
   44.2771   33.0087   43.8724 H   0  0  0  0  0  0  0  0  0  0  0  0
   46.5958   35.5560   44.1184 H   0  0  0  0  0  0  0  0  0  0  0  0
   45.3110   34.0201   41.5975 H   0  0  0  0  0  0  0  0  0  0  0  0
   46.7247   33.4296   41.9316 H   0  0  0  0  0  0  0  0  0  0  0  0
   47.1125   31.5692   43.4181 H   0  0  0  0  0  0  0  0  0  0  0  0
   48.2299   30.2451   45.2554 H   0  0  0  0  0  0  0  0  0  0  0  0
   46.5665   31.9764   49.1207 H   0  0  0  0  0  0  0  0  0  0  0  0
   45.8637   33.5718   48.6879 H   0  0  0  0  0  0  0  0  0  0  0  0
   44.8278   32.1043   48.6879 H   0  0  0  0  0  0  0  0  0  0  0  0
  1  4  1  0
  2  1  1  0
  3  2  1  0
  3  1  1  0
  4  9  1  0
  5  4  2  0
  5  6  1  0
  6  7  2  0
  7  8  1  0
  8 10  1  0
  9  8  2  0
 11  2  1  0
 11 14  1  0
 12 11  1  0
 13 11  1  0
  1 15  1  6
  2 16  1  1
  3 17  1  0
  3 18  1  0
  5 19  1  0
  6 20  1  0
 10 21  1  0
 10 22  1  0
 10 23  1  0
M  ISO  8  15  13  16  13  17  13  18  13  19  14  20  14  21   8  22   8
M  ISO  1  23   8
M  END
>  <minimizedAffinity>  (1) 
-3.99558949

>  <minimizedRMSD>  (1) 
0.418171585

$$$$
