
     RDKit          3D

 36 38  0  0  1  0  0  0  0  0999 V2000
   47.2310   34.0930   42.4260 C   0  0  2  0  0  0  0  0  0  0  0  0
   48.5830   34.6940   42.5740 C   0  0  0  0  0  0  0  0  0  0  0  0
   48.8970   35.6940   41.5170 C   0  0  0  0  0  0  0  0  0  0  0  0
   48.7280   35.1610   40.1190 C   0  0  0  0  0  0  0  0  0  0  0  0
   47.5200   34.2730   39.9570 C   0  0  0  0  0  0  0  0  0  0  0  0
   46.5640   34.3760   41.1150 C   0  0  1  0  0  0  0  0  0  0  0  0
   46.3160   34.4730   43.5210 C   0  0  0  0  0  0  0  0  0  0  0  0
   45.6060   35.6550   43.3000 C   0  0  0  0  0  0  0  0  0  0  0  0
   44.6990   36.1230   44.2640 C   0  0  0  0  0  0  0  0  0  0  0  0
   44.5790   35.3410   45.4050 N   0  0  0  0  0  0  0  0  0  0  0  0
   45.2810   34.2110   45.5800 C   0  0  0  0  0  0  0  0  0  0  0  0
   46.1480   33.7800   44.6360 N   0  0  0  0  0  0  0  0  0  0  0  0
   45.4930   33.3350   40.9120 C   0  0  2  0  0  0  0  0  0  0  0  0
   44.8370   33.2230   39.5570 C   0  0  0  0  0  0  0  0  0  0  0  0
   44.0760   33.7120   40.7270 C   0  0  1  0  0  0  0  0  0  0  0  0
   43.0830   32.8250   41.4350 C   0  0  0  0  0  0  0  0  0  0  0  0
   42.8300   31.6690   40.7120 F   0  0  0  0  0  0  0  0  0  0  0  0
   41.9320   33.5410   41.6090 F   0  0  0  0  0  0  0  0  0  0  0  0
   43.5520   32.4240   42.6640 F   0  0  0  0  0  0  0  0  0  0  0  0
   47.4289   33.0118   42.4694 H   0  0  0  0  0  0  0  0  0  0  0  0
   48.6398   35.1908   43.5538 H   0  0  0  0  0  0  0  0  0  0  0  0
   49.3159   33.8789   42.4821 H   0  0  0  0  0  0  0  0  0  0  0  0
   48.2273   36.5574   41.6441 H   0  0  0  0  0  0  0  0  0  0  0  0
   49.9560   35.9677   41.6339 H   0  0  0  0  0  0  0  0  0  0  0  0
   48.6286   36.0134   39.4308 H   0  0  0  0  0  0  0  0  0  0  0  0
   49.6135   34.5473   39.8969 H   0  0  0  0  0  0  0  0  0  0  0  0
   46.9910   34.5628   39.0371 H   0  0  0  0  0  0  0  0  0  0  0  0
   47.8757   33.2331   39.9113 H   0  0  0  0  0  0  0  0  0  0  0  0
   46.1643   35.4003   41.1461 H   0  0  0  0  0  0  0  0  0  0  0  0
   45.7577   36.2205   42.3688 H   0  0  0  0  0  0  0  0  0  0  0  0
   44.1213   37.0486   44.1245 H   0  0  0  0  0  0  0  0  0  0  0  0
   45.1495   33.6277   46.5033 H   0  0  0  0  0  0  0  0  0  0  0  0
   46.0222   32.6595   41.6003 H   0  0  0  0  0  0  0  0  0  0  0  0
   44.6175   32.2333   39.1301 H   0  0  0  0  0  0  0  0  0  0  0  0
   45.0537   33.6065   38.5491 H   0  0  0  0  0  0  0  0  0  0  0  0
   43.4546   34.6072   40.8768 H   0  0  0  0  0  0  0  0  0  0  0  0
  1  2  1  0
  1  7  1  0
  3  2  1  0
  4  3  1  0
  5  4  1  0
  5  6  1  0
  6  1  1  0
  7 12  1  0
  8  7  2  0
  8  9  1  0
  9 10  2  0
 10 11  1  0
 12 11  2  0
 13  6  1  0
 14 15  1  0
 14 13  1  0
 15 13  1  0
 15 16  1  0
 16 18  1  0
 16 19  1  0
 17 16  1  0
  1 20  1  6
  2 21  1  0
  2 22  1  0
  3 23  1  0
  3 24  1  0
  4 25  1  0
  4 26  1  0
  5 27  1  0
  5 28  1  0
  6 29  1  1
  8 30  1  0
  9 31  1  0
 11 32  1  0
 13 33  1  1
 14 34  1  0
 14 35  1  0
 15 36  1  6
M  ISO  8  20  13  21  13  22  13  23  13  24  13  25  13  26  13  27  13
M  ISO  8  28  13  29  13  30  14  31  14  32  14  33  13  34  13  35  13
M  ISO  1  36  13
M  END
>  <minimizedAffinity>  (1) 
-5.58418417

>  <minimizedRMSD>  (1) 
0.53425014

$$$$
