
     RDKit          3D

 36 38  0  0  1  0  0  0  0  0999 V2000
   46.0170   34.2740   41.1140 C   0  0  0  0  0  0  0  0  0  0  0  0
   46.4760   34.7330   42.3760 C   0  0  0  0  0  0  0  0  0  0  0  0
   45.6400   35.4570   43.2210 C   0  0  0  0  0  0  0  0  0  0  0  0
   44.3780   35.6940   42.7720 N   0  0  0  0  0  0  0  0  0  0  0  0
   43.9690   35.2380   41.5460 C   0  0  0  0  0  0  0  0  0  0  0  0
   44.7640   34.5500   40.7440 N   0  0  0  0  0  0  0  0  0  0  0  0
   46.9610   33.5290   40.2730 C   0  0  1  0  0  0  0  0  0  0  0  0
   47.9530   34.4980   39.5340 C   0  0  1  0  0  0  0  0  0  0  0  0
   48.3520   33.4010   40.4960 C   0  0  0  0  0  0  0  0  0  0  0  0
   48.1820   34.1450   38.0850 C   0  0  0  0  0  0  0  0  0  0  0  0
   48.9720   35.0380   37.4220 F   0  0  0  0  0  0  0  0  0  0  0  0
   48.8200   32.8890   38.0260 F   0  0  0  0  0  0  0  0  0  0  0  0
   46.9770   33.9570   37.4260 F   0  0  0  0  0  0  0  0  0  0  0  0
   42.6630   35.5510   41.2090 O   0  0  0  0  0  0  0  0  0  0  0  0
   41.4410   34.4490   39.3460 C   0  0  0  0  0  0  0  0  0  0  0  0
   41.7240   34.7520   40.6550 C   0  0  0  0  0  0  0  0  0  0  0  0
   40.9220   34.1440   41.6290 C   0  0  0  0  0  0  0  0  0  0  0  0
   39.8990   33.2840   41.2120 C   0  0  0  0  0  0  0  0  0  0  0  0
   39.6600   33.0190   39.9000 C   0  0  0  0  0  0  0  0  0  0  0  0
   40.4380   33.6050   38.9300 C   0  0  0  0  0  0  0  0  0  0  0  0
   43.3600   34.4010   37.9750 N   0  0  0  0  0  0  0  0  0  0  0  0
   42.2640   35.0320   38.3330 C   0  0  0  0  0  0  0  0  0  0  0  0
   42.5410   36.0550   37.4120 N   0  0  0  0  0  0  0  0  0  0  0  0
   43.6690   33.5120   38.3730 H   0  0  0  0  0  0  0  0  0  0  0  0
   47.5069   34.5135   42.6907 H   0  0  0  0  0  0  0  0  0  0  0  0
   45.9823   35.8190   44.2017 H   0  0  0  0  0  0  0  0  0  0  0  0
   46.2202   32.7405   40.0744 H   0  0  0  0  0  0  0  0  0  0  0  0
   48.1016   35.5833   39.4335 H   0  0  0  0  0  0  0  0  0  0  0  0
   48.7648   33.6735   41.4785 H   0  0  0  0  0  0  0  0  0  0  0  0
   49.0476   32.5526   40.4165 H   0  0  0  0  0  0  0  0  0  0  0  0
   41.0922   34.3380   42.6983 H   0  0  0  0  0  0  0  0  0  0  0  0
   39.2656   32.8053   41.9734 H   0  0  0  0  0  0  0  0  0  0  0  0
   38.8454   32.3368   39.6152 H   0  0  0  0  0  0  0  0  0  0  0  0
   40.2650   33.4065   37.8620 H   0  0  0  0  0  0  0  0  0  0  0  0
   41.8976   36.8542   37.3210 H   0  0  0  0  0  0  0  0  0  0  0  0
   43.3876   36.0063   36.8274 H   0  0  0  0  0  0  0  0  0  0  0  0
  1  2  2  0
  2  3  1  0
  4  3  2  0
  5  4  1  0
  6  1  1  0
  6  5  2  0
  7  9  1  0
  7  1  1  0
  8  7  1  0
  8  9  1  0
 10  8  1  0
 11 10  1  0
 12 10  1  0
 13 10  1  0
 14  5  1  0
 15 16  2  0
 16 14  1  0
 16 17  1  0
 18 17  2  0
 19 18  1  0
 20 15  1  0
 20 19  2  0
 21 22  2  0
 21 24  1  0
 22 15  1  0
 23 22  1  0
  2 25  1  0
  3 26  1  0
  7 27  1  6
  8 28  1  1
  9 29  1  0
  9 30  1  0
 17 31  1  0
 18 32  1  0
 19 33  1  0
 20 34  1  0
 23 35  1  0
 23 36  1  0
M  ISO  8  25  14  26  14  27  13  28  13  29  13  30  13  31  14  32  14
M  ISO  2  33  14  34  14
M  END
>  <minimizedAffinity>  (1) 
-6.09934139

>  <minimizedRMSD>  (1) 
9.29433346

$$$$
