
     RDKit          3D

 34 37  0  0  1  0  0  0  0  0999 V2000
   46.0520   32.3160   44.6040 C   0  0  0  0  0  0  0  0  0  0  0  0
   47.0010   31.4820   43.9370 C   0  0  0  0  0  0  0  0  0  0  0  0
   47.8140   30.6130   44.6530 C   0  0  0  0  0  0  0  0  0  0  0  0
   47.6530   30.6060   46.0130 N   0  0  0  0  0  0  0  0  0  0  0  0
   46.7340   31.4200   46.6160 C   0  0  0  0  0  0  0  0  0  0  0  0
   45.9590   32.2490   45.9240 N   0  0  0  0  0  0  0  0  0  0  0  0
   45.2390   33.2250   43.7860 C   0  0  1  0  0  0  0  0  0  0  0  0
   45.8390   34.6770   43.7930 C   0  0  1  0  0  0  0  0  0  0  0  0
   45.6420   33.8180   42.5670 C   0  0  0  0  0  0  0  0  0  0  0  0
   44.8080   35.7640   43.9500 C   0  0  0  0  0  0  0  0  0  0  0  0
   45.2620   37.0020   43.6030 F   0  0  0  0  0  0  0  0  0  0  0  0
   43.7110   35.4630   43.1130 F   0  0  0  0  0  0  0  0  0  0  0  0
   44.2790   35.7630   45.2310 F   0  0  0  0  0  0  0  0  0  0  0  0
   46.6810   31.3110   47.9970 O   0  0  0  0  0  0  0  0  0  0  0  0
   48.1670   30.1880   49.3800 N   0  0  0  0  0  0  0  0  0  0  0  0
   47.8640   31.3270   48.7210 C   0  0  0  0  0  0  0  0  0  0  0  0
   48.8640   32.2120   48.9710 N   0  0  0  0  0  0  0  0  0  0  0  0
   49.7750   31.6250   49.7750 C   0  0  0  0  0  0  0  0  0  0  0  0
   50.9540   32.1370   50.2910 C   0  0  0  0  0  0  0  0  0  0  0  0
   51.7260   31.3660   51.0870 N   0  0  0  0  0  0  0  0  0  0  0  0
   51.2860   30.0990   51.3410 C   0  0  0  0  0  0  0  0  0  0  0  0
   50.1400   29.6040   50.8390 N   0  0  0  0  0  0  0  0  0  0  0  0
   49.3340   30.3380   50.0380 C   0  0  0  0  0  0  0  0  0  0  0  0
   51.3690   33.4720   49.9940 N   0  0  0  0  0  0  0  0  0  0  0  0
   47.0889   31.5288   42.8415 H   0  0  0  0  0  0  0  0  0  0  0  0
   48.5488   29.9643   44.1538 H   0  0  0  0  0  0  0  0  0  0  0  0
   44.3136   32.6757   44.0138 H   0  0  0  0  0  0  0  0  0  0  0  0
   46.6659   35.2100   44.2851 H   0  0  0  0  0  0  0  0  0  0  0  0
   46.5242   33.4207   42.0436 H   0  0  0  0  0  0  0  0  0  0  0  0
   45.1252   33.9869   41.6107 H   0  0  0  0  0  0  0  0  0  0  0  0
   47.5927   29.3330   49.3799 H   0  0  0  0  0  0  0  0  0  0  0  0
   51.8975   29.4518   51.9869 H   0  0  0  0  0  0  0  0  0  0  0  0
   52.2487   33.8371   50.3860 H   0  0  0  0  0  0  0  0  0  0  0  0
   50.7884   34.0690   49.3879 H   0  0  0  0  0  0  0  0  0  0  0  0
  1  6  1  0
  2  1  2  0
  2  3  1  0
  3  4  2  0
  4  5  1  0
  5 14  1  0
  6  5  2  0
  7  8  1  0
  7  1  1  0
  8 10  1  0
  9  7  1  0
  9  8  1  0
 10 13  1  0
 11 10  1  0
 12 10  1  0
 14 16  1  0
 15 23  1  0
 16 17  2  0
 16 15  1  0
 17 18  1  0
 18 23  2  0
 18 19  1  0
 19 20  2  0
 20 21  1  0
 22 21  2  0
 23 22  1  0
 24 19  1  0
  2 25  1  0
  3 26  1  0
  7 27  1  6
  8 28  1  1
  9 29  1  0
  9 30  1  0
 15 31  1  0
 21 32  1  0
 24 33  1  0
 24 34  1  0
M  ISO  8  25  14  26  14  27  13  28  13  29  13  30  13  31   9  32  14
M  END
>  <minimizedAffinity>  (1) 
-5.96407557

>  <minimizedRMSD>  (1) 
1.72141159

$$$$
