
     RDKit          3D

 28 29  0  0  1  0  0  0  0  0999 V2000
   45.9290   32.6840   44.5370 C   0  0  0  0  0  0  0  0  0  0  0  0
   46.3510   31.4120   44.0550 C   0  0  0  0  0  0  0  0  0  0  0  0
   47.1210   30.5600   44.8580 C   0  0  0  0  0  0  0  0  0  0  0  0
   47.4190   31.0430   46.1020 N   0  0  0  0  0  0  0  0  0  0  0  0
   46.9920   32.2740   46.5260 C   0  0  0  0  0  0  0  0  0  0  0  0
   46.2680   33.0600   45.7540 N   0  0  0  0  0  0  0  0  0  0  0  0
   45.1350   33.5340   43.6330 C   0  0  1  0  0  0  0  0  0  0  0  0
   45.8300   34.9250   43.4050 C   0  0  1  0  0  0  0  0  0  0  0  0
   45.5110   33.9180   42.3250 C   0  0  0  0  0  0  0  0  0  0  0  0
   44.8790   36.0960   43.4460 C   0  0  0  0  0  0  0  0  0  0  0  0
   45.4850   37.2980   43.2130 F   0  0  0  0  0  0  0  0  0  0  0  0
   43.8990   35.9120   42.4540 F   0  0  0  0  0  0  0  0  0  0  0  0
   44.1730   36.1130   44.6400 F   0  0  0  0  0  0  0  0  0  0  0  0
   47.3900   32.6040   47.8230 O   0  0  0  0  0  0  0  0  0  0  0  0
   47.7360   31.5660   48.6670 C   0  0  0  0  0  0  0  0  0  0  0  0
   48.9680   31.5980   49.1830 C   0  0  0  0  0  0  0  0  0  0  0  0
   49.5780   30.6100   50.1100 C   0  0  0  0  0  0  0  0  0  0  0  0
   46.0691   31.0946   43.0402 H   0  0  0  0  0  0  0  0  0  0  0  0
   47.4615   29.5728   44.5122 H   0  0  0  0  0  0  0  0  0  0  0  0
   44.1883   33.0940   43.9795 H   0  0  0  0  0  0  0  0  0  0  0  0
   46.7153   35.4600   43.7793 H   0  0  0  0  0  0  0  0  0  0  0  0
   44.7276   34.1516   41.5890 H   0  0  0  0  0  0  0  0  0  0  0  0
   46.1231   33.4332   41.5502 H   0  0  0  0  0  0  0  0  0  0  0  0
   47.0323   30.7539   48.9023 H   0  0  0  0  0  0  0  0  0  0  0  0
   49.6000   32.4491   48.8893 H   0  0  0  0  0  0  0  0  0  0  0  0
   49.3886   30.9168   51.1492 H   0  0  0  0  0  0  0  0  0  0  0  0
   49.1343   29.6191   49.9335 H   0  0  0  0  0  0  0  0  0  0  0  0
   50.6627   30.5627   49.9335 H   0  0  0  0  0  0  0  0  0  0  0  0
  1  6  1  0
  2  1  2  0
  2  3  1  0
  3  4  2  0
  4  5  1  0
  5 14  1  0
  6  5  2  0
  7  1  1  0
  8 10  1  0
  8  7  1  0
  9  8  1  0
  9  7  1  0
 10 13  1  0
 11 10  1  0
 12 10  1  0
 14 15  1  0
 15 16  2  0
 16 17  1  0
  2 18  1  0
  3 19  1  0
  7 20  1  6
  8 21  1  1
  9 22  1  0
  9 23  1  0
 15 24  1  0
 16 25  1  0
 17 26  1  0
 17 27  1  0
 17 28  1  0
M  ISO  8  18  14  19  14  20  13  21  13  22  13  23  13  26   8  27   8
M  ISO  1  28   8
M  END
>  <minimizedAffinity>  (1) 
-4.55511713

>  <minimizedRMSD>  (1) 
0.781407595

$$$$
