
     RDKit          3D

 36 38  0  0  1  0  0  0  0  0999 V2000
   47.2170   34.0700   42.4770 C   0  0  2  0  0  0  0  0  0  0  0  0
   48.5530   34.7180   42.5810 C   0  0  0  0  0  0  0  0  0  0  0  0
   48.8250   35.6830   41.4890 C   0  0  0  0  0  0  0  0  0  0  0  0
   48.6420   35.1060   40.1100 C   0  0  0  0  0  0  0  0  0  0  0  0
   47.4470   34.2000   39.9920 C   0  0  0  0  0  0  0  0  0  0  0  0
   46.5200   34.2880   41.1680 C   0  0  1  0  0  0  0  0  0  0  0  0
   46.3100   34.4610   43.5740 C   0  0  0  0  0  0  0  0  0  0  0  0
   45.6160   35.6520   43.3500 C   0  0  0  0  0  0  0  0  0  0  0  0
   44.7150   36.1340   44.3120 C   0  0  0  0  0  0  0  0  0  0  0  0
   44.5820   35.3560   45.4540 N   0  0  0  0  0  0  0  0  0  0  0  0
   45.2700   34.2090   45.6350 C   0  0  0  0  0  0  0  0  0  0  0  0
   46.1290   33.7740   44.6900 N   0  0  0  0  0  0  0  0  0  0  0  0
   45.5000   33.1820   41.0240 C   0  0  2  0  0  0  0  0  0  0  0  0
   44.4750   33.2940   39.9180 C   0  0  0  0  0  0  0  0  0  0  0  0
   44.0720   33.3970   41.3380 C   0  0  1  0  0  0  0  0  0  0  0  0
   43.3870   32.1830   41.9510 C   0  0  0  0  0  0  0  0  0  0  0  0
   47.4477   32.9972   42.5534 H   0  0  0  0  0  0  0  0  0  0  0  0
   48.6076   35.2528   43.5407 H   0  0  0  0  0  0  0  0  0  0  0  0
   49.3076   33.9211   42.5061 H   0  0  0  0  0  0  0  0  0  0  0  0
   48.1404   36.5366   41.6017 H   0  0  0  0  0  0  0  0  0  0  0  0
   49.8814   35.9770   41.5763 H   0  0  0  0  0  0  0  0  0  0  0  0
   48.5211   35.9362   39.3985 H   0  0  0  0  0  0  0  0  0  0  0  0
   49.5321   34.4971   39.8935 H   0  0  0  0  0  0  0  0  0  0  0  0
   46.8883   34.4747   39.0852 H   0  0  0  0  0  0  0  0  0  0  0  0
   47.8230   33.1672   39.9489 H   0  0  0  0  0  0  0  0  0  0  0  0
   46.0803   35.2963   41.1744 H   0  0  0  0  0  0  0  0  0  0  0  0
   45.7759   36.2134   42.4177 H   0  0  0  0  0  0  0  0  0  0  0  0
   44.1508   37.0676   44.1703 H   0  0  0  0  0  0  0  0  0  0  0  0
   45.1297   33.6262   46.5573 H   0  0  0  0  0  0  0  0  0  0  0  0
   46.2494   32.4465   41.3516 H   0  0  0  0  0  0  0  0  0  0  0  0
   44.4545   34.1842   39.2722 H   0  0  0  0  0  0  0  0  0  0  0  0
   44.1753   32.6705   39.0628 H   0  0  0  0  0  0  0  0  0  0  0  0
   43.4922   34.1412   41.9037 H   0  0  0  0  0  0  0  0  0  0  0  0
   43.4272   32.2543   43.0480 H   0  0  0  0  0  0  0  0  0  0  0  0
   42.3373   32.1502   41.6239 H   0  0  0  0  0  0  0  0  0  0  0  0
   43.9017   31.2675   41.6239 H   0  0  0  0  0  0  0  0  0  0  0  0
  1  2  1  0
  1  7  1  0
  3  2  1  0
  4  3  1  0
  5  4  1  0
  5  6  1  0
  6  1  1  0
  7 12  1  0
  8  7  2  0
  8  9  1  0
  9 10  2  0
 10 11  1  0
 12 11  2  0
 13  6  1  0
 13 15  1  0
 14 13  1  0
 14 15  1  0
 15 16  1  0
  1 17  1  1
  2 18  1  0
  2 19  1  0
  3 20  1  0
  3 21  1  0
  4 22  1  0
  4 23  1  0
  5 24  1  0
  5 25  1  0
  6 26  1  1
  8 27  1  0
  9 28  1  0
 11 29  1  0
 13 30  1  1
 14 31  1  0
 14 32  1  0
 15 33  1  6
 16 34  1  0
 16 35  1  0
 16 36  1  0
M  ISO  8  17  13  18  13  19  13  20  13  21  13  22  13  23  13  24  13
M  ISO  8  25  13  26  13  27  14  28  14  29  14  30  13  31  13  32  13
M  ISO  4  33  13  34   8  35   8  36   8
M  END
>  <minimizedAffinity>  (1) 
-5.31452513

>  <minimizedRMSD>  (1) 
0.0389303118

$$$$
