
     RDKit          3D

 25 26  0  0  1  0  0  0  0  0999 V2000
   44.6990   35.4870   45.1920 C   0  0  0  0  0  0  0  0  0  0  0  0
   45.3920   35.0590   44.0680 C   0  0  0  0  0  0  0  0  0  0  0  0
   45.9950   33.8140   44.1480 C   0  0  0  0  0  0  0  0  0  0  0  0
   45.8890   33.0850   45.2820 N   0  0  0  0  0  0  0  0  0  0  0  0
   45.2080   33.5370   46.3500 C   0  0  0  0  0  0  0  0  0  0  0  0
   44.6110   34.7280   46.3200 N   0  0  0  0  0  0  0  0  0  0  0  0
   45.4250   35.9650   42.8890 C   0  0  0  0  0  0  0  0  0  0  0  0
   45.2050   37.2390   43.3830 F   0  0  0  0  0  0  0  0  0  0  0  0
   44.4090   35.6040   42.0430 F   0  0  0  0  0  0  0  0  0  0  0  0
   46.6620   35.8140   42.2830 F   0  0  0  0  0  0  0  0  0  0  0  0
   45.0840   32.8100   47.5240 O   0  0  0  0  0  0  0  0  0  0  0  0
   46.1130   32.6130   48.4540 C   0  0  2  0  0  0  0  0  0  0  0  0
   47.4500   32.3670   47.7830 C   0  0  0  0  0  0  0  0  0  0  0  0
   48.1480   31.5910   48.8820 C   0  0  0  0  0  0  0  0  0  0  0  0
   47.1620   30.6760   49.2420 O   0  0  0  0  0  0  0  0  0  0  0  0
   45.9600   31.3590   49.2650 C   0  0  0  0  0  0  0  0  0  0  0  0
   44.2054   36.4698   45.1713 H   0  0  0  0  0  0  0  0  0  0  0  0
   46.5592   33.4192   43.2902 H   0  0  0  0  0  0  0  0  0  0  0  0
   46.0643   33.5299   49.0598 H   0  0  0  0  0  0  0  0  0  0  0  0
   47.3438   31.7708   46.8647 H   0  0  0  0  0  0  0  0  0  0  0  0
   47.9758   33.2722   47.4451 H   0  0  0  0  0  0  0  0  0  0  0  0
   49.0492   31.0842   48.5065 H   0  0  0  0  0  0  0  0  0  0  0  0
   48.5076   32.2146   49.7137 H   0  0  0  0  0  0  0  0  0  0  0  0
   45.6987   31.6166   50.3020 H   0  0  0  0  0  0  0  0  0  0  0  0
   45.1603   30.7317   48.8444 H   0  0  0  0  0  0  0  0  0  0  0  0
  1  6  2  0
  2  3  2  0
  2  1  1  0
  3  4  1  0
  4  5  2  0
  5 11  1  0
  6  5  1  0
  7  8  1  0
  7  2  1  0
  9  7  1  0
 10  7  1  0
 12 11  1  0
 12 16  1  0
 13 12  1  0
 13 14  1  0
 14 15  1  0
 15 16  1  0
  1 17  1  0
  3 18  1  0
 12 19  1  1
 13 20  1  0
 13 21  1  0
 14 22  1  0
 14 23  1  0
 16 24  1  0
 16 25  1  0
M  ISO  8  17  14  18  14  19  13  20  13  21  13  22  13  23  13  24  13
M  ISO  1  25  13
M  END
>  <minimizedAffinity>  (1) 
-4.86787891

>  <minimizedRMSD>  (1) 
1.12012208

$$$$
