
     RDKit          3D

 32 33  0  0  0  0  0  0  0  0999 V2000
   44.6240   35.5010   45.1250 C   0  0  0  0  0  0  0  0  0  0  0  0
   45.4490   35.1050   44.0710 C   0  0  0  0  0  0  0  0  0  0  0  0
   46.2020   33.9470   44.2450 C   0  0  0  0  0  0  0  0  0  0  0  0
   46.1110   33.2680   45.3950 N   0  0  0  0  0  0  0  0  0  0  0  0
   45.3040   33.6810   46.3900 C   0  0  0  0  0  0  0  0  0  0  0  0
   44.5620   34.7870   46.2660 N   0  0  0  0  0  0  0  0  0  0  0  0
   45.4560   35.9580   42.8390 C   0  0  0  0  0  0  0  0  0  0  0  0
   45.2150   37.2460   43.2860 F   0  0  0  0  0  0  0  0  0  0  0  0
   44.4300   35.5200   42.0360 F   0  0  0  0  0  0  0  0  0  0  0  0
   46.6940   35.8210   42.2350 F   0  0  0  0  0  0  0  0  0  0  0  0
   45.1780   33.0050   47.6070 O   0  0  0  0  0  0  0  0  0  0  0  0
   46.2410   32.2580   48.1390 C   0  0  0  0  0  0  0  0  0  0  0  0
   46.2250   30.9100   47.6230 N   0  0  0  0  0  0  0  0  0  0  0  0
   47.3190   30.1130   48.1370 C   0  0  0  0  0  0  0  0  0  0  0  0
   47.5380   28.9730   47.1660 C   0  0  0  0  0  0  0  0  0  0  0  0
   46.2250   28.2310   47.0710 C   0  0  0  0  0  0  0  0  0  0  0  0
   45.1910   28.7890   48.0200 C   0  0  0  0  0  0  0  0  0  0  0  0
   44.9450   30.2630   47.8170 C   0  0  0  0  0  0  0  0  0  0  0  0
   44.0145   36.4109   45.0224 H   0  0  0  0  0  0  0  0  0  0  0  0
   46.8668   33.5927   43.4434 H   0  0  0  0  0  0  0  0  0  0  0  0
   47.1922   32.7381   47.8657 H   0  0  0  0  0  0  0  0  0  0  0  0
   46.1338   32.2195   49.2331 H   0  0  0  0  0  0  0  0  0  0  0  0
   48.2296   30.7257   48.2102 H   0  0  0  0  0  0  0  0  0  0  0  0
   47.0848   29.7305   49.1414 H   0  0  0  0  0  0  0  0  0  0  0  0
   47.8253   29.3646   46.1790 H   0  0  0  0  0  0  0  0  0  0  0  0
   48.3458   28.3093   47.5080 H   0  0  0  0  0  0  0  0  0  0  0  0
   45.8441   28.3130   46.0423 H   0  0  0  0  0  0  0  0  0  0  0  0
   46.4068   27.1813   47.3449 H   0  0  0  0  0  0  0  0  0  0  0  0
   44.2446   28.2503   47.8646 H   0  0  0  0  0  0  0  0  0  0  0  0
   45.5742   28.6554   49.0424 H   0  0  0  0  0  0  0  0  0  0  0  0
   44.4453   30.6830   48.7024 H   0  0  0  0  0  0  0  0  0  0  0  0
   44.2997   30.4245   46.9409 H   0  0  0  0  0  0  0  0  0  0  0  0
  1  6  2  0
  2  3  2  0
  2  1  1  0
  3  4  1  0
  4  5  2  0
  5 11  1  0
  6  5  1  0
  7  8  1  0
  7  2  1  0
  9  7  1  0
 10  7  1  0
 11 12  1  0
 13 18  1  0
 13 14  1  0
 13 12  1  0
 15 14  1  0
 16 15  1  0
 16 17  1  0
 18 17  1  0
  1 19  1  0
  3 20  1  0
 12 21  1  0
 12 22  1  0
 14 23  1  0
 14 24  1  0
 15 25  1  0
 15 26  1  0
 16 27  1  0
 16 28  1  0
 17 29  1  0
 17 30  1  0
 18 31  1  0
 18 32  1  0
M  ISO  8  19  14  20  14  21   8  22   8  23  13  24  13  25  13  26  13
M  ISO  6  27  13  28  13  29  13  30  13  31  13  32  13
M  END
>  <minimizedAffinity>  (1) 
-4.84016132

>  <minimizedRMSD>  (1) 
1.04341495

$$$$
