
     RDKit          3D

 27 28  0  0  0  0  0  0  0  0999 V2000
   45.4460   32.7950   47.5250 O   0  0  0  0  0  0  0  0  0  0  0  0
   44.6900   35.3440   45.1630 C   0  0  0  0  0  0  0  0  0  0  0  0
   45.4910   35.0100   44.0680 C   0  0  0  0  0  0  0  0  0  0  0  0
   46.2970   33.8720   44.1800 C   0  0  0  0  0  0  0  0  0  0  0  0
   46.2580   33.1680   45.3260 N   0  0  0  0  0  0  0  0  0  0  0  0
   45.4800   33.5170   46.3540 C   0  0  0  0  0  0  0  0  0  0  0  0
   44.6870   34.6010   46.2950 N   0  0  0  0  0  0  0  0  0  0  0  0
   45.4120   35.9140   42.8840 C   0  0  0  0  0  0  0  0  0  0  0  0
   45.2150   37.1880   43.3900 F   0  0  0  0  0  0  0  0  0  0  0  0
   44.3510   35.5080   42.1190 F   0  0  0  0  0  0  0  0  0  0  0  0
   46.6050   35.7830   42.1850 F   0  0  0  0  0  0  0  0  0  0  0  0
   45.5830   31.4190   47.6120 C   0  0  0  0  0  0  0  0  0  0  0  0
   46.9010   30.9040   47.9690 C   0  0  0  0  0  0  0  0  0  0  0  0
   47.7180   31.7200   48.7640 C   0  0  0  0  0  0  0  0  0  0  0  0
   48.9710   31.3680   49.1780 C   0  0  0  0  0  0  0  0  0  0  0  0
   49.5010   30.1550   48.8170 C   0  0  0  0  0  0  0  0  0  0  0  0
   48.7360   29.3240   48.0390 C   0  0  0  0  0  0  0  0  0  0  0  0
   47.4740   29.7010   47.6340 C   0  0  0  0  0  0  0  0  0  0  0  0
   44.0453   36.2333   45.1040 H   0  0  0  0  0  0  0  0  0  0  0  0
   46.9479   33.5598   43.3500 H   0  0  0  0  0  0  0  0  0  0  0  0
   44.8710   31.0623   48.3709 H   0  0  0  0  0  0  0  0  0  0  0  0
   45.3994   31.0494   46.5924 H   0  0  0  0  0  0  0  0  0  0  0  0
   47.3271   32.7009   49.0723 H   0  0  0  0  0  0  0  0  0  0  0  0
   49.5567   32.0587   49.8024 H   0  0  0  0  0  0  0  0  0  0  0  0
   50.5091   29.8580   49.1418 H   0  0  0  0  0  0  0  0  0  0  0  0
   49.1346   28.3450   47.7347 H   0  0  0  0  0  0  0  0  0  0  0  0
   46.8958   29.0031   47.0106 H   0  0  0  0  0  0  0  0  0  0  0  0
  1 12  1  0
  2  7  2  0
  3  4  2  0
  3  2  1  0
  4  5  1  0
  5  6  2  0
  6  1  1  0
  7  6  1  0
  8  9  1  0
  8  3  1  0
 10  8  1  0
 11  8  1  0
 12 13  1  0
 13 14  2  0
 14 15  1  0
 16 15  2  0
 17 16  1  0
 18 13  1  0
 18 17  2  0
  2 19  1  0
  4 20  1  0
 12 21  1  0
 12 22  1  0
 14 23  1  0
 15 24  1  0
 16 25  1  0
 17 26  1  0
 18 27  1  0
M  ISO  8  19  14  20  14  21   8  22   8  23  14  24  14  25  14  26  14
M  ISO  1  27  14
M  END
>  <minimizedAffinity>  (1) 
-5.07616043

>  <minimizedRMSD>  (1) 
1.94190538

$$$$
