
     RDKit          3D

 18 18  0  0  0  0  0  0  0  0999 V2000
   44.6890   35.4350   45.0570 C   0  0  0  0  0  0  0  0  0  0  0  0
   45.5470   34.9370   44.0630 C   0  0  0  0  0  0  0  0  0  0  0  0
   46.2510   33.7760   44.3610 C   0  0  0  0  0  0  0  0  0  0  0  0
   46.0980   33.1750   45.5580 N   0  0  0  0  0  0  0  0  0  0  0  0
   45.2650   33.6820   46.4880 C   0  0  0  0  0  0  0  0  0  0  0  0
   44.5640   34.7970   46.2530 N   0  0  0  0  0  0  0  0  0  0  0  0
   45.6190   35.7000   42.7900 C   0  0  0  0  0  0  0  0  0  0  0  0
   45.2030   36.9740   43.0850 F   0  0  0  0  0  0  0  0  0  0  0  0
   44.7330   35.0870   41.9050 F   0  0  0  0  0  0  0  0  0  0  0  0
   46.9150   35.6280   42.3260 F   0  0  0  0  0  0  0  0  0  0  0  0
   45.0790   33.0990   47.7250 O   0  0  0  0  0  0  0  0  0  0  0  0
   46.0390   32.2690   48.3250 C   0  0  0  0  0  0  0  0  0  0  0  0
   46.1170   31.0190   47.7090 O   0  0  0  0  0  0  0  0  0  0  0  0
   44.1111   36.3515   44.8669 H   0  0  0  0  0  0  0  0  0  0  0  0
   46.9365   33.3454   43.6162 H   0  0  0  0  0  0  0  0  0  0  0  0
   47.0217   32.7586   48.2577 H   0  0  0  0  0  0  0  0  0  0  0  0
   45.7403   32.1106   49.3717 H   0  0  0  0  0  0  0  0  0  0  0  0
   46.1611   30.3123   48.4009 H   0  0  0  0  0  0  0  0  0  0  0  0
  1  6  2  0
  2  3  2  0
  2  1  1  0
  3  4  1  0
  4  5  2  0
  5 11  1  0
  6  5  1  0
  7  8  1  0
  7  2  1  0
  9  7  1  0
 10  7  1  0
 11 12  1  0
 13 12  1  0
  1 14  1  0
  3 15  1  0
 12 16  1  0
 12 17  1  0
 13 18  1  0
M  ISO  5  14  14  15  14  16   8  17   8  18   3
M  END
>  <minimizedAffinity>  (1) 
-4.01246214

>  <minimizedRMSD>  (1) 
0.135372579

$$$$
