
     RDKit          3D

 35 37  0  0  0  0  0  0  0  0999 V2000
   47.9610   30.6110   47.8500 C   0  0  0  0  0  0  0  0  0  0  0  0
   48.6580   29.6550   47.1390 C   0  0  0  0  0  0  0  0  0  0  0  0
   49.9440   29.3690   47.4580 C   0  0  0  0  0  0  0  0  0  0  0  0
   50.5770   29.9990   48.4630 N   0  0  0  0  0  0  0  0  0  0  0  0
   49.8950   30.9370   49.1620 C   0  0  0  0  0  0  0  0  0  0  0  0
   48.6050   31.2500   48.8710 N   0  0  0  0  0  0  0  0  0  0  0  0
   50.4090   29.2540   51.6490 Cl  0  0  0  0  0  0  0  0  0  0  0  0
   50.8580   30.9280   51.4290 C   0  0  0  0  0  0  0  0  0  0  0  0
   50.5930   31.6330   50.2720 C   0  0  0  0  0  0  0  0  0  0  0  0
   50.9270   32.9520   50.0540 C   0  0  0  0  0  0  0  0  0  0  0  0
   51.5760   33.5880   51.0900 C   0  0  0  0  0  0  0  0  0  0  0  0
   51.8510   32.9040   52.2570 C   0  0  0  0  0  0  0  0  0  0  0  0
   51.5080   31.5810   52.4570 C   0  0  0  0  0  0  0  0  0  0  0  0
   51.8560   30.7140   53.9340 Cl  0  0  0  0  0  0  0  0  0  0  0  0
   46.5890   31.1020   47.7080 C   0  0  0  0  0  0  0  0  0  0  0  0
   46.6470   32.5030   47.5760 O   0  0  0  0  0  0  0  0  0  0  0  0
   45.0610   34.6290   45.2050 C   0  0  0  0  0  0  0  0  0  0  0  0
   45.7870   34.4240   44.0370 C   0  0  0  0  0  0  0  0  0  0  0  0
   46.8540   33.5180   44.0930 C   0  0  0  0  0  0  0  0  0  0  0  0
   47.1250   32.8960   45.2570 N   0  0  0  0  0  0  0  0  0  0  0  0
   46.3910   33.1290   46.3600 C   0  0  0  0  0  0  0  0  0  0  0  0
   45.3660   33.9870   46.3420 N   0  0  0  0  0  0  0  0  0  0  0  0
   45.3840   35.1780   42.8080 C   0  0  0  0  0  0  0  0  0  0  0  0
   45.2150   36.4740   43.2150 F   0  0  0  0  0  0  0  0  0  0  0  0
   44.1590   34.6330   42.4040 F   0  0  0  0  0  0  0  0  0  0  0  0
   46.3540   35.0290   41.8580 F   0  0  0  0  0  0  0  0  0  0  0  0
   48.1679   29.1231   46.3102 H   0  0  0  0  0  0  0  0  0  0  0  0
   50.4826   28.6031   46.8808 H   0  0  0  0  0  0  0  0  0  0  0  0
   50.6901   33.4658   49.1107 H   0  0  0  0  0  0  0  0  0  0  0  0
   51.8751   34.6415   50.9869 H   0  0  0  0  0  0  0  0  0  0  0  0
   52.3685   33.4386   53.0672 H   0  0  0  0  0  0  0  0  0  0  0  0
   46.1237   30.6605   46.8144 H   0  0  0  0  0  0  0  0  0  0  0  0
   45.9870   30.8223   48.5852 H   0  0  0  0  0  0  0  0  0  0  0  0
   44.2168   35.3342   45.1961 H   0  0  0  0  0  0  0  0  0  0  0  0
   47.4623   33.3171   43.1988 H   0  0  0  0  0  0  0  0  0  0  0  0
  1  6  2  0
  2  3  2  0
  2  1  1  0
  3  4  1  0
  4  5  2  0
  5  9  1  0
  6  5  1  0
  8  7  1  0
  8 13  2  0
  9  8  1  0
 10  9  2  0
 10 11  1  0
 11 12  2  0
 12 13  1  0
 13 14  1  0
 15  1  1  0
 16 15  1  0
 17 22  2  0
 18 19  2  0
 18 17  1  0
 19 20  1  0
 20 21  2  0
 21 16  1  0
 22 21  1  0
 23 24  1  0
 23 18  1  0
 25 23  1  0
 26 23  1  0
  2 27  1  0
  3 28  1  0
 10 29  1  0
 11 30  1  0
 12 31  1  0
 15 32  1  0
 15 33  1  0
 17 34  1  0
 19 35  1  0
M  ISO  8  27  14  28  14  29  14  30  14  31  14  32   8  33   8  34  14
M  ISO  1  35  14
M  END
>  <minimizedAffinity>  (1) 
-6.18589067

>  <minimizedRMSD>  (1) 
1.165326

$$$$
