
     RDKit          3D

 25 26  0  0  0  0  0  0  0  0999 V2000
   44.8270   35.1600   45.0920 C   0  0  0  0  0  0  0  0  0  0  0  0
   45.7060   34.7830   44.0810 C   0  0  0  0  0  0  0  0  0  0  0  0
   46.5410   33.6810   44.3250 C   0  0  0  0  0  0  0  0  0  0  0  0
   46.4560   33.0490   45.5100 N   0  0  0  0  0  0  0  0  0  0  0  0
   45.5830   33.4550   46.4630 C   0  0  0  0  0  0  0  0  0  0  0  0
   44.7770   34.4960   46.2600 N   0  0  0  0  0  0  0  0  0  0  0  0
   45.6990   35.5680   42.8080 C   0  0  0  0  0  0  0  0  0  0  0  0
   45.2140   36.8110   43.1580 F   0  0  0  0  0  0  0  0  0  0  0  0
   44.8090   34.9230   41.9500 F   0  0  0  0  0  0  0  0  0  0  0  0
   46.9690   35.6030   42.3060 F   0  0  0  0  0  0  0  0  0  0  0  0
   45.4710   32.8220   47.6970 O   0  0  0  0  0  0  0  0  0  0  0  0
   45.2210   31.4520   47.8060 C   0  0  0  0  0  0  0  0  0  0  0  0
   46.5080   30.7450   47.9930 C   0  0  0  0  0  0  0  0  0  0  0  0
   47.0920   29.6450   47.4080 C   0  0  0  0  0  0  0  0  0  0  0  0
   48.3330   29.2390   47.8200 C   0  0  0  0  0  0  0  0  0  0  0  0
   49.0050   29.8780   48.7760 N   0  0  0  0  0  0  0  0  0  0  0  0
   48.4460   30.9570   49.3570 C   0  0  0  0  0  0  0  0  0  0  0  0
   47.2090   31.3920   48.9740 N   0  0  0  0  0  0  0  0  0  0  0  0
   44.1591   36.0193   44.9321 H   0  0  0  0  0  0  0  0  0  0  0  0
   47.2535   33.3396   43.5596 H   0  0  0  0  0  0  0  0  0  0  0  0
   44.5667   31.2633   48.6699 H   0  0  0  0  0  0  0  0  0  0  0  0
   44.7247   31.0892   46.8938 H   0  0  0  0  0  0  0  0  0  0  0  0
   46.5651   29.0952   46.6142 H   0  0  0  0  0  0  0  0  0  0  0  0
   48.7894   28.3572   47.3465 H   0  0  0  0  0  0  0  0  0  0  0  0
   48.9910   31.4933   50.1478 H   0  0  0  0  0  0  0  0  0  0  0  0
  1  6  2  0
  2  3  2  0
  2  1  1  0
  3  4  1  0
  4  5  2  0
  5 11  1  0
  6  5  1  0
  7  8  1  0
  7  2  1  0
  9  7  1  0
 10  7  1  0
 11 12  1  0
 12 13  1  0
 13 18  2  0
 14 15  2  0
 14 13  1  0
 15 16  1  0
 16 17  2  0
 18 17  1  0
  1 19  1  0
  3 20  1  0
 12 21  1  0
 12 22  1  0
 14 23  1  0
 15 24  1  0
 17 25  1  0
M  ISO  7  19  14  20  14  21   8  22   8  23  14  24  14  25  14
M  END
>  <minimizedAffinity>  (1) 
-4.84384203

>  <minimizedRMSD>  (1) 
2.4533155

$$$$
