
     RDKit          3D

 34 36  0  0  0  0  0  0  0  0999 V2000
   45.3650   31.3110   47.7480 C   0  0  0  0  0  0  0  0  0  0  0  0
   46.5280   30.4230   47.8140 C   0  0  0  0  0  0  0  0  0  0  0  0
   46.7960   29.2470   47.1590 C   0  0  0  0  0  0  0  0  0  0  0  0
   47.9590   28.5880   47.3840 C   0  0  0  0  0  0  0  0  0  0  0  0
   48.8670   29.0740   48.2480 N   0  0  0  0  0  0  0  0  0  0  0  0
   48.6170   30.2240   48.8950 C   0  0  0  0  0  0  0  0  0  0  0  0
   47.4570   30.8970   48.6830 N   0  0  0  0  0  0  0  0  0  0  0  0
   49.6280   30.7430   49.8440 C   0  0  0  0  0  0  0  0  0  0  0  0
   50.1110   32.0260   49.7040 C   0  0  0  0  0  0  0  0  0  0  0  0
   51.0490   32.4120   50.6390 C   0  0  0  0  0  0  0  0  0  0  0  0
   51.4420   31.5330   51.6250 C   0  0  0  0  0  0  0  0  0  0  0  0
   50.9370   30.2360   51.7440 C   0  0  0  0  0  0  0  0  0  0  0  0
   50.0220   29.8990   50.8110 N   0  0  0  0  0  0  0  0  0  0  0  0
   45.8360   32.6340   47.6380 O   0  0  0  0  0  0  0  0  0  0  0  0
   44.9610   34.9380   45.0660 C   0  0  0  0  0  0  0  0  0  0  0  0
   45.8380   34.6280   44.0350 C   0  0  0  0  0  0  0  0  0  0  0  0
   46.7520   33.5890   44.2540 C   0  0  0  0  0  0  0  0  0  0  0  0
   46.7420   32.9450   45.4340 N   0  0  0  0  0  0  0  0  0  0  0  0
   45.8660   33.2840   46.4120 C   0  0  0  0  0  0  0  0  0  0  0  0
   44.9910   34.2660   46.2250 N   0  0  0  0  0  0  0  0  0  0  0  0
   45.7550   35.4170   42.7630 C   0  0  0  0  0  0  0  0  0  0  0  0
   45.3120   36.6600   43.1490 F   0  0  0  0  0  0  0  0  0  0  0  0
   44.7770   34.7820   41.9830 F   0  0  0  0  0  0  0  0  0  0  0  0
   46.9690   35.4120   42.1510 F   0  0  0  0  0  0  0  0  0  0  0  0
   44.7514   31.0586   46.8706 H   0  0  0  0  0  0  0  0  0  0  0  0
   44.7455   31.1986   48.6500 H   0  0  0  0  0  0  0  0  0  0  0  0
   46.0635   28.8373   46.4480 H   0  0  0  0  0  0  0  0  0  0  0  0
   48.1619   27.6457   46.8540 H   0  0  0  0  0  0  0  0  0  0  0  0
   49.7716   32.6969   48.9011 H   0  0  0  0  0  0  0  0  0  0  0  0
   51.4834   33.4217   50.5975 H   0  0  0  0  0  0  0  0  0  0  0  0
   52.1919   31.8700   52.3558 H   0  0  0  0  0  0  0  0  0  0  0  0
   51.2597   29.5439   52.5358 H   0  0  0  0  0  0  0  0  0  0  0  0
   44.2298   35.7483   44.9291 H   0  0  0  0  0  0  0  0  0  0  0  0
   47.4690   33.3037   43.4701 H   0  0  0  0  0  0  0  0  0  0  0  0
  1  2  1  0
  2  7  2  0
  3  4  2  0
  3  2  1  0
  4  5  1  0
  5  6  2  0
  6  8  1  0
  7  6  1  0
  8 13  1  0
  9  8  2  0
  9 10  1  0
 10 11  2  0
 11 12  1  0
 13 12  2  0
 14  1  1  0
 15 20  2  0
 16 17  2  0
 16 15  1  0
 17 18  1  0
 18 19  2  0
 19 14  1  0
 20 19  1  0
 21 22  1  0
 21 16  1  0
 23 21  1  0
 24 21  1  0
  1 25  1  0
  1 26  1  0
  3 27  1  0
  4 28  1  0
  9 29  1  0
 10 30  1  0
 11 31  1  0
 12 32  1  0
 15 33  1  0
 17 34  1  0
M  ISO  8  25   8  26   8  27  14  28  14  29  14  30  14  31  14  32  14
M  ISO  2  33  14  34  14
M  END
>  <minimizedAffinity>  (1) 
-5.89567757

>  <minimizedRMSD>  (1) 
0.829032958

$$$$
