
     RDKit          3D

 37 39  0  0  0  0  0  0  0  0999 V2000
   45.2320   31.4560   47.8900 C   0  0  0  0  0  0  0  0  0  0  0  0
   46.4920   30.7080   47.7500 C   0  0  0  0  0  0  0  0  0  0  0  0
   46.8350   29.7210   46.8470 C   0  0  0  0  0  0  0  0  0  0  0  0
   48.0800   29.1720   46.9190 C   0  0  0  0  0  0  0  0  0  0  0  0
   48.9690   29.5690   47.8440 N   0  0  0  0  0  0  0  0  0  0  0  0
   48.6320   30.5260   48.7180 C   0  0  0  0  0  0  0  0  0  0  0  0
   47.4020   31.1010   48.6820 N   0  0  0  0  0  0  0  0  0  0  0  0
   49.5910   30.9340   49.6920 N   0  0  0  0  0  0  0  0  0  0  0  0
   49.9270   30.1360   50.8540 C   0  0  0  0  0  0  0  0  0  0  0  0
   51.1900   30.7250   51.4250 C   0  0  0  0  0  0  0  0  0  0  0  0
   51.7060   31.5670   50.2770 C   0  0  0  0  0  0  0  0  0  0  0  0
   50.3880   32.1430   49.7410 C   0  0  0  0  0  0  0  0  0  0  0  0
   45.5290   32.8190   47.8160 O   0  0  0  0  0  0  0  0  0  0  0  0
   44.6150   35.2570   45.3900 C   0  0  0  0  0  0  0  0  0  0  0  0
   45.3750   34.9150   44.2730 C   0  0  0  0  0  0  0  0  0  0  0  0
   46.2260   33.7990   44.3840 C   0  0  0  0  0  0  0  0  0  0  0  0
   46.2650   33.1300   45.5390 N   0  0  0  0  0  0  0  0  0  0  0  0
   45.5040   33.5010   46.6050 C   0  0  0  0  0  0  0  0  0  0  0  0
   44.6900   34.5490   46.5320 N   0  0  0  0  0  0  0  0  0  0  0  0
   45.2440   35.7450   43.0330 C   0  0  0  0  0  0  0  0  0  0  0  0
   45.2180   37.0430   43.4880 F   0  0  0  0  0  0  0  0  0  0  0  0
   43.9940   35.4170   42.4840 F   0  0  0  0  0  0  0  0  0  0  0  0
   46.2740   35.4640   42.1940 F   0  0  0  0  0  0  0  0  0  0  0  0
   44.5418   31.1797   47.0793 H   0  0  0  0  0  0  0  0  0  0  0  0
   44.7527   31.2209   48.8518 H   0  0  0  0  0  0  0  0  0  0  0  0
   46.1171   29.3846   46.0845 H   0  0  0  0  0  0  0  0  0  0  0  0
   48.3633   28.3860   46.2035 H   0  0  0  0  0  0  0  0  0  0  0  0
   49.1160   30.1839   51.5956 H   0  0  0  0  0  0  0  0  0  0  0  0
   50.0670   29.0788   50.5842 H   0  0  0  0  0  0  0  0  0  0  0  0
   50.9759   31.3450   52.3080 H   0  0  0  0  0  0  0  0  0  0  0  0
   51.9091   29.9685   51.7723 H   0  0  0  0  0  0  0  0  0  0  0  0
   52.3836   32.3598   50.6269 H   0  0  0  0  0  0  0  0  0  0  0  0
   52.3018   31.0157   49.5347 H   0  0  0  0  0  0  0  0  0  0  0  0
   50.5130   32.5910   48.7442 H   0  0  0  0  0  0  0  0  0  0  0  0
   49.9589   32.9586   50.3416 H   0  0  0  0  0  0  0  0  0  0  0  0
   43.9397   36.1237   45.3371 H   0  0  0  0  0  0  0  0  0  0  0  0
   46.8483   33.4834   43.5336 H   0  0  0  0  0  0  0  0  0  0  0  0
  2  1  1  0
  2  7  2  0
  3  4  2  0
  3  2  1  0
  4  5  1  0
  5  6  2  0
  6  8  1  0
  7  6  1  0
  8 12  1  0
  8  9  1  0
  9 10  1  0
 11 10  1  0
 12 11  1  0
 13  1  1  0
 14 19  2  0
 15 16  2  0
 15 14  1  0
 16 17  1  0
 17 18  2  0
 18 13  1  0
 19 18  1  0
 20 21  1  0
 20 15  1  0
 22 20  1  0
 23 20  1  0
  1 24  1  0
  1 25  1  0
  3 26  1  0
  4 27  1  0
  9 28  1  0
  9 29  1  0
 10 30  1  0
 10 31  1  0
 11 32  1  0
 11 33  1  0
 12 34  1  0
 12 35  1  0
 14 36  1  0
 16 37  1  0
M  ISO  8  24   8  25   8  26  14  27  14  28  13  29  13  30  13  31  13
M  ISO  6  32  13  33  13  34  13  35  13  36  14  37  14
M  END
>  <minimizedAffinity>  (1) 
-5.7531271

>  <minimizedRMSD>  (1) 
0.799226463

$$$$
