
     RDKit          3D

 26 27  0  0  0  0  0  0  0  0999 V2000
   45.5940   32.7450   47.7130 O   0  0  0  0  0  0  0  0  0  0  0  0
   44.8630   35.0780   45.1270 C   0  0  0  0  0  0  0  0  0  0  0  0
   45.7430   34.7150   44.0990 C   0  0  0  0  0  0  0  0  0  0  0  0
   46.5930   33.6370   44.3380 C   0  0  0  0  0  0  0  0  0  0  0  0
   46.5430   32.9950   45.5190 N   0  0  0  0  0  0  0  0  0  0  0  0
   45.6750   33.3820   46.4830 C   0  0  0  0  0  0  0  0  0  0  0  0
   44.8430   34.4140   46.2860 N   0  0  0  0  0  0  0  0  0  0  0  0
   45.6990   35.5100   42.8340 C   0  0  0  0  0  0  0  0  0  0  0  0
   45.1530   36.7180   43.1730 F   0  0  0  0  0  0  0  0  0  0  0  0
   44.8230   34.8170   41.9820 F   0  0  0  0  0  0  0  0  0  0  0  0
   46.9450   35.5750   42.3080 F   0  0  0  0  0  0  0  0  0  0  0  0
   45.2910   31.3860   47.8180 C   0  0  0  0  0  0  0  0  0  0  0  0
   46.5590   30.6530   47.9900 C   0  0  0  0  0  0  0  0  0  0  0  0
   47.0410   29.5140   47.3600 C   0  0  0  0  0  0  0  0  0  0  0  0
   48.2630   29.0440   47.7180 C   0  0  0  0  0  0  0  0  0  0  0  0
   49.0120   29.6390   48.6500 N   0  0  0  0  0  0  0  0  0  0  0  0
   48.5420   30.7490   49.2630 C   0  0  0  0  0  0  0  0  0  0  0  0
   47.3190   31.2560   48.9350 N   0  0  0  0  0  0  0  0  0  0  0  0
   49.3730   31.3180   50.2240 O   0  0  0  0  0  0  0  0  0  0  0  0
   44.1766   35.9244   44.9772 H   0  0  0  0  0  0  0  0  0  0  0  0
   47.3029   33.3119   43.5631 H   0  0  0  0  0  0  0  0  0  0  0  0
   44.6387   31.2142   48.6869 H   0  0  0  0  0  0  0  0  0  0  0  0
   44.7660   31.0388   46.9159 H   0  0  0  0  0  0  0  0  0  0  0  0
   46.4461   29.0038   46.5881 H   0  0  0  0  0  0  0  0  0  0  0  0
   48.6501   28.1411   47.2230 H   0  0  0  0  0  0  0  0  0  0  0  0
   49.0850   32.1322   50.7079 H   0  0  0  0  0  0  0  0  0  0  0  0
  1 12  1  0
  2  7  2  0
  3  4  2  0
  3  2  1  0
  4  5  1  0
  5  6  2  0
  6  1  1  0
  7  6  1  0
  8  9  1  0
  8  3  1  0
 10  8  1  0
 11  8  1  0
 12 13  1  0
 13 18  2  0
 14 15  2  0
 14 13  1  0
 15 16  1  0
 16 17  2  0
 17 19  1  0
 18 17  1  0
  2 20  1  0
  4 21  1  0
 12 22  1  0
 12 23  1  0
 14 24  1  0
 15 25  1  0
 19 26  1  0
M  ISO  7  20  14  21  14  22   8  23   8  24  14  25  14  26   3
M  END
>  <minimizedAffinity>  (1) 
-5.24451256

>  <minimizedRMSD>  (1) 
0.158892334

$$$$
