
     RDKit          3D

 32 34  0  0  0  0  0  0  0  0999 V2000
   45.3230   31.4480   47.8400 C   0  0  0  0  0  0  0  0  0  0  0  0
   46.6060   30.7590   47.9580 C   0  0  0  0  0  0  0  0  0  0  0  0
   47.0140   29.5250   47.4960 C   0  0  0  0  0  0  0  0  0  0  0  0
   48.2900   29.0940   47.7360 C   0  0  0  0  0  0  0  0  0  0  0  0
   49.1700   29.8470   48.4170 N   0  0  0  0  0  0  0  0  0  0  0  0
   48.7650   31.0460   48.8640 C   0  0  0  0  0  0  0  0  0  0  0  0
   47.5080   31.5170   48.6490 N   0  0  0  0  0  0  0  0  0  0  0  0
   49.7890   31.8470   49.6200 C   0  0  0  0  0  0  0  0  0  0  0  0
   50.4650   31.3020   50.8050 C   0  0  0  0  0  0  0  0  0  0  0  0
   51.2220   31.5760   49.5030 C   0  0  0  0  0  0  0  0  0  0  0  0
   45.5830   32.8260   47.7210 O   0  0  0  0  0  0  0  0  0  0  0  0
   44.8120   35.1190   45.1110 C   0  0  0  0  0  0  0  0  0  0  0  0
   45.6680   34.7530   44.0800 C   0  0  0  0  0  0  0  0  0  0  0  0
   46.5370   33.6730   44.3080 C   0  0  0  0  0  0  0  0  0  0  0  0
   46.5040   33.0480   45.5030 N   0  0  0  0  0  0  0  0  0  0  0  0
   45.6470   33.4460   46.4770 C   0  0  0  0  0  0  0  0  0  0  0  0
   44.8110   34.4680   46.2850 N   0  0  0  0  0  0  0  0  0  0  0  0
   45.6160   35.5230   42.7940 C   0  0  0  0  0  0  0  0  0  0  0  0
   45.2680   36.8030   43.1620 F   0  0  0  0  0  0  0  0  0  0  0  0
   44.5940   34.9340   42.0350 F   0  0  0  0  0  0  0  0  0  0  0  0
   46.8290   35.4530   42.1780 F   0  0  0  0  0  0  0  0  0  0  0  0
   44.7869   31.0902   46.9486 H   0  0  0  0  0  0  0  0  0  0  0  0
   44.6984   31.2502   48.7236 H   0  0  0  0  0  0  0  0  0  0  0  0
   46.3141   28.8881   46.9352 H   0  0  0  0  0  0  0  0  0  0  0  0
   48.6029   28.1077   47.3626 H   0  0  0  0  0  0  0  0  0  0  0  0
   49.1689   32.7369   49.4370 H   0  0  0  0  0  0  0  0  0  0  0  0
   50.6331   31.9359   51.6881 H   0  0  0  0  0  0  0  0  0  0  0  0
   50.3206   30.4332   51.4640 H   0  0  0  0  0  0  0  0  0  0  0  0
   51.5784   30.7398   48.8835 H   0  0  0  0  0  0  0  0  0  0  0  0
   52.1108   32.1587   49.2191 H   0  0  0  0  0  0  0  0  0  0  0  0
   44.1197   35.9608   44.9621 H   0  0  0  0  0  0  0  0  0  0  0  0
   47.2339   33.3420   43.5239 H   0  0  0  0  0  0  0  0  0  0  0  0
  1  2  1  0
  2  7  2  0
  3  4  2  0
  3  2  1  0
  4  5  1  0
  5  6  2  0
  6  8  1  0
  7  6  1  0
  8  9  1  0
 10  8  1  0
 10  9  1  0
 11  1  1  0
 12 17  2  0
 13 14  2  0
 13 12  1  0
 14 15  1  0
 15 16  2  0
 16 11  1  0
 17 16  1  0
 18 19  1  0
 18 13  1  0
 20 18  1  0
 21 18  1  0
  1 22  1  0
  1 23  1  0
  3 24  1  0
  4 25  1  0
  8 26  1  0
  9 27  1  0
  9 28  1  0
 10 29  1  0
 10 30  1  0
 12 31  1  0
 14 32  1  0
M  ISO  8  22   8  23   8  24  14  25  14  26  13  27  13  28  13  29  13
M  ISO  3  30  13  31  14  32  14
M  END
>  <minimizedAffinity>  (1) 
-5.37470245

>  <minimizedRMSD>  (1) 
0.575338483

$$$$
