
     RDKit          3D

 43 45  0  0  0  0  0  0  0  0999 V2000
   44.9980   34.3870   45.7530 C   0  0  0  0  0  0  0  0  0  0  0  0
   45.4440   34.5250   44.4430 C   0  0  0  0  0  0  0  0  0  0  0  0
   46.5250   33.7250   44.0610 C   0  0  0  0  0  0  0  0  0  0  0  0
   47.0790   32.8760   44.9470 N   0  0  0  0  0  0  0  0  0  0  0  0
   46.5980   32.7850   46.2150 C   0  0  0  0  0  0  0  0  0  0  0  0
   45.5720   33.5320   46.6090 N   0  0  0  0  0  0  0  0  0  0  0  0
   47.0710   33.7460   42.7490 N   0  0  0  0  0  0  0  0  0  0  0  0
   46.6000   33.2170   41.4830 C   0  0  0  0  0  0  0  0  0  0  0  0
   46.9690   34.0250   40.2900 C   0  0  0  0  0  0  0  0  0  0  0  0
   48.2480   34.7820   40.3970 C   0  0  0  0  0  0  0  0  0  0  0  0
   49.1090   34.3480   41.5430 C   0  0  0  0  0  0  0  0  0  0  0  0
   48.3460   34.4720   42.8610 C   0  0  0  0  0  0  0  0  0  0  0  0
   44.7790   35.4940   43.5280 C   0  0  0  0  0  0  0  0  0  0  0  0
   43.8910   36.1690   44.3570 F   0  0  0  0  0  0  0  0  0  0  0  0
   44.0470   34.7450   42.6170 F   0  0  0  0  0  0  0  0  0  0  0  0
   45.6920   36.3150   42.9760 F   0  0  0  0  0  0  0  0  0  0  0  0
   47.1430   31.9240   47.1450 O   0  0  0  0  0  0  0  0  0  0  0  0
   47.0850   30.5260   46.9580 C   0  0  0  0  0  0  0  0  0  0  0  0
   48.1780   29.9250   47.7430 C   0  0  0  0  0  0  0  0  0  0  0  0
   48.5900   28.6050   47.8330 C   0  0  0  0  0  0  0  0  0  0  0  0
   49.6450   28.3220   48.6440 C   0  0  0  0  0  0  0  0  0  0  0  0
   50.2820   29.2580   49.3410 N   0  0  0  0  0  0  0  0  0  0  0  0
   49.8740   30.5330   49.2470 C   0  0  0  0  0  0  0  0  0  0  0  0
   48.8210   30.8840   48.4500 N   0  0  0  0  0  0  0  0  0  0  0  0
   50.6430   31.5050   50.0590 C   0  0  0  0  0  0  0  0  0  0  0  0
   50.3890   32.7940   49.6730 F   0  0  0  0  0  0  0  0  0  0  0  0
   52.0170   31.2610   49.9250 F   0  0  0  0  0  0  0  0  0  0  0  0
   50.3470   31.3960   51.4020 F   0  0  0  0  0  0  0  0  0  0  0  0
   44.1496   34.9975   46.0958 H   0  0  0  0  0  0  0  0  0  0  0  0
   47.0210   32.2087   41.3562 H   0  0  0  0  0  0  0  0  0  0  0  0
   45.5012   33.2270   41.5343 H   0  0  0  0  0  0  0  0  0  0  0  0
   46.1611   34.7491   40.1083 H   0  0  0  0  0  0  0  0  0  0  0  0
   47.1125   33.3049   39.4709 H   0  0  0  0  0  0  0  0  0  0  0  0
   48.8141   34.6415   39.4644 H   0  0  0  0  0  0  0  0  0  0  0  0
   47.9849   35.8355   40.5728 H   0  0  0  0  0  0  0  0  0  0  0  0
   49.4080   33.2998   41.3948 H   0  0  0  0  0  0  0  0  0  0  0  0
   49.9989   34.9933   41.5844 H   0  0  0  0  0  0  0  0  0  0  0  0
   48.1484   35.5330   43.0739 H   0  0  0  0  0  0  0  0  0  0  0  0
   48.9456   34.0444   43.6781 H   0  0  0  0  0  0  0  0  0  0  0  0
   46.1160   30.1407   47.3082 H   0  0  0  0  0  0  0  0  0  0  0  0
   47.1914   30.2743   45.8925 H   0  0  0  0  0  0  0  0  0  0  0  0
   48.0804   27.8114   47.2669 H   0  0  0  0  0  0  0  0  0  0  0  0
   49.9840   27.2788   48.7262 H   0  0  0  0  0  0  0  0  0  0  0  0
  1  6  2  0
  2  1  1  0
  3  2  2  0
  3  4  1  0
  4  5  2  0
  5  6  1  0
  5 17  1  0
  7 12  1  0
  7  3  1  0
  8  7  1  0
  9 10  1  0
  9  8  1  0
 10 11  1  0
 11 12  1  0
 13 14  1  0
 13  2  1  0
 15 13  1  0
 16 13  1  0
 18 17  1  0
 18 19  1  0
 19 20  2  0
 19 24  1  0
 20 21  1  0
 21 22  2  0
 23 22  1  0
 23 25  1  0
 24 23  2  0
 25 28  1  0
 26 25  1  0
 27 25  1  0
  1 29  1  0
  8 30  1  0
  8 31  1  0
  9 32  1  0
  9 33  1  0
 10 34  1  0
 10 35  1  0
 11 36  1  0
 11 37  1  0
 12 38  1  0
 12 39  1  0
 18 40  1  0
 18 41  1  0
 20 42  1  0
 21 43  1  0
M  ISO  8  29  14  30  13  31  13  32  13  33  13  34  13  35  13  36  13
M  ISO  7  37  13  38  13  39  13  40   8  41   8  42  14  43  14
M  END
>  <minimizedAffinity>  (1) 
-6.15222263

>  <minimizedRMSD>  (1) 
1.53246713

$$$$
