
     RDKit          3D

 38 40  0  0  0  0  0  0  0  0999 V2000
   45.0100   34.9320   44.8070 C   0  0  0  0  0  0  0  0  0  0  0  0
   45.8770   34.6150   43.7670 C   0  0  0  0  0  0  0  0  0  0  0  0
   46.8130   33.6130   44.0220 C   0  0  0  0  0  0  0  0  0  0  0  0
   46.8530   33.0050   45.2130 N   0  0  0  0  0  0  0  0  0  0  0  0
   45.9820   33.3550   46.1920 C   0  0  0  0  0  0  0  0  0  0  0  0
   45.0740   34.3050   45.9870 N   0  0  0  0  0  0  0  0  0  0  0  0
   47.7850   33.1540   43.0500 C   0  0  0  0  0  0  0  0  0  0  0  0
   48.9900   33.8640   43.1010 C   0  0  0  0  0  0  0  0  0  0  0  0
   50.0820   33.5980   42.2820 C   0  0  0  0  0  0  0  0  0  0  0  0
   49.9910   32.5870   41.3660 C   0  0  0  0  0  0  0  0  0  0  0  0
   48.8130   31.8780   41.3010 C   0  0  0  0  0  0  0  0  0  0  0  0
   47.7300   32.1390   42.1120 C   0  0  0  0  0  0  0  0  0  0  0  0
   45.7840   35.3430   42.4690 C   0  0  0  0  0  0  0  0  0  0  0  0
   44.8100   36.3100   42.6980 F   0  0  0  0  0  0  0  0  0  0  0  0
   45.3040   34.4330   41.5470 F   0  0  0  0  0  0  0  0  0  0  0  0
   46.9740   35.8920   42.1520 F   0  0  0  0  0  0  0  0  0  0  0  0
   45.9850   32.7540   47.4400 O   0  0  0  0  0  0  0  0  0  0  0  0
   45.5080   31.4340   47.6110 C   0  0  0  0  0  0  0  0  0  0  0  0
   46.6690   30.5600   47.7850 C   0  0  0  0  0  0  0  0  0  0  0  0
   46.8970   29.2670   47.3230 C   0  0  0  0  0  0  0  0  0  0  0  0
   48.0870   28.6750   47.6390 C   0  0  0  0  0  0  0  0  0  0  0  0
   49.0150   29.2840   48.3570 N   0  0  0  0  0  0  0  0  0  0  0  0
   48.7870   30.5350   48.7990 C   0  0  0  0  0  0  0  0  0  0  0  0
   47.6220   31.1820   48.5210 N   0  0  0  0  0  0  0  0  0  0  0  0
   49.8870   31.1370   49.5970 C   0  0  0  0  0  0  0  0  0  0  0  0
   49.8710   32.5060   49.5170 F   0  0  0  0  0  0  0  0  0  0  0  0
   51.1330   30.6720   49.1220 F   0  0  0  0  0  0  0  0  0  0  0  0
   49.8040   30.7850   50.9280 F   0  0  0  0  0  0  0  0  0  0  0  0
   44.2540   35.7166   44.6559 H   0  0  0  0  0  0  0  0  0  0  0  0
   49.0786   34.6809   43.8323 H   0  0  0  0  0  0  0  0  0  0  0  0
   51.0041   34.1914   42.3697 H   0  0  0  0  0  0  0  0  0  0  0  0
   50.8339   32.3474   40.7010 H   0  0  0  0  0  0  0  0  0  0  0  0
   48.7322   31.0636   40.5660 H   0  0  0  0  0  0  0  0  0  0  0  0
   46.8154   31.5360   42.0127 H   0  0  0  0  0  0  0  0  0  0  0  0
   44.8627   31.3812   48.5003 H   0  0  0  0  0  0  0  0  0  0  0  0
   44.9182   31.1214   46.7367 H   0  0  0  0  0  0  0  0  0  0  0  0
   46.1425   28.7382   46.7221 H   0  0  0  0  0  0  0  0  0  0  0  0
   48.2804   27.6525   47.2824 H   0  0  0  0  0  0  0  0  0  0  0  0
  1  6  2  0
  2  3  2  0
  2  1  1  0
  3  4  1  0
  4  5  2  0
  5 17  1  0
  6  5  1  0
  7  8  2  0
  7  3  1  0
  9  8  1  0
 10  9  2  0
 11 10  1  0
 11 12  2  0
 12  7  1  0
 13 14  1  0
 13  2  1  0
 15 13  1  0
 16 13  1  0
 17 18  1  0
 18 19  1  0
 19 24  2  0
 20 21  2  0
 20 19  1  0
 21 22  1  0
 22 23  2  0
 23 25  1  0
 24 23  1  0
 25 28  1  0
 26 25  1  0
 27 25  1  0
  1 29  1  0
  8 30  1  0
  9 31  1  0
 10 32  1  0
 11 33  1  0
 12 34  1  0
 18 35  1  0
 18 36  1  0
 20 37  1  0
 21 38  1  0
M  ISO  8  29  14  30  14  31  14  32  14  33  14  34  14  35   8  36   8
M  ISO  2  37  14  38  14
M  END
>  <minimizedAffinity>  (1) 
-6.15750551

>  <minimizedRMSD>  (1) 
0.644687176

$$$$
