
     RDKit          3D

 38 40  0  0  0  0  0  0  0  0999 V2000
   44.9190   34.9360   44.9740 C   0  0  0  0  0  0  0  0  0  0  0  0
   45.8540   34.6490   43.9660 C   0  0  0  0  0  0  0  0  0  0  0  0
   46.8060   33.6670   44.2510 C   0  0  0  0  0  0  0  0  0  0  0  0
   46.7880   33.0570   45.4430 N   0  0  0  0  0  0  0  0  0  0  0  0
   45.8770   33.3570   46.3860 C   0  0  0  0  0  0  0  0  0  0  0  0
   44.9390   34.2960   46.1600 N   0  0  0  0  0  0  0  0  0  0  0  0
   46.1590   31.6490   42.5900 F   0  0  0  0  0  0  0  0  0  0  0  0
   47.3320   32.3380   42.4290 C   0  0  0  0  0  0  0  0  0  0  0  0
   47.7990   33.3950   43.2110 C   0  0  0  0  0  0  0  0  0  0  0  0
   49.0180   33.9950   42.9320 C   0  0  0  0  0  0  0  0  0  0  0  0
   49.7550   33.5270   41.8690 C   0  0  0  0  0  0  0  0  0  0  0  0
   49.2640   32.4680   41.1020 C   0  0  0  0  0  0  0  0  0  0  0  0
   48.0610   31.8420   41.3400 C   0  0  0  0  0  0  0  0  0  0  0  0
   45.7590   35.4090   42.6900 C   0  0  0  0  0  0  0  0  0  0  0  0
   44.8660   36.4310   42.9490 F   0  0  0  0  0  0  0  0  0  0  0  0
   45.2430   34.5410   41.7450 F   0  0  0  0  0  0  0  0  0  0  0  0
   47.0010   35.8870   42.3820 F   0  0  0  0  0  0  0  0  0  0  0  0
   45.8230   32.7510   47.6240 O   0  0  0  0  0  0  0  0  0  0  0  0
   45.3680   31.4300   47.7710 C   0  0  0  0  0  0  0  0  0  0  0  0
   46.5410   30.5540   47.8660 C   0  0  0  0  0  0  0  0  0  0  0  0
   46.7690   29.2780   47.3630 C   0  0  0  0  0  0  0  0  0  0  0  0
   47.9620   28.6840   47.6080 C   0  0  0  0  0  0  0  0  0  0  0  0
   48.9140   29.2810   48.3090 N   0  0  0  0  0  0  0  0  0  0  0  0
   48.7070   30.5210   48.8060 C   0  0  0  0  0  0  0  0  0  0  0  0
   47.5180   31.1830   48.5960 N   0  0  0  0  0  0  0  0  0  0  0  0
   49.8320   31.1130   49.5770 C   0  0  0  0  0  0  0  0  0  0  0  0
   49.8290   32.4850   49.4920 F   0  0  0  0  0  0  0  0  0  0  0  0
   51.0610   30.6220   49.0770 F   0  0  0  0  0  0  0  0  0  0  0  0
   49.7650   30.7630   50.9100 F   0  0  0  0  0  0  0  0  0  0  0  0
   44.1513   35.7022   44.7910 H   0  0  0  0  0  0  0  0  0  0  0  0
   49.3878   34.8279   43.5481 H   0  0  0  0  0  0  0  0  0  0  0  0
   50.7252   33.9840   41.6245 H   0  0  0  0  0  0  0  0  0  0  0  0
   49.8742   32.1133   40.2583 H   0  0  0  0  0  0  0  0  0  0  0  0
   47.6975   31.0104   40.7185 H   0  0  0  0  0  0  0  0  0  0  0  0
   44.7625   31.3434   48.6852 H   0  0  0  0  0  0  0  0  0  0  0  0
   44.7453   31.1426   46.9110 H   0  0  0  0  0  0  0  0  0  0  0  0
   45.9953   28.7603   46.7770 H   0  0  0  0  0  0  0  0  0  0  0  0
   48.1456   27.6742   47.2122 H   0  0  0  0  0  0  0  0  0  0  0  0
  1  6  2  0
  2  3  2  0
  2  1  1  0
  3  4  1  0
  4  5  2  0
  5 18  1  0
  6  5  1  0
  8  7  1  0
  8  9  2  0
  9  3  1  0
 10  9  1  0
 11 10  2  0
 12 13  2  0
 12 11  1  0
 13  8  1  0
 14 15  1  0
 14  2  1  0
 16 14  1  0
 17 14  1  0
 18 19  1  0
 19 20  1  0
 20 25  2  0
 21 22  2  0
 21 20  1  0
 22 23  1  0
 23 24  2  0
 24 26  1  0
 25 24  1  0
 26 29  1  0
 27 26  1  0
 28 26  1  0
  1 30  1  0
 10 31  1  0
 11 32  1  0
 12 33  1  0
 13 34  1  0
 19 35  1  0
 19 36  1  0
 21 37  1  0
 22 38  1  0
M  ISO  8  30  14  31  14  32  14  33  14  34  14  35   8  36   8  37  14
M  ISO  1  38  14
M  END
>  <minimizedAffinity>  (1) 
-6.25912476

>  <minimizedRMSD>  (1) 
0.899372041

$$$$
