
     RDKit          3D

 35 37  0  0  0  0  0  0  0  0999 V2000
   45.3130   31.3940   47.8060 C   0  0  0  0  0  0  0  0  0  0  0  0
   46.4940   30.5380   47.8880 C   0  0  0  0  0  0  0  0  0  0  0  0
   46.7140   29.2670   47.3670 C   0  0  0  0  0  0  0  0  0  0  0  0
   47.9320   28.6890   47.5990 C   0  0  0  0  0  0  0  0  0  0  0  0
   48.8920   29.2960   48.2960 N   0  0  0  0  0  0  0  0  0  0  0  0
   48.6660   30.5200   48.7930 C   0  0  0  0  0  0  0  0  0  0  0  0
   47.4710   31.1560   48.5980 N   0  0  0  0  0  0  0  0  0  0  0  0
   49.8030   31.1140   49.5560 C   0  0  0  0  0  0  0  0  0  0  0  0
   49.7870   32.4850   49.4820 F   0  0  0  0  0  0  0  0  0  0  0  0
   51.0120   30.6290   49.0670 F   0  0  0  0  0  0  0  0  0  0  0  0
   49.7470   30.7670   50.8940 F   0  0  0  0  0  0  0  0  0  0  0  0
   45.7540   32.7290   47.6760 O   0  0  0  0  0  0  0  0  0  0  0  0
   44.9510   34.9710   45.0380 C   0  0  0  0  0  0  0  0  0  0  0  0
   45.8380   34.6280   44.0180 C   0  0  0  0  0  0  0  0  0  0  0  0
   46.7220   33.5830   44.2950 C   0  0  0  0  0  0  0  0  0  0  0  0
   46.6950   32.9670   45.4840 N   0  0  0  0  0  0  0  0  0  0  0  0
   45.8220   33.3360   46.4320 C   0  0  0  0  0  0  0  0  0  0  0  0
   44.9600   34.3260   46.2120 N   0  0  0  0  0  0  0  0  0  0  0  0
   45.8100   35.3570   42.7260 C   0  0  0  0  0  0  0  0  0  0  0  0
   45.0340   36.4740   42.9920 F   0  0  0  0  0  0  0  0  0  0  0  0
   45.1080   34.5410   41.8300 F   0  0  0  0  0  0  0  0  0  0  0  0
   47.0590   35.6420   42.3090 F   0  0  0  0  0  0  0  0  0  0  0  0
   47.6930   33.1770   43.2370 C   0  0  0  0  0  0  0  0  0  0  0  0
   47.3340   32.1270   42.2450 C   0  0  0  0  0  0  0  0  0  0  0  0
   48.1690   31.7010   43.3980 C   0  0  0  0  0  0  0  0  0  0  0  0
   44.7077   31.1133   46.9314 H   0  0  0  0  0  0  0  0  0  0  0  0
   44.6937   31.2807   48.7080 H   0  0  0  0  0  0  0  0  0  0  0  0
   45.9366   28.7456   46.7893 H   0  0  0  0  0  0  0  0  0  0  0  0
   48.1264   27.6846   47.1947 H   0  0  0  0  0  0  0  0  0  0  0  0
   44.2306   35.7863   44.8755 H   0  0  0  0  0  0  0  0  0  0  0  0
   48.1213   34.1846   43.1306 H   0  0  0  0  0  0  0  0  0  0  0  0
   46.2917   31.7824   42.1755 H   0  0  0  0  0  0  0  0  0  0  0  0
   47.4482   32.0436   41.1541 H   0  0  0  0  0  0  0  0  0  0  0  0
   49.2274   31.4407   43.2496 H   0  0  0  0  0  0  0  0  0  0  0  0
   48.0957   30.9317   44.1808 H   0  0  0  0  0  0  0  0  0  0  0  0
  1  2  1  0
  2  7  2  0
  3  4  2  0
  3  2  1  0
  4  5  1  0
  5  6  2  0
  6  8  1  0
  7  6  1  0
  8 11  1  0
  9  8  1  0
 10  8  1  0
 12  1  1  0
 13 18  2  0
 14 15  2  0
 14 13  1  0
 15 16  1  0
 16 17  2  0
 17 12  1  0
 18 17  1  0
 19 20  1  0
 19 14  1  0
 21 19  1  0
 22 19  1  0
 23 25  1  0
 23 15  1  0
 24 23  1  0
 24 25  1  0
  1 26  1  0
  1 27  1  0
  3 28  1  0
  4 29  1  0
 13 30  1  0
 23 31  1  0
 24 32  1  0
 24 33  1  0
 25 34  1  0
 25 35  1  0
M  ISO  8  26   8  27   8  28  14  29  14  30  14  31  13  32  13  33  13
M  ISO  2  34  13  35  13
M  END
>  <minimizedAffinity>  (1) 
-5.6190896

>  <minimizedRMSD>  (1) 
0.261801183

$$$$
