
     RDKit          3D

 35 37  0  0  0  0  0  0  0  0999 V2000
   45.0410   34.8900   44.7730 C   0  0  0  0  0  0  0  0  0  0  0  0
   45.9570   34.6030   43.7340 C   0  0  0  0  0  0  0  0  0  0  0  0
   46.9270   33.6370   43.9940 C   0  0  0  0  0  0  0  0  0  0  0  0
   46.9370   33.0430   45.2050 N   0  0  0  0  0  0  0  0  0  0  0  0
   46.0540   33.3400   46.1620 C   0  0  0  0  0  0  0  0  0  0  0  0
   45.1180   34.2510   45.9510 N   0  0  0  0  0  0  0  0  0  0  0  0
   47.8970   33.1910   42.9990 C   0  0  0  0  0  0  0  0  0  0  0  0
   49.1590   33.7520   42.9160 C   0  0  0  0  0  0  0  0  0  0  0  0
   49.9270   33.2040   41.9200 C   0  0  0  0  0  0  0  0  0  0  0  0
   49.0690   32.2730   41.3920 C   0  0  0  0  0  0  0  0  0  0  0  0
   47.9790   32.3280   42.0370 O   0  0  0  0  0  0  0  0  0  0  0  0
   45.8370   35.3430   42.4510 C   0  0  0  0  0  0  0  0  0  0  0  0
   44.8530   36.3020   42.6950 F   0  0  0  0  0  0  0  0  0  0  0  0
   45.3520   34.4430   41.5200 F   0  0  0  0  0  0  0  0  0  0  0  0
   47.0140   35.9100   42.1450 F   0  0  0  0  0  0  0  0  0  0  0  0
   46.0570   32.7280   47.4020 O   0  0  0  0  0  0  0  0  0  0  0  0
   45.6290   31.3890   47.5430 C   0  0  0  0  0  0  0  0  0  0  0  0
   46.8260   30.5530   47.7540 C   0  0  0  0  0  0  0  0  0  0  0  0
   47.1130   29.2640   47.3250 C   0  0  0  0  0  0  0  0  0  0  0  0
   48.3170   28.7360   47.6620 C   0  0  0  0  0  0  0  0  0  0  0  0
   49.2190   29.3890   48.3720 N   0  0  0  0  0  0  0  0  0  0  0  0
   48.9290   30.6420   48.7840 C   0  0  0  0  0  0  0  0  0  0  0  0
   47.7420   31.2440   48.4880 N   0  0  0  0  0  0  0  0  0  0  0  0
   49.9980   31.3100   49.5790 C   0  0  0  0  0  0  0  0  0  0  0  0
   49.9200   32.6750   49.4770 F   0  0  0  0  0  0  0  0  0  0  0  0
   51.2590   30.8910   49.1370 F   0  0  0  0  0  0  0  0  0  0  0  0
   49.9080   30.9810   50.9190 F   0  0  0  0  0  0  0  0  0  0  0  0
   44.2570   35.6450   44.6139 H   0  0  0  0  0  0  0  0  0  0  0  0
   49.5105   34.5551   43.5805 H   0  0  0  0  0  0  0  0  0  0  0  0
   50.9580   33.4469   41.6233 H   0  0  0  0  0  0  0  0  0  0  0  0
   49.2888   31.5956   40.5536 H   0  0  0  0  0  0  0  0  0  0  0  0
   44.9540   31.3009   48.4070 H   0  0  0  0  0  0  0  0  0  0  0  0
   45.0858   31.0625   46.6439 H   0  0  0  0  0  0  0  0  0  0  0  0
   46.3875   28.6890   46.7308 H   0  0  0  0  0  0  0  0  0  0  0  0
   48.5529   27.7149   47.3276 H   0  0  0  0  0  0  0  0  0  0  0  0
  1  6  2  0
  2  3  2  0
  2  1  1  0
  3  4  1  0
  4  5  2  0
  5 16  1  0
  6  5  1  0
  7  3  1  0
  8  7  2  0
  9  8  1  0
 10  9  2  0
 10 11  1  0
 11  7  1  0
 12 13  1  0
 12  2  1  0
 14 12  1  0
 15 12  1  0
 16 17  1  0
 17 18  1  0
 18 23  2  0
 19 20  2  0
 19 18  1  0
 20 21  1  0
 21 22  2  0
 22 24  1  0
 23 22  1  0
 24 27  1  0
 25 24  1  0
 26 24  1  0
  1 28  1  0
  8 29  1  0
  9 30  1  0
 10 31  1  0
 17 32  1  0
 17 33  1  0
 19 34  1  0
 20 35  1  0
M  ISO  8  28  14  29  14  30  14  31  14  32   8  33   8  34  14  35  14
M  END
>  <minimizedAffinity>  (1) 
-5.89992952

>  <minimizedRMSD>  (1) 
0.409710407

$$$$
