
     RDKit          3D

 29 30  0  0  0  0  0  0  0  0999 V2000
   45.3600   31.4140   47.7930 C   0  0  0  0  0  0  0  0  0  0  0  0
   46.5370   30.5500   47.8940 C   0  0  0  0  0  0  0  0  0  0  0  0
   46.7530   29.2670   47.3850 C   0  0  0  0  0  0  0  0  0  0  0  0
   47.9580   28.6840   47.6300 C   0  0  0  0  0  0  0  0  0  0  0  0
   48.9220   29.2890   48.3320 N   0  0  0  0  0  0  0  0  0  0  0  0
   48.7030   30.5110   48.8120 C   0  0  0  0  0  0  0  0  0  0  0  0
   47.5180   31.1740   48.6120 N   0  0  0  0  0  0  0  0  0  0  0  0
   49.8360   31.1120   49.5850 C   0  0  0  0  0  0  0  0  0  0  0  0
   49.8270   32.4850   49.5050 F   0  0  0  0  0  0  0  0  0  0  0  0
   51.0510   30.6280   49.0990 F   0  0  0  0  0  0  0  0  0  0  0  0
   49.7740   30.7760   50.9250 F   0  0  0  0  0  0  0  0  0  0  0  0
   45.8080   32.7350   47.6260 O   0  0  0  0  0  0  0  0  0  0  0  0
   45.0110   34.9050   44.9220 C   0  0  0  0  0  0  0  0  0  0  0  0
   45.9160   34.5440   43.9320 C   0  0  0  0  0  0  0  0  0  0  0  0
   46.8280   33.5120   44.2270 C   0  0  0  0  0  0  0  0  0  0  0  0
   46.7790   32.9330   45.4320 N   0  0  0  0  0  0  0  0  0  0  0  0
   45.8860   33.3150   46.3610 C   0  0  0  0  0  0  0  0  0  0  0  0
   45.0010   34.2940   46.1200 N   0  0  0  0  0  0  0  0  0  0  0  0
   45.8820   35.2590   42.6140 C   0  0  0  0  0  0  0  0  0  0  0  0
   45.0090   36.3100   42.8200 F   0  0  0  0  0  0  0  0  0  0  0  0
   45.3330   34.3570   41.6980 F   0  0  0  0  0  0  0  0  0  0  0  0
   47.1300   35.6630   42.2860 F   0  0  0  0  0  0  0  0  0  0  0  0
   47.7330   33.1470   43.2420 O   0  0  0  0  0  0  0  0  0  0  0  0
   44.7492   31.1143   46.9286 H   0  0  0  0  0  0  0  0  0  0  0  0
   44.7436   31.3299   48.7002 H   0  0  0  0  0  0  0  0  0  0  0  0
   45.9760   28.7461   46.8063 H   0  0  0  0  0  0  0  0  0  0  0  0
   48.1465   27.6749   47.2348 H   0  0  0  0  0  0  0  0  0  0  0  0
   44.2866   35.7082   44.7217 H   0  0  0  0  0  0  0  0  0  0  0  0
   48.3885   32.4255   43.4148 H   0  0  0  0  0  0  0  0  0  0  0  0
  1  2  1  0
  2  7  2  0
  3  4  2  0
  3  2  1  0
  4  5  1  0
  5  6  2  0
  6  8  1  0
  7  6  1  0
  8 11  1  0
  9  8  1  0
 10  8  1  0
 12  1  1  0
 13 18  2  0
 14 15  2  0
 14 13  1  0
 15 16  1  0
 16 17  2  0
 17 12  1  0
 18 17  1  0
 19 20  1  0
 19 14  1  0
 21 19  1  0
 22 19  1  0
 23 15  1  0
  1 24  1  0
  1 25  1  0
  3 26  1  0
  4 27  1  0
 13 28  1  0
 23 29  1  0
M  ISO  6  24   8  25   8  26  14  27  14  28  14  29   3
M  END
>  <minimizedAffinity>  (1) 
-5.50425816

>  <minimizedRMSD>  (1) 
0.281711221

$$$$
