
     RDKit          3D

 39 41  0  0  1  0  0  0  0  0999 V2000
   47.2120   34.0840   42.4430 C   0  0  2  0  0  0  0  0  0  0  0  0
   48.5710   34.6720   42.5900 C   0  0  0  0  0  0  0  0  0  0  0  0
   48.8930   35.6750   41.5400 C   0  0  0  0  0  0  0  0  0  0  0  0
   48.7160   35.1420   40.1360 C   0  0  0  0  0  0  0  0  0  0  0  0
   47.4930   34.2870   39.9700 C   0  0  0  0  0  0  0  0  0  0  0  0
   46.5450   34.3830   41.1330 C   0  0  1  0  0  0  0  0  0  0  0  0
   46.3030   34.4740   43.5400 C   0  0  0  0  0  0  0  0  0  0  0  0
   45.5940   35.6550   43.3160 C   0  0  0  0  0  0  0  0  0  0  0  0
   44.6950   36.1280   44.2830 C   0  0  0  0  0  0  0  0  0  0  0  0
   44.5800   35.3520   45.4290 N   0  0  0  0  0  0  0  0  0  0  0  0
   45.2830   34.2150   45.6100 C   0  0  0  0  0  0  0  0  0  0  0  0
   46.1390   33.7890   44.6600 N   0  0  0  0  0  0  0  0  0  0  0  0
   45.4790   33.3350   40.9310 C   0  0  2  0  0  0  0  0  0  0  0  0
   44.8250   33.2130   39.5760 C   0  0  0  0  0  0  0  0  0  0  0  0
   44.0590   33.6970   40.7380 C   0  0  1  0  0  0  0  0  0  0  0  0
   43.1010   32.8600   41.5230 C   0  0  0  0  0  0  0  0  0  0  0  0
   41.6580   33.1110   41.2020 C   0  0  0  0  0  0  0  0  0  0  0  0
   47.3972   33.0004   42.4831 H   0  0  0  0  0  0  0  0  0  0  0  0
   48.6353   35.1619   43.5728 H   0  0  0  0  0  0  0  0  0  0  0  0
   49.2951   33.8500   42.4894 H   0  0  0  0  0  0  0  0  0  0  0  0
   48.2308   36.5436   41.6708 H   0  0  0  0  0  0  0  0  0  0  0  0
   49.9532   35.9438   41.6574 H   0  0  0  0  0  0  0  0  0  0  0  0
   48.6403   35.9957   39.4464 H   0  0  0  0  0  0  0  0  0  0  0  0
   49.5872   34.5064   39.9189 H   0  0  0  0  0  0  0  0  0  0  0  0
   46.9639   34.6055   39.0597 H   0  0  0  0  0  0  0  0  0  0  0  0
   47.8294   33.2417   39.9060 H   0  0  0  0  0  0  0  0  0  0  0  0
   46.1503   35.4091   41.1696 H   0  0  0  0  0  0  0  0  0  0  0  0
   45.7403   36.2151   42.3807 H   0  0  0  0  0  0  0  0  0  0  0  0
   44.1181   37.0540   44.1428 H   0  0  0  0  0  0  0  0  0  0  0  0
   45.1573   33.6339   46.5355 H   0  0  0  0  0  0  0  0  0  0  0  0
   46.0123   32.6686   41.6249 H   0  0  0  0  0  0  0  0  0  0  0  0
   44.6155   32.2199   39.1520 H   0  0  0  0  0  0  0  0  0  0  0  0
   45.0399   33.5957   38.5674 H   0  0  0  0  0  0  0  0  0  0  0  0
   43.4070   34.5769   40.8412 H   0  0  0  0  0  0  0  0  0  0  0  0
   43.3205   31.8016   41.3190 H   0  0  0  0  0  0  0  0  0  0  0  0
   43.2404   33.1286   42.5806 H   0  0  0  0  0  0  0  0  0  0  0  0
   41.0864   33.2104   42.1366 H   0  0  0  0  0  0  0  0  0  0  0  0
   41.5684   34.0382   40.6170 H   0  0  0  0  0  0  0  0  0  0  0  0
   41.2606   32.2685   40.6170 H   0  0  0  0  0  0  0  0  0  0  0  0
  1  2  1  0
  1  7  1  0
  3  2  1  0
  4  3  1  0
  5  4  1  0
  5  6  1  0
  6  1  1  0
  7 12  1  0
  8  7  2  0
  8  9  1  0
  9 10  2  0
 10 11  1  0
 12 11  2  0
 13  6  1  0
 14 15  1  0
 14 13  1  0
 15 13  1  0
 15 16  1  0
 17 16  1  0
  1 18  1  6
  2 19  1  0
  2 20  1  0
  3 21  1  0
  3 22  1  0
  4 23  1  0
  4 24  1  0
  5 25  1  0
  5 26  1  0
  6 27  1  1
  8 28  1  0
  9 29  1  0
 11 30  1  0
 13 31  1  1
 14 32  1  0
 14 33  1  0
 15 34  1  6
 16 35  1  0
 16 36  1  0
 17 37  1  0
 17 38  1  0
 17 39  1  0
M  ISO  8  18  13  19  13  20  13  21  13  22  13  23  13  24  13  25  13
M  ISO  8  26  13  27  13  28  14  29  14  30  14  31  13  32  13  33  13
M  ISO  6  34  13  35   8  36   8  37   8  38   8  39   8
M  END
>  <minimizedAffinity>  (1) 
-5.31842422

>  <minimizedRMSD>  (1) 
0.517786562

$$$$
