
     RDKit          3D

 22 23  0  0  0  0  0  0  0  0999 V2000
   44.7920   36.3160   42.8540 Cl  0  0  0  0  0  0  0  0  0  0  0  0
   45.4260   35.0950   43.9070 C   0  0  0  0  0  0  0  0  0  0  0  0
   46.4630   34.2920   43.5000 C   0  0  0  0  0  0  0  0  0  0  0  0
   46.8940   33.3460   44.4190 C   0  0  0  0  0  0  0  0  0  0  0  0
   46.3650   33.1670   45.6750 C   0  0  0  0  0  0  0  0  0  0  0  0
   45.3270   33.9870   46.0520 C   0  0  0  0  0  0  0  0  0  0  0  0
   44.6710   33.7370   47.6550 Cl  0  0  0  0  0  0  0  0  0  0  0  0
   44.8620   34.9390   45.1830 C   0  0  0  0  0  0  0  0  0  0  0  0
   48.7270   35.4130   40.8660 C   0  0  0  0  0  0  0  0  0  0  0  0
   48.2760   34.7140   39.7400 C   0  0  0  0  0  0  0  0  0  0  0  0
   47.1800   33.8470   39.8930 C   0  0  0  0  0  0  0  0  0  0  0  0
   46.6310   33.7470   41.1270 N   0  0  0  0  0  0  0  0  0  0  0  0
   47.0740   34.4210   42.1900 C   0  0  0  0  0  0  0  0  0  0  0  0
   48.1370   35.2700   42.0710 N   0  0  0  0  0  0  0  0  0  0  0  0
   46.9470   32.1180   46.5090 C   0  0  0  0  0  0  0  0  0  0  0  0
   47.5910   32.3290   47.5700 O   0  0  0  0  0  0  0  0  0  0  0  0
   47.7232   32.6884   44.1192 H   0  0  0  0  0  0  0  0  0  0  0  0
   44.0323   35.5924   45.4907 H   0  0  0  0  0  0  0  0  0  0  0  0
   49.5836   36.0958   40.7659 H   0  0  0  0  0  0  0  0  0  0  0  0
   48.7655   34.8396   38.7630 H   0  0  0  0  0  0  0  0  0  0  0  0
   46.7836   33.2720   39.0432 H   0  0  0  0  0  0  0  0  0  0  0  0
   46.8136   31.0742   46.1885 H   0  0  0  0  0  0  0  0  0  0  0  0
  1  2  1  0
  2  8  2  0
  3  2  1  0
  3  4  2  0
  4  5  1  0
  5  6  2  0
  5 15  1  0
  6  7  1  0
  8  6  1  0
  9 14  2  0
 10 11  2  0
 10  9  1  0
 11 12  1  0
 12 13  2  0
 13  3  1  0
 14 13  1  0
 15 16  2  0
  4 17  1  0
  8 18  1  0
  9 19  1  0
 10 20  1  0
 11 21  1  0
 15 22  1  0
M  ISO  6  17  14  18  14  19  14  20  14  21  14  22   6
M  END
>  <minimizedAffinity>  (1) 
-4.89848948

>  <minimizedRMSD>  (1) 
0.584958553

$$$$
