
     RDKit          3D

 23 24  0  0  0  0  0  0  0  0999 V2000
   44.8870   36.3580   42.9380 Cl  0  0  0  0  0  0  0  0  0  0  0  0
   45.4940   35.0750   43.9550 C   0  0  0  0  0  0  0  0  0  0  0  0
   46.4980   34.2430   43.5130 C   0  0  0  0  0  0  0  0  0  0  0  0
   46.8990   33.2680   44.3850 C   0  0  0  0  0  0  0  0  0  0  0  0
   46.3720   33.0770   45.6430 C   0  0  0  0  0  0  0  0  0  0  0  0
   45.3730   33.9220   46.0560 C   0  0  0  0  0  0  0  0  0  0  0  0
   44.7380   33.6440   47.6620 Cl  0  0  0  0  0  0  0  0  0  0  0  0
   44.9310   34.9180   45.2220 C   0  0  0  0  0  0  0  0  0  0  0  0
   48.7380   35.4070   40.8630 C   0  0  0  0  0  0  0  0  0  0  0  0
   48.2600   34.7360   39.7340 C   0  0  0  0  0  0  0  0  0  0  0  0
   47.1440   33.8630   39.8760 C   0  0  0  0  0  0  0  0  0  0  0  0
   46.6320   33.7550   41.1210 N   0  0  0  0  0  0  0  0  0  0  0  0
   47.0950   34.3980   42.1930 C   0  0  0  0  0  0  0  0  0  0  0  0
   48.1650   35.2390   42.0710 N   0  0  0  0  0  0  0  0  0  0  0  0
   46.8830   31.9810   46.5150 C   0  0  0  0  0  0  0  0  0  0  0  0
   47.5800   32.5470   47.5840 F   0  0  0  0  0  0  0  0  0  0  0  0
   45.8610   31.1890   47.0050 F   0  0  0  0  0  0  0  0  0  0  0  0
   47.7790   31.1670   45.8340 F   0  0  0  0  0  0  0  0  0  0  0  0
   47.6995   32.5881   44.0580 H   0  0  0  0  0  0  0  0  0  0  0  0
   44.1300   35.5951   45.5535 H   0  0  0  0  0  0  0  0  0  0  0  0
   49.5983   36.0852   40.7636 H   0  0  0  0  0  0  0  0  0  0  0  0
   48.7373   34.8797   38.7534 H   0  0  0  0  0  0  0  0  0  0  0  0
   46.7242   33.3098   39.0229 H   0  0  0  0  0  0  0  0  0  0  0  0
  1  2  1  0
  2  8  2  0
  3  2  1  0
  3  4  2  0
  4  5  1  0
  5  6  2  0
  5 15  1  0
  6  7  1  0
  8  6  1  0
  9 14  2  0
 10 11  2  0
 10  9  1  0
 11 12  1  0
 12 13  2  0
 13  3  1  0
 14 13  1  0
 15 17  1  0
 15 16  1  0
 18 15  1  0
  4 19  1  0
  8 20  1  0
  9 21  1  0
 10 22  1  0
 11 23  1  0
M  ISO  5  19  14  20  14  21  14  22  14  23  14
M  END
>  <minimizedAffinity>  (1) 
-5.42000294

>  <minimizedRMSD>  (1) 
0.55012238

$$$$
