
     RDKit          3D

 41 44  0  0  0  0  0  0  0  0999 V2000
   44.8320   36.0140   43.2130 Cl  0  0  0  0  0  0  0  0  0  0  0  0
   45.5740   34.7620   44.1690 C   0  0  0  0  0  0  0  0  0  0  0  0
   46.6750   34.0790   43.6930 C   0  0  0  0  0  0  0  0  0  0  0  0
   47.1790   33.1110   44.5340 C   0  0  0  0  0  0  0  0  0  0  0  0
   46.6710   32.7900   45.7790 C   0  0  0  0  0  0  0  0  0  0  0  0
   45.5720   33.4940   46.2170 C   0  0  0  0  0  0  0  0  0  0  0  0
   44.9620   33.0560   47.7970 Cl  0  0  0  0  0  0  0  0  0  0  0  0
   45.0360   34.4640   45.4220 C   0  0  0  0  0  0  0  0  0  0  0  0
   47.3580   31.7230   46.5130 C   0  0  0  0  0  0  0  0  0  0  0  0
   47.4820   30.4380   46.0340 C   0  0  0  0  0  0  0  0  0  0  0  0
   48.1240   29.4290   46.7120 C   0  0  0  0  0  0  0  0  0  0  0  0
   48.6850   29.6910   47.9420 C   0  0  0  0  0  0  0  0  0  0  0  0
   49.3060   28.6920   48.5870 N   0  0  0  0  0  0  0  0  0  0  0  0
   49.8810   28.8630   49.7950 C   0  0  0  0  0  0  0  0  0  0  0  0
   49.8010   30.1350   50.3490 C   0  0  0  0  0  0  0  0  0  0  0  0
   49.1670   31.1500   49.6910 C   0  0  0  0  0  0  0  0  0  0  0  0
   48.5860   30.9660   48.4630 C   0  0  0  0  0  0  0  0  0  0  0  0
   47.9360   31.9650   47.7650 C   0  0  0  0  0  0  0  0  0  0  0  0
   48.8330   35.5440   41.1480 C   0  0  0  0  0  0  0  0  0  0  0  0
   48.4140   34.9460   39.9740 C   0  0  0  0  0  0  0  0  0  0  0  0
   47.3600   34.0110   40.0520 C   0  0  0  0  0  0  0  0  0  0  0  0
   46.8200   33.7560   41.2710 N   0  0  0  0  0  0  0  0  0  0  0  0
   47.2590   34.3630   42.4000 C   0  0  0  0  0  0  0  0  0  0  0  0
   48.2600   35.2480   42.3270 N   0  0  0  0  0  0  0  0  0  0  0  0
   46.9080   33.3710   38.8070 C   0  0  0  0  0  0  0  0  0  0  0  0
   47.6580   33.8720   37.5860 C   0  0  0  0  0  0  0  0  0  0  0  0
   48.0574   32.5475   44.1864 H   0  0  0  0  0  0  0  0  0  0  0  0
   44.1588   35.0249   45.7768 H   0  0  0  0  0  0  0  0  0  0  0  0
   47.0423   30.2056   45.0529 H   0  0  0  0  0  0  0  0  0  0  0  0
   48.1890   28.4213   46.2758 H   0  0  0  0  0  0  0  0  0  0  0  0
   50.3878   28.0371   50.3156 H   0  0  0  0  0  0  0  0  0  0  0  0
   50.2552   30.3272   51.3323 H   0  0  0  0  0  0  0  0  0  0  0  0
   49.1212   32.1440   50.1599 H   0  0  0  0  0  0  0  0  0  0  0  0
   47.8711   32.9723   48.2021 H   0  0  0  0  0  0  0  0  0  0  0  0
   49.6524   36.2773   41.1164 H   0  0  0  0  0  0  0  0  0  0  0  0
   48.8865   35.1909   39.0113 H   0  0  0  0  0  0  0  0  0  0  0  0
   47.0615   32.2852   38.8935 H   0  0  0  0  0  0  0  0  0  0  0  0
   45.8456   33.6217   38.6708 H   0  0  0  0  0  0  0  0  0  0  0  0
   48.5328   34.4564   37.9073 H   0  0  0  0  0  0  0  0  0  0  0  0
   47.9912   33.0145   36.9830 H   0  0  0  0  0  0  0  0  0  0  0  0
   46.9934   34.5082   36.9830 H   0  0  0  0  0  0  0  0  0  0  0  0
  1  2  1  0
  2  8  2  0
  3  2  1  0
  3  4  2  0
  4  5  1  0
  5  6  2  0
  5  9  1  0
  6  7  1  0
  8  6  1  0
  9 18  1  0
 10  9  2  0
 10 11  1  0
 11 12  2  0
 12 17  1  0
 12 13  1  0
 13 14  2  0
 14 15  1  0
 16 15  2  0
 17 16  1  0
 18 17  2  0
 19 24  2  0
 20 21  2  0
 20 19  1  0
 21 22  1  0
 22 23  2  0
 23  3  1  0
 24 23  1  0
 25 21  1  0
 26 25  1  0
  4 27  1  0
  8 28  1  0
 10 29  1  0
 11 30  1  0
 14 31  1  0
 15 32  1  0
 16 33  1  0
 18 34  1  0
 19 35  1  0
 20 36  1  0
 25 37  1  0
 25 38  1  0
 26 39  1  0
 26 40  1  0
 26 41  1  0
M  ISO  8  27  14  28  14  29  14  30  14  31  14  32  14  33  14  34  14
M  ISO  7  35  14  36  14  37   8  38   8  39   8  40   8  41   8
M  END
>  <minimizedAffinity>  (1) 
-6.73837137

>  <minimizedRMSD>  (1) 
0.259491891

$$$$
