
     RDKit          3D

 38 41  0  0  0  0  0  0  0  0999 V2000
   44.7770   33.6000   41.2030 F   0  0  0  0  0  0  0  0  0  0  0  0
   46.0150   34.0620   41.0450 C   0  0  0  0  0  0  0  0  0  0  0  0
   46.6310   34.7240   42.0870 C   0  0  0  0  0  0  0  0  0  0  0  0
   47.9140   35.2290   41.9900 C   0  0  0  0  0  0  0  0  0  0  0  0
   48.6390   35.0820   40.8120 C   0  0  0  0  0  0  0  0  0  0  0  0
   47.9760   34.4110   39.7970 C   0  0  0  0  0  0  0  0  0  0  0  0
   46.6950   33.8930   39.8600 C   0  0  0  0  0  0  0  0  0  0  0  0
   46.1070   33.2050   38.7160 C   0  0  0  0  0  0  0  0  0  0  0  0
   44.8130   32.7270   38.7310 C   0  0  0  0  0  0  0  0  0  0  0  0
   44.1960   32.0720   37.6960 C   0  0  0  0  0  0  0  0  0  0  0  0
   44.9420   31.8790   36.5450 C   0  0  0  0  0  0  0  0  0  0  0  0
   46.2570   32.3410   36.4760 C   0  0  0  0  0  0  0  0  0  0  0  0
   46.9920   32.1440   35.3250 C   0  0  0  0  0  0  0  0  0  0  0  0
   48.2980   32.5860   35.2160 C   0  0  0  0  0  0  0  0  0  0  0  0
   48.8440   33.2440   36.3220 C   0  0  0  0  0  0  0  0  0  0  0  0
   48.1230   33.4470   37.4710 C   0  0  0  0  0  0  0  0  0  0  0  0
   46.8380   32.9960   37.5420 C   0  0  0  0  0  0  0  0  0  0  0  0
   45.4150   34.1710   45.5110 C   0  0  0  0  0  0  0  0  0  0  0  0
   44.5950   35.2990   45.7050 C   0  0  0  0  0  0  0  0  0  0  0  0
   44.4590   36.2400   44.6710 C   0  0  0  0  0  0  0  0  0  0  0  0
   45.1510   35.9920   43.5170 N   0  0  0  0  0  0  0  0  0  0  0  0
   45.9240   34.9150   43.3560 C   0  0  0  0  0  0  0  0  0  0  0  0
   46.0470   34.0230   44.3460 N   0  0  0  0  0  0  0  0  0  0  0  0
   45.5430   33.2310   46.5600 N   0  0  0  0  0  0  0  0  0  0  0  0
   48.3638   35.7495   42.8483 H   0  0  0  0  0  0  0  0  0  0  0  0
   49.6619   35.4694   40.6950 H   0  0  0  0  0  0  0  0  0  0  0  0
   48.5205   34.2775   38.8506 H   0  0  0  0  0  0  0  0  0  0  0  0
   44.2277   32.8842   39.6490 H   0  0  0  0  0  0  0  0  0  0  0  0
   43.1580   31.7168   37.7761 H   0  0  0  0  0  0  0  0  0  0  0  0
   44.4968   31.3603   35.6832 H   0  0  0  0  0  0  0  0  0  0  0  0
   46.5284   31.6232   34.4742 H   0  0  0  0  0  0  0  0  0  0  0  0
   48.8824   32.4265   34.2978 H   0  0  0  0  0  0  0  0  0  0  0  0
   49.8803   33.6090   36.2693 H   0  0  0  0  0  0  0  0  0  0  0  0
   48.5768   33.9684   38.3267 H   0  0  0  0  0  0  0  0  0  0  0  0
   44.0653   35.4422   46.6584 H   0  0  0  0  0  0  0  0  0  0  0  0
   43.8267   37.1331   44.7836 H   0  0  0  0  0  0  0  0  0  0  0  0
   46.1384   32.3996   46.4367 H   0  0  0  0  0  0  0  0  0  0  0  0
   45.0409   33.3779   47.4472 H   0  0  0  0  0  0  0  0  0  0  0  0
  2  1  1  0
  2  3  2  0
  3 22  1  0
  4  3  1  0
  5  4  2  0
  6  7  2  0
  6  5  1  0
  7  2  1  0
  8  9  2  0
  8  7  1  0
 10  9  1  0
 11 10  2  0
 12 11  1  0
 12 17  2  0
 13 12  1  0
 14 13  2  0
 14 15  1  0
 15 16  2  0
 16 17  1  0
 17  8  1  0
 18 19  2  0
 18 24  1  0
 20 19  1  0
 21 20  2  0
 22 21  1  0
 22 23  2  0
 23 18  1  0
  4 25  1  0
  5 26  1  0
  6 27  1  0
  9 28  1  0
 10 29  1  0
 11 30  1  0
 13 31  1  0
 14 32  1  0
 15 33  1  0
 16 34  1  0
 19 35  1  0
 20 36  1  0
 24 37  1  0
 24 38  1  0
M  ISO  8  25  14  26  14  27  14  28  14  29  14  30  14  31  14  32  14
M  ISO  4  33  14  34  14  35  14  36  14
M  END
>  <minimizedAffinity>  (1) 
-6.88554001

>  <minimizedRMSD>  (1) 
0.767866433

$$$$
