
     RDKit          3D

 29 31  0  0  0  0  0  0  0  0999 V2000
   45.1490   33.3450   41.0500 F   0  0  0  0  0  0  0  0  0  0  0  0
   46.3240   33.9650   40.8930 C   0  0  0  0  0  0  0  0  0  0  0  0
   46.8360   34.7390   41.9140 C   0  0  0  0  0  0  0  0  0  0  0  0
   48.0450   35.4080   41.8180 C   0  0  0  0  0  0  0  0  0  0  0  0
   48.7900   35.3040   40.6400 C   0  0  0  0  0  0  0  0  0  0  0  0
   48.2390   34.5180   39.6430 C   0  0  0  0  0  0  0  0  0  0  0  0
   47.0420   33.8520   39.7290 C   0  0  0  0  0  0  0  0  0  0  0  0
   45.4720   34.0380   45.2550 C   0  0  0  0  0  0  0  0  0  0  0  0
   44.6630   35.1720   45.4890 C   0  0  0  0  0  0  0  0  0  0  0  0
   44.5930   36.1720   44.4960 C   0  0  0  0  0  0  0  0  0  0  0  0
   45.3250   35.9590   43.3650 N   0  0  0  0  0  0  0  0  0  0  0  0
   46.0800   34.8750   43.1730 C   0  0  0  0  0  0  0  0  0  0  0  0
   46.1460   33.9290   44.1150 N   0  0  0  0  0  0  0  0  0  0  0  0
   45.5400   33.0360   46.2570 N   0  0  0  0  0  0  0  0  0  0  0  0
   46.5920   33.0680   38.6090 C   0  0  0  0  0  0  0  0  0  0  0  0
   46.1120   31.7920   38.5090 C   0  0  0  0  0  0  0  0  0  0  0  0
   45.8040   31.4690   37.2160 C   0  0  0  0  0  0  0  0  0  0  0  0
   46.1130   32.5990   36.5210 N   0  0  0  0  0  0  0  0  0  0  0  0
   46.5710   33.5280   37.3370 N   0  0  0  0  0  0  0  0  0  0  0  0
   48.4143   36.0138   42.6586 H   0  0  0  0  0  0  0  0  0  0  0  0
   49.7554   35.8157   40.5131 H   0  0  0  0  0  0  0  0  0  0  0  0
   48.8063   34.4190   38.7058 H   0  0  0  0  0  0  0  0  0  0  0  0
   44.0983   35.2736   46.4275 H   0  0  0  0  0  0  0  0  0  0  0  0
   43.9802   37.0760   44.6271 H   0  0  0  0  0  0  0  0  0  0  0  0
   46.1229   32.1996   46.1102 H   0  0  0  0  0  0  0  0  0  0  0  0
   45.0065   33.1449   47.1313 H   0  0  0  0  0  0  0  0  0  0  0  0
   45.9887   31.1094   39.3627 H   0  0  0  0  0  0  0  0  0  0  0  0
   45.4019   30.5211   36.8290 H   0  0  0  0  0  0  0  0  0  0  0  0
   46.0044   32.7117   35.5030 H   0  0  0  0  0  0  0  0  0  0  0  0
  2  1  1  0
  2  3  2  0
  3 12  1  0
  4  3  1  0
  5  4  2  0
  6  7  2  0
  6  5  1  0
  7  2  1  0
  8  9  2  0
  8 14  1  0
 10  9  1  0
 11 10  2  0
 12 11  1  0
 12 13  2  0
 13  8  1  0
 15  7  1  0
 16 15  1  0
 17 16  2  0
 18 17  1  0
 18 19  1  0
 19 15  2  0
  4 20  1  0
  5 21  1  0
  6 22  1  0
  9 23  1  0
 10 24  1  0
 14 25  1  0
 14 26  1  0
 16 27  1  0
 17 28  1  0
 18 29  1  0
M  ISO  8  20  14  21  14  22  14  23  14  24  14  27  14  28  14  29   9
M  END
>  <minimizedAffinity>  (1) 
-5.8564167

>  <minimizedRMSD>  (1) 
0.318863392

$$$$
