
     RDKit          3D

 31 33  0  0  0  0  0  0  0  0999 V2000
   45.1810   33.4560   41.1290 F   0  0  0  0  0  0  0  0  0  0  0  0
   46.3530   34.0620   41.0000 C   0  0  0  0  0  0  0  0  0  0  0  0
   46.8520   34.7990   42.0510 C   0  0  0  0  0  0  0  0  0  0  0  0
   48.0680   35.4660   42.0090 C   0  0  0  0  0  0  0  0  0  0  0  0
   48.8390   35.3960   40.8440 C   0  0  0  0  0  0  0  0  0  0  0  0
   48.2940   34.6450   39.8170 C   0  0  0  0  0  0  0  0  0  0  0  0
   47.0870   33.9760   39.8480 C   0  0  0  0  0  0  0  0  0  0  0  0
   45.4730   34.0080   45.3810 C   0  0  0  0  0  0  0  0  0  0  0  0
   44.6370   35.1120   45.6130 C   0  0  0  0  0  0  0  0  0  0  0  0
   44.5440   36.1240   44.6360 C   0  0  0  0  0  0  0  0  0  0  0  0
   45.2900   35.9610   43.5010 N   0  0  0  0  0  0  0  0  0  0  0  0
   46.0770   34.9030   43.3020 C   0  0  0  0  0  0  0  0  0  0  0  0
   46.1640   33.9410   44.2380 N   0  0  0  0  0  0  0  0  0  0  0  0
   45.5580   33.0010   46.3700 N   0  0  0  0  0  0  0  0  0  0  0  0
   46.7100   33.2460   38.6530 C   0  0  0  0  0  0  0  0  0  0  0  0
   45.6460   32.4090   38.4790 C   0  0  0  0  0  0  0  0  0  0  0  0
   45.3440   31.7450   37.3180 C   0  0  0  0  0  0  0  0  0  0  0  0
   46.1520   31.9080   36.2130 C   0  0  0  0  0  0  0  0  0  0  0  0
   47.2140   32.7470   36.3930 C   0  0  0  0  0  0  0  0  0  0  0  0
   47.4640   33.3700   37.5510 N   0  0  0  0  0  0  0  0  0  0  0  0
   48.4202   36.0408   42.8782 H   0  0  0  0  0  0  0  0  0  0  0  0
   49.8109   35.9026   40.7505 H   0  0  0  0  0  0  0  0  0  0  0  0
   48.8783   34.5746   38.8877 H   0  0  0  0  0  0  0  0  0  0  0  0
   44.0608   35.1864   46.5471 H   0  0  0  0  0  0  0  0  0  0  0  0
   43.9008   37.0047   44.7798 H   0  0  0  0  0  0  0  0  0  0  0  0
   46.1651   32.1824   46.2207 H   0  0  0  0  0  0  0  0  0  0  0  0
   45.0129   33.0860   47.2398 H   0  0  0  0  0  0  0  0  0  0  0  0
   44.9774   32.2548   39.3388 H   0  0  0  0  0  0  0  0  0  0  0  0
   44.4637   31.0873   37.2687 H   0  0  0  0  0  0  0  0  0  0  0  0
   45.9557   31.3999   35.2573 H   0  0  0  0  0  0  0  0  0  0  0  0
   47.8958   32.9189   35.5471 H   0  0  0  0  0  0  0  0  0  0  0  0
  2  1  1  0
  2  3  2  0
  3 12  1  0
  4  3  1  0
  5  4  2  0
  6  7  2  0
  6  5  1  0
  7  2  1  0
  8  9  2  0
  8 14  1  0
 10  9  1  0
 11 10  2  0
 12 11  1  0
 12 13  2  0
 13  8  1  0
 15  7  1  0
 16 15  2  0
 17 16  1  0
 18 19  1  0
 18 17  2  0
 19 20  2  0
 20 15  1  0
  4 21  1  0
  5 22  1  0
  6 23  1  0
  9 24  1  0
 10 25  1  0
 14 26  1  0
 14 27  1  0
 16 28  1  0
 17 29  1  0
 18 30  1  0
 19 31  1  0
M  ISO  8  21  14  22  14  23  14  24  14  25  14  28  14  29  14  30  14
M  ISO  1  31  14
M  END
>  <minimizedAffinity>  (1) 
-6.06553507

>  <minimizedRMSD>  (1) 
0.190456554

$$$$
