
     RDKit          3D

 34 36  0  0  0  0  0  0  0  0999 V2000
   45.1270   33.4010   41.0510 F   0  0  0  0  0  0  0  0  0  0  0  0
   46.3170   33.9980   40.8930 C   0  0  0  0  0  0  0  0  0  0  0  0
   46.8220   34.7620   41.9180 C   0  0  0  0  0  0  0  0  0  0  0  0
   48.0420   35.4080   41.8320 C   0  0  0  0  0  0  0  0  0  0  0  0
   48.8130   35.3040   40.6840 C   0  0  0  0  0  0  0  0  0  0  0  0
   48.2610   34.5240   39.6820 C   0  0  0  0  0  0  0  0  0  0  0  0
   47.0560   33.8690   39.7320 C   0  0  0  0  0  0  0  0  0  0  0  0
   45.4370   34.0980   45.2690 C   0  0  0  0  0  0  0  0  0  0  0  0
   44.6370   35.2480   45.4680 C   0  0  0  0  0  0  0  0  0  0  0  0
   44.5770   36.2320   44.4690 C   0  0  0  0  0  0  0  0  0  0  0  0
   45.3120   36.0180   43.3330 N   0  0  0  0  0  0  0  0  0  0  0  0
   46.0610   34.9190   43.1690 C   0  0  0  0  0  0  0  0  0  0  0  0
   46.1070   34.0000   44.1220 N   0  0  0  0  0  0  0  0  0  0  0  0
   45.4900   33.1200   46.2760 N   0  0  0  0  0  0  0  0  0  0  0  0
   46.5450   33.0900   38.6830 N   0  0  0  0  0  0  0  0  0  0  0  0
   45.8310   31.8320   38.7290 C   0  0  0  0  0  0  0  0  0  0  0  0
   45.1470   31.6870   37.3880 C   0  0  0  0  0  0  0  0  0  0  0  0
   46.1080   32.4140   36.4700 C   0  0  0  0  0  0  0  0  0  0  0  0
   46.7060   33.5310   37.2940 C   0  0  0  0  0  0  0  0  0  0  0  0
   48.4032   36.0084   42.6800 H   0  0  0  0  0  0  0  0  0  0  0  0
   49.7877   35.8026   40.5777 H   0  0  0  0  0  0  0  0  0  0  0  0
   48.8451   34.4191   38.7558 H   0  0  0  0  0  0  0  0  0  0  0  0
   44.0656   35.3701   46.4000 H   0  0  0  0  0  0  0  0  0  0  0  0
   43.9651   37.1376   44.5931 H   0  0  0  0  0  0  0  0  0  0  0  0
   46.0679   32.2774   46.1457 H   0  0  0  0  0  0  0  0  0  0  0  0
   44.9510   33.2455   47.1447 H   0  0  0  0  0  0  0  0  0  0  0  0
   46.5329   31.0007   38.8911 H   0  0  0  0  0  0  0  0  0  0  0  0
   45.1041   31.8131   39.5544 H   0  0  0  0  0  0  0  0  0  0  0  0
   45.0437   30.6295   37.1033 H   0  0  0  0  0  0  0  0  0  0  0  0
   44.1218   32.0852   37.3654 H   0  0  0  0  0  0  0  0  0  0  0  0
   45.5711   32.8244   35.6021 H   0  0  0  0  0  0  0  0  0  0  0  0
   46.8848   31.7382   36.0829 H   0  0  0  0  0  0  0  0  0  0  0  0
   47.7700   33.6672   37.0502 H   0  0  0  0  0  0  0  0  0  0  0  0
   46.2183   34.4984   37.1033 H   0  0  0  0  0  0  0  0  0  0  0  0
  2  1  1  0
  2  3  2  0
  3 12  1  0
  4  3  1  0
  5  4  2  0
  6  7  2  0
  6  5  1  0
  7  2  1  0
  8  9  2  0
  8 14  1  0
 10  9  1  0
 11 10  2  0
 12 11  1  0
 12 13  2  0
 13  8  1  0
 15 16  1  0
 15  7  1  0
 17 16  1  0
 18 19  1  0
 18 17  1  0
 19 15  1  0
  4 20  1  0
  5 21  1  0
  6 22  1  0
  9 23  1  0
 10 24  1  0
 14 25  1  0
 14 26  1  0
 16 27  1  0
 16 28  1  0
 17 29  1  0
 17 30  1  0
 18 31  1  0
 18 32  1  0
 19 33  1  0
 19 34  1  0
M  ISO  8  20  14  21  14  22  14  23  14  24  14  27  13  28  13  29  13
M  ISO  5  30  13  31  13  32  13  33  13  34  13
M  END
>  <minimizedAffinity>  (1) 
-5.81602478

>  <minimizedRMSD>  (1) 
0.136634395

$$$$
