
     RDKit          3D

 24 25  0  0  0  0  0  0  0  0999 V2000
   45.0820   33.3240   41.1450 F   0  0  0  0  0  0  0  0  0  0  0  0
   46.2600   33.9450   40.9730 C   0  0  0  0  0  0  0  0  0  0  0  0
   46.7840   34.7100   41.9880 C   0  0  0  0  0  0  0  0  0  0  0  0
   47.9860   35.3750   41.8830 C   0  0  0  0  0  0  0  0  0  0  0  0
   48.7210   35.2810   40.7060 C   0  0  0  0  0  0  0  0  0  0  0  0
   48.1610   34.5020   39.7080 C   0  0  0  0  0  0  0  0  0  0  0  0
   46.9520   33.8220   39.7870 C   0  0  0  0  0  0  0  0  0  0  0  0
   45.4660   34.0140   45.3500 C   0  0  0  0  0  0  0  0  0  0  0  0
   44.6500   35.1540   45.5820 C   0  0  0  0  0  0  0  0  0  0  0  0
   44.5640   36.1390   44.5890 C   0  0  0  0  0  0  0  0  0  0  0  0
   45.2820   35.9350   43.4440 N   0  0  0  0  0  0  0  0  0  0  0  0
   46.0460   34.8450   43.2540 C   0  0  0  0  0  0  0  0  0  0  0  0
   46.1280   33.9120   44.1920 N   0  0  0  0  0  0  0  0  0  0  0  0
   45.5530   33.0230   46.3500 N   0  0  0  0  0  0  0  0  0  0  0  0
   46.4730   33.0500   38.6970 N   0  0  0  0  0  0  0  0  0  0  0  0
   48.3618   35.9761   42.7241 H   0  0  0  0  0  0  0  0  0  0  0  0
   49.6859   35.7931   40.5764 H   0  0  0  0  0  0  0  0  0  0  0  0
   48.7242   34.4134   38.7673 H   0  0  0  0  0  0  0  0  0  0  0  0
   44.0950   35.2615   46.5256 H   0  0  0  0  0  0  0  0  0  0  0  0
   43.9450   37.0381   44.7252 H   0  0  0  0  0  0  0  0  0  0  0  0
   46.1395   32.1897   46.1996 H   0  0  0  0  0  0  0  0  0  0  0  0
   45.0300   33.1326   47.2306 H   0  0  0  0  0  0  0  0  0  0  0  0
   45.5743   32.5526   38.7738 H   0  0  0  0  0  0  0  0  0  0  0  0
   47.0240   32.9870   37.8290 H   0  0  0  0  0  0  0  0  0  0  0  0
  2  1  1  0
  2  3  2  0
  3 12  1  0
  4  3  1  0
  5  4  2  0
  6  7  2  0
  6  5  1  0
  7  2  1  0
  8  9  2  0
  8 14  1  0
 10  9  1  0
 11 10  2  0
 12 11  1  0
 12 13  2  0
 13  8  1  0
 15  7  1  0
  4 16  1  0
  5 17  1  0
  6 18  1  0
  9 19  1  0
 10 20  1  0
 14 21  1  0
 14 22  1  0
 15 23  1  0
 15 24  1  0
M  ISO  5  16  14  17  14  18  14  19  14  20  14
M  END
>  <minimizedAffinity>  (1) 
-5.50244665

>  <minimizedRMSD>  (1) 
0.0212807395

$$$$
