
     RDKit          3D

 28 29  0  0  0  0  0  0  0  0999 V2000
   45.2360   33.4160   41.1010 F   0  0  0  0  0  0  0  0  0  0  0  0
   46.4100   34.0580   40.9910 C   0  0  0  0  0  0  0  0  0  0  0  0
   46.8860   34.7940   42.0390 C   0  0  0  0  0  0  0  0  0  0  0  0
   48.0900   35.4810   41.9920 C   0  0  0  0  0  0  0  0  0  0  0  0
   48.8590   35.4350   40.8440 C   0  0  0  0  0  0  0  0  0  0  0  0
   48.3310   34.6760   39.8080 C   0  0  0  0  0  0  0  0  0  0  0  0
   47.1350   33.9830   39.8310 C   0  0  0  0  0  0  0  0  0  0  0  0
   45.4850   34.0020   45.3550 C   0  0  0  0  0  0  0  0  0  0  0  0
   44.6450   35.1000   45.5840 C   0  0  0  0  0  0  0  0  0  0  0  0
   44.5540   36.1120   44.6070 C   0  0  0  0  0  0  0  0  0  0  0  0
   45.3090   35.9470   43.4810 N   0  0  0  0  0  0  0  0  0  0  0  0
   46.1070   34.8850   43.2870 C   0  0  0  0  0  0  0  0  0  0  0  0
   46.1840   33.9350   44.2160 N   0  0  0  0  0  0  0  0  0  0  0  0
   45.5750   32.9890   46.3350 N   0  0  0  0  0  0  0  0  0  0  0  0
   46.7520   33.2340   38.6190 C   0  0  0  0  0  0  0  0  0  0  0  0
   47.4190   33.7190   37.3650 C   0  0  0  0  0  0  0  0  0  0  0  0
   48.4311   36.0593   42.8633 H   0  0  0  0  0  0  0  0  0  0  0  0
   49.8206   35.9621   40.7575 H   0  0  0  0  0  0  0  0  0  0  0  0
   48.9204   34.6209   38.8809 H   0  0  0  0  0  0  0  0  0  0  0  0
   44.0636   35.1713   46.5151 H   0  0  0  0  0  0  0  0  0  0  0  0
   43.9070   36.9909   44.7447 H   0  0  0  0  0  0  0  0  0  0  0  0
   46.1883   32.1760   46.1805 H   0  0  0  0  0  0  0  0  0  0  0  0
   45.0274   33.0632   47.2042 H   0  0  0  0  0  0  0  0  0  0  0  0
   47.0195   32.1773   38.7665 H   0  0  0  0  0  0  0  0  0  0  0  0
   45.6707   33.3822   38.4819 H   0  0  0  0  0  0  0  0  0  0  0  0
   48.2828   34.3471   37.6285 H   0  0  0  0  0  0  0  0  0  0  0  0
   47.7597   32.8563   36.7737 H   0  0  0  0  0  0  0  0  0  0  0  0
   46.7033   34.3091   36.7737 H   0  0  0  0  0  0  0  0  0  0  0  0
  2  1  1  0
  2  3  2  0
  3 12  1  0
  4  3  1  0
  5  4  2  0
  6  7  2  0
  6  5  1  0
  7  2  1  0
  8  9  2  0
  8 14  1  0
 10  9  1  0
 11 10  2  0
 12 11  1  0
 12 13  2  0
 13  8  1  0
 15  7  1  0
 16 15  1  0
  4 17  1  0
  5 18  1  0
  6 19  1  0
  9 20  1  0
 10 21  1  0
 14 22  1  0
 14 23  1  0
 15 24  1  0
 15 25  1  0
 16 26  1  0
 16 27  1  0
 16 28  1  0
M  ISO  8  17  14  18  14  19  14  20  14  21  14  24   8  25   8  26   8
M  ISO  2  27   8  28   8
M  END
>  <minimizedAffinity>  (1) 
-5.60022116

>  <minimizedRMSD>  (1) 
0.190399468

$$$$
