
     RDKit          3D

 28 29  0  0  0  0  0  0  0  0999 V2000
   45.1400   33.5030   41.1600 F   0  0  0  0  0  0  0  0  0  0  0  0
   46.3280   34.0850   41.0460 C   0  0  0  0  0  0  0  0  0  0  0  0
   46.8440   34.7960   42.1170 C   0  0  0  0  0  0  0  0  0  0  0  0
   48.0780   35.4350   42.0800 C   0  0  0  0  0  0  0  0  0  0  0  0
   48.8450   35.3710   40.9290 C   0  0  0  0  0  0  0  0  0  0  0  0
   48.2970   34.6530   39.8810 C   0  0  0  0  0  0  0  0  0  0  0  0
   47.0860   34.0140   39.8890 C   0  0  0  0  0  0  0  0  0  0  0  0
   45.4500   34.0190   45.4260 C   0  0  0  0  0  0  0  0  0  0  0  0
   44.6050   35.1310   45.6560 C   0  0  0  0  0  0  0  0  0  0  0  0
   44.5180   36.1470   44.6660 C   0  0  0  0  0  0  0  0  0  0  0  0
   45.2750   35.9670   43.5430 N   0  0  0  0  0  0  0  0  0  0  0  0
   46.0670   34.8960   43.3630 C   0  0  0  0  0  0  0  0  0  0  0  0
   46.1490   33.9410   44.2920 N   0  0  0  0  0  0  0  0  0  0  0  0
   45.5280   33.0200   46.4250 N   0  0  0  0  0  0  0  0  0  0  0  0
   46.6460   33.3320   38.7900 O   0  0  0  0  0  0  0  0  0  0  0  0
   48.1110   34.6410   37.0050 O   0  0  0  0  0  0  0  0  0  0  0  0
   47.3330   33.3770   37.2510 P   0  0  0  0  0  0  0  0  0  0  0  0
   46.0630   33.2030   36.1180 O   0  0  0  0  0  0  0  0  0  0  0  0
   48.3780   32.0710   36.9410 O   0  0  0  0  0  0  0  0  0  0  0  0
   48.4424   35.9874   42.9586 H   0  0  0  0  0  0  0  0  0  0  0  0
   49.8274   35.8599   40.8527 H   0  0  0  0  0  0  0  0  0  0  0  0
   48.8888   34.5896   38.9559 H   0  0  0  0  0  0  0  0  0  0  0  0
   44.0243   35.2077   46.5871 H   0  0  0  0  0  0  0  0  0  0  0  0
   43.8759   37.0305   44.7969 H   0  0  0  0  0  0  0  0  0  0  0  0
   46.1344   32.1991   46.2861 H   0  0  0  0  0  0  0  0  0  0  0  0
   44.9784   33.1137   47.2911 H   0  0  0  0  0  0  0  0  0  0  0  0
   45.2056   33.0855   36.5988 H   0  0  0  0  0  0  0  0  0  0  0  0
   48.6870   31.6848   37.7986 H   0  0  0  0  0  0  0  0  0  0  0  0
  2  1  1  0
  2  3  2  0
  3 12  1  0
  4  3  1  0
  5  4  2  0
  6  7  2  0
  6  5  1  0
  7  2  1  0
  8  9  2  0
  8 14  1  0
 10  9  1  0
 11 10  2  0
 12 11  1  0
 12 13  2  0
 13  8  1  0
 15  7  1  0
 16 17  2  0
 17 15  1  0
 18 17  1  0
 19 17  1  0
  4 20  1  0
  5 21  1  0
  6 22  1  0
  9 23  1  0
 10 24  1  0
 14 25  1  0
 14 26  1  0
 18 27  1  0
 19 28  1  0
M  ISO  7  20  14  21  14  22  14  23  14  24  14  27   3  28   3
M  END
>  <minimizedAffinity>  (1) 
-6.03018761

>  <minimizedRMSD>  (1) 
0.469318748

$$$$
