
     RDKit          3D

 35 37  0  0  0  0  0  0  0  0999 V2000
   45.0910   33.3180   41.2960 F   0  0  0  0  0  0  0  0  0  0  0  0
   46.2570   33.9310   41.1130 C   0  0  0  0  0  0  0  0  0  0  0  0
   46.7590   34.7510   42.1110 C   0  0  0  0  0  0  0  0  0  0  0  0
   47.9660   35.4210   42.0010 C   0  0  0  0  0  0  0  0  0  0  0  0
   48.7290   35.2820   40.8400 C   0  0  0  0  0  0  0  0  0  0  0  0
   48.1980   34.4560   39.8650 C   0  0  0  0  0  0  0  0  0  0  0  0
   47.0170   33.7930   39.9570 C   0  0  0  0  0  0  0  0  0  0  0  0
   45.4360   34.1710   45.4900 C   0  0  0  0  0  0  0  0  0  0  0  0
   44.5780   35.2820   45.6570 C   0  0  0  0  0  0  0  0  0  0  0  0
   44.4600   36.2250   44.6070 C   0  0  0  0  0  0  0  0  0  0  0  0
   45.1990   35.9900   43.4810 N   0  0  0  0  0  0  0  0  0  0  0  0
   45.9980   34.9300   43.3570 C   0  0  0  0  0  0  0  0  0  0  0  0
   46.1110   34.0370   44.3500 N   0  0  0  0  0  0  0  0  0  0  0  0
   45.5420   33.2380   46.5490 N   0  0  0  0  0  0  0  0  0  0  0  0
   46.5820   33.0000   38.9290 O   0  0  0  0  0  0  0  0  0  0  0  0
   47.8440   34.2890   36.9850 O   0  0  0  0  0  0  0  0  0  0  0  0
   46.7170   33.3470   37.2770 P   0  0  2  0  0  0  0  0  0  0  0  0
   45.2260   34.0200   36.7690 O   0  0  0  0  0  0  0  0  0  0  0  0
   46.9050   31.9570   36.3290 O   0  0  0  0  0  0  0  0  0  0  0  0
   45.9060   31.5670   35.4470 C   0  0  0  0  0  0  0  0  0  0  0  0
   45.2250   30.3710   35.3830 C   0  0  0  0  0  0  0  0  0  0  0  0
   44.3320   30.4740   34.3340 C   0  0  0  0  0  0  0  0  0  0  0  0
   44.4840   31.7110   33.7890 N   0  0  0  0  0  0  0  0  0  0  0  0
   45.4300   32.3660   34.4590 N   0  0  0  0  0  0  0  0  0  0  0  0
   48.3215   36.0590   42.8235 H   0  0  0  0  0  0  0  0  0  0  0  0
   49.6921   35.7969   40.7086 H   0  0  0  0  0  0  0  0  0  0  0  0
   48.7800   34.3261   38.9406 H   0  0  0  0  0  0  0  0  0  0  0  0
   44.0098   35.4123   46.5898 H   0  0  0  0  0  0  0  0  0  0  0  0
   43.8050   37.1045   44.6933 H   0  0  0  0  0  0  0  0  0  0  0  0
   46.1598   32.4193   46.4542 H   0  0  0  0  0  0  0  0  0  0  0  0
   45.0014   33.3777   47.4145 H   0  0  0  0  0  0  0  0  0  0  0  0
   44.6865   34.2635   37.5625 H   0  0  0  0  0  0  0  0  0  0  0  0
   45.3654   29.5008   36.0411 H   0  0  0  0  0  0  0  0  0  0  0  0
   43.6273   29.6980   34.0006 H   0  0  0  0  0  0  0  0  0  0  0  0
   43.9532   32.0811   32.9877 H   0  0  0  0  0  0  0  0  0  0  0  0
  2  1  1  0
  2  3  2  0
  3 12  1  0
  4  3  1  0
  5  4  2  0
  6  7  2  0
  6  5  1  0
  7  2  1  0
  8  9  2  0
  8 14  1  0
 10  9  1  0
 11 10  2  0
 12 11  1  0
 12 13  2  0
 13  8  1  0
 15  7  1  0
 17 16  2  0
 17 15  1  0
 18 17  1  0
 19 17  1  0
 20 19  1  0
 21 20  1  0
 22 21  2  0
 23 22  1  0
 23 24  1  0
 24 20  2  0
  4 25  1  0
  5 26  1  0
  6 27  1  0
  9 28  1  0
 10 29  1  0
 14 30  1  0
 14 31  1  0
 18 32  1  0
 21 33  1  0
 22 34  1  0
 23 35  1  0
M  ISO  8  25  14  26  14  27  14  28  14  29  14  32   3  33  14  34  14
M  ISO  1  35   9
M  END
>  <minimizedAffinity>  (1) 
-6.82802105

>  <minimizedRMSD>  (1) 
1.66706657

$$$$
