
     RDKit          3D

 35 37  0  0  0  0  0  0  0  0999 V2000
   45.1120   33.4260   41.1910 F   0  0  0  0  0  0  0  0  0  0  0  0
   46.2980   34.0230   41.0550 C   0  0  0  0  0  0  0  0  0  0  0  0
   46.8030   34.7690   42.0990 C   0  0  0  0  0  0  0  0  0  0  0  0
   48.0360   35.4240   42.0420 C   0  0  0  0  0  0  0  0  0  0  0  0
   48.7990   35.3260   40.8780 C   0  0  0  0  0  0  0  0  0  0  0  0
   48.2580   34.5680   39.8540 C   0  0  0  0  0  0  0  0  0  0  0  0
   47.0610   33.9270   39.8970 C   0  0  0  0  0  0  0  0  0  0  0  0
   45.4440   34.0270   45.4260 C   0  0  0  0  0  0  0  0  0  0  0  0
   44.6130   35.1510   45.6570 C   0  0  0  0  0  0  0  0  0  0  0  0
   44.5280   36.1570   44.6640 C   0  0  0  0  0  0  0  0  0  0  0  0
   45.2670   35.9690   43.5300 N   0  0  0  0  0  0  0  0  0  0  0  0
   46.0390   34.8970   43.3450 C   0  0  0  0  0  0  0  0  0  0  0  0
   46.1240   33.9400   44.2840 N   0  0  0  0  0  0  0  0  0  0  0  0
   45.5190   33.0310   46.4280 N   0  0  0  0  0  0  0  0  0  0  0  0
   46.6220   33.2050   38.8230 O   0  0  0  0  0  0  0  0  0  0  0  0
   48.0040   34.5800   37.0320 O   0  0  0  0  0  0  0  0  0  0  0  0
   47.1550   33.3530   37.2370 P   0  0  2  0  0  0  0  0  0  0  0  0
   45.7690   33.4180   36.2250 O   0  0  0  0  0  0  0  0  0  0  0  0
   48.0130   32.0070   36.6840 O   0  0  0  0  0  0  0  0  0  0  0  0
   49.3670   31.7910   36.9040 C   0  0  0  0  0  0  0  0  0  0  0  0
   50.1380   31.2340   35.9030 C   0  0  0  0  0  0  0  0  0  0  0  0
   51.4060   31.1390   36.3840 N   0  0  0  0  0  0  0  0  0  0  0  0
   51.4420   31.6150   37.6390 C   0  0  0  0  0  0  0  0  0  0  0  0
   50.1850   32.0220   37.9730 N   0  0  0  0  0  0  0  0  0  0  0  0
   48.3992   36.0074   42.9009 H   0  0  0  0  0  0  0  0  0  0  0  0
   49.7753   35.8231   40.7797 H   0  0  0  0  0  0  0  0  0  0  0  0
   48.8460   34.4771   38.9288 H   0  0  0  0  0  0  0  0  0  0  0  0
   44.0426   35.2408   46.5933 H   0  0  0  0  0  0  0  0  0  0  0  0
   43.8969   37.0478   44.7991 H   0  0  0  0  0  0  0  0  0  0  0  0
   46.1151   32.2029   46.2874 H   0  0  0  0  0  0  0  0  0  0  0  0
   44.9775   33.1340   47.2981 H   0  0  0  0  0  0  0  0  0  0  0  0
   44.9533   33.4563   36.7847 H   0  0  0  0  0  0  0  0  0  0  0  0
   49.7918   30.9256   34.9055 H   0  0  0  0  0  0  0  0  0  0  0  0
   52.2126   30.7611   35.8668 H   0  0  0  0  0  0  0  0  0  0  0  0
   52.3309   31.6673   38.2848 H   0  0  0  0  0  0  0  0  0  0  0  0
  2  1  1  0
  2  3  2  0
  3 12  1  0
  4  3  1  0
  5  4  2  0
  6  7  2  0
  6  5  1  0
  7  2  1  0
  8  9  2  0
  8 14  1  0
 10  9  1  0
 11 10  2  0
 12 11  1  0
 12 13  2  0
 13  8  1  0
 15  7  1  0
 17 16  2  0
 17 15  1  0
 18 17  1  0
 19 20  1  0
 19 17  1  0
 20 24  1  0
 21 22  1  0
 21 20  2  0
 22 23  1  0
 23 24  2  0
  4 25  1  0
  5 26  1  0
  6 27  1  0
  9 28  1  0
 10 29  1  0
 14 30  1  0
 14 31  1  0
 18 32  1  0
 21 33  1  0
 22 34  1  0
 23 35  1  0
M  ISO  8  25  14  26  14  27  14  28  14  29  14  32   3  33  14  34   9
M  ISO  1  35  14
M  END
>  <minimizedAffinity>  (1) 
-6.3953371

>  <minimizedRMSD>  (1) 
0.997792125

$$$$
