
     RDKit          3D

 27 28  0  0  0  0  0  0  0  0999 V2000
   45.0400   34.9290   44.4160 C   0  0  0  0  0  0  0  0  0  0  0  0
   44.9490   34.1940   43.2170 C   0  0  0  0  0  0  0  0  0  0  0  0
   45.2430   32.8210   43.2670 C   0  0  0  0  0  0  0  0  0  0  0  0
   45.5980   32.2700   44.4650 N   0  0  0  0  0  0  0  0  0  0  0  0
   45.6730   33.0120   45.5900 C   0  0  0  0  0  0  0  0  0  0  0  0
   45.3940   34.3130   45.5390 N   0  0  0  0  0  0  0  0  0  0  0  0
   46.0590   32.3630   46.8380 C   0  0  0  0  0  0  0  0  0  0  0  0
   45.2580   32.4630   47.9560 C   0  0  0  0  0  0  0  0  0  0  0  0
   45.6840   31.8240   49.1010 C   0  0  0  0  0  0  0  0  0  0  0  0
   46.8660   31.0980   49.1730 C   0  0  0  0  0  0  0  0  0  0  0  0
   47.6820   30.9920   48.0420 C   0  0  0  0  0  0  0  0  0  0  0  0
   47.2320   31.6410   46.9080 C   0  0  0  0  0  0  0  0  0  0  0  0
   44.7350   36.3530   44.3620 C   0  0  0  0  0  0  0  0  0  0  0  0
   45.3930   37.1120   43.5100 C   0  0  0  0  0  0  0  0  0  0  0  0
   45.1210   38.5710   43.4150 C   0  0  0  0  0  0  0  0  0  0  0  0
   44.6576   34.6790   42.2737 H   0  0  0  0  0  0  0  0  0  0  0  0
   45.1883   32.2022   42.3592 H   0  0  0  0  0  0  0  0  0  0  0  0
   44.3159   33.0305   47.9351 H   0  0  0  0  0  0  0  0  0  0  0  0
   45.0568   31.8925   50.0021 H   0  0  0  0  0  0  0  0  0  0  0  0
   47.1586   30.6093   50.1140 H   0  0  0  0  0  0  0  0  0  0  0  0
   48.6252   30.4261   48.0544 H   0  0  0  0  0  0  0  0  0  0  0  0
   47.8506   31.5775   46.0007 H   0  0  0  0  0  0  0  0  0  0  0  0
   43.9686   36.7865   45.0213 H   0  0  0  0  0  0  0  0  0  0  0  0
   46.1554   36.6597   42.8587 H   0  0  0  0  0  0  0  0  0  0  0  0
   45.0418   38.9958   44.4266 H   0  0  0  0  0  0  0  0  0  0  0  0
   45.9429   39.0628   42.8741 H   0  0  0  0  0  0  0  0  0  0  0  0
   44.1771   38.7336   42.8741 H   0  0  0  0  0  0  0  0  0  0  0  0
  1  6  2  0
  2  3  2  0
  2  1  1  0
  3  4  1  0
  4  5  2  0
  5  7  1  0
  6  5  1  0
  7 12  1  0
  7  8  2  0
  8  9  1  0
  9 10  2  0
 11 10  1  0
 12 11  2  0
 13  1  1  0
 14 13  2  0
 15 14  1  0
  2 16  1  0
  3 17  1  0
  8 18  1  0
  9 19  1  0
 10 20  1  0
 11 21  1  0
 12 22  1  0
 13 23  1  0
 14 24  1  0
 15 25  1  0
 15 26  1  0
 15 27  1  0
M  ISO  8  16  14  17  14  18  14  19  14  20  14  21  14  22  14  25   8
M  ISO  2  26   8  27   8
M  END
>  <minimizedAffinity>  (1) 
-4.16638279

>  <minimizedRMSD>  (1) 
2.69879484

$$$$
