
     RDKit          3D

 26 27  0  0  0  0  0  0  0  0999 V2000
   45.0540   34.8140   44.4490 C   0  0  0  0  0  0  0  0  0  0  0  0
   44.9680   34.0690   43.2580 C   0  0  0  0  0  0  0  0  0  0  0  0
   45.2660   32.7030   43.3050 C   0  0  0  0  0  0  0  0  0  0  0  0
   45.6270   32.1700   44.5100 N   0  0  0  0  0  0  0  0  0  0  0  0
   45.7010   32.9150   45.6370 C   0  0  0  0  0  0  0  0  0  0  0  0
   45.4130   34.2300   45.5910 N   0  0  0  0  0  0  0  0  0  0  0  0
   46.0930   32.2760   46.8840 C   0  0  0  0  0  0  0  0  0  0  0  0
   45.2690   32.3470   47.9880 C   0  0  0  0  0  0  0  0  0  0  0  0
   45.6390   31.7400   49.1800 C   0  0  0  0  0  0  0  0  0  0  0  0
   46.8590   31.0910   49.1330 C   0  0  0  0  0  0  0  0  0  0  0  0
   47.6790   31.0130   48.0500 C   0  0  0  0  0  0  0  0  0  0  0  0
   47.2870   31.6200   46.9000 N   0  0  0  0  0  0  0  0  0  0  0  0
   44.7410   36.2390   44.3960 C   0  0  0  0  0  0  0  0  0  0  0  0
   45.3570   36.9870   43.5050 C   0  0  0  0  0  0  0  0  0  0  0  0
   45.0880   38.4520   43.3930 C   0  0  0  0  0  0  0  0  0  0  0  0
   44.6736   34.5492   42.3131 H   0  0  0  0  0  0  0  0  0  0  0  0
   45.2114   32.0784   42.4012 H   0  0  0  0  0  0  0  0  0  0  0  0
   44.3133   32.8878   47.9232 H   0  0  0  0  0  0  0  0  0  0  0  0
   45.0148   31.7725   50.0851 H   0  0  0  0  0  0  0  0  0  0  0  0
   47.1970   30.5931   50.0538 H   0  0  0  0  0  0  0  0  0  0  0  0
   48.6352   30.4720   48.1045 H   0  0  0  0  0  0  0  0  0  0  0  0
   44.0058   36.6784   45.0862 H   0  0  0  0  0  0  0  0  0  0  0  0
   46.0874   36.5220   42.8266 H   0  0  0  0  0  0  0  0  0  0  0  0
   45.0079   38.8881   44.3997 H   0  0  0  0  0  0  0  0  0  0  0  0
   45.9124   38.9356   42.8484 H   0  0  0  0  0  0  0  0  0  0  0  0
   44.1456   38.6112   42.8484 H   0  0  0  0  0  0  0  0  0  0  0  0
  1  6  2  0
  2  3  2  0
  2  1  1  0
  3  4  1  0
  4  5  2  0
  5  7  1  0
  6  5  1  0
  7 12  1  0
  7  8  2  0
  8  9  1  0
 10  9  2  0
 11 10  1  0
 12 11  2  0
 13  1  1  0
 14 13  2  0
 15 14  1  0
  2 16  1  0
  3 17  1  0
  8 18  1  0
  9 19  1  0
 10 20  1  0
 11 21  1  0
 13 22  1  0
 14 23  1  0
 15 24  1  0
 15 25  1  0
 15 26  1  0
M  ISO  8  16  14  17  14  18  14  19  14  20  14  21  14  24   8  25   8
M  ISO  1  26   8
M  END
>  <minimizedAffinity>  (1) 
-4.11813068

>  <minimizedRMSD>  (1) 
2.59520626

$$$$
