
     RDKit          3D

 24 24  0  0  0  0  0  0  0  0999 V2000
   44.8970   35.4130   44.0140 C   0  0  0  0  0  0  0  0  0  0  0  0
   44.4050   34.9630   42.7520 C   0  0  0  0  0  0  0  0  0  0  0  0
   44.5170   33.5920   42.4760 C   0  0  0  0  0  0  0  0  0  0  0  0
   45.0790   32.7780   43.4100 N   0  0  0  0  0  0  0  0  0  0  0  0
   45.5290   33.2530   44.5910 C   0  0  0  0  0  0  0  0  0  0  0  0
   45.4380   34.5480   44.8830 N   0  0  0  0  0  0  0  0  0  0  0  0
   44.7820   36.8490   44.3090 C   0  0  0  0  0  0  0  0  0  0  0  0
   45.4180   37.6940   43.5080 C   0  0  0  0  0  0  0  0  0  0  0  0
   45.3220   39.1630   43.7800 C   0  0  0  0  0  0  0  0  0  0  0  0
   46.1240   32.3450   45.5610 C   0  0  0  0  0  0  0  0  0  0  0  0
   46.7150   32.7710   46.6660 C   0  0  0  0  0  0  0  0  0  0  0  0
   47.3330   31.8870   47.6800 C   0  0  0  0  0  0  0  0  0  0  0  0
   43.9579   35.6601   42.0280 H   0  0  0  0  0  0  0  0  0  0  0  0
   44.1566   33.1823   41.5209 H   0  0  0  0  0  0  0  0  0  0  0  0
   44.1900   37.2096   45.1631 H   0  0  0  0  0  0  0  0  0  0  0  0
   46.0068   37.3209   42.6571 H   0  0  0  0  0  0  0  0  0  0  0  0
   45.3108   39.3348   44.8664 H   0  0  0  0  0  0  0  0  0  0  0  0
   46.1886   39.6754   43.3367 H   0  0  0  0  0  0  0  0  0  0  0  0
   44.3961   39.5582   43.3367 H   0  0  0  0  0  0  0  0  0  0  0  0
   46.0807   31.2629   45.3681 H   0  0  0  0  0  0  0  0  0  0  0  0
   46.7493   33.8561   46.8430 H   0  0  0  0  0  0  0  0  0  0  0  0
   47.0791   32.2502   48.6868 H   0  0  0  0  0  0  0  0  0  0  0  0
   46.9535   30.8623   47.5533 H   0  0  0  0  0  0  0  0  0  0  0  0
   48.4257   31.8916   47.5533 H   0  0  0  0  0  0  0  0  0  0  0  0
  1  7  1  0
  1  6  2  0
  2  1  1  0
  3  2  2  0
  3  4  1  0
  4  5  2  0
  5  6  1  0
  5 10  1  0
  8  9  1  0
  8  7  2  0
 10 11  2  0
 11 12  1  0
  2 13  1  0
  3 14  1  0
  7 15  1  0
  8 16  1  0
  9 17  1  0
  9 18  1  0
  9 19  1  0
 10 20  1  0
 11 21  1  0
 12 22  1  0
 12 23  1  0
 12 24  1  0
M  ISO  8  13  14  14  14  17   8  18   8  19   8  22   8  23   8  24   8
M  END
>  <minimizedAffinity>  (1) 
-3.13638687

>  <minimizedRMSD>  (1) 
1.0948236

$$$$
