
     RDKit          3D

 20 20  0  0  0  0  0  0  0  0999 V2000
   44.7130   35.5490   43.6100 C   0  0  0  0  0  0  0  0  0  0  0  0
   43.9410   35.4440   42.4370 C   0  0  0  0  0  0  0  0  0  0  0  0
   43.7950   34.1710   41.8630 C   0  0  0  0  0  0  0  0  0  0  0  0
   44.4050   33.1140   42.4690 N   0  0  0  0  0  0  0  0  0  0  0  0
   45.1470   33.2550   43.6070 C   0  0  0  0  0  0  0  0  0  0  0  0
   45.2830   34.4810   44.1550 N   0  0  0  0  0  0  0  0  0  0  0  0
   44.8600   36.8760   44.2030 C   0  0  0  0  0  0  0  0  0  0  0  0
   45.2620   37.8770   43.4450 C   0  0  0  0  0  0  0  0  0  0  0  0
   45.4310   39.2500   43.9880 C   0  0  0  0  0  0  0  0  0  0  0  0
   45.7640   32.0260   44.1750 C   0  0  0  0  0  0  0  0  0  0  0  0
   43.4685   36.3290   41.9859 H   0  0  0  0  0  0  0  0  0  0  0  0
   43.2028   34.0305   40.9467 H   0  0  0  0  0  0  0  0  0  0  0  0
   44.6381   37.0379   45.2682 H   0  0  0  0  0  0  0  0  0  0  0  0
   45.4780   37.6910   42.3826 H   0  0  0  0  0  0  0  0  0  0  0  0
   45.4264   39.2127   45.0874 H   0  0  0  0  0  0  0  0  0  0  0  0
   46.3873   39.6671   43.6393 H   0  0  0  0  0  0  0  0  0  0  0  0
   44.6044   39.8865   43.6393 H   0  0  0  0  0  0  0  0  0  0  0  0
   45.7384   32.0770   45.2735 H   0  0  0  0  0  0  0  0  0  0  0  0
   45.2022   31.1432   43.8357 H   0  0  0  0  0  0  0  0  0  0  0  0
   46.8075   31.9492   43.8357 H   0  0  0  0  0  0  0  0  0  0  0  0
  1  6  2  0
  1  7  1  0
  2  1  1  0
  3  2  2  0
  3  4  1  0
  4  5  2  0
  5  6  1  0
  5 10  1  0
  8  9  1  0
  8  7  2  0
  2 11  1  0
  3 12  1  0
  7 13  1  0
  8 14  1  0
  9 15  1  0
  9 16  1  0
  9 17  1  0
 10 18  1  0
 10 19  1  0
 10 20  1  0
M  ISO  8  11  14  12  14  15   8  16   8  17   8  18   8  19   8  20   8
M  END
>  <minimizedAffinity>  (1) 
-2.60029531

>  <minimizedRMSD>  (1) 
0.0629021898

$$$$
