
     RDKit          3D

 18 18  0  0  0  0  0  0  0  0999 V2000
   44.6940   35.5170   43.6120 C   0  0  0  0  0  0  0  0  0  0  0  0
   43.9440   35.4440   42.4230 C   0  0  0  0  0  0  0  0  0  0  0  0
   43.7640   34.1750   41.8420 C   0  0  0  0  0  0  0  0  0  0  0  0
   44.3250   33.0910   42.4590 N   0  0  0  0  0  0  0  0  0  0  0  0
   45.0390   33.2100   43.6030 C   0  0  0  0  0  0  0  0  0  0  0  0
   45.2120   34.4300   44.1620 N   0  0  0  0  0  0  0  0  0  0  0  0
   44.8520   36.8420   44.1870 C   0  0  0  0  0  0  0  0  0  0  0  0
   45.2920   37.8390   43.4490 C   0  0  0  0  0  0  0  0  0  0  0  0
   45.4650   39.2020   43.9810 C   0  0  0  0  0  0  0  0  0  0  0  0
   45.6010   32.0990   44.2170 O   0  0  0  0  0  0  0  0  0  0  0  0
   43.5140   36.3467   41.9644 H   0  0  0  0  0  0  0  0  0  0  0  0
   43.1858   34.0577   40.9136 H   0  0  0  0  0  0  0  0  0  0  0  0
   44.6026   37.0127   45.2447 H   0  0  0  0  0  0  0  0  0  0  0  0
   45.5401   37.6473   42.3946 H   0  0  0  0  0  0  0  0  0  0  0  0
   45.4609   39.1697   45.0805 H   0  0  0  0  0  0  0  0  0  0  0  0
   46.4226   39.6139   43.6298 H   0  0  0  0  0  0  0  0  0  0  0  0
   44.6406   39.8400   43.6298 H   0  0  0  0  0  0  0  0  0  0  0  0
   46.1200   32.2052   45.0533 H   0  0  0  0  0  0  0  0  0  0  0  0
  1  6  2  0
  1  7  1  0
  2  1  1  0
  3  2  2  0
  3  4  1  0
  4  5  2  0
  5  6  1  0
  5 10  1  0
  8  9  1  0
  8  7  2  0
  2 11  1  0
  3 12  1  0
  7 13  1  0
  8 14  1  0
  9 15  1  0
  9 16  1  0
  9 17  1  0
 10 18  1  0
M  ISO  6  11  14  12  14  15   8  16   8  17   8  18   3
M  END
>  <minimizedAffinity>  (1) 
-2.61053133

>  <minimizedRMSD>  (1) 
0.0318226442

$$$$
