
     RDKit          3D

 37 39  0  0  0  0  0  0  0  0999 V2000
   44.7260   35.1440   42.1030 C   0  0  0  0  0  0  0  0  0  0  0  0
   43.5630   35.2630   41.3280 C   0  0  0  0  0  0  0  0  0  0  0  0
   43.5180   34.5400   40.1290 C   0  0  0  0  0  0  0  0  0  0  0  0
   44.5780   33.7700   39.7740 N   0  0  0  0  0  0  0  0  0  0  0  0
   45.6810   33.6860   40.5570 C   0  0  0  0  0  0  0  0  0  0  0  0
   45.7490   34.3750   41.7200 N   0  0  0  0  0  0  0  0  0  0  0  0
   48.3380   35.0980   40.2370 Cl  0  0  0  0  0  0  0  0  0  0  0  0
   48.0310   33.4150   39.9290 C   0  0  0  0  0  0  0  0  0  0  0  0
   46.7810   32.8340   40.1000 C   0  0  0  0  0  0  0  0  0  0  0  0
   46.5240   31.5180   39.8660 C   0  0  0  0  0  0  0  0  0  0  0  0
   47.5770   30.7480   39.4380 C   0  0  0  0  0  0  0  0  0  0  0  0
   48.8500   31.2020   39.2310 C   0  0  0  0  0  0  0  0  0  0  0  0
   49.0320   32.5680   39.4950 C   0  0  0  0  0  0  0  0  0  0  0  0
   44.8000   35.8910   43.3630 C   0  0  0  0  0  0  0  0  0  0  0  0
   45.0810   37.1840   43.3180 C   0  0  0  0  0  0  0  0  0  0  0  0
   45.1490   37.9150   44.6210 C   0  0  0  0  0  0  0  0  0  0  0  0
   45.1800   39.3370   44.2890 N   0  0  0  0  0  0  0  0  0  0  0  0
   44.8870   40.3530   45.2380 C   0  0  0  0  0  0  0  0  0  0  0  0
   44.9640   40.2410   46.6080 C   0  0  0  0  0  0  0  0  0  0  0  0
   44.6290   41.3800   47.3490 C   0  0  0  0  0  0  0  0  0  0  0  0
   44.2580   42.5030   46.6960 N   0  0  0  0  0  0  0  0  0  0  0  0
   44.1840   42.6090   45.3680 C   0  0  0  0  0  0  0  0  0  0  0  0
   44.5040   41.5200   44.6590 N   0  0  0  0  0  0  0  0  0  0  0  0
   42.7226   35.8966   41.6479 H   0  0  0  0  0  0  0  0  0  0  0  0
   42.6311   34.5958   39.4806 H   0  0  0  0  0  0  0  0  0  0  0  0
   45.5206   31.0918   40.0128 H   0  0  0  0  0  0  0  0  0  0  0  0
   47.3813   29.6826   39.2467 H   0  0  0  0  0  0  0  0  0  0  0  0
   49.6653   30.5493   38.8855 H   0  0  0  0  0  0  0  0  0  0  0  0
   50.0363   32.9915   39.3468 H   0  0  0  0  0  0  0  0  0  0  0  0
   44.6257   35.3875   44.3253 H   0  0  0  0  0  0  0  0  0  0  0  0
   45.2571   37.6991   42.3622 H   0  0  0  0  0  0  0  0  0  0  0  0
   44.2646   37.6856   45.2336 H   0  0  0  0  0  0  0  0  0  0  0  0
   46.0357   37.6192   45.2009 H   0  0  0  0  0  0  0  0  0  0  0  0
   45.4242   39.6146   43.3277 H   0  0  0  0  0  0  0  0  0  0  0  0
   45.2730   39.3044   47.0952 H   0  0  0  0  0  0  0  0  0  0  0  0
   44.6672   41.3611   48.4482 H   0  0  0  0  0  0  0  0  0  0  0  0
   43.8752   43.5452   44.8800 H   0  0  0  0  0  0  0  0  0  0  0  0
  1 14  1  0
  2  1  2  0
  3  2  1  0
  4  3  2  0
  4  5  1  0
  5  6  2  0
  6  1  1  0
  8  9  2  0
  8  7  1  0
  9  5  1  0
 10  9  1  0
 11 10  2  0
 12 11  1  0
 12 13  2  0
 13  8  1  0
 15 14  2  0
 15 16  1  0
 17 16  1  0
 17 18  1  0
 18 19  2  0
 19 20  1  0
 21 20  2  0
 22 21  1  0
 23 18  1  0
 23 22  2  0
  2 24  1  0
  3 25  1  0
 10 26  1  0
 11 27  1  0
 12 28  1  0
 13 29  1  0
 14 30  1  0
 15 31  1  0
 16 32  1  0
 16 33  1  0
 17 34  1  0
 19 35  1  0
 20 36  1  0
 22 37  1  0
M  ISO  8  24  14  25  14  26  14  27  14  28  14  29  14  32   8  33   8
M  ISO  3  35  14  36  14  37  14
M  END
>  <minimizedAffinity>  (1) 
-3.87022924

>  <minimizedRMSD>  (1) 
1.97504449

$$$$
