
     RDKit          3D

 25 26  0  0  0  0  0  0  0  0999 V2000
   46.3870   33.0050   45.6910 C   0  0  0  0  0  0  0  0  0  0  0  0
   46.9280   31.7850   45.2420 C   0  0  0  0  0  0  0  0  0  0  0  0
   47.2560   31.0340   46.3210 C   0  0  0  0  0  0  0  0  0  0  0  0
   46.9250   31.7720   47.4010 N   0  0  0  0  0  0  0  0  0  0  0  0
   46.4040   32.9530   47.0240 N   0  0  0  0  0  0  0  0  0  0  0  0
   44.4950   35.8860   44.4580 C   0  0  0  0  0  0  0  0  0  0  0  0
   45.0670   36.0950   43.1800 C   0  0  0  0  0  0  0  0  0  0  0  0
   46.0920   35.2380   42.7670 C   0  0  0  0  0  0  0  0  0  0  0  0
   46.4800   34.2580   43.6120 N   0  0  0  0  0  0  0  0  0  0  0  0
   45.9200   34.0770   44.8290 C   0  0  0  0  0  0  0  0  0  0  0  0
   44.9340   34.8880   45.2450 N   0  0  0  0  0  0  0  0  0  0  0  0
   47.1180   31.3340   48.7740 C   0  0  0  0  0  0  0  0  0  0  0  0
   45.8370   30.7120   49.2460 C   0  0  0  0  0  0  0  0  0  0  0  0
   44.7920   31.6850   49.3550 N   0  0  0  0  0  0  0  0  0  0  0  0
   47.0620   31.4907   44.1906 H   0  0  0  0  0  0  0  0  0  0  0  0
   47.7012   30.0281   46.3173 H   0  0  0  0  0  0  0  0  0  0  0  0
   43.6865   36.5440   44.8093 H   0  0  0  0  0  0  0  0  0  0  0  0
   44.7148   36.9092   42.5296 H   0  0  0  0  0  0  0  0  0  0  0  0
   46.5684   35.3584   41.7828 H   0  0  0  0  0  0  0  0  0  0  0  0
   47.9310   30.5945   48.8192 H   0  0  0  0  0  0  0  0  0  0  0  0
   47.3869   32.1877   49.4135 H   0  0  0  0  0  0  0  0  0  0  0  0
   45.5303   29.9365   48.5287 H   0  0  0  0  0  0  0  0  0  0  0  0
   46.0099   30.2771   50.2415 H   0  0  0  0  0  0  0  0  0  0  0  0
   44.5956   31.8679   50.3494 H   0  0  0  0  0  0  0  0  0  0  0  0
   45.0875   32.5590   48.8970 H   0  0  0  0  0  0  0  0  0  0  0  0
  1  5  2  0
  2  1  1  0
  2  3  2  0
  3  4  1  0
  4 12  1  0
  5  4  1  0
  6 11  2  0
  7  6  1  0
  8  7  2  0
  8  9  1  0
  9 10  2  0
 10 11  1  0
 10  1  1  0
 12 13  1  0
 13 14  1  0
  2 15  1  0
  3 16  1  0
  6 17  1  0
  7 18  1  0
  8 19  1  0
 12 20  1  0
 12 21  1  0
 13 22  1  0
 13 23  1  0
 14 24  1  0
 14 25  1  0
M  ISO  8  15  14  16  14  17  14  18  14  19  14  20   8  21   8  22   8
M  ISO  3  23   8  24   5  25   5
M  END
>  <minimizedAffinity>  (1) 
-4.45271826

>  <minimizedRMSD>  (1) 
0.464847505

$$$$
