
     RDKit          3D

 29 30  0  0  0  0  0  0  0  0999 V2000
   46.2160   32.9720   45.8280 C   0  0  0  0  0  0  0  0  0  0  0  0
   47.1130   31.9570   45.4470 C   0  0  0  0  0  0  0  0  0  0  0  0
   47.2800   31.1110   46.4840 C   0  0  0  0  0  0  0  0  0  0  0  0
   46.5080   31.5900   47.4810 N   0  0  0  0  0  0  0  0  0  0  0  0
   45.8710   32.7080   47.0800 N   0  0  0  0  0  0  0  0  0  0  0  0
   44.4580   35.9630   44.6440 C   0  0  0  0  0  0  0  0  0  0  0  0
   45.0070   36.1390   43.3510 C   0  0  0  0  0  0  0  0  0  0  0  0
   45.9700   35.2250   42.9140 C   0  0  0  0  0  0  0  0  0  0  0  0
   46.3250   34.2230   43.7480 N   0  0  0  0  0  0  0  0  0  0  0  0
   45.7850   34.0770   44.9780 C   0  0  0  0  0  0  0  0  0  0  0  0
   44.8560   34.9390   45.4280 N   0  0  0  0  0  0  0  0  0  0  0  0
   46.3910   30.9750   48.7970 C   0  0  0  0  0  0  0  0  0  0  0  0
   45.0330   30.3460   48.8910 C   0  0  0  0  0  0  0  0  0  0  0  0
   44.8380   29.6270   47.6950 O   0  0  0  0  0  0  0  0  0  0  0  0
   44.5020   27.2480   46.7670 O   0  0  0  0  0  0  0  0  0  0  0  0
   45.1680   27.9870   47.9010 P   0  0  0  0  0  0  0  0  0  0  0  0
   46.8400   27.6870   47.8000 O   0  0  0  0  0  0  0  0  0  0  0  0
   44.6140   27.5080   49.4000 O   0  0  0  0  0  0  0  0  0  0  0  0
   47.5986   31.8681   44.4640 H   0  0  0  0  0  0  0  0  0  0  0  0
   47.9158   30.2138   46.5112 H   0  0  0  0  0  0  0  0  0  0  0  0
   43.6990   36.6683   45.0136 H   0  0  0  0  0  0  0  0  0  0  0  0
   44.6848   36.9716   42.7084 H   0  0  0  0  0  0  0  0  0  0  0  0
   46.4267   35.3190   41.9177 H   0  0  0  0  0  0  0  0  0  0  0  0
   47.1684   30.2068   48.9213 H   0  0  0  0  0  0  0  0  0  0  0  0
   46.5197   31.7302   49.5864 H   0  0  0  0  0  0  0  0  0  0  0  0
   44.9889   29.6656   49.7542 H   0  0  0  0  0  0  0  0  0  0  0  0
   44.2517   31.1082   49.0272 H   0  0  0  0  0  0  0  0  0  0  0  0
   47.2188   27.6190   48.7122 H   0  0  0  0  0  0  0  0  0  0  0  0
   45.1388   27.9618   50.1062 H   0  0  0  0  0  0  0  0  0  0  0  0
  1  5  2  0
  2  1  1  0
  2  3  2  0
  3  4  1  0
  4 12  1  0
  5  4  1  0
  6 11  2  0
  7  6  1  0
  8  7  2  0
  8  9  1  0
  9 10  2  0
 10 11  1  0
 10  1  1  0
 12 13  1  0
 14 16  1  0
 14 13  1  0
 15 16  2  0
 16 18  1  0
 17 16  1  0
  2 19  1  0
  3 20  1  0
  6 21  1  0
  7 22  1  0
  8 23  1  0
 12 24  1  0
 12 25  1  0
 13 26  1  0
 13 27  1  0
 17 28  1  0
 18 29  1  0
M  ISO  8  19  14  20  14  21  14  22  14  23  14  24   8  25   8  26   8
M  ISO  3  27   8  28   3  29   3
M  END
>  <minimizedAffinity>  (1) 
-4.67207623

>  <minimizedRMSD>  (1) 
0.989337265

$$$$
