
     RDKit          3D

 51 55  0  0  0  0  0  0  0  0999 V2000
   45.1550   27.9080   48.4270 C   0  0  0  0  0  0  0  0  0  0  0  0
   45.1420   29.2080   47.9610 C   0  0  0  0  0  0  0  0  0  0  0  0
   44.4260   29.4340   46.7820 C   0  0  0  0  0  0  0  0  0  0  0  0
   43.7680   28.4280   46.1130 C   0  0  0  0  0  0  0  0  0  0  0  0
   43.0260   28.3470   45.0000 N   0  0  0  0  0  0  0  0  0  0  0  0
   42.6070   27.0900   44.7830 C   0  0  0  0  0  0  0  0  0  0  0  0
   43.0870   26.2740   45.8020 C   0  0  0  0  0  0  0  0  0  0  0  0
   43.7980   27.1390   46.6010 C   0  0  0  0  0  0  0  0  0  0  0  0
   44.4970   26.8980   47.7590 C   0  0  0  0  0  0  0  0  0  0  0  0
   44.5800   25.6070   48.3300 N   0  0  0  0  0  0  0  0  0  0  0  0
   44.5420   25.4040   49.7660 C   0  0  0  0  0  0  0  0  0  0  0  0
   45.7520   24.5380   50.0980 C   0  0  0  0  0  0  0  0  0  0  0  0
   45.6680   23.2940   49.3440 N   0  0  0  0  0  0  0  0  0  0  0  0
   45.8810   23.6340   47.9520 C   0  0  0  0  0  0  0  0  0  0  0  0
   44.7070   24.4520   47.4600 C   0  0  0  0  0  0  0  0  0  0  0  0
   45.7640   30.4090   48.5060 C   0  0  0  0  0  0  0  0  0  0  0  0
   47.1150   30.7540   48.0070 C   0  0  0  0  0  0  0  0  0  0  0  0
   46.4810   32.9370   45.2420 C   0  0  0  0  0  0  0  0  0  0  0  0
   47.2220   31.8920   44.6310 C   0  0  0  0  0  0  0  0  0  0  0  0
   47.5380   30.9730   45.5740 C   0  0  0  0  0  0  0  0  0  0  0  0
   47.0170   31.4260   46.7240 N   0  0  0  0  0  0  0  0  0  0  0  0
   46.3890   32.5920   46.5300 N   0  0  0  0  0  0  0  0  0  0  0  0
   44.5260   35.9080   44.4720 C   0  0  0  0  0  0  0  0  0  0  0  0
   44.9910   36.2960   43.2250 C   0  0  0  0  0  0  0  0  0  0  0  0
   45.9930   35.5170   42.6480 C   0  0  0  0  0  0  0  0  0  0  0  0
   46.4480   34.4390   43.3340 N   0  0  0  0  0  0  0  0  0  0  0  0
   45.9750   34.0910   44.5400 C   0  0  0  0  0  0  0  0  0  0  0  0
   45.0130   34.8330   45.1010 N   0  0  0  0  0  0  0  0  0  0  0  0
   45.7026   27.6735   49.3517 H   0  0  0  0  0  0  0  0  0  0  0  0
   44.3872   30.4547   46.3737 H   0  0  0  0  0  0  0  0  0  0  0  0
   42.8054   29.1466   44.3893 H   0  0  0  0  0  0  0  0  0  0  0  0
   41.9857   26.7595   43.9376 H   0  0  0  0  0  0  0  0  0  0  0  0
   42.9342   25.1931   45.9370 H   0  0  0  0  0  0  0  0  0  0  0  0
   44.6065   26.3687   50.2906 H   0  0  0  0  0  0  0  0  0  0  0  0
   43.6036   24.9245   50.0813 H   0  0  0  0  0  0  0  0  0  0  0  0
   46.6738   25.0727   49.8253 H   0  0  0  0  0  0  0  0  0  0  0  0
   45.7666   24.3184   51.1758 H   0  0  0  0  0  0  0  0  0  0  0  0
   46.3932   22.6360   49.6634 H   0  0  0  0  0  0  0  0  0  0  0  0
   46.8065   24.2203   47.8529 H   0  0  0  0  0  0  0  0  0  0  0  0
   45.9704   22.7149   47.3542 H   0  0  0  0  0  0  0  0  0  0  0  0
   44.8859   24.7799   46.4254 H   0  0  0  0  0  0  0  0  0  0  0  0
   43.7848   23.8526   47.4774 H   0  0  0  0  0  0  0  0  0  0  0  0
   45.1008   31.2572   48.2807 H   0  0  0  0  0  0  0  0  0  0  0  0
   45.9011   30.1980   49.5768 H   0  0  0  0  0  0  0  0  0  0  0  0
   47.6105   31.4195   48.7292 H   0  0  0  0  0  0  0  0  0  0  0  0
   47.7004   29.8306   47.8857 H   0  0  0  0  0  0  0  0  0  0  0  0
   47.4947   31.8376   43.5667 H   0  0  0  0  0  0  0  0  0  0  0  0
   48.1069   30.0431   45.4267 H   0  0  0  0  0  0  0  0  0  0  0  0
   43.7357   36.4999   44.9568 H   0  0  0  0  0  0  0  0  0  0  0  0
   44.5865   37.1812   42.7124 H   0  0  0  0  0  0  0  0  0  0  0  0
   46.4047   35.7706   41.6600 H   0  0  0  0  0  0  0  0  0  0  0  0
  2  1  2  0
  2 16  1  0
  3  2  1  0
  4  8  1  0
  4  3  2  0
  5  4  1  0
  6  5  1  0
  6  7  2  0
  7  8  1  0
  8  9  2  0
  9 10  1  0
  9  1  1  0
 10 11  1  0
 11 12  1  0
 13 12  1  0
 14 13  1  0
 15 14  1  0
 15 10  1  0
 17 16  1  0
 18 22  2  0
 19 18  1  0
 19 20  2  0
 20 21  1  0
 21 17  1  0
 22 21  1  0
 23 28  2  0
 24 23  1  0
 25 24  2  0
 25 26  1  0
 26 27  2  0
 27 28  1  0
 27 18  1  0
  1 29  1  0
  3 30  1  0
  5 31  1  0
  6 32  1  0
  7 33  1  0
 11 34  1  0
 11 35  1  0
 12 36  1  0
 12 37  1  0
 13 38  1  0
 14 39  1  0
 14 40  1  0
 15 41  1  0
 15 42  1  0
 16 43  1  0
 16 44  1  0
 17 45  1  0
 17 46  1  0
 19 47  1  0
 20 48  1  0
 23 49  1  0
 24 50  1  0
 25 51  1  0
M  ISO  8  29  14  30  14  31   9  32  14  33  14  34  13  35  13  36  13
M  ISO  8  37  13  38   5  39  13  40  13  41  13  42  13  43   8  44   8
M  ISO  7  45   8  46   8  47  14  48  14  49  14  50  14  51  14
M  END
>  <minimizedAffinity>  (1) 
-5.96892977

>  <minimizedRMSD>  (1) 
1.13068545

$$$$
