
     RDKit          3D

 52 56  0  0  0  0  0  0  0  0999 V2000
   45.9310   30.2340   48.4150 C   0  0  0  0  0  0  0  0  0  0  0  0
   45.2240   27.7740   48.0920 C   0  0  0  0  0  0  0  0  0  0  0  0
   45.2110   29.1260   47.8000 C   0  0  0  0  0  0  0  0  0  0  0  0
   44.3810   29.5160   46.7540 C   0  0  0  0  0  0  0  0  0  0  0  0
   43.6150   28.6200   46.0430 C   0  0  0  0  0  0  0  0  0  0  0  0
   42.7490   28.6880   45.0180 N   0  0  0  0  0  0  0  0  0  0  0  0
   42.2580   27.4850   44.6910 C   0  0  0  0  0  0  0  0  0  0  0  0
   42.8230   26.5450   45.5420 C   0  0  0  0  0  0  0  0  0  0  0  0
   43.6450   27.2760   46.3520 C   0  0  0  0  0  0  0  0  0  0  0  0
   44.4570   26.8730   47.3810 C   0  0  0  0  0  0  0  0  0  0  0  0
   44.6020   25.5280   47.8240 N   0  0  0  0  0  0  0  0  0  0  0  0
   45.1700   25.1450   49.1020 C   0  0  0  0  0  0  0  0  0  0  0  0
   45.8490   23.8160   49.0530 C   0  0  0  0  0  0  0  0  0  0  0  0
   46.4300   23.6330   47.6670 C   0  0  0  0  0  0  0  0  0  0  0  0
   45.2550   23.4260   46.7380 C   0  0  0  0  0  0  0  0  0  0  0  0
   44.1650   24.4430   46.9680 C   0  0  0  0  0  0  0  0  0  0  0  0
   47.2650   30.5530   47.8440 C   0  0  0  0  0  0  0  0  0  0  0  0
   46.5250   32.8310   45.1910 C   0  0  0  0  0  0  0  0  0  0  0  0
   47.2210   31.8070   44.5110 C   0  0  0  0  0  0  0  0  0  0  0  0
   47.5740   30.8520   45.4070 C   0  0  0  0  0  0  0  0  0  0  0  0
   47.1180   31.2630   46.5920 N   0  0  0  0  0  0  0  0  0  0  0  0
   46.4880   32.4490   46.4730 N   0  0  0  0  0  0  0  0  0  0  0  0
   44.5530   35.8370   44.6030 C   0  0  0  0  0  0  0  0  0  0  0  0
   44.9830   36.2700   43.3540 C   0  0  0  0  0  0  0  0  0  0  0  0
   45.9590   35.5150   42.7170 C   0  0  0  0  0  0  0  0  0  0  0  0
   46.4170   34.4200   43.3580 N   0  0  0  0  0  0  0  0  0  0  0  0
   45.9970   34.0150   44.5540 C   0  0  0  0  0  0  0  0  0  0  0  0
   45.0550   34.7380   45.1750 N   0  0  0  0  0  0  0  0  0  0  0  0
   45.3038   31.1330   48.3228 H   0  0  0  0  0  0  0  0  0  0  0  0
   46.1245   29.9178   49.4507 H   0  0  0  0  0  0  0  0  0  0  0  0
   45.8610   27.4079   48.9107 H   0  0  0  0  0  0  0  0  0  0  0  0
   44.3350   30.5815   46.4846 H   0  0  0  0  0  0  0  0  0  0  0  0
   42.4924   29.5631   44.5393 H   0  0  0  0  0  0  0  0  0  0  0  0
   41.5342   27.2785   43.8889 H   0  0  0  0  0  0  0  0  0  0  0  0
   42.6486   25.4591   45.5600 H   0  0  0  0  0  0  0  0  0  0  0  0
   45.9055   25.9056   49.4029 H   0  0  0  0  0  0  0  0  0  0  0  0
   44.3443   25.0710   49.8250 H   0  0  0  0  0  0  0  0  0  0  0  0
   46.6540   23.7812   49.8019 H   0  0  0  0  0  0  0  0  0  0  0  0
   45.1297   23.0133   49.2727 H   0  0  0  0  0  0  0  0  0  0  0  0
   46.9969   24.5278   47.3705 H   0  0  0  0  0  0  0  0  0  0  0  0
   47.1217   22.7784   47.6332 H   0  0  0  0  0  0  0  0  0  0  0  0
   44.8429   22.4200   46.9058 H   0  0  0  0  0  0  0  0  0  0  0  0
   45.6148   23.5422   45.7050 H   0  0  0  0  0  0  0  0  0  0  0  0
   43.8578   24.8591   45.9972 H   0  0  0  0  0  0  0  0  0  0  0  0
   43.3276   23.9341   47.4677 H   0  0  0  0  0  0  0  0  0  0  0  0
   47.8230   31.1810   48.5541 H   0  0  0  0  0  0  0  0  0  0  0  0
   47.8101   29.6151   47.6618 H   0  0  0  0  0  0  0  0  0  0  0  0
   47.4404   31.7874   43.4333 H   0  0  0  0  0  0  0  0  0  0  0  0
   48.1261   29.9237   45.1985 H   0  0  0  0  0  0  0  0  0  0  0  0
   43.7806   36.4129   45.1338 H   0  0  0  0  0  0  0  0  0  0  0  0
   44.5664   37.1754   42.8884 H   0  0  0  0  0  0  0  0  0  0  0  0
   46.3443   35.7992   41.7267 H   0  0  0  0  0  0  0  0  0  0  0  0
  3  2  2  0
  3  1  1  0
  4  3  1  0
  5  9  1  0
  5  4  2  0
  6  5  1  0
  7  6  1  0
  7  8  2  0
  8  9  1  0
  9 10  2  0
 10 11  1  0
 10  2  1  0
 11 12  1  0
 13 12  1  0
 14 13  1  0
 15 16  1  0
 15 14  1  0
 16 11  1  0
 17  1  1  0
 18 22  2  0
 19 18  1  0
 19 20  2  0
 20 21  1  0
 21 17  1  0
 22 21  1  0
 23 28  2  0
 24 23  1  0
 25 24  2  0
 25 26  1  0
 26 27  2  0
 27 28  1  0
 27 18  1  0
  1 29  1  0
  1 30  1  0
  2 31  1  0
  4 32  1  0
  6 33  1  0
  7 34  1  0
  8 35  1  0
 12 36  1  0
 12 37  1  0
 13 38  1  0
 13 39  1  0
 14 40  1  0
 14 41  1  0
 15 42  1  0
 15 43  1  0
 16 44  1  0
 16 45  1  0
 17 46  1  0
 17 47  1  0
 19 48  1  0
 20 49  1  0
 23 50  1  0
 24 51  1  0
 25 52  1  0
M  ISO  8  29   8  30   8  31  14  32  14  33   9  34  14  35  14  36  13
M  ISO  8  37  13  38  13  39  13  40  13  41  13  42  13  43  13  44  13
M  ISO  8  45  13  46   8  47   8  48  14  49  14  50  14  51  14  52  14
M  END
>  <minimizedAffinity>  (1) 
-5.67321968

>  <minimizedRMSD>  (1) 
0.556180477

$$$$
