
     RDKit          3D

 44 48  0  0  0  0  0  0  0  0999 V2000
   45.0590   30.3250   48.7590 C   0  0  0  0  0  0  0  0  0  0  0  0
   45.2210   27.7940   48.3740 C   0  0  0  0  0  0  0  0  0  0  0  0
   44.9070   29.0790   48.0170 C   0  0  0  0  0  0  0  0  0  0  0  0
   44.3530   29.2480   46.7490 C   0  0  0  0  0  0  0  0  0  0  0  0
   44.1290   28.1910   45.8940 C   0  0  0  0  0  0  0  0  0  0  0  0
   43.6290   28.0480   44.6590 N   0  0  0  0  0  0  0  0  0  0  0  0
   43.6280   26.7710   44.2690 C   0  0  0  0  0  0  0  0  0  0  0  0
   44.1580   25.9950   45.2950 C   0  0  0  0  0  0  0  0  0  0  0  0
   44.4550   26.9070   46.2790 C   0  0  0  0  0  0  0  0  0  0  0  0
   45.0000   26.7340   47.5250 C   0  0  0  0  0  0  0  0  0  0  0  0
   45.3600   25.3930   47.9740 C   0  0  0  0  0  0  0  0  0  0  0  0
   46.3900   25.0390   48.8200 C   0  0  0  0  0  0  0  0  0  0  0  0
   46.4300   23.6770   49.0240 C   0  0  0  0  0  0  0  0  0  0  0  0
   45.4020   23.2100   48.2830 N   0  0  0  0  0  0  0  0  0  0  0  0
   44.7900   24.2070   47.6810 N   0  0  0  0  0  0  0  0  0  0  0  0
   46.3770   31.0040   48.6870 C   0  0  0  0  0  0  0  0  0  0  0  0
   46.2650   33.0320   45.7410 C   0  0  0  0  0  0  0  0  0  0  0  0
   47.2240   32.0720   45.3920 C   0  0  0  0  0  0  0  0  0  0  0  0
   47.3850   31.2110   46.4280 C   0  0  0  0  0  0  0  0  0  0  0  0
   46.5480   31.6270   47.3870 N   0  0  0  0  0  0  0  0  0  0  0  0
   45.8740   32.7160   46.9860 N   0  0  0  0  0  0  0  0  0  0  0  0
   44.4680   35.9630   44.5170 C   0  0  0  0  0  0  0  0  0  0  0  0
   45.0110   36.1680   43.2590 C   0  0  0  0  0  0  0  0  0  0  0  0
   46.0080   35.2870   42.8270 C   0  0  0  0  0  0  0  0  0  0  0  0
   46.3790   34.2900   43.6630 N   0  0  0  0  0  0  0  0  0  0  0  0
   45.8360   34.1160   44.8750 C   0  0  0  0  0  0  0  0  0  0  0  0
   44.8820   34.9560   45.2950 N   0  0  0  0  0  0  0  0  0  0  0  0
   44.3035   31.0292   48.3805 H   0  0  0  0  0  0  0  0  0  0  0  0
   44.9455   30.0401   49.8154 H   0  0  0  0  0  0  0  0  0  0  0  0
   45.6609   27.6050   49.3643 H   0  0  0  0  0  0  0  0  0  0  0  0
   44.0848   30.2625   46.4189 H   0  0  0  0  0  0  0  0  0  0  0  0
   43.2869   28.8286   44.0806 H   0  0  0  0  0  0  0  0  0  0  0  0
   43.2686   26.3956   43.2995 H   0  0  0  0  0  0  0  0  0  0  0  0
   44.3051   24.9050   45.3140 H   0  0  0  0  0  0  0  0  0  0  0  0
   47.0914   25.7541   49.2747 H   0  0  0  0  0  0  0  0  0  0  0  0
   47.1343   23.1041   49.6450 H   0  0  0  0  0  0  0  0  0  0  0  0
   45.1360   22.2183   48.2011 H   0  0  0  0  0  0  0  0  0  0  0  0
   46.4321   31.7749   49.4697 H   0  0  0  0  0  0  0  0  0  0  0  0
   47.1734   30.2601   48.8368 H   0  0  0  0  0  0  0  0  0  0  0  0
   47.7600   32.0241   44.4326 H   0  0  0  0  0  0  0  0  0  0  0  0
   48.0646   30.3472   46.4714 H   0  0  0  0  0  0  0  0  0  0  0  0
   43.6823   36.6403   44.8829 H   0  0  0  0  0  0  0  0  0  0  0  0
   44.6694   36.9963   42.6209 H   0  0  0  0  0  0  0  0  0  0  0  0
   46.4759   35.4013   41.8381 H   0  0  0  0  0  0  0  0  0  0  0  0
  3  2  2  0
  3  1  1  0
  4  3  1  0
  5  9  1  0
  5  4  2  0
  6  5  1  0
  7  6  1  0
  7  8  2  0
  8  9  1  0
  9 10  2  0
 10 11  1  0
 10  2  1  0
 11 12  1  0
 12 13  2  0
 14 13  1  0
 15 11  2  0
 15 14  1  0
 16  1  1  0
 17 21  2  0
 18 17  1  0
 18 19  2  0
 19 20  1  0
 20 16  1  0
 21 20  1  0
 22 27  2  0
 23 22  1  0
 24 23  2  0
 24 25  1  0
 25 26  2  0
 26 27  1  0
 26 17  1  0
  1 28  1  0
  1 29  1  0
  2 30  1  0
  4 31  1  0
  6 32  1  0
  7 33  1  0
  8 34  1  0
 12 35  1  0
 13 36  1  0
 14 37  1  0
 16 38  1  0
 16 39  1  0
 18 40  1  0
 19 41  1  0
 22 42  1  0
 23 43  1  0
 24 44  1  0
M  ISO  8  28   8  29   8  30  14  31  14  32   9  33  14  34  14  35  14
M  ISO  8  36  14  37   9  38   8  39   8  40  14  41  14  42  14  43  14
M  ISO  1  44  14
M  END
>  <minimizedAffinity>  (1) 
-5.61017704

>  <minimizedRMSD>  (1) 
1.11681616

$$$$
