
     RDKit          3D

 49 53  0  0  0  0  0  0  0  0999 V2000
   45.9580   30.2470   48.4120 C   0  0  0  0  0  0  0  0  0  0  0  0
   45.2550   27.7880   48.0910 C   0  0  0  0  0  0  0  0  0  0  0  0
   45.2360   29.1350   47.8010 C   0  0  0  0  0  0  0  0  0  0  0  0
   44.3960   29.5230   46.7570 C   0  0  0  0  0  0  0  0  0  0  0  0
   43.6290   28.6190   46.0520 C   0  0  0  0  0  0  0  0  0  0  0  0
   42.7590   28.6930   45.0340 N   0  0  0  0  0  0  0  0  0  0  0  0
   42.2720   27.4890   44.7130 C   0  0  0  0  0  0  0  0  0  0  0  0
   42.8440   26.5450   45.5590 C   0  0  0  0  0  0  0  0  0  0  0  0
   43.6670   27.2770   46.3630 C   0  0  0  0  0  0  0  0  0  0  0  0
   44.4950   26.8930   47.3940 C   0  0  0  0  0  0  0  0  0  0  0  0
   44.6400   25.5450   47.8280 N   0  0  0  0  0  0  0  0  0  0  0  0
   45.0170   25.0370   49.1370 C   0  0  0  0  0  0  0  0  0  0  0  0
   46.0710   24.0150   48.7650 C   0  0  0  0  0  0  0  0  0  0  0  0
   45.5690   23.5010   47.4310 C   0  0  0  0  0  0  0  0  0  0  0  0
   44.4310   24.3710   47.0150 C   0  0  0  0  0  0  0  0  0  0  0  0
   47.2870   30.5780   47.8400 C   0  0  0  0  0  0  0  0  0  0  0  0
   46.5340   32.8470   45.1810 C   0  0  0  0  0  0  0  0  0  0  0  0
   47.2310   31.8170   44.5000 C   0  0  0  0  0  0  0  0  0  0  0  0
   47.5870   30.8650   45.3980 C   0  0  0  0  0  0  0  0  0  0  0  0
   47.1350   31.2810   46.5810 N   0  0  0  0  0  0  0  0  0  0  0  0
   46.5090   32.4600   46.4520 N   0  0  0  0  0  0  0  0  0  0  0  0
   44.5490   35.8460   44.5940 C   0  0  0  0  0  0  0  0  0  0  0  0
   44.9810   36.2740   43.3430 C   0  0  0  0  0  0  0  0  0  0  0  0
   45.9590   35.5210   42.7080 C   0  0  0  0  0  0  0  0  0  0  0  0
   46.4240   34.4300   43.3400 N   0  0  0  0  0  0  0  0  0  0  0  0
   46.0040   34.0260   44.5420 C   0  0  0  0  0  0  0  0  0  0  0  0
   45.0600   34.7470   45.1620 N   0  0  0  0  0  0  0  0  0  0  0  0
   45.3256   31.1427   48.3239 H   0  0  0  0  0  0  0  0  0  0  0  0
   46.1613   29.9253   49.4441 H   0  0  0  0  0  0  0  0  0  0  0  0
   45.8991   27.4243   48.9051 H   0  0  0  0  0  0  0  0  0  0  0  0
   44.3434   30.5879   46.4864 H   0  0  0  0  0  0  0  0  0  0  0  0
   42.4981   29.5685   44.5582 H   0  0  0  0  0  0  0  0  0  0  0  0
   41.5432   27.2811   43.9157 H   0  0  0  0  0  0  0  0  0  0  0  0
   42.6722   25.4586   45.5757 H   0  0  0  0  0  0  0  0  0  0  0  0
   45.4334   25.8320   49.7731 H   0  0  0  0  0  0  0  0  0  0  0  0
   44.1789   24.6285   49.7207 H   0  0  0  0  0  0  0  0  0  0  0  0
   47.0612   24.4832   48.6640 H   0  0  0  0  0  0  0  0  0  0  0  0
   46.2028   23.2250   49.5191 H   0  0  0  0  0  0  0  0  0  0  0  0
   46.3734   23.5512   46.6824 H   0  0  0  0  0  0  0  0  0  0  0  0
   45.2447   22.4534   47.5165 H   0  0  0  0  0  0  0  0  0  0  0  0
   44.4832   24.6124   45.9431 H   0  0  0  0  0  0  0  0  0  0  0  0
   43.4435   23.9061   47.1518 H   0  0  0  0  0  0  0  0  0  0  0  0
   47.8372   31.2161   48.5472 H   0  0  0  0  0  0  0  0  0  0  0  0
   47.8414   29.6446   47.6626 H   0  0  0  0  0  0  0  0  0  0  0  0
   47.4472   31.7939   43.4217 H   0  0  0  0  0  0  0  0  0  0  0  0
   48.1383   29.9358   45.1915 H   0  0  0  0  0  0  0  0  0  0  0  0
   43.7751   36.4198   45.1249 H   0  0  0  0  0  0  0  0  0  0  0  0
   44.5627   37.1767   42.8738 H   0  0  0  0  0  0  0  0  0  0  0  0
   46.3418   35.8085   41.7176 H   0  0  0  0  0  0  0  0  0  0  0  0
  3  2  2  0
  3  1  1  0
  4  3  1  0
  5  9  1  0
  5  4  2  0
  6  5  1  0
  7  6  1  0
  7  8  2  0
  8  9  1  0
  9 10  2  0
 10 11  1  0
 10  2  1  0
 11 12  1  0
 13 12  1  0
 14 13  1  0
 15 14  1  0
 15 11  1  0
 16  1  1  0
 17 21  2  0
 18 17  1  0
 18 19  2  0
 19 20  1  0
 20 16  1  0
 21 20  1  0
 22 27  2  0
 23 22  1  0
 24 25  1  0
 24 23  2  0
 25 26  2  0
 26 27  1  0
 26 17  1  0
  1 28  1  0
  1 29  1  0
  2 30  1  0
  4 31  1  0
  6 32  1  0
  7 33  1  0
  8 34  1  0
 12 35  1  0
 12 36  1  0
 13 37  1  0
 13 38  1  0
 14 39  1  0
 14 40  1  0
 15 41  1  0
 15 42  1  0
 16 43  1  0
 16 44  1  0
 18 45  1  0
 19 46  1  0
 22 47  1  0
 23 48  1  0
 24 49  1  0
M  ISO  8  28   8  29   8  30  14  31  14  32   9  33  14  34  14  35  13
M  ISO  8  36  13  37  13  38  13  39  13  40  13  41  13  42  13  43   8
M  ISO  6  44   8  45  14  46  14  47  14  48  14  49  14
M  END
>  <minimizedAffinity>  (1) 
-5.50503635

>  <minimizedRMSD>  (1) 
0.535504341

$$$$
