
     RDKit          3D

 40 43  0  0  0  0  0  0  0  0999 V2000
   47.3140   30.1690   47.6140 C   0  0  0  0  0  0  0  0  0  0  0  0
   46.5480   32.6580   45.1590 C   0  0  0  0  0  0  0  0  0  0  0  0
   47.2870   31.7150   44.4030 C   0  0  0  0  0  0  0  0  0  0  0  0
   47.6530   30.6930   45.2140 C   0  0  0  0  0  0  0  0  0  0  0  0
   47.1670   30.9870   46.4150 N   0  0  0  0  0  0  0  0  0  0  0  0
   46.5100   32.1520   46.3900 N   0  0  0  0  0  0  0  0  0  0  0  0
   44.5670   35.6960   44.8510 C   0  0  0  0  0  0  0  0  0  0  0  0
   44.9330   36.1950   43.6120 C   0  0  0  0  0  0  0  0  0  0  0  0
   45.8690   35.4850   42.8740 C   0  0  0  0  0  0  0  0  0  0  0  0
   46.3700   34.3400   43.4120 N   0  0  0  0  0  0  0  0  0  0  0  0
   46.0010   33.8740   44.6140 C   0  0  0  0  0  0  0  0  0  0  0  0
   45.0970   34.5600   45.3280 N   0  0  0  0  0  0  0  0  0  0  0  0
   45.9950   29.9320   48.2380 C   0  0  0  0  0  0  0  0  0  0  0  0
   45.0120   27.5670   47.9550 C   0  0  0  0  0  0  0  0  0  0  0  0
   45.1520   28.9060   47.6410 C   0  0  0  0  0  0  0  0  0  0  0  0
   44.3670   29.3670   46.5840 C   0  0  0  0  0  0  0  0  0  0  0  0
   43.5080   28.5410   45.8960 C   0  0  0  0  0  0  0  0  0  0  0  0
   42.6550   28.7050   44.8670 N   0  0  0  0  0  0  0  0  0  0  0  0
   42.0370   27.5520   44.5700 C   0  0  0  0  0  0  0  0  0  0  0  0
   42.4830   26.5610   45.4290 C   0  0  0  0  0  0  0  0  0  0  0  0
   43.3840   27.2150   46.2250 C   0  0  0  0  0  0  0  0  0  0  0  0
   44.1580   26.7500   47.2710 C   0  0  0  0  0  0  0  0  0  0  0  0
   44.0630   25.3350   47.6640 C   0  0  0  0  0  0  0  0  0  0  0  0
   47.9663   30.6895   48.3307 H   0  0  0  0  0  0  0  0  0  0  0  0
   47.7570   29.2016   47.3351 H   0  0  0  0  0  0  0  0  0  0  0  0
   47.5249   31.7988   43.3323 H   0  0  0  0  0  0  0  0  0  0  0  0
   48.2340   29.8017   44.9349 H   0  0  0  0  0  0  0  0  0  0  0  0
   43.8275   36.2418   45.4554 H   0  0  0  0  0  0  0  0  0  0  0  0
   44.4946   37.1265   43.2246 H   0  0  0  0  0  0  0  0  0  0  0  0
   46.1960   35.8369   41.8844 H   0  0  0  0  0  0  0  0  0  0  0  0
   46.1708   29.6476   49.2859 H   0  0  0  0  0  0  0  0  0  0  0  0
   45.4412   30.8719   48.0969 H   0  0  0  0  0  0  0  0  0  0  0  0
   45.6061   27.1473   48.7802 H   0  0  0  0  0  0  0  0  0  0  0  0
   44.4369   30.4250   46.2910 H   0  0  0  0  0  0  0  0  0  0  0  0
   42.4982   29.5958   44.3743 H   0  0  0  0  0  0  0  0  0  0  0  0
   41.2937   27.4151   43.7708 H   0  0  0  0  0  0  0  0  0  0  0  0
   42.1847   25.5028   45.4631 H   0  0  0  0  0  0  0  0  0  0  0  0
   44.0579   25.2588   48.7613 H   0  0  0  0  0  0  0  0  0  0  0  0
   43.1339   24.9044   47.2622 H   0  0  0  0  0  0  0  0  0  0  0  0
   44.9262   24.7841   47.2622 H   0  0  0  0  0  0  0  0  0  0  0  0
  1 13  1  0
  2  6  2  0
  3  2  1  0
  3  4  2  0
  4  5  1  0
  5  1  1  0
  6  5  1  0
  7 12  2  0
  8  7  1  0
  9 10  1  0
  9  8  2  0
 10 11  2  0
 11  2  1  0
 11 12  1  0
 15 14  2  0
 15 13  1  0
 16 15  1  0
 17 21  1  0
 17 16  2  0
 18 17  1  0
 19 18  1  0
 19 20  2  0
 20 21  1  0
 21 22  2  0
 22 23  1  0
 22 14  1  0
  1 24  1  0
  1 25  1  0
  3 26  1  0
  4 27  1  0
  7 28  1  0
  8 29  1  0
  9 30  1  0
 13 31  1  0
 13 32  1  0
 14 33  1  0
 16 34  1  0
 18 35  1  0
 19 36  1  0
 20 37  1  0
 23 38  1  0
 23 39  1  0
 23 40  1  0
M  ISO  8  24   8  25   8  26  14  27  14  28  14  29  14  30  14  31   8
M  ISO  8  32   8  33  14  34  14  35   9  36  14  37  14  38   8  39   8
M  ISO  1  40   8
M  END
>  <minimizedAffinity>  (1) 
-5.36886883

>  <minimizedRMSD>  (1) 
0.0704768822

$$$$
