
     RDKit          3D

 47 51  0  0  0  0  0  0  0  0999 V2000
   45.3810   28.0580   48.2850 C   0  0  0  0  0  0  0  0  0  0  0  0
   45.1210   29.3940   48.1030 C   0  0  0  0  0  0  0  0  0  0  0  0
   44.2990   29.7210   47.0250 C   0  0  0  0  0  0  0  0  0  0  0  0
   43.7750   28.7630   46.1870 C   0  0  0  0  0  0  0  0  0  0  0  0
   42.9760   28.7660   45.0980 N   0  0  0  0  0  0  0  0  0  0  0  0
   42.7610   27.5250   44.6440 C   0  0  0  0  0  0  0  0  0  0  0  0
   43.4340   26.6410   45.4500 C   0  0  0  0  0  0  0  0  0  0  0  0
   44.0460   27.4230   46.3840 C   0  0  0  0  0  0  0  0  0  0  0  0
   44.8540   27.1010   47.4450 C   0  0  0  0  0  0  0  0  0  0  0  0
   45.2420   25.7410   47.8030 C   0  0  0  0  0  0  0  0  0  0  0  0
   45.4000   25.4320   49.1580 C   0  0  0  0  0  0  0  0  0  0  0  0
   45.7660   24.1570   49.5880 C   0  0  0  0  0  0  0  0  0  0  0  0
   45.9790   23.1720   48.6450 C   0  0  0  0  0  0  0  0  0  0  0  0
   45.8290   23.4510   47.3030 C   0  0  0  0  0  0  0  0  0  0  0  0
   45.4650   24.7210   46.9010 C   0  0  0  0  0  0  0  0  0  0  0  0
   45.5690   30.5550   48.8610 C   0  0  0  0  0  0  0  0  0  0  0  0
   46.8940   31.1130   48.5250 C   0  0  0  0  0  0  0  0  0  0  0  0
   46.4280   33.0220   45.5380 C   0  0  0  0  0  0  0  0  0  0  0  0
   47.2170   31.9550   45.0760 C   0  0  0  0  0  0  0  0  0  0  0  0
   47.4850   31.1200   46.1180 C   0  0  0  0  0  0  0  0  0  0  0  0
   46.8820   31.6610   47.1770 N   0  0  0  0  0  0  0  0  0  0  0  0
   46.2520   32.7940   46.8360 N   0  0  0  0  0  0  0  0  0  0  0  0
   44.5020   35.9010   44.3850 C   0  0  0  0  0  0  0  0  0  0  0  0
   45.0300   36.1630   43.1270 C   0  0  0  0  0  0  0  0  0  0  0  0
   46.0590   35.3360   42.6780 C   0  0  0  0  0  0  0  0  0  0  0  0
   46.4830   34.3340   43.4840 N   0  0  0  0  0  0  0  0  0  0  0  0
   45.9570   34.1040   44.6940 C   0  0  0  0  0  0  0  0  0  0  0  0
   44.9640   34.8940   45.1380 N   0  0  0  0  0  0  0  0  0  0  0  0
   46.0245   27.7445   49.1202 H   0  0  0  0  0  0  0  0  0  0  0  0
   44.0617   30.7788   46.8383 H   0  0  0  0  0  0  0  0  0  0  0  0
   42.5817   29.6161   44.6706 H   0  0  0  0  0  0  0  0  0  0  0  0
   42.1474   27.2583   43.7708 H   0  0  0  0  0  0  0  0  0  0  0  0
   43.4712   25.5452   45.3619 H   0  0  0  0  0  0  0  0  0  0  0  0
   45.2303   26.2190   49.9075 H   0  0  0  0  0  0  0  0  0  0  0  0
   45.8829   23.9401   50.6600 H   0  0  0  0  0  0  0  0  0  0  0  0
   46.2695   22.1605   48.9652 H   0  0  0  0  0  0  0  0  0  0  0  0
   45.9990   22.6635   46.5541 H   0  0  0  0  0  0  0  0  0  0  0  0
   45.3490   24.9262   45.8265 H   0  0  0  0  0  0  0  0  0  0  0  0
   44.8269   31.3532   48.7121 H   0  0  0  0  0  0  0  0  0  0  0  0
   45.6682   30.1955   49.8958 H   0  0  0  0  0  0  0  0  0  0  0  0
   47.1437   31.9113   49.2394 H   0  0  0  0  0  0  0  0  0  0  0  0
   47.6451   30.3113   48.5796 H   0  0  0  0  0  0  0  0  0  0  0  0
   47.5622   31.8166   44.0408 H   0  0  0  0  0  0  0  0  0  0  0  0
   48.0758   30.1925   46.0915 H   0  0  0  0  0  0  0  0  0  0  0  0
   43.6884   36.5330   44.7704 H   0  0  0  0  0  0  0  0  0  0  0  0
   44.6511   36.9905   42.5092 H   0  0  0  0  0  0  0  0  0  0  0  0
   46.5165   35.4942   41.6902 H   0  0  0  0  0  0  0  0  0  0  0  0
  2  1  2  0
  2 16  1  0
  3  2  1  0
  4  8  1  0
  4  3  2  0
  5  4  1  0
  6  5  1  0
  6  7  2  0
  7  8  1  0
  8  9  2  0
  9 10  1  0
  9  1  1  0
 10 11  2  0
 11 12  1  0
 13 12  2  0
 14 13  1  0
 15 14  2  0
 15 10  1  0
 17 16  1  0
 18 22  2  0
 19 18  1  0
 19 20  2  0
 20 21  1  0
 21 17  1  0
 22 21  1  0
 23 28  2  0
 24 23  1  0
 25 24  2  0
 25 26  1  0
 26 27  2  0
 27 28  1  0
 27 18  1  0
  1 29  1  0
  3 30  1  0
  5 31  1  0
  6 32  1  0
  7 33  1  0
 11 34  1  0
 12 35  1  0
 13 36  1  0
 14 37  1  0
 15 38  1  0
 16 39  1  0
 16 40  1  0
 17 41  1  0
 17 42  1  0
 19 43  1  0
 20 44  1  0
 23 45  1  0
 24 46  1  0
 25 47  1  0
M  ISO  8  29  14  30  14  31   9  32  14  33  14  34  14  35  14  36  14
M  ISO  8  37  14  38  14  39   8  40   8  41   8  42   8  43  14  44  14
M  ISO  3  45  14  46  14  47  14
M  END
>  <minimizedAffinity>  (1) 
-5.53566217

>  <minimizedRMSD>  (1) 
0.927720487

$$$$
