
     RDKit          3D

 44 48  0  0  0  0  0  0  0  0999 V2000
   45.9950   29.9390   48.2320 C   0  0  0  0  0  0  0  0  0  0  0  0
   44.9920   27.5890   47.9800 C   0  0  0  0  0  0  0  0  0  0  0  0
   45.1460   28.9140   47.6440 C   0  0  0  0  0  0  0  0  0  0  0  0
   44.3750   29.3730   46.5720 C   0  0  0  0  0  0  0  0  0  0  0  0
   43.5100   28.5520   45.8850 C   0  0  0  0  0  0  0  0  0  0  0  0
   42.6670   28.7080   44.8450 N   0  0  0  0  0  0  0  0  0  0  0  0
   42.0360   27.5630   44.5560 C   0  0  0  0  0  0  0  0  0  0  0  0
   42.4650   26.5780   45.4390 C   0  0  0  0  0  0  0  0  0  0  0  0
   43.3700   27.2300   46.2370 C   0  0  0  0  0  0  0  0  0  0  0  0
   44.1300   26.7690   47.2990 C   0  0  0  0  0  0  0  0  0  0  0  0
   44.0160   25.3460   47.7180 C   0  0  0  0  0  0  0  0  0  0  0  0
   45.2100   24.6950   48.3690 C   0  0  0  0  0  0  0  0  0  0  0  0
   44.6960   24.2520   47.0320 C   0  0  0  0  0  0  0  0  0  0  0  0
   47.3140   30.1670   47.5970 C   0  0  0  0  0  0  0  0  0  0  0  0
   46.5500   32.6590   45.1420 C   0  0  0  0  0  0  0  0  0  0  0  0
   47.2900   31.7160   44.3870 C   0  0  0  0  0  0  0  0  0  0  0  0
   47.6560   30.6920   45.1980 C   0  0  0  0  0  0  0  0  0  0  0  0
   47.1650   30.9900   46.4060 N   0  0  0  0  0  0  0  0  0  0  0  0
   46.5040   32.1580   46.3870 N   0  0  0  0  0  0  0  0  0  0  0  0
   44.5690   35.7000   44.8480 C   0  0  0  0  0  0  0  0  0  0  0  0
   44.9430   36.1990   43.5960 C   0  0  0  0  0  0  0  0  0  0  0  0
   45.8860   35.4760   42.8570 C   0  0  0  0  0  0  0  0  0  0  0  0
   46.3710   34.3400   43.4050 N   0  0  0  0  0  0  0  0  0  0  0  0
   45.9980   33.8800   44.6060 C   0  0  0  0  0  0  0  0  0  0  0  0
   45.0910   34.5650   45.3310 N   0  0  0  0  0  0  0  0  0  0  0  0
   45.4412   30.8888   48.1965 H   0  0  0  0  0  0  0  0  0  0  0  0
   46.2249   29.5731   49.2436 H   0  0  0  0  0  0  0  0  0  0  0  0
   45.5755   27.1769   48.8165 H   0  0  0  0  0  0  0  0  0  0  0  0
   44.4627   30.4263   46.2672 H   0  0  0  0  0  0  0  0  0  0  0  0
   42.5264   29.5935   44.3381 H   0  0  0  0  0  0  0  0  0  0  0  0
   41.2987   27.4241   43.7516 H   0  0  0  0  0  0  0  0  0  0  0  0
   42.1522   25.5245   45.4863 H   0  0  0  0  0  0  0  0  0  0  0  0
   42.9604   25.5239   47.9711 H   0  0  0  0  0  0  0  0  0  0  0  0
   46.1646   25.2362   48.4454 H   0  0  0  0  0  0  0  0  0  0  0  0
   45.4156   24.2109   49.3351 H   0  0  0  0  0  0  0  0  0  0  0  0
   44.1989   23.2756   46.9337 H   0  0  0  0  0  0  0  0  0  0  0  0
   45.1461   24.1287   46.0359 H   0  0  0  0  0  0  0  0  0  0  0  0
   47.9770   30.6780   48.3107 H   0  0  0  0  0  0  0  0  0  0  0  0
   47.7458   29.1968   47.3101 H   0  0  0  0  0  0  0  0  0  0  0  0
   47.5291   31.8004   43.3166 H   0  0  0  0  0  0  0  0  0  0  0  0
   48.2369   29.8003   44.9196 H   0  0  0  0  0  0  0  0  0  0  0  0
   43.8306   36.2513   45.4486 H   0  0  0  0  0  0  0  0  0  0  0  0
   44.5093   37.1309   43.2044 H   0  0  0  0  0  0  0  0  0  0  0  0
   46.2200   35.8196   41.8669 H   0  0  0  0  0  0  0  0  0  0  0  0
  3  2  2  0
  3  1  1  0
  4  3  1  0
  5  9  1  0
  5  4  2  0
  6  5  1  0
  7  6  1  0
  7  8  2  0
  8  9  1  0
  9 10  2  0
 10 11  1  0
 10  2  1  0
 11 12  1  0
 13 11  1  0
 13 12  1  0
 14  1  1  0
 15 19  2  0
 16 15  1  0
 16 17  2  0
 17 18  1  0
 18 14  1  0
 19 18  1  0
 20 25  2  0
 21 20  1  0
 22 23  1  0
 22 21  2  0
 23 24  2  0
 24 15  1  0
 24 25  1  0
  1 26  1  0
  1 27  1  0
  2 28  1  0
  4 29  1  0
  6 30  1  0
  7 31  1  0
  8 32  1  0
 11 33  1  0
 12 34  1  0
 12 35  1  0
 13 36  1  0
 13 37  1  0
 14 38  1  0
 14 39  1  0
 16 40  1  0
 17 41  1  0
 20 42  1  0
 21 43  1  0
 22 44  1  0
M  ISO  8  26   8  27   8  28  14  29  14  30   9  31  14  32  14  33  13
M  ISO  8  34  13  35  13  36  13  37  13  38   8  39   8  40  14  41  14
M  ISO  3  42  14  43  14  44  14
M  END
>  <minimizedAffinity>  (1) 
-5.46966934

>  <minimizedRMSD>  (1) 
0.136910021

$$$$
