
     RDKit          3D

 45 48  0  0  0  0  0  0  0  0999 V2000
   46.9970   30.3640   48.0920 C   0  0  0  0  0  0  0  0  0  0  0  0
   46.8860   32.3550   45.1300 C   0  0  0  0  0  0  0  0  0  0  0  0
   47.6030   31.2170   44.6850 C   0  0  0  0  0  0  0  0  0  0  0  0
   47.7230   30.3590   45.7220 C   0  0  0  0  0  0  0  0  0  0  0  0
   47.1060   30.9410   46.7680 N   0  0  0  0  0  0  0  0  0  0  0  0
   46.6070   32.1310   46.4190 N   0  0  0  0  0  0  0  0  0  0  0  0
   45.1900   35.3170   43.8320 C   0  0  0  0  0  0  0  0  0  0  0  0
   45.9430   35.6590   42.7080 C   0  0  0  0  0  0  0  0  0  0  0  0
   47.0380   34.8470   42.4170 C   0  0  0  0  0  0  0  0  0  0  0  0
   47.2970   33.8050   43.2200 N   0  0  0  0  0  0  0  0  0  0  0  0
   46.5600   33.4940   44.2950 C   0  0  0  0  0  0  0  0  0  0  0  0
   45.5040   34.2620   44.5920 N   0  0  0  0  0  0  0  0  0  0  0  0
   47.9310   35.0850   41.2560 C   0  0  0  0  0  0  0  0  0  0  0  0
   49.1160   35.9480   41.6010 C   0  0  0  0  0  0  0  0  0  0  0  0
   45.5660   30.0960   48.4140 C   0  0  0  0  0  0  0  0  0  0  0  0
   44.9390   27.6300   48.1760 C   0  0  0  0  0  0  0  0  0  0  0  0
   44.9490   28.9500   47.7770 C   0  0  0  0  0  0  0  0  0  0  0  0
   44.2730   29.2400   46.5930 C   0  0  0  0  0  0  0  0  0  0  0  0
   43.6350   28.2770   45.8640 C   0  0  0  0  0  0  0  0  0  0  0  0
   42.9260   28.2590   44.7210 N   0  0  0  0  0  0  0  0  0  0  0  0
   42.4980   27.0370   44.4130 C   0  0  0  0  0  0  0  0  0  0  0  0
   42.9400   26.1550   45.4070 C   0  0  0  0  0  0  0  0  0  0  0  0
   43.6300   26.9690   46.2660 C   0  0  0  0  0  0  0  0  0  0  0  0
   44.2920   26.6640   47.4350 C   0  0  0  0  0  0  0  0  0  0  0  0
   44.3170   25.2820   47.9110 C   0  0  0  0  0  0  0  0  0  0  0  0
   45.0900   24.9310   48.8400 O   0  0  0  0  0  0  0  0  0  0  0  0
   47.4116   31.0658   48.8307 H   0  0  0  0  0  0  0  0  0  0  0  0
   47.5575   29.4180   48.1214 H   0  0  0  0  0  0  0  0  0  0  0  0
   47.9949   31.0590   43.6694 H   0  0  0  0  0  0  0  0  0  0  0  0
   48.2247   29.3801   45.7135 H   0  0  0  0  0  0  0  0  0  0  0  0
   44.3168   35.9301   44.0996 H   0  0  0  0  0  0  0  0  0  0  0  0
   45.6852   36.5264   42.0826 H   0  0  0  0  0  0  0  0  0  0  0  0
   47.3526   35.5821   40.4633 H   0  0  0  0  0  0  0  0  0  0  0  0
   48.3159   34.1083   40.9274 H   0  0  0  0  0  0  0  0  0  0  0  0
   49.2125   36.0182   42.6945 H   0  0  0  0  0  0  0  0  0  0  0  0
   50.0293   35.5020   41.1802 H   0  0  0  0  0  0  0  0  0  0  0  0
   48.9718   36.9541   41.1802 H   0  0  0  0  0  0  0  0  0  0  0  0
   45.4930   29.9495   49.5018 H   0  0  0  0  0  0  0  0  0  0  0  0
   45.0189   30.9669   48.0240 H   0  0  0  0  0  0  0  0  0  0  0  0
   45.4569   27.3424   49.1028 H   0  0  0  0  0  0  0  0  0  0  0  0
   44.2526   30.2794   46.2336 H   0  0  0  0  0  0  0  0  0  0  0  0
   42.7362   29.0948   44.1498 H   0  0  0  0  0  0  0  0  0  0  0  0
   41.9003   26.7665   43.5301 H   0  0  0  0  0  0  0  0  0  0  0  0
   42.7733   25.0702   45.4803 H   0  0  0  0  0  0  0  0  0  0  0  0
   43.6504   24.5380   47.4504 H   0  0  0  0  0  0  0  0  0  0  0  0
  1 15  1  0
  2  6  2  0
  3  2  1  0
  3  4  2  0
  4  5  1  0
  5  1  1  0
  6  5  1  0
  7 12  2  0
  8  7  1  0
  9  8  2  0
  9 10  1  0
 10 11  2  0
 11 12  1  0
 11  2  1  0
 13 14  1  0
 13  9  1  0
 17 16  2  0
 17 15  1  0
 18 17  1  0
 19 23  1  0
 19 18  2  0
 20 19  1  0
 21 20  1  0
 21 22  2  0
 22 23  1  0
 23 24  2  0
 24 25  1  0
 24 16  1  0
 25 26  2  0
  1 27  1  0
  1 28  1  0
  3 29  1  0
  4 30  1  0
  7 31  1  0
  8 32  1  0
 13 33  1  0
 13 34  1  0
 14 35  1  0
 14 36  1  0
 14 37  1  0
 15 38  1  0
 15 39  1  0
 16 40  1  0
 18 41  1  0
 20 42  1  0
 21 43  1  0
 22 44  1  0
 25 45  1  0
M  ISO  8  27   8  28   8  29  14  30  14  31  14  32  14  33   8  34   8
M  ISO  8  35   8  36   8  37   8  38   8  39   8  40  14  41  14  42   9
M  ISO  3  43  14  44  14  45   6
M  END
>  <minimizedAffinity>  (1) 
-5.48340225

>  <minimizedRMSD>  (1) 
0.756164193

$$$$
