
     RDKit          3D

 40 43  0  0  0  0  0  0  0  0999 V2000
   45.6580   30.1080   48.6340 C   0  0  0  0  0  0  0  0  0  0  0  0
   45.0120   27.6880   48.0830 C   0  0  0  0  0  0  0  0  0  0  0  0
   45.0050   29.0480   47.8720 C   0  0  0  0  0  0  0  0  0  0  0  0
   44.2710   29.5010   46.7720 C   0  0  0  0  0  0  0  0  0  0  0  0
   43.5970   28.6340   45.9510 C   0  0  0  0  0  0  0  0  0  0  0  0
   42.8370   28.7730   44.8600 N   0  0  0  0  0  0  0  0  0  0  0  0
   42.3950   27.5910   44.4140 C   0  0  0  0  0  0  0  0  0  0  0  0
   42.8840   26.6010   45.2470 C   0  0  0  0  0  0  0  0  0  0  0  0
   43.6170   27.2870   46.1780 C   0  0  0  0  0  0  0  0  0  0  0  0
   44.3320   26.8290   47.2530 C   0  0  0  0  0  0  0  0  0  0  0  0
   44.3920   25.4020   47.5480 C   0  0  0  0  0  0  0  0  0  0  0  0
   44.9350   24.9540   48.5760 O   0  0  0  0  0  0  0  0  0  0  0  0
   47.0440   30.4650   48.2370 C   0  0  0  0  0  0  0  0  0  0  0  0
   46.6610   32.5430   45.3480 C   0  0  0  0  0  0  0  0  0  0  0  0
   47.4180   31.4670   44.8370 C   0  0  0  0  0  0  0  0  0  0  0  0
   47.6420   30.5900   45.8320 C   0  0  0  0  0  0  0  0  0  0  0  0
   47.0560   31.0850   46.9190 N   0  0  0  0  0  0  0  0  0  0  0  0
   46.4630   32.2530   46.6530 N   0  0  0  0  0  0  0  0  0  0  0  0
   44.7900   35.5120   44.3480 C   0  0  0  0  0  0  0  0  0  0  0  0
   45.3700   35.8690   43.1280 C   0  0  0  0  0  0  0  0  0  0  0  0
   46.4210   35.0640   42.6580 C   0  0  0  0  0  0  0  0  0  0  0  0
   46.7830   34.0120   43.4240 N   0  0  0  0  0  0  0  0  0  0  0  0
   46.2180   33.6940   44.5750 C   0  0  0  0  0  0  0  0  0  0  0  0
   45.2090   34.4470   45.0480 N   0  0  0  0  0  0  0  0  0  0  0  0
   47.1040   35.2680   41.4820 O   0  0  0  0  0  0  0  0  0  0  0  0
   45.0413   31.0139   48.5388 H   0  0  0  0  0  0  0  0  0  0  0  0
   45.7454   29.7135   49.6571 H   0  0  0  0  0  0  0  0  0  0  0  0
   45.5746   27.2792   48.9353 H   0  0  0  0  0  0  0  0  0  0  0  0
   44.2332   30.5797   46.5598 H   0  0  0  0  0  0  0  0  0  0  0  0
   42.6187   29.6772   44.4177 H   0  0  0  0  0  0  0  0  0  0  0  0
   41.7525   27.4337   43.5351 H   0  0  0  0  0  0  0  0  0  0  0  0
   42.7218   25.5152   45.1776 H   0  0  0  0  0  0  0  0  0  0  0  0
   43.9410   24.6948   46.8363 H   0  0  0  0  0  0  0  0  0  0  0  0
   47.4604   31.1697   48.9718 H   0  0  0  0  0  0  0  0  0  0  0  0
   47.6506   29.5480   48.2032 H   0  0  0  0  0  0  0  0  0  0  0  0
   47.7665   31.3630   43.7989 H   0  0  0  0  0  0  0  0  0  0  0  0
   48.2017   29.6457   45.7607 H   0  0  0  0  0  0  0  0  0  0  0  0
   43.9658   36.1220   44.7461 H   0  0  0  0  0  0  0  0  0  0  0  0
   45.0187   36.7430   42.5599 H   0  0  0  0  0  0  0  0  0  0  0  0
   47.8348   34.6533   41.2210 H   0  0  0  0  0  0  0  0  0  0  0  0
  3  2  2  0
  3  1  1  0
  4  3  1  0
  5  9  1  0
  5  4  2  0
  6  5  1  0
  7  6  1  0
  7  8  2  0
  8  9  1  0
  9 10  2  0
 10 11  1  0
 10  2  1  0
 11 12  2  0
 13  1  1  0
 14 18  2  0
 15 14  1  0
 15 16  2  0
 16 17  1  0
 17 13  1  0
 18 17  1  0
 19 24  2  0
 20 19  1  0
 21 20  2  0
 21 22  1  0
 22 23  2  0
 23 24  1  0
 23 14  1  0
 25 21  1  0
  1 26  1  0
  1 27  1  0
  2 28  1  0
  4 29  1  0
  6 30  1  0
  7 31  1  0
  8 32  1  0
 11 33  1  0
 13 34  1  0
 13 35  1  0
 15 36  1  0
 16 37  1  0
 19 38  1  0
 20 39  1  0
 25 40  1  0
M  ISO  8  26   8  27   8  28  14  29  14  30   9  31  14  32  14  33   6
M  ISO  7  34   8  35   8  36  14  37  14  38  14  39  14  40   3
M  END
>  <minimizedAffinity>  (1) 
-5.14300346

>  <minimizedRMSD>  (1) 
0.334228009

$$$$
