
     RDKit          3D

 41 44  0  0  0  0  0  0  0  0999 V2000
   47.0620   30.6220   48.0330 C   0  0  0  0  0  0  0  0  0  0  0  0
   46.3070   32.6910   45.2220 C   0  0  0  0  0  0  0  0  0  0  0  0
   47.1780   31.7260   44.6520 C   0  0  0  0  0  0  0  0  0  0  0  0
   47.5570   30.8570   45.6090 C   0  0  0  0  0  0  0  0  0  0  0  0
   46.9410   31.2710   46.7310 N   0  0  0  0  0  0  0  0  0  0  0  0
   46.1950   32.3610   46.5110 N   0  0  0  0  0  0  0  0  0  0  0  0
   44.5760   35.8130   44.4800 C   0  0  0  0  0  0  0  0  0  0  0  0
   44.5800   35.8580   43.0800 C   0  0  0  0  0  0  0  0  0  0  0  0
   45.1900   34.7940   42.3990 C   0  0  0  0  0  0  0  0  0  0  0  0
   45.7250   33.8110   43.1380 N   0  0  0  0  0  0  0  0  0  0  0  0
   45.7200   33.7690   44.4580 C   0  0  0  0  0  0  0  0  0  0  0  0
   45.1360   34.7870   45.1320 N   0  0  0  0  0  0  0  0  0  0  0  0
   45.2320   34.7730   40.9710 N   0  0  0  0  0  0  0  0  0  0  0  0
   45.7080   30.2330   48.5320 C   0  0  0  0  0  0  0  0  0  0  0  0
   45.0760   27.7940   48.1220 C   0  0  0  0  0  0  0  0  0  0  0  0
   45.0530   29.1370   47.8490 C   0  0  0  0  0  0  0  0  0  0  0  0
   44.2820   29.5130   46.7460 C   0  0  0  0  0  0  0  0  0  0  0  0
   43.5960   28.5990   45.9900 C   0  0  0  0  0  0  0  0  0  0  0  0
   42.7970   28.6840   44.9020 N   0  0  0  0  0  0  0  0  0  0  0  0
   42.3640   27.4760   44.5370 C   0  0  0  0  0  0  0  0  0  0  0  0
   42.8850   26.5220   45.4090 C   0  0  0  0  0  0  0  0  0  0  0  0
   43.6320   27.2640   46.2780 C   0  0  0  0  0  0  0  0  0  0  0  0
   44.3920   26.8790   47.3680 C   0  0  0  0  0  0  0  0  0  0  0  0
   44.4600   25.4630   47.7150 C   0  0  0  0  0  0  0  0  0  0  0  0
   44.9920   25.0890   48.8020 O   0  0  0  0  0  0  0  0  0  0  0  0
   47.5281   31.3179   48.7461 H   0  0  0  0  0  0  0  0  0  0  0  0
   47.6853   29.7211   47.9335 H   0  0  0  0  0  0  0  0  0  0  0  0
   47.4928   31.6931   43.5985 H   0  0  0  0  0  0  0  0  0  0  0  0
   48.2278   29.9924   45.4968 H   0  0  0  0  0  0  0  0  0  0  0  0
   44.1078   36.6294   45.0495 H   0  0  0  0  0  0  0  0  0  0  0  0
   44.1219   36.6964   42.5349 H   0  0  0  0  0  0  0  0  0  0  0  0
   45.6823   33.9871   40.4805 H   0  0  0  0  0  0  0  0  0  0  0  0
   44.8120   35.5437   40.4320 H   0  0  0  0  0  0  0  0  0  0  0  0
   45.8110   29.9521   49.5905 H   0  0  0  0  0  0  0  0  0  0  0  0
   45.0698   31.1101   48.3492 H   0  0  0  0  0  0  0  0  0  0  0  0
   45.6663   27.4381   48.9792 H   0  0  0  0  0  0  0  0  0  0  0  0
   44.2238   30.5777   46.4757 H   0  0  0  0  0  0  0  0  0  0  0  0
   42.5556   29.5620   44.4206 H   0  0  0  0  0  0  0  0  0  0  0  0
   41.7016   27.2666   43.6841 H   0  0  0  0  0  0  0  0  0  0  0  0
   42.7313   25.4328   45.3994 H   0  0  0  0  0  0  0  0  0  0  0  0
   44.0451   24.7130   47.0256 H   0  0  0  0  0  0  0  0  0  0  0  0
  1 14  1  0
  2  6  2  0
  3  2  1  0
  3  4  2  0
  4  5  1  0
  5  1  1  0
  6  5  1  0
  7 12  2  0
  8  7  1  0
  9  8  2  0
  9 10  1  0
 10 11  2  0
 11 12  1  0
 11  2  1  0
 13  9  1  0
 16 15  2  0
 16 14  1  0
 17 16  1  0
 18 22  1  0
 18 17  2  0
 19 18  1  0
 20 19  1  0
 20 21  2  0
 21 22  1  0
 22 23  2  0
 23 24  1  0
 23 15  1  0
 24 25  2  0
  1 26  1  0
  1 27  1  0
  3 28  1  0
  4 29  1  0
  7 30  1  0
  8 31  1  0
 13 32  1  0
 13 33  1  0
 14 34  1  0
 14 35  1  0
 15 36  1  0
 17 37  1  0
 19 38  1  0
 20 39  1  0
 21 40  1  0
 24 41  1  0
M  ISO  8  26   8  27   8  28  14  29  14  30  14  31  14  34   8  35   8
M  ISO  6  36  14  37  14  38   9  39  14  40  14  41   6
M  END
>  <minimizedAffinity>  (1) 
-5.18851089

>  <minimizedRMSD>  (1) 
0.50038439

$$$$
