
     RDKit          3D

 35 37  0  0  1  0  0  0  0  0999 V2000
   44.4940   35.7470   45.0090 C   0  0  0  0  0  0  0  0  0  0  0  0
   45.1210   35.6710   43.7540 C   0  0  0  0  0  0  0  0  0  0  0  0
   46.0150   34.6310   43.5110 C   0  0  0  0  0  0  0  0  0  0  0  0
   46.2170   33.7540   44.5190 N   0  0  0  0  0  0  0  0  0  0  0  0
   45.6140   33.8390   45.7030 C   0  0  0  0  0  0  0  0  0  0  0  0
   44.7550   34.8250   45.9600 N   0  0  0  0  0  0  0  0  0  0  0  0
   45.8860   32.8600   46.6890 N   0  0  0  0  0  0  0  0  0  0  0  0
   45.0650   32.5930   47.8620 C   0  0  0  0  0  0  0  0  0  0  0  0
   46.1280   32.2430   48.8840 C   0  0  0  0  0  0  0  0  0  0  0  0
   47.4200   32.0370   48.1500 C   0  0  0  0  0  0  0  0  0  0  0  0
   47.0170   31.9390   46.7290 C   0  0  1  0  0  0  0  0  0  0  0  0
   46.3730   30.6730   43.9680 O   0  0  0  0  0  0  0  0  0  0  0  0
   47.1180   30.2870   44.9150 C   0  0  0  0  0  0  0  0  0  0  0  0
   46.6360   30.5580   46.2820 C   0  0  1  0  0  0  0  0  0  0  0  0
   47.4870   29.5900   47.1090 C   0  0  0  0  0  0  0  0  0  0  0  0
   48.7970   29.4770   46.3440 C   0  0  0  0  0  0  0  0  0  0  0  0
   48.3890   29.6100   44.9550 N   0  0  0  0  0  0  0  0  0  0  0  0
   44.7460   36.7070   42.8380 N   0  0  0  0  0  0  0  0  0  0  0  0
   43.7862   36.5627   45.2180 H   0  0  0  0  0  0  0  0  0  0  0  0
   46.5316   34.5285   42.5453 H   0  0  0  0  0  0  0  0  0  0  0  0
   44.4908   33.4813   48.1641 H   0  0  0  0  0  0  0  0  0  0  0  0
   44.3029   31.8136   47.7147 H   0  0  0  0  0  0  0  0  0  0  0  0
   46.2358   33.0641   49.6080 H   0  0  0  0  0  0  0  0  0  0  0  0
   45.8482   31.3315   49.4325 H   0  0  0  0  0  0  0  0  0  0  0  0
   48.0976   32.8894   48.3057 H   0  0  0  0  0  0  0  0  0  0  0  0
   47.9647   31.1464   48.4965 H   0  0  0  0  0  0  0  0  0  0  0  0
   47.8392   32.1811   46.0395 H   0  0  0  0  0  0  0  0  0  0  0  0
   45.5439   30.4577   46.3677 H   0  0  0  0  0  0  0  0  0  0  0  0
   47.6606   29.9913   48.1184 H   0  0  0  0  0  0  0  0  0  0  0  0
   46.9970   28.6141   47.2416 H   0  0  0  0  0  0  0  0  0  0  0  0
   49.4901   30.2821   46.6294 H   0  0  0  0  0  0  0  0  0  0  0  0
   49.3325   28.5376   46.5461 H   0  0  0  0  0  0  0  0  0  0  0  0
   48.9192   29.2764   44.1374 H   0  0  0  0  0  0  0  0  0  0  0  0
   45.1553   36.7320   41.8932 H   0  0  0  0  0  0  0  0  0  0  0  0
   44.0671   37.4267   43.1244 H   0  0  0  0  0  0  0  0  0  0  0  0
  1  6  2  0
  2  1  1  0
  3  2  2  0
  3  4  1  0
  4  5  2  0
  5  6  1  0
  5  7  1  0
  7 11  1  0
  7  8  1  0
  8  9  1  0
 10  9  1  0
 11 10  1  0
 12 13  2  0
 13 17  1  0
 14 13  1  0
 14 11  1  0
 14 15  1  0
 16 15  1  0
 17 16  1  0
 18  2  1  0
  1 19  1  0
  3 20  1  0
  8 21  1  0
  8 22  1  0
  9 23  1  0
  9 24  1  0
 10 25  1  0
 10 26  1  0
 11 27  1  6
 14 28  1  6
 15 29  1  0
 15 30  1  0
 16 31  1  0
 16 32  1  0
 17 33  1  0
 18 34  1  0
 18 35  1  0
M  ISO  8  19  14  20  14  21  13  22  13  23  13  24  13  25  13  26  13
M  ISO  7  27  13  28  13  29  13  30  13  31  13  32  13  33  10
M  END
>  <minimizedAffinity>  (1) 
-5.4121213

>  <minimizedRMSD>  (1) 
0.100519553

$$$$
