
     RDKit          3D

 34 36  0  0  1  0  0  0  0  0999 V2000
   44.5820   35.7620   44.7200 C   0  0  0  0  0  0  0  0  0  0  0  0
   44.5630   35.3940   43.3750 C   0  0  0  0  0  0  0  0  0  0  0  0
   44.9270   34.0960   43.0230 C   0  0  0  0  0  0  0  0  0  0  0  0
   45.2800   33.2660   44.0380 N   0  0  0  0  0  0  0  0  0  0  0  0
   45.2900   33.6380   45.3160 C   0  0  0  0  0  0  0  0  0  0  0  0
   44.9450   34.8760   45.6730 N   0  0  0  0  0  0  0  0  0  0  0  0
   45.6750   32.6740   46.2840 N   0  0  0  0  0  0  0  0  0  0  0  0
   45.4640   32.8280   47.7330 C   0  0  0  0  0  0  0  0  0  0  0  0
   46.7100   32.1930   48.2860 C   0  0  0  0  0  0  0  0  0  0  0  0
   47.3840   31.4730   47.1510 C   0  0  0  0  0  0  0  0  0  0  0  0
   46.3110   31.4070   46.1130 C   0  0  2  0  0  0  0  0  0  0  0  0
   44.6200   29.4680   44.5090 Cl  0  0  0  0  0  0  0  0  0  0  0  0
   46.1390   30.1720   43.9420 C   0  0  0  0  0  0  0  0  0  0  0  0
   46.8090   31.0670   44.7840 C   0  0  0  0  0  0  0  0  0  0  0  0
   47.9680   31.5260   44.2060 C   0  0  0  0  0  0  0  0  0  0  0  0
   48.4540   31.1860   42.9680 C   0  0  0  0  0  0  0  0  0  0  0  0
   47.7300   30.2990   42.2090 C   0  0  0  0  0  0  0  0  0  0  0  0
   46.5620   29.7890   42.7010 C   0  0  0  0  0  0  0  0  0  0  0  0
   44.1520   36.4260   42.4570 N   0  0  0  0  0  0  0  0  0  0  0  0
   44.2983   36.7850   45.0081 H   0  0  0  0  0  0  0  0  0  0  0  0
   44.9283   33.7605   41.9754 H   0  0  0  0  0  0  0  0  0  0  0  0
   45.3925   33.8879   48.0183 H   0  0  0  0  0  0  0  0  0  0  0  0
   44.5300   32.3782   48.1007 H   0  0  0  0  0  0  0  0  0  0  0  0
   47.3788   32.9663   48.6917 H   0  0  0  0  0  0  0  0  0  0  0  0
   46.4641   31.4950   49.0998 H   0  0  0  0  0  0  0  0  0  0  0  0
   48.2542   32.0378   46.7852 H   0  0  0  0  0  0  0  0  0  0  0  0
   47.7751   30.4848   47.4348 H   0  0  0  0  0  0  0  0  0  0  0  0
   45.5887   30.5851   46.2263 H   0  0  0  0  0  0  0  0  0  0  0  0
   48.5664   32.2372   44.7943 H   0  0  0  0  0  0  0  0  0  0  0  0
   49.3968   31.6119   42.5942 H   0  0  0  0  0  0  0  0  0  0  0  0
   48.0881   30.0015   41.2124 H   0  0  0  0  0  0  0  0  0  0  0  0
   45.9697   29.0789   42.1053 H   0  0  0  0  0  0  0  0  0  0  0  0
   44.1126   36.2305   41.4465 H   0  0  0  0  0  0  0  0  0  0  0  0
   43.8976   37.3591   42.8114 H   0  0  0  0  0  0  0  0  0  0  0  0
  1  6  2  0
  2  1  1  0
  3  2  2  0
  3  4  1  0
  4  5  2  0
  5  6  1  0
  5  7  1  0
  7  8  1  0
  8  9  1  0
 10  9  1  0
 11  7  1  0
 11 10  1  0
 13 12  1  0
 13 14  2  0
 14 11  1  0
 15 14  1  0
 16 15  2  0
 17 18  2  0
 17 16  1  0
 18 13  1  0
 19  2  1  0
  1 20  1  0
  3 21  1  0
  8 22  1  0
  8 23  1  0
  9 24  1  0
  9 25  1  0
 10 26  1  0
 10 27  1  0
 11 28  1  1
 15 29  1  0
 16 30  1  0
 17 31  1  0
 18 32  1  0
 19 33  1  0
 19 34  1  0
M  ISO  8  20  14  21  14  22  13  23  13  24  13  25  13  26  13  27  13
M  ISO  5  28  13  29  14  30  14  31  14  32  14
M  END
>  <minimizedAffinity>  (1) 
-4.58673477

>  <minimizedRMSD>  (1) 
1.78897011

$$$$
