
     RDKit          3D

 55 58  0  0  1  0  0  0  0  0999 V2000
   47.0840   34.0920   42.4600 C   0  0  2  0  0  0  0  0  0  0  0  0
   48.4840   34.6100   42.6020 C   0  0  0  0  0  0  0  0  0  0  0  0
   48.8270   35.6070   41.5630 C   0  0  0  0  0  0  0  0  0  0  0  0
   48.6340   35.0620   40.1660 C   0  0  0  0  0  0  0  0  0  0  0  0
   47.3730   34.2670   40.0000 C   0  0  0  0  0  0  0  0  0  0  0  0
   46.4230   34.4010   41.1660 C   0  0  1  0  0  0  0  0  0  0  0  0
   46.2120   34.4830   43.5870 C   0  0  0  0  0  0  0  0  0  0  0  0
   45.5450   35.6760   43.3720 C   0  0  0  0  0  0  0  0  0  0  0  0
   44.6730   36.1730   44.3560 C   0  0  0  0  0  0  0  0  0  0  0  0
   44.5540   35.3860   45.5080 N   0  0  0  0  0  0  0  0  0  0  0  0
   45.2290   34.2290   45.6670 C   0  0  0  0  0  0  0  0  0  0  0  0
   46.0510   33.7950   44.6960 N   0  0  0  0  0  0  0  0  0  0  0  0
   45.3090   33.4110   40.9660 C   0  0  2  0  0  0  0  0  0  0  0  0
   44.6480   33.3570   39.6000 C   0  0  0  0  0  0  0  0  0  0  0  0
   43.9090   33.8780   40.7630 C   0  0  1  0  0  0  0  0  0  0  0  0
   42.9150   33.0710   41.5450 C   0  0  0  0  0  0  0  0  0  0  0  0
   41.6700   32.7280   40.7880 C   0  0  0  0  0  0  0  0  0  0  0  0
   40.4980   33.2960   41.5240 C   0  0  0  0  0  0  0  0  0  0  0  0
   40.3900   34.8000   41.3490 C   0  0  0  0  0  0  0  0  0  0  0  0
   39.9290   35.1550   39.9490 C   0  0  0  0  0  0  0  0  0  0  0  0
   38.5950   34.5150   39.6960 C   0  0  0  0  0  0  0  0  0  0  0  0
   38.7680   33.0010   39.7410 C   0  0  0  0  0  0  0  0  0  0  0  0
   39.1770   32.6920   41.1750 C   0  0  0  0  0  0  0  0  0  0  0  0
   47.2193   33.0005   42.4782 H   0  0  0  0  0  0  0  0  0  0  0  0
   48.5874   35.0809   43.5907 H   0  0  0  0  0  0  0  0  0  0  0  0
   49.1694   33.7574   42.4867 H   0  0  0  0  0  0  0  0  0  0  0  0
   48.1828   36.4893   41.6917 H   0  0  0  0  0  0  0  0  0  0  0  0
   49.8891   35.8676   41.6812 H   0  0  0  0  0  0  0  0  0  0  0  0
   48.6067   35.9080   39.4635 H   0  0  0  0  0  0  0  0  0  0  0  0
   49.4737   34.3798   39.9673 H   0  0  0  0  0  0  0  0  0  0  0  0
   46.8599   34.6126   39.0904 H   0  0  0  0  0  0  0  0  0  0  0  0
   47.6624   33.2077   39.9364 H   0  0  0  0  0  0  0  0  0  0  0  0
   46.0608   35.4390   41.2031 H   0  0  0  0  0  0  0  0  0  0  0  0
   45.6964   36.2328   42.4355 H   0  0  0  0  0  0  0  0  0  0  0  0
   44.1214   37.1163   44.2296 H   0  0  0  0  0  0  0  0  0  0  0  0
   45.1070   33.6419   46.5892 H   0  0  0  0  0  0  0  0  0  0  0  0
   45.7911   32.6993   41.6523 H   0  0  0  0  0  0  0  0  0  0  0  0
   44.3706   32.3876   39.1603 H   0  0  0  0  0  0  0  0  0  0  0  0
   44.8954   33.7391   38.5986 H   0  0  0  0  0  0  0  0  0  0  0  0
   43.3144   34.7979   40.8637 H   0  0  0  0  0  0  0  0  0  0  0  0
   43.3996   32.1333   41.8546 H   0  0  0  0  0  0  0  0  0  0  0  0
   42.6046   33.6929   42.3976 H   0  0  0  0  0  0  0  0  0  0  0  0
   41.5687   31.6351   40.7152 H   0  0  0  0  0  0  0  0  0  0  0  0
   41.7177   33.1475   39.7723 H   0  0  0  0  0  0  0  0  0  0  0  0
   40.7123   33.0384   42.5717 H   0  0  0  0  0  0  0  0  0  0  0  0
   39.6659   35.1953   42.0767 H   0  0  0  0  0  0  0  0  0  0  0  0
   41.3835   35.2429   41.5125 H   0  0  0  0  0  0  0  0  0  0  0  0
   39.8373   36.2473   39.8569 H   0  0  0  0  0  0  0  0  0  0  0  0
   40.6612   34.7906   39.2134 H   0  0  0  0  0  0  0  0  0  0  0  0
   38.2207   34.8164   38.7065 H   0  0  0  0  0  0  0  0  0  0  0  0
   37.8726   34.8345   40.4616 H   0  0  0  0  0  0  0  0  0  0  0  0
   37.8229   32.4965   39.4916 H   0  0  0  0  0  0  0  0  0  0  0  0
   39.5149   32.6493   39.0140 H   0  0  0  0  0  0  0  0  0  0  0  0
   38.4123   33.0930   41.8564 H   0  0  0  0  0  0  0  0  0  0  0  0
   39.2663   31.6002   41.2745 H   0  0  0  0  0  0  0  0  0  0  0  0
  1  2  1  0
  1  7  1  0
  3  2  1  0
  4  3  1  0
  5  4  1  0
  5  6  1  0
  6  1  1  0
  7 12  1  0
  8  7  2  0
  8  9  1  0
  9 10  2  0
 10 11  1  0
 12 11  2  0
 13  6  1  0
 14 15  1  0
 14 13  1  0
 15 13  1  0
 15 16  1  0
 17 18  1  0
 17 16  1  0
 19 18  1  0
 20 19  1  0
 21 22  1  0
 21 20  1  0
 22 23  1  0
 23 18  1  0
  1 24  1  6
  2 25  1  0
  2 26  1  0
  3 27  1  0
  3 28  1  0
  4 29  1  0
  4 30  1  0
  5 31  1  0
  5 32  1  0
  6 33  1  1
  8 34  1  0
  9 35  1  0
 11 36  1  0
 13 37  1  1
 14 38  1  0
 14 39  1  0
 15 40  1  6
 16 41  1  0
 16 42  1  0
 17 43  1  0
 17 44  1  0
 18 45  1  0
 19 46  1  0
 19 47  1  0
 20 48  1  0
 20 49  1  0
 21 50  1  0
 21 51  1  0
 22 52  1  0
 22 53  1  0
 23 54  1  0
 23 55  1  0
M  ISO  8  24  13  25  13  26  13  27  13  28  13  29  13  30  13  31  13
M  ISO  8  32  13  33  13  34  14  35  14  36  14  37  13  38  13  39  13
M  ISO  8  40  13  41   8  42   8  43   8  44   8  45  13  46  13  47  13
M  ISO  8  48  13  49  13  50  13  51  13  52  13  53  13  54  13  55  13
M  END
>  <minimizedAffinity>  (1) 
-6.83108568

>  <minimizedRMSD>  (1) 
1.25200057

$$$$
