
     RDKit          3D

 26 27  0  0  1  0  0  0  0  0999 V2000
   44.4920   35.9050   44.9510 C   0  0  0  0  0  0  0  0  0  0  0  0
   44.9140   35.7540   43.6320 C   0  0  0  0  0  0  0  0  0  0  0  0
   45.6130   34.6200   43.3070 C   0  0  0  0  0  0  0  0  0  0  0  0
   45.8630   33.6950   44.2900 N   0  0  0  0  0  0  0  0  0  0  0  0
   45.4370   33.8850   45.5460 C   0  0  0  0  0  0  0  0  0  0  0  0
   44.7460   34.9900   45.8980 N   0  0  0  0  0  0  0  0  0  0  0  0
   45.7250   32.8870   46.5100 N   0  0  0  0  0  0  0  0  0  0  0  0
   45.0750   32.7500   47.8100 C   0  0  0  0  0  0  0  0  0  0  0  0
   46.2150   32.2840   48.6710 C   0  0  0  0  0  0  0  0  0  0  0  0
   47.3570   31.9230   47.7570 C   0  0  0  0  0  0  0  0  0  0  0  0
   46.7090   31.8100   46.4120 C   0  0  2  0  0  0  0  0  0  0  0  0
   44.5670   36.8110   42.7260 N   0  0  0  0  0  0  0  0  0  0  0  0
   47.6630   32.2260   45.3960 N   0  0  0  0  0  0  0  0  0  0  0  0
   43.9291   36.8091   45.2262 H   0  0  0  0  0  0  0  0  0  0  0  0
   45.9666   34.4547   42.2786 H   0  0  0  0  0  0  0  0  0  0  0  0
   44.6739   33.7121   48.1615 H   0  0  0  0  0  0  0  0  0  0  0  0
   44.2095   32.0711   47.8079 H   0  0  0  0  0  0  0  0  0  0  0  0
   46.5219   33.0888   49.3552 H   0  0  0  0  0  0  0  0  0  0  0  0
   45.9136   31.4154   49.2749 H   0  0  0  0  0  0  0  0  0  0  0  0
   48.1250   32.7105   47.7581 H   0  0  0  0  0  0  0  0  0  0  0  0
   47.8733   31.0007   48.0616 H   0  0  0  0  0  0  0  0  0  0  0  0
   46.3292   30.8068   46.1683 H   0  0  0  0  0  0  0  0  0  0  0  0
   44.8513   36.7561   41.7375 H   0  0  0  0  0  0  0  0  0  0  0  0
   44.0336   37.6247   43.0641 H   0  0  0  0  0  0  0  0  0  0  0  0
   48.5100   32.5953   45.8511 H   0  0  0  0  0  0  0  0  0  0  0  0
   47.9134   31.4177   44.8087 H   0  0  0  0  0  0  0  0  0  0  0  0
  1  6  2  0
  2  1  1  0
  3  2  2  0
  3  4  1  0
  4  5  2  0
  5  6  1  0
  5  7  1  0
  7  8  1  0
  8  9  1  0
 10  9  1  0
 11  7  1  0
 11 10  1  0
 12  2  1  0
 13 11  1  0
  1 14  1  0
  3 15  1  0
  8 16  1  0
  8 17  1  0
  9 18  1  0
  9 19  1  0
 10 20  1  0
 10 21  1  0
 11 22  1  6
 12 23  1  0
 12 24  1  0
 13 25  1  0
 13 26  1  0
M  ISO  8  14  14  15  14  16  13  17  13  18  13  19  13  20  13  21  13
M  ISO  3  22  13  25   5  26   5
M  END
>  <minimizedAffinity>  (1) 
-4.56336784

>  <minimizedRMSD>  (1) 
0.333758354

$$$$
