
     RDKit          3D

 50 53  0  0  1  0  0  0  0  0999 V2000
   46.8630   34.1200   42.5150 C   0  0  2  0  0  0  0  0  0  0  0  0
   48.3160   34.4320   42.7120 C   0  0  0  0  0  0  0  0  0  0  0  0
   48.8290   35.3860   41.7030 C   0  0  0  0  0  0  0  0  0  0  0  0
   48.6070   34.9010   40.2880 C   0  0  0  0  0  0  0  0  0  0  0  0
   47.2560   34.2850   40.0690 C   0  0  0  0  0  0  0  0  0  0  0  0
   46.2950   34.5290   41.2070 C   0  0  1  0  0  0  0  0  0  0  0  0
   46.0160   34.6070   43.6220 C   0  0  0  0  0  0  0  0  0  0  0  0
   46.0380   33.7780   44.7280 C   0  0  0  0  0  0  0  0  0  0  0  0
   45.2830   34.1130   45.8650 C   0  0  0  0  0  0  0  0  0  0  0  0
   44.5490   35.3010   45.7720 N   0  0  0  0  0  0  0  0  0  0  0  0
   44.5610   36.0740   44.6680 C   0  0  0  0  0  0  0  0  0  0  0  0
   45.3000   35.7110   43.6060 N   0  0  0  0  0  0  0  0  0  0  0  0
   45.0640   33.6980   40.9600 C   0  0  2  0  0  0  0  0  0  0  0  0
   44.7890   33.2590   39.5330 C   0  0  0  0  0  0  0  0  0  0  0  0
   43.9210   34.2510   40.1900 C   0  0  1  0  0  0  0  0  0  0  0  0
   42.5910   33.9430   40.7930 C   0  0  0  0  0  0  0  0  0  0  0  0
   42.0270   35.0600   41.6310 C   0  0  0  0  0  0  0  0  0  0  0  0
   40.5300   35.0860   41.6410 C   0  0  0  0  0  0  0  0  0  0  0  0
   40.0620   35.7460   40.3590 C   0  0  0  0  0  0  0  0  0  0  0  0
   39.1490   34.8020   39.6540 C   0  0  0  0  0  0  0  0  0  0  0  0
   39.1020   33.5260   40.4280 C   0  0  0  0  0  0  0  0  0  0  0  0
   40.0340   33.6700   41.6050 C   0  0  0  0  0  0  0  0  0  0  0  0
   46.8458   33.0201   42.5157 H   0  0  0  0  0  0  0  0  0  0  0  0
   48.4512   34.8689   43.7124 H   0  0  0  0  0  0  0  0  0  0  0  0
   48.8789   33.4932   42.6034 H   0  0  0  0  0  0  0  0  0  0  0  0
   48.3125   36.3486   41.8319 H   0  0  0  0  0  0  0  0  0  0  0  0
   49.9134   35.4874   41.8572 H   0  0  0  0  0  0  0  0  0  0  0  0
   48.7133   35.7576   39.6061 H   0  0  0  0  0  0  0  0  0  0  0  0
   49.3541   34.1171   40.0947 H   0  0  0  0  0  0  0  0  0  0  0  0
   46.8240   34.7092   39.1506 H   0  0  0  0  0  0  0  0  0  0  0  0
   47.4029   33.1973   39.9952 H   0  0  0  0  0  0  0  0  0  0  0  0
   46.0751   35.6061   41.2465 H   0  0  0  0  0  0  0  0  0  0  0  0
   46.6439   32.8600   44.7182 H   0  0  0  0  0  0  0  0  0  0  0  0
   45.2698   33.4839   46.7672 H   0  0  0  0  0  0  0  0  0  0  0  0
   43.9674   36.9996   44.6364 H   0  0  0  0  0  0  0  0  0  0  0  0
   45.1652   33.2155   41.9433 H   0  0  0  0  0  0  0  0  0  0  0  0
   44.4129   32.2453   39.3308 H   0  0  0  0  0  0  0  0  0  0  0  0
   45.3710   33.2271   38.6001 H   0  0  0  0  0  0  0  0  0  0  0  0
   43.5583   35.2216   39.8207 H   0  0  0  0  0  0  0  0  0  0  0  0
   41.8828   33.7294   39.9789 H   0  0  0  0  0  0  0  0  0  0  0  0
   42.7360   33.0831   41.4634 H   0  0  0  0  0  0  0  0  0  0  0  0
   42.3823   34.9364   42.6647 H   0  0  0  0  0  0  0  0  0  0  0  0
   42.3694   36.0075   41.1894 H   0  0  0  0  0  0  0  0  0  0  0  0
   40.1639   35.6195   42.5306 H   0  0  0  0  0  0  0  0  0  0  0  0
   39.5254   36.6770   40.5942 H   0  0  0  0  0  0  0  0  0  0  0  0
   40.9242   35.9882   39.7203 H   0  0  0  0  0  0  0  0  0  0  0  0
   38.6028   35.0100   38.7221 H   0  0  0  0  0  0  0  0  0  0  0  0
   38.4967   32.6406   40.1838 H   0  0  0  0  0  0  0  0  0  0  0  0
   39.4956   33.4404   42.5364 H   0  0  0  0  0  0  0  0  0  0  0  0
   40.8800   32.9738   41.5067 H   0  0  0  0  0  0  0  0  0  0  0  0
  1  2  1  0
  1  7  1  0
  3  2  1  0
  4  3  1  0
  5  4  1  0
  5  6  1  0
  6  1  1  0
  7  8  2  0
  8  9  1  0
 10  9  2  0
 11 10  1  0
 12  7  1  0
 12 11  2  0
 13  6  1  0
 14 15  1  0
 14 13  1  0
 15 16  1  0
 15 13  1  0
 16 17  1  0
 18 17  1  0
 19 18  1  0
 20 19  1  0
 20 21  2  0
 21 22  1  0
 22 18  1  0
  1 23  1  6
  2 24  1  0
  2 25  1  0
  3 26  1  0
  3 27  1  0
  4 28  1  0
  4 29  1  0
  5 30  1  0
  5 31  1  0
  6 32  1  1
  8 33  1  0
  9 34  1  0
 11 35  1  0
 13 36  1  1
 14 37  1  0
 14 38  1  0
 15 39  1  6
 16 40  1  0
 16 41  1  0
 17 42  1  0
 17 43  1  0
 18 44  1  0
 19 45  1  0
 19 46  1  0
 20 47  1  0
 21 48  1  0
 22 49  1  0
 22 50  1  0
M  ISO  8  23  13  24  13  25  13  26  13  27  13  28  13  29  13  30  13
M  ISO  8  31  13  32  13  33  14  34  14  35  14  36  13  37  13  38  13
M  ISO  8  39  13  40   8  41   8  42   8  43   8  44  13  45  13  46  13
M  ISO  4  47  13  48  13  49  13  50  13
M  END
>  <minimizedAffinity>  (1) 
-6.77419662

>  <minimizedRMSD>  (1) 
2.09210515

$$$$
