
     RDKit          3D

 33 35  0  0  1  0  0  0  0  0999 V2000
   44.6070   35.7740   44.5930 C   0  0  0  0  0  0  0  0  0  0  0  0
   44.4900   35.4050   43.2470 C   0  0  0  0  0  0  0  0  0  0  0  0
   44.7830   34.0960   42.8760 C   0  0  0  0  0  0  0  0  0  0  0  0
   45.1720   33.2380   43.8610 N   0  0  0  0  0  0  0  0  0  0  0  0
   45.2760   33.6220   45.1420 C   0  0  0  0  0  0  0  0  0  0  0  0
   44.9980   34.8730   45.5110 N   0  0  0  0  0  0  0  0  0  0  0  0
   45.6920   32.6500   46.0940 N   0  0  0  0  0  0  0  0  0  0  0  0
   45.5560   32.8040   47.5430 C   0  0  0  0  0  0  0  0  0  0  0  0
   46.8050   32.1380   48.0390 C   0  0  0  0  0  0  0  0  0  0  0  0
   47.4380   31.4290   46.8750 C   0  0  0  0  0  0  0  0  0  0  0  0
   46.3050   31.3630   45.8660 C   0  0  2  0  0  0  0  0  0  0  0  0
   46.8880   31.2330   44.5080 C   0  0  0  0  0  0  0  0  0  0  0  0
   46.3420   30.3440   43.5790 C   0  0  0  0  0  0  0  0  0  0  0  0
   46.8910   30.2160   42.3060 C   0  0  0  0  0  0  0  0  0  0  0  0
   47.9930   30.9940   41.9850 C   0  0  0  0  0  0  0  0  0  0  0  0
   48.5180   31.8640   42.9140 C   0  0  0  0  0  0  0  0  0  0  0  0
   47.9510   31.9510   44.1290 N   0  0  0  0  0  0  0  0  0  0  0  0
   44.0650   36.4240   42.3200 N   0  0  0  0  0  0  0  0  0  0  0  0
   44.3781   36.8051   44.9003 H   0  0  0  0  0  0  0  0  0  0  0  0
   44.7038   33.7669   41.8294 H   0  0  0  0  0  0  0  0  0  0  0  0
   45.5255   33.8649   47.8322 H   0  0  0  0  0  0  0  0  0  0  0  0
   44.6292   32.3755   47.9522 H   0  0  0  0  0  0  0  0  0  0  0  0
   47.4979   32.8924   48.4399 H   0  0  0  0  0  0  0  0  0  0  0  0
   46.5682   31.4246   48.8421 H   0  0  0  0  0  0  0  0  0  0  0  0
   48.2896   32.0010   46.4779 H   0  0  0  0  0  0  0  0  0  0  0  0
   47.8472   30.4419   47.1361 H   0  0  0  0  0  0  0  0  0  0  0  0
   45.5984   30.5250   45.9580 H   0  0  0  0  0  0  0  0  0  0  0  0
   45.4673   29.7375   43.8568 H   0  0  0  0  0  0  0  0  0  0  0  0
   46.4618   29.5160   41.5740 H   0  0  0  0  0  0  0  0  0  0  0  0
   48.4484   30.9160   40.9867 H   0  0  0  0  0  0  0  0  0  0  0  0
   49.3931   32.4818   42.6640 H   0  0  0  0  0  0  0  0  0  0  0  0
   43.9643   36.2005   41.3196 H   0  0  0  0  0  0  0  0  0  0  0  0
   43.8620   37.3755   42.6581 H   0  0  0  0  0  0  0  0  0  0  0  0
  1  6  2  0
  2  1  1  0
  3  2  2  0
  3  4  1  0
  4  5  2  0
  5  6  1  0
  5  7  1  0
  7  8  1  0
  8  9  1  0
 10  9  1  0
 11  7  1  0
 11 10  1  0
 12 11  1  0
 13 12  2  0
 14 13  1  0
 15 14  2  0
 15 16  1  0
 16 17  2  0
 17 12  1  0
 18  2  1  0
  1 19  1  0
  3 20  1  0
  8 21  1  0
  8 22  1  0
  9 23  1  0
  9 24  1  0
 10 25  1  0
 10 26  1  0
 11 27  1  1
 13 28  1  0
 14 29  1  0
 15 30  1  0
 16 31  1  0
 18 32  1  0
 18 33  1  0
M  ISO  8  19  14  20  14  21  13  22  13  23  13  24  13  25  13  26  13
M  ISO  5  27  13  28  14  29  14  30  14  31  14
M  END
>  <minimizedAffinity>  (1) 
-4.3535943

>  <minimizedRMSD>  (1) 
2.01151204

$$$$
