
     RDKit          3D

 31 33  0  0  1  0  0  0  0  0999 V2000
   44.5690   35.7900   44.7020 C   0  0  0  0  0  0  0  0  0  0  0  0
   44.5310   35.4150   43.3510 C   0  0  0  0  0  0  0  0  0  0  0  0
   44.8810   34.1230   42.9860 C   0  0  0  0  0  0  0  0  0  0  0  0
   45.2470   33.2800   43.9840 N   0  0  0  0  0  0  0  0  0  0  0  0
   45.2780   33.6580   45.2810 C   0  0  0  0  0  0  0  0  0  0  0  0
   44.9440   34.8980   45.6410 N   0  0  0  0  0  0  0  0  0  0  0  0
   45.6790   32.6910   46.2450 N   0  0  0  0  0  0  0  0  0  0  0  0
   45.4460   32.7970   47.6720 C   0  0  0  0  0  0  0  0  0  0  0  0
   46.7100   32.2120   48.2390 C   0  0  0  0  0  0  0  0  0  0  0  0
   47.4260   31.5270   47.1160 C   0  0  0  0  0  0  0  0  0  0  0  0
   46.3790   31.4320   46.0250 C   0  0  2  0  0  0  0  0  0  0  0  0
   47.0150   31.3640   44.7480 C   0  0  0  0  0  0  0  0  0  0  0  0
   48.0190   32.0130   44.0180 C   0  0  0  0  0  0  0  0  0  0  0  0
   48.3280   31.6260   42.7500 C   0  0  0  0  0  0  0  0  0  0  0  0
   47.5060   30.4590   42.2170 C   0  0  0  0  0  0  0  0  0  0  0  0
   46.3900   30.1200   43.7080 S   0  0  0  0  0  0  0  0  0  0  0  0
   44.1210   36.4250   42.4100 N   0  0  0  0  0  0  0  0  0  0  0  0
   44.2925   36.8133   44.9959 H   0  0  0  0  0  0  0  0  0  0  0  0
   44.8626   33.7971   41.9355 H   0  0  0  0  0  0  0  0  0  0  0  0
   45.3178   33.8454   47.9793 H   0  0  0  0  0  0  0  0  0  0  0  0
   44.5310   32.2892   48.0111 H   0  0  0  0  0  0  0  0  0  0  0  0
   47.3407   33.0110   48.6559 H   0  0  0  0  0  0  0  0  0  0  0  0
   46.4821   31.5012   49.0469 H   0  0  0  0  0  0  0  0  0  0  0  0
   48.2886   32.1215   46.7807 H   0  0  0  0  0  0  0  0  0  0  0  0
   47.8300   30.5455   47.4047 H   0  0  0  0  0  0  0  0  0  0  0  0
   45.7213   30.5506   46.0481 H   0  0  0  0  0  0  0  0  0  0  0  0
   48.5668   32.8492   44.4770 H   0  0  0  0  0  0  0  0  0  0  0  0
   49.1116   32.1184   42.1554 H   0  0  0  0  0  0  0  0  0  0  0  0
   47.5490   29.9550   41.2402 H   0  0  0  0  0  0  0  0  0  0  0  0
   44.0752   36.2043   41.4050 H   0  0  0  0  0  0  0  0  0  0  0  0
   43.8736   37.3681   42.7420 H   0  0  0  0  0  0  0  0  0  0  0  0
  1  6  2  0
  2  1  1  0
  3  2  2  0
  3  4  1  0
  4  5  2  0
  5  6  1  0
  5  7  1  0
  7  8  1  0
  8  9  1  0
 10  9  1  0
 11  7  1  0
 11 10  1  0
 12 11  1  0
 13 12  2  0
 14 13  1  0
 15 14  2  0
 15 16  1  0
 16 12  1  0
 17  2  1  0
  1 18  1  0
  3 19  1  0
  8 20  1  0
  8 21  1  0
  9 22  1  0
  9 23  1  0
 10 24  1  0
 10 25  1  0
 11 26  1  1
 13 27  1  0
 14 28  1  0
 15 29  1  0
 17 30  1  0
 17 31  1  0
M  ISO  8  18  14  19  14  20  13  21  13  22  13  23  13  24  13  25  13
M  ISO  4  26  13  27  14  28  14  29  14
M  END
>  <minimizedAffinity>  (1) 
-4.40751886

>  <minimizedRMSD>  (1) 
1.60392964

$$$$
