
     RDKit          3D

 34 36  0  0  1  0  0  0  0  0999 V2000
   44.5840   35.7910   44.7230 C   0  0  0  0  0  0  0  0  0  0  0  0
   44.5390   35.4160   43.3740 C   0  0  0  0  0  0  0  0  0  0  0  0
   44.8780   34.1110   43.0170 C   0  0  0  0  0  0  0  0  0  0  0  0
   45.2400   33.2600   44.0260 N   0  0  0  0  0  0  0  0  0  0  0  0
   45.2720   33.6480   45.2990 C   0  0  0  0  0  0  0  0  0  0  0  0
   44.9510   34.9000   45.6710 N   0  0  0  0  0  0  0  0  0  0  0  0
   45.6640   32.6880   46.2730 N   0  0  0  0  0  0  0  0  0  0  0  0
   45.4570   32.8470   47.7200 C   0  0  0  0  0  0  0  0  0  0  0  0
   46.6980   32.2060   48.2710 C   0  0  0  0  0  0  0  0  0  0  0  0
   47.3750   31.4860   47.1390 C   0  0  0  0  0  0  0  0  0  0  0  0
   46.3080   31.4250   46.0990 C   0  0  2  0  0  0  0  0  0  0  0  0
   44.8540   29.7570   44.3950 F   0  0  0  0  0  0  0  0  0  0  0  0
   46.0540   30.2330   43.9450 C   0  0  0  0  0  0  0  0  0  0  0  0
   46.7970   31.0840   44.7720 C   0  0  0  0  0  0  0  0  0  0  0  0
   47.9690   31.4780   44.1920 C   0  0  0  0  0  0  0  0  0  0  0  0
   48.4170   31.1120   42.9390 C   0  0  0  0  0  0  0  0  0  0  0  0
   47.6360   30.2780   42.1880 C   0  0  0  0  0  0  0  0  0  0  0  0
   46.4390   29.8260   42.6850 C   0  0  0  0  0  0  0  0  0  0  0  0
   44.1380   36.4220   42.4290 N   0  0  0  0  0  0  0  0  0  0  0  0
   44.3187   36.8184   45.0130 H   0  0  0  0  0  0  0  0  0  0  0  0
   44.8554   33.7796   41.9684 H   0  0  0  0  0  0  0  0  0  0  0  0
   45.3931   33.9081   48.0028 H   0  0  0  0  0  0  0  0  0  0  0  0
   44.5207   32.4046   48.0908 H   0  0  0  0  0  0  0  0  0  0  0  0
   47.3683   32.9760   48.6807 H   0  0  0  0  0  0  0  0  0  0  0  0
   46.4455   31.5050   49.0802 H   0  0  0  0  0  0  0  0  0  0  0  0
   48.2483   32.0488   46.7777 H   0  0  0  0  0  0  0  0  0  0  0  0
   47.7626   30.4965   47.4229 H   0  0  0  0  0  0  0  0  0  0  0  0
   45.5898   30.5993   46.2101 H   0  0  0  0  0  0  0  0  0  0  0  0
   48.6152   32.1487   44.7773 H   0  0  0  0  0  0  0  0  0  0  0  0
   49.3787   31.4821   42.5540 H   0  0  0  0  0  0  0  0  0  0  0  0
   47.9670   29.9692   41.1854 H   0  0  0  0  0  0  0  0  0  0  0  0
   45.8013   29.1543   42.0916 H   0  0  0  0  0  0  0  0  0  0  0  0
   44.0892   36.1956   41.4254 H   0  0  0  0  0  0  0  0  0  0  0  0
   43.8994   37.3693   42.7554 H   0  0  0  0  0  0  0  0  0  0  0  0
  1  6  2  0
  2  1  1  0
  3  2  2  0
  3  4  1  0
  4  5  2  0
  5  6  1  0
  5  7  1  0
  7  8  1  0
  8  9  1  0
 10  9  1  0
 11  7  1  0
 11 10  1  0
 13 12  1  0
 13 14  2  0
 14 11  1  0
 15 14  1  0
 16 15  2  0
 17 18  2  0
 17 16  1  0
 18 13  1  0
 19  2  1  0
  1 20  1  0
  3 21  1  0
  8 22  1  0
  8 23  1  0
  9 24  1  0
  9 25  1  0
 10 26  1  0
 10 27  1  0
 11 28  1  1
 15 29  1  0
 16 30  1  0
 17 31  1  0
 18 32  1  0
 19 33  1  0
 19 34  1  0
M  ISO  8  20  14  21  14  22  13  23  13  24  13  25  13  26  13  27  13
M  ISO  5  28  13  29  14  30  14  31  14  32  14
M  END
>  <minimizedAffinity>  (1) 
-4.55652618

>  <minimizedRMSD>  (1) 
2.16758966

$$$$
