
     RDKit          3D

 30 31  0  0  1  0  0  0  0  0999 V2000
   44.5520   35.7960   44.9640 C   0  0  0  0  0  0  0  0  0  0  0  0
   44.7820   35.5400   43.5950 C   0  0  0  0  0  0  0  0  0  0  0  0
   45.3360   34.3190   43.2180 C   0  0  0  0  0  0  0  0  0  0  0  0
   45.6160   33.4520   44.2260 N   0  0  0  0  0  0  0  0  0  0  0  0
   45.3960   33.6990   45.5130 C   0  0  0  0  0  0  0  0  0  0  0  0
   44.8680   34.8650   45.8790 N   0  0  0  0  0  0  0  0  0  0  0  0
   45.7220   32.7060   46.4580 N   0  0  0  0  0  0  0  0  0  0  0  0
   45.2500   32.6930   47.8450 C   0  0  0  0  0  0  0  0  0  0  0  0
   46.4510   32.1680   48.5850 C   0  0  0  0  0  0  0  0  0  0  0  0
   47.4330   31.6720   47.5540 C   0  0  0  0  0  0  0  0  0  0  0  0
   46.5320   31.5320   46.3390 C   0  0  2  0  0  0  0  0  0  0  0  0
   44.4150   36.5870   42.6810 N   0  0  0  0  0  0  0  0  0  0  0  0
   47.4110   31.5500   45.1340 C   0  0  0  0  0  0  0  0  0  0  0  0
   48.0320   30.1420   45.0250 C   0  0  0  0  0  0  0  0  0  0  0  0
   44.1154   36.7548   45.2804 H   0  0  0  0  0  0  0  0  0  0  0  0
   45.5353   34.0709   42.1650 H   0  0  0  0  0  0  0  0  0  0  0  0
   44.9830   33.7045   48.1849 H   0  0  0  0  0  0  0  0  0  0  0  0
   44.3410   32.0924   47.9963 H   0  0  0  0  0  0  0  0  0  0  0  0
   46.9062   32.9721   49.1819 H   0  0  0  0  0  0  0  0  0  0  0  0
   46.1622   31.3564   49.2690 H   0  0  0  0  0  0  0  0  0  0  0  0
   48.2374   32.4015   47.3785 H   0  0  0  0  0  0  0  0  0  0  0  0
   47.9596   30.7485   47.8368 H   0  0  0  0  0  0  0  0  0  0  0  0
   45.9231   30.6189   46.2648 H   0  0  0  0  0  0  0  0  0  0  0  0
   44.5581   36.4607   41.6689 H   0  0  0  0  0  0  0  0  0  0  0  0
   44.0089   37.4636   43.0382 H   0  0  0  0  0  0  0  0  0  0  0  0
   46.8188   31.7750   44.2347 H   0  0  0  0  0  0  0  0  0  0  0  0
   48.1891   32.3228   45.2202 H   0  0  0  0  0  0  0  0  0  0  0  0
   48.2092   29.7403   46.0336 H   0  0  0  0  0  0  0  0  0  0  0  0
   47.3430   29.4784   44.4818 H   0  0  0  0  0  0  0  0  0  0  0  0
   48.9866   30.2033   44.4818 H   0  0  0  0  0  0  0  0  0  0  0  0
  1  6  2  0
  2  1  1  0
  3  2  2  0
  3  4  1  0
  4  5  2  0
  5  6  1  0
  5  7  1  0
  7  8  1  0
  8  9  1  0
 10  9  1  0
 11  7  1  0
 11 10  1  0
 12  2  1  0
 13 11  1  0
 14 13  1  0
  1 15  1  0
  3 16  1  0
  8 17  1  0
  8 18  1  0
  9 19  1  0
  9 20  1  0
 10 21  1  0
 10 22  1  0
 11 23  1  1
 12 24  1  0
 12 25  1  0
 13 26  1  0
 13 27  1  0
 14 28  1  0
 14 29  1  0
 14 30  1  0
M  ISO  8  15  14  16  14  17  13  18  13  19  13  20  13  21  13  22  13
M  ISO  6  23  13  26   8  27   8  28   8  29   8  30   8
M  END
>  <minimizedAffinity>  (1) 
-4.43996382

>  <minimizedRMSD>  (1) 
0.793463469

$$$$
