
     RDKit          3D

 51 54  0  0  1  0  0  0  0  0999 V2000
   47.0910   34.1080   42.4620 C   0  0  2  0  0  0  0  0  0  0  0  0
   48.4990   34.5920   42.6290 C   0  0  0  0  0  0  0  0  0  0  0  0
   48.8780   35.5870   41.6030 C   0  0  0  0  0  0  0  0  0  0  0  0
   48.6700   35.0920   40.1880 C   0  0  0  0  0  0  0  0  0  0  0  0
   47.4130   34.2990   40.0090 C   0  0  0  0  0  0  0  0  0  0  0  0
   46.4500   34.4370   41.1650 C   0  0  1  0  0  0  0  0  0  0  0  0
   46.2120   34.5000   43.5840 C   0  0  0  0  0  0  0  0  0  0  0  0
   45.5450   35.6910   43.3610 C   0  0  0  0  0  0  0  0  0  0  0  0
   44.6690   36.1870   44.3440 C   0  0  0  0  0  0  0  0  0  0  0  0
   44.5480   35.4030   45.4980 N   0  0  0  0  0  0  0  0  0  0  0  0
   45.2240   34.2480   45.6630 C   0  0  0  0  0  0  0  0  0  0  0  0
   46.0470   33.8160   44.6970 N   0  0  0  0  0  0  0  0  0  0  0  0
   45.3220   33.4670   40.9430 C   0  0  2  0  0  0  0  0  0  0  0  0
   44.7810   33.3310   39.5310 C   0  0  0  0  0  0  0  0  0  0  0  0
   43.9650   33.9550   40.5820 C   0  0  1  0  0  0  0  0  0  0  0  0
   42.8720   33.2550   41.3310 C   0  0  0  0  0  0  0  0  0  0  0  0
   41.5180   33.8790   41.1530 C   0  0  0  0  0  0  0  0  0  0  0  0
   40.7350   33.2370   40.1150 N   0  0  0  0  0  0  0  0  0  0  0  0
   40.6640   34.1430   38.9880 C   0  0  0  0  0  0  0  0  0  0  0  0
   39.2200   34.3390   38.6500 C   0  0  0  0  0  0  0  0  0  0  0  0
   38.4830   33.9980   39.9110 C   0  0  0  0  0  0  0  0  0  0  0  0
   39.3970   32.9360   40.5210 C   0  0  0  0  0  0  0  0  0  0  0  0
   47.2083   33.0143   42.4670 H   0  0  0  0  0  0  0  0  0  0  0  0
   48.5985   35.0535   43.6225 H   0  0  0  0  0  0  0  0  0  0  0  0
   49.1671   33.7251   42.5187 H   0  0  0  0  0  0  0  0  0  0  0  0
   48.2687   36.4909   41.7505 H   0  0  0  0  0  0  0  0  0  0  0  0
   49.9524   35.7891   41.7243 H   0  0  0  0  0  0  0  0  0  0  0  0
   48.6302   35.9629   39.5173 H   0  0  0  0  0  0  0  0  0  0  0  0
   49.5102   34.4217   39.9540 H   0  0  0  0  0  0  0  0  0  0  0  0
   46.9105   34.6430   39.0929 H   0  0  0  0  0  0  0  0  0  0  0  0
   47.7018   33.2392   39.9501 H   0  0  0  0  0  0  0  0  0  0  0  0
   46.1022   35.4797   41.2069 H   0  0  0  0  0  0  0  0  0  0  0  0
   45.6980   36.2455   42.4234 H   0  0  0  0  0  0  0  0  0  0  0  0
   44.1155   37.1288   44.2145 H   0  0  0  0  0  0  0  0  0  0  0  0
   45.1007   33.6628   46.5862 H   0  0  0  0  0  0  0  0  0  0  0  0
   45.7160   32.7966   41.7210 H   0  0  0  0  0  0  0  0  0  0  0  0
   44.5095   32.3401   39.1381 H   0  0  0  0  0  0  0  0  0  0  0  0
   45.1271   33.6312   38.5310 H   0  0  0  0  0  0  0  0  0  0  0  0
   43.3954   34.8958   40.5608 H   0  0  0  0  0  0  0  0  0  0  0  0
   42.8227   32.2138   40.9795 H   0  0  0  0  0  0  0  0  0  0  0  0
   43.1196   33.3277   42.4003 H   0  0  0  0  0  0  0  0  0  0  0  0
   40.9693   33.8050   42.1035 H   0  0  0  0  0  0  0  0  0  0  0  0
   41.6729   34.9254   40.8513 H   0  0  0  0  0  0  0  0  0  0  0  0
   41.1205   35.1078   39.2540 H   0  0  0  0  0  0  0  0  0  0  0  0
   41.2077   33.7283   38.1264 H   0  0  0  0  0  0  0  0  0  0  0  0
   39.0281   35.3823   38.3588 H   0  0  0  0  0  0  0  0  0  0  0  0
   38.9032   33.7147   37.8015 H   0  0  0  0  0  0  0  0  0  0  0  0
   38.3885   34.8734   40.5703 H   0  0  0  0  0  0  0  0  0  0  0  0
   37.4490   33.6598   39.7484 H   0  0  0  0  0  0  0  0  0  0  0  0
   39.1093   31.9386   40.1570 H   0  0  0  0  0  0  0  0  0  0  0  0
   39.3150   32.9374   41.6179 H   0  0  0  0  0  0  0  0  0  0  0  0
  1  2  1  0
  1  7  1  0
  3  2  1  0
  4  3  1  0
  5  4  1  0
  5  6  1  0
  6  1  1  0
  7 12  1  0
  8  7  2  0
  8  9  1  0
  9 10  2  0
 10 11  1  0
 12 11  2  0
 13  6  1  0
 14 15  1  0
 14 13  1  0
 15 13  1  0
 15 16  1  0
 17 16  1  0
 18 22  1  0
 18 17  1  0
 19 18  1  0
 20 19  1  0
 20 21  1  0
 21 22  1  0
  1 23  1  6
  2 24  1  0
  2 25  1  0
  3 26  1  0
  3 27  1  0
  4 28  1  0
  4 29  1  0
  5 30  1  0
  5 31  1  0
  6 32  1  1
  8 33  1  0
  9 34  1  0
 11 35  1  0
 13 36  1  1
 14 37  1  0
 14 38  1  0
 15 39  1  6
 16 40  1  0
 16 41  1  0
 17 42  1  0
 17 43  1  0
 19 44  1  0
 19 45  1  0
 20 46  1  0
 20 47  1  0
 21 48  1  0
 21 49  1  0
 22 50  1  0
 22 51  1  0
M  ISO  8  23  13  24  13  25  13  26  13  27  13  28  13  29  13  30  13
M  ISO  8  31  13  32  13  33  14  34  14  35  14  36  13  37  13  38  13
M  ISO  8  39  13  40   8  41   8  42   8  43   8  44  13  45  13  46  13
M  ISO  5  47  13  48  13  49  13  50  13  51  13
M  END
>  <minimizedAffinity>  (1) 
-6.36344385

>  <minimizedRMSD>  (1) 
0.948928714

$$$$
