
     RDKit          3D

 38 40  0  0  1  0  0  0  0  0999 V2000
   44.4950   35.5720   45.0760 C   0  0  0  0  0  0  0  0  0  0  0  0
   45.1560   35.5440   43.8370 C   0  0  0  0  0  0  0  0  0  0  0  0
   46.0890   34.5840   43.6040 C   0  0  0  0  0  0  0  0  0  0  0  0
   46.3210   33.7020   44.6050 N   0  0  0  0  0  0  0  0  0  0  0  0
   45.6960   33.7280   45.7770 C   0  0  0  0  0  0  0  0  0  0  0  0
   44.7720   34.6640   46.0320 N   0  0  0  0  0  0  0  0  0  0  0  0
   46.0230   32.7450   46.7390 N   0  0  0  0  0  0  0  0  0  0  0  0
   45.2370   32.4550   47.9420 C   0  0  0  0  0  0  0  0  0  0  0  0
   46.3400   32.1980   48.9680 C   0  0  0  0  0  0  0  0  0  0  0  0
   47.6180   32.0220   48.2000 C   0  0  0  0  0  0  0  0  0  0  0  0
   47.1310   31.8330   46.7890 C   0  0  1  0  0  0  0  0  0  0  0  0
   44.7610   36.5750   42.9070 N   0  0  0  0  0  0  0  0  0  0  0  0
   46.6400   30.1210   46.5700 S   0  0  0  0  0  0  0  0  0  0  0  0
   44.1460   29.5650   45.9940 N   0  0  0  0  0  0  0  0  0  0  0  0
   45.3830   29.8950   45.2870 C   0  0  2  0  0  0  0  0  0  0  0  0
   45.8060   28.7510   44.3870 C   0  0  0  0  0  0  0  0  0  0  0  0
   44.7460   28.0350   43.8810 O   0  0  0  0  0  0  0  0  0  0  0  0
   43.8740   27.5240   44.8160 C   0  0  0  0  0  0  0  0  0  0  0  0
   44.1230   28.1230   46.1840 C   0  0  0  0  0  0  0  0  0  0  0  0
   43.7392   36.3476   45.2688 H   0  0  0  0  0  0  0  0  0  0  0  0
   46.6300   34.5261   42.6480 H   0  0  0  0  0  0  0  0  0  0  0  0
   44.6113   33.3125   48.2302 H   0  0  0  0  0  0  0  0  0  0  0  0
   44.5278   31.6222   47.8259 H   0  0  0  0  0  0  0  0  0  0  0  0
   46.4256   33.0539   49.6537 H   0  0  0  0  0  0  0  0  0  0  0  0
   46.1168   31.3052   49.5706 H   0  0  0  0  0  0  0  0  0  0  0  0
   48.2570   32.9135   48.2832 H   0  0  0  0  0  0  0  0  0  0  0  0
   48.2357   31.1880   48.5646 H   0  0  0  0  0  0  0  0  0  0  0  0
   47.8655   32.0298   45.9941 H   0  0  0  0  0  0  0  0  0  0  0  0
   45.1986   36.6238   41.9759 H   0  0  0  0  0  0  0  0  0  0  0  0
   44.0416   37.2618   43.1746 H   0  0  0  0  0  0  0  0  0  0  0  0
   43.3323   29.8592   45.4353 H   0  0  0  0  0  0  0  0  0  0  0  0
   45.2495   30.7897   44.6612 H   0  0  0  0  0  0  0  0  0  0  0  0
   46.3819   29.1636   43.5455 H   0  0  0  0  0  0  0  0  0  0  0  0
   46.4033   28.0592   44.9991 H   0  0  0  0  0  0  0  0  0  0  0  0
   42.8431   27.7518   44.5071 H   0  0  0  0  0  0  0  0  0  0  0  0
   44.0296   26.4369   44.8789 H   0  0  0  0  0  0  0  0  0  0  0  0
   45.0870   27.7750   46.5836 H   0  0  0  0  0  0  0  0  0  0  0  0
   43.3447   27.8242   46.9016 H   0  0  0  0  0  0  0  0  0  0  0  0
  1  6  2  0
  2  1  1  0
  3  2  2  0
  3  4  1  0
  4  5  2  0
  5  6  1  0
  5  7  1  0
  7 11  1  0
  7  8  1  0
  8  9  1  0
 10  9  1  0
 11 10  1  0
 12  2  1  0
 13 11  1  0
 14 19  1  0
 15 14  1  0
 15 13  1  0
 16 15  1  0
 17 16  1  0
 17 18  1  0
 18 19  1  0
  1 20  1  0
  3 21  1  0
  8 22  1  0
  8 23  1  0
  9 24  1  0
  9 25  1  0
 10 26  1  0
 10 27  1  0
 11 28  1  6
 12 29  1  0
 12 30  1  0
 14 31  1  0
 15 32  1  6
 16 33  1  0
 16 34  1  0
 18 35  1  0
 18 36  1  0
 19 37  1  0
 19 38  1  0
M  ISO  8  20  14  21  14  22  13  23  13  24  13  25  13  26  13  27  13
M  ISO  8  28  13  31   5  32  13  33  13  34  13  35  13  36  13  37  13
M  ISO  1  38  13
M  END
>  <minimizedAffinity>  (1) 
-5.26241875

>  <minimizedRMSD>  (1) 
1.01863575

$$$$
