
     RDKit          3D

 46 50  0  0  1  0  0  0  0  0999 V2000
   44.5010   35.6040   45.1290 C   0  0  0  0  0  0  0  0  0  0  0  0
   45.1320   35.6240   43.8770 C   0  0  0  0  0  0  0  0  0  0  0  0
   46.0510   34.6540   43.5720 C   0  0  0  0  0  0  0  0  0  0  0  0
   46.2860   33.7210   44.5370 N   0  0  0  0  0  0  0  0  0  0  0  0
   45.6800   33.7130   45.7240 C   0  0  0  0  0  0  0  0  0  0  0  0
   44.7750   34.6510   46.0520 N   0  0  0  0  0  0  0  0  0  0  0  0
   46.0210   32.6810   46.6380 N   0  0  0  0  0  0  0  0  0  0  0  0
   45.2530   32.3740   47.8470 C   0  0  0  0  0  0  0  0  0  0  0  0
   46.3550   32.0170   48.8210 C   0  0  0  0  0  0  0  0  0  0  0  0
   47.6270   31.8890   48.0240 C   0  0  0  0  0  0  0  0  0  0  0  0
   47.1190   31.7540   46.6080 C   0  0  1  0  0  0  0  0  0  0  0  0
   44.7540   36.6860   42.9920 N   0  0  0  0  0  0  0  0  0  0  0  0
   46.6070   30.0490   46.3500 S   0  0  0  0  0  0  0  0  0  0  0  0
   45.3140   29.8710   45.1600 C   0  0  0  0  0  0  0  0  0  0  0  0
   44.3130   28.9550   45.4140 C   0  0  0  0  0  0  0  0  0  0  0  0
   43.2630   28.7680   44.5100 C   0  0  0  0  0  0  0  0  0  0  0  0
   43.1650   29.4760   43.3340 C   0  0  0  0  0  0  0  0  0  0  0  0
   44.1870   30.3700   43.1370 C   0  0  0  0  0  0  0  0  0  0  0  0
   45.2270   30.5940   43.9700 C   0  0  0  0  0  0  0  0  0  0  0  0
   44.1620   31.3400   41.6430 S   0  0  0  0  0  0  0  0  0  0  0  0
   42.7080   30.8600   40.7380 C   0  0  0  0  0  0  0  0  0  0  0  0
   42.4230   31.4500   39.5370 C   0  0  0  0  0  0  0  0  0  0  0  0
   41.3080   31.1170   38.7880 C   0  0  0  0  0  0  0  0  0  0  0  0
   40.4730   30.1500   39.3050 C   0  0  0  0  0  0  0  0  0  0  0  0
   40.7950   29.5810   40.5180 C   0  0  0  0  0  0  0  0  0  0  0  0
   41.8980   29.8940   41.2810 C   0  0  0  0  0  0  0  0  0  0  0  0
   42.0630   29.2080   42.4990 N   0  0  0  0  0  0  0  0  0  0  0  0
   43.7630   36.3838   45.3684 H   0  0  0  0  0  0  0  0  0  0  0  0
   46.5699   34.6300   42.6024 H   0  0  0  0  0  0  0  0  0  0  0  0
   44.6794   33.2472   48.1914 H   0  0  0  0  0  0  0  0  0  0  0  0
   44.5001   31.5835   47.7118 H   0  0  0  0  0  0  0  0  0  0  0  0
   46.4615   32.8090   49.5769 H   0  0  0  0  0  0  0  0  0  0  0  0
   46.1251   31.0774   49.3447 H   0  0  0  0  0  0  0  0  0  0  0  0
   48.2570   32.7838   48.1359 H   0  0  0  0  0  0  0  0  0  0  0  0
   48.2594   31.0474   48.3431 H   0  0  0  0  0  0  0  0  0  0  0  0
   47.8292   31.9669   45.7954 H   0  0  0  0  0  0  0  0  0  0  0  0
   45.1823   36.7550   42.0578 H   0  0  0  0  0  0  0  0  0  0  0  0
   44.0540   37.3803   43.2901 H   0  0  0  0  0  0  0  0  0  0  0  0
   44.3419   28.3636   46.3411 H   0  0  0  0  0  0  0  0  0  0  0  0
   42.4857   28.0268   44.7478 H   0  0  0  0  0  0  0  0  0  0  0  0
   45.9959   31.3375   43.7130 H   0  0  0  0  0  0  0  0  0  0  0  0
   43.1075   32.2199   39.1513 H   0  0  0  0  0  0  0  0  0  0  0  0
   41.0976   31.6022   37.8235 H   0  0  0  0  0  0  0  0  0  0  0  0
   39.5689   29.8391   38.7610 H   0  0  0  0  0  0  0  0  0  0  0  0
   40.1134   28.8117   40.9100 H   0  0  0  0  0  0  0  0  0  0  0  0
   41.3694   28.5015   42.7830 H   0  0  0  0  0  0  0  0  0  0  0  0
  1  6  2  0
  2  1  1  0
  3  2  2  0
  3  4  1  0
  4  5  2  0
  5  6  1  0
  5  7  1  0
  7  8  1  0
  8  9  1  0
 10  9  1  0
 11  7  1  0
 11 10  1  0
 12  2  1  0
 13 11  1  0
 14 15  2  0
 14 13  1  0
 16 15  1  0
 17 16  2  0
 18 17  1  0
 18 19  2  0
 19 14  1  0
 20 18  1  0
 21 26  2  0
 21 20  1  0
 22 21  1  0
 23 24  1  0
 23 22  2  0
 24 25  2  0
 25 26  1  0
 26 27  1  0
 27 17  1  0
  1 28  1  0
  3 29  1  0
  8 30  1  0
  8 31  1  0
  9 32  1  0
  9 33  1  0
 10 34  1  0
 10 35  1  0
 11 36  1  6
 12 37  1  0
 12 38  1  0
 15 39  1  0
 16 40  1  0
 19 41  1  0
 22 42  1  0
 23 43  1  0
 24 44  1  0
 25 45  1  0
 27 46  1  0
M  ISO  8  28  14  29  14  30  13  31  13  32  13  33  13  34  13  35  13
M  ISO  8  36  13  39  14  40  14  41  14  42  14  43  14  44  14  45  14
M  END
>  <minimizedAffinity>  (1) 
-5.89202023

>  <minimizedRMSD>  (1) 
1.73260438

$$$$
