
     RDKit          3D

 33 35  0  0  1  0  0  0  0  0999 V2000
   44.5030   35.5550   45.0960 C   0  0  0  0  0  0  0  0  0  0  0  0
   45.1580   35.5290   43.8620 C   0  0  0  0  0  0  0  0  0  0  0  0
   46.0920   34.5470   43.6110 C   0  0  0  0  0  0  0  0  0  0  0  0
   46.3110   33.6570   44.6110 N   0  0  0  0  0  0  0  0  0  0  0  0
   45.6870   33.6870   45.7790 C   0  0  0  0  0  0  0  0  0  0  0  0
   44.7760   34.6280   46.0500 N   0  0  0  0  0  0  0  0  0  0  0  0
   46.0060   32.7030   46.7440 N   0  0  0  0  0  0  0  0  0  0  0  0
   45.2220   32.4060   47.9420 C   0  0  0  0  0  0  0  0  0  0  0  0
   46.3040   32.1460   48.9740 C   0  0  0  0  0  0  0  0  0  0  0  0
   47.6000   31.9940   48.2100 C   0  0  0  0  0  0  0  0  0  0  0  0
   47.1130   31.7930   46.8000 C   0  0  1  0  0  0  0  0  0  0  0  0
   44.7760   36.5700   42.9510 N   0  0  0  0  0  0  0  0  0  0  0  0
   46.6310   30.0760   46.5820 S   0  0  0  0  0  0  0  0  0  0  0  0
   45.4330   29.8750   45.2750 C   0  0  0  0  0  0  0  0  0  0  0  0
   45.3850   30.4230   44.0110 C   0  0  0  0  0  0  0  0  0  0  0  0
   44.3340   30.0990   43.1800 C   0  0  0  0  0  0  0  0  0  0  0  0
   43.3680   29.2650   43.5810 N   0  0  0  0  0  0  0  0  0  0  0  0
   43.4150   28.7250   44.8240 C   0  0  0  0  0  0  0  0  0  0  0  0
   44.4360   29.0320   45.6490 N   0  0  0  0  0  0  0  0  0  0  0  0
   43.7561   36.3370   45.2974 H   0  0  0  0  0  0  0  0  0  0  0  0
   46.6298   34.4883   42.6532 H   0  0  0  0  0  0  0  0  0  0  0  0
   44.5931   33.2614   48.2298 H   0  0  0  0  0  0  0  0  0  0  0  0
   44.5207   31.5680   47.8154 H   0  0  0  0  0  0  0  0  0  0  0  0
   46.3726   32.9919   49.6738 H   0  0  0  0  0  0  0  0  0  0  0  0
   46.0822   31.2442   49.5636 H   0  0  0  0  0  0  0  0  0  0  0  0
   48.2208   32.8983   48.2929 H   0  0  0  0  0  0  0  0  0  0  0  0
   48.2379   31.1772   48.5786 H   0  0  0  0  0  0  0  0  0  0  0  0
   47.8476   31.9853   46.0042 H   0  0  0  0  0  0  0  0  0  0  0  0
   45.2108   36.6238   42.0188 H   0  0  0  0  0  0  0  0  0  0  0  0
   44.0670   37.2634   43.2293 H   0  0  0  0  0  0  0  0  0  0  0  0
   46.1743   31.1092   43.6703 H   0  0  0  0  0  0  0  0  0  0  0  0
   44.2889   30.5334   42.1704 H   0  0  0  0  0  0  0  0  0  0  0  0
   42.6228   28.0388   45.1580 H   0  0  0  0  0  0  0  0  0  0  0  0
  1  6  2  0
  2  1  1  0
  3  2  2  0
  3  4  1  0
  4  5  2  0
  5  6  1  0
  5  7  1  0
  7 11  1  0
  7  8  1  0
  8  9  1  0
 10  9  1  0
 11 10  1  0
 12  2  1  0
 13 11  1  0
 14 19  1  0
 14 13  1  0
 15 14  2  0
 16 17  2  0
 16 15  1  0
 17 18  1  0
 18 19  2  0
  1 20  1  0
  3 21  1  0
  8 22  1  0
  8 23  1  0
  9 24  1  0
  9 25  1  0
 10 26  1  0
 10 27  1  0
 11 28  1  6
 12 29  1  0
 12 30  1  0
 15 31  1  0
 16 32  1  0
 18 33  1  0
M  ISO  8  20  14  21  14  22  13  23  13  24  13  25  13  26  13  27  13
M  ISO  4  28  13  31  14  32  14  33  14
M  END
>  <minimizedAffinity>  (1) 
-5.13118505

>  <minimizedRMSD>  (1) 
0.704774082

$$$$
