
     RDKit          3D

 36 38  0  0  1  0  0  0  0  0999 V2000
   44.5060   35.5370   45.1210 C   0  0  0  0  0  0  0  0  0  0  0  0
   45.1630   35.5080   43.8760 C   0  0  0  0  0  0  0  0  0  0  0  0
   46.0910   34.5410   43.6350 C   0  0  0  0  0  0  0  0  0  0  0  0
   46.3270   33.6500   44.6310 N   0  0  0  0  0  0  0  0  0  0  0  0
   45.6960   33.6880   45.8100 C   0  0  0  0  0  0  0  0  0  0  0  0
   44.7900   34.6230   46.0610 N   0  0  0  0  0  0  0  0  0  0  0  0
   46.0340   32.6940   46.7690 N   0  0  0  0  0  0  0  0  0  0  0  0
   45.2400   32.4120   47.9700 C   0  0  0  0  0  0  0  0  0  0  0  0
   46.3180   32.1370   48.9950 C   0  0  0  0  0  0  0  0  0  0  0  0
   47.6070   31.9940   48.2470 C   0  0  0  0  0  0  0  0  0  0  0  0
   47.1460   31.7810   46.8110 C   0  0  1  0  0  0  0  0  0  0  0  0
   44.7930   36.5240   42.9290 N   0  0  0  0  0  0  0  0  0  0  0  0
   46.6560   30.0780   46.6220 S   0  0  0  0  0  0  0  0  0  0  0  0
   45.6000   30.5170   43.4800 O   0  0  0  0  0  0  0  0  0  0  0  0
   44.9810   29.9810   44.4320 C   0  0  0  0  0  0  0  0  0  0  0  0
   45.0890   29.7680   45.8880 C   0  0  1  0  0  0  0  0  0  0  0  0
   44.5190   28.3870   46.0490 C   0  0  0  0  0  0  0  0  0  0  0  0
   43.2060   28.5870   45.2740 C   0  0  0  0  0  0  0  0  0  0  0  0
   43.7340   29.3220   44.1200 N   0  0  0  0  0  0  0  0  0  0  0  0
   43.7548   36.3144   45.3242 H   0  0  0  0  0  0  0  0  0  0  0  0
   46.6257   34.4846   42.6754 H   0  0  0  0  0  0  0  0  0  0  0  0
   44.6260   33.2784   48.2569 H   0  0  0  0  0  0  0  0  0  0  0  0
   44.5218   31.5880   47.8463 H   0  0  0  0  0  0  0  0  0  0  0  0
   46.3849   32.9732   49.7065 H   0  0  0  0  0  0  0  0  0  0  0  0
   46.0926   31.2246   49.5666 H   0  0  0  0  0  0  0  0  0  0  0  0
   48.2187   32.9039   48.3353 H   0  0  0  0  0  0  0  0  0  0  0  0
   48.2402   31.1780   48.6253 H   0  0  0  0  0  0  0  0  0  0  0  0
   47.8818   31.9603   46.0132 H   0  0  0  0  0  0  0  0  0  0  0  0
   45.2410   36.5516   42.0019 H   0  0  0  0  0  0  0  0  0  0  0  0
   44.0799   37.2244   43.1774 H   0  0  0  0  0  0  0  0  0  0  0  0
   44.5368   30.5209   46.4695 H   0  0  0  0  0  0  0  0  0  0  0  0
   45.1583   27.6191   45.5890 H   0  0  0  0  0  0  0  0  0  0  0  0
   44.4116   28.0337   47.0852 H   0  0  0  0  0  0  0  0  0  0  0  0
   42.7498   27.6300   44.9806 H   0  0  0  0  0  0  0  0  0  0  0  0
   42.4000   29.0901   45.8283 H   0  0  0  0  0  0  0  0  0  0  0  0
   43.2724   29.3633   43.2001 H   0  0  0  0  0  0  0  0  0  0  0  0
  1  6  2  0
  2  1  1  0
  3  2  2  0
  3  4  1  0
  4  5  2  0
  5  6  1  0
  5  7  1  0
  7 11  1  0
  7  8  1  0
  8  9  1  0
 10  9  1  0
 11 10  1  0
 12  2  1  0
 13 11  1  0
 14 15  2  0
 15 16  1  0
 16 17  1  0
 16 13  1  0
 18 17  1  0
 19 15  1  0
 19 18  1  0
  1 20  1  0
  3 21  1  0
  8 22  1  0
  8 23  1  0
  9 24  1  0
  9 25  1  0
 10 26  1  0
 10 27  1  0
 11 28  1  6
 12 29  1  0
 12 30  1  0
 16 31  1  1
 17 32  1  0
 17 33  1  0
 18 34  1  0
 18 35  1  0
 19 36  1  0
M  ISO  8  20  14  21  14  22  13  23  13  24  13  25  13  26  13  27  13
M  ISO  7  28  13  31  13  32  13  33  13  34  13  35  13  36  10
M  END
>  <minimizedAffinity>  (1) 
-5.2104516

>  <minimizedRMSD>  (1) 
1.16570771

$$$$
