
     RDKit          3D

 32 34  0  0  1  0  0  0  0  0999 V2000
   47.1820   34.5520   42.0110 C   0  0  1  0  0  0  0  0  0  0  0  0
   48.2970   35.4410   41.7010 C   0  0  0  0  0  0  0  0  0  0  0  0
   48.5930   34.1140   42.3260 C   0  0  2  0  0  0  0  0  0  0  0  0
   45.5010   36.0360   43.1700 C   0  0  0  0  0  0  0  0  0  0  0  0
   46.2690   34.8420   43.1450 C   0  0  0  0  0  0  0  0  0  0  0  0
   46.1460   33.9670   44.2220 C   0  0  0  0  0  0  0  0  0  0  0  0
   45.2970   34.3050   45.2360 N   0  0  0  0  0  0  0  0  0  0  0  0
   44.5780   35.4540   45.2260 C   0  0  0  0  0  0  0  0  0  0  0  0
   44.6720   36.3300   44.1950 N   0  0  0  0  0  0  0  0  0  0  0  0
   49.3130   33.2050   41.4980 N   0  0  0  0  0  0  0  0  0  0  0  0
   50.6620   33.1220   42.0410 C   0  0  0  0  0  0  0  0  0  0  0  0
   51.3310   31.8140   41.7520 C   0  0  0  0  0  0  0  0  0  0  0  0
   50.6180   30.7380   42.5540 C   0  0  0  0  0  0  0  0  0  0  0  0
   49.1330   30.9820   42.5690 C   0  0  0  0  0  0  0  0  0  0  0  0
   48.7560   31.8770   41.4100 C   0  0  0  0  0  0  0  0  0  0  0  0
   46.3428   34.1533   41.4221 H   0  0  0  0  0  0  0  0  0  0  0  0
   48.5737   35.6244   40.6523 H   0  0  0  0  0  0  0  0  0  0  0  0
   48.5436   36.4826   41.9543 H   0  0  0  0  0  0  0  0  0  0  0  0
   49.0641   33.7089   43.2337 H   0  0  0  0  0  0  0  0  0  0  0  0
   45.5835   36.7419   42.3304 H   0  0  0  0  0  0  0  0  0  0  0  0
   46.7182   33.0281   44.2544 H   0  0  0  0  0  0  0  0  0  0  0  0
   43.9072   35.6796   46.0681 H   0  0  0  0  0  0  0  0  0  0  0  0
   51.2666   33.9292   41.6019 H   0  0  0  0  0  0  0  0  0  0  0  0
   50.5824   33.2157   43.1341 H   0  0  0  0  0  0  0  0  0  0  0  0
   51.2611   31.5876   40.6778 H   0  0  0  0  0  0  0  0  0  0  0  0
   52.3945   31.8577   42.0297 H   0  0  0  0  0  0  0  0  0  0  0  0
   50.8181   29.7565   42.0994 H   0  0  0  0  0  0  0  0  0  0  0  0
   50.9909   30.7625   43.5886 H   0  0  0  0  0  0  0  0  0  0  0  0
   48.6031   30.0223   42.4783 H   0  0  0  0  0  0  0  0  0  0  0  0
   48.8516   31.4692   43.5143 H   0  0  0  0  0  0  0  0  0  0  0  0
   47.6597   31.9615   41.3787 H   0  0  0  0  0  0  0  0  0  0  0  0
   49.1673   31.4154   40.5002 H   0  0  0  0  0  0  0  0  0  0  0  0
  1  3  1  0
  1  5  1  0
  2  1  1  0
  2  3  1  0
  4  9  2  0
  5  4  1  0
  5  6  2  0
  6  7  1  0
  8  7  2  0
  9  8  1  0
 10 11  1  0
 10  3  1  0
 12 11  1  0
 12 13  1  0
 13 14  1  0
 15 10  1  0
 15 14  1  0
  1 16  1  6
  2 17  1  0
  2 18  1  0
  3 19  1  1
  4 20  1  0
  6 21  1  0
  8 22  1  0
 11 23  1  0
 11 24  1  0
 12 25  1  0
 12 26  1  0
 13 27  1  0
 13 28  1  0
 14 29  1  0
 14 30  1  0
 15 31  1  0
 15 32  1  0
M  ISO  8  16  13  17  13  18  13  19  13  20  14  21  14  22  14  23  13
M  ISO  8  24  13  25  13  26  13  27  13  28  13  29  13  30  13  31  13
M  ISO  1  32  13
M  END
>  <minimizedAffinity>  (1) 
-4.49075079

>  <minimizedRMSD>  (1) 
1.7945677

$$$$
