
     RDKit          3D

 45 48  0  0  1  0  0  0  0  0999 V2000
   44.5110   35.5190   45.1400 C   0  0  0  0  0  0  0  0  0  0  0  0
   45.1700   35.5090   43.8860 C   0  0  0  0  0  0  0  0  0  0  0  0
   46.0900   34.5490   43.6260 C   0  0  0  0  0  0  0  0  0  0  0  0
   46.3260   33.6410   44.6060 N   0  0  0  0  0  0  0  0  0  0  0  0
   45.7070   33.6550   45.7790 C   0  0  0  0  0  0  0  0  0  0  0  0
   44.7970   34.5860   46.0600 N   0  0  0  0  0  0  0  0  0  0  0  0
   46.0410   32.6420   46.7430 N   0  0  0  0  0  0  0  0  0  0  0  0
   45.3040   32.3930   47.9300 C   0  0  0  0  0  0  0  0  0  0  0  0
   46.3800   32.0430   48.9410 C   0  0  0  0  0  0  0  0  0  0  0  0
   47.6600   31.9390   48.1700 C   0  0  0  0  0  0  0  0  0  0  0  0
   47.1590   31.7300   46.7430 C   0  0  1  0  0  0  0  0  0  0  0  0
   44.8030   36.5470   42.9570 N   0  0  0  0  0  0  0  0  0  0  0  0
   46.6440   30.0410   46.5550 S   0  0  0  0  0  0  0  0  0  0  0  0
   45.6500   30.5810   43.4210 O   0  0  0  0  0  0  0  0  0  0  0  0
   45.0190   30.0120   44.3240 C   0  0  0  0  0  0  0  0  0  0  0  0
   45.1020   29.7590   45.7840 C   0  0  1  0  0  0  0  0  0  0  0  0
   44.5810   28.3470   45.8830 C   0  0  0  0  0  0  0  0  0  0  0  0
   43.2690   28.5670   45.1260 C   0  0  0  0  0  0  0  0  0  0  0  0
   43.7860   29.3380   44.0000 N   0  0  0  0  0  0  0  0  0  0  0  0
   43.0060   29.2950   42.8000 C   0  0  0  0  0  0  0  0  0  0  0  0
   41.7870   29.9570   42.9740 C   0  0  0  0  0  0  0  0  0  0  0  0
   40.8790   30.0270   41.9140 C   0  0  0  0  0  0  0  0  0  0  0  0
   41.1840   29.4420   40.6900 C   0  0  0  0  0  0  0  0  0  0  0  0
   42.4130   28.8110   40.6130 C   0  0  0  0  0  0  0  0  0  0  0  0
   43.2930   28.7400   41.6310 N   0  0  0  0  0  0  0  0  0  0  0  0
   43.7624   36.2944   45.3598 H   0  0  0  0  0  0  0  0  0  0  0  0
   46.6216   34.5077   42.6638 H   0  0  0  0  0  0  0  0  0  0  0  0
   44.7457   33.2878   48.2424 H   0  0  0  0  0  0  0  0  0  0  0  0
   44.5505   31.6005   47.8110 H   0  0  0  0  0  0  0  0  0  0  0  0
   46.4574   32.8316   49.7039 H   0  0  0  0  0  0  0  0  0  0  0  0
   46.1489   31.1027   49.4629 H   0  0  0  0  0  0  0  0  0  0  0  0
   48.2525   32.8620   48.2538 H   0  0  0  0  0  0  0  0  0  0  0  0
   48.3269   31.1399   48.5260 H   0  0  0  0  0  0  0  0  0  0  0  0
   47.8802   31.9083   45.9318 H   0  0  0  0  0  0  0  0  0  0  0  0
   45.2494   36.5896   42.0297 H   0  0  0  0  0  0  0  0  0  0  0  0
   44.0942   37.2465   43.2200 H   0  0  0  0  0  0  0  0  0  0  0  0
   44.5188   30.4912   46.3617 H   0  0  0  0  0  0  0  0  0  0  0  0
   45.2381   27.6217   45.3808 H   0  0  0  0  0  0  0  0  0  0  0  0
   44.4957   27.9279   46.8964 H   0  0  0  0  0  0  0  0  0  0  0  0
   42.8143   27.6188   44.8033 H   0  0  0  0  0  0  0  0  0  0  0  0
   42.4643   29.0484   45.7011 H   0  0  0  0  0  0  0  0  0  0  0  0
   41.5436   30.4209   43.9413 H   0  0  0  0  0  0  0  0  0  0  0  0
   39.9191   30.5470   42.0485 H   0  0  0  0  0  0  0  0  0  0  0  0
   40.4914   29.4786   39.8362 H   0  0  0  0  0  0  0  0  0  0  0  0
   42.6894   28.3369   39.6597 H   0  0  0  0  0  0  0  0  0  0  0  0
  1  6  2  0
  2  1  1  0
  3  2  2  0
  3  4  1  0
  4  5  2  0
  5  6  1  0
  5  7  1  0
  7 11  1  0
  7  8  1  0
  8  9  1  0
 10  9  1  0
 11 10  1  0
 12  2  1  0
 13 11  1  0
 14 15  2  0
 15 16  1  0
 16 17  1  0
 16 13  1  0
 18 17  1  0
 19 15  1  0
 19 18  1  0
 20 21  2  0
 20 19  1  0
 22 21  1  0
 23 22  2  0
 24 23  1  0
 24 25  2  0
 25 20  1  0
  1 26  1  0
  3 27  1  0
  8 28  1  0
  8 29  1  0
  9 30  1  0
  9 31  1  0
 10 32  1  0
 10 33  1  0
 11 34  1  6
 12 35  1  0
 12 36  1  0
 16 37  1  1
 17 38  1  0
 17 39  1  0
 18 40  1  0
 18 41  1  0
 21 42  1  0
 22 43  1  0
 23 44  1  0
 24 45  1  0
M  ISO  8  26  14  27  14  28  13  29  13  30  13  31  13  32  13  33  13
M  ISO  8  34  13  37  13  38  13  39  13  40  13  41  13  42  14  43  14
M  ISO  2  44  14  45  14
M  END
>  <minimizedAffinity>  (1) 
-5.32394028

>  <minimizedRMSD>  (1) 
0.227442801

$$$$
