
     RDKit          3D

 25 26  0  0  1  0  0  0  0  0999 V2000
   48.2680   34.5910   42.0000 C   0  0  1  0  0  0  0  0  0  0  0  0
   49.0760   35.7830   41.7480 C   0  0  0  0  0  0  0  0  0  0  0  0
   49.6420   34.6960   42.6080 C   0  0  2  0  0  0  0  0  0  0  0  0
   46.1000   35.6610   42.7430 C   0  0  0  0  0  0  0  0  0  0  0  0
   47.0890   34.6600   42.9270 C   0  0  0  0  0  0  0  0  0  0  0  0
   46.9540   33.7600   43.9830 C   0  0  0  0  0  0  0  0  0  0  0  0
   45.8670   33.8910   44.7910 N   0  0  0  0  0  0  0  0  0  0  0  0
   44.9360   34.8590   44.5920 C   0  0  0  0  0  0  0  0  0  0  0  0
   45.0440   35.7370   43.5800 N   0  0  0  0  0  0  0  0  0  0  0  0
   50.7340   33.8950   42.2150 N   0  0  0  0  0  0  0  0  0  0  0  0
   50.3910   32.2880   41.7780 S   0  0  0  0  0  0  0  0  0  0  0  0
   51.7260   31.5520   41.8140 O   0  0  0  0  0  0  0  0  0  0  0  0
   49.9080   32.1750   40.3630 O   0  0  0  0  0  0  0  0  0  0  0  0
   49.4290   31.4890   42.8630 O   0  0  0  0  0  0  0  0  0  0  0  0
   47.7457   33.8756   41.3478 H   0  0  0  0  0  0  0  0  0  0  0  0
   49.4923   35.9593   40.7452 H   0  0  0  0  0  0  0  0  0  0  0  0
   48.9166   36.8637   41.8770 H   0  0  0  0  0  0  0  0  0  0  0  0
   50.0588   34.6247   43.6235 H   0  0  0  0  0  0  0  0  0  0  0  0
   46.1945   36.3782   41.9144 H   0  0  0  0  0  0  0  0  0  0  0  0
   47.7005   32.9711   44.1571 H   0  0  0  0  0  0  0  0  0  0  0  0
   44.0751   34.9262   45.2734 H   0  0  0  0  0  0  0  0  0  0  0  0
   51.1779   34.3499   41.4045 H   0  0  0  0  0  0  0  0  0  0  0  0
   51.9956   31.4034   42.7549 H   0  0  0  0  0  0  0  0  0  0  0  0
   48.9440   31.9495   40.3604 H   0  0  0  0  0  0  0  0  0  0  0  0
   49.7078   31.7206   43.7843 H   0  0  0  0  0  0  0  0  0  0  0  0
  1  3  1  0
  1  5  1  0
  2  1  1  0
  2  3  1  0
  4  5  2  0
  4  9  1  0
  5  6  1  0
  6  7  2  0
  8  7  1  0
  9  8  2  0
 10  3  1  0
 11 12  1  0
 11 10  1  0
 11 14  1  0
 13 11  1  0
  1 15  1  6
  2 16  1  0
  2 17  1  0
  3 18  1  1
  4 19  1  0
  6 20  1  0
  8 21  1  0
 10 22  1  0
 12 23  1  0
 13 24  1  0
 14 25  1  0
M  ISO  8  15  13  16  13  17  13  18  13  19  14  20  14  21  14  22   5
M  ISO  3  23   3  24   3  25   3
M  END
>  <minimizedAffinity>  (1) 
-4.28462553

>  <minimizedRMSD>  (1) 
0.652251661

$$$$
