
     RDKit          3D

 48 52  0  0  1  0  0  0  0  0999 V2000
   49.6100   33.4510   41.4850 N   0  0  0  0  0  0  0  0  0  0  0  0
   50.6980   32.9870   42.2700 C   0  0  0  0  0  0  0  0  0  0  0  0
   51.2140   31.6340   41.9620 C   0  0  0  0  0  0  0  0  0  0  0  0
   50.1390   30.6120   42.1830 C   0  0  0  0  0  0  0  0  0  0  0  0
   48.8070   31.1670   41.7820 C   0  0  0  0  0  0  0  0  0  0  0  0
   48.8830   32.3410   40.9030 C   0  0  2  0  0  0  0  0  0  0  0  0
   49.1140   32.1540   39.4650 C   0  0  0  0  0  0  0  0  0  0  0  0
   50.2760   31.7560   38.8300 C   0  0  0  0  0  0  0  0  0  0  0  0
   50.4680   31.6050   37.4980 C   0  0  0  0  0  0  0  0  0  0  0  0
   49.4360   31.8610   36.6480 C   0  0  0  0  0  0  0  0  0  0  0  0
   48.2290   32.2650   37.1780 C   0  0  0  0  0  0  0  0  0  0  0  0
   47.2240   32.5120   36.2690 C   0  0  0  0  0  0  0  0  0  0  0  0
   45.9920   32.9210   36.7250 C   0  0  0  0  0  0  0  0  0  0  0  0
   45.7870   33.0780   38.0780 C   0  0  0  0  0  0  0  0  0  0  0  0
   46.8360   32.8130   38.9310 C   0  0  0  0  0  0  0  0  0  0  0  0
   48.0920   32.4020   38.5440 C   0  0  0  0  0  0  0  0  0  0  0  0
   47.3880   34.6760   41.9600 C   0  0  1  0  0  0  0  0  0  0  0  0
   48.4420   35.6280   41.6860 C   0  0  0  0  0  0  0  0  0  0  0  0
   48.8260   34.3250   42.3150 C   0  0  2  0  0  0  0  0  0  0  0  0
   45.5890   36.0040   43.1220 C   0  0  0  0  0  0  0  0  0  0  0  0
   46.4260   34.8680   43.0860 C   0  0  0  0  0  0  0  0  0  0  0  0
   46.3240   33.9580   44.1210 C   0  0  0  0  0  0  0  0  0  0  0  0
   45.4180   34.2200   45.1050 N   0  0  0  0  0  0  0  0  0  0  0  0
   44.6290   35.3100   45.1160 C   0  0  0  0  0  0  0  0  0  0  0  0
   44.7040   36.2170   44.1240 N   0  0  0  0  0  0  0  0  0  0  0  0
   51.5281   33.6971   42.1410 H   0  0  0  0  0  0  0  0  0  0  0  0
   50.3049   32.9187   43.2951 H   0  0  0  0  0  0  0  0  0  0  0  0
   52.0682   31.4118   42.6185 H   0  0  0  0  0  0  0  0  0  0  0  0
   51.5331   31.6003   40.9098 H   0  0  0  0  0  0  0  0  0  0  0  0
   50.3571   29.7189   41.5791 H   0  0  0  0  0  0  0  0  0  0  0  0
   50.1105   30.3463   43.2500 H   0  0  0  0  0  0  0  0  0  0  0  0
   48.2489   30.3782   41.2563 H   0  0  0  0  0  0  0  0  0  0  0  0
   48.3109   31.4966   42.7068 H   0  0  0  0  0  0  0  0  0  0  0  0
   47.8202   32.6222   40.8664 H   0  0  0  0  0  0  0  0  0  0  0  0
   51.1384   31.5383   39.4773 H   0  0  0  0  0  0  0  0  0  0  0  0
   51.4440   31.2801   37.1084 H   0  0  0  0  0  0  0  0  0  0  0  0
   49.5624   31.7479   35.5612 H   0  0  0  0  0  0  0  0  0  0  0  0
   47.4042   32.3838   35.1915 H   0  0  0  0  0  0  0  0  0  0  0  0
   45.1767   33.1212   36.0142 H   0  0  0  0  0  0  0  0  0  0  0  0
   44.8118   33.4062   38.4671 H   0  0  0  0  0  0  0  0  0  0  0  0
   46.6556   32.9401   40.0086 H   0  0  0  0  0  0  0  0  0  0  0  0
   46.5885   34.2440   41.3402 H   0  0  0  0  0  0  0  0  0  0  0  0
   48.7305   35.8350   40.6449 H   0  0  0  0  0  0  0  0  0  0  0  0
   48.6072   36.6827   41.9511 H   0  0  0  0  0  0  0  0  0  0  0  0
   49.3138   33.9583   43.2302 H   0  0  0  0  0  0  0  0  0  0  0  0
   45.6582   36.7411   42.3084 H   0  0  0  0  0  0  0  0  0  0  0  0
   46.9513   33.0549   44.1497 H   0  0  0  0  0  0  0  0  0  0  0  0
   43.9177   35.4610   45.9414 H   0  0  0  0  0  0  0  0  0  0  0  0
  1  2  1  0
  1 19  1  0
  3  4  1  0
  3  2  1  0
  5  4  1  0
  6  1  1  0
  6  5  1  0
  7  6  1  0
  8  7  2  0
  9  8  1  0
 10 11  1  0
 10  9  2  0
 11 16  2  0
 12 13  2  0
 12 11  1  0
 13 14  1  0
 14 15  2  0
 16 15  1  0
 16  7  1  0
 17 19  1  0
 17 21  1  0
 18 17  1  0
 18 19  1  0
 20 25  2  0
 21 20  1  0
 21 22  2  0
 22 23  1  0
 23 24  2  0
 25 24  1  0
  2 26  1  0
  2 27  1  0
  3 28  1  0
  3 29  1  0
  4 30  1  0
  4 31  1  0
  5 32  1  0
  5 33  1  0
  6 34  1  6
  8 35  1  0
  9 36  1  0
 10 37  1  0
 12 38  1  0
 13 39  1  0
 14 40  1  0
 15 41  1  0
 17 42  1  6
 18 43  1  0
 18 44  1  0
 19 45  1  1
 20 46  1  0
 22 47  1  0
 24 48  1  0
M  ISO  8  26  13  27  13  28  13  29  13  30  13  31  13  32  13  33  13
M  ISO  8  34  13  35  14  36  14  37  14  38  14  39  14  40  14  41  14
M  ISO  7  42  13  43  13  44  13  45  13  46  14  47  14  48  14
M  END
>  <minimizedAffinity>  (1) 
-5.80043411

>  <minimizedRMSD>  (1) 
2.32677364

$$$$
