
     RDKit          3D

 47 51  0  0  1  0  0  0  0  0999 V2000
   49.4630   33.4610   41.2580 N   0  0  0  0  0  0  0  0  0  0  0  0
   50.5910   32.9200   41.9750 C   0  0  0  0  0  0  0  0  0  0  0  0
   51.0640   31.5920   41.5060 C   0  0  0  0  0  0  0  0  0  0  0  0
   49.9880   30.5560   41.7250 C   0  0  0  0  0  0  0  0  0  0  0  0
   48.6350   31.1470   41.5540 C   0  0  0  0  0  0  0  0  0  0  0  0
   48.6790   32.3770   40.7230 C   0  0  2  0  0  0  0  0  0  0  0  0
   48.6880   32.2310   39.2720 C   0  0  0  0  0  0  0  0  0  0  0  0
   49.7290   31.9730   38.4040 C   0  0  0  0  0  0  0  0  0  0  0  0
   49.6230   31.8340   37.0380 C   0  0  0  0  0  0  0  0  0  0  0  0
   48.3800   31.9580   36.4570 C   0  0  0  0  0  0  0  0  0  0  0  0
   48.2170   31.8310   35.1320 N   0  0  0  0  0  0  0  0  0  0  0  0
   46.9980   31.9510   34.5380 C   0  0  0  0  0  0  0  0  0  0  0  0
   45.8800   32.2100   35.3070 C   0  0  0  0  0  0  0  0  0  0  0  0
   46.0300   32.3430   36.6720 C   0  0  0  0  0  0  0  0  0  0  0  0
   47.2790   32.2170   37.2470 C   0  0  0  0  0  0  0  0  0  0  0  0
   47.4790   32.3410   38.6070 C   0  0  0  0  0  0  0  0  0  0  0  0
   47.3450   34.7810   41.9110 C   0  0  1  0  0  0  0  0  0  0  0  0
   48.4720   35.6720   41.7290 C   0  0  0  0  0  0  0  0  0  0  0  0
   48.7510   34.2810   42.2090 C   0  0  2  0  0  0  0  0  0  0  0  0
   45.5430   36.0500   43.1460 C   0  0  0  0  0  0  0  0  0  0  0  0
   46.4040   34.9280   43.0530 C   0  0  0  0  0  0  0  0  0  0  0  0
   46.3360   33.9860   44.0600 C   0  0  0  0  0  0  0  0  0  0  0  0
   45.4460   34.1950   45.0750 N   0  0  0  0  0  0  0  0  0  0  0  0
   44.6400   35.2740   45.1330 C   0  0  0  0  0  0  0  0  0  0  0  0
   44.6800   36.2140   44.1710 N   0  0  0  0  0  0  0  0  0  0  0  0
   51.4256   33.6304   41.8814 H   0  0  0  0  0  0  0  0  0  0  0  0
   50.2510   32.7733   43.0108 H   0  0  0  0  0  0  0  0  0  0  0  0
   51.9651   31.3064   42.0685 H   0  0  0  0  0  0  0  0  0  0  0  0
   51.2980   31.6495   40.4327 H   0  0  0  0  0  0  0  0  0  0  0  0
   50.1193   29.7419   40.9970 H   0  0  0  0  0  0  0  0  0  0  0  0
   50.0751   30.1729   42.7524 H   0  0  0  0  0  0  0  0  0  0  0  0
   47.9818   30.4089   41.0656 H   0  0  0  0  0  0  0  0  0  0  0  0
   48.2479   31.4159   42.5479 H   0  0  0  0  0  0  0  0  0  0  0  0
   47.6439   32.7269   40.8504 H   0  0  0  0  0  0  0  0  0  0  0  0
   50.7327   31.8691   38.8420 H   0  0  0  0  0  0  0  0  0  0  0  0
   50.5120   31.6283   36.4238 H   0  0  0  0  0  0  0  0  0  0  0  0
   46.9034   31.8419   33.4475 H   0  0  0  0  0  0  0  0  0  0  0  0
   44.8890   32.3083   34.8399 H   0  0  0  0  0  0  0  0  0  0  0  0
   45.1532   32.5497   37.3032 H   0  0  0  0  0  0  0  0  0  0  0  0
   46.5910   32.5474   39.2225 H   0  0  0  0  0  0  0  0  0  0  0  0
   46.5121   34.4807   41.2582 H   0  0  0  0  0  0  0  0  0  0  0  0
   48.7732   35.9675   40.7131 H   0  0  0  0  0  0  0  0  0  0  0  0
   48.7222   36.6752   42.1045 H   0  0  0  0  0  0  0  0  0  0  0  0
   49.2048   33.7740   43.0733 H   0  0  0  0  0  0  0  0  0  0  0  0
   45.5793   36.8139   42.3553 H   0  0  0  0  0  0  0  0  0  0  0  0
   46.9793   33.0938   44.0454 H   0  0  0  0  0  0  0  0  0  0  0  0
   43.9422   35.3872   45.9757 H   0  0  0  0  0  0  0  0  0  0  0  0
  1  2  1  0
  1 19  1  0
  3  4  1  0
  3  2  1  0
  5  4  1  0
  6  1  1  0
  6  5  1  0
  7  6  1  0
  8  7  2  0
  9  8  1  0
 10  9  2  0
 10 15  1  0
 11 10  1  0
 12 11  2  0
 12 13  1  0
 13 14  2  0
 14 15  1  0
 15 16  2  0
 16  7  1  0
 17 19  1  0
 17 21  1  0
 18 17  1  0
 18 19  1  0
 20 25  2  0
 21 20  1  0
 21 22  2  0
 22 23  1  0
 23 24  2  0
 25 24  1  0
  2 26  1  0
  2 27  1  0
  3 28  1  0
  3 29  1  0
  4 30  1  0
  4 31  1  0
  5 32  1  0
  5 33  1  0
  6 34  1  6
  8 35  1  0
  9 36  1  0
 12 37  1  0
 13 38  1  0
 14 39  1  0
 16 40  1  0
 17 41  1  6
 18 42  1  0
 18 43  1  0
 19 44  1  1
 20 45  1  0
 22 46  1  0
 24 47  1  0
M  ISO  8  26  13  27  13  28  13  29  13  30  13  31  13  32  13  33  13
M  ISO  8  34  13  35  14  36  14  37  14  38  14  39  14  40  14  41  13
M  ISO  6  42  13  43  13  44  13  45  14  46  14  47  14
M  END
>  <minimizedAffinity>  (1) 
-5.69657087

>  <minimizedRMSD>  (1) 
1.57849205

$$$$
