
     RDKit          3D

 44 47  0  0  1  0  0  0  0  0999 V2000
   49.3350   33.2420   41.4580 N   0  0  0  0  0  0  0  0  0  0  0  0
   50.6550   33.1310   42.0390 C   0  0  0  0  0  0  0  0  0  0  0  0
   51.3340   31.8280   41.8280 C   0  0  0  0  0  0  0  0  0  0  0  0
   50.5650   30.7470   42.5260 C   0  0  0  0  0  0  0  0  0  0  0  0
   49.0910   30.9900   42.4350 C   0  0  0  0  0  0  0  0  0  0  0  0
   48.7520   31.9330   41.3410 C   0  0  2  0  0  0  0  0  0  0  0  0
   47.1840   34.5660   41.9880 C   0  0  1  0  0  0  0  0  0  0  0  0
   48.3060   35.4810   41.7110 C   0  0  0  0  0  0  0  0  0  0  0  0
   48.5860   34.1360   42.2760 C   0  0  2  0  0  0  0  0  0  0  0  0
   45.5040   36.0340   43.1650 C   0  0  0  0  0  0  0  0  0  0  0  0
   46.2760   34.8540   43.1370 C   0  0  0  0  0  0  0  0  0  0  0  0
   46.1630   33.9630   44.2160 C   0  0  0  0  0  0  0  0  0  0  0  0
   45.3130   34.2850   45.2290 N   0  0  0  0  0  0  0  0  0  0  0  0
   44.5860   35.4280   45.2220 C   0  0  0  0  0  0  0  0  0  0  0  0
   44.6780   36.3090   44.1880 N   0  0  0  0  0  0  0  0  0  0  0  0
   49.9280   31.7410   39.0900 C   0  0  1  0  0  0  0  0  0  0  0  0
   48.7540   31.4190   39.9430 C   0  0  1  0  0  0  0  0  0  0  0  0
   48.8740   29.8850   39.9650 C   0  0  0  0  0  0  0  0  0  0  0  0
   49.2770   29.5200   38.6980 O   0  0  0  0  0  0  0  0  0  0  0  0
   49.8010   30.6170   38.0480 C   0  0  0  0  0  0  0  0  0  0  0  0
   49.7860   32.9070   38.3470 O   0  0  0  0  0  0  0  0  0  0  0  0
   51.2863   33.9180   41.6008 H   0  0  0  0  0  0  0  0  0  0  0  0
   50.5179   33.2298   43.1259 H   0  0  0  0  0  0  0  0  0  0  0  0
   51.3805   31.6085   40.7511 H   0  0  0  0  0  0  0  0  0  0  0  0
   52.3544   31.8751   42.2361 H   0  0  0  0  0  0  0  0  0  0  0  0
   50.7993   29.7797   42.0576 H   0  0  0  0  0  0  0  0  0  0  0  0
   50.8536   30.7424   43.5875 H   0  0  0  0  0  0  0  0  0  0  0  0
   48.5835   30.0320   42.2487 H   0  0  0  0  0  0  0  0  0  0  0  0
   48.7599   31.4362   43.3844 H   0  0  0  0  0  0  0  0  0  0  0  0
   47.6774   32.0518   41.5436 H   0  0  0  0  0  0  0  0  0  0  0  0
   46.3493   34.1636   41.3953 H   0  0  0  0  0  0  0  0  0  0  0  0
   48.5846   35.7077   40.6713 H   0  0  0  0  0  0  0  0  0  0  0  0
   48.5552   36.5112   42.0052 H   0  0  0  0  0  0  0  0  0  0  0  0
   49.0537   33.6958   43.1690 H   0  0  0  0  0  0  0  0  0  0  0  0
   45.5801   36.7457   42.3297 H   0  0  0  0  0  0  0  0  0  0  0  0
   46.7455   33.0302   44.2420 H   0  0  0  0  0  0  0  0  0  0  0  0
   43.9121   35.6474   46.0632 H   0  0  0  0  0  0  0  0  0  0  0  0
   50.8442   31.8431   39.6901 H   0  0  0  0  0  0  0  0  0  0  0  0
   47.8385   31.8788   39.5425 H   0  0  0  0  0  0  0  0  0  0  0  0
   49.6200   29.5701   40.7095 H   0  0  0  0  0  0  0  0  0  0  0  0
   47.9209   29.4089   40.2388 H   0  0  0  0  0  0  0  0  0  0  0  0
   50.7902   30.3731   37.6334 H   0  0  0  0  0  0  0  0  0  0  0  0
   49.1520   30.9261   37.2154 H   0  0  0  0  0  0  0  0  0  0  0  0
   49.6920   33.6791   38.9594 H   0  0  0  0  0  0  0  0  0  0  0  0
  1  2  1  0
  1  9  1  0
  3  2  1  0
  3  4  1  0
  5  4  1  0
  6  1  1  0
  6  5  1  0
  7  9  1  0
  7 11  1  0
  8  7  1  0
  8  9  1  0
 10 15  2  0
 11 10  1  0
 11 12  2  0
 12 13  1  0
 14 13  2  0
 15 14  1  0
 16 21  1  0
 16 17  1  0
 17 18  1  0
 17  6  1  0
 19 18  1  0
 20 19  1  0
 20 16  1  0
  2 22  1  0
  2 23  1  0
  3 24  1  0
  3 25  1  0
  4 26  1  0
  4 27  1  0
  5 28  1  0
  5 29  1  0
  6 30  1  1
  7 31  1  6
  8 32  1  0
  8 33  1  0
  9 34  1  1
 10 35  1  0
 12 36  1  0
 14 37  1  0
 16 38  1  1
 17 39  1  6
 18 40  1  0
 18 41  1  0
 20 42  1  0
 20 43  1  0
 21 44  1  0
M  ISO  8  22  13  23  13  24  13  25  13  26  13  27  13  28  13  29  13
M  ISO  8  30  13  31  13  32  13  33  13  34  13  35  14  36  14  37  14
M  ISO  7  38  13  39  13  40  13  41  13  42  13  43  13  44   3
M  END
>  <minimizedAffinity>  (1) 
-5.03995132

>  <minimizedRMSD>  (1) 
0.653701425

$$$$
