
     RDKit          3D

 39 42  0  0  1  0  0  0  0  0999 V2000
   49.4200   33.3430   41.4600 N   0  0  0  0  0  0  0  0  0  0  0  0
   50.7020   33.1420   42.1450 C   0  0  0  0  0  0  0  0  0  0  0  0
   51.3330   31.8330   41.7870 C   0  0  0  0  0  0  0  0  0  0  0  0
   50.5060   30.7420   42.4380 C   0  0  0  0  0  0  0  0  0  0  0  0
   49.0510   31.0620   42.3550 C   0  0  0  0  0  0  0  0  0  0  0  0
   48.7910   32.0660   41.2390 C   0  0  2  0  0  0  0  0  0  0  0  0
   47.2570   34.6350   41.9990 C   0  0  1  0  0  0  0  0  0  0  0  0
   48.3690   35.5660   41.7530 C   0  0  0  0  0  0  0  0  0  0  0  0
   48.6630   34.2170   42.2930 C   0  0  2  0  0  0  0  0  0  0  0  0
   45.5260   36.0400   43.1630 C   0  0  0  0  0  0  0  0  0  0  0  0
   46.3290   34.8830   43.1350 C   0  0  0  0  0  0  0  0  0  0  0  0
   46.2160   33.9760   44.2000 C   0  0  0  0  0  0  0  0  0  0  0  0
   45.3410   34.2620   45.2000 N   0  0  0  0  0  0  0  0  0  0  0  0
   44.5820   35.3890   45.1940 C   0  0  0  0  0  0  0  0  0  0  0  0
   44.6700   36.2900   44.1720 N   0  0  0  0  0  0  0  0  0  0  0  0
   49.0580   31.4850   39.9180 C   0  0  0  0  0  0  0  0  0  0  0  0
   49.5900   31.9790   38.8140 C   0  0  0  0  0  0  0  0  0  0  0  0
   49.7160   31.1870   37.7070 C   0  0  0  0  0  0  0  0  0  0  0  0
   49.2770   29.8810   37.7910 C   0  0  0  0  0  0  0  0  0  0  0  0
   48.6170   29.7020   39.5610 S   0  0  0  0  0  0  0  0  0  0  0  0
   51.3867   33.9550   41.8617 H   0  0  0  0  0  0  0  0  0  0  0  0
   50.5104   33.1404   43.2282 H   0  0  0  0  0  0  0  0  0  0  0  0
   51.3357   31.7025   40.6948 H   0  0  0  0  0  0  0  0  0  0  0  0
   52.3750   31.7938   42.1373 H   0  0  0  0  0  0  0  0  0  0  0  0
   50.6960   29.7889   41.9227 H   0  0  0  0  0  0  0  0  0  0  0  0
   50.7915   30.6668   43.4976 H   0  0  0  0  0  0  0  0  0  0  0  0
   48.4880   30.1393   42.1509 H   0  0  0  0  0  0  0  0  0  0  0  0
   48.7266   31.4990   43.3109 H   0  0  0  0  0  0  0  0  0  0  0  0
   47.7154   32.2955   41.2583 H   0  0  0  0  0  0  0  0  0  0  0  0
   46.4331   34.2352   41.3896 H   0  0  0  0  0  0  0  0  0  0  0  0
   48.6549   35.8170   40.7209 H   0  0  0  0  0  0  0  0  0  0  0  0
   48.6016   36.5931   42.0708 H   0  0  0  0  0  0  0  0  0  0  0  0
   49.1337   33.7703   43.1812 H   0  0  0  0  0  0  0  0  0  0  0  0
   45.6004   36.7611   42.3356 H   0  0  0  0  0  0  0  0  0  0  0  0
   46.8202   33.0571   44.2248 H   0  0  0  0  0  0  0  0  0  0  0  0
   43.8864   35.5782   46.0248 H   0  0  0  0  0  0  0  0  0  0  0  0
   49.9305   33.0246   38.7858 H   0  0  0  0  0  0  0  0  0  0  0  0
   50.1541   31.5787   36.7771 H   0  0  0  0  0  0  0  0  0  0  0  0
   49.3039   29.1126   37.0044 H   0  0  0  0  0  0  0  0  0  0  0  0
  1  2  1  0
  1  9  1  0
  3  2  1  0
  3  4  1  0
  5  4  1  0
  6  1  1  0
  6  5  1  0
  7  9  1  0
  7 11  1  0
  8  7  1  0
  8  9  1  0
 10 15  2  0
 11 10  1  0
 11 12  2  0
 12 13  1  0
 14 13  2  0
 15 14  1  0
 16  6  1  0
 17 16  2  0
 18 19  2  0
 18 17  1  0
 19 20  1  0
 20 16  1  0
  2 21  1  0
  2 22  1  0
  3 23  1  0
  3 24  1  0
  4 25  1  0
  4 26  1  0
  5 27  1  0
  5 28  1  0
  6 29  1  6
  7 30  1  6
  8 31  1  0
  8 32  1  0
  9 33  1  1
 10 34  1  0
 12 35  1  0
 14 36  1  0
 17 37  1  0
 18 38  1  0
 19 39  1  0
M  ISO  8  21  13  22  13  23  13  24  13  25  13  26  13  27  13  28  13
M  ISO  8  29  13  30  13  31  13  32  13  33  13  34  14  35  14  36  14
M  ISO  3  37  14  38  14  39  14
M  END
>  <minimizedAffinity>  (1) 
-4.75758362

>  <minimizedRMSD>  (1) 
0.408023953

$$$$
