
     RDKit          3D

 45 48  0  0  1  0  0  0  0  0999 V2000
   49.4880   33.4230   41.3440 N   0  0  0  0  0  0  0  0  0  0  0  0
   50.6910   33.0570   42.0690 C   0  0  0  0  0  0  0  0  0  0  0  0
   51.2560   31.7280   41.7260 C   0  0  0  0  0  0  0  0  0  0  0  0
   50.2770   30.6420   42.0830 C   0  0  0  0  0  0  0  0  0  0  0  0
   48.8660   31.0970   41.9110 C   0  0  0  0  0  0  0  0  0  0  0  0
   48.8000   32.2390   40.9270 C   0  0  2  0  0  0  0  0  0  0  0  0
   47.3290   34.7100   41.9360 C   0  0  1  0  0  0  0  0  0  0  0  0
   48.4370   35.6390   41.7180 C   0  0  0  0  0  0  0  0  0  0  0  0
   48.7340   34.2720   42.2170 C   0  0  2  0  0  0  0  0  0  0  0  0
   45.5500   36.0370   43.1220 C   0  0  0  0  0  0  0  0  0  0  0  0
   46.3920   34.8890   43.0840 C   0  0  0  0  0  0  0  0  0  0  0  0
   46.3120   33.9670   44.1110 C   0  0  0  0  0  0  0  0  0  0  0  0
   45.4240   34.2110   45.1120 N   0  0  0  0  0  0  0  0  0  0  0  0
   44.6260   35.3140   45.1340 C   0  0  0  0  0  0  0  0  0  0  0  0
   44.6870   36.2250   44.1450 N   0  0  0  0  0  0  0  0  0  0  0  0
   48.8960   31.8700   39.5060 C   0  0  0  0  0  0  0  0  0  0  0  0
   48.6120   33.0290   38.5380 C   0  0  0  0  0  0  0  0  0  0  0  0
   48.2940   32.3470   37.2230 C   0  0  0  0  0  0  0  0  0  0  0  0
   47.8520   30.9410   37.5360 C   0  0  0  0  0  0  0  0  0  0  0  0
   48.0310   30.7490   39.0400 C   0  0  0  0  0  0  0  0  0  0  0  0
   51.4584   33.8171   41.8606 H   0  0  0  0  0  0  0  0  0  0  0  0
   50.4035   33.0020   43.1293 H   0  0  0  0  0  0  0  0  0  0  0  0
   51.4650   31.6891   40.6467 H   0  0  0  0  0  0  0  0  0  0  0  0
   52.1861   31.5750   42.2931 H   0  0  0  0  0  0  0  0  0  0  0  0
   50.4540   29.7734   41.4317 H   0  0  0  0  0  0  0  0  0  0  0  0
   50.4270   30.3770   43.1400 H   0  0  0  0  0  0  0  0  0  0  0  0
   48.2580   30.2601   41.5369 H   0  0  0  0  0  0  0  0  0  0  0  0
   48.4795   31.4391   42.8824 H   0  0  0  0  0  0  0  0  0  0  0  0
   47.7489   32.5608   40.9669 H   0  0  0  0  0  0  0  0  0  0  0  0
   46.4999   34.3505   41.3089 H   0  0  0  0  0  0  0  0  0  0  0  0
   48.7209   35.9209   40.6933 H   0  0  0  0  0  0  0  0  0  0  0  0
   48.6714   36.6554   42.0672 H   0  0  0  0  0  0  0  0  0  0  0  0
   49.2046   33.7947   43.0892 H   0  0  0  0  0  0  0  0  0  0  0  0
   45.6026   36.7780   42.3107 H   0  0  0  0  0  0  0  0  0  0  0  0
   46.9446   33.0672   44.1184 H   0  0  0  0  0  0  0  0  0  0  0  0
   43.9245   35.4621   45.9683 H   0  0  0  0  0  0  0  0  0  0  0  0
   49.9478   31.5494   39.4766 H   0  0  0  0  0  0  0  0  0  0  0  0
   47.7555   33.6258   38.8849 H   0  0  0  0  0  0  0  0  0  0  0  0
   49.4588   33.7264   38.4565 H   0  0  0  0  0  0  0  0  0  0  0  0
   49.1898   32.3256   36.5850 H   0  0  0  0  0  0  0  0  0  0  0  0
   47.5027   32.8910   36.6864 H   0  0  0  0  0  0  0  0  0  0  0  0
   46.7960   30.8053   37.2596 H   0  0  0  0  0  0  0  0  0  0  0  0
   48.4428   30.2055   36.9703 H   0  0  0  0  0  0  0  0  0  0  0  0
   47.0555   30.7847   39.5471 H   0  0  0  0  0  0  0  0  0  0  0  0
   48.4853   29.7732   39.2667 H   0  0  0  0  0  0  0  0  0  0  0  0
  1  2  1  0
  1  9  1  0
  3  2  1  0
  3  4  1  0
  5  4  1  0
  6  1  1  0
  6  5  1  0
  7  9  1  0
  7 11  1  0
  8  7  1  0
  8  9  1  0
 10 15  2  0
 11 10  1  0
 11 12  2  0
 12 13  1  0
 13 14  2  0
 15 14  1  0
 16  6  1  0
 17 16  1  0
 18 19  1  0
 18 17  1  0
 19 20  1  0
 20 16  1  0
  2 21  1  0
  2 22  1  0
  3 23  1  0
  3 24  1  0
  4 25  1  0
  4 26  1  0
  5 27  1  0
  5 28  1  0
  6 29  1  6
  7 30  1  6
  8 31  1  0
  8 32  1  0
  9 33  1  1
 10 34  1  0
 12 35  1  0
 14 36  1  0
 16 37  1  0
 17 38  1  0
 17 39  1  0
 18 40  1  0
 18 41  1  0
 19 42  1  0
 19 43  1  0
 20 44  1  0
 20 45  1  0
M  ISO  8  21  13  22  13  23  13  24  13  25  13  26  13  27  13  28  13
M  ISO  8  29  13  30  13  31  13  32  13  33  13  34  14  35  14  36  14
M  ISO  8  37  13  38  13  39  13  40  13  41  13  42  13  43  13  44  13
M  ISO  1  45  13
M  END
>  <minimizedAffinity>  (1) 
-4.83558512

>  <minimizedRMSD>  (1) 
1.1090256

$$$$
