
     RDKit          3D

 22 23  0  0  0  0  0  0  0  0999 V2000
   47.2120   34.9670   41.9210 C   0  0  0  0  0  0  0  0  0  0  0  0
   48.3130   35.5630   42.0000 O   0  0  0  0  0  0  0  0  0  0  0  0
   45.4450   36.0530   43.2220 C   0  0  0  0  0  0  0  0  0  0  0  0
   46.3500   35.0050   43.0720 C   0  0  0  0  0  0  0  0  0  0  0  0
   46.3870   34.0210   44.0550 C   0  0  0  0  0  0  0  0  0  0  0  0
   45.5350   34.1470   45.0990 N   0  0  0  0  0  0  0  0  0  0  0  0
   44.6620   35.1700   45.2320 C   0  0  0  0  0  0  0  0  0  0  0  0
   44.6290   36.1220   44.2770 N   0  0  0  0  0  0  0  0  0  0  0  0
   44.5170   33.6260   41.4700 Cl  0  0  0  0  0  0  0  0  0  0  0  0
   45.8020   33.6600   40.2940 C   0  0  0  0  0  0  0  0  0  0  0  0
   46.9740   34.3030   40.6260 C   0  0  0  0  0  0  0  0  0  0  0  0
   48.0020   34.3290   39.6840 C   0  0  0  0  0  0  0  0  0  0  0  0
   47.8900   33.7390   38.4320 C   0  0  0  0  0  0  0  0  0  0  0  0
   46.6830   33.0990   38.1390 C   0  0  0  0  0  0  0  0  0  0  0  0
   45.6480   33.0570   39.0530 C   0  0  0  0  0  0  0  0  0  0  0  0
   45.4014   36.8406   42.4553 H   0  0  0  0  0  0  0  0  0  0  0  0
   47.0830   33.1720   43.9862 H   0  0  0  0  0  0  0  0  0  0  0  0
   43.9914   35.2252   46.1022 H   0  0  0  0  0  0  0  0  0  0  0  0
   48.9416   34.8386   39.9438 H   0  0  0  0  0  0  0  0  0  0  0  0
   48.7139   33.7739   37.7041 H   0  0  0  0  0  0  0  0  0  0  0  0
   46.5540   32.6177   37.1583 H   0  0  0  0  0  0  0  0  0  0  0  0
   44.7064   32.5483   38.7987 H   0  0  0  0  0  0  0  0  0  0  0  0
  1  2  2  0
  1  4  1  0
  3  8  2  0
  4  3  1  0
  4  5  2  0
  5  6  1  0
  6  7  2  0
  8  7  1  0
 10 11  2  0
 10  9  1  0
 11  1  1  0
 12 11  1  0
 13 12  2  0
 14 13  1  0
 14 15  2  0
 15 10  1  0
  3 16  1  0
  5 17  1  0
  7 18  1  0
 12 19  1  0
 13 20  1  0
 14 21  1  0
 15 22  1  0
M  ISO  7  16  14  17  14  18  14  19  14  20  14  21  14  22  14
M  END
>  <minimizedAffinity>  (1) 
-4.62423182

>  <minimizedRMSD>  (1) 
0.660012722

$$$$
