
     RDKit          3D

 46 49  0  0  1  0  0  0  0  0999 V2000
   49.6370   33.6350   41.4500 N   0  0  0  0  0  0  0  0  0  0  0  0
   50.7700   33.1840   42.2600 C   0  0  0  0  0  0  0  0  0  0  0  0
   51.3530   31.8850   41.7840 C   0  0  0  0  0  0  0  0  0  0  0  0
   50.3270   30.7780   42.0340 C   0  0  0  0  0  0  0  0  0  0  0  0
   48.9350   31.2860   41.7730 C   0  0  0  0  0  0  0  0  0  0  0  0
   49.0070   32.4930   40.8770 C   0  0  2  0  0  0  0  0  0  0  0  0
   47.3960   34.7660   42.0140 C   0  0  1  0  0  0  0  0  0  0  0  0
   48.4640   35.7820   41.8250 C   0  0  0  0  0  0  0  0  0  0  0  0
   48.8150   34.4260   42.2870 C   0  0  2  0  0  0  0  0  0  0  0  0
   45.5060   35.9630   43.1250 C   0  0  0  0  0  0  0  0  0  0  0  0
   46.4480   34.9280   43.1180 C   0  0  0  0  0  0  0  0  0  0  0  0
   46.4410   34.0230   44.2060 C   0  0  0  0  0  0  0  0  0  0  0  0
   45.5300   34.2070   45.1860 N   0  0  0  0  0  0  0  0  0  0  0  0
   44.6300   35.2120   45.1710 C   0  0  0  0  0  0  0  0  0  0  0  0
   44.6110   36.0970   44.1440 N   0  0  0  0  0  0  0  0  0  0  0  0
   49.5520   32.1280   39.5960 N   0  0  0  0  0  0  0  0  0  0  0  0
   47.9360   33.6150   38.5860 N   0  0  0  0  0  0  0  0  0  0  0  0
   48.3960   34.4870   37.5280 C   0  0  0  0  0  0  0  0  0  0  0  0
   48.6570   33.4920   36.4190 C   0  0  0  0  0  0  0  0  0  0  0  0
   49.4310   32.4220   37.1620 C   0  0  0  0  0  0  0  0  0  0  0  0
   48.6960   32.3950   38.4930 C   0  0  1  0  0  0  0  0  0  0  0  0
   51.5547   33.9541   42.2242 H   0  0  0  0  0  0  0  0  0  0  0  0
   50.3987   33.0222   43.2827 H   0  0  0  0  0  0  0  0  0  0  0  0
   52.2779   31.6671   42.3382 H   0  0  0  0  0  0  0  0  0  0  0  0
   51.5907   31.9465   40.7117 H   0  0  0  0  0  0  0  0  0  0  0  0
   50.5359   29.9316   41.3632 H   0  0  0  0  0  0  0  0  0  0  0  0
   50.3986   30.4547   43.0830 H   0  0  0  0  0  0  0  0  0  0  0  0
   48.3424   30.4993   41.2832 H   0  0  0  0  0  0  0  0  0  0  0  0
   48.4582   31.5613   42.7253 H   0  0  0  0  0  0  0  0  0  0  0  0
   47.9710   32.8334   40.7329 H   0  0  0  0  0  0  0  0  0  0  0  0
   46.6034   34.3298   41.3883 H   0  0  0  0  0  0  0  0  0  0  0  0
   48.7411   36.1059   40.8109 H   0  0  0  0  0  0  0  0  0  0  0  0
   48.6421   36.8007   42.1998 H   0  0  0  0  0  0  0  0  0  0  0  0
   49.3031   33.9567   43.1539 H   0  0  0  0  0  0  0  0  0  0  0  0
   45.4876   36.6818   42.2925 H   0  0  0  0  0  0  0  0  0  0  0  0
   47.1591   33.1910   44.2523 H   0  0  0  0  0  0  0  0  0  0  0  0
   43.9087   35.3138   45.9953 H   0  0  0  0  0  0  0  0  0  0  0  0
   50.4277   32.6524   39.4578 H   0  0  0  0  0  0  0  0  0  0  0  0
   48.0921   34.0590   39.5022 H   0  0  0  0  0  0  0  0  0  0  0  0
   47.6234   35.2158   37.2419 H   0  0  0  0  0  0  0  0  0  0  0  0
   49.2676   35.1019   37.7969 H   0  0  0  0  0  0  0  0  0  0  0  0
   49.2571   33.9364   35.6113 H   0  0  0  0  0  0  0  0  0  0  0  0
   47.7492   33.1267   35.9165 H   0  0  0  0  0  0  0  0  0  0  0  0
   49.3705   31.4511   36.6485 H   0  0  0  0  0  0  0  0  0  0  0  0
   50.5094   32.6217   37.2462 H   0  0  0  0  0  0  0  0  0  0  0  0
   47.9970   31.5468   38.5365 H   0  0  0  0  0  0  0  0  0  0  0  0
  1  2  1  0
  1  9  1  0
  3  4  1  0
  3  2  1  0
  5  4  1  0
  6  1  1  0
  6  5  1  0
  7  9  1  0
  7 11  1  0
  8  7  1  0
  8  9  1  0
 10 15  2  0
 11 10  1  0
 11 12  2  0
 12 13  1  0
 14 13  2  0
 15 14  1  0
 16  6  1  0
 18 17  1  0
 19 20  1  0
 19 18  1  0
 20 21  1  0
 21 17  1  0
 21 16  1  0
  2 22  1  0
  2 23  1  0
  3 24  1  0
  3 25  1  0
  4 26  1  0
  4 27  1  0
  5 28  1  0
  5 29  1  0
  6 30  1  6
  7 31  1  6
  8 32  1  0
  8 33  1  0
  9 34  1  1
 10 35  1  0
 12 36  1  0
 14 37  1  0
 16 38  1  0
 17 39  1  0
 18 40  1  0
 18 41  1  0
 19 42  1  0
 19 43  1  0
 20 44  1  0
 20 45  1  0
 21 46  1  6
M  ISO  8  22  13  23  13  24  13  25  13  26  13  27  13  28  13  29  13
M  ISO  8  30  13  31  13  32  13  33  13  34  13  35  14  36  14  37  14
M  ISO  8  38   5  39   5  40  13  41  13  42  13  43  13  44  13  45  13
M  ISO  1  46  13
M  END
>  <minimizedAffinity>  (1) 
-5.33573103

>  <minimizedRMSD>  (1) 
2.13364339

$$$$
