
     RDKit          3D

 48 51  0  0  1  0  0  0  0  0999 V2000
   49.3230   33.3510   41.2910 N   0  0  0  0  0  0  0  0  0  0  0  0
   50.6020   33.0240   41.9040 C   0  0  0  0  0  0  0  0  0  0  0  0
   51.1540   31.7050   41.4520 C   0  0  0  0  0  0  0  0  0  0  0  0
   50.2590   30.6040   42.0010 C   0  0  0  0  0  0  0  0  0  0  0  0
   48.8130   31.0340   41.9600 C   0  0  0  0  0  0  0  0  0  0  0  0
   48.6470   32.1440   40.9510 C   0  0  2  0  0  0  0  0  0  0  0  0
   47.2640   34.7430   41.9550 C   0  0  1  0  0  0  0  0  0  0  0  0
   48.4200   35.6100   41.7590 C   0  0  0  0  0  0  0  0  0  0  0  0
   48.6540   34.2090   42.2160 C   0  0  2  0  0  0  0  0  0  0  0  0
   45.5250   36.0860   43.1600 C   0  0  0  0  0  0  0  0  0  0  0  0
   46.3470   34.9360   43.0850 C   0  0  0  0  0  0  0  0  0  0  0  0
   46.2440   34.0090   44.1210 C   0  0  0  0  0  0  0  0  0  0  0  0
   45.3710   34.2610   45.1250 N   0  0  0  0  0  0  0  0  0  0  0  0
   44.6020   35.3550   45.1770 C   0  0  0  0  0  0  0  0  0  0  0  0
   44.6690   36.2860   44.1910 N   0  0  0  0  0  0  0  0  0  0  0  0
   48.9600   31.6730   39.6350 N   0  0  0  0  0  0  0  0  0  0  0  0
   47.9640   31.7830   38.6620 C   0  0  0  0  0  0  0  0  0  0  0  0
   48.5770   31.3890   37.3170 C   0  0  0  0  0  0  0  0  0  0  0  0
   49.3140   32.5810   36.7100 C   0  0  0  0  0  0  0  0  0  0  0  0
   48.4860   33.6920   36.5610 O   0  0  0  0  0  0  0  0  0  0  0  0
   48.1960   34.1520   37.8540 C   0  0  0  0  0  0  0  0  0  0  0  0
   47.2920   33.0940   38.4770 C   0  0  0  0  0  0  0  0  0  0  0  0
   51.3248   33.8122   41.6464 H   0  0  0  0  0  0  0  0  0  0  0  0
   50.4359   32.9541   42.9891 H   0  0  0  0  0  0  0  0  0  0  0  0
   51.1654   31.6627   40.3529 H   0  0  0  0  0  0  0  0  0  0  0  0
   52.1832   31.5772   41.8186 H   0  0  0  0  0  0  0  0  0  0  0  0
   50.3850   29.6967   41.3920 H   0  0  0  0  0  0  0  0  0  0  0  0
   50.5419   30.4004   43.0443 H   0  0  0  0  0  0  0  0  0  0  0  0
   48.1842   30.1789   41.6713 H   0  0  0  0  0  0  0  0  0  0  0  0
   48.5089   31.3935   42.9541 H   0  0  0  0  0  0  0  0  0  0  0  0
   47.5852   32.4310   40.9663 H   0  0  0  0  0  0  0  0  0  0  0  0
   46.4127   34.4512   41.3225 H   0  0  0  0  0  0  0  0  0  0  0  0
   48.7122   35.9077   40.7411 H   0  0  0  0  0  0  0  0  0  0  0  0
   48.7104   36.6005   42.1391 H   0  0  0  0  0  0  0  0  0  0  0  0
   49.1135   33.6863   43.0678 H   0  0  0  0  0  0  0  0  0  0  0  0
   45.5828   36.8379   42.3592 H   0  0  0  0  0  0  0  0  0  0  0  0
   46.8567   33.0954   44.1229 H   0  0  0  0  0  0  0  0  0  0  0  0
   43.9129   35.5005   46.0219 H   0  0  0  0  0  0  0  0  0  0  0  0
   49.7775   32.2041   39.3025 H   0  0  0  0  0  0  0  0  0  0  0  0
   47.1658   31.1231   39.0328 H   0  0  0  0  0  0  0  0  0  0  0  0
   49.2854   30.5611   37.4680 H   0  0  0  0  0  0  0  0  0  0  0  0
   47.7752   31.0737   36.6331 H   0  0  0  0  0  0  0  0  0  0  0  0
   50.1535   32.8506   37.3677 H   0  0  0  0  0  0  0  0  0  0  0  0
   49.6667   32.2864   35.7106 H   0  0  0  0  0  0  0  0  0  0  0  0
   49.1212   34.2585   38.4394 H   0  0  0  0  0  0  0  0  0  0  0  0
   47.7106   35.1389   37.8338 H   0  0  0  0  0  0  0  0  0  0  0  0
   46.9565   33.4562   39.4600 H   0  0  0  0  0  0  0  0  0  0  0  0
   46.4517   32.9349   37.7852 H   0  0  0  0  0  0  0  0  0  0  0  0
  1  2  1  0
  1  9  1  0
  3  2  1  0
  3  4  1  0
  5  4  1  0
  6  1  1  0
  6  5  1  0
  7  9  1  0
  7 11  1  0
  8  7  1  0
  8  9  1  0
 10 15  2  0
 11 10  1  0
 11 12  2  0
 12 13  1  0
 13 14  2  0
 15 14  1  0
 16  6  1  0
 17 16  1  0
 18 17  1  0
 19 18  1  0
 20 19  1  0
 20 21  1  0
 21 22  1  0
 22 17  1  0
  2 23  1  0
  2 24  1  0
  3 25  1  0
  3 26  1  0
  4 27  1  0
  4 28  1  0
  5 29  1  0
  5 30  1  0
  6 31  1  6
  7 32  1  6
  8 33  1  0
  8 34  1  0
  9 35  1  1
 10 36  1  0
 12 37  1  0
 14 38  1  0
 16 39  1  0
 17 40  1  0
 18 41  1  0
 18 42  1  0
 19 43  1  0
 19 44  1  0
 21 45  1  0
 21 46  1  0
 22 47  1  0
 22 48  1  0
M  ISO  8  23  13  24  13  25  13  26  13  27  13  28  13  29  13  30  13
M  ISO  8  31  13  32  13  33  13  34  13  35  13  36  14  37  14  38  14
M  ISO  8  39   5  40  13  41  13  42  13  43  13  44  13  45  13  46  13
M  ISO  2  47  13  48  13
M  END
>  <minimizedAffinity>  (1) 
-5.16131783

>  <minimizedRMSD>  (1) 
1.694821

$$$$
