
     RDKit          3D

 45 48  0  0  1  0  0  0  0  0999 V2000
   49.8400   33.5850   41.5200 N   0  0  0  0  0  0  0  0  0  0  0  0
   50.7450   32.9370   42.4300 C   0  0  0  0  0  0  0  0  0  0  0  0
   51.2590   31.6070   41.9520 C   0  0  0  0  0  0  0  0  0  0  0  0
   50.1150   30.6340   41.8390 C   0  0  0  0  0  0  0  0  0  0  0  0
   48.8500   31.3330   41.4350 C   0  0  0  0  0  0  0  0  0  0  0  0
   49.2030   32.5970   40.6740 C   0  0  2  0  0  0  0  0  0  0  0  0
   47.5290   34.6290   41.9480 C   0  0  1  0  0  0  0  0  0  0  0  0
   48.5330   35.6830   41.6760 C   0  0  0  0  0  0  0  0  0  0  0  0
   48.9620   34.3990   42.2650 C   0  0  2  0  0  0  0  0  0  0  0  0
   45.6600   35.9120   43.0290 C   0  0  0  0  0  0  0  0  0  0  0  0
   46.5530   34.8330   43.0180 C   0  0  0  0  0  0  0  0  0  0  0  0
   46.4610   33.9180   44.0910 C   0  0  0  0  0  0  0  0  0  0  0  0
   45.5300   34.1350   45.0520 N   0  0  0  0  0  0  0  0  0  0  0  0
   44.6910   35.1780   45.0320 C   0  0  0  0  0  0  0  0  0  0  0  0
   44.7460   36.0880   44.0120 N   0  0  0  0  0  0  0  0  0  0  0  0
   49.9360   32.2970   39.4860 N   0  0  0  0  0  0  0  0  0  0  0  0
   49.3210   32.3110   37.0640 C   0  0  0  0  0  0  0  0  0  0  0  0
   49.8710   31.7200   38.2090 C   0  0  0  0  0  0  0  0  0  0  0  0
   50.3790   30.4400   38.0990 C   0  0  0  0  0  0  0  0  0  0  0  0
   50.3670   29.7230   36.9140 C   0  0  0  0  0  0  0  0  0  0  0  0
   49.8230   30.3240   35.8050 C   0  0  0  0  0  0  0  0  0  0  0  0
   49.3140   31.5960   35.8970 C   0  0  0  0  0  0  0  0  0  0  0  0
   48.3640   34.7080   37.3220 N   0  0  0  0  0  0  0  0  0  0  0  0
   48.7980   33.6430   37.2010 C   0  0  0  0  0  0  0  0  0  0  0  0
   51.6067   33.6017   42.5901 H   0  0  0  0  0  0  0  0  0  0  0  0
   50.1775   32.7417   43.3519 H   0  0  0  0  0  0  0  0  0  0  0  0
   51.7333   31.7303   40.9672 H   0  0  0  0  0  0  0  0  0  0  0  0
   51.9971   31.2211   42.6705 H   0  0  0  0  0  0  0  0  0  0  0  0
   50.3628   29.8741   41.0832 H   0  0  0  0  0  0  0  0  0  0  0  0
   49.9568   30.1647   42.8212 H   0  0  0  0  0  0  0  0  0  0  0  0
   48.2523   30.6705   40.7917 H   0  0  0  0  0  0  0  0  0  0  0  0
   48.2663   31.5906   42.3311 H   0  0  0  0  0  0  0  0  0  0  0  0
   48.2650   33.0672   40.3437 H   0  0  0  0  0  0  0  0  0  0  0  0
   46.7734   34.0894   41.3582 H   0  0  0  0  0  0  0  0  0  0  0  0
   48.8037   35.9290   40.6386 H   0  0  0  0  0  0  0  0  0  0  0  0
   48.6431   36.7408   41.9568 H   0  0  0  0  0  0  0  0  0  0  0  0
   49.4666   34.0422   43.1750 H   0  0  0  0  0  0  0  0  0  0  0  0
   45.7029   36.6434   42.2085 H   0  0  0  0  0  0  0  0  0  0  0  0
   47.1312   33.0474   44.1453 H   0  0  0  0  0  0  0  0  0  0  0  0
   43.9543   35.3038   45.8391 H   0  0  0  0  0  0  0  0  0  0  0  0
   50.8970   32.6425   39.6204 H   0  0  0  0  0  0  0  0  0  0  0  0
   50.8128   29.9688   38.9933 H   0  0  0  0  0  0  0  0  0  0  0  0
   50.7799   28.7047   36.8626 H   0  0  0  0  0  0  0  0  0  0  0  0
   49.7952   29.7874   34.8452 H   0  0  0  0  0  0  0  0  0  0  0  0
   48.8834   32.0588   34.9968 H   0  0  0  0  0  0  0  0  0  0  0  0
  1  9  1  0
  1  2  1  0
  3  2  1  0
  4  3  1  0
  5  4  1  0
  6  5  1  0
  6  1  1  0
  7  9  1  0
  7 11  1  0
  8  7  1  0
  8  9  1  0
 10 15  2  0
 11 10  1  0
 11 12  2  0
 12 13  1  0
 14 13  2  0
 15 14  1  0
 16  6  1  0
 17 24  1  0
 17 18  2  0
 18 16  1  0
 19 18  1  0
 20 19  2  0
 21 22  2  0
 21 20  1  0
 22 17  1  0
 24 23  3  0
  2 25  1  0
  2 26  1  0
  3 27  1  0
  3 28  1  0
  4 29  1  0
  4 30  1  0
  5 31  1  0
  5 32  1  0
  6 33  1  6
  7 34  1  6
  8 35  1  0
  8 36  1  0
  9 37  1  1
 10 38  1  0
 12 39  1  0
 14 40  1  0
 16 41  1  0
 19 42  1  0
 20 43  1  0
 21 44  1  0
 22 45  1  0
M  ISO  8  25  13  26  13  27  13  28  13  29  13  30  13  31  13  32  13
M  ISO  8  33  13  34  13  35  13  36  13  37  13  38  14  39  14  40  14
M  ISO  4  42  14  43  14  44  14  45  14
M  END
>  <minimizedAffinity>  (1) 
-5.34604359

>  <minimizedRMSD>  (1) 
2.11062741

$$$$
