
     RDKit          3D

 25 26  0  0  0  0  0  0  0  0999 V2000
   44.8010   33.8430   40.7380 C   0  0  0  0  0  0  0  0  0  0  0  0
   46.1620   33.8600   40.4220 C   0  0  0  0  0  0  0  0  0  0  0  0
   47.0890   34.0560   41.4630 C   0  0  0  0  0  0  0  0  0  0  0  0
   46.6070   34.2160   42.7140 N   0  0  0  0  0  0  0  0  0  0  0  0
   45.2860   34.1930   42.9830 C   0  0  0  0  0  0  0  0  0  0  0  0
   44.3570   34.0070   42.0030 N   0  0  0  0  0  0  0  0  0  0  0  0
   44.5940   35.5150   45.1000 C   0  0  0  0  0  0  0  0  0  0  0  0
   44.6970   36.5670   44.3900 O   0  0  0  0  0  0  0  0  0  0  0  0
   44.9000   34.3740   44.3400 N   0  0  0  0  0  0  0  0  0  0  0  0
   43.6920   33.5880   39.3520 S   0  0  0  0  0  0  0  0  0  0  0  0
   41.3850   31.5200   40.1670 Cl  0  0  0  0  0  0  0  0  0  0  0  0
   40.9820   33.2300   40.0540 C   0  0  0  0  0  0  0  0  0  0  0  0
   42.0160   34.0420   39.7040 C   0  0  0  0  0  0  0  0  0  0  0  0
   41.7640   35.4080   39.5970 C   0  0  0  0  0  0  0  0  0  0  0  0
   40.4820   35.8950   39.8480 C   0  0  0  0  0  0  0  0  0  0  0  0
   39.4290   35.0560   40.2070 C   0  0  0  0  0  0  0  0  0  0  0  0
   39.7080   33.7030   40.3050 C   0  0  0  0  0  0  0  0  0  0  0  0
   38.4690   32.5460   40.7480 Cl  0  0  0  0  0  0  0  0  0  0  0  0
   46.5009   33.7235   39.3845 H   0  0  0  0  0  0  0  0  0  0  0  0
   48.1706   34.0781   41.2638 H   0  0  0  0  0  0  0  0  0  0  0  0
   44.3054   35.5016   46.1614 H   0  0  0  0  0  0  0  0  0  0  0  0
   44.8312   33.4939   44.8706 H   0  0  0  0  0  0  0  0  0  0  0  0
   42.5725   36.0989   39.3159 H   0  0  0  0  0  0  0  0  0  0  0  0
   40.2959   36.9756   39.7599 H   0  0  0  0  0  0  0  0  0  0  0  0
   38.4213   35.4506   40.4038 H   0  0  0  0  0  0  0  0  0  0  0  0
  1  6  1  0
  2  1  2  0
  2  3  1  0
  3  4  2  0
  4  5  1  0
  5  9  1  0
  6  5  2  0
  8  7  2  0
  9  7  1  0
 10 13  1  0
 10  1  1  0
 12 11  1  0
 12 17  2  0
 13 12  1  0
 14 13  2  0
 14 15  1  0
 15 16  2  0
 16 17  1  0
 17 18  1  0
  2 19  1  0
  3 20  1  0
  7 21  1  0
  9 22  1  0
 14 23  1  0
 15 24  1  0
 16 25  1  0
M  ISO  6  19  14  20  14  21   6  23  14  24  14  25  14
M  END
>  <minimizedAffinity>  (1) 
-5.30566168

>  <minimizedRMSD>  (1) 
2.0820508

$$$$
