
     RDKit          3D

 22 23  0  0  0  0  0  0  0  0999 V2000
   42.4490   32.1940   41.5850 Cl  0  0  0  0  0  0  0  0  0  0  0  0
   41.5270   33.6250   41.1950 C   0  0  0  0  0  0  0  0  0  0  0  0
   42.2610   34.7820   41.0850 C   0  0  0  0  0  0  0  0  0  0  0  0
   41.5700   35.9550   40.7750 C   0  0  0  0  0  0  0  0  0  0  0  0
   40.1960   35.9170   40.5920 C   0  0  0  0  0  0  0  0  0  0  0  0
   39.4520   34.7670   40.7000 C   0  0  0  0  0  0  0  0  0  0  0  0
   40.1520   33.5940   41.0110 C   0  0  0  0  0  0  0  0  0  0  0  0
   39.3320   32.0580   41.1800 Cl  0  0  0  0  0  0  0  0  0  0  0  0
   44.0030   34.9760   41.2900 S   0  0  0  0  0  0  0  0  0  0  0  0
   44.5470   34.6800   42.9790 C   0  0  0  0  0  0  0  0  0  0  0  0
   45.3350   33.5290   43.1470 C   0  0  0  0  0  0  0  0  0  0  0  0
   45.7930   33.2450   44.4560 C   0  0  0  0  0  0  0  0  0  0  0  0
   45.4560   34.0760   45.4580 N   0  0  0  0  0  0  0  0  0  0  0  0
   44.6910   35.1810   45.2530 C   0  0  0  0  0  0  0  0  0  0  0  0
   44.2250   35.4980   44.0100 N   0  0  0  0  0  0  0  0  0  0  0  0
   44.4040   35.9630   46.3410 O   0  0  0  0  0  0  0  0  0  0  0  0
   42.1138   36.9061   40.6763 H   0  0  0  0  0  0  0  0  0  0  0  0
   39.6755   36.8548   40.3481 H   0  0  0  0  0  0  0  0  0  0  0  0
   38.3623   34.7673   40.5499 H   0  0  0  0  0  0  0  0  0  0  0  0
   45.5854   32.8764   42.2976 H   0  0  0  0  0  0  0  0  0  0  0  0
   46.4147   32.3586   44.6504 H   0  0  0  0  0  0  0  0  0  0  0  0
   43.8499   36.7764   46.2337 H   0  0  0  0  0  0  0  0  0  0  0  0
  2  1  1  0
  3  2  2  0
  3  9  1  0
  4  3  1  0
  5  6  1  0
  5  4  2  0
  6  7  2  0
  7  8  1  0
  7  2  1  0
  9 10  1  0
 10 11  2  0
 10 15  1  0
 11 12  1  0
 12 13  2  0
 14 13  1  0
 14 16  1  0
 15 14  2  0
  4 17  1  0
  5 18  1  0
  6 19  1  0
 11 20  1  0
 12 21  1  0
 16 22  1  0
M  ISO  6  17  14  18  14  19  14  20  14  21  14  22   3
M  END
>  <minimizedAffinity>  (1) 
-5.12977314

>  <minimizedRMSD>  (1) 
0.521263182

$$$$
