
     RDKit          3D

 22 23  0  0  0  0  0  0  0  0999 V2000
   47.6730   35.0140   41.7380 C   0  0  0  0  0  0  0  0  0  0  0  0
   48.7320   35.6580   41.9150 O   0  0  0  0  0  0  0  0  0  0  0  0
   45.7120   35.8200   42.9390 C   0  0  0  0  0  0  0  0  0  0  0  0
   46.7630   34.9030   42.8290 C   0  0  0  0  0  0  0  0  0  0  0  0
   46.8670   33.9090   43.8150 C   0  0  0  0  0  0  0  0  0  0  0  0
   45.9480   33.8890   44.8160 N   0  0  0  0  0  0  0  0  0  0  0  0
   44.9490   34.7950   44.8820 C   0  0  0  0  0  0  0  0  0  0  0  0
   44.8320   35.7580   43.9450 N   0  0  0  0  0  0  0  0  0  0  0  0
   47.3150   34.3700   40.4770 C   0  0  0  0  0  0  0  0  0  0  0  0
   48.2120   34.5330   39.4420 C   0  0  0  0  0  0  0  0  0  0  0  0
   47.9640   33.9610   38.2080 C   0  0  0  0  0  0  0  0  0  0  0  0
   46.8010   33.2300   38.0480 C   0  0  0  0  0  0  0  0  0  0  0  0
   45.9300   33.0860   39.0880 C   0  0  0  0  0  0  0  0  0  0  0  0
   46.1580   33.6500   40.3340 C   0  0  0  0  0  0  0  0  0  0  0  0
   45.6067   36.6101   42.1810 H   0  0  0  0  0  0  0  0  0  0  0  0
   47.6744   33.1629   43.7781 H   0  0  0  0  0  0  0  0  0  0  0  0
   44.2238   34.7472   45.7077 H   0  0  0  0  0  0  0  0  0  0  0  0
   49.1286   35.1206   39.5990 H   0  0  0  0  0  0  0  0  0  0  0  0
   48.6727   34.0840   37.3758 H   0  0  0  0  0  0  0  0  0  0  0  0
   46.5773   32.7625   37.0777 H   0  0  0  0  0  0  0  0  0  0  0  0
   45.0120   32.5003   38.9322 H   0  0  0  0  0  0  0  0  0  0  0  0
   45.4472   33.5259   41.1643 H   0  0  0  0  0  0  0  0  0  0  0  0
  1  2  2  0
  1  4  1  0
  3  8  2  0
  4  3  1  0
  4  5  2  0
  5  6  1  0
  6  7  2  0
  8  7  1  0
  9  1  1  0
 10  9  2  0
 11 10  1  0
 12 11  2  0
 12 13  1  0
 13 14  2  0
 14  9  1  0
  3 15  1  0
  5 16  1  0
  7 17  1  0
 10 18  1  0
 11 19  1  0
 12 20  1  0
 13 21  1  0
 14 22  1  0
M  ISO  8  15  14  16  14  17  14  18  14  19  14  20  14  21  14  22  14
M  END
>  <minimizedAffinity>  (1) 
-4.36145544

>  <minimizedRMSD>  (1) 
1.32278192

$$$$
