
     RDKit          3D

 33 36  0  0  0  0  0  0  0  0999 V2000
   47.3400   31.4110   45.1760 C   0  0  0  0  0  0  0  0  0  0  0  0
   46.8940   32.7260   45.1230 C   0  0  0  0  0  0  0  0  0  0  0  0
   46.2070   33.3310   46.1730 C   0  0  0  0  0  0  0  0  0  0  0  0
   45.9440   32.6070   47.3360 C   0  0  0  0  0  0  0  0  0  0  0  0
   45.3240   32.8540   48.5220 N   0  0  0  0  0  0  0  0  0  0  0  0
   45.3920   31.7090   49.2800 C   0  0  0  0  0  0  0  0  0  0  0  0
   46.0500   30.7910   48.5450 N   0  0  0  0  0  0  0  0  0  0  0  0
   46.4030   31.2980   47.3540 C   0  0  0  0  0  0  0  0  0  0  0  0
   47.0840   30.6750   46.3330 C   0  0  0  0  0  0  0  0  0  0  0  0
   46.4790   35.1740   42.4170 C   0  0  0  0  0  0  0  0  0  0  0  0
   47.6470   35.0190   41.6730 C   0  0  0  0  0  0  0  0  0  0  0  0
   48.5890   34.0550   42.1150 C   0  0  0  0  0  0  0  0  0  0  0  0
   48.2730   33.3530   43.2390 N   0  0  0  0  0  0  0  0  0  0  0  0
   47.1420   33.5220   43.9380 C   0  0  0  0  0  0  0  0  0  0  0  0
   46.2520   34.4350   43.5170 N   0  0  0  0  0  0  0  0  0  0  0  0
   47.5320   29.3010   46.4280 C   0  0  0  0  0  0  0  0  0  0  0  0
   46.8130   28.1400   46.2220 C   0  0  0  0  0  0  0  0  0  0  0  0
   47.4280   26.9140   46.3630 C   0  0  0  0  0  0  0  0  0  0  0  0
   48.7580   26.7840   46.7070 C   0  0  0  0  0  0  0  0  0  0  0  0
   49.4840   27.9630   46.9150 C   0  0  0  0  0  0  0  0  0  0  0  0
   48.8740   29.1930   46.7760 C   0  0  0  0  0  0  0  0  0  0  0  0
   47.8800   30.9628   44.3290 H   0  0  0  0  0  0  0  0  0  0  0  0
   45.8732   34.3755   46.0854 H   0  0  0  0  0  0  0  0  0  0  0  0
   44.8822   33.7413   48.8021 H   0  0  0  0  0  0  0  0  0  0  0  0
   44.9867   31.5690   50.2930 H   0  0  0  0  0  0  0  0  0  0  0  0
   45.7297   35.9138   42.0988 H   0  0  0  0  0  0  0  0  0  0  0  0
   47.8323   35.6239   40.7731 H   0  0  0  0  0  0  0  0  0  0  0  0
   49.5316   33.8821   41.5749 H   0  0  0  0  0  0  0  0  0  0  0  0
   45.7497   28.1933   45.9454 H   0  0  0  0  0  0  0  0  0  0  0  0
   46.8347   26.0032   46.1945 H   0  0  0  0  0  0  0  0  0  0  0  0
   49.2283   25.7953   46.8134 H   0  0  0  0  0  0  0  0  0  0  0  0
   50.5474   27.9085   47.1910 H   0  0  0  0  0  0  0  0  0  0  0  0
   49.4618   30.1075   46.9441 H   0  0  0  0  0  0  0  0  0  0  0  0
  1  9  2  0
  2  1  1  0
  2  3  2  0
  3  4  1  0
  4  8  2  0
  4  5  1  0
  5  6  1  0
  7  6  2  0
  8  7  1  0
  9 16  1  0
  9  8  1  0
 10 15  2  0
 11 12  2  0
 11 10  1  0
 12 13  1  0
 13 14  2  0
 14  2  1  0
 15 14  1  0
 16 21  2  0
 17 18  2  0
 17 16  1  0
 18 19  1  0
 19 20  2  0
 21 20  1  0
  1 22  1  0
  3 23  1  0
  5 24  1  0
  6 25  1  0
 10 26  1  0
 11 27  1  0
 12 28  1  0
 17 29  1  0
 18 30  1  0
 19 31  1  0
 20 32  1  0
 21 33  1  0
M  ISO  8  22  14  23  14  24   9  25  14  26  14  27  14  28  14  29  14
M  ISO  4  30  14  31  14  32  14  33  14
M  END
>  <minimizedAffinity>  (1) 
-5.27018213

>  <minimizedRMSD>  (1) 
0.421114296

$$$$
