
     RDKit          3D

 25 27  0  0  0  0  0  0  0  0999 V2000
   47.2580   31.3790   45.1090 C   0  0  0  0  0  0  0  0  0  0  0  0
   46.8870   32.7100   45.1080 C   0  0  0  0  0  0  0  0  0  0  0  0
   46.2700   33.3010   46.1910 C   0  0  0  0  0  0  0  0  0  0  0  0
   45.9980   32.5660   47.3420 C   0  0  0  0  0  0  0  0  0  0  0  0
   45.4230   32.8210   48.5510 N   0  0  0  0  0  0  0  0  0  0  0  0
   45.4430   31.6690   49.2780 C   0  0  0  0  0  0  0  0  0  0  0  0
   46.0340   30.7150   48.5010 N   0  0  0  0  0  0  0  0  0  0  0  0
   46.3770   31.2470   47.3180 C   0  0  0  0  0  0  0  0  0  0  0  0
   46.9900   30.6300   46.2600 C   0  0  0  0  0  0  0  0  0  0  0  0
   46.5040   35.2040   42.4370 C   0  0  0  0  0  0  0  0  0  0  0  0
   47.6840   35.0580   41.7060 C   0  0  0  0  0  0  0  0  0  0  0  0
   48.6130   34.0940   42.1400 C   0  0  0  0  0  0  0  0  0  0  0  0
   48.3000   33.3580   43.2540 N   0  0  0  0  0  0  0  0  0  0  0  0
   47.1460   33.5330   43.9310 C   0  0  0  0  0  0  0  0  0  0  0  0
   46.2420   34.4510   43.5330 N   0  0  0  0  0  0  0  0  0  0  0  0
   47.3830   29.2620   46.2330 N   0  0  0  0  0  0  0  0  0  0  0  0
   47.7471   30.9240   44.2351 H   0  0  0  0  0  0  0  0  0  0  0  0
   45.9900   34.3638   46.1449 H   0  0  0  0  0  0  0  0  0  0  0  0
   45.0405   33.7258   48.8607 H   0  0  0  0  0  0  0  0  0  0  0  0
   45.0559   31.5333   50.2986 H   0  0  0  0  0  0  0  0  0  0  0  0
   45.7650   35.9521   42.1141 H   0  0  0  0  0  0  0  0  0  0  0  0
   47.8817   35.6770   40.8185 H   0  0  0  0  0  0  0  0  0  0  0  0
   49.5598   33.9360   41.6029 H   0  0  0  0  0  0  0  0  0  0  0  0
   47.2116   28.6607   47.0515 H   0  0  0  0  0  0  0  0  0  0  0  0
   47.8388   28.8735   45.3950 H   0  0  0  0  0  0  0  0  0  0  0  0
  1  9  2  0
  2  1  1  0
  2  3  2  0
  3  4  1  0
  4  5  1  0
  5  6  1  0
  7  6  2  0
  8  4  2  0
  8  7  1  0
  9  8  1  0
 10 15  2  0
 11 12  2  0
 11 10  1  0
 12 13  1  0
 13 14  2  0
 14  2  1  0
 15 14  1  0
 16  9  1  0
  1 17  1  0
  3 18  1  0
  5 19  1  0
  6 20  1  0
 10 21  1  0
 11 22  1  0
 12 23  1  0
 16 24  1  0
 16 25  1  0
M  ISO  7  17  14  18  14  19   9  20  14  21  14  22  14  23  14
M  END
>  <minimizedAffinity>  (1) 
-5.05861664

>  <minimizedRMSD>  (1) 
0.0380688682

$$$$
