
     RDKit          3D

 24 26  0  0  0  0  0  0  0  0999 V2000
   47.2390   31.3590   45.1010 C   0  0  0  0  0  0  0  0  0  0  0  0
   46.8820   32.6990   45.1060 C   0  0  0  0  0  0  0  0  0  0  0  0
   46.2730   33.3030   46.1950 C   0  0  0  0  0  0  0  0  0  0  0  0
   45.9950   32.5700   47.3420 C   0  0  0  0  0  0  0  0  0  0  0  0
   45.4350   32.8080   48.5480 N   0  0  0  0  0  0  0  0  0  0  0  0
   45.4360   31.6660   49.2770 C   0  0  0  0  0  0  0  0  0  0  0  0
   46.0130   30.7060   48.4950 N   0  0  0  0  0  0  0  0  0  0  0  0
   46.3640   31.2300   47.3060 C   0  0  0  0  0  0  0  0  0  0  0  0
   46.9680   30.6030   46.2450 C   0  0  0  0  0  0  0  0  0  0  0  0
   46.5090   35.2070   42.4420 C   0  0  0  0  0  0  0  0  0  0  0  0
   47.6980   35.0510   41.7100 C   0  0  0  0  0  0  0  0  0  0  0  0
   48.6120   34.0830   42.1460 C   0  0  0  0  0  0  0  0  0  0  0  0
   48.3040   33.3390   43.2590 N   0  0  0  0  0  0  0  0  0  0  0  0
   47.1470   33.5230   43.9330 C   0  0  0  0  0  0  0  0  0  0  0  0
   46.2750   34.4420   43.5240 N   0  0  0  0  0  0  0  0  0  0  0  0
   47.4010   28.8690   46.3100 S   0  0  0  0  0  0  0  0  0  0  0  0
   47.7211   30.9046   44.2229 H   0  0  0  0  0  0  0  0  0  0  0  0
   46.0081   34.3697   46.1507 H   0  0  0  0  0  0  0  0  0  0  0  0
   45.0650   33.7158   48.8640 H   0  0  0  0  0  0  0  0  0  0  0  0
   45.0482   31.5371   50.2983 H   0  0  0  0  0  0  0  0  0  0  0  0
   45.7671   35.9567   42.1297 H   0  0  0  0  0  0  0  0  0  0  0  0
   47.9045   35.6687   40.8236 H   0  0  0  0  0  0  0  0  0  0  0  0
   49.5577   33.9218   41.6077 H   0  0  0  0  0  0  0  0  0  0  0  0
   47.5002   28.4718   47.6174 H   0  0  0  0  0  0  0  0  0  0  0  0
  1  2  2  0
  1  9  1  0
  2  3  1  0
  3  4  2  0
  4  5  1  0
  5  6  1  0
  7  6  2  0
  8  4  1  0
  8  7  1  0
  9 16  1  0
  9  8  2  0
 10 15  2  0
 11 12  2  0
 11 10  1  0
 12 13  1  0
 13 14  2  0
 14  2  1  0
 15 14  1  0
  1 17  1  0
  3 18  1  0
  5 19  1  0
  6 20  1  0
 10 21  1  0
 11 22  1  0
 12 23  1  0
 16 24  1  0
M  ISO  8  17  14  18  14  19   9  20  14  21  14  22  14  23  14  24  11
M  END
>  <minimizedAffinity>  (1) 
-5.04183578

>  <minimizedRMSD>  (1) 
0.0200684443

$$$$
