
     RDKit          3D

 32 35  0  0  0  0  0  0  0  0999 V2000
   47.2980   31.4160   45.1600 C   0  0  0  0  0  0  0  0  0  0  0  0
   46.8790   32.7320   45.1300 C   0  0  0  0  0  0  0  0  0  0  0  0
   46.2220   33.3300   46.1890 C   0  0  0  0  0  0  0  0  0  0  0  0
   45.9710   32.5780   47.3360 C   0  0  0  0  0  0  0  0  0  0  0  0
   45.3680   32.8200   48.5390 N   0  0  0  0  0  0  0  0  0  0  0  0
   45.4120   31.6940   49.2910 C   0  0  0  0  0  0  0  0  0  0  0  0
   46.0420   30.7760   48.5360 N   0  0  0  0  0  0  0  0  0  0  0  0
   46.3960   31.2740   47.3400 C   0  0  0  0  0  0  0  0  0  0  0  0
   47.0470   30.6650   46.3080 C   0  0  0  0  0  0  0  0  0  0  0  0
   46.4740   35.1930   42.4320 C   0  0  0  0  0  0  0  0  0  0  0  0
   47.6420   35.0270   41.6910 C   0  0  0  0  0  0  0  0  0  0  0  0
   48.5710   34.0710   42.1150 C   0  0  0  0  0  0  0  0  0  0  0  0
   48.2830   33.3440   43.2420 N   0  0  0  0  0  0  0  0  0  0  0  0
   47.1370   33.5290   43.9410 C   0  0  0  0  0  0  0  0  0  0  0  0
   46.2350   34.4500   43.5390 N   0  0  0  0  0  0  0  0  0  0  0  0
   47.5180   29.2900   46.2620 C   0  0  0  0  0  0  0  0  0  0  0  0
   48.8160   28.8590   46.4090 C   0  0  0  0  0  0  0  0  0  0  0  0
   49.2240   27.5610   46.3610 C   0  0  0  0  0  0  0  0  0  0  0  0
   48.3060   26.5680   46.1510 C   0  0  0  0  0  0  0  0  0  0  0  0
   47.0150   26.9940   46.0030 C   0  0  0  0  0  0  0  0  0  0  0  0
   46.6450   28.2910   46.0570 N   0  0  0  0  0  0  0  0  0  0  0  0
   47.8174   30.9709   44.2986 H   0  0  0  0  0  0  0  0  0  0  0  0
   45.9027   34.3809   46.1279 H   0  0  0  0  0  0  0  0  0  0  0  0
   44.9476   33.7150   48.8273 H   0  0  0  0  0  0  0  0  0  0  0  0
   45.0150   31.5585   50.3079 H   0  0  0  0  0  0  0  0  0  0  0  0
   45.7330   35.9405   42.1125 H   0  0  0  0  0  0  0  0  0  0  0  0
   47.8294   35.6339   40.7929 H   0  0  0  0  0  0  0  0  0  0  0  0
   49.5065   33.9068   41.5601 H   0  0  0  0  0  0  0  0  0  0  0  0
   49.5868   29.6251   46.5791 H   0  0  0  0  0  0  0  0  0  0  0  0
   50.2874   27.3114   46.4905 H   0  0  0  0  0  0  0  0  0  0  0  0
   48.5860   25.5052   46.1047 H   0  0  0  0  0  0  0  0  0  0  0  0
   46.2349   26.2379   45.8304 H   0  0  0  0  0  0  0  0  0  0  0  0
  1  9  2  0
  2  1  1  0
  2  3  2  0
  3  4  1  0
  4  8  2  0
  4  5  1  0
  5  6  1  0
  7  6  2  0
  8  7  1  0
  9  8  1  0
 10 15  2  0
 11 12  2  0
 11 10  1  0
 12 13  1  0
 13 14  2  0
 14  2  1  0
 15 14  1  0
 16  9  1  0
 16 17  2  0
 18 17  1  0
 19 18  2  0
 20 21  2  0
 20 19  1  0
 21 16  1  0
  1 22  1  0
  3 23  1  0
  5 24  1  0
  6 25  1  0
 10 26  1  0
 11 27  1  0
 12 28  1  0
 17 29  1  0
 18 30  1  0
 19 31  1  0
 20 32  1  0
M  ISO  8  22  14  23  14  24   9  25  14  26  14  27  14  28  14  29  14
M  ISO  3  30  14  31  14  32  14
M  END
>  <minimizedAffinity>  (1) 
-5.19412947

>  <minimizedRMSD>  (1) 
0.542656541

$$$$
