
     RDKit          3D

 26 28  0  0  0  0  0  0  0  0999 V2000
   47.2190   31.3680   45.1080 C   0  0  0  0  0  0  0  0  0  0  0  0
   46.8680   32.7130   45.1250 C   0  0  0  0  0  0  0  0  0  0  0  0
   46.2680   33.3110   46.2140 C   0  0  0  0  0  0  0  0  0  0  0  0
   45.9900   32.5610   47.3580 C   0  0  0  0  0  0  0  0  0  0  0  0
   45.4270   32.8090   48.5740 N   0  0  0  0  0  0  0  0  0  0  0  0
   45.4330   31.6450   49.2840 C   0  0  0  0  0  0  0  0  0  0  0  0
   46.0010   30.6920   48.4920 N   0  0  0  0  0  0  0  0  0  0  0  0
   46.3440   31.2360   47.3180 C   0  0  0  0  0  0  0  0  0  0  0  0
   46.9440   30.6090   46.2480 C   0  0  0  0  0  0  0  0  0  0  0  0
   46.4840   35.2150   42.4590 C   0  0  0  0  0  0  0  0  0  0  0  0
   47.6760   35.0510   41.7240 C   0  0  0  0  0  0  0  0  0  0  0  0
   48.6070   34.0790   42.1500 C   0  0  0  0  0  0  0  0  0  0  0  0
   48.2880   33.3510   43.2610 N   0  0  0  0  0  0  0  0  0  0  0  0
   47.1450   33.5260   43.9450 C   0  0  0  0  0  0  0  0  0  0  0  0
   46.2510   34.4490   43.5480 N   0  0  0  0  0  0  0  0  0  0  0  0
   47.3100   29.1610   46.2580 C   0  0  0  0  0  0  0  0  0  0  0  0
   47.6973   30.9165   44.2263 H   0  0  0  0  0  0  0  0  0  0  0  0
   46.0085   34.3794   46.1807 H   0  0  0  0  0  0  0  0  0  0  0  0
   45.0616   33.7154   48.8992 H   0  0  0  0  0  0  0  0  0  0  0  0
   45.0508   31.5017   50.3054 H   0  0  0  0  0  0  0  0  0  0  0  0
   45.7438   35.9662   42.1462 H   0  0  0  0  0  0  0  0  0  0  0  0
   47.8766   35.6684   40.8360 H   0  0  0  0  0  0  0  0  0  0  0  0
   49.5508   33.9146   41.6094 H   0  0  0  0  0  0  0  0  0  0  0  0
   47.3981   28.8123   47.2975 H   0  0  0  0  0  0  0  0  0  0  0  0
   46.5299   28.5821   45.7419 H   0  0  0  0  0  0  0  0  0  0  0  0
   48.2715   29.0222   45.7419 H   0  0  0  0  0  0  0  0  0  0  0  0
  1  2  2  0
  1  9  1  0
  2  3  1  0
  3  4  2  0
  4  5  1  0
  5  6  1  0
  7  6  2  0
  8  4  1  0
  8  7  1  0
  9 16  1  0
  9  8  2  0
 10 15  2  0
 11 12  2  0
 11 10  1  0
 12 13  1  0
 13 14  2  0
 14  2  1  0
 15 14  1  0
  1 17  1  0
  3 18  1  0
  5 19  1  0
  6 20  1  0
 10 21  1  0
 11 22  1  0
 12 23  1  0
 16 24  1  0
 16 25  1  0
 16 26  1  0
M  ISO  8  17  14  18  14  19   9  20  14  21  14  22  14  23  14  24   8
M  ISO  2  25   8  26   8
M  END
>  <minimizedAffinity>  (1) 
-5.09845257

>  <minimizedRMSD>  (1) 
0.03257351

$$$$
