
     RDKit          3D

 29 31  0  0  0  0  0  0  0  0999 V2000
   47.2690   31.4000   45.1550 C   0  0  0  0  0  0  0  0  0  0  0  0
   46.8770   32.7170   45.1390 C   0  0  0  0  0  0  0  0  0  0  0  0
   46.2410   33.3160   46.2100 C   0  0  0  0  0  0  0  0  0  0  0  0
   45.9780   32.5670   47.3590 C   0  0  0  0  0  0  0  0  0  0  0  0
   45.3890   32.8190   48.5640 N   0  0  0  0  0  0  0  0  0  0  0  0
   45.4230   31.6730   49.2970 C   0  0  0  0  0  0  0  0  0  0  0  0
   46.0320   30.7390   48.5280 N   0  0  0  0  0  0  0  0  0  0  0  0
   46.3790   31.2570   47.3460 C   0  0  0  0  0  0  0  0  0  0  0  0
   47.0150   30.6380   46.2930 C   0  0  0  0  0  0  0  0  0  0  0  0
   46.4610   35.2070   42.4640 C   0  0  0  0  0  0  0  0  0  0  0  0
   47.6470   35.0410   41.7160 C   0  0  0  0  0  0  0  0  0  0  0  0
   48.5740   34.0800   42.1370 C   0  0  0  0  0  0  0  0  0  0  0  0
   48.2680   33.3580   43.2570 N   0  0  0  0  0  0  0  0  0  0  0  0
   47.1280   33.5360   43.9540 C   0  0  0  0  0  0  0  0  0  0  0  0
   46.2380   34.4490   43.5620 N   0  0  0  0  0  0  0  0  0  0  0  0
   47.4120   29.2050   46.3790 C   0  0  0  0  0  0  0  0  0  0  0  0
   48.8830   29.0860   46.7150 C   0  0  0  0  0  0  0  0  0  0  0  0
   47.7742   30.9556   44.2848 H   0  0  0  0  0  0  0  0  0  0  0  0
   45.9444   34.3740   46.1578 H   0  0  0  0  0  0  0  0  0  0  0  0
   44.9889   33.7189   48.8657 H   0  0  0  0  0  0  0  0  0  0  0  0
   45.0321   31.5325   50.3156 H   0  0  0  0  0  0  0  0  0  0  0  0
   45.7164   35.9546   42.1531 H   0  0  0  0  0  0  0  0  0  0  0  0
   47.8384   35.6531   40.8223 H   0  0  0  0  0  0  0  0  0  0  0  0
   49.5123   33.9123   41.5879 H   0  0  0  0  0  0  0  0  0  0  0  0
   46.8197   28.7109   47.1632 H   0  0  0  0  0  0  0  0  0  0  0  0
   47.2272   28.7239   45.4072 H   0  0  0  0  0  0  0  0  0  0  0  0
   49.0099   29.0757   47.8076 H   0  0  0  0  0  0  0  0  0  0  0  0
   49.2817   28.1527   46.2908 H   0  0  0  0  0  0  0  0  0  0  0  0
   49.4265   29.9431   46.2908 H   0  0  0  0  0  0  0  0  0  0  0  0
  1  9  2  0
  2  1  1  0
  2  3  2  0
  3  4  1  0
  4  5  1  0
  5  6  1  0
  7  6  2  0
  8  4  2  0
  8  7  1  0
  9 16  1  0
  9  8  1  0
 10 15  2  0
 11 12  2  0
 11 10  1  0
 12 13  1  0
 13 14  2  0
 14  2  1  0
 15 14  1  0
 16 17  1  0
  1 18  1  0
  3 19  1  0
  5 20  1  0
  6 21  1  0
 10 22  1  0
 11 23  1  0
 12 24  1  0
 16 25  1  0
 16 26  1  0
 17 27  1  0
 17 28  1  0
 17 29  1  0
M  ISO  8  18  14  19  14  20   9  21  14  22  14  23  14  24  14  25   8
M  ISO  4  26   8  27   8  28   8  29   8
M  END
>  <minimizedAffinity>  (1) 
-4.99136639

>  <minimizedRMSD>  (1) 
0.248412997

$$$$
