
     RDKit          3D

 27 29  0  0  0  0  0  0  0  0999 V2000
   47.2600   31.3900   45.1250 C   0  0  0  0  0  0  0  0  0  0  0  0
   46.8790   32.7160   45.1070 C   0  0  0  0  0  0  0  0  0  0  0  0
   46.2460   33.3140   46.1790 C   0  0  0  0  0  0  0  0  0  0  0  0
   45.9670   32.5900   47.3280 C   0  0  0  0  0  0  0  0  0  0  0  0
   45.3770   32.8450   48.5350 N   0  0  0  0  0  0  0  0  0  0  0  0
   45.4000   31.6910   49.2700 C   0  0  0  0  0  0  0  0  0  0  0  0
   46.0070   30.7400   48.5010 N   0  0  0  0  0  0  0  0  0  0  0  0
   46.3550   31.2740   47.3210 C   0  0  0  0  0  0  0  0  0  0  0  0
   46.9830   30.6490   46.2760 C   0  0  0  0  0  0  0  0  0  0  0  0
   46.5080   35.2070   42.4220 C   0  0  0  0  0  0  0  0  0  0  0  0
   47.6980   35.0430   41.6990 C   0  0  0  0  0  0  0  0  0  0  0  0
   48.6170   34.0810   42.1380 C   0  0  0  0  0  0  0  0  0  0  0  0
   48.2980   33.3510   43.2540 N   0  0  0  0  0  0  0  0  0  0  0  0
   47.1440   33.5340   43.9280 C   0  0  0  0  0  0  0  0  0  0  0  0
   46.2610   34.4490   43.5180 N   0  0  0  0  0  0  0  0  0  0  0  0
   48.3040   28.4920   47.0120 C   0  0  0  0  0  0  0  0  0  0  0  0
   49.0190   28.9060   47.9390 O   0  0  0  0  0  0  0  0  0  0  0  0
   47.3870   29.2860   46.2650 N   0  0  0  0  0  0  0  0  0  0  0  0
   47.7650   30.9319   44.2618 H   0  0  0  0  0  0  0  0  0  0  0  0
   45.9605   34.3747   46.1206 H   0  0  0  0  0  0  0  0  0  0  0  0
   44.9841   33.7477   48.8379 H   0  0  0  0  0  0  0  0  0  0  0  0
   45.0045   31.5553   50.2874 H   0  0  0  0  0  0  0  0  0  0  0  0
   45.7702   35.9556   42.0976 H   0  0  0  0  0  0  0  0  0  0  0  0
   47.9051   35.6548   40.8086 H   0  0  0  0  0  0  0  0  0  0  0  0
   49.5646   33.9165   41.6042 H   0  0  0  0  0  0  0  0  0  0  0  0
   48.3852   27.4276   46.7466 H   0  0  0  0  0  0  0  0  0  0  0  0
   46.8980   28.7401   45.5413 H   0  0  0  0  0  0  0  0  0  0  0  0
  1  9  2  0
  2  1  1  0
  2  3  2  0
  3  4  1  0
  4  5  1  0
  5  6  1  0
  7  6  2  0
  8  4  2  0
  8  7  1  0
  9  8  1  0
 10 15  2  0
 11 12  2  0
 11 10  1  0
 12 13  1  0
 13 14  2  0
 14  2  1  0
 15 14  1  0
 16 17  2  0
 18  9  1  0
 18 16  1  0
  1 19  1  0
  3 20  1  0
  5 21  1  0
  6 22  1  0
 10 23  1  0
 11 24  1  0
 12 25  1  0
 16 26  1  0
 18 27  1  0
M  ISO  8  19  14  20  14  21   9  22  14  23  14  24  14  25  14  26   6
M  END
>  <minimizedAffinity>  (1) 
-5.03661299

>  <minimizedRMSD>  (1) 
0.204460025

$$$$
