
     RDKit          3D

 28 29  0  0  0  0  0  0  0  0999 V2000
   45.4860   35.9920   43.1050 C   0  0  0  0  0  0  0  0  0  0  0  0
   46.4270   34.9530   43.0770 C   0  0  0  0  0  0  0  0  0  0  0  0
   46.4180   34.0530   44.1400 C   0  0  0  0  0  0  0  0  0  0  0  0
   45.5140   34.2180   45.1390 N   0  0  0  0  0  0  0  0  0  0  0  0
   44.6140   35.2370   45.1360 C   0  0  0  0  0  0  0  0  0  0  0  0
   44.6110   36.1150   44.1160 N   0  0  0  0  0  0  0  0  0  0  0  0
   47.3550   34.8220   42.0060 C   0  0  0  0  0  0  0  0  0  0  0  0
   48.5380   35.1990   42.1990 O   0  0  0  0  0  0  0  0  0  0  0  0
   46.9510   34.2550   40.6820 C   0  0  0  0  0  0  0  0  0  0  0  0
   48.0710   34.4930   39.6880 C   0  0  0  0  0  0  0  0  0  0  0  0
   47.7780   33.8580   38.3710 C   0  0  0  0  0  0  0  0  0  0  0  0
   46.4820   33.1210   38.2820 C   0  0  0  0  0  0  0  0  0  0  0  0
   46.1390   32.2950   39.4840 C   0  0  0  0  0  0  0  0  0  0  0  0
   46.7860   32.7530   40.7600 C   0  0  0  0  0  0  0  0  0  0  0  0
   45.4641   36.7213   42.2818 H   0  0  0  0  0  0  0  0  0  0  0  0
   47.1345   33.2189   44.1695 H   0  0  0  0  0  0  0  0  0  0  0  0
   43.8939   35.3430   45.9608 H   0  0  0  0  0  0  0  0  0  0  0  0
   46.0061   34.7346   40.3868 H   0  0  0  0  0  0  0  0  0  0  0  0
   48.1954   35.5762   39.5426 H   0  0  0  0  0  0  0  0  0  0  0  0
   48.9906   34.0433   40.0906 H   0  0  0  0  0  0  0  0  0  0  0  0
   47.7694   34.6504   37.6081 H   0  0  0  0  0  0  0  0  0  0  0  0
   48.5636   33.1029   38.2205 H   0  0  0  0  0  0  0  0  0  0  0  0
   45.6794   33.8587   38.1347 H   0  0  0  0  0  0  0  0  0  0  0  0
   46.5865   32.4158   37.4443 H   0  0  0  0  0  0  0  0  0  0  0  0
   45.0481   32.3254   39.6218 H   0  0  0  0  0  0  0  0  0  0  0  0
   46.5196   31.2820   39.2864 H   0  0  0  0  0  0  0  0  0  0  0  0
   47.7697   32.2739   40.8737 H   0  0  0  0  0  0  0  0  0  0  0  0
   46.1647   32.4792   41.6255 H   0  0  0  0  0  0  0  0  0  0  0  0
  1  6  2  0
  2  1  1  0
  2  3  2  0
  3  4  1  0
  5  4  2  0
  6  5  1  0
  7  8  2  0
  7  2  1  0
  9 14  1  0
  9  7  1  0
 10  9  1  0
 11 10  1  0
 12 11  1  0
 12 13  1  0
 13 14  1  0
  1 15  1  0
  3 16  1  0
  5 17  1  0
  9 18  1  0
 10 19  1  0
 10 20  1  0
 11 21  1  0
 11 22  1  0
 12 23  1  0
 12 24  1  0
 13 25  1  0
 13 26  1  0
 14 27  1  0
 14 28  1  0
M  ISO  8  15  14  16  14  17  14  18  13  19  13  20  13  21  13  22  13
M  ISO  6  23  13  24  13  25  13  26  13  27  13  28  13
M  END
>  <minimizedAffinity>  (1) 
-4.2602706

>  <minimizedRMSD>  (1) 
0.796369672

$$$$
