
     RDKit          3D

 45 49  0  0  0  0  0  0  0  0999 V2000
   46.5710   31.2770   45.0690 C   0  0  0  0  0  0  0  0  0  0  0  0
   46.5640   32.6600   45.2330 C   0  0  0  0  0  0  0  0  0  0  0  0
   46.2570   33.2820   46.4210 C   0  0  0  0  0  0  0  0  0  0  0  0
   45.9320   32.5120   47.5390 C   0  0  0  0  0  0  0  0  0  0  0  0
   45.5860   32.7630   48.8350 N   0  0  0  0  0  0  0  0  0  0  0  0
   45.3830   31.5740   49.4620 C   0  0  0  0  0  0  0  0  0  0  0  0
   45.6060   30.6100   48.5430 N   0  0  0  0  0  0  0  0  0  0  0  0
   45.9410   31.1580   47.3700 C   0  0  0  0  0  0  0  0  0  0  0  0
   46.2410   30.5070   46.2020 C   0  0  0  0  0  0  0  0  0  0  0  0
   46.3460   35.2140   42.6020 C   0  0  0  0  0  0  0  0  0  0  0  0
   47.5400   35.0490   41.9120 C   0  0  0  0  0  0  0  0  0  0  0  0
   48.4180   34.0620   42.3480 C   0  0  0  0  0  0  0  0  0  0  0  0
   48.0770   33.3020   43.4280 N   0  0  0  0  0  0  0  0  0  0  0  0
   46.9020   33.4930   44.0760 C   0  0  0  0  0  0  0  0  0  0  0  0
   46.0330   34.4420   43.6730 N   0  0  0  0  0  0  0  0  0  0  0  0
   46.2250   29.0480   46.1150 C   0  0  0  0  0  0  0  0  0  0  0  0
   47.2490   28.2720   45.6140 C   0  0  0  0  0  0  0  0  0  0  0  0
   46.7960   26.9620   45.7290 C   0  0  0  0  0  0  0  0  0  0  0  0
   45.5360   27.0100   46.2850 C   0  0  0  0  0  0  0  0  0  0  0  0
   45.2450   28.2810   46.4940 O   0  0  0  0  0  0  0  0  0  0  0  0
   44.6910   25.9030   46.5840 N   0  0  0  0  0  0  0  0  0  0  0  0
   43.9000   25.7310   47.7840 C   0  0  0  0  0  0  0  0  0  0  0  0
   42.4260   25.6090   47.4750 C   0  0  0  0  0  0  0  0  0  0  0  0
   42.1940   25.0710   46.0770 C   0  0  0  0  0  0  0  0  0  0  0  0
   43.2820   24.0870   45.7030 C   0  0  0  0  0  0  0  0  0  0  0  0
   44.5800   24.8200   45.6280 C   0  0  0  0  0  0  0  0  0  0  0  0
   46.8212   30.8100   44.1050 H   0  0  0  0  0  0  0  0  0  0  0  0
   46.2676   34.3798   46.4895 H   0  0  0  0  0  0  0  0  0  0  0  0
   45.4943   33.6945   49.2648 H   0  0  0  0  0  0  0  0  0  0  0  0
   45.0936   31.4260   50.5129 H   0  0  0  0  0  0  0  0  0  0  0  0
   45.6377   35.9885   42.2726 H   0  0  0  0  0  0  0  0  0  0  0  0
   47.7844   35.6808   41.0454 H   0  0  0  0  0  0  0  0  0  0  0  0
   49.3737   33.8968   41.8291 H   0  0  0  0  0  0  0  0  0  0  0  0
   48.2137   28.6144   45.2113 H   0  0  0  0  0  0  0  0  0  0  0  0
   47.3426   26.0551   45.4311 H   0  0  0  0  0  0  0  0  0  0  0  0
   44.2317   24.8183   48.3007 H   0  0  0  0  0  0  0  0  0  0  0  0
   44.0431   26.6194   48.4167 H   0  0  0  0  0  0  0  0  0  0  0  0
   41.9637   24.9254   48.2023 H   0  0  0  0  0  0  0  0  0  0  0  0
   41.9761   26.6108   47.5383 H   0  0  0  0  0  0  0  0  0  0  0  0
   41.2186   24.5638   46.0411 H   0  0  0  0  0  0  0  0  0  0  0  0
   42.2106   25.9091   45.3648 H   0  0  0  0  0  0  0  0  0  0  0  0
   43.3458   23.2971   46.4659 H   0  0  0  0  0  0  0  0  0  0  0  0
   43.0539   23.6252   44.7310 H   0  0  0  0  0  0  0  0  0  0  0  0
   45.3944   24.1050   45.8165 H   0  0  0  0  0  0  0  0  0  0  0  0
   44.6399   25.2678   44.6251 H   0  0  0  0  0  0  0  0  0  0  0  0
  1  2  2  0
  1  9  1  0
  2  3  1  0
  3  4  2  0
  4  5  1  0
  5  6  1  0
  7  6  2  0
  8  4  1  0
  8  7  1  0
  9  8  2  0
 10 15  2  0
 11 12  2  0
 11 10  1  0
 12 13  1  0
 13 14  2  0
 14  2  1  0
 15 14  1  0
 16  9  1  0
 16 20  1  0
 17 18  1  0
 17 16  2  0
 18 19  2  0
 19 20  1  0
 19 21  1  0
 21 22  1  0
 23 22  1  0
 24 23  1  0
 25 24  1  0
 26 25  1  0
 26 21  1  0
  1 27  1  0
  3 28  1  0
  5 29  1  0
  6 30  1  0
 10 31  1  0
 11 32  1  0
 12 33  1  0
 17 34  1  0
 18 35  1  0
 22 36  1  0
 22 37  1  0
 23 38  1  0
 23 39  1  0
 24 40  1  0
 24 41  1  0
 25 42  1  0
 25 43  1  0
 26 44  1  0
 26 45  1  0
M  ISO  8  27  14  28  14  29   9  30  14  31  14  32  14  33  14  34  14
M  ISO  8  35  14  36  13  37  13  38  13  39  13  40  13  41  13  42  13
M  ISO  3  43  13  44  13  45  13
M  END
>  <minimizedAffinity>  (1) 
-5.96021414

>  <minimizedRMSD>  (1) 
1.40150607

$$$$
