
     RDKit          3D

 39 43  0  0  0  0  0  0  0  0999 V2000
   47.2960   31.3240   45.1960 C   0  0  0  0  0  0  0  0  0  0  0  0
   46.9050   32.6560   45.1150 C   0  0  0  0  0  0  0  0  0  0  0  0
   46.2730   33.3070   46.1460 C   0  0  0  0  0  0  0  0  0  0  0  0
   45.9980   32.6360   47.3330 C   0  0  0  0  0  0  0  0  0  0  0  0
   45.4100   32.9430   48.5210 N   0  0  0  0  0  0  0  0  0  0  0  0
   45.4350   31.8380   49.3100 C   0  0  0  0  0  0  0  0  0  0  0  0
   46.0430   30.8540   48.5970 N   0  0  0  0  0  0  0  0  0  0  0  0
   46.3930   31.3180   47.3880 C   0  0  0  0  0  0  0  0  0  0  0  0
   47.0260   30.6380   46.3790 C   0  0  0  0  0  0  0  0  0  0  0  0
   46.6240   35.1000   42.3860 C   0  0  0  0  0  0  0  0  0  0  0  0
   47.6970   34.7860   41.5670 C   0  0  0  0  0  0  0  0  0  0  0  0
   48.5230   33.7220   41.9610 C   0  0  0  0  0  0  0  0  0  0  0  0
   48.2410   33.0520   43.1160 N   0  0  0  0  0  0  0  0  0  0  0  0
   47.1770   33.3950   43.8880 C   0  0  0  0  0  0  0  0  0  0  0  0
   46.3700   34.4110   43.5290 N   0  0  0  0  0  0  0  0  0  0  0  0
   47.4080   29.2340   46.5350 C   0  0  0  0  0  0  0  0  0  0  0  0
   48.5610   28.6740   45.9910 C   0  0  0  0  0  0  0  0  0  0  0  0
   48.4890   27.3370   46.4050 C   0  0  0  0  0  0  0  0  0  0  0  0
   47.3420   27.1650   47.1490 C   0  0  0  0  0  0  0  0  0  0  0  0
   46.7280   28.3410   47.1960 O   0  0  0  0  0  0  0  0  0  0  0  0
   46.8650   25.9380   47.7780 C   0  0  0  0  0  0  0  0  0  0  0  0
   45.7000   25.3620   47.3080 C   0  0  0  0  0  0  0  0  0  0  0  0
   45.2620   24.2020   47.9130 C   0  0  0  0  0  0  0  0  0  0  0  0
   46.0220   23.6970   48.9490 C   0  0  0  0  0  0  0  0  0  0  0  0
   47.1860   24.2700   49.4190 C   0  0  0  0  0  0  0  0  0  0  0  0
   47.5840   25.4160   48.7930 N   0  0  0  0  0  0  0  0  0  0  0  0
   47.8016   30.8281   44.3543 H   0  0  0  0  0  0  0  0  0  0  0  0
   45.9834   34.3621   46.0327 H   0  0  0  0  0  0  0  0  0  0  0  0
   45.0133   33.8581   48.7782 H   0  0  0  0  0  0  0  0  0  0  0  0
   45.0382   31.7552   50.3326 H   0  0  0  0  0  0  0  0  0  0  0  0
   45.9598   35.9298   42.1028 H   0  0  0  0  0  0  0  0  0  0  0  0
   47.8938   35.3495   40.6430 H   0  0  0  0  0  0  0  0  0  0  0  0
   49.3876   33.4315   41.3461 H   0  0  0  0  0  0  0  0  0  0  0  0
   49.3384   29.1618   45.3845 H   0  0  0  0  0  0  0  0  0  0  0  0
   49.2264   26.5541   46.1741 H   0  0  0  0  0  0  0  0  0  0  0  0
   45.1391   25.8145   46.4770 H   0  0  0  0  0  0  0  0  0  0  0  0
   44.3417   23.6984   47.5823 H   0  0  0  0  0  0  0  0  0  0  0  0
   45.6752   22.7726   49.4340 H   0  0  0  0  0  0  0  0  0  0  0  0
   47.7589   23.8297   50.2484 H   0  0  0  0  0  0  0  0  0  0  0  0
  1  9  2  0
  2  1  1  0
  2  3  2  0
  3  4  1  0
  4  8  2  0
  4  5  1  0
  5  6  1  0
  7  6  2  0
  8  7  1  0
  9 16  1  0
  9  8  1  0
 10 15  2  0
 11 12  2  0
 11 10  1  0
 12 13  1  0
 13 14  2  0
 14  2  1  0
 15 14  1  0
 16 20  1  0
 17 18  1  0
 17 16  2  0
 18 19  2  0
 19 20  1  0
 19 21  1  0
 21 26  1  0
 22 21  2  0
 22 23  1  0
 23 24  2  0
 24 25  1  0
 26 25  2  0
  1 27  1  0
  3 28  1  0
  5 29  1  0
  6 30  1  0
 10 31  1  0
 11 32  1  0
 12 33  1  0
 17 34  1  0
 18 35  1  0
 22 36  1  0
 23 37  1  0
 24 38  1  0
 25 39  1  0
M  ISO  8  27  14  28  14  29   9  30  14  31  14  32  14  33  14  34  14
M  ISO  5  35  14  36  14  37  14  38  14  39  14
M  END
>  <minimizedAffinity>  (1) 
-5.90063953

>  <minimizedRMSD>  (1) 
1.1188637

$$$$
