
     RDKit          3D

 31 34  0  0  0  0  0  0  0  0999 V2000
   47.2540   31.4000   45.1540 C   0  0  0  0  0  0  0  0  0  0  0  0
   46.8620   32.7400   45.1440 C   0  0  0  0  0  0  0  0  0  0  0  0
   46.2330   33.3380   46.2070 C   0  0  0  0  0  0  0  0  0  0  0  0
   45.9610   32.6020   47.3580 C   0  0  0  0  0  0  0  0  0  0  0  0
   45.3730   32.8520   48.5640 N   0  0  0  0  0  0  0  0  0  0  0  0
   45.4030   31.7030   49.2940 C   0  0  0  0  0  0  0  0  0  0  0  0
   46.0050   30.7650   48.5320 N   0  0  0  0  0  0  0  0  0  0  0  0
   46.3540   31.2880   47.3450 C   0  0  0  0  0  0  0  0  0  0  0  0
   46.9870   30.6550   46.2980 C   0  0  0  0  0  0  0  0  0  0  0  0
   46.4670   35.1870   42.4310 C   0  0  0  0  0  0  0  0  0  0  0  0
   47.6560   35.0140   41.7030 C   0  0  0  0  0  0  0  0  0  0  0  0
   48.5800   34.0720   42.1350 C   0  0  0  0  0  0  0  0  0  0  0  0
   48.2740   33.3600   43.2570 N   0  0  0  0  0  0  0  0  0  0  0  0
   47.1370   33.5310   43.9470 C   0  0  0  0  0  0  0  0  0  0  0  0
   46.2270   34.4460   43.5380 N   0  0  0  0  0  0  0  0  0  0  0  0
   47.3670   29.2490   46.3850 C   0  0  0  0  0  0  0  0  0  0  0  0
   48.6440   28.7850   46.5810 C   0  0  0  0  0  0  0  0  0  0  0  0
   48.5200   27.3990   46.5940 C   0  0  0  0  0  0  0  0  0  0  0  0
   47.1910   27.0940   46.4080 C   0  0  0  0  0  0  0  0  0  0  0  0
   46.5350   28.2370   46.2870 O   0  0  0  0  0  0  0  0  0  0  0  0
   46.2610   25.5720   46.3080 S   0  0  0  0  0  0  0  0  0  0  0  0
   47.7572   30.9485   44.2863 H   0  0  0  0  0  0  0  0  0  0  0  0
   45.9438   34.3978   46.1502 H   0  0  0  0  0  0  0  0  0  0  0  0
   44.9760   33.7523   48.8686 H   0  0  0  0  0  0  0  0  0  0  0  0
   45.0108   31.5650   50.3124 H   0  0  0  0  0  0  0  0  0  0  0  0
   45.7263   35.9295   42.0992 H   0  0  0  0  0  0  0  0  0  0  0  0
   47.8521   35.6162   40.8036 H   0  0  0  0  0  0  0  0  0  0  0  0
   49.5227   33.9064   41.5929 H   0  0  0  0  0  0  0  0  0  0  0  0
   49.5627   29.3780   46.7013 H   0  0  0  0  0  0  0  0  0  0  0  0
   49.3382   26.6763   46.7289 H   0  0  0  0  0  0  0  0  0  0  0  0
   45.9856   25.1212   47.5721 H   0  0  0  0  0  0  0  0  0  0  0  0
  1  9  2  0
  2  1  1  0
  2  3  2  0
  3  4  1  0
  4  5  1  0
  5  6  1  0
  7  6  2  0
  8  4  2  0
  8  7  1  0
  9 16  1  0
  9  8  1  0
 10 15  2  0
 11 12  2  0
 11 10  1  0
 12 13  1  0
 13 14  2  0
 14  2  1  0
 15 14  1  0
 16 17  2  0
 17 18  1  0
 19 18  2  0
 20 16  1  0
 20 19  1  0
 21 19  1  0
  1 22  1  0
  3 23  1  0
  5 24  1  0
  6 25  1  0
 10 26  1  0
 11 27  1  0
 12 28  1  0
 17 29  1  0
 18 30  1  0
 21 31  1  0
M  ISO  8  22  14  23  14  24   9  25  14  26  14  27  14  28  14  29  14
M  ISO  2  30  14  31  11
M  END
>  <minimizedAffinity>  (1) 
-5.26373768

>  <minimizedRMSD>  (1) 
0.0207536183

$$$$
