
     RDKit          3D

 39 41  0  0  0  0  0  0  0  0999 V2000
   46.6820   32.7860   38.8750 N   0  0  0  0  0  0  0  0  0  0  0  0
   46.7460   31.7060   37.9540 C   0  0  0  0  0  0  0  0  0  0  0  0
   46.7690   32.4530   36.6080 C   0  0  0  0  0  0  0  0  0  0  0  0
   47.8840   33.4140   36.4790 C   0  0  0  0  0  0  0  0  0  0  0  0
   48.5750   33.8200   37.7280 C   0  0  0  0  0  0  0  0  0  0  0  0
   47.9380   33.5120   39.0130 C   0  0  0  0  0  0  0  0  0  0  0  0
   48.5230   33.9950   40.2170 C   0  0  0  0  0  0  0  0  0  0  0  0
   49.0300   33.2320   41.2310 C   0  0  0  0  0  0  0  0  0  0  0  0
   49.5530   33.7320   42.4020 C   0  0  0  0  0  0  0  0  0  0  0  0
   49.5890   35.0930   42.6140 C   0  0  0  0  0  0  0  0  0  0  0  0
   49.0840   35.8830   41.6070 C   0  0  0  0  0  0  0  0  0  0  0  0
   48.5670   35.3490   40.4440 C   0  0  0  0  0  0  0  0  0  0  0  0
   45.5540   33.3250   39.4160 C   0  0  0  0  0  0  0  0  0  0  0  0
   45.1270   32.5480   40.6380 C   0  0  0  0  0  0  0  0  0  0  0  0
   45.4090   33.3670   41.8210 C   0  0  0  0  0  0  0  0  0  0  0  0
   45.2340   34.7290   41.8190 C   0  0  0  0  0  0  0  0  0  0  0  0
   45.5150   35.4780   42.9660 C   0  0  0  0  0  0  0  0  0  0  0  0
   45.9600   34.7850   44.0510 N   0  0  0  0  0  0  0  0  0  0  0  0
   46.1180   33.4620   44.0190 C   0  0  0  0  0  0  0  0  0  0  0  0
   45.8420   32.7760   42.9120 N   0  0  0  0  0  0  0  0  0  0  0  0
   47.6583   31.1085   38.0978 H   0  0  0  0  0  0  0  0  0  0  0  0
   45.9229   30.9829   38.0521 H   0  0  0  0  0  0  0  0  0  0  0  0
   46.8555   31.7108   35.8007 H   0  0  0  0  0  0  0  0  0  0  0  0
   45.8367   33.0336   36.5475 H   0  0  0  0  0  0  0  0  0  0  0  0
   48.6363   32.9615   35.8162 H   0  0  0  0  0  0  0  0  0  0  0  0
   47.4218   34.3362   36.0970 H   0  0  0  0  0  0  0  0  0  0  0  0
   49.5434   34.3404   37.6910 H   0  0  0  0  0  0  0  0  0  0  0  0
   49.0194   32.1396   41.1022 H   0  0  0  0  0  0  0  0  0  0  0  0
   49.9420   33.0453   43.1682 H   0  0  0  0  0  0  0  0  0  0  0  0
   49.9995   35.5248   43.5387 H   0  0  0  0  0  0  0  0  0  0  0  0
   49.0926   36.9757   41.7329 H   0  0  0  0  0  0  0  0  0  0  0  0
   48.1773   36.0303   39.6733 H   0  0  0  0  0  0  0  0  0  0  0  0
   45.7533   34.3682   39.7023 H   0  0  0  0  0  0  0  0  0  0  0  0
   44.7474   33.2828   38.6692 H   0  0  0  0  0  0  0  0  0  0  0  0
   44.0502   32.3301   40.5836 H   0  0  0  0  0  0  0  0  0  0  0  0
   45.6751   31.5959   40.6946 H   0  0  0  0  0  0  0  0  0  0  0  0
   44.8712   35.2331   40.9111 H   0  0  0  0  0  0  0  0  0  0  0  0
   45.3835   36.5698   42.9908 H   0  0  0  0  0  0  0  0  0  0  0  0
   46.4790   32.9332   44.9135 H   0  0  0  0  0  0  0  0  0  0  0  0
  1  6  1  0
  1 13  1  0
  2  1  1  0
  3  2  1  0
  4  3  1  0
  4  5  1  0
  5  6  2  0
  6  7  1  0
  7 12  1  0
  7  8  2  0
  8  9  1  0
  9 10  2  0
 11 10  1  0
 12 11  2  0
 13 14  1  0
 14 15  1  0
 15 20  1  0
 16 15  2  0
 16 17  1  0
 17 18  2  0
 19 18  1  0
 20 19  2  0
  2 21  1  0
  2 22  1  0
  3 23  1  0
  3 24  1  0
  4 25  1  0
  4 26  1  0
  5 27  1  0
  8 28  1  0
  9 29  1  0
 10 30  1  0
 11 31  1  0
 12 32  1  0
 13 33  1  0
 13 34  1  0
 14 35  1  0
 14 36  1  0
 16 37  1  0
 17 38  1  0
 19 39  1  0
M  ISO  8  21  13  22  13  23  13  24  13  25  13  26  13  27  13  28  14
M  ISO  8  29  14  30  14  31  14  32  14  33   8  34   8  35   8  36   8
M  ISO  3  37  14  38  14  39  14
M  END
>  <minimizedAffinity>  (1) 
-4.74766207

>  <minimizedRMSD>  (1) 
3.74592352

$$$$
