
     RDKit          3D

 36 38  0  0  0  0  0  0  0  0999 V2000
   46.2720   34.0500   41.7010 N   0  0  0  0  0  0  0  0  0  0  0  0
   47.0400   33.5060   40.6410 C   0  0  0  0  0  0  0  0  0  0  0  0
   47.9790   34.6800   40.3170 C   0  0  0  0  0  0  0  0  0  0  0  0
   48.7950   35.1350   41.4650 C   0  0  0  0  0  0  0  0  0  0  0  0
   48.3560   34.7290   42.8050 C   0  0  0  0  0  0  0  0  0  0  0  0
   46.9890   34.1500   42.9630 C   0  0  0  0  0  0  0  0  0  0  0  0
   46.4960   33.8190   44.2720 C   0  0  0  0  0  0  0  0  0  0  0  0
   46.7940   32.8260   45.1670 C   0  0  0  0  0  0  0  0  0  0  0  0
   45.9950   32.9590   46.2820 C   0  0  0  0  0  0  0  0  0  0  0  0
   45.2330   34.0350   46.0240 N   0  0  0  0  0  0  0  0  0  0  0  0
   45.5360   34.5340   44.8370 N   0  0  0  0  0  0  0  0  0  0  0  0
   45.0710   34.6630   41.6130 C   0  0  0  0  0  0  0  0  0  0  0  0
   44.2290   34.0450   40.5240 C   0  0  0  0  0  0  0  0  0  0  0  0
   42.8150   34.2200   40.9010 C   0  0  0  0  0  0  0  0  0  0  0  0
   42.2830   35.4740   41.1580 C   0  0  0  0  0  0  0  0  0  0  0  0
   40.9310   35.5600   41.5080 C   0  0  0  0  0  0  0  0  0  0  0  0
   40.2060   34.4080   41.5800 N   0  0  0  0  0  0  0  0  0  0  0  0
   40.7730   33.2180   41.3230 C   0  0  0  0  0  0  0  0  0  0  0  0
   42.0550   33.1500   40.9910 N   0  0  0  0  0  0  0  0  0  0  0  0
   47.6024   32.6181   40.9655 H   0  0  0  0  0  0  0  0  0  0  0  0
   46.4435   33.1564   39.7854 H   0  0  0  0  0  0  0  0  0  0  0  0
   48.6598   34.3660   39.5120 H   0  0  0  0  0  0  0  0  0  0  0  0
   47.3399   35.5268   40.0263 H   0  0  0  0  0  0  0  0  0  0  0  0
   49.8145   34.7482   41.3198 H   0  0  0  0  0  0  0  0  0  0  0  0
   48.7056   36.2313   41.4584 H   0  0  0  0  0  0  0  0  0  0  0  0
   49.0196   34.8486   43.6741 H   0  0  0  0  0  0  0  0  0  0  0  0
   47.5531   32.0438   45.0189 H   0  0  0  0  0  0  0  0  0  0  0  0
   45.9837   32.3260   47.1816 H   0  0  0  0  0  0  0  0  0  0  0  0
   44.5167   34.4161   46.6585 H   0  0  0  0  0  0  0  0  0  0  0  0
   44.5453   34.5646   42.5742 H   0  0  0  0  0  0  0  0  0  0  0  0
   45.2348   35.7235   41.3712 H   0  0  0  0  0  0  0  0  0  0  0  0
   44.4627   32.9741   40.4312 H   0  0  0  0  0  0  0  0  0  0  0  0
   44.4336   34.5272   39.5567 H   0  0  0  0  0  0  0  0  0  0  0  0
   42.9070   36.3772   41.0886 H   0  0  0  0  0  0  0  0  0  0  0  0
   40.4646   36.5335   41.7199 H   0  0  0  0  0  0  0  0  0  0  0  0
   40.1730   32.2983   41.3880 H   0  0  0  0  0  0  0  0  0  0  0  0
  1  6  1  0
  2  1  1  0
  3  2  1  0
  3  4  1  0
  4  5  1  0
  5  6  2  0
  6  7  1  0
  7 11  2  0
  7  8  1  0
  8  9  2  0
 10  9  1  0
 11 10  1  0
 12  1  1  0
 13 14  1  0
 13 12  1  0
 14 19  1  0
 14 15  2  0
 15 16  1  0
 16 17  2  0
 18 17  1  0
 19 18  2  0
  2 20  1  0
  2 21  1  0
  3 22  1  0
  3 23  1  0
  4 24  1  0
  4 25  1  0
  5 26  1  0
  8 27  1  0
  9 28  1  0
 10 29  1  0
 12 30  1  0
 12 31  1  0
 13 32  1  0
 13 33  1  0
 15 34  1  0
 16 35  1  0
 18 36  1  0
M  ISO  8  20  13  21  13  22  13  23  13  24  13  25  13  26  13  27  14
M  ISO  8  28  14  29   9  30   8  31   8  32   8  33   8  34  14  35  14
M  ISO  1  36  14
M  END
>  <minimizedAffinity>  (1) 
-5.30418253

>  <minimizedRMSD>  (1) 
4.36454678

$$$$
