
     RDKit          3D

 19 20  0  0  0  0  0  0  0  0999 V2000
   45.4450   36.0580   43.2040 C   0  0  0  0  0  0  0  0  0  0  0  0
   46.3520   34.9930   43.0480 C   0  0  0  0  0  0  0  0  0  0  0  0
   46.3700   34.0140   44.0510 C   0  0  0  0  0  0  0  0  0  0  0  0
   45.5310   34.1340   45.1070 N   0  0  0  0  0  0  0  0  0  0  0  0
   44.6710   35.1840   45.2140 C   0  0  0  0  0  0  0  0  0  0  0  0
   44.6270   36.1450   44.2650 N   0  0  0  0  0  0  0  0  0  0  0  0
   47.2000   34.9390   41.9110 C   0  0  0  0  0  0  0  0  0  0  0  0
   48.3020   35.5130   41.9750 O   0  0  0  0  0  0  0  0  0  0  0  0
   46.8210   34.2450   40.7020 C   0  0  0  0  0  0  0  0  0  0  0  0
   47.5160   33.9370   39.5880 C   0  0  0  0  0  0  0  0  0  0  0  0
   46.9530   33.2690   38.5590 C   0  0  0  0  0  0  0  0  0  0  0  0
   45.5700   32.9240   38.7590 C   0  0  0  0  0  0  0  0  0  0  0  0
   45.1960   33.6010   40.4340 S   0  0  0  0  0  0  0  0  0  0  0  0
   45.4052   36.8423   42.4337 H   0  0  0  0  0  0  0  0  0  0  0  0
   47.0576   33.1583   43.9811 H   0  0  0  0  0  0  0  0  0  0  0  0
   44.0027   35.2510   46.0851 H   0  0  0  0  0  0  0  0  0  0  0  0
   48.5714   34.2386   39.5159 H   0  0  0  0  0  0  0  0  0  0  0  0
   47.5053   33.0098   37.6437 H   0  0  0  0  0  0  0  0  0  0  0  0
   44.8967   32.3852   38.0761 H   0  0  0  0  0  0  0  0  0  0  0  0
  1  6  2  0
  2  1  1  0
  2  3  2  0
  3  4  1  0
  4  5  2  0
  6  5  1  0
  7  8  2  0
  7  2  1  0
  9  7  1  0
 10  9  2  0
 11 12  2  0
 11 10  1  0
 12 13  1  0
 13  9  1  0
  1 14  1  0
  3 15  1  0
  5 16  1  0
 10 17  1  0
 11 18  1  0
 12 19  1  0
M  ISO  6  14  14  15  14  16  14  17  14  18  14  19  14
M  END
>  <minimizedAffinity>  (1) 
-3.99762797

>  <minimizedRMSD>  (1) 
1.03445196

$$$$
