
     RDKit          3D

 31 32  0  0  0  0  0  0  0  0999 V2000
   45.9730   34.0830   41.5240 N   0  0  0  0  0  0  0  0  0  0  0  0
   46.9300   33.6400   40.5880 C   0  0  0  0  0  0  0  0  0  0  0  0
   47.9720   34.7680   40.6660 C   0  0  0  0  0  0  0  0  0  0  0  0
   48.5540   34.9440   42.0050 C   0  0  0  0  0  0  0  0  0  0  0  0
   47.7890   34.3670   43.1560 C   0  0  0  0  0  0  0  0  0  0  0  0
   46.3990   33.9380   42.9130 C   0  0  0  0  0  0  0  0  0  0  0  0
   44.8510   34.8050   41.2930 C   0  0  0  0  0  0  0  0  0  0  0  0
   44.0120   34.1450   40.2230 C   0  0  0  0  0  0  0  0  0  0  0  0
   42.6890   34.8000   40.2340 C   0  0  0  0  0  0  0  0  0  0  0  0
   42.0960   35.2060   41.4040 C   0  0  0  0  0  0  0  0  0  0  0  0
   40.8450   35.8290   41.3790 C   0  0  0  0  0  0  0  0  0  0  0  0
   40.2740   36.0010   40.1600 N   0  0  0  0  0  0  0  0  0  0  0  0
   40.8840   35.5910   39.0400 C   0  0  0  0  0  0  0  0  0  0  0  0
   42.0650   35.0050   39.0970 N   0  0  0  0  0  0  0  0  0  0  0  0
   45.5850   33.4880   44.0230 C   0  0  0  0  0  0  0  0  0  0  0  0
   45.2900   34.4210   44.8080 O   0  0  0  0  0  0  0  0  0  0  0  0
   46.4991   33.5588   39.5792 H   0  0  0  0  0  0  0  0  0  0  0  0
   47.3339   32.6383   40.7963 H   0  0  0  0  0  0  0  0  0  0  0  0
   48.7850   34.5390   39.9614 H   0  0  0  0  0  0  0  0  0  0  0  0
   47.4513   35.7043   40.4163 H   0  0  0  0  0  0  0  0  0  0  0  0
   49.5494   34.4759   41.9992 H   0  0  0  0  0  0  0  0  0  0  0  0
   48.5559   36.0305   42.1770 H   0  0  0  0  0  0  0  0  0  0  0  0
   48.2488   34.2664   44.1502 H   0  0  0  0  0  0  0  0  0  0  0  0
   44.2659   34.8731   42.2220 H   0  0  0  0  0  0  0  0  0  0  0  0
   45.1373   35.8111   40.9526 H   0  0  0  0  0  0  0  0  0  0  0  0
   43.9023   33.0721   40.4395 H   0  0  0  0  0  0  0  0  0  0  0  0
   44.4885   34.2477   39.2369 H   0  0  0  0  0  0  0  0  0  0  0  0
   42.6070   35.0405   42.3639 H   0  0  0  0  0  0  0  0  0  0  0  0
   40.3480   36.1633   42.3016 H   0  0  0  0  0  0  0  0  0  0  0  0
   40.3969   35.7439   38.0657 H   0  0  0  0  0  0  0  0  0  0  0  0
   45.2619   32.4458   44.1621 H   0  0  0  0  0  0  0  0  0  0  0  0
  1  6  1  0
  2  3  1  0
  2  1  1  0
  3  4  1  0
  4  5  1  0
  6  5  2  0
  6 15  1  0
  7  1  1  0
  8  9  1  0
  8  7  1  0
  9 10  2  0
 11 10  1  0
 12 11  2  0
 13 14  2  0
 13 12  1  0
 14  9  1  0
 15 16  2  0
  2 17  1  0
  2 18  1  0
  3 19  1  0
  3 20  1  0
  4 21  1  0
  4 22  1  0
  5 23  1  0
  7 24  1  0
  7 25  1  0
  8 26  1  0
  8 27  1  0
 10 28  1  0
 11 29  1  0
 13 30  1  0
 15 31  1  0
M  ISO  8  17  13  18  13  19  13  20  13  21  13  22  13  23  13  24   8
M  ISO  7  25   8  26   8  27   8  28  14  29  14  30  14  31   6
M  END
>  <minimizedAffinity>  (1) 
-4.33580494

>  <minimizedRMSD>  (1) 
4.67639017

$$$$
