
     RDKit          3D

 33 34  0  0  0  0  0  0  0  0999 V2000
   48.6940   32.5650   42.7850 N   0  0  0  0  0  0  0  0  0  0  0  0
   49.0820   31.2960   43.2710 C   0  0  0  0  0  0  0  0  0  0  0  0
   49.7190   30.6740   42.0210 C   0  0  0  0  0  0  0  0  0  0  0  0
   50.8330   31.4540   41.4480 C   0  0  0  0  0  0  0  0  0  0  0  0
   50.9610   32.8690   41.8680 C   0  0  0  0  0  0  0  0  0  0  0  0
   49.7990   33.4930   42.5750 C   0  0  0  0  0  0  0  0  0  0  0  0
   49.4100   35.9720   42.1260 C   0  0  0  0  0  0  0  0  0  0  0  0
   48.9570   35.8530   40.9640 O   0  0  0  0  0  0  0  0  0  0  0  0
   49.8220   34.8680   42.9270 N   0  0  0  0  0  0  0  0  0  0  0  0
   47.4930   32.9440   42.3050 C   0  0  0  0  0  0  0  0  0  0  0  0
   46.4050   32.6670   43.3120 C   0  0  0  0  0  0  0  0  0  0  0  0
   45.8100   33.9680   43.6840 C   0  0  0  0  0  0  0  0  0  0  0  0
   45.8020   35.0320   42.8080 C   0  0  0  0  0  0  0  0  0  0  0  0
   45.2220   36.2400   43.2120 C   0  0  0  0  0  0  0  0  0  0  0  0
   44.6900   36.2940   44.4650 N   0  0  0  0  0  0  0  0  0  0  0  0
   44.7180   35.2390   45.2830 C   0  0  0  0  0  0  0  0  0  0  0  0
   45.2750   34.1000   44.8780 N   0  0  0  0  0  0  0  0  0  0  0  0
   49.8094   31.3847   44.0914 H   0  0  0  0  0  0  0  0  0  0  0  0
   48.2566   30.7058   43.6958 H   0  0  0  0  0  0  0  0  0  0  0  0
   50.0999   29.6776   42.2894 H   0  0  0  0  0  0  0  0  0  0  0  0
   48.9325   30.6419   41.2527 H   0  0  0  0  0  0  0  0  0  0  0  0
   50.7148   31.4438   40.3544 H   0  0  0  0  0  0  0  0  0  0  0  0
   51.7428   30.9648   41.8260 H   0  0  0  0  0  0  0  0  0  0  0  0
   51.8787   33.4413   41.6670 H   0  0  0  0  0  0  0  0  0  0  0  0
   49.4942   36.9832   42.5507 H   0  0  0  0  0  0  0  0  0  0  0  0
   50.1765   35.0930   43.8675 H   0  0  0  0  0  0  0  0  0  0  0  0
   47.5157   34.0216   42.0851 H   0  0  0  0  0  0  0  0  0  0  0  0
   47.2815   32.3721   41.3895 H   0  0  0  0  0  0  0  0  0  0  0  0
   45.6380   32.0153   42.8681 H   0  0  0  0  0  0  0  0  0  0  0  0
   46.8137   32.1579   44.1973 H   0  0  0  0  0  0  0  0  0  0  0  0
   46.2450   34.9332   41.8060 H   0  0  0  0  0  0  0  0  0  0  0  0
   45.1967   37.1129   42.5431 H   0  0  0  0  0  0  0  0  0  0  0  0
   44.2814   35.3111   46.2901 H   0  0  0  0  0  0  0  0  0  0  0  0
  1  2  1  0
  3  2  1  0
  4  5  1  0
  4  3  1  0
  5  6  2  0
  6  1  1  0
  6  9  1  0
  7  9  1  0
  8  7  2  0
 10  1  1  0
 10 11  1  0
 11 12  1  0
 12 17  2  0
 13 14  2  0
 13 12  1  0
 14 15  1  0
 15 16  2  0
 17 16  1  0
  2 18  1  0
  2 19  1  0
  3 20  1  0
  3 21  1  0
  4 22  1  0
  4 23  1  0
  5 24  1  0
  7 25  1  0
  9 26  1  0
 10 27  1  0
 10 28  1  0
 11 29  1  0
 11 30  1  0
 13 31  1  0
 14 32  1  0
 16 33  1  0
M  ISO  8  18  13  19  13  20  13  21  13  22  13  23  13  24  13  25   6
M  ISO  7  27   8  28   8  29   8  30   8  31  14  32  14  33  14
M  END
>  <minimizedAffinity>  (1) 
-4.59882259

>  <minimizedRMSD>  (1) 
1.21807599

$$$$
