
     RDKit          3D

 13 13  0  0  0  0  0  0  0  0999 V2000
   45.2090   35.9670   43.3740 C   0  0  0  0  0  0  0  0  0  0  0  0
   46.1020   34.9020   43.1540 C   0  0  0  0  0  0  0  0  0  0  0  0
   46.2620   33.9580   44.1560 C   0  0  0  0  0  0  0  0  0  0  0  0
   45.5530   34.1110   45.2910 N   0  0  0  0  0  0  0  0  0  0  0  0
   44.6970   35.1360   45.4960 C   0  0  0  0  0  0  0  0  0  0  0  0
   44.5250   36.0660   44.5340 N   0  0  0  0  0  0  0  0  0  0  0  0
   46.8020   34.8510   41.8980 C   0  0  0  0  0  0  0  0  0  0  0  0
   47.9450   35.3510   41.8380 O   0  0  0  0  0  0  0  0  0  0  0  0
   46.1550   34.2450   40.8250 O   0  0  0  0  0  0  0  0  0  0  0  0
   45.0665   36.7275   42.5921 H   0  0  0  0  0  0  0  0  0  0  0  0
   46.9484   33.1080   44.0280 H   0  0  0  0  0  0  0  0  0  0  0  0
   44.1428   35.2119   46.4431 H   0  0  0  0  0  0  0  0  0  0  0  0
   46.6031   34.1898   39.9439 H   0  0  0  0  0  0  0  0  0  0  0  0
  1  6  2  0
  2  1  1  0
  2  3  2  0
  3  4  1  0
  4  5  2  0
  6  5  1  0
  7  2  1  0
  8  7  2  0
  9  7  1  0
  1 10  1  0
  3 11  1  0
  5 12  1  0
  9 13  1  0
M  ISO  4  10  14  11  14  12  14  13   3
M  END
>  <minimizedAffinity>  (1) 
-3.31821704

>  <minimizedRMSD>  (1) 
0.0457508415

$$$$
