
     RDKit          3D

 33 34  0  0  0  0  0  0  0  0999 V2000
   45.8160   34.9010   41.9000 C   0  0  0  0  0  0  0  0  0  0  0  0
   46.6420   34.4850   42.8560 N   0  0  0  0  0  0  0  0  0  0  0  0
   46.3320   34.0500   44.1700 C   0  0  0  0  0  0  0  0  0  0  0  0
   46.4740   32.5210   43.9450 C   0  0  0  0  0  0  0  0  0  0  0  0
   47.8230   32.1230   43.5390 C   0  0  0  0  0  0  0  0  0  0  0  0
   48.6800   33.1140   42.8930 C   0  0  0  0  0  0  0  0  0  0  0  0
   48.0610   34.4250   42.4830 C   0  0  0  0  0  0  0  0  0  0  0  0
   48.9760   35.6630   41.6260 S   0  0  0  0  0  0  0  0  0  0  0  0
   44.5550   35.5090   42.4310 C   0  0  0  0  0  0  0  0  0  0  0  0
   43.4200   34.8030   41.7780 C   0  0  0  0  0  0  0  0  0  0  0  0
   43.3650   33.4240   41.7180 C   0  0  0  0  0  0  0  0  0  0  0  0
   42.2650   32.8460   41.0720 C   0  0  0  0  0  0  0  0  0  0  0  0
   41.3060   33.6670   40.5370 N   0  0  0  0  0  0  0  0  0  0  0  0
   41.4220   34.9940   40.6310 C   0  0  0  0  0  0  0  0  0  0  0  0
   42.4630   35.5420   41.2420 N   0  0  0  0  0  0  0  0  0  0  0  0
   40.3410   35.8250   40.0260 C   0  0  0  0  0  0  0  0  0  0  0  0
   39.2940   34.9920   39.7130 F   0  0  0  0  0  0  0  0  0  0  0  0
   39.9470   36.8430   40.8470 F   0  0  0  0  0  0  0  0  0  0  0  0
   40.8260   36.3310   38.8140 F   0  0  0  0  0  0  0  0  0  0  0  0
   45.5499   34.0400   41.2692 H   0  0  0  0  0  0  0  0  0  0  0  0
   46.3415   35.6833   41.3327 H   0  0  0  0  0  0  0  0  0  0  0  0
   47.0504   34.4283   44.9122 H   0  0  0  0  0  0  0  0  0  0  0  0
   45.3636   34.3865   44.5688 H   0  0  0  0  0  0  0  0  0  0  0  0
   46.2241   32.0044   44.8834 H   0  0  0  0  0  0  0  0  0  0  0  0
   45.7909   32.2449   43.1283 H   0  0  0  0  0  0  0  0  0  0  0  0
   48.3468   31.7823   44.4443 H   0  0  0  0  0  0  0  0  0  0  0  0
   47.6557   31.3647   42.7599 H   0  0  0  0  0  0  0  0  0  0  0  0
   49.7454   32.9092   42.7113 H   0  0  0  0  0  0  0  0  0  0  0  0
   49.5866   36.4891   42.5324 H   0  0  0  0  0  0  0  0  0  0  0  0
   44.5033   35.3781   43.5220 H   0  0  0  0  0  0  0  0  0  0  0  0
   44.5202   36.5875   42.2172 H   0  0  0  0  0  0  0  0  0  0  0  0
   44.1566   32.8023   42.1616 H   0  0  0  0  0  0  0  0  0  0  0  0
   42.1720   31.7526   40.9952 H   0  0  0  0  0  0  0  0  0  0  0  0
  1  9  1  0
  1  2  1  0
  2  3  1  0
  4  3  1  0
  5  4  1  0
  6  5  1  0
  7  2  1  0
  7  6  2  0
  8  7  1  0
 10  9  1  0
 11 10  2  0
 12 11  1  0
 13 14  1  0
 13 12  2  0
 14 15  2  0
 15 10  1  0
 16 14  1  0
 16 18  1  0
 17 16  1  0
 19 16  1  0
  1 20  1  0
  1 21  1  0
  3 22  1  0
  3 23  1  0
  4 24  1  0
  4 25  1  0
  5 26  1  0
  5 27  1  0
  6 28  1  0
  8 29  1  0
  9 30  1  0
  9 31  1  0
 11 32  1  0
 12 33  1  0
M  ISO  8  20   8  21   8  22  13  23  13  24  13  25  13  26  13  27  13
M  ISO  6  28  13  29  11  30   8  31   8  32  14  33  14
M  END
>  <minimizedAffinity>  (1) 
-5.14440966

>  <minimizedRMSD>  (1) 
2.94561124

$$$$
