
     RDKit          3D

 37 39  0  0  0  0  0  0  0  0999 V2000
   44.0150   33.4160   39.8830 C   0  0  0  0  0  0  0  0  0  0  0  0
   45.0600   33.1330   38.8620 C   0  0  0  0  0  0  0  0  0  0  0  0
   44.7850   33.1100   37.5050 C   0  0  0  0  0  0  0  0  0  0  0  0
   45.8200   32.8200   36.6250 C   0  0  0  0  0  0  0  0  0  0  0  0
   47.0510   32.5720   37.1450 N   0  0  0  0  0  0  0  0  0  0  0  0
   47.2890   32.6000   38.4550 C   0  0  0  0  0  0  0  0  0  0  0  0
   46.2890   32.8800   39.2890 N   0  0  0  0  0  0  0  0  0  0  0  0
   48.6110   32.3350   39.0240 C   0  0  0  0  0  0  0  0  0  0  0  0
   49.2550   32.5110   40.2310 C   0  0  0  0  0  0  0  0  0  0  0  0
   50.5030   32.0340   40.0730 N   0  0  0  0  0  0  0  0  0  0  0  0
   50.6720   31.5660   38.8220 C   0  0  0  0  0  0  0  0  0  0  0  0
   49.4940   31.7520   38.1630 N   0  0  0  0  0  0  0  0  0  0  0  0
   42.7740   33.8090   39.1420 C   0  0  0  0  0  0  0  0  0  0  0  0
   41.7210   33.9670   39.9380 N   0  0  0  0  0  0  0  0  0  0  0  0
   41.6920   34.3020   41.3140 C   0  0  0  0  0  0  0  0  0  0  0  0
   41.2940   35.7930   41.1880 C   0  0  0  0  0  0  0  0  0  0  0  0
   40.0000   35.9940   40.5340 C   0  0  0  0  0  0  0  0  0  0  0  0
   39.4810   34.9400   39.6590 C   0  0  0  0  0  0  0  0  0  0  0  0
   40.4080   33.8220   39.2950 C   0  0  0  0  0  0  0  0  0  0  0  0
   39.9210   32.5440   38.1780 S   0  0  0  0  0  0  0  0  0  0  0  0
   43.8250   32.5174   40.4883 H   0  0  0  0  0  0  0  0  0  0  0  0
   44.3373   34.2187   40.5626 H   0  0  0  0  0  0  0  0  0  0  0  0
   43.7708   33.3165   37.1326 H   0  0  0  0  0  0  0  0  0  0  0  0
   45.6483   32.7919   35.5389 H   0  0  0  0  0  0  0  0  0  0  0  0
   48.8312   32.9545   41.1440 H   0  0  0  0  0  0  0  0  0  0  0  0
   51.2269   32.0277   40.8056 H   0  0  0  0  0  0  0  0  0  0  0  0
   51.5882   31.1180   38.4097 H   0  0  0  0  0  0  0  0  0  0  0  0
   42.9637   34.7581   38.6194 H   0  0  0  0  0  0  0  0  0  0  0  0
   42.5374   32.9944   38.4417 H   0  0  0  0  0  0  0  0  0  0  0  0
   40.9397   33.7188   41.8653 H   0  0  0  0  0  0  0  0  0  0  0  0
   42.6202   34.1040   41.8702 H   0  0  0  0  0  0  0  0  0  0  0  0
   41.2464   36.2281   42.1972 H   0  0  0  0  0  0  0  0  0  0  0  0
   42.0549   36.2813   40.5614 H   0  0  0  0  0  0  0  0  0  0  0  0
   39.2563   36.1494   41.3294 H   0  0  0  0  0  0  0  0  0  0  0  0
   40.1735   36.8421   39.8553 H   0  0  0  0  0  0  0  0  0  0  0  0
   38.4477   34.9689   39.2830 H   0  0  0  0  0  0  0  0  0  0  0  0
   39.5041   31.4500   38.8895 H   0  0  0  0  0  0  0  0  0  0  0  0
  2  7  1  0
  2  1  1  0
  3  2  2  0
  4  5  2  0
  4  3  1  0
  5  6  1  0
  6  8  1  0
  6  7  2  0
  8  9  2  0
 10  9  1  0
 11 10  1  0
 12 11  2  0
 12  8  1  0
 13  1  1  0
 13 14  1  0
 14 15  1  0
 16 15  1  0
 17 16  1  0
 18 17  1  0
 19 18  2  0
 19 14  1  0
 20 19  1  0
  1 21  1  0
  1 22  1  0
  3 23  1  0
  4 24  1  0
  9 25  1  0
 10 26  1  0
 11 27  1  0
 13 28  1  0
 13 29  1  0
 15 30  1  0
 15 31  1  0
 16 32  1  0
 16 33  1  0
 17 34  1  0
 17 35  1  0
 18 36  1  0
 20 37  1  0
M  ISO  8  21   8  22   8  23  14  24  14  25  14  26   9  27  14  28   8
M  ISO  8  29   8  30  13  31  13  32  13  33  13  34  13  35  13  36  13
M  ISO  1  37  11
M  END
>  <minimizedAffinity>  (1) 
-4.29596376

>  <minimizedRMSD>  (1) 
8.01524544

$$$$
