
     RDKit          3D

 39 41  0  0  0  0  0  0  0  0999 V2000
   43.2230   33.2130   41.1080 C   0  0  0  0  0  0  0  0  0  0  0  0
   44.2270   34.0930   41.7680 C   0  0  0  0  0  0  0  0  0  0  0  0
   43.8800   35.2890   42.3750 C   0  0  0  0  0  0  0  0  0  0  0  0
   44.8970   36.0400   42.9460 C   0  0  0  0  0  0  0  0  0  0  0  0
   46.1740   35.5770   42.8880 N   0  0  0  0  0  0  0  0  0  0  0  0
   46.4680   34.4240   42.2970 C   0  0  0  0  0  0  0  0  0  0  0  0
   45.4910   33.6950   41.7430 N   0  0  0  0  0  0  0  0  0  0  0  0
   47.8650   33.9950   42.2750 C   0  0  0  0  0  0  0  0  0  0  0  0
   48.2070   32.6790   42.0320 C   0  0  0  0  0  0  0  0  0  0  0  0
   49.5340   32.2980   42.0170 C   0  0  0  0  0  0  0  0  0  0  0  0
   50.4260   33.3150   42.2580 C   0  0  0  0  0  0  0  0  0  0  0  0
   50.1400   34.6500   42.5090 C   0  0  0  0  0  0  0  0  0  0  0  0
   48.8140   34.9290   42.5030 N   0  0  0  0  0  0  0  0  0  0  0  0
   41.9010   33.9140   41.2100 C   0  0  0  0  0  0  0  0  0  0  0  0
   41.0110   33.4830   40.3240 N   0  0  0  0  0  0  0  0  0  0  0  0
   40.3250   32.2430   40.2870 C   0  0  0  0  0  0  0  0  0  0  0  0
   38.9510   32.7110   40.8150 C   0  0  0  0  0  0  0  0  0  0  0  0
   38.3180   33.7250   39.9690 C   0  0  0  0  0  0  0  0  0  0  0  0
   39.1640   34.5290   39.0860 C   0  0  0  0  0  0  0  0  0  0  0  0
   40.6560   34.4370   39.2650 C   0  0  0  0  0  0  0  0  0  0  0  0
   41.7700   35.4200   38.3200 S   0  0  0  0  0  0  0  0  0  0  0  0
   43.1767   32.2405   41.6199 H   0  0  0  0  0  0  0  0  0  0  0  0
   43.4912   33.0257   40.0578 H   0  0  0  0  0  0  0  0  0  0  0  0
   42.8349   35.6310   42.4032 H   0  0  0  0  0  0  0  0  0  0  0  0
   44.6732   36.9974   43.4392 H   0  0  0  0  0  0  0  0  0  0  0  0
   47.4199   31.9324   41.8499 H   0  0  0  0  0  0  0  0  0  0  0  0
   49.8520   31.2622   41.8271 H   0  0  0  0  0  0  0  0  0  0  0  0
   51.4908   33.0391   42.2513 H   0  0  0  0  0  0  0  0  0  0  0  0
   50.9150   35.4082   42.6948 H   0  0  0  0  0  0  0  0  0  0  0  0
   41.4961   33.7515   42.2198 H   0  0  0  0  0  0  0  0  0  0  0  0
   42.0790   34.9796   41.0029 H   0  0  0  0  0  0  0  0  0  0  0  0
   40.2586   31.8387   39.2662 H   0  0  0  0  0  0  0  0  0  0  0  0
   40.7954   31.4251   40.8524 H   0  0  0  0  0  0  0  0  0  0  0  0
   38.2837   31.8384   40.8722 H   0  0  0  0  0  0  0  0  0  0  0  0
   39.1206   33.1697   41.8003 H   0  0  0  0  0  0  0  0  0  0  0  0
   37.5867   33.2055   39.3324 H   0  0  0  0  0  0  0  0  0  0  0  0
   37.9090   34.4535   40.6845 H   0  0  0  0  0  0  0  0  0  0  0  0
   38.7238   35.1798   38.3161 H   0  0  0  0  0  0  0  0  0  0  0  0
   42.5787   36.1336   39.1648 H   0  0  0  0  0  0  0  0  0  0  0  0
  1 14  1  0
  1  2  1  0
  2  3  2  0
  3  4  1  0
  5  4  2  0
  6  5  1  0
  7  2  1  0
  7  6  2  0
  8  6  1  0
  8 13  1  0
  9  8  2  0
 10  9  1  0
 10 11  2  0
 11 12  1  0
 13 12  2  0
 15 14  1  0
 16 15  1  0
 16 17  1  0
 18 17  1  0
 19 20  2  0
 19 18  1  0
 20 15  1  0
 21 20  1  0
  1 22  1  0
  1 23  1  0
  3 24  1  0
  4 25  1  0
  9 26  1  0
 10 27  1  0
 11 28  1  0
 12 29  1  0
 14 30  1  0
 14 31  1  0
 16 32  1  0
 16 33  1  0
 17 34  1  0
 17 35  1  0
 18 36  1  0
 18 37  1  0
 19 38  1  0
 21 39  1  0
M  ISO  8  22   8  23   8  24  14  25  14  26  14  27  14  28  14  29  14
M  ISO  8  30   8  31   8  32  13  33  13  34  13  35  13  36  13  37  13
M  ISO  2  38  13  39  11
M  END
>  <minimizedAffinity>  (1) 
-5.43509912

>  <minimizedRMSD>  (1) 
7.61330462

$$$$
