
     RDKit          3D

 49 52  0  0  0  0  0  0  0  0999 V2000
   41.6970   32.1970   41.5490 C   0  0  0  0  0  0  0  0  0  0  0  0
   40.9080   31.2290   41.0690 N   0  0  0  0  0  0  0  0  0  0  0  0
   41.3080   29.9460   40.5840 C   0  0  0  0  0  0  0  0  0  0  0  0
   40.8470   29.0930   41.7570 C   0  0  0  0  0  0  0  0  0  0  0  0
   39.4240   29.1770   42.0370 C   0  0  0  0  0  0  0  0  0  0  0  0
   38.6970   30.3520   41.6110 C   0  0  0  0  0  0  0  0  0  0  0  0
   39.4610   31.5450   41.0810 C   0  0  0  0  0  0  0  0  0  0  0  0
   38.7410   33.0130   40.5480 S   0  0  0  0  0  0  0  0  0  0  0  0
   40.5570   34.5300   37.5070 N   0  0  0  0  0  0  0  0  0  0  0  0
   39.8400   33.7910   38.4030 C   0  0  0  0  0  0  0  0  0  0  0  0
   39.6500   34.2250   39.7280 C   0  0  0  0  0  0  0  0  0  0  0  0
   40.2440   35.4280   40.0090 C   0  0  0  0  0  0  0  0  0  0  0  0
   40.0790   35.8020   41.1880 O   0  0  0  0  0  0  0  0  0  0  0  0
   40.9540   36.1810   39.1580 N   0  0  0  0  0  0  0  0  0  0  0  0
   41.0850   35.6940   37.9180 C   0  0  0  0  0  0  0  0  0  0  0  0
   41.7600   36.4400   37.1560 O   0  0  0  0  0  0  0  0  0  0  0  0
   43.1440   31.9810   41.2860 C   0  0  0  0  0  0  0  0  0  0  0  0
   43.8600   33.2380   41.5680 C   0  0  0  0  0  0  0  0  0  0  0  0
   43.1630   34.4190   41.7080 C   0  0  0  0  0  0  0  0  0  0  0  0
   43.8800   35.5810   41.9600 C   0  0  0  0  0  0  0  0  0  0  0  0
   45.2430   35.4900   42.0590 N   0  0  0  0  0  0  0  0  0  0  0  0
   45.8760   34.3300   41.9200 C   0  0  0  0  0  0  0  0  0  0  0  0
   45.1700   33.2200   41.6750 N   0  0  0  0  0  0  0  0  0  0  0  0
   47.3290   34.3230   42.0730 C   0  0  0  0  0  0  0  0  0  0  0  0
   47.9880   33.1680   42.4840 C   0  0  0  0  0  0  0  0  0  0  0  0
   49.3600   33.1780   42.6410 C   0  0  0  0  0  0  0  0  0  0  0  0
   49.9620   34.3850   42.3610 C   0  0  0  0  0  0  0  0  0  0  0  0
   49.3480   35.5560   41.9510 C   0  0  0  0  0  0  0  0  0  0  0  0
   48.0000   35.4660   41.8200 N   0  0  0  0  0  0  0  0  0  0  0  0
   41.3990   33.1487   41.0848 H   0  0  0  0  0  0  0  0  0  0  0  0
   41.5684   32.2012   42.6414 H   0  0  0  0  0  0  0  0  0  0  0  0
   40.7906   29.6782   39.6509 H   0  0  0  0  0  0  0  0  0  0  0  0
   42.3715   29.8510   40.3195 H   0  0  0  0  0  0  0  0  0  0  0  0
   41.0931   28.0437   41.5371 H   0  0  0  0  0  0  0  0  0  0  0  0
   41.3656   29.4773   42.6477 H   0  0  0  0  0  0  0  0  0  0  0  0
   38.9482   28.3103   41.5548 H   0  0  0  0  0  0  0  0  0  0  0  0
   39.3715   29.2162   43.1350 H   0  0  0  0  0  0  0  0  0  0  0  0
   37.5990   30.3781   41.6718 H   0  0  0  0  0  0  0  0  0  0  0  0
   40.6897   34.2028   36.5394 H   0  0  0  0  0  0  0  0  0  0  0  0
   39.4009   32.8348   38.0822 H   0  0  0  0  0  0  0  0  0  0  0  0
   41.3729   37.0786   39.4403 H   0  0  0  0  0  0  0  0  0  0  0  0
   43.5251   31.1817   41.9387 H   0  0  0  0  0  0  0  0  0  0  0  0
   43.2979   31.6850   40.2378 H   0  0  0  0  0  0  0  0  0  0  0  0
   42.0666   34.4403   41.6222 H   0  0  0  0  0  0  0  0  0  0  0  0
   43.3678   36.5474   42.0768 H   0  0  0  0  0  0  0  0  0  0  0  0
   47.4171   32.2491   42.6834 H   0  0  0  0  0  0  0  0  0  0  0  0
   49.9271   32.2925   42.9640 H   0  0  0  0  0  0  0  0  0  0  0  0
   51.0553   34.4226   42.4764 H   0  0  0  0  0  0  0  0  0  0  0  0
   49.9059   36.4821   41.7483 H   0  0  0  0  0  0  0  0  0  0  0  0
  2  7  1  0
  2  1  1  0
  3  2  1  0
  3  4  1  0
  4  5  1  0
  6  5  1  0
  7  6  2  0
  8  7  1  0
  9 15  1  0
  9 10  1  0
 10 11  2  0
 11 12  1  0
 11  8  1  0
 12 13  2  0
 14 12  1  0
 15 14  1  0
 16 15  2  0
 17  1  1  0
 17 18  1  0
 18 23  1  0
 18 19  2  0
 19 20  1  0
 20 21  2  0
 22 21  1  0
 22 24  1  0
 23 22  2  0
 24 25  2  0
 25 26  1  0
 27 26  2  0
 28 27  1  0
 29 28  2  0
 29 24  1  0
  1 30  1  0
  1 31  1  0
  3 32  1  0
  3 33  1  0
  4 34  1  0
  4 35  1  0
  5 36  1  0
  5 37  1  0
  6 38  1  0
  9 39  1  0
 10 40  1  0
 14 41  1  0
 17 42  1  0
 17 43  1  0
 19 44  1  0
 20 45  1  0
 25 46  1  0
 26 47  1  0
 27 48  1  0
 28 49  1  0
M  ISO  8  30   8  31   8  32  13  33  13  34  13  35  13  36  13  37  13
M  ISO  8  38  13  39   9  40  14  41   9  42   8  43   8  44  14  45  14
M  ISO  4  46  14  47  14  48  14  49  14
M  END
>  <minimizedAffinity>  (1) 
-5.84775829

>  <minimizedRMSD>  (1) 
2.91356111

$$$$
