
     RDKit          3D

 52 55  0  0  0  0  0  0  0  0999 V2000
   40.2930   29.8030   41.6170 N   0  0  0  0  0  0  0  0  0  0  0  0
   40.1180   28.5770   40.8990 C   0  0  0  0  0  0  0  0  0  0  0  0
   39.0600   27.9280   41.7920 C   0  0  0  0  0  0  0  0  0  0  0  0
   37.8330   28.7000   41.9030 C   0  0  0  0  0  0  0  0  0  0  0  0
   37.8880   30.1280   41.6770 C   0  0  0  0  0  0  0  0  0  0  0  0
   39.2200   30.8160   41.5320 C   0  0  0  0  0  0  0  0  0  0  0  0
   41.3270   30.1390   42.3980 C   0  0  0  0  0  0  0  0  0  0  0  0
   42.5280   29.2850   42.2070 C   0  0  0  0  0  0  0  0  0  0  0  0
   43.6200   29.8380   43.0280 C   0  0  0  0  0  0  0  0  0  0  0  0
   44.1470   29.1150   44.0720 C   0  0  0  0  0  0  0  0  0  0  0  0
   45.1650   29.6840   44.8220 C   0  0  0  0  0  0  0  0  0  0  0  0
   45.5950   30.9390   44.4810 N   0  0  0  0  0  0  0  0  0  0  0  0
   45.0680   31.6070   43.4680 C   0  0  0  0  0  0  0  0  0  0  0  0
   44.0830   31.0360   42.7610 N   0  0  0  0  0  0  0  0  0  0  0  0
   45.6040   32.9300   43.1540 C   0  0  0  0  0  0  0  0  0  0  0  0
   44.7470   34.0000   42.9090 C   0  0  0  0  0  0  0  0  0  0  0  0
   45.2700   35.2400   42.6100 C   0  0  0  0  0  0  0  0  0  0  0  0
   46.6430   35.2940   42.5830 C   0  0  0  0  0  0  0  0  0  0  0  0
   47.5400   34.2520   42.8220 C   0  0  0  0  0  0  0  0  0  0  0  0
   46.9460   33.0660   43.1090 N   0  0  0  0  0  0  0  0  0  0  0  0
   39.4270   32.5030   41.3070 S   0  0  0  0  0  0  0  0  0  0  0  0
   40.3150   34.1780   39.6930 C   0  0  0  0  0  0  0  0  0  0  0  0
   39.2380   33.2650   39.7770 C   0  0  0  0  0  0  0  0  0  0  0  0
   38.4280   33.2310   38.6900 C   0  0  0  0  0  0  0  0  0  0  0  0
   38.5340   33.9630   37.5480 C   0  0  0  0  0  0  0  0  0  0  0  0
   39.5960   34.8320   37.5170 C   0  0  0  0  0  0  0  0  0  0  0  0
   40.5060   34.9750   38.5550 C   0  0  0  0  0  0  0  0  0  0  0  0
   41.6120   34.5710   40.8360 S   0  0  0  0  0  0  0  0  0  0  0  0
   41.1170   35.6590   41.7390 O   0  0  0  0  0  0  0  0  0  0  0  0
   42.8040   35.0080   40.0590 O   0  0  0  0  0  0  0  0  0  0  0  0
   39.7480   28.7464   39.8770 H   0  0  0  0  0  0  0  0  0  0  0  0
   41.0321   27.9858   40.7411 H   0  0  0  0  0  0  0  0  0  0  0  0
   38.8122   26.9407   41.3750 H   0  0  0  0  0  0  0  0  0  0  0  0
   39.4899   27.8620   42.8024 H   0  0  0  0  0  0  0  0  0  0  0  0
   37.1217   28.2840   41.1743 H   0  0  0  0  0  0  0  0  0  0  0  0
   37.5543   28.6078   42.9631 H   0  0  0  0  0  0  0  0  0  0  0  0
   36.9575   30.7109   41.6111 H   0  0  0  0  0  0  0  0  0  0  0  0
   41.6038   31.1804   42.1772 H   0  0  0  0  0  0  0  0  0  0  0  0
   40.9992   30.0009   43.4389 H   0  0  0  0  0  0  0  0  0  0  0  0
   42.3074   28.2553   42.5250 H   0  0  0  0  0  0  0  0  0  0  0  0
   42.8194   29.2699   41.1464 H   0  0  0  0  0  0  0  0  0  0  0  0
   43.7698   28.1087   44.3068 H   0  0  0  0  0  0  0  0  0  0  0  0
   45.6148   29.1426   45.6673 H   0  0  0  0  0  0  0  0  0  0  0  0
   43.6573   33.8564   42.9539 H   0  0  0  0  0  0  0  0  0  0  0  0
   44.6379   36.1175   42.4088 H   0  0  0  0  0  0  0  0  0  0  0  0
   47.0864   36.2722   42.3454 H   0  0  0  0  0  0  0  0  0  0  0  0
   48.6317   34.3806   42.7814 H   0  0  0  0  0  0  0  0  0  0  0  0
   37.5840   32.5272   38.7372 H   0  0  0  0  0  0  0  0  0  0  0  0
   37.8234   33.8659   36.7139 H   0  0  0  0  0  0  0  0  0  0  0  0
   39.7337   35.4505   36.6179 H   0  0  0  0  0  0  0  0  0  0  0  0
   41.3435   35.6850   38.4878 H   0  0  0  0  0  0  0  0  0  0  0  0
   41.9657   33.4900   41.5997 H   0  0  0  0  0  0  0  0  0  0  0  0
  1  7  1  0
  2  1  1  0
  2  3  1  0
  3  4  1  0
  5  4  1  0
  6  1  1  0
  6  5  2  0
  8  7  1  0
  8  9  1  0
  9 10  2  0
 10 11  1  0
 12 11  2  0
 13 12  1  0
 14  9  1  0
 14 13  2  0
 15 13  1  0
 16 15  2  0
 17 16  1  0
 18 17  2  0
 18 19  1  0
 19 20  2  0
 20 15  1  0
 21  6  1  0
 22 23  2  0
 22 28  1  0
 23 21  1  0
 24 23  1  0
 25 24  2  0
 26 25  1  0
 26 27  2  0
 27 22  1  0
 28 29  2  0
 30 28  2  0
  2 31  1  0
  2 32  1  0
  3 33  1  0
  3 34  1  0
  4 35  1  0
  4 36  1  0
  5 37  1  0
  7 38  1  0
  7 39  1  0
  8 40  1  0
  8 41  1  0
 10 42  1  0
 11 43  1  0
 16 44  1  0
 17 45  1  0
 18 46  1  0
 19 47  1  0
 24 48  1  0
 25 49  1  0
 26 50  1  0
 27 51  1  0
 28 52  1  0
M  ISO  8  31  13  32  13  33  13  34  13  35  13  36  13  37  13  38   8
M  ISO  8  39   8  40   8  41   8  42  14  43  14  44  14  45  14  46  14
M  ISO  6  47  14  48  14  49  14  50  14  51  14  52  11
M  END
>  <minimizedAffinity>  (1) 
-5.57200813

>  <minimizedRMSD>  (1) 
4.57892275

$$$$
