
     RDKit          3D

 33 34  0  0  1  0  0  0  0  0999 V2000
   44.5400   35.8170   44.5860 C   0  0  0  0  0  0  0  0  0  0  0  0
   45.1520   35.8030   43.3170 C   0  0  0  0  0  0  0  0  0  0  0  0
   46.1370   34.8510   43.0810 C   0  0  0  0  0  0  0  0  0  0  0  0
   46.4730   33.9720   44.0780 N   0  0  0  0  0  0  0  0  0  0  0  0
   45.8690   34.0170   45.2710 C   0  0  0  0  0  0  0  0  0  0  0  0
   44.9050   34.9310   45.5380 N   0  0  0  0  0  0  0  0  0  0  0  0
   45.0760   32.9170   47.2740 C   0  0  1  0  0  0  0  0  0  0  0  0
   46.2490   33.0590   46.3310 C   0  0  1  0  0  0  0  0  0  0  0  0
   46.5850   31.8060   45.8530 O   0  0  0  0  0  0  0  0  0  0  0  0
   47.0870   31.0760   46.9300 C   0  0  0  0  0  0  0  0  0  0  0  0
   45.9920   30.7720   47.9300 C   0  0  2  0  0  0  0  0  0  0  0  0
   45.4890   32.0950   48.4760 C   0  0  1  0  0  0  0  0  0  0  0  0
   44.5840   34.1680   47.6660 O   0  0  0  0  0  0  0  0  0  0  0  0
   46.5000   29.9780   48.9360 O   0  0  0  0  0  0  0  0  0  0  0  0
   46.5010   32.6760   49.2040 O   0  0  0  0  0  0  0  0  0  0  0  0
   46.7270   34.8600   41.8140 O   0  0  0  0  0  0  0  0  0  0  0  0
   48.6990   33.2220   41.1390 O   0  0  0  0  0  0  0  0  0  0  0  0
   48.4250   34.6080   41.6920 P   0  0  0  0  0  0  0  0  0  0  0  0
   49.0660   35.8110   40.7150 O   0  0  0  0  0  0  0  0  0  0  0  0
   49.0690   34.6830   43.2580 O   0  0  0  0  0  0  0  0  0  0  0  0
   43.7564   36.5576   44.8039 H   0  0  0  0  0  0  0  0  0  0  0  0
   44.8597   36.5224   42.5379 H   0  0  0  0  0  0  0  0  0  0  0  0
   44.2612   32.3980   46.7479 H   0  0  0  0  0  0  0  0  0  0  0  0
   47.1449   33.4585   46.8288 H   0  0  0  0  0  0  0  0  0  0  0  0
   47.5095   30.1305   46.5592 H   0  0  0  0  0  0  0  0  0  0  0  0
   47.8645   31.6730   47.4290 H   0  0  0  0  0  0  0  0  0  0  0  0
   45.1594   30.2278   47.4602 H   0  0  0  0  0  0  0  0  0  0  0  0
   44.6280   31.9938   49.1530 H   0  0  0  0  0  0  0  0  0  0  0  0
   44.5637   34.2197   48.6544 H   0  0  0  0  0  0  0  0  0  0  0  0
   46.2545   30.3617   49.8150 H   0  0  0  0  0  0  0  0  0  0  0  0
   46.3154   32.5694   50.1706 H   0  0  0  0  0  0  0  0  0  0  0  0
   49.4478   36.5276   41.2814 H   0  0  0  0  0  0  0  0  0  0  0  0
   48.3378   34.5978   43.9199 H   0  0  0  0  0  0  0  0  0  0  0  0
  1  6  2  0
  2  1  1  0
  3  2  2  0
  3  4  1  0
  4  5  2  0
  5  6  1  0
  7 13  1  0
  7 12  1  0
  8  5  1  0
  8  7  1  0
  9  8  1  0
  9 10  1  0
 10 11  1  0
 11 12  1  0
 11 14  1  0
 12 15  1  0
 16  3  1  0
 17 18  2  0
 18 16  1  0
 18 20  1  0
 19 18  1  0
  1 21  1  0
  2 22  1  0
  7 23  1  6
  8 24  1  1
 10 25  1  0
 10 26  1  0
 11 27  1  6
 12 28  1  1
 13 29  1  0
 14 30  1  0
 15 31  1  0
 19 32  1  0
 20 33  1  0
M  ISO  8  21  14  22  14  23  13  24  13  25  13  26  13  27  13  28  13
M  ISO  5  29   3  30   3  31   3  32   3  33   3
M  END
>  <minimizedAffinity>  (1) 
-7.02005911

>  <minimizedRMSD>  (1) 
0.680253446

$$$$
