
     RDKit          3D

 53 56  0  0  1  0  0  0  0  0999 V2000
   41.8620   31.7440   42.0310 C   0  0  0  0  0  0  0  0  0  0  0  0
   41.2450   30.6830   41.5030 N   0  0  0  0  0  0  0  0  0  0  0  0
   40.9610   29.4380   42.1400 C   0  0  0  0  0  0  0  0  0  0  0  0
   39.4610   29.6220   42.3540 C   0  0  0  0  0  0  0  0  0  0  0  0
   38.7020   29.8190   41.1310 C   0  0  0  0  0  0  0  0  0  0  0  0
   39.3850   30.3420   39.9680 C   0  0  0  0  0  0  0  0  0  0  0  0
   40.7930   30.8590   40.0950 C   0  0  0  0  0  0  0  0  0  0  0  0
   41.7030   31.5600   38.8160 S   0  0  0  0  0  0  0  0  0  0  0  0
   40.7920   33.8870   37.7410 N   0  0  0  0  0  0  0  0  0  0  0  0
   41.6960   33.3290   38.7300 C   0  0  2  0  0  0  0  0  0  0  0  0
   43.0500   33.9470   38.5400 C   0  0  0  0  0  0  0  0  0  0  0  0
   43.0260   35.0570   37.6180 N   0  0  0  0  0  0  0  0  0  0  0  0
   41.9850   36.0140   37.9560 C   0  0  0  0  0  0  0  0  0  0  0  0
   40.6460   35.3100   38.0360 C   0  0  0  0  0  0  0  0  0  0  0  0
   43.3300   31.5670   42.1920 C   0  0  0  0  0  0  0  0  0  0  0  0
   43.9600   32.8970   42.1340 C   0  0  0  0  0  0  0  0  0  0  0  0
   43.1870   34.0310   42.0380 C   0  0  0  0  0  0  0  0  0  0  0  0
   43.8260   35.2640   41.9790 C   0  0  0  0  0  0  0  0  0  0  0  0
   45.1920   35.2850   42.0210 N   0  0  0  0  0  0  0  0  0  0  0  0
   45.9050   34.1650   42.1160 C   0  0  0  0  0  0  0  0  0  0  0  0
   45.2660   32.9980   42.1690 N   0  0  0  0  0  0  0  0  0  0  0  0
   47.3580   34.2930   42.1900 C   0  0  0  0  0  0  0  0  0  0  0  0
   48.1310   33.2220   42.6340 C   0  0  0  0  0  0  0  0  0  0  0  0
   49.5040   33.3520   42.7200 C   0  0  0  0  0  0  0  0  0  0  0  0
   49.9840   34.5820   42.3380 C   0  0  0  0  0  0  0  0  0  0  0  0
   49.2570   35.6830   41.8880 C   0  0  0  0  0  0  0  0  0  0  0  0
   47.9170   35.4710   41.8350 N   0  0  0  0  0  0  0  0  0  0  0  0
   41.4259   31.9413   43.0214 H   0  0  0  0  0  0  0  0  0  0  0  0
   41.7152   32.5804   41.3318 H   0  0  0  0  0  0  0  0  0  0  0  0
   41.1833   28.5801   41.4884 H   0  0  0  0  0  0  0  0  0  0  0  0
   41.5472   29.2232   43.0457 H   0  0  0  0  0  0  0  0  0  0  0  0
   39.0727   28.7256   42.8597 H   0  0  0  0  0  0  0  0  0  0  0  0
   39.3382   30.5373   42.9517 H   0  0  0  0  0  0  0  0  0  0  0  0
   38.2830   28.8419   40.8487 H   0  0  0  0  0  0  0  0  0  0  0  0
   37.9754   30.6032   41.3901 H   0  0  0  0  0  0  0  0  0  0  0  0
   38.8765   30.3619   38.9928 H   0  0  0  0  0  0  0  0  0  0  0  0
   39.8758   33.4198   37.7982 H   0  0  0  0  0  0  0  0  0  0  0  0
   41.3227   33.5956   39.7298 H   0  0  0  0  0  0  0  0  0  0  0  0
   43.4142   34.3053   39.5142 H   0  0  0  0  0  0  0  0  0  0  0  0
   43.7130   33.1768   38.1190 H   0  0  0  0  0  0  0  0  0  0  0  0
   42.8540   34.6982   36.6680 H   0  0  0  0  0  0  0  0  0  0  0  0
   42.2141   36.4743   38.9284 H   0  0  0  0  0  0  0  0  0  0  0  0
   41.9404   36.7913   37.1789 H   0  0  0  0  0  0  0  0  0  0  0  0
   39.9569   35.7610   37.3068 H   0  0  0  0  0  0  0  0  0  0  0  0
   40.2489   35.4206   39.0558 H   0  0  0  0  0  0  0  0  0  0  0  0
   43.5445   31.0948   43.1620 H   0  0  0  0  0  0  0  0  0  0  0  0
   43.7261   30.9224   41.3935 H   0  0  0  0  0  0  0  0  0  0  0  0
   42.0895   33.9636   42.0086 H   0  0  0  0  0  0  0  0  0  0  0  0
   43.2484   36.1969   41.9007 H   0  0  0  0  0  0  0  0  0  0  0  0
   47.6488   32.2743   42.9157 H   0  0  0  0  0  0  0  0  0  0  0  0
   50.1587   32.5384   43.0656 H   0  0  0  0  0  0  0  0  0  0  0  0
   51.0747   34.7136   42.3942 H   0  0  0  0  0  0  0  0  0  0  0  0
   49.7259   36.6361   41.6021 H   0  0  0  0  0  0  0  0  0  0  0  0
  1 15  1  0
  2  1  1  0
  2  3  1  0
  3  4  1  0
  5  4  1  0
  6  7  2  0
  6  5  1  0
  7  2  1  0
  8  7  1  0
  9 14  1  0
  9 10  1  0
 10  8  1  0
 11 10  1  0
 12 13  1  0
 12 11  1  0
 13 14  1  0
 16 21  1  0
 16 15  1  0
 17 16  2  0
 18 19  2  0
 18 17  1  0
 19 20  1  0
 20 21  2  0
 20 22  1  0
 22 23  2  0
 23 24  1  0
 25 24  2  0
 26 25  1  0
 27 26  2  0
 27 22  1  0
  1 28  1  0
  1 29  1  0
  3 30  1  0
  3 31  1  0
  4 32  1  0
  4 33  1  0
  5 34  1  0
  5 35  1  0
  6 36  1  0
  9 37  1  0
 10 38  1  1
 11 39  1  0
 11 40  1  0
 12 41  1  0
 13 42  1  0
 13 43  1  0
 14 44  1  0
 14 45  1  0
 15 46  1  0
 15 47  1  0
 17 48  1  0
 18 49  1  0
 23 50  1  0
 24 51  1  0
 25 52  1  0
 26 53  1  0
M  ISO  8  28   8  29   8  30  13  31  13  32  13  33  13  34  13  35  13
M  ISO  8  36  13  37   5  38  13  39  13  40  13  41   5  42  13  43  13
M  ISO  8  44  13  45  13  46   8  47   8  48  14  49  14  50  14  51  14
M  ISO  2  52  14  53  14
M  END
>  <minimizedAffinity>  (1) 
-5.23793268

>  <minimizedRMSD>  (1) 
2.87418079

$$$$
