
     RDKit          3D

 45 48  0  0  0  0  0  0  0  0999 V2000
   41.7690   31.9120   41.7280 C   0  0  0  0  0  0  0  0  0  0  0  0
   41.1480   30.7940   41.3440 N   0  0  0  0  0  0  0  0  0  0  0  0
   40.9810   29.5890   42.0890 C   0  0  0  0  0  0  0  0  0  0  0  0
   39.5030   29.7310   42.4440 C   0  0  0  0  0  0  0  0  0  0  0  0
   38.6240   29.8070   41.2910 C   0  0  0  0  0  0  0  0  0  0  0  0
   39.1560   30.2700   40.0290 C   0  0  0  0  0  0  0  0  0  0  0  0
   40.5510   30.8530   39.9900 C   0  0  0  0  0  0  0  0  0  0  0  0
   41.3120   31.4600   38.5670 S   0  0  0  0  0  0  0  0  0  0  0  0
   41.3090   33.1920   38.2920 C   0  0  0  0  0  0  0  0  0  0  0  0
   42.2930   34.2950   38.4010 C   0  0  0  0  0  0  0  0  0  0  0  0
   41.2520   35.8020   37.9630 S   0  0  0  0  0  0  0  0  0  0  0  0
   39.7480   34.6740   37.7270 C   0  0  0  0  0  0  0  0  0  0  0  0
   40.1180   33.6140   37.9470 N   0  0  0  0  0  0  0  0  0  0  0  0
   43.2040   31.7200   42.0650 C   0  0  0  0  0  0  0  0  0  0  0  0
   43.8800   33.0250   41.9840 C   0  0  0  0  0  0  0  0  0  0  0  0
   43.1460   34.1750   41.8010 C   0  0  0  0  0  0  0  0  0  0  0  0
   43.8240   35.3850   41.7180 C   0  0  0  0  0  0  0  0  0  0  0  0
   45.1900   35.3670   41.8270 N   0  0  0  0  0  0  0  0  0  0  0  0
   45.8600   34.2370   42.0050 C   0  0  0  0  0  0  0  0  0  0  0  0
   45.1890   33.0830   42.0800 N   0  0  0  0  0  0  0  0  0  0  0  0
   47.3130   34.3160   42.1320 C   0  0  0  0  0  0  0  0  0  0  0  0
   48.0480   33.2220   42.5790 C   0  0  0  0  0  0  0  0  0  0  0  0
   49.4150   33.3060   42.7020 C   0  0  0  0  0  0  0  0  0  0  0  0
   49.9440   34.5330   42.3480 C   0  0  0  0  0  0  0  0  0  0  0  0
   49.2560   35.6550   41.8960 C   0  0  0  0  0  0  0  0  0  0  0  0
   47.9130   35.4880   41.8040 N   0  0  0  0  0  0  0  0  0  0  0  0
   41.2544   32.3059   42.6169 H   0  0  0  0  0  0  0  0  0  0  0  0
   41.7319   32.6061   40.8755 H   0  0  0  0  0  0  0  0  0  0  0  0
   41.1743   28.6956   41.4771 H   0  0  0  0  0  0  0  0  0  0  0  0
   41.6627   29.4623   42.9429 H   0  0  0  0  0  0  0  0  0  0  0  0
   39.2070   28.8606   43.0479 H   0  0  0  0  0  0  0  0  0  0  0  0
   39.3961   30.6804   42.9891 H   0  0  0  0  0  0  0  0  0  0  0  0
   38.2281   28.7949   41.1212 H   0  0  0  0  0  0  0  0  0  0  0  0
   37.8946   30.5824   41.5682 H   0  0  0  0  0  0  0  0  0  0  0  0
   38.5549   30.1993   39.1105 H   0  0  0  0  0  0  0  0  0  0  0  0
   43.3587   34.2459   38.6691 H   0  0  0  0  0  0  0  0  0  0  0  0
   38.7303   34.9757   37.4384 H   0  0  0  0  0  0  0  0  0  0  0  0
   43.2953   31.3172   43.0845 H   0  0  0  0  0  0  0  0  0  0  0  0
   43.6655   31.0115   41.3614 H   0  0  0  0  0  0  0  0  0  0  0  0
   42.0495   34.1370   41.7224 H   0  0  0  0  0  0  0  0  0  0  0  0
   43.2803   36.3296   41.5692 H   0  0  0  0  0  0  0  0  0  0  0  0
   47.5324   32.2847   42.8354 H   0  0  0  0  0  0  0  0  0  0  0  0
   50.0351   32.4677   43.0524 H   0  0  0  0  0  0  0  0  0  0  0  0
   51.0360   34.6343   42.4335 H   0  0  0  0  0  0  0  0  0  0  0  0
   49.7589   36.5979   41.6353 H   0  0  0  0  0  0  0  0  0  0  0  0
  1 14  1  0
  2  1  1  0
  2  3  1  0
  3  4  1  0
  5  4  1  0
  6  5  1  0
  7  6  2  0
  7  2  1  0
  8  7  1  0
  9 10  2  0
  9  8  1  0
 11 10  1  0
 12 13  2  0
 12 11  1  0
 13  9  1  0
 15 14  1  0
 15 20  1  0
 16 15  2  0
 17 16  1  0
 17 18  2  0
 18 19  1  0
 19 20  2  0
 19 21  1  0
 21 22  2  0
 22 23  1  0
 24 23  2  0
 25 24  1  0
 26 25  2  0
 26 21  1  0
  1 27  1  0
  1 28  1  0
  3 29  1  0
  3 30  1  0
  4 31  1  0
  4 32  1  0
  5 33  1  0
  5 34  1  0
  6 35  1  0
 10 36  1  0
 12 37  1  0
 14 38  1  0
 14 39  1  0
 16 40  1  0
 17 41  1  0
 22 42  1  0
 23 43  1  0
 24 44  1  0
 25 45  1  0
M  ISO  8  27   8  28   8  29  13  30  13  31  13  32  13  33  13  34  13
M  ISO  8  35  13  36  14  37  14  38   8  39   8  40  14  41  14  42  14
M  ISO  3  43  14  44  14  45  14
M  END
>  <minimizedAffinity>  (1) 
-4.94953442

>  <minimizedRMSD>  (1) 
2.66672659

$$$$
