
     RDKit          3D

 18 18  0  0  0  0  0  0  0  0999 V2000
   44.5700   35.9890   44.5030 C   0  0  0  0  0  0  0  0  0  0  0  0
   45.2000   35.9810   43.2480 C   0  0  0  0  0  0  0  0  0  0  0  0
   46.0910   34.9570   42.9710 C   0  0  0  0  0  0  0  0  0  0  0  0
   46.3130   34.0070   43.9360 N   0  0  0  0  0  0  0  0  0  0  0  0
   45.6900   34.0470   45.1300 C   0  0  0  0  0  0  0  0  0  0  0  0
   44.8230   35.0290   45.4180 N   0  0  0  0  0  0  0  0  0  0  0  0
   46.0390   32.9810   46.0110 N   0  0  0  0  0  0  0  0  0  0  0  0
   46.7210   34.9400   41.7310 O   0  0  0  0  0  0  0  0  0  0  0  0
   48.6660   33.3130   41.0100 O   0  0  0  0  0  0  0  0  0  0  0  0
   48.4110   34.6610   41.6520 P   0  0  0  0  0  0  0  0  0  0  0  0
   49.1090   35.9130   40.7740 O   0  0  0  0  0  0  0  0  0  0  0  0
   48.9910   34.6030   43.2380 O   0  0  0  0  0  0  0  0  0  0  0  0
   43.8578   36.7916   44.7449 H   0  0  0  0  0  0  0  0  0  0  0  0
   44.9919   36.7657   42.5058 H   0  0  0  0  0  0  0  0  0  0  0  0
   45.6136   32.9266   46.9475 H   0  0  0  0  0  0  0  0  0  0  0  0
   46.7164   32.2655   45.7107 H   0  0  0  0  0  0  0  0  0  0  0  0
   49.4834   36.5846   41.3976 H   0  0  0  0  0  0  0  0  0  0  0  0
   48.2325   34.6788   43.8697 H   0  0  0  0  0  0  0  0  0  0  0  0
  1  6  2  0
  2  1  1  0
  3  2  2  0
  3  4  1  0
  4  5  2  0
  5  6  1  0
  5  7  1  0
  8  3  1  0
  9 10  2  0
 10  8  1  0
 10 12  1  0
 11 10  1  0
  1 13  1  0
  2 14  1  0
  7 15  1  0
  7 16  1  0
 11 17  1  0
 12 18  1  0
M  ISO  4  13  14  14  14  17   3  18   3
M  END
>  <minimizedAffinity>  (1) 
-4.60613203

>  <minimizedRMSD>  (1) 
0.0447879136

$$$$
