
     RDKit          3D

 18 18  0  0  0  0  0  0  0  0999 V2000
   44.5630   35.9840   44.5050 C   0  0  0  0  0  0  0  0  0  0  0  0
   45.2010   35.9700   43.2440 C   0  0  0  0  0  0  0  0  0  0  0  0
   46.1020   34.9450   42.9930 C   0  0  0  0  0  0  0  0  0  0  0  0
   46.3300   34.0120   43.9530 N   0  0  0  0  0  0  0  0  0  0  0  0
   45.7020   34.0550   45.1490 C   0  0  0  0  0  0  0  0  0  0  0  0
   44.8290   35.0280   45.4240 N   0  0  0  0  0  0  0  0  0  0  0  0
   45.9940   33.0190   46.1340 C   0  0  0  0  0  0  0  0  0  0  0  0
   45.3670   32.9840   47.2240 O   0  0  0  0  0  0  0  0  0  0  0  0
   46.7230   34.9460   41.7430 O   0  0  0  0  0  0  0  0  0  0  0  0
   48.6550   33.3070   41.0010 O   0  0  0  0  0  0  0  0  0  0  0  0
   48.4110   34.6620   41.6480 P   0  0  0  0  0  0  0  0  0  0  0  0
   49.1100   35.9120   40.7740 O   0  0  0  0  0  0  0  0  0  0  0  0
   49.0000   34.6090   43.2350 O   0  0  0  0  0  0  0  0  0  0  0  0
   43.8425   36.7808   44.7415 H   0  0  0  0  0  0  0  0  0  0  0  0
   44.9912   36.7427   42.4898 H   0  0  0  0  0  0  0  0  0  0  0  0
   46.7663   32.2648   45.9224 H   0  0  0  0  0  0  0  0  0  0  0  0
   49.4848   36.5822   41.3988 H   0  0  0  0  0  0  0  0  0  0  0  0
   48.2437   34.6771   43.8701 H   0  0  0  0  0  0  0  0  0  0  0  0
  1  6  2  0
  2  1  1  0
  3  2  2  0
  3  4  1  0
  4  5  2  0
  5  6  1  0
  5  7  1  0
  7  8  2  0
  9  3  1  0
 10 11  2  0
 11  9  1  0
 11 13  1  0
 12 11  1  0
  1 14  1  0
  2 15  1  0
  7 16  1  0
 12 17  1  0
 13 18  1  0
M  ISO  5  14  14  15  14  16   6  17   3  18   3
M  END
>  <minimizedAffinity>  (1) 
-4.72153807

>  <minimizedRMSD>  (1) 
0.254060745

$$$$
