
     RDKit          3D

 17 17  0  0  0  0  0  0  0  0999 V2000
   44.5710   35.9920   44.4880 C   0  0  0  0  0  0  0  0  0  0  0  0
   45.1960   35.9740   43.2280 C   0  0  0  0  0  0  0  0  0  0  0  0
   46.0950   34.9390   42.9750 C   0  0  0  0  0  0  0  0  0  0  0  0
   46.3190   34.0090   43.9480 N   0  0  0  0  0  0  0  0  0  0  0  0
   45.7000   34.0630   45.1380 C   0  0  0  0  0  0  0  0  0  0  0  0
   44.8230   35.0450   45.4270 N   0  0  0  0  0  0  0  0  0  0  0  0
   46.1010   32.7700   46.3070 S   0  0  0  0  0  0  0  0  0  0  0  0
   46.7100   34.9230   41.7350 O   0  0  0  0  0  0  0  0  0  0  0  0
   48.6640   33.3240   40.9850 O   0  0  0  0  0  0  0  0  0  0  0  0
   48.4110   34.6620   41.6480 P   0  0  0  0  0  0  0  0  0  0  0  0
   49.1040   35.9160   40.7870 O   0  0  0  0  0  0  0  0  0  0  0  0
   48.9870   34.6070   43.2350 O   0  0  0  0  0  0  0  0  0  0  0  0
   43.8575   36.7967   44.7189 H   0  0  0  0  0  0  0  0  0  0  0  0
   44.9840   36.7453   42.4729 H   0  0  0  0  0  0  0  0  0  0  0  0
   45.9533   33.2462   47.5831 H   0  0  0  0  0  0  0  0  0  0  0  0
   49.4734   36.5844   41.4171 H   0  0  0  0  0  0  0  0  0  0  0  0
   48.2266   34.6796   43.8648 H   0  0  0  0  0  0  0  0  0  0  0  0
  1  6  2  0
  2  1  1  0
  3  2  2  0
  3  4  1  0
  4  5  2  0
  5  6  1  0
  5  7  1  0
  8  3  1  0
  9 10  2  0
 10  8  1  0
 10 12  1  0
 11 10  1  0
  1 13  1  0
  2 14  1  0
  7 15  1  0
 11 16  1  0
 12 17  1  0
M  ISO  5  13  14  14  14  15  11  16   3  17   3
M  END
>  <minimizedAffinity>  (1) 
-4.6342206

>  <minimizedRMSD>  (1) 
0.05886342

$$$$
