
     RDKit          3D

 17 17  0  0  0  0  0  0  0  0999 V2000
   44.5710   36.0310   44.4910 C   0  0  0  0  0  0  0  0  0  0  0  0
   45.2060   36.0190   43.2380 C   0  0  0  0  0  0  0  0  0  0  0  0
   46.0820   34.9670   42.9730 C   0  0  0  0  0  0  0  0  0  0  0  0
   46.2750   34.0210   43.9200 N   0  0  0  0  0  0  0  0  0  0  0  0
   45.6480   34.0630   45.1140 C   0  0  0  0  0  0  0  0  0  0  0  0
   44.7890   35.0710   45.4100 N   0  0  0  0  0  0  0  0  0  0  0  0
   45.9460   33.0120   46.0010 O   0  0  0  0  0  0  0  0  0  0  0  0
   46.7100   34.9520   41.7380 O   0  0  0  0  0  0  0  0  0  0  0  0
   48.6300   33.3080   40.9970 O   0  0  0  0  0  0  0  0  0  0  0  0
   48.3890   34.6570   41.6460 P   0  0  0  0  0  0  0  0  0  0  0  0
   49.1030   35.9100   40.7880 O   0  0  0  0  0  0  0  0  0  0  0  0
   48.9690   34.5850   43.2470 O   0  0  0  0  0  0  0  0  0  0  0  0
   43.8749   36.8489   44.7286 H   0  0  0  0  0  0  0  0  0  0  0  0
   45.0195   36.8085   42.4951 H   0  0  0  0  0  0  0  0  0  0  0  0
   45.5201   32.9823   46.8942 H   0  0  0  0  0  0  0  0  0  0  0  0
   49.4797   36.5710   41.4214 H   0  0  0  0  0  0  0  0  0  0  0  0
   48.2112   34.6791   43.8771 H   0  0  0  0  0  0  0  0  0  0  0  0
  1  6  2  0
  2  1  1  0
  3  2  2  0
  3  4  1  0
  4  5  2  0
  5  6  1  0
  5  7  1  0
  8  3  1  0
  9 10  2  0
 10  8  1  0
 10 12  1  0
 11 10  1  0
  1 13  1  0
  2 14  1  0
  7 15  1  0
 11 16  1  0
 12 17  1  0
M  ISO  5  13  14  14  14  15   3  16   3  17   3
M  END
>  <minimizedAffinity>  (1) 
-4.58470917

>  <minimizedRMSD>  (1) 
0.0498844311

$$$$
