
     RDKit          3D

 32 33  0  0  1  0  0  0  0  0999 V2000
   44.5120   35.7300   44.8690 C   0  0  0  0  0  0  0  0  0  0  0  0
   45.0360   35.9460   43.5760 C   0  0  0  0  0  0  0  0  0  0  0  0
   46.0400   35.0810   43.1560 C   0  0  0  0  0  0  0  0  0  0  0  0
   46.4620   34.1010   43.9740 N   0  0  0  0  0  0  0  0  0  0  0  0
   45.9530   33.9130   45.1950 C   0  0  0  0  0  0  0  0  0  0  0  0
   44.9700   34.7360   45.6440 N   0  0  0  0  0  0  0  0  0  0  0  0
   45.3880   32.5240   47.2090 C   0  0  1  0  0  0  0  0  0  0  0  0
   46.3810   32.8650   46.1380 C   0  0  1  0  0  0  0  0  0  0  0  0
   46.4350   31.5060   45.4180 C   0  0  0  0  0  0  0  0  0  0  0  0
   46.1620   30.5470   46.3410 O   0  0  0  0  0  0  0  0  0  0  0  0
   45.9320   31.1440   47.5820 C   0  0  0  0  0  0  0  0  0  0  0  0
   45.3390   33.4100   48.2450 O   0  0  0  0  0  0  0  0  0  0  0  0
   46.5440   35.3060   41.8830 O   0  0  0  0  0  0  0  0  0  0  0  0
   47.3680   33.0340   40.7680 O   0  0  0  0  0  0  0  0  0  0  0  0
   47.8690   34.3670   41.3100 P   0  0  1  0  0  0  0  0  0  0  0  0
   48.6570   35.2440   40.1360 O   0  0  0  0  0  0  0  0  0  0  0  0
   48.8590   34.0770   42.6470 O   0  0  0  0  0  0  0  0  0  0  0  0
   49.8720   33.1310   42.6380 C   0  0  0  0  0  0  0  0  0  0  0  0
   49.5960   31.9200   42.7360 O   0  0  0  0  0  0  0  0  0  0  0  0
   51.2330   33.5590   42.5150 N   0  0  0  0  0  0  0  0  0  0  0  0
   43.7152   36.3876   45.2468 H   0  0  0  0  0  0  0  0  0  0  0  0
   44.6680   36.7587   42.9325 H   0  0  0  0  0  0  0  0  0  0  0  0
   44.3332   32.5512   46.8982 H   0  0  0  0  0  0  0  0  0  0  0  0
   47.3196   33.2733   46.5409 H   0  0  0  0  0  0  0  0  0  0  0  0
   45.6863   31.4770   44.6127 H   0  0  0  0  0  0  0  0  0  0  0  0
   47.4260   31.3429   44.9693 H   0  0  0  0  0  0  0  0  0  0  0  0
   46.8654   31.2301   48.1576 H   0  0  0  0  0  0  0  0  0  0  0  0
   45.2453   30.5666   48.2184 H   0  0  0  0  0  0  0  0  0  0  0  0
   45.3663   32.9165   49.1028 H   0  0  0  0  0  0  0  0  0  0  0  0
   49.2535   35.9078   40.5646 H   0  0  0  0  0  0  0  0  0  0  0  0
   51.9928   32.8637   42.5073 H   0  0  0  0  0  0  0  0  0  0  0  0
   51.4521   34.5622   42.4342 H   0  0  0  0  0  0  0  0  0  0  0  0
  1  6  2  0
  2  1  1  0
  3  2  2  0
  3  4  1  0
  4  5  2  0
  5  6  1  0
  5  8  1  0
  7 11  1  0
  7 12  1  0
  8  7  1  0
  9  8  1  0
  9 10  1  0
 10 11  1  0
 13  3  1  0
 15 14  2  0
 15 13  1  0
 15 17  1  0
 16 15  1  0
 18 17  1  0
 18 19  2  0
 20 18  1  0
  1 21  1  0
  2 22  1  0
  7 23  1  6
  8 24  1  1
  9 25  1  0
  9 26  1  0
 11 27  1  0
 11 28  1  0
 12 29  1  0
 16 30  1  0
 20 31  1  0
 20 32  1  0
M  ISO  8  21  14  22  14  23  13  24  13  25  13  26  13  27  13  28  13
M  ISO  2  29   3  30   3
M  END
>  <minimizedAffinity>  (1) 
-5.77639866

>  <minimizedRMSD>  (1) 
0.903003335

$$$$
