
     RDKit          3D

 30 31  0  0  1  0  0  0  0  0999 V2000
   44.4530   35.8060   44.5330 C   0  0  0  0  0  0  0  0  0  0  0  0
   44.9450   35.8120   43.2030 C   0  0  0  0  0  0  0  0  0  0  0  0
   45.9460   34.9030   42.9020 C   0  0  0  0  0  0  0  0  0  0  0  0
   46.4020   34.0710   43.8640 N   0  0  0  0  0  0  0  0  0  0  0  0
   45.9250   34.0820   45.1120 C   0  0  0  0  0  0  0  0  0  0  0  0
   44.9400   34.9590   45.4470 N   0  0  0  0  0  0  0  0  0  0  0  0
   45.3290   32.7480   47.1500 C   0  0  1  0  0  0  0  0  0  0  0  0
   46.3920   33.2060   46.2000 C   0  0  1  0  0  0  0  0  0  0  0  0
   46.7860   31.8280   45.6140 C   0  0  0  0  0  0  0  0  0  0  0  0
   46.6180   30.9220   46.6110 O   0  0  0  0  0  0  0  0  0  0  0  0
   46.0450   31.5290   47.7240 C   0  0  0  0  0  0  0  0  0  0  0  0
   44.9530   33.6740   48.0800 O   0  0  0  0  0  0  0  0  0  0  0  0
   46.4130   34.9220   41.6000 O   0  0  0  0  0  0  0  0  0  0  0  0
   47.9400   32.8270   40.9930 O   0  0  0  0  0  0  0  0  0  0  0  0
   47.9880   34.3300   41.2450 P   0  0  1  0  0  0  0  0  0  0  0  0
   48.5710   35.1520   39.9260 O   0  0  0  0  0  0  0  0  0  0  0  0
   48.9200   34.6020   42.6240 O   0  0  0  0  0  0  0  0  0  0  0  0
   50.3150   34.6250   42.5900 C   0  0  0  0  0  0  0  0  0  0  0  0
   50.9280   33.5310   42.3650 O   0  0  0  0  0  0  0  0  0  0  0  0
   43.6572   36.5099   44.8181 H   0  0  0  0  0  0  0  0  0  0  0  0
   44.5504   36.5058   42.4461 H   0  0  0  0  0  0  0  0  0  0  0  0
   44.3495   32.5472   46.6915 H   0  0  0  0  0  0  0  0  0  0  0  0
   47.1706   33.8118   46.6866 H   0  0  0  0  0  0  0  0  0  0  0  0
   46.1379   31.5786   44.7609 H   0  0  0  0  0  0  0  0  0  0  0  0
   47.8247   31.8324   45.2518 H   0  0  0  0  0  0  0  0  0  0  0  0
   46.8179   31.8329   48.4453 H   0  0  0  0  0  0  0  0  0  0  0  0
   45.3668   30.8576   48.2710 H   0  0  0  0  0  0  0  0  0  0  0  0
   45.1013   33.3087   48.9881 H   0  0  0  0  0  0  0  0  0  0  0  0
   49.1160   35.9204   40.2304 H   0  0  0  0  0  0  0  0  0  0  0  0
   50.8695   35.5610   42.7528 H   0  0  0  0  0  0  0  0  0  0  0  0
  1  6  2  0
  2  1  1  0
  3  2  2  0
  3  4  1  0
  4  5  2  0
  5  6  1  0
  5  8  1  0
  7 11  1  0
  7 12  1  0
  8  7  1  0
  9  8  1  0
  9 10  1  0
 10 11  1  0
 13  3  1  0
 15 14  2  0
 15 13  1  0
 15 17  1  0
 16 15  1  0
 18 17  1  0
 19 18  2  0
  1 20  1  0
  2 21  1  0
  7 22  1  6
  8 23  1  1
  9 24  1  0
  9 25  1  0
 11 26  1  0
 11 27  1  0
 12 28  1  0
 16 29  1  0
 18 30  1  0
M  ISO  8  20  14  21  14  22  13  23  13  24  13  25  13  26  13  27  13
M  ISO  3  28   3  29   3  30   6
M  END
>  <minimizedAffinity>  (1) 
-5.5614543

>  <minimizedRMSD>  (1) 
0.724409759

$$$$
