
     RDKit          3D

 22 22  0  0  0  0  0  0  0  0999 V2000
   45.3490   33.8230   43.3770 C   0  0  0  0  0  0  0  0  0  0  0  0
   46.5840   33.5160   42.8080 C   0  0  0  0  0  0  0  0  0  0  0  0
   46.5960   32.6140   41.7280 C   0  0  0  0  0  0  0  0  0  0  0  0
   45.4160   32.1020   41.3070 N   0  0  0  0  0  0  0  0  0  0  0  0
   44.2610   32.4180   41.8730 C   0  0  0  0  0  0  0  0  0  0  0  0
   44.2190   33.2860   42.9190 N   0  0  0  0  0  0  0  0  0  0  0  0
   44.7230   36.0590   44.2590 C   0  0  0  0  0  0  0  0  0  0  0  0
   45.1460   36.6820   43.2350 O   0  0  0  0  0  0  0  0  0  0  0  0
   44.7830   34.6140   44.4180 N   0  0  0  0  0  0  0  0  0  0  0  0
   47.6870   34.1140   43.3440 O   0  0  0  0  0  0  0  0  0  0  0  0
   48.8940   34.7460   41.0800 O   0  0  0  0  0  0  0  0  0  0  0  0
   49.1640   34.2180   42.4690 P   0  0  1  0  0  0  0  0  0  0  0  0
   50.2010   35.3030   43.2340 O   0  0  0  0  0  0  0  0  0  0  0  0
   49.9000   32.7040   42.3640 O   0  0  0  0  0  0  0  0  0  0  0  0
   50.2650   32.2210   41.1150 C   0  0  0  0  0  0  0  0  0  0  0  0
   51.5080   32.0870   40.9660 O   0  0  0  0  0  0  0  0  0  0  0  0
   47.5400   32.3323   41.2386 H   0  0  0  0  0  0  0  0  0  0  0  0
   43.3283   31.9748   41.4940 H   0  0  0  0  0  0  0  0  0  0  0  0
   44.2839   36.6496   45.0765 H   0  0  0  0  0  0  0  0  0  0  0  0
   44.4206   34.1683   45.2729 H   0  0  0  0  0  0  0  0  0  0  0  0
   50.1113   35.2091   44.2154 H   0  0  0  0  0  0  0  0  0  0  0  0
   49.5358   31.9778   40.3282 H   0  0  0  0  0  0  0  0  0  0  0  0
  1  9  1  0
  2 10  1  0
  2  1  2  0
  3  2  1  0
  4  3  2  0
  4  5  1  0
  5  6  2  0
  6  1  1  0
  7  9  1  0
  8  7  2  0
 12 11  2  0
 12 13  1  0
 12 10  1  0
 14 12  1  0
 15 14  1  0
 16 15  2  0
  3 17  1  0
  5 18  1  0
  7 19  1  0
  9 20  1  0
 13 21  1  0
 15 22  1  0
M  ISO  5  17  14  18  14  19   6  21   3  22   6
M  END
>  <minimizedAffinity>  (1) 
-4.11489296

>  <minimizedRMSD>  (1) 
3.32502699

$$$$
