
     RDKit          3D

 34 35  0  0  0  0  0  0  0  0999 V2000
   50.2240   34.9010   42.6970 O   0  0  0  0  0  0  0  0  0  0  0  0
   49.0540   34.6080   41.8160 P   0  0  1  0  0  0  0  0  0  0  0  0
   48.9700   35.8820   40.7040 O   0  0  0  0  0  0  0  0  0  0  0  0
   49.3060   33.1520   40.9550 O   0  0  0  0  0  0  0  0  0  0  0  0
   49.5360   31.4420   42.5480 C   0  0  0  0  0  0  0  0  0  0  0  0
   50.0610   32.1280   41.4630 C   0  0  0  0  0  0  0  0  0  0  0  0
   51.3170   31.7210   40.9730 C   0  0  0  0  0  0  0  0  0  0  0  0
   51.9350   30.6860   41.5920 N   0  0  0  0  0  0  0  0  0  0  0  0
   51.4000   30.0550   42.6290 C   0  0  0  0  0  0  0  0  0  0  0  0
   50.1810   30.4380   43.1150 N   0  0  0  0  0  0  0  0  0  0  0  0
   47.0940   31.0350   42.8230 C   0  0  0  0  0  0  0  0  0  0  0  0
   46.9200   30.7010   41.6020 O   0  0  0  0  0  0  0  0  0  0  0  0
   48.3840   31.4260   43.3970 N   0  0  0  0  0  0  0  0  0  0  0  0
   47.6350   34.5740   42.6760 O   0  0  0  0  0  0  0  0  0  0  0  0
   46.5320   35.1000   42.1210 C   0  0  0  0  0  0  0  0  0  0  0  0
   45.4730   35.6000   43.0520 C   0  0  0  0  0  0  0  0  0  0  0  0
   44.1940   35.7620   42.2440 C   0  0  0  0  0  0  0  0  0  0  0  0
   43.6500   34.5110   41.9600 O   0  0  0  0  0  0  0  0  0  0  0  0
   44.6550   33.5770   41.7200 C   0  0  0  0  0  0  0  0  0  0  0  0
   45.8670   34.2460   41.0620 C   0  0  0  0  0  0  0  0  0  0  0  0
   48.9133   36.7420   41.1911 H   0  0  0  0  0  0  0  0  0  0  0  0
   51.7820   32.2276   40.1144 H   0  0  0  0  0  0  0  0  0  0  0  0
   51.9395   29.2200   43.0998 H   0  0  0  0  0  0  0  0  0  0  0  0
   46.2172   31.0285   43.4872 H   0  0  0  0  0  0  0  0  0  0  0  0
   48.4603   31.6841   44.3912 H   0  0  0  0  0  0  0  0  0  0  0  0
   46.9917   35.9789   41.6453 H   0  0  0  0  0  0  0  0  0  0  0  0
   45.3148   34.8758   43.8647 H   0  0  0  0  0  0  0  0  0  0  0  0
   45.7723   36.5588   43.5005 H   0  0  0  0  0  0  0  0  0  0  0  0
   43.4688   36.3519   42.8237 H   0  0  0  0  0  0  0  0  0  0  0  0
   44.4249   36.2788   41.3008 H   0  0  0  0  0  0  0  0  0  0  0  0
   44.9648   33.1260   42.6743 H   0  0  0  0  0  0  0  0  0  0  0  0
   44.2655   32.8031   41.0422 H   0  0  0  0  0  0  0  0  0  0  0  0
   46.5690   33.4813   40.6980 H   0  0  0  0  0  0  0  0  0  0  0  0
   45.5580   34.8581   40.2019 H   0  0  0  0  0  0  0  0  0  0  0  0
  2 14  1  0
  2  1  2  0
  3  2  1  0
  4  6  1  0
  4  2  1  0
  5 10  2  0
  5 13  1  0
  6  5  1  0
  7  6  2  0
  7  8  1  0
  8  9  2  0
  9 10  1  0
 11 13  1  0
 12 11  2  0
 15 14  1  0
 15 16  1  0
 17 16  1  0
 18 17  1  0
 19 18  1  0
 20 19  1  0
 20 15  1  0
  3 21  1  0
  7 22  1  0
  9 23  1  0
 11 24  1  0
 13 25  1  0
 15 26  1  0
 16 27  1  0
 16 28  1  0
 17 29  1  0
 17 30  1  0
 19 31  1  0
 19 32  1  0
 20 33  1  0
 20 34  1  0
M  ISO  8  21   3  22  14  23  14  24   6  26  13  27  13  28  13  29  13
M  ISO  5  30  13  31  13  32  13  33  13  34  13
M  END
>  <minimizedAffinity>  (1) 
-4.03815889

>  <minimizedRMSD>  (1) 
5.10291433

$$$$
