
     RDKit          3D

 36 37  0  0  1  0  0  0  0  0999 V2000
   50.2810   34.8200   42.6960 O   0  0  0  0  0  0  0  0  0  0  0  0
   49.0610   34.5920   41.8880 P   0  0  1  0  0  0  0  0  0  0  0  0
   49.0230   35.8000   40.6890 O   0  0  0  0  0  0  0  0  0  0  0  0
   49.1620   33.0800   41.0640 O   0  0  0  0  0  0  0  0  0  0  0  0
   49.6630   31.3070   42.5370 C   0  0  0  0  0  0  0  0  0  0  0  0
   50.0360   32.0930   41.4720 C   0  0  0  0  0  0  0  0  0  0  0  0
   51.2890   31.8490   40.8540 C   0  0  0  0  0  0  0  0  0  0  0  0
   52.0430   30.8480   41.3570 N   0  0  0  0  0  0  0  0  0  0  0  0
   51.6510   30.1130   42.3850 C   0  0  0  0  0  0  0  0  0  0  0  0
   50.4500   30.3550   42.9690 N   0  0  0  0  0  0  0  0  0  0  0  0
   47.2950   30.6530   42.9530 C   0  0  0  0  0  0  0  0  0  0  0  0
   47.0640   30.3710   41.7170 O   0  0  0  0  0  0  0  0  0  0  0  0
   48.5880   31.1460   43.4500 N   0  0  0  0  0  0  0  0  0  0  0  0
   47.6640   34.6800   42.7600 O   0  0  0  0  0  0  0  0  0  0  0  0
   46.5130   34.9460   42.1420 C   0  0  2  0  0  0  0  0  0  0  0  0
   45.5000   35.7500   42.8520 C   0  0  0  0  0  0  0  0  0  0  0  0
   44.1520   35.5420   42.2030 C   0  0  0  0  0  0  0  0  0  0  0  0
   43.6580   34.2730   42.4990 O   0  0  0  0  0  0  0  0  0  0  0  0
   44.6870   33.3440   42.5810 C   0  0  0  0  0  0  0  0  0  0  0  0
   45.8110   33.6740   41.6390 C   0  0  1  0  0  0  0  0  0  0  0  0
   45.4210   33.7230   40.2370 C   0  0  0  0  0  0  0  0  0  0  0  0
   45.6050   33.2940   39.1200 O   0  0  0  0  0  0  0  0  0  0  0  0
   48.9950   36.6912   41.1192 H   0  0  0  0  0  0  0  0  0  0  0  0
   51.6327   32.4507   39.9997 H   0  0  0  0  0  0  0  0  0  0  0  0
   52.2968   29.3079   42.7653 H   0  0  0  0  0  0  0  0  0  0  0  0
   46.4784   30.5172   43.6774 H   0  0  0  0  0  0  0  0  0  0  0  0
   48.7121   31.3715   44.4473 H   0  0  0  0  0  0  0  0  0  0  0  0
   46.8831   35.5832   41.3253 H   0  0  0  0  0  0  0  0  0  0  0  0
   45.4532   35.4352   43.9050 H   0  0  0  0  0  0  0  0  0  0  0  0
   45.7729   36.8144   42.8011 H   0  0  0  0  0  0  0  0  0  0  0  0
   44.2555   35.6448   41.1127 H   0  0  0  0  0  0  0  0  0  0  0  0
   43.4508   36.2958   42.5903 H   0  0  0  0  0  0  0  0  0  0  0  0
   45.0759   33.3329   43.6099 H   0  0  0  0  0  0  0  0  0  0  0  0
   44.2832   32.3598   42.3013 H   0  0  0  0  0  0  0  0  0  0  0  0
   46.5336   32.8447   41.6507 H   0  0  0  0  0  0  0  0  0  0  0  0
   44.6152   34.4678   40.1598 H   0  0  0  0  0  0  0  0  0  0  0  0
  2  1  2  0
  2 14  1  0
  3  2  1  0
  4  6  1  0
  4  2  1  0
  5 10  2  0
  5 13  1  0
  6  5  1  0
  7  8  1  0
  7  6  2  0
  8  9  2  0
  9 10  1  0
 11 13  1  0
 12 11  2  0
 15 14  1  0
 15 16  1  0
 17 18  1  0
 17 16  1  0
 18 19  1  0
 20 15  1  0
 20 19  1  0
 21 20  1  0
 22 21  2  0
  3 23  1  0
  7 24  1  0
  9 25  1  0
 11 26  1  0
 13 27  1  0
 15 28  1  6
 16 29  1  0
 16 30  1  0
 17 31  1  0
 17 32  1  0
 19 33  1  0
 19 34  1  0
 20 35  1  6
 21 36  1  0
M  ISO  8  23   3  24  14  25  14  26   6  28  13  29  13  30  13  31  13
M  ISO  5  32  13  33  13  34  13  35  13  36   6
M  END
>  <minimizedAffinity>  (1) 
-4.24644804

>  <minimizedRMSD>  (1) 
0.588437855

$$$$
