
     RDKit          3D

 35 38  0  0  0  0  0  0  0  0999 V2000
   45.8750   36.0520   43.0940 C   0  0  0  0  0  0  0  0  0  0  0  0
   46.2870   34.7390   43.4000 C   0  0  0  0  0  0  0  0  0  0  0  0
   45.7180   34.1100   44.4910 C   0  0  0  0  0  0  0  0  0  0  0  0
   44.7990   34.7680   45.2130 N   0  0  0  0  0  0  0  0  0  0  0  0
   44.3950   36.0370   44.9210 C   0  0  0  0  0  0  0  0  0  0  0  0
   44.9470   36.6470   43.8650 N   0  0  0  0  0  0  0  0  0  0  0  0
   46.1380   32.7560   44.8150 C   0  0  0  0  0  0  0  0  0  0  0  0
   45.7160   31.6910   44.0620 C   0  0  0  0  0  0  0  0  0  0  0  0
   46.1270   30.4240   44.3880 C   0  0  0  0  0  0  0  0  0  0  0  0
   46.9750   30.1720   45.4780 C   0  0  0  0  0  0  0  0  0  0  0  0
   47.3700   31.2770   46.2000 C   0  0  0  0  0  0  0  0  0  0  0  0
   46.9530   32.5120   45.8620 N   0  0  0  0  0  0  0  0  0  0  0  0
   47.2770   34.1010   42.5800 C   0  0  0  0  0  0  0  0  0  0  0  0
   48.3610   33.7480   43.1520 O   0  0  0  0  0  0  0  0  0  0  0  0
   46.2050   32.9690   40.6480 C   0  0  0  0  0  0  0  0  0  0  0  0
   47.1740   33.8100   41.1570 C   0  0  0  0  0  0  0  0  0  0  0  0
   48.1200   34.4330   40.3370 C   0  0  0  0  0  0  0  0  0  0  0  0
   48.0530   34.1740   38.9670 C   0  0  0  0  0  0  0  0  0  0  0  0
   48.8220   34.6230   37.9350 N   0  0  0  0  0  0  0  0  0  0  0  0
   48.3420   34.0730   36.7940 C   0  0  0  0  0  0  0  0  0  0  0  0
   47.2470   33.2530   37.0920 C   0  0  0  0  0  0  0  0  0  0  0  0
   47.0670   33.3200   38.4780 C   0  0  0  0  0  0  0  0  0  0  0  0
   46.1330   32.7080   39.3000 C   0  0  0  0  0  0  0  0  0  0  0  0
   46.3077   36.5842   42.2341 H   0  0  0  0  0  0  0  0  0  0  0  0
   43.6372   36.5450   45.5355 H   0  0  0  0  0  0  0  0  0  0  0  0
   45.0511   31.8520   43.2006 H   0  0  0  0  0  0  0  0  0  0  0  0
   45.7811   29.5781   43.7758 H   0  0  0  0  0  0  0  0  0  0  0  0
   47.3037   29.1554   45.7395 H   0  0  0  0  0  0  0  0  0  0  0  0
   48.0362   31.1484   47.0658 H   0  0  0  0  0  0  0  0  0  0  0  0
   45.4802   32.5010   41.3304 H   0  0  0  0  0  0  0  0  0  0  0  0
   48.8871   35.1012   40.7553 H   0  0  0  0  0  0  0  0  0  0  0  0
   49.6239   35.2651   38.0094 H   0  0  0  0  0  0  0  0  0  0  0  0
   48.7502   34.2444   35.7870 H   0  0  0  0  0  0  0  0  0  0  0  0
   46.6466   32.6709   36.3774 H   0  0  0  0  0  0  0  0  0  0  0  0
   45.3630   32.0385   38.8889 H   0  0  0  0  0  0  0  0  0  0  0  0
  1  2  2  0
  1  6  1  0
  2  3  1  0
  3  7  1  0
  3  4  2  0
  5  4  1  0
  6  5  2  0
  7 12  2  0
  8  9  2  0
  8  7  1  0
  9 10  1  0
 10 11  2  0
 12 11  1  0
 13 14  2  0
 13  2  1  0
 15 16  2  0
 16 13  1  0
 17 16  1  0
 18 17  2  0
 19 18  1  0
 20 21  2  0
 20 19  1  0
 21 22  1  0
 22 18  1  0
 22 23  2  0
 23 15  1  0
  1 24  1  0
  5 25  1  0
  8 26  1  0
  9 27  1  0
 10 28  1  0
 11 29  1  0
 15 30  1  0
 17 31  1  0
 19 32  1  0
 20 33  1  0
 21 34  1  0
 23 35  1  0
M  ISO  8  24  14  25  14  26  14  27  14  28  14  29  14  30  14  31  14
M  ISO  4  32   9  33  14  34  14  35  14
M  END
>  <minimizedAffinity>  (1) 
-5.54703569

>  <minimizedRMSD>  (1) 
2.09412599

$$$$
