
     RDKit          3D

 34 36  0  0  0  0  0  0  0  0999 V2000
   45.1350   36.1590   43.5780 C   0  0  0  0  0  0  0  0  0  0  0  0
   45.7790   34.9640   43.1860 C   0  0  0  0  0  0  0  0  0  0  0  0
   45.8150   33.9130   44.0740 C   0  0  0  0  0  0  0  0  0  0  0  0
   45.2400   34.0530   45.2850 N   0  0  0  0  0  0  0  0  0  0  0  0
   44.6190   35.2180   45.6540 C   0  0  0  0  0  0  0  0  0  0  0  0
   44.5860   36.2320   44.7920 N   0  0  0  0  0  0  0  0  0  0  0  0
   46.4750   32.6880   43.6670 C   0  0  0  0  0  0  0  0  0  0  0  0
   45.7140   31.6160   43.2190 C   0  0  0  0  0  0  0  0  0  0  0  0
   46.3670   30.4660   42.8390 C   0  0  0  0  0  0  0  0  0  0  0  0
   47.7510   30.3170   42.8780 C   0  0  0  0  0  0  0  0  0  0  0  0
   48.4340   31.4210   43.3330 C   0  0  0  0  0  0  0  0  0  0  0  0
   47.7980   32.5520   43.7060 N   0  0  0  0  0  0  0  0  0  0  0  0
   46.3700   34.8970   41.8750 C   0  0  0  0  0  0  0  0  0  0  0  0
   47.5560   35.3510   41.7570 O   0  0  0  0  0  0  0  0  0  0  0  0
   45.8620   33.3690   39.9300 C   0  0  0  0  0  0  0  0  0  0  0  0
   45.5080   34.3120   40.8700 C   0  0  0  0  0  0  0  0  0  0  0  0
   44.1660   34.7040   40.8090 C   0  0  0  0  0  0  0  0  0  0  0  0
   43.2600   34.2060   39.8980 C   0  0  0  0  0  0  0  0  0  0  0  0
   43.6690   33.2640   38.9800 C   0  0  0  0  0  0  0  0  0  0  0  0
   44.9870   32.8470   39.0030 C   0  0  0  0  0  0  0  0  0  0  0  0
   47.5080   32.8230   39.9160 S   0  0  0  0  0  0  0  0  0  0  0  0
   48.3230   33.5710   38.8730 O   0  0  0  0  0  0  0  0  0  0  0  0
   47.5220   31.3830   39.4370 O   0  0  0  0  0  0  0  0  0  0  0  0
   45.0869   37.0174   42.8918 H   0  0  0  0  0  0  0  0  0  0  0  0
   44.1552   35.3135   46.6468 H   0  0  0  0  0  0  0  0  0  0  0  0
   44.6173   31.6846   43.1692 H   0  0  0  0  0  0  0  0  0  0  0  0
   45.7626   29.6178   42.4850 H   0  0  0  0  0  0  0  0  0  0  0  0
   48.2576   29.3906   42.5696 H   0  0  0  0  0  0  0  0  0  0  0  0
   49.5315   31.3811   43.3948 H   0  0  0  0  0  0  0  0  0  0  0  0
   43.8132   35.4546   41.5316 H   0  0  0  0  0  0  0  0  0  0  0  0
   42.2179   34.5581   39.9038 H   0  0  0  0  0  0  0  0  0  0  0  0
   42.9622   32.8524   38.2444 H   0  0  0  0  0  0  0  0  0  0  0  0
   45.3377   32.0965   38.2793 H   0  0  0  0  0  0  0  0  0  0  0  0
   48.0194   33.0029   41.1742 H   0  0  0  0  0  0  0  0  0  0  0  0
  1  6  2  0
  2  1  1  0
  2  3  2  0
  3  4  1  0
  4  5  2  0
  6  5  1  0
  7 12  1  0
  7  3  1  0
  8  7  2  0
  9 10  2  0
  9  8  1  0
 10 11  1  0
 11 12  2  0
 13  2  1  0
 14 13  2  0
 15 16  2  0
 16 13  1  0
 17 16  1  0
 18 17  2  0
 19 20  2  0
 19 18  1  0
 20 15  1  0
 21 15  1  0
 22 21  2  0
 23 21  2  0
  1 24  1  0
  5 25  1  0
  8 26  1  0
  9 27  1  0
 10 28  1  0
 11 29  1  0
 17 30  1  0
 18 31  1  0
 19 32  1  0
 20 33  1  0
 21 34  1  0
M  ISO  8  24  14  25  14  26  14  27  14  28  14  29  14  30  14  31  14
M  ISO  3  32  14  33  14  34  11
M  END
>  <minimizedAffinity>  (1) 
-4.77911997

>  <minimizedRMSD>  (1) 
0.890812874

$$$$
