
     RDKit          3D

 34 36  0  0  0  0  0  0  0  0999 V2000
   45.1270   36.1500   43.4500 C   0  0  0  0  0  0  0  0  0  0  0  0
   45.7580   34.9290   43.1010 C   0  0  0  0  0  0  0  0  0  0  0  0
   45.7920   33.9330   44.0740 C   0  0  0  0  0  0  0  0  0  0  0  0
   45.2410   34.1530   45.2830 N   0  0  0  0  0  0  0  0  0  0  0  0
   44.6380   35.3450   45.5860 C   0  0  0  0  0  0  0  0  0  0  0  0
   44.6020   36.3000   44.6650 N   0  0  0  0  0  0  0  0  0  0  0  0
   46.4380   32.6730   43.7330 C   0  0  0  0  0  0  0  0  0  0  0  0
   45.6830   31.5560   43.4780 C   0  0  0  0  0  0  0  0  0  0  0  0
   46.3450   30.3860   43.1580 C   0  0  0  0  0  0  0  0  0  0  0  0
   47.7250   30.2790   43.0820 C   0  0  0  0  0  0  0  0  0  0  0  0
   48.4220   31.4310   43.3490 C   0  0  0  0  0  0  0  0  0  0  0  0
   47.7760   32.5730   43.6610 N   0  0  0  0  0  0  0  0  0  0  0  0
   46.3200   34.7650   41.8090 C   0  0  0  0  0  0  0  0  0  0  0  0
   47.5030   35.1390   41.6290 O   0  0  0  0  0  0  0  0  0  0  0  0
   45.6290   34.1990   40.6990 N   0  0  0  0  0  0  0  0  0  0  0  0
   44.1860   34.3300   40.5730 C   0  0  0  0  0  0  0  0  0  0  0  0
   43.6410   32.9140   40.7270 C   0  0  0  0  0  0  0  0  0  0  0  0
   44.5610   31.9670   40.3590 O   0  0  0  0  0  0  0  0  0  0  0  0
   45.3860   32.2930   39.3130 C   0  0  0  0  0  0  0  0  0  0  0  0
   46.3000   33.4700   39.6400 C   0  0  0  0  0  0  0  0  0  0  0  0
   45.0712   36.9707   42.7197 H   0  0  0  0  0  0  0  0  0  0  0  0
   44.1904   35.5082   46.5775 H   0  0  0  0  0  0  0  0  0  0  0  0
   44.5846   31.5908   43.5268 H   0  0  0  0  0  0  0  0  0  0  0  0
   45.7429   29.4888   42.9519 H   0  0  0  0  0  0  0  0  0  0  0  0
   48.2275   29.3348   42.8251 H   0  0  0  0  0  0  0  0  0  0  0  0
   49.5212   31.4226   43.3080 H   0  0  0  0  0  0  0  0  0  0  0  0
   43.7877   34.9846   41.3622 H   0  0  0  0  0  0  0  0  0  0  0  0
   43.8964   34.7797   39.6118 H   0  0  0  0  0  0  0  0  0  0  0  0
   43.3660   32.7518   41.7796 H   0  0  0  0  0  0  0  0  0  0  0  0
   42.7666   32.8128   40.0673 H   0  0  0  0  0  0  0  0  0  0  0  0
   44.7666   32.5574   38.4433 H   0  0  0  0  0  0  0  0  0  0  0  0
   46.0230   31.4211   39.1031 H   0  0  0  0  0  0  0  0  0  0  0  0
   47.2816   33.1108   39.9827 H   0  0  0  0  0  0  0  0  0  0  0  0
   46.4803   34.1037   38.7591 H   0  0  0  0  0  0  0  0  0  0  0  0
  1  6  2  0
  2  1  1  0
  2  3  2  0
  3  4  1  0
  4  5  2  0
  6  5  1  0
  7  3  1  0
  8  7  2  0
  9  8  1  0
 10  9  2  0
 10 11  1  0
 11 12  2  0
 12  7  1  0
 13  2  1  0
 14 13  2  0
 15 13  1  0
 16 15  1  0
 16 17  1  0
 18 17  1  0
 19 20  1  0
 19 18  1  0
 20 15  1  0
  1 21  1  0
  5 22  1  0
  8 23  1  0
  9 24  1  0
 10 25  1  0
 11 26  1  0
 16 27  1  0
 16 28  1  0
 17 29  1  0
 17 30  1  0
 19 31  1  0
 19 32  1  0
 20 33  1  0
 20 34  1  0
M  ISO  8  21  14  22  14  23  14  24  14  25  14  26  14  27  13  28  13
M  ISO  6  29  13  30  13  31  13  32  13  33  13  34  13
M  END
>  <minimizedAffinity>  (1) 
-4.54620981

>  <minimizedRMSD>  (1) 
0.31644842

$$$$
