
     RDKit          3D

 30 32  0  0  0  0  0  0  0  0999 V2000
   45.3310   33.8610   43.4910 C   0  0  0  0  0  0  0  0  0  0  0  0
   45.7390   33.0960   44.6120 C   0  0  0  0  0  0  0  0  0  0  0  0
   45.5060   33.6230   45.8720 C   0  0  0  0  0  0  0  0  0  0  0  0
   44.9170   34.8160   46.0020 N   0  0  0  0  0  0  0  0  0  0  0  0
   44.5260   35.5480   44.9060 C   0  0  0  0  0  0  0  0  0  0  0  0
   44.7420   35.0540   43.6960 N   0  0  0  0  0  0  0  0  0  0  0  0
   45.9300   32.8290   47.0350 C   0  0  0  0  0  0  0  0  0  0  0  0
   44.9810   32.2630   47.8500 C   0  0  0  0  0  0  0  0  0  0  0  0
   45.4240   31.5290   48.9280 C   0  0  0  0  0  0  0  0  0  0  0  0
   46.7570   31.3250   49.2390 C   0  0  0  0  0  0  0  0  0  0  0  0
   47.6490   31.9290   48.3680 C   0  0  0  0  0  0  0  0  0  0  0  0
   47.2280   32.6510   47.3090 N   0  0  0  0  0  0  0  0  0  0  0  0
   46.3620   31.8320   44.4130 C   0  0  0  0  0  0  0  0  0  0  0  0
   47.5770   31.8090   44.0980 O   0  0  0  0  0  0  0  0  0  0  0  0
   45.6560   30.5630   44.5560 C   0  0  0  0  0  0  0  0  0  0  0  0
   46.0360   29.6520   45.5200 C   0  0  0  0  0  0  0  0  0  0  0  0
   45.3810   28.4520   45.6670 C   0  0  0  0  0  0  0  0  0  0  0  0
   44.3130   28.1360   44.8400 C   0  0  0  0  0  0  0  0  0  0  0  0
   43.9720   29.0810   43.8940 C   0  0  0  0  0  0  0  0  0  0  0  0
   44.6180   30.2440   43.7600 N   0  0  0  0  0  0  0  0  0  0  0  0
   45.4930   33.4860   42.4697 H   0  0  0  0  0  0  0  0  0  0  0  0
   44.0418   36.5277   45.0317 H   0  0  0  0  0  0  0  0  0  0  0  0
   43.9070   32.3910   47.6495 H   0  0  0  0  0  0  0  0  0  0  0  0
   44.6680   31.0748   49.5854 H   0  0  0  0  0  0  0  0  0  0  0  0
   47.0816   30.7319   50.1067 H   0  0  0  0  0  0  0  0  0  0  0  0
   48.7289   31.8170   48.5445 H   0  0  0  0  0  0  0  0  0  0  0  0
   46.8798   29.8904   46.1842 H   0  0  0  0  0  0  0  0  0  0  0  0
   45.7045   27.7413   46.4418 H   0  0  0  0  0  0  0  0  0  0  0  0
   43.7682   27.1849   44.9332 H   0  0  0  0  0  0  0  0  0  0  0  0
   43.1300   28.8677   43.2191 H   0  0  0  0  0  0  0  0  0  0  0  0
  1  6  2  0
  1  2  1  0
  2  3  2  0
  3  4  1  0
  3  7  1  0
  5  4  2  0
  6  5  1  0
  7 12  1  0
  7  8  2  0
  8  9  1  0
  9 10  2  0
 11 10  1  0
 12 11  2  0
 13 15  1  0
 13  2  1  0
 14 13  2  0
 15 16  2  0
 16 17  1  0
 18 17  2  0
 19 18  1  0
 20 19  2  0
 20 15  1  0
  1 21  1  0
  5 22  1  0
  8 23  1  0
  9 24  1  0
 10 25  1  0
 11 26  1  0
 16 27  1  0
 17 28  1  0
 18 29  1  0
 19 30  1  0
M  ISO  8  21  14  22  14  23  14  24  14  25  14  26  14  27  14  28  14
M  ISO  2  29  14  30  14
M  END
>  <minimizedAffinity>  (1) 
-4.66050625

>  <minimizedRMSD>  (1) 
4.87403059

$$$$
