
     RDKit          3D

 35 37  0  0  0  0  0  0  0  0999 V2000
   45.3590   36.1230   43.0840 C   0  0  0  0  0  0  0  0  0  0  0  0
   45.9440   34.8490   42.8930 C   0  0  0  0  0  0  0  0  0  0  0  0
   45.8350   33.9390   43.9190 C   0  0  0  0  0  0  0  0  0  0  0  0
   45.1860   34.2830   45.0530 N   0  0  0  0  0  0  0  0  0  0  0  0
   44.6270   35.5180   45.2200 C   0  0  0  0  0  0  0  0  0  0  0  0
   44.7300   36.4050   44.2260 N   0  0  0  0  0  0  0  0  0  0  0  0
   46.6120   34.5540   41.6750 C   0  0  0  0  0  0  0  0  0  0  0  0
   47.7110   35.1250   41.4570 O   0  0  0  0  0  0  0  0  0  0  0  0
   46.2270   33.6810   40.6150 N   0  0  0  0  0  0  0  0  0  0  0  0
   47.2970   33.0570   39.8570 C   0  0  0  0  0  0  0  0  0  0  0  0
   47.2500   33.4860   38.4150 C   0  0  0  0  0  0  0  0  0  0  0  0
   45.9150   33.6900   37.9630 N   0  0  0  0  0  0  0  0  0  0  0  0
   44.8920   33.0100   38.6960 C   0  0  0  0  0  0  0  0  0  0  0  0
   44.8950   33.3120   40.1650 C   0  0  0  0  0  0  0  0  0  0  0  0
   46.4320   32.6140   43.7420 C   0  0  0  0  0  0  0  0  0  0  0  0
   45.6210   31.5240   43.5330 C   0  0  0  0  0  0  0  0  0  0  0  0
   46.2050   30.2930   43.3710 C   0  0  0  0  0  0  0  0  0  0  0  0
   47.5930   30.0900   43.4090 C   0  0  0  0  0  0  0  0  0  0  0  0
   48.3470   31.2340   43.6250 C   0  0  0  0  0  0  0  0  0  0  0  0
   47.7610   32.4410   43.7820 N   0  0  0  0  0  0  0  0  0  0  0  0
   45.4229   36.8816   42.2900 H   0  0  0  0  0  0  0  0  0  0  0  0
   44.1036   35.7767   46.1522 H   0  0  0  0  0  0  0  0  0  0  0  0
   48.2646   33.3512   40.2896 H   0  0  0  0  0  0  0  0  0  0  0  0
   47.1729   31.9651   39.9046 H   0  0  0  0  0  0  0  0  0  0  0  0
   47.8097   34.4266   38.3058 H   0  0  0  0  0  0  0  0  0  0  0  0
   47.6962   32.6850   37.8072 H   0  0  0  0  0  0  0  0  0  0  0  0
   45.7176   34.6998   38.0100 H   0  0  0  0  0  0  0  0  0  0  0  0
   43.9159   33.3051   38.2836 H   0  0  0  0  0  0  0  0  0  0  0  0
   45.0861   31.9324   38.5909 H   0  0  0  0  0  0  0  0  0  0  0  0
   44.2042   34.1448   40.3631 H   0  0  0  0  0  0  0  0  0  0  0  0
   44.5764   32.4112   40.7101 H   0  0  0  0  0  0  0  0  0  0  0  0
   44.5273   31.6362   43.4964 H   0  0  0  0  0  0  0  0  0  0  0  0
   45.5534   29.4228   43.2032 H   0  0  0  0  0  0  0  0  0  0  0  0
   48.0490   29.0977   43.2773 H   0  0  0  0  0  0  0  0  0  0  0  0
   49.4434   31.1569   43.6693 H   0  0  0  0  0  0  0  0  0  0  0  0
  1  6  2  0
  2  1  1  0
  2  3  2  0
  3  4  1  0
  4  5  2  0
  6  5  1  0
  7  2  1  0
  8  7  2  0
  9  7  1  0
 10  9  1  0
 11 10  1  0
 12 11  1  0
 12 13  1  0
 13 14  1  0
 14  9  1  0
 15 20  1  0
 15  3  1  0
 16 15  2  0
 17 18  2  0
 17 16  1  0
 18 19  1  0
 19 20  2  0
  1 21  1  0
  5 22  1  0
 10 23  1  0
 10 24  1  0
 11 25  1  0
 11 26  1  0
 12 27  1  0
 13 28  1  0
 13 29  1  0
 14 30  1  0
 14 31  1  0
 16 32  1  0
 17 33  1  0
 18 34  1  0
 19 35  1  0
M  ISO  8  21  14  22  14  23  13  24  13  25  13  26  13  27   5  28  13
M  ISO  7  29  13  30  13  31  13  32  14  33  14  34  14  35  14
M  END
>  <minimizedAffinity>  (1) 
-4.71559143

>  <minimizedRMSD>  (1) 
0.383996636

$$$$
