
     RDKit          3D

 22 23  0  0  0  0  0  0  0  0999 V2000
   45.2720   36.2110   43.2460 C   0  0  0  0  0  0  0  0  0  0  0  0
   45.8870   34.9830   42.9290 C   0  0  0  0  0  0  0  0  0  0  0  0
   45.8530   33.9750   43.8660 C   0  0  0  0  0  0  0  0  0  0  0  0
   45.2380   34.1960   45.0420 N   0  0  0  0  0  0  0  0  0  0  0  0
   44.6460   35.3870   45.3400 C   0  0  0  0  0  0  0  0  0  0  0  0
   44.6780   36.3590   44.4400 N   0  0  0  0  0  0  0  0  0  0  0  0
   46.4900   32.7000   43.5400 C   0  0  0  0  0  0  0  0  0  0  0  0
   45.7120   31.6570   43.0800 C   0  0  0  0  0  0  0  0  0  0  0  0
   46.3650   30.4710   42.7870 C   0  0  0  0  0  0  0  0  0  0  0  0
   47.7260   30.2660   42.9220 C   0  0  0  0  0  0  0  0  0  0  0  0
   48.4240   31.3610   43.3880 C   0  0  0  0  0  0  0  0  0  0  0  0
   47.8010   32.5160   43.6760 N   0  0  0  0  0  0  0  0  0  0  0  0
   46.5210   34.8210   41.6590 C   0  0  0  0  0  0  0  0  0  0  0  0
   47.7330   35.1490   41.5380 O   0  0  0  0  0  0  0  0  0  0  0  0
   45.9600   34.3240   40.4660 O   0  0  0  0  0  0  0  0  0  0  0  0
   45.2789   37.0393   42.5222 H   0  0  0  0  0  0  0  0  0  0  0  0
   44.1505   35.5386   46.3103 H   0  0  0  0  0  0  0  0  0  0  0  0
   44.6246   31.7625   42.9521 H   0  0  0  0  0  0  0  0  0  0  0  0
   45.7567   29.6311   42.4202 H   0  0  0  0  0  0  0  0  0  0  0  0
   48.2116   29.3096   42.6781 H   0  0  0  0  0  0  0  0  0  0  0  0
   49.5127   31.2869   43.5266 H   0  0  0  0  0  0  0  0  0  0  0  0
   46.5129   34.2625   39.6471 H   0  0  0  0  0  0  0  0  0  0  0  0
  1  6  2  0
  2  1  1  0
  2  3  2  0
  3  4  1  0
  4  5  2  0
  6  5  1  0
  7 12  1  0
  7  3  1  0
  8  7  2  0
  9 10  2  0
  9  8  1  0
 10 11  1  0
 11 12  2  0
 13  2  1  0
 14 13  2  0
 15 13  1  0
  1 16  1  0
  5 17  1  0
  8 18  1  0
  9 19  1  0
 10 20  1  0
 11 21  1  0
 15 22  1  0
M  ISO  7  16  14  17  14  18  14  19  14  20  14  21  14  22   3
M  END
>  <minimizedAffinity>  (1) 
-3.93860817

>  <minimizedRMSD>  (1) 
0.159598261

$$$$
