
     RDKit          3D

 36 38  0  0  0  0  0  0  0  0999 V2000
   46.0220   35.7250   42.8350 C   0  0  0  0  0  0  0  0  0  0  0  0
   46.3950   34.4860   43.3890 C   0  0  0  0  0  0  0  0  0  0  0  0
   45.7750   34.0620   44.5430 C   0  0  0  0  0  0  0  0  0  0  0  0
   44.8360   34.8380   45.1080 N   0  0  0  0  0  0  0  0  0  0  0  0
   44.4710   36.0370   44.5770 C   0  0  0  0  0  0  0  0  0  0  0  0
   45.0720   36.4530   43.4540 N   0  0  0  0  0  0  0  0  0  0  0  0
   46.1710   32.7760   45.1080 C   0  0  0  0  0  0  0  0  0  0  0  0
   45.7930   31.6040   44.4960 C   0  0  0  0  0  0  0  0  0  0  0  0
   46.1840   30.4130   45.0560 C   0  0  0  0  0  0  0  0  0  0  0  0
   46.9420   30.3250   46.2110 C   0  0  0  0  0  0  0  0  0  0  0  0
   47.2910   31.5350   46.7810 C   0  0  0  0  0  0  0  0  0  0  0  0
   46.9020   32.6900   46.2210 N   0  0  0  0  0  0  0  0  0  0  0  0
   47.4080   33.7160   42.7250 C   0  0  0  0  0  0  0  0  0  0  0  0
   48.5150   33.5300   43.3240 O   0  0  0  0  0  0  0  0  0  0  0  0
   47.1180   33.1950   41.4150 N   0  0  0  0  0  0  0  0  0  0  0  0
   45.9430   32.5240   40.8910 C   0  0  0  0  0  0  0  0  0  0  0  0
   45.4720   33.2330   39.6160 C   0  0  0  0  0  0  0  0  0  0  0  0
   46.5390   33.0810   38.5490 C   0  0  0  0  0  0  0  0  0  0  0  0
   47.8310   32.6070   39.1790 C   0  0  0  0  0  0  0  0  0  0  0  0
   48.1680   33.3570   40.4270 C   0  0  0  0  0  0  0  0  0  0  0  0
   46.4974   36.0923   41.9135 H   0  0  0  0  0  0  0  0  0  0  0  0
   43.6978   36.6523   45.0603 H   0  0  0  0  0  0  0  0  0  0  0  0
   45.1896   31.6204   43.5764 H   0  0  0  0  0  0  0  0  0  0  0  0
   45.8788   29.4794   44.5607 H   0  0  0  0  0  0  0  0  0  0  0  0
   47.2451   29.3605   46.6445 H   0  0  0  0  0  0  0  0  0  0  0  0
   47.8928   31.5508   47.7016 H   0  0  0  0  0  0  0  0  0  0  0  0
   46.1921   31.4783   40.6577 H   0  0  0  0  0  0  0  0  0  0  0  0
   45.1404   32.5523   41.6426 H   0  0  0  0  0  0  0  0  0  0  0  0
   44.5326   32.7797   39.2665 H   0  0  0  0  0  0  0  0  0  0  0  0
   45.3004   34.2996   39.8234 H   0  0  0  0  0  0  0  0  0  0  0  0
   46.7063   34.0516   38.0591 H   0  0  0  0  0  0  0  0  0  0  0  0
   46.2057   32.3425   37.8050 H   0  0  0  0  0  0  0  0  0  0  0  0
   47.7327   31.5393   39.4247 H   0  0  0  0  0  0  0  0  0  0  0  0
   48.6401   32.7825   38.4548 H   0  0  0  0  0  0  0  0  0  0  0  0
   49.1135   32.9721   40.8368 H   0  0  0  0  0  0  0  0  0  0  0  0
   48.2675   34.4254   40.1847 H   0  0  0  0  0  0  0  0  0  0  0  0
  1  2  2  0
  1  6  1  0
  2  3  1  0
  3  7  1  0
  3  4  2  0
  5  4  1  0
  6  5  2  0
  7 12  2  0
  8  9  2  0
  8  7  1  0
  9 10  1  0
 10 11  2  0
 12 11  1  0
 13 14  2  0
 13  2  1  0
 15 13  1  0
 16 15  1  0
 17 16  1  0
 18 19  1  0
 18 17  1  0
 19 20  1  0
 20 15  1  0
  1 21  1  0
  5 22  1  0
  8 23  1  0
  9 24  1  0
 10 25  1  0
 11 26  1  0
 16 27  1  0
 16 28  1  0
 17 29  1  0
 17 30  1  0
 18 31  1  0
 18 32  1  0
 19 33  1  0
 19 34  1  0
 20 35  1  0
 20 36  1  0
M  ISO  8  21  14  22  14  23  14  24  14  25  14  26  14  27  13  28  13
M  ISO  8  29  13  30  13  31  13  32  13  33  13  34  13  35  13  36  13
M  END
>  <minimizedAffinity>  (1) 
-4.68742704

>  <minimizedRMSD>  (1) 
2.06128836

$$$$
