
     RDKit          3D

 38 40  0  0  1  0  0  0  0  0999 V2000
   47.4360   33.7620   42.7220 C   0  0  0  0  0  0  0  0  0  0  0  0
   48.5400   33.5850   43.3330 O   0  0  0  0  0  0  0  0  0  0  0  0
   47.1680   33.2500   41.4100 N   0  0  0  0  0  0  0  0  0  0  0  0
   45.9920   32.5740   40.8790 C   0  0  0  0  0  0  0  0  0  0  0  0
   45.5500   33.2640   39.5960 C   0  0  0  0  0  0  0  0  0  0  0  0
   46.6170   33.1380   38.5450 C   0  0  0  0  0  0  0  0  0  0  0  0
   47.9100   32.6850   39.1820 C   0  0  0  0  0  0  0  0  0  0  0  0
   48.2260   33.4240   40.4400 C   0  0  1  0  0  0  0  0  0  0  0  0
   46.0260   35.7610   42.8400 C   0  0  0  0  0  0  0  0  0  0  0  0
   46.4010   34.5190   43.3880 C   0  0  0  0  0  0  0  0  0  0  0  0
   45.7790   34.0680   44.5300 C   0  0  0  0  0  0  0  0  0  0  0  0
   44.8230   34.8400   45.0880 N   0  0  0  0  0  0  0  0  0  0  0  0
   44.4530   36.0410   44.5700 C   0  0  0  0  0  0  0  0  0  0  0  0
   45.0650   36.4780   43.4520 N   0  0  0  0  0  0  0  0  0  0  0  0
   46.1800   32.7910   45.0850 C   0  0  0  0  0  0  0  0  0  0  0  0
   45.8130   31.6320   44.4690 C   0  0  0  0  0  0  0  0  0  0  0  0
   46.1990   30.4260   45.0050 C   0  0  0  0  0  0  0  0  0  0  0  0
   46.9600   30.3320   46.1700 C   0  0  0  0  0  0  0  0  0  0  0  0
   47.3060   31.5460   46.7570 C   0  0  0  0  0  0  0  0  0  0  0  0
   46.9090   32.6970   46.2000 N   0  0  0  0  0  0  0  0  0  0  0  0
   48.6030   34.7950   40.2570 N   0  0  0  0  0  0  0  0  0  0  0  0
   46.2377   31.5233   40.6651 H   0  0  0  0  0  0  0  0  0  0  0  0
   45.1785   32.6156   41.6182 H   0  0  0  0  0  0  0  0  0  0  0  0
   44.6240   32.7952   39.2317 H   0  0  0  0  0  0  0  0  0  0  0  0
   45.3747   34.3299   39.8037 H   0  0  0  0  0  0  0  0  0  0  0  0
   46.7703   34.1139   38.0611 H   0  0  0  0  0  0  0  0  0  0  0  0
   46.3025   32.3981   37.7943 H   0  0  0  0  0  0  0  0  0  0  0  0
   47.8301   31.6129   39.4150 H   0  0  0  0  0  0  0  0  0  0  0  0
   48.7203   32.8883   38.4664 H   0  0  0  0  0  0  0  0  0  0  0  0
   49.1412   32.9654   40.8428 H   0  0  0  0  0  0  0  0  0  0  0  0
   46.5102   36.1388   41.9274 H   0  0  0  0  0  0  0  0  0  0  0  0
   43.6701   36.6437   45.0536 H   0  0  0  0  0  0  0  0  0  0  0  0
   45.2115   31.6612   43.5485 H   0  0  0  0  0  0  0  0  0  0  0  0
   45.8959   29.4996   44.4953 H   0  0  0  0  0  0  0  0  0  0  0  0
   47.2658   29.3650   46.5958 H   0  0  0  0  0  0  0  0  0  0  0  0
   47.9059   31.5596   47.6789 H   0  0  0  0  0  0  0  0  0  0  0  0
   48.7262   35.2429   41.1763 H   0  0  0  0  0  0  0  0  0  0  0  0
   49.4877   34.8406   39.7316 H   0  0  0  0  0  0  0  0  0  0  0  0
  1  2  2  0
  1 10  1  0
  3  1  1  0
  4  3  1  0
  5  4  1  0
  6  7  1  0
  6  5  1  0
  7  8  1  0
  8  3  1  0
  9 10  2  0
  9 14  1  0
 10 11  1  0
 11 15  1  0
 11 12  2  0
 13 12  1  0
 14 13  2  0
 15 20  2  0
 16 17  2  0
 16 15  1  0
 17 18  1  0
 18 19  2  0
 20 19  1  0
 21  8  1  0
  4 22  1  0
  4 23  1  0
  5 24  1  0
  5 25  1  0
  6 26  1  0
  6 27  1  0
  7 28  1  0
  7 29  1  0
  8 30  1  1
  9 31  1  0
 13 32  1  0
 16 33  1  0
 17 34  1  0
 18 35  1  0
 19 36  1  0
 21 37  1  0
 21 38  1  0
M  ISO  8  22  13  23  13  24  13  25  13  26  13  27  13  28  13  29  13
M  ISO  8  30  13  31  14  32  14  33  14  34  14  35  14  36  14  37   5
M  ISO  1  38   5
M  END
>  <minimizedAffinity>  (1) 
-5.19007587

>  <minimizedRMSD>  (1) 
0.0592505783

$$$$
