
     RDKit          3D

 43 46  0  0  1  0  0  0  0  0999 V2000
   47.4610   33.3920   43.1350 C   0  0  0  0  0  0  0  0  0  0  0  0
   48.3700   32.9990   43.9360 O   0  0  0  0  0  0  0  0  0  0  0  0
   47.4160   33.0250   41.7560 N   0  0  0  0  0  0  0  0  0  0  0  0
   46.2960   32.5900   40.9240 C   0  0  0  0  0  0  0  0  0  0  0  0
   46.2520   33.4370   39.6580 C   0  0  0  0  0  0  0  0  0  0  0  0
   47.4910   33.1990   38.8370 C   0  0  0  0  0  0  0  0  0  0  0  0
   48.5320   32.4920   39.6750 C   0  0  0  0  0  0  0  0  0  0  0  0
   48.6720   33.0850   41.0380 C   0  0  2  0  0  0  0  0  0  0  0  0
   46.0880   35.4100   42.9090 C   0  0  0  0  0  0  0  0  0  0  0  0
   46.4240   34.2530   43.6560 C   0  0  0  0  0  0  0  0  0  0  0  0
   45.7640   33.9920   44.8360 C   0  0  0  0  0  0  0  0  0  0  0  0
   44.8140   34.8550   45.2400 N   0  0  0  0  0  0  0  0  0  0  0  0
   44.4780   35.9700   44.5390 C   0  0  0  0  0  0  0  0  0  0  0  0
   45.1280   36.2210   43.3830 N   0  0  0  0  0  0  0  0  0  0  0  0
   46.1290   32.8060   45.5830 C   0  0  0  0  0  0  0  0  0  0  0  0
   45.7390   31.5740   45.1450 C   0  0  0  0  0  0  0  0  0  0  0  0
   46.1010   30.4600   45.8760 C   0  0  0  0  0  0  0  0  0  0  0  0
   46.8500   30.5330   47.0500 C   0  0  0  0  0  0  0  0  0  0  0  0
   47.2180   31.8180   47.4460 C   0  0  0  0  0  0  0  0  0  0  0  0
   46.8520   32.8820   46.7150 N   0  0  0  0  0  0  0  0  0  0  0  0
   49.7850   32.3370   41.7480 C   0  0  0  0  0  0  0  0  0  0  0  0
   51.0350   31.9600   41.0510 C   0  0  0  0  0  0  0  0  0  0  0  0
   51.0190   33.0970   42.0770 C   0  0  0  0  0  0  0  0  0  0  0  0
   46.4278   31.5318   40.6540 H   0  0  0  0  0  0  0  0  0  0  0  0
   45.3547   32.7091   41.4806 H   0  0  0  0  0  0  0  0  0  0  0  0
   45.3653   33.1636   39.0672 H   0  0  0  0  0  0  0  0  0  0  0  0
   46.2013   34.5001   39.9360 H   0  0  0  0  0  0  0  0  0  0  0  0
   47.2382   32.5760   37.9664 H   0  0  0  0  0  0  0  0  0  0  0  0
   47.8928   34.1649   38.4971 H   0  0  0  0  0  0  0  0  0  0  0  0
   48.2429   31.4357   39.7784 H   0  0  0  0  0  0  0  0  0  0  0  0
   49.5001   32.5997   39.1640 H   0  0  0  0  0  0  0  0  0  0  0  0
   48.9328   34.1521   40.9798 H   0  0  0  0  0  0  0  0  0  0  0  0
   46.6015   35.6382   41.9633 H   0  0  0  0  0  0  0  0  0  0  0  0
   43.6955   36.6511   44.9048 H   0  0  0  0  0  0  0  0  0  0  0  0
   45.1458   31.4700   44.2245 H   0  0  0  0  0  0  0  0  0  0  0  0
   45.7842   29.4700   45.5160 H   0  0  0  0  0  0  0  0  0  0  0  0
   47.1312   29.6379   47.6243 H   0  0  0  0  0  0  0  0  0  0  0  0
   47.8109   31.9603   48.3616 H   0  0  0  0  0  0  0  0  0  0  0  0
   49.0459   31.7485   42.3113 H   0  0  0  0  0  0  0  0  0  0  0  0
   51.5344   31.0090   41.2880 H   0  0  0  0  0  0  0  0  0  0  0  0
   51.3455   31.8574   40.0007 H   0  0  0  0  0  0  0  0  0  0  0  0
   51.1304   34.1408   41.7483 H   0  0  0  0  0  0  0  0  0  0  0  0
   51.5744   33.3326   42.9968 H   0  0  0  0  0  0  0  0  0  0  0  0
  1 10  1  0
  1  2  2  0
  3  1  1  0
  4  3  1  0
  5  4  1  0
  6  5  1  0
  6  7  1  0
  7  8  1  0
  8 21  1  0
  8  3  1  0
  9 14  2  0
  9 10  1  0
 10 11  2  0
 11 12  1  0
 11 15  1  0
 13 12  2  0
 14 13  1  0
 15 20  1  0
 16 15  2  0
 16 17  1  0
 17 18  2  0
 18 19  1  0
 20 19  2  0
 21 23  1  0
 22 21  1  0
 22 23  1  0
  4 24  1  0
  4 25  1  0
  5 26  1  0
  5 27  1  0
  6 28  1  0
  6 29  1  0
  7 30  1  0
  7 31  1  0
  8 32  1  6
  9 33  1  0
 13 34  1  0
 16 35  1  0
 17 36  1  0
 18 37  1  0
 19 38  1  0
 21 39  1  0
 22 40  1  0
 22 41  1  0
 23 42  1  0
 23 43  1  0
M  ISO  8  24  13  25  13  26  13  27  13  28  13  29  13  30  13  31  13
M  ISO  8  32  13  33  14  34  14  35  14  36  14  37  14  38  14  39  13
M  ISO  4  40  13  41  13  42  13  43  13
M  END
>  <minimizedAffinity>  (1) 
-5.347054

>  <minimizedRMSD>  (1) 
0.726364553

$$$$
