
     RDKit          3D

 46 49  0  0  1  0  0  0  0  0999 V2000
   47.0430   33.4330   43.0490 C   0  0  0  0  0  0  0  0  0  0  0  0
   48.1310   33.1400   43.6260 O   0  0  0  0  0  0  0  0  0  0  0  0
   46.6600   32.9430   41.7640 N   0  0  0  0  0  0  0  0  0  0  0  0
   45.3800   32.4140   41.2910 C   0  0  0  0  0  0  0  0  0  0  0  0
   44.9630   33.1460   40.0100 C   0  0  0  0  0  0  0  0  0  0  0  0
   45.9680   32.8710   38.9200 C   0  0  0  0  0  0  0  0  0  0  0  0
   47.2080   32.2560   39.5110 C   0  0  0  0  0  0  0  0  0  0  0  0
   47.6740   32.9660   40.7470 C   0  0  2  0  0  0  0  0  0  0  0  0
   47.6610   30.0390   41.0730 Cl  0  0  0  0  0  0  0  0  0  0  0  0
   49.0980   31.0240   41.3490 C   0  0  0  0  0  0  0  0  0  0  0  0
   48.9810   32.4050   41.1570 C   0  0  0  0  0  0  0  0  0  0  0  0
   50.1540   33.0910   41.3960 C   0  0  0  0  0  0  0  0  0  0  0  0
   51.3090   32.4470   41.7840 C   0  0  0  0  0  0  0  0  0  0  0  0
   51.3640   31.0820   41.9570 C   0  0  0  0  0  0  0  0  0  0  0  0
   50.2270   30.3390   41.7340 C   0  0  0  0  0  0  0  0  0  0  0  0
   50.2420   28.6210   41.9370 Cl  0  0  0  0  0  0  0  0  0  0  0  0
   45.7490   35.5120   43.0920 C   0  0  0  0  0  0  0  0  0  0  0  0
   46.1430   34.3160   43.7440 C   0  0  0  0  0  0  0  0  0  0  0  0
   45.6570   34.0480   45.0050 C   0  0  0  0  0  0  0  0  0  0  0  0
   44.8170   34.9400   45.5760 N   0  0  0  0  0  0  0  0  0  0  0  0
   44.4320   36.0870   44.9660 C   0  0  0  0  0  0  0  0  0  0  0  0
   44.9090   36.3500   43.7310 N   0  0  0  0  0  0  0  0  0  0  0  0
   46.0720   32.8280   45.6630 C   0  0  0  0  0  0  0  0  0  0  0  0
   45.6380   31.6190   45.2050 C   0  0  0  0  0  0  0  0  0  0  0  0
   46.0430   30.4690   45.8420 C   0  0  0  0  0  0  0  0  0  0  0  0
   46.8850   30.4740   46.9470 C   0  0  0  0  0  0  0  0  0  0  0  0
   47.2940   31.7280   47.3690 C   0  0  0  0  0  0  0  0  0  0  0  0
   46.8810   32.8270   46.7240 N   0  0  0  0  0  0  0  0  0  0  0  0
   45.4831   31.3391   41.0814 H   0  0  0  0  0  0  0  0  0  0  0  0
   44.6133   32.5663   42.0649 H   0  0  0  0  0  0  0  0  0  0  0  0
   43.9716   32.7911   39.6918 H   0  0  0  0  0  0  0  0  0  0  0  0
   44.9220   34.2279   40.2045 H   0  0  0  0  0  0  0  0  0  0  0  0
   46.2315   33.8147   38.4200 H   0  0  0  0  0  0  0  0  0  0  0  0
   45.5300   32.1739   38.1905 H   0  0  0  0  0  0  0  0  0  0  0  0
   46.9932   31.2080   39.7671 H   0  0  0  0  0  0  0  0  0  0  0  0
   48.0083   32.3358   38.7605 H   0  0  0  0  0  0  0  0  0  0  0  0
   47.8387   34.0354   40.5489 H   0  0  0  0  0  0  0  0  0  0  0  0
   50.1677   34.1840   41.2732 H   0  0  0  0  0  0  0  0  0  0  0  0
   52.2165   33.0428   41.9613 H   0  0  0  0  0  0  0  0  0  0  0  0
   52.2997   30.5942   42.2678 H   0  0  0  0  0  0  0  0  0  0  0  0
   46.1215   35.7510   42.0849 H   0  0  0  0  0  0  0  0  0  0  0  0
   43.7467   36.7875   45.4656 H   0  0  0  0  0  0  0  0  0  0  0  0
   44.9695   31.5639   44.3332 H   0  0  0  0  0  0  0  0  0  0  0  0
   45.6841   29.5022   45.4593 H   0  0  0  0  0  0  0  0  0  0  0  0
   47.2036   29.5492   47.4501 H   0  0  0  0  0  0  0  0  0  0  0  0
   47.9614   31.8221   48.2383 H   0  0  0  0  0  0  0  0  0  0  0  0
  1  2  2  0
  1 18  1  0
  3  1  1  0
  4  3  1  0
  5  4  1  0
  6  7  1  0
  6  5  1  0
  7  8  1  0
  8 11  1  0
  8  3  1  0
  9 10  1  0
 10 15  2  0
 11 10  1  0
 11 12  2  0
 12 13  1  0
 13 14  2  0
 15 16  1  0
 15 14  1  0
 17 22  2  0
 17 18  1  0
 18 19  2  0
 19 20  1  0
 19 23  1  0
 21 20  2  0
 22 21  1  0
 23 28  1  0
 24 23  2  0
 24 25  1  0
 25 26  2  0
 26 27  1  0
 28 27  2  0
  4 29  1  0
  4 30  1  0
  5 31  1  0
  5 32  1  0
  6 33  1  0
  6 34  1  0
  7 35  1  0
  7 36  1  0
  8 37  1  6
 12 38  1  0
 13 39  1  0
 14 40  1  0
 17 41  1  0
 21 42  1  0
 24 43  1  0
 25 44  1  0
 26 45  1  0
 27 46  1  0
M  ISO  8  29  13  30  13  31  13  32  13  33  13  34  13  35  13  36  13
M  ISO  8  37  13  38  14  39  14  40  14  41  14  42  14  43  14  44  14
M  ISO  2  45  14  46  14
M  END
>  <minimizedAffinity>  (1) 
-5.46700525

>  <minimizedRMSD>  (1) 
1.29762113

$$$$
