
     RDKit          3D

 40 42  0  0  1  0  0  0  0  0999 V2000
   47.2600   33.0810   43.3890 C   0  0  0  0  0  0  0  0  0  0  0  0
   48.0760   32.5070   44.1800 O   0  0  0  0  0  0  0  0  0  0  0  0
   47.2340   32.8510   41.9700 N   0  0  0  0  0  0  0  0  0  0  0  0
   46.1160   32.6320   41.0660 C   0  0  0  0  0  0  0  0  0  0  0  0
   46.2340   33.5950   39.8880 C   0  0  0  0  0  0  0  0  0  0  0  0
   47.4800   33.2960   39.0970 C   0  0  0  0  0  0  0  0  0  0  0  0
   48.3860   32.3880   39.8980 C   0  0  0  0  0  0  0  0  0  0  0  0
   48.5260   32.8310   41.3200 C   0  0  1  0  0  0  0  0  0  0  0  0
   45.9530   35.1470   43.1830 C   0  0  0  0  0  0  0  0  0  0  0  0
   46.3070   34.0110   43.9490 C   0  0  0  0  0  0  0  0  0  0  0  0
   45.7430   33.8270   45.1930 C   0  0  0  0  0  0  0  0  0  0  0  0
   44.8600   34.7520   45.6370 N   0  0  0  0  0  0  0  0  0  0  0  0
   44.5160   35.8430   44.9070 C   0  0  0  0  0  0  0  0  0  0  0  0
   45.0670   36.0220   43.6960 N   0  0  0  0  0  0  0  0  0  0  0  0
   46.1200   32.6620   45.9660 C   0  0  0  0  0  0  0  0  0  0  0  0
   45.5950   31.4430   45.6550 C   0  0  0  0  0  0  0  0  0  0  0  0
   45.9600   30.3380   46.3950 C   0  0  0  0  0  0  0  0  0  0  0  0
   46.8550   30.4170   47.4630 C   0  0  0  0  0  0  0  0  0  0  0  0
   47.3570   31.6880   47.7320 C   0  0  0  0  0  0  0  0  0  0  0  0
   46.9750   32.7360   46.9870 N   0  0  0  0  0  0  0  0  0  0  0  0
   50.4890   34.1070   42.1610 C   0  0  0  0  0  0  0  0  0  0  0  0
   51.0060   33.1140   42.7360 O   0  0  0  0  0  0  0  0  0  0  0  0
   49.2600   34.0580   41.4350 N   0  0  0  0  0  0  0  0  0  0  0  0
   46.1364   31.5954   40.6985 H   0  0  0  0  0  0  0  0  0  0  0  0
   45.1687   32.8081   41.5967 H   0  0  0  0  0  0  0  0  0  0  0  0
   45.3544   33.4829   39.2371 H   0  0  0  0  0  0  0  0  0  0  0  0
   46.2888   34.6252   40.2697 H   0  0  0  0  0  0  0  0  0  0  0  0
   47.2047   32.7994   38.1549 H   0  0  0  0  0  0  0  0  0  0  0  0
   48.0073   34.2363   38.8783 H   0  0  0  0  0  0  0  0  0  0  0  0
   47.9677   31.3707   39.8846 H   0  0  0  0  0  0  0  0  0  0  0  0
   49.3844   32.4198   39.4373 H   0  0  0  0  0  0  0  0  0  0  0  0
   49.1371   32.0939   41.8615 H   0  0  0  0  0  0  0  0  0  0  0  0
   46.3928   35.3121   42.1883 H   0  0  0  0  0  0  0  0  0  0  0  0
   43.7940   36.5723   45.3030 H   0  0  0  0  0  0  0  0  0  0  0  0
   44.8858   31.3415   44.8203 H   0  0  0  0  0  0  0  0  0  0  0  0
   45.5304   29.3595   46.1342 H   0  0  0  0  0  0  0  0  0  0  0  0
   47.1445   29.5347   48.0527 H   0  0  0  0  0  0  0  0  0  0  0  0
   48.0689   31.8328   48.5579 H   0  0  0  0  0  0  0  0  0  0  0  0
   51.0155   35.0709   42.2212 H   0  0  0  0  0  0  0  0  0  0  0  0
   48.8970   34.9127   40.9893 H   0  0  0  0  0  0  0  0  0  0  0  0
  1 10  1  0
  1  2  2  0
  3  1  1  0
  4  3  1  0
  5  4  1  0
  6  5  1  0
  6  7  1  0
  7  8  1  0
  8 23  1  0
  8  3  1  0
  9 14  2  0
  9 10  1  0
 10 11  2  0
 11 12  1  0
 11 15  1  0
 13 12  2  0
 14 13  1  0
 15 20  1  0
 16 15  2  0
 16 17  1  0
 17 18  2  0
 18 19  1  0
 20 19  2  0
 21 22  2  0
 23 21  1  0
  4 24  1  0
  4 25  1  0
  5 26  1  0
  5 27  1  0
  6 28  1  0
  6 29  1  0
  7 30  1  0
  7 31  1  0
  8 32  1  1
  9 33  1  0
 13 34  1  0
 16 35  1  0
 17 36  1  0
 18 37  1  0
 19 38  1  0
 21 39  1  0
 23 40  1  0
M  ISO  8  24  13  25  13  26  13  27  13  28  13  29  13  30  13  31  13
M  ISO  8  32  13  33  14  34  14  35  14  36  14  37  14  38  14  39   6
M  END
>  <minimizedAffinity>  (1) 
-5.27209854

>  <minimizedRMSD>  (1) 
1.45845461

$$$$
