
     RDKit          3D

 52 55  0  0  1  0  0  0  0  0999 V2000
   46.8020   32.7330   43.7700 C   0  0  0  0  0  0  0  0  0  0  0  0
   48.0710   32.8040   43.9560 O   0  0  0  0  0  0  0  0  0  0  0  0
   46.1890   31.6590   43.0270 N   0  0  0  0  0  0  0  0  0  0  0  0
   44.9990   30.8680   43.3300 C   0  0  0  0  0  0  0  0  0  0  0  0
   44.0620   30.8790   42.1310 C   0  0  0  0  0  0  0  0  0  0  0  0
   44.7280   30.2070   40.9700 C   0  0  0  0  0  0  0  0  0  0  0  0
   46.1960   30.0530   41.2290 C   0  0  0  0  0  0  0  0  0  0  0  0
   46.8600   31.2720   41.8180 C   0  0  1  0  0  0  0  0  0  0  0  0
   45.5340   34.7690   43.4720 C   0  0  0  0  0  0  0  0  0  0  0  0
   45.9770   33.7540   44.3210 C   0  0  0  0  0  0  0  0  0  0  0  0
   45.6040   33.7740   45.6450 C   0  0  0  0  0  0  0  0  0  0  0  0
   44.8160   34.7810   46.0770 N   0  0  0  0  0  0  0  0  0  0  0  0
   44.3800   35.7720   45.2560 C   0  0  0  0  0  0  0  0  0  0  0  0
   44.7500   35.7490   43.9570 N   0  0  0  0  0  0  0  0  0  0  0  0
   46.0760   32.7170   46.5190 C   0  0  0  0  0  0  0  0  0  0  0  0
   45.3760   31.5530   46.6330 C   0  0  0  0  0  0  0  0  0  0  0  0
   45.8440   30.5680   47.4670 C   0  0  0  0  0  0  0  0  0  0  0  0
   47.0080   30.6970   48.2110 C   0  0  0  0  0  0  0  0  0  0  0  0
   47.6770   31.8920   48.0600 C   0  0  0  0  0  0  0  0  0  0  0  0
   47.1950   32.8330   47.2380 N   0  0  0  0  0  0  0  0  0  0  0  0
   47.1350   32.3220   40.8150 C   0  0  0  0  0  0  0  0  0  0  0  0
   47.0100   32.0190   39.3800 C   0  0  0  0  0  0  0  0  0  0  0  0
   46.8110   33.3800   38.6900 C   0  0  0  0  0  0  0  0  0  0  0  0
   48.0750   34.2050   38.9420 C   0  0  0  0  0  0  0  0  0  0  0  0
   48.3810   34.3500   40.4070 C   0  0  0  0  0  0  0  0  0  0  0  0
   48.4940   32.9660   41.0230 C   0  0  0  0  0  0  0  0  0  0  0  0
   45.2947   29.8325   43.5545 H   0  0  0  0  0  0  0  0  0  0  0  0
   44.4842   31.3000   44.2008 H   0  0  0  0  0  0  0  0  0  0  0  0
   43.1364   30.3412   42.3842 H   0  0  0  0  0  0  0  0  0  0  0  0
   43.8211   31.9185   41.8638 H   0  0  0  0  0  0  0  0  0  0  0  0
   44.5812   30.8157   40.0656 H   0  0  0  0  0  0  0  0  0  0  0  0
   44.2833   29.2106   40.8306 H   0  0  0  0  0  0  0  0  0  0  0  0
   46.3352   29.2149   41.9278 H   0  0  0  0  0  0  0  0  0  0  0  0
   46.6692   29.8818   40.2509 H   0  0  0  0  0  0  0  0  0  0  0  0
   47.8832   31.0287   42.1403 H   0  0  0  0  0  0  0  0  0  0  0  0
   45.8244   34.7679   42.4110 H   0  0  0  0  0  0  0  0  0  0  0  0
   43.7380   36.5776   45.6418 H   0  0  0  0  0  0  0  0  0  0  0  0
   44.4468   31.4046   46.0633 H   0  0  0  0  0  0  0  0  0  0  0  0
   45.2697   29.6334   47.5492 H   0  0  0  0  0  0  0  0  0  0  0  0
   47.3718   29.8998   48.8759 H   0  0  0  0  0  0  0  0  0  0  0  0
   48.6088   32.0735   48.6157 H   0  0  0  0  0  0  0  0  0  0  0  0
   46.2880   32.9898   41.0310 H   0  0  0  0  0  0  0  0  0  0  0  0
   47.9226   31.5295   39.0092 H   0  0  0  0  0  0  0  0  0  0  0  0
   46.1745   31.3325   39.1784 H   0  0  0  0  0  0  0  0  0  0  0  0
   45.9354   33.8931   39.1143 H   0  0  0  0  0  0  0  0  0  0  0  0
   46.6390   33.2492   37.6114 H   0  0  0  0  0  0  0  0  0  0  0  0
   48.9249   33.7085   38.4509 H   0  0  0  0  0  0  0  0  0  0  0  0
   47.9059   35.2120   38.5330 H   0  0  0  0  0  0  0  0  0  0  0  0
   49.3308   34.8901   40.5346 H   0  0  0  0  0  0  0  0  0  0  0  0
   47.5777   34.9151   40.9024 H   0  0  0  0  0  0  0  0  0  0  0  0
   48.7252   33.0396   42.0959 H   0  0  0  0  0  0  0  0  0  0  0  0
   49.3012   32.3773   40.5628 H   0  0  0  0  0  0  0  0  0  0  0  0
  1  2  2  0
  1 10  1  0
  3  4  1  0
  3  1  1  0
  5  4  1  0
  6  7  1  0
  6  5  1  0
  7  8  1  0
  8  3  1  0
  9 14  2  0
  9 10  1  0
 10 11  2  0
 11 12  1  0
 11 15  1  0
 13 12  2  0
 14 13  1  0
 15 16  2  0
 15 20  1  0
 16 17  1  0
 17 18  2  0
 19 18  1  0
 20 19  2  0
 21 26  1  0
 21  8  1  0
 22 21  1  0
 23 24  1  0
 23 22  1  0
 24 25  1  0
 25 26  1  0
  4 27  1  0
  4 28  1  0
  5 29  1  0
  5 30  1  0
  6 31  1  0
  6 32  1  0
  7 33  1  0
  7 34  1  0
  8 35  1  1
  9 36  1  0
 13 37  1  0
 16 38  1  0
 17 39  1  0
 18 40  1  0
 19 41  1  0
 21 42  1  0
 22 43  1  0
 22 44  1  0
 23 45  1  0
 23 46  1  0
 24 47  1  0
 24 48  1  0
 25 49  1  0
 25 50  1  0
 26 51  1  0
 26 52  1  0
M  ISO  8  27  13  28  13  29  13  30  13  31  13  32  13  33  13  34  13
M  ISO  8  35  13  36  14  37  14  38  14  39  14  40  14  41  14  42  13
M  ISO  8  43  13  44  13  45  13  46  13  47  13  48  13  49  13  50  13
M  ISO  2  51  13  52  13
M  END
>  <minimizedAffinity>  (1) 
-5.20994377

>  <minimizedRMSD>  (1) 
2.5951941

$$$$
