
     RDKit          3D

 25 27  0  0  1  0  0  0  0  0999 V2000
   47.2410   34.2810   40.9820 C   0  0  1  0  0  0  0  0  0  0  0  0
   48.2410   35.3890   41.4440 C   0  0  0  0  0  0  0  0  0  0  0  0
   48.2870   33.9810   41.9330 C   0  0  2  0  0  0  0  0  0  0  0  0
   49.4070   33.0920   41.4510 C   0  0  0  0  0  0  0  0  0  0  0  0
   50.5750   33.0520   42.2160 C   0  0  0  0  0  0  0  0  0  0  0  0
   51.5750   31.8560   41.2110 S   0  0  0  0  0  0  0  0  0  0  0  0
   50.2820   31.6320   39.9800 C   0  0  0  0  0  0  0  0  0  0  0  0
   49.2060   32.4020   40.3220 N   0  0  0  0  0  0  0  0  0  0  0  0
   45.8460   34.5340   41.4440 C   0  0  0  0  0  0  0  0  0  0  0  0
   44.9620   34.5080   40.5790 O   0  0  0  0  0  0  0  0  0  0  0  0
   45.0630   36.0130   43.2220 C   0  0  0  0  0  0  0  0  0  0  0  0
   45.4890   34.7880   42.8020 C   0  0  0  0  0  0  0  0  0  0  0  0
   45.5590   33.7500   43.7460 C   0  0  0  0  0  0  0  0  0  0  0  0
   45.2090   33.9800   45.0260 N   0  0  0  0  0  0  0  0  0  0  0  0
   44.7820   35.2260   45.4230 C   0  0  0  0  0  0  0  0  0  0  0  0
   44.7210   36.1940   44.5240 N   0  0  0  0  0  0  0  0  0  0  0  0
   46.9256   33.7866   40.0514 H   0  0  0  0  0  0  0  0  0  0  0  0
   49.0121   35.7684   40.7574 H   0  0  0  0  0  0  0  0  0  0  0  0
   48.1708   36.3892   41.8965 H   0  0  0  0  0  0  0  0  0  0  0  0
   48.2966   33.5456   42.9431 H   0  0  0  0  0  0  0  0  0  0  0  0
   50.8290   33.5789   43.1476 H   0  0  0  0  0  0  0  0  0  0  0  0
   50.3470   30.9810   39.0957 H   0  0  0  0  0  0  0  0  0  0  0  0
   44.9966   36.8496   42.5109 H   0  0  0  0  0  0  0  0  0  0  0  0
   45.8995   32.7498   43.4399 H   0  0  0  0  0  0  0  0  0  0  0  0
   44.4966   35.4137   46.4686 H   0  0  0  0  0  0  0  0  0  0  0  0
  1  2  1  0
  1  9  1  0
  1  3  1  0
  2  3  1  0
  4  3  1  0
  4  5  2  0
  6  5  1  0
  7  8  2  0
  7  6  1  0
  8  4  1  0
  9 12  1  0
 10  9  2  0
 11 16  2  0
 12 11  1  0
 12 13  2  0
 13 14  1  0
 14 15  2  0
 16 15  1  0
  1 17  1  6
  2 18  1  0
  2 19  1  0
  3 20  1  1
  5 21  1  0
  7 22  1  0
 11 23  1  0
 13 24  1  0
 15 25  1  0
M  ISO  8  17  13  18  13  19  13  20  13  21  14  22  14  23  14  24  14
M  ISO  1  25  14
M  END
>  <minimizedAffinity>  (1) 
-4.62581921

>  <minimizedRMSD>  (1) 
1.87980938

$$$$
