
     RDKit          3D

 38 40  0  0  1  0  0  0  0  0999 V2000
   47.2930   33.6820   42.8290 C   0  0  0  0  0  0  0  0  0  0  0  0
   48.4170   33.4870   43.3950 O   0  0  0  0  0  0  0  0  0  0  0  0
   46.9560   33.1660   41.5360 N   0  0  0  0  0  0  0  0  0  0  0  0
   45.7420   32.5160   41.0560 C   0  0  0  0  0  0  0  0  0  0  0  0
   45.2730   33.2190   39.7850 C   0  0  0  0  0  0  0  0  0  0  0  0
   46.2920   33.0180   38.6950 C   0  0  0  0  0  0  0  0  0  0  0  0
   47.5980   32.5540   39.2870 C   0  0  0  0  0  0  0  0  0  0  0  0
   47.9810   33.3080   40.5190 C   0  0  1  0  0  0  0  0  0  0  0  0
   45.9120   35.6990   42.9740 C   0  0  0  0  0  0  0  0  0  0  0  0
   46.3020   34.4650   43.5320 C   0  0  0  0  0  0  0  0  0  0  0  0
   45.7380   34.0510   44.7140 C   0  0  0  0  0  0  0  0  0  0  0  0
   44.8190   34.8470   45.3080 N   0  0  0  0  0  0  0  0  0  0  0  0
   44.4390   36.0410   44.7700 C   0  0  0  0  0  0  0  0  0  0  0  0
   44.9900   36.4440   43.6180 N   0  0  0  0  0  0  0  0  0  0  0  0
   46.1530   32.7850   45.2780 C   0  0  0  0  0  0  0  0  0  0  0  0
   45.7790   31.6140   44.6890 C   0  0  0  0  0  0  0  0  0  0  0  0
   46.1830   30.4160   45.2380 C   0  0  0  0  0  0  0  0  0  0  0  0
   46.9700   30.3490   46.3840 C   0  0  0  0  0  0  0  0  0  0  0  0
   47.3270   31.5730   46.9480 C   0  0  0  0  0  0  0  0  0  0  0  0
   46.9120   32.7160   46.3820 N   0  0  0  0  0  0  0  0  0  0  0  0
   48.2520   34.7380   40.2570 C   0  0  0  0  0  0  0  0  0  0  0  0
   48.8470   35.7020   40.6570 O   0  0  0  0  0  0  0  0  0  0  0  0
   45.9514   31.4586   40.8370 H   0  0  0  0  0  0  0  0  0  0  0  0
   44.9583   32.5762   41.8255 H   0  0  0  0  0  0  0  0  0  0  0  0
   44.3082   32.7969   39.4673 H   0  0  0  0  0  0  0  0  0  0  0  0
   45.1553   34.2946   39.9831 H   0  0  0  0  0  0  0  0  0  0  0  0
   46.4501   33.9687   38.1648 H   0  0  0  0  0  0  0  0  0  0  0  0
   45.9233   32.2553   37.9933 H   0  0  0  0  0  0  0  0  0  0  0  0
   47.5080   31.4878   39.5423 H   0  0  0  0  0  0  0  0  0  0  0  0
   48.3815   32.7315   38.5356 H   0  0  0  0  0  0  0  0  0  0  0  0
   48.9217   32.8681   40.8818 H   0  0  0  0  0  0  0  0  0  0  0  0
   46.3523   36.0490   42.0287 H   0  0  0  0  0  0  0  0  0  0  0  0
   43.6886   36.6658   45.2764 H   0  0  0  0  0  0  0  0  0  0  0  0
   45.1584   31.6250   43.7809 H   0  0  0  0  0  0  0  0  0  0  0  0
   45.8722   29.4790   44.7529 H   0  0  0  0  0  0  0  0  0  0  0  0
   47.2903   29.3902   46.8176 H   0  0  0  0  0  0  0  0  0  0  0  0
   47.9479   31.6013   47.8556 H   0  0  0  0  0  0  0  0  0  0  0  0
   47.6986   35.0299   39.3523 H   0  0  0  0  0  0  0  0  0  0  0  0
  1  2  2  0
  1 10  1  0
  3  1  1  0
  4  3  1  0
  5  4  1  0
  6  7  1  0
  6  5  1  0
  7  8  1  0
  8  3  1  0
  9 10  2  0
  9 14  1  0
 10 11  1  0
 11 15  1  0
 11 12  2  0
 13 12  1  0
 14 13  2  0
 15 20  2  0
 16 17  2  0
 16 15  1  0
 17 18  1  0
 18 19  2  0
 20 19  1  0
 21  8  1  0
 21 22  2  0
  4 23  1  0
  4 24  1  0
  5 25  1  0
  5 26  1  0
  6 27  1  0
  6 28  1  0
  7 29  1  0
  7 30  1  0
  8 31  1  1
  9 32  1  0
 13 33  1  0
 16 34  1  0
 17 35  1  0
 18 36  1  0
 19 37  1  0
 21 38  1  0
M  ISO  8  23  13  24  13  25  13  26  13  27  13  28  13  29  13  30  13
M  ISO  8  31  13  32  14  33  14  34  14  35  14  36  14  37  14  38   6
M  END
>  <minimizedAffinity>  (1) 
-5.17449665

>  <minimizedRMSD>  (1) 
0.198932707

$$$$
