
     RDKit          3D

 39 41  0  0  1  0  0  0  0  0999 V2000
   47.3280   33.6230   42.8370 C   0  0  0  0  0  0  0  0  0  0  0  0
   48.4330   33.4080   43.4310 O   0  0  0  0  0  0  0  0  0  0  0  0
   47.0180   33.1140   41.5370 N   0  0  0  0  0  0  0  0  0  0  0  0
   45.8050   32.4800   41.0260 C   0  0  0  0  0  0  0  0  0  0  0  0
   45.3780   33.1850   39.7420 C   0  0  0  0  0  0  0  0  0  0  0  0
   46.4270   32.9980   38.6780 C   0  0  0  0  0  0  0  0  0  0  0  0
   47.7040   32.4840   39.3050 C   0  0  0  0  0  0  0  0  0  0  0  0
   48.0660   33.2350   40.5460 C   0  0  2  0  0  0  0  0  0  0  0  0
   45.9610   35.6570   42.9240 C   0  0  0  0  0  0  0  0  0  0  0  0
   46.3350   34.4260   43.5150 C   0  0  0  0  0  0  0  0  0  0  0  0
   45.7500   34.0380   44.7000 C   0  0  0  0  0  0  0  0  0  0  0  0
   44.8340   34.8530   45.2590 N   0  0  0  0  0  0  0  0  0  0  0  0
   44.4640   36.0380   44.7040 C   0  0  0  0  0  0  0  0  0  0  0  0
   45.0380   36.4160   43.5440 N   0  0  0  0  0  0  0  0  0  0  0  0
   46.1510   32.7760   45.2890 C   0  0  0  0  0  0  0  0  0  0  0  0
   45.7680   31.6000   44.7120 C   0  0  0  0  0  0  0  0  0  0  0  0
   46.1660   30.4120   45.2930 C   0  0  0  0  0  0  0  0  0  0  0  0
   46.9420   30.3570   46.4450 C   0  0  0  0  0  0  0  0  0  0  0  0
   47.3010   31.5880   46.9880 C   0  0  0  0  0  0  0  0  0  0  0  0
   46.9020   32.7260   46.4020 N   0  0  0  0  0  0  0  0  0  0  0  0
   49.4120   32.7850   41.0290 C   0  0  0  0  0  0  0  0  0  0  0  0
   46.0044   31.4190   40.8152 H   0  0  0  0  0  0  0  0  0  0  0  0
   45.0030   32.5551   41.7751 H   0  0  0  0  0  0  0  0  0  0  0  0
   44.4253   32.7602   39.3928 H   0  0  0  0  0  0  0  0  0  0  0  0
   45.2560   34.2595   39.9437 H   0  0  0  0  0  0  0  0  0  0  0  0
   46.6238   33.9616   38.1853 H   0  0  0  0  0  0  0  0  0  0  0  0
   46.0671   32.2701   37.9359 H   0  0  0  0  0  0  0  0  0  0  0  0
   47.5712   31.4221   39.5596 H   0  0  0  0  0  0  0  0  0  0  0  0
   48.5171   32.6226   38.5772 H   0  0  0  0  0  0  0  0  0  0  0  0
   48.1490   34.3107   40.3314 H   0  0  0  0  0  0  0  0  0  0  0  0
   46.4152   35.9864   41.9778 H   0  0  0  0  0  0  0  0  0  0  0  0
   43.7116   36.6753   45.1916 H   0  0  0  0  0  0  0  0  0  0  0  0
   45.1530   31.5984   43.8000 H   0  0  0  0  0  0  0  0  0  0  0  0
   45.8551   29.4672   44.8232 H   0  0  0  0  0  0  0  0  0  0  0  0
   47.2521   29.4037   46.8979 H   0  0  0  0  0  0  0  0  0  0  0  0
   47.9139   31.6269   47.9006 H   0  0  0  0  0  0  0  0  0  0  0  0
   49.4243   32.7809   42.1289 H   0  0  0  0  0  0  0  0  0  0  0  0
   49.6149   31.7702   40.6562 H   0  0  0  0  0  0  0  0  0  0  0  0
   50.1844   33.4738   40.6562 H   0  0  0  0  0  0  0  0  0  0  0  0
  1  2  2  0
  1 10  1  0
  3  1  1  0
  4  3  1  0
  5  4  1  0
  6  7  1  0
  6  5  1  0
  7  8  1  0
  8 21  1  0
  8  3  1  0
  9 10  2  0
  9 14  1  0
 10 11  1  0
 11 12  2  0
 11 15  1  0
 13 12  1  0
 14 13  2  0
 15 20  1  0
 16 15  2  0
 16 17  1  0
 17 18  2  0
 18 19  1  0
 20 19  2  0
  4 22  1  0
  4 23  1  0
  5 24  1  0
  5 25  1  0
  6 26  1  0
  6 27  1  0
  7 28  1  0
  7 29  1  0
  8 30  1  6
  9 31  1  0
 13 32  1  0
 16 33  1  0
 17 34  1  0
 18 35  1  0
 19 36  1  0
 21 37  1  0
 21 38  1  0
 21 39  1  0
M  ISO  8  22  13  23  13  24  13  25  13  26  13  27  13  28  13  29  13
M  ISO  8  30  13  31  14  32  14  33  14  34  14  35  14  36  14  37   8
M  ISO  2  38   8  39   8
M  END
>  <minimizedAffinity>  (1) 
-4.94770193

>  <minimizedRMSD>  (1) 
0.184047893

$$$$
