
     RDKit          3D

 22 23  0  0  1  0  0  0  0  0999 V2000
   46.0350   34.4000   41.4760 C   0  0  0  0  0  0  0  0  0  0  0  0
   45.2190   34.4500   40.5530 O   0  0  0  0  0  0  0  0  0  0  0  0
   45.1370   35.9620   43.1430 C   0  0  0  0  0  0  0  0  0  0  0  0
   45.6010   34.7260   42.8040 C   0  0  0  0  0  0  0  0  0  0  0  0
   45.6360   33.7340   43.8040 C   0  0  0  0  0  0  0  0  0  0  0  0
   45.2190   34.0250   45.0520 N   0  0  0  0  0  0  0  0  0  0  0  0
   44.7560   35.2810   45.3640 C   0  0  0  0  0  0  0  0  0  0  0  0
   44.7320   36.1960   44.4110 N   0  0  0  0  0  0  0  0  0  0  0  0
   47.4280   33.9870   41.1410 C   0  0  1  0  0  0  0  0  0  0  0  0
   48.3360   35.2320   40.8310 C   0  0  0  0  0  0  0  0  0  0  0  0
   48.5230   34.3350   42.0030 C   0  0  2  0  0  0  0  0  0  0  0  0
   49.7950   33.5150   42.0970 C   0  0  0  0  0  0  0  0  0  0  0  0
   49.5790   32.5570   43.0680 F   0  0  0  0  0  0  0  0  0  0  0  0
   50.0790   32.8740   40.9150 F   0  0  0  0  0  0  0  0  0  0  0  0
   50.8900   34.2690   42.4360 F   0  0  0  0  0  0  0  0  0  0  0  0
   45.0925   36.7629   42.3903 H   0  0  0  0  0  0  0  0  0  0  0  0
   46.0028   32.7245   43.5666 H   0  0  0  0  0  0  0  0  0  0  0  0
   44.4138   35.5186   46.3821 H   0  0  0  0  0  0  0  0  0  0  0  0
   47.1323   33.0313   40.6836 H   0  0  0  0  0  0  0  0  0  0  0  0
   49.0462   35.2131   39.9912 H   0  0  0  0  0  0  0  0  0  0  0  0
   48.1883   36.3089   40.6620 H   0  0  0  0  0  0  0  0  0  0  0  0
   48.5634   34.4830   43.0923 H   0  0  0  0  0  0  0  0  0  0  0  0
  1  4  1  0
  2  1  2  0
  3  8  2  0
  4  3  1  0
  4  5  2  0
  5  6  1  0
  6  7  2  0
  8  7  1  0
  9  1  1  0
  9 11  1  0
 10  9  1  0
 10 11  1  0
 11 12  1  0
 12 15  1  0
 12 13  1  0
 14 12  1  0
  3 16  1  0
  5 17  1  0
  7 18  1  0
  9 19  1  6
 10 20  1  0
 10 21  1  0
 11 22  1  1
M  ISO  7  16  14  17  14  18  14  19  13  20  13  21  13  22  13
M  END
>  <minimizedAffinity>  (1) 
-4.59633064

>  <minimizedRMSD>  (1) 
1.02860034

$$$$
