
     RDKit          3D

 54 58  0  0  1  0  0  0  0  0999 V2000
   47.4770   33.6910   42.8330 C   0  0  0  0  0  0  0  0  0  0  0  0
   48.5480   33.5630   43.4960 O   0  0  0  0  0  0  0  0  0  0  0  0
   47.2320   33.1210   41.5310 N   0  0  0  0  0  0  0  0  0  0  0  0
   46.0770   32.4400   40.9930 C   0  0  0  0  0  0  0  0  0  0  0  0
   45.7000   33.1030   39.6600 C   0  0  0  0  0  0  0  0  0  0  0  0
   46.8020   32.9400   38.6630 C   0  0  0  0  0  0  0  0  0  0  0  0
   48.0630   32.4970   39.3610 C   0  0  0  0  0  0  0  0  0  0  0  0
   48.3460   33.2910   40.6200 C   0  0  2  0  0  0  0  0  0  0  0  0
   46.0570   35.7000   42.8260 C   0  0  0  0  0  0  0  0  0  0  0  0
   46.4200   34.4790   43.4450 C   0  0  0  0  0  0  0  0  0  0  0  0
   45.7680   34.0800   44.5900 C   0  0  0  0  0  0  0  0  0  0  0  0
   44.8000   34.8810   45.0810 N   0  0  0  0  0  0  0  0  0  0  0  0
   44.4410   36.0580   44.4960 C   0  0  0  0  0  0  0  0  0  0  0  0
   45.0790   36.4380   43.3820 N   0  0  0  0  0  0  0  0  0  0  0  0
   46.1580   32.8290   45.2040 C   0  0  0  0  0  0  0  0  0  0  0  0
   45.8100   31.6500   44.6240 C   0  0  0  0  0  0  0  0  0  0  0  0
   46.1960   30.4740   45.2320 C   0  0  0  0  0  0  0  0  0  0  0  0
   46.9240   30.4380   46.4130 C   0  0  0  0  0  0  0  0  0  0  0  0
   47.2500   31.6750   46.9600 C   0  0  0  0  0  0  0  0  0  0  0  0
   46.8610   32.7950   46.3440 N   0  0  0  0  0  0  0  0  0  0  0  0
   49.6710   32.8830   41.1290 C   0  0  0  0  0  0  0  0  0  0  0  0
   49.8780   31.4930   41.5120 C   0  0  0  0  0  0  0  0  0  0  0  0
   49.3120   30.2840   41.1930 C   0  0  0  0  0  0  0  0  0  0  0  0
   49.6600   29.0470   41.6670 C   0  0  0  0  0  0  0  0  0  0  0  0
   50.6750   28.9180   42.5610 C   0  0  0  0  0  0  0  0  0  0  0  0
   51.0190   27.7180   43.0280 N   0  0  0  0  0  0  0  0  0  0  0  0
   52.0100   27.5110   43.9120 C   0  0  0  0  0  0  0  0  0  0  0  0
   52.6630   28.6590   44.3150 C   0  0  0  0  0  0  0  0  0  0  0  0
   52.3570   29.9300   43.8730 C   0  0  0  0  0  0  0  0  0  0  0  0
   51.3260   30.0350   42.9680 C   0  0  0  0  0  0  0  0  0  0  0  0
   50.9180   31.2570   42.4440 C   0  0  0  0  0  0  0  0  0  0  0  0
   46.3157   31.3793   40.8258 H   0  0  0  0  0  0  0  0  0  0  0  0
   45.2362   32.5067   41.6992 H   0  0  0  0  0  0  0  0  0  0  0  0
   44.7854   32.6337   39.2684 H   0  0  0  0  0  0  0  0  0  0  0  0
   45.5322   34.1764   39.8319 H   0  0  0  0  0  0  0  0  0  0  0  0
   46.9825   33.9006   38.1583 H   0  0  0  0  0  0  0  0  0  0  0  0
   46.5115   32.1802   37.9225 H   0  0  0  0  0  0  0  0  0  0  0  0
   47.9614   31.4353   39.6302 H   0  0  0  0  0  0  0  0  0  0  0  0
   48.9013   32.6635   38.6685 H   0  0  0  0  0  0  0  0  0  0  0  0
   48.4150   34.3759   40.4517 H   0  0  0  0  0  0  0  0  0  0  0  0
   46.5639   36.0378   41.9101 H   0  0  0  0  0  0  0  0  0  0  0  0
   43.6452   36.6818   44.9291 H   0  0  0  0  0  0  0  0  0  0  0  0
   45.2320   31.6343   43.6882 H   0  0  0  0  0  0  0  0  0  0  0  0
   45.9142   29.5214   44.7596 H   0  0  0  0  0  0  0  0  0  0  0  0
   47.2242   29.4916   46.8865 H   0  0  0  0  0  0  0  0  0  0  0  0
   47.8256   31.7307   47.8957 H   0  0  0  0  0  0  0  0  0  0  0  0
   50.4046   33.1144   40.3427 H   0  0  0  0  0  0  0  0  0  0  0  0
   49.7754   33.4375   42.0733 H   0  0  0  0  0  0  0  0  0  0  0  0
   48.4816   30.3118   40.4722 H   0  0  0  0  0  0  0  0  0  0  0  0
   49.1160   28.1551   41.3228 H   0  0  0  0  0  0  0  0  0  0  0  0
   52.2784   26.5110   44.2833 H   0  0  0  0  0  0  0  0  0  0  0  0
   53.4844   28.5530   45.0389 H   0  0  0  0  0  0  0  0  0  0  0  0
   52.9089   30.8136   44.2260 H   0  0  0  0  0  0  0  0  0  0  0  0
   51.4670   32.1435   42.7942 H   0  0  0  0  0  0  0  0  0  0  0  0
  1 10  1  0
  1  2  2  0
  3  1  1  0
  4  3  1  0
  5  4  1  0
  6  7  1  0
  6  5  1  0
  7  8  1  0
  8 21  1  0
  8  3  1  0
  9 14  2  0
  9 10  1  0
 10 11  2  0
 11 12  1  0
 11 15  1  0
 13 12  2  0
 14 13  1  0
 15 20  1  0
 16 15  2  0
 16 17  1  0
 17 18  2  0
 18 19  1  0
 20 19  2  0
 21 22  1  0
 22 31  1  0
 23 22  2  0
 23 24  1  0
 24 25  2  0
 25 30  1  0
 25 26  1  0
 26 27  2  0
 27 28  1  0
 29 28  2  0
 30 29  1  0
 31 30  2  0
  4 32  1  0
  4 33  1  0
  5 34  1  0
  5 35  1  0
  6 36  1  0
  6 37  1  0
  7 38  1  0
  7 39  1  0
  8 40  1  6
  9 41  1  0
 13 42  1  0
 16 43  1  0
 17 44  1  0
 18 45  1  0
 19 46  1  0
 21 47  1  0
 21 48  1  0
 23 49  1  0
 24 50  1  0
 27 51  1  0
 28 52  1  0
 29 53  1  0
 31 54  1  0
M  ISO  8  32  13  33  13  34  13  35  13  36  13  37  13  38  13  39  13
M  ISO  8  40  13  41  14  42  14  43  14  44  14  45  14  46  14  47   8
M  ISO  7  48   8  49  14  50  14  51  14  52  14  53  14  54  14
M  END
>  <minimizedAffinity>  (1) 
-5.24494028

>  <minimizedRMSD>  (1) 
0.449855864

$$$$
