
     RDKit          3D

 41 43  0  0  1  0  0  0  0  0999 V2000
   47.3150   33.6330   42.8350 C   0  0  0  0  0  0  0  0  0  0  0  0
   48.4150   33.4280   43.4180 O   0  0  0  0  0  0  0  0  0  0  0  0
   46.9900   33.1160   41.5390 N   0  0  0  0  0  0  0  0  0  0  0  0
   45.7790   32.4790   41.0440 C   0  0  0  0  0  0  0  0  0  0  0  0
   45.3370   33.1810   39.7600 C   0  0  0  0  0  0  0  0  0  0  0  0
   46.3670   32.9820   38.6820 C   0  0  0  0  0  0  0  0  0  0  0  0
   47.6620   32.4770   39.3010 C   0  0  0  0  0  0  0  0  0  0  0  0
   48.0200   33.2370   40.5380 C   0  0  2  0  0  0  0  0  0  0  0  0
   45.9480   35.6730   42.9290 C   0  0  0  0  0  0  0  0  0  0  0  0
   46.3260   34.4360   43.5160 C   0  0  0  0  0  0  0  0  0  0  0  0
   45.7480   34.0380   44.7040 C   0  0  0  0  0  0  0  0  0  0  0  0
   44.8320   34.8510   45.2710 N   0  0  0  0  0  0  0  0  0  0  0  0
   44.4630   36.0370   44.7180 C   0  0  0  0  0  0  0  0  0  0  0  0
   45.0260   36.4190   43.5670 N   0  0  0  0  0  0  0  0  0  0  0  0
   46.1490   32.7770   45.2810 C   0  0  0  0  0  0  0  0  0  0  0  0
   45.7680   31.6070   44.7100 C   0  0  0  0  0  0  0  0  0  0  0  0
   46.1690   30.4160   45.2870 C   0  0  0  0  0  0  0  0  0  0  0  0
   46.9460   30.3490   46.4260 C   0  0  0  0  0  0  0  0  0  0  0  0
   47.3070   31.5770   46.9700 C   0  0  0  0  0  0  0  0  0  0  0  0
   46.9100   32.7290   46.3990 N   0  0  0  0  0  0  0  0  0  0  0  0
   49.3750   32.7970   40.9940 C   0  0  0  0  0  0  0  0  0  0  0  0
   49.4880   31.3840   41.1820 N   0  0  0  0  0  0  0  0  0  0  0  0
   45.9797   31.4180   40.8340 H   0  0  0  0  0  0  0  0  0  0  0  0
   44.9841   32.5530   41.8007 H   0  0  0  0  0  0  0  0  0  0  0  0
   44.3764   32.7606   39.4276 H   0  0  0  0  0  0  0  0  0  0  0  0
   45.2258   34.2573   39.9578 H   0  0  0  0  0  0  0  0  0  0  0  0
   46.5534   33.9389   38.1726 H   0  0  0  0  0  0  0  0  0  0  0  0
   45.9973   32.2440   37.9550 H   0  0  0  0  0  0  0  0  0  0  0  0
   47.5429   31.4141   39.5582 H   0  0  0  0  0  0  0  0  0  0  0  0
   48.4693   32.6184   38.5674 H   0  0  0  0  0  0  0  0  0  0  0  0
   48.0786   34.3153   40.3287 H   0  0  0  0  0  0  0  0  0  0  0  0
   46.3946   36.0112   41.9824 H   0  0  0  0  0  0  0  0  0  0  0  0
   43.7124   36.6728   45.2102 H   0  0  0  0  0  0  0  0  0  0  0  0
   45.1488   31.6057   43.8008 H   0  0  0  0  0  0  0  0  0  0  0  0
   45.8528   29.4743   44.8145 H   0  0  0  0  0  0  0  0  0  0  0  0
   47.2574   29.3927   46.8715 H   0  0  0  0  0  0  0  0  0  0  0  0
   47.9254   31.6070   47.8792 H   0  0  0  0  0  0  0  0  0  0  0  0
   50.1129   33.1069   40.2394 H   0  0  0  0  0  0  0  0  0  0  0  0
   49.5527   33.2665   41.9728 H   0  0  0  0  0  0  0  0  0  0  0  0
   49.5050   31.1720   42.1898 H   0  0  0  0  0  0  0  0  0  0  0  0
   48.6819   30.9141   40.7458 H   0  0  0  0  0  0  0  0  0  0  0  0
  1  2  2  0
  1 10  1  0
  3  1  1  0
  4  3  1  0
  5  4  1  0
  6  7  1  0
  6  5  1  0
  7  8  1  0
  8 21  1  0
  8  3  1  0
  9 10  2  0
  9 14  1  0
 10 11  1  0
 11 12  2  0
 11 15  1  0
 13 12  1  0
 14 13  2  0
 15 20  1  0
 16 15  2  0
 16 17  1  0
 17 18  2  0
 18 19  1  0
 20 19  2  0
 21 22  1  0
  4 23  1  0
  4 24  1  0
  5 25  1  0
  5 26  1  0
  6 27  1  0
  6 28  1  0
  7 29  1  0
  7 30  1  0
  8 31  1  6
  9 32  1  0
 13 33  1  0
 16 34  1  0
 17 35  1  0
 18 36  1  0
 19 37  1  0
 21 38  1  0
 21 39  1  0
 22 40  1  0
 22 41  1  0
M  ISO  8  23  13  24  13  25  13  26  13  27  13  28  13  29  13  30  13
M  ISO  8  31  13  32  14  33  14  34  14  35  14  36  14  37  14  38   8
M  ISO  3  39   8  40   5  41   5
M  END
>  <minimizedAffinity>  (1) 
-4.79502249

>  <minimizedRMSD>  (1) 
0.0602702759

$$$$
