
     RDKit          3D

 22 23  0  0  1  0  0  0  0  0999 V2000
   46.4930   34.4710   41.6240 C   0  0  0  0  0  0  0  0  0  0  0  0
   45.7790   34.3550   40.6330 O   0  0  0  0  0  0  0  0  0  0  0  0
   45.2710   35.9890   43.1070 C   0  0  0  0  0  0  0  0  0  0  0  0
   45.8900   34.7930   42.8800 C   0  0  0  0  0  0  0  0  0  0  0  0
   45.9120   33.8510   43.9290 C   0  0  0  0  0  0  0  0  0  0  0  0
   45.3320   34.1470   45.1090 N   0  0  0  0  0  0  0  0  0  0  0  0
   44.7210   35.3540   45.3030 C   0  0  0  0  0  0  0  0  0  0  0  0
   44.7000   36.2400   44.3170 N   0  0  0  0  0  0  0  0  0  0  0  0
   47.9590   34.2560   41.4530 C   0  0  1  0  0  0  0  0  0  0  0  0
   48.6690   35.5260   40.8670 C   0  0  0  0  0  0  0  0  0  0  0  0
   48.9100   34.9910   42.2350 C   0  0  2  0  0  0  0  0  0  0  0  0
   50.2750   34.4520   42.6040 C   0  0  0  0  0  0  0  0  0  0  0  0
   45.2338   36.7490   42.3126 H   0  0  0  0  0  0  0  0  0  0  0  0
   46.4015   32.8766   43.7845 H   0  0  0  0  0  0  0  0  0  0  0  0
   44.2505   35.5884   46.2693 H   0  0  0  0  0  0  0  0  0  0  0  0
   47.8615   33.1807   41.2430 H   0  0  0  0  0  0  0  0  0  0  0  0
   49.4352   35.4292   40.0837 H   0  0  0  0  0  0  0  0  0  0  0  0
   48.3596   36.4844   40.4245 H   0  0  0  0  0  0  0  0  0  0  0  0
   48.8461   35.4139   43.2484 H   0  0  0  0  0  0  0  0  0  0  0  0
   50.3705   34.4143   43.6992 H   0  0  0  0  0  0  0  0  0  0  0  0
   50.3935   33.4396   42.1905 H   0  0  0  0  0  0  0  0  0  0  0  0
   51.0532   35.1103   42.1905 H   0  0  0  0  0  0  0  0  0  0  0  0
  1  4  1  0
  2  1  2  0
  3  8  2  0
  4  3  1  0
  4  5  2  0
  5  6  1  0
  6  7  2  0
  8  7  1  0
  9  1  1  0
  9 11  1  0
 10  9  1  0
 10 11  1  0
 11 12  1  0
  3 13  1  0
  5 14  1  0
  7 15  1  0
  9 16  1  6
 10 17  1  0
 10 18  1  0
 11 19  1  1
 12 20  1  0
 12 21  1  0
 12 22  1  0
M  ISO  8  13  14  14  14  15  14  16  13  17  13  18  13  19  13  20   8
M  ISO  2  21   8  22   8
M  END
>  <minimizedAffinity>  (1) 
-4.58467484

>  <minimizedRMSD>  (1) 
0.267151356

$$$$
