
     RDKit          3D

 29 31  0  0  0  0  0  0  0  0999 V2000
   45.5750   33.9450   45.5460 C   0  0  0  0  0  0  0  0  0  0  0  0
   44.6820   34.9870   45.7980 C   0  0  0  0  0  0  0  0  0  0  0  0
   44.4810   35.9490   44.7810 C   0  0  0  0  0  0  0  0  0  0  0  0
   45.1730   35.8020   43.6090 N   0  0  0  0  0  0  0  0  0  0  0  0
   46.0150   34.7840   43.4230 C   0  0  0  0  0  0  0  0  0  0  0  0
   46.2140   33.8730   44.3680 N   0  0  0  0  0  0  0  0  0  0  0  0
   46.7310   34.6720   42.1550 C   0  0  0  0  0  0  0  0  0  0  0  0
   47.9450   35.3190   41.9690 C   0  0  0  0  0  0  0  0  0  0  0  0
   48.7050   35.2850   40.8220 C   0  0  0  0  0  0  0  0  0  0  0  0
   48.1410   34.5180   39.8110 C   0  0  0  0  0  0  0  0  0  0  0  0
   46.9310   33.8570   39.9560 C   0  0  0  0  0  0  0  0  0  0  0  0
   46.2380   33.9440   41.1350 N   0  0  0  0  0  0  0  0  0  0  0  0
   47.4700   31.8190   44.7220 Cl  0  0  0  0  0  0  0  0  0  0  0  0
   46.6880   31.8800   46.2900 C   0  0  0  0  0  0  0  0  0  0  0  0
   45.8250   32.9220   46.5540 C   0  0  0  0  0  0  0  0  0  0  0  0
   45.2590   32.8860   47.8100 C   0  0  0  0  0  0  0  0  0  0  0  0
   45.5370   31.8880   48.7220 C   0  0  0  0  0  0  0  0  0  0  0  0
   46.4140   30.8630   48.4050 C   0  0  0  0  0  0  0  0  0  0  0  0
   47.0030   30.8600   47.1580 C   0  0  0  0  0  0  0  0  0  0  0  0
   44.1505   35.0581   46.7584 H   0  0  0  0  0  0  0  0  0  0  0  0
   43.7886   36.7911   44.9275 H   0  0  0  0  0  0  0  0  0  0  0  0
   48.3333   35.9102   42.8114 H   0  0  0  0  0  0  0  0  0  0  0  0
   49.6642   35.8131   40.7166 H   0  0  0  0  0  0  0  0  0  0  0  0
   48.6771   34.4312   38.8544 H   0  0  0  0  0  0  0  0  0  0  0  0
   46.5268   33.2621   39.1237 H   0  0  0  0  0  0  0  0  0  0  0  0
   44.5582   33.6839   48.0969 H   0  0  0  0  0  0  0  0  0  0  0  0
   45.0570   31.9065   49.7116 H   0  0  0  0  0  0  0  0  0  0  0  0
   46.6357   30.0684   49.1327 H   0  0  0  0  0  0  0  0  0  0  0  0
   47.7046   30.0648   46.8657 H   0  0  0  0  0  0  0  0  0  0  0  0
  1  2  2  0
  1 15  1  0
  3  2  1  0
  4  3  2  0
  5  4  1  0
  5  6  2  0
  6  1  1  0
  7  5  1  0
  8  7  2  0
  9  8  1  0
 10 11  1  0
 10  9  2  0
 11 12  2  0
 12  7  1  0
 13 14  1  0
 14 15  2  0
 14 19  1  0
 15 16  1  0
 16 17  2  0
 18 17  1  0
 19 18  2  0
  2 20  1  0
  3 21  1  0
  8 22  1  0
  9 23  1  0
 10 24  1  0
 11 25  1  0
 16 26  1  0
 17 27  1  0
 18 28  1  0
 19 29  1  0
M  ISO  8  20  14  21  14  22  14  23  14  24  14  25  14  26  14  27  14
M  ISO  2  28  14  29  14
M  END
>  <minimizedAffinity>  (1) 
-6.42574215

>  <minimizedRMSD>  (1) 
0.47178936

$$$$
