
     RDKit          3D

 33 36  0  0  0  0  0  0  0  0999 V2000
   45.6720   34.1630   45.2660 C   0  0  0  0  0  0  0  0  0  0  0  0
   44.7020   35.1520   45.4380 C   0  0  0  0  0  0  0  0  0  0  0  0
   44.4330   36.0200   44.3540 C   0  0  0  0  0  0  0  0  0  0  0  0
   45.1410   35.8460   43.1850 N   0  0  0  0  0  0  0  0  0  0  0  0
   46.0580   34.8810   43.0800 C   0  0  0  0  0  0  0  0  0  0  0  0
   46.3290   34.0440   44.1000 N   0  0  0  0  0  0  0  0  0  0  0  0
   45.1840   33.1870   47.4360 C   0  0  0  0  0  0  0  0  0  0  0  0
   46.0050   33.2320   46.3350 C   0  0  0  0  0  0  0  0  0  0  0  0
   47.0700   32.3870   46.3470 C   0  0  0  0  0  0  0  0  0  0  0  0
   47.3560   31.5160   47.3790 C   0  0  0  0  0  0  0  0  0  0  0  0
   48.3530   30.6260   47.5490 N   0  0  0  0  0  0  0  0  0  0  0  0
   48.1790   30.0120   48.7470 C   0  0  0  0  0  0  0  0  0  0  0  0
   47.0330   30.5500   49.3270 C   0  0  0  0  0  0  0  0  0  0  0  0
   46.5000   31.5100   48.4620 C   0  0  0  0  0  0  0  0  0  0  0  0
   45.4000   32.3420   48.5140 C   0  0  0  0  0  0  0  0  0  0  0  0
   46.7880   34.7290   41.8220 C   0  0  0  0  0  0  0  0  0  0  0  0
   47.9970   35.3570   41.6340 C   0  0  0  0  0  0  0  0  0  0  0  0
   48.7680   35.2810   40.4880 C   0  0  0  0  0  0  0  0  0  0  0  0
   48.2120   34.4900   39.4900 C   0  0  0  0  0  0  0  0  0  0  0  0
   46.9940   33.8430   39.6500 C   0  0  0  0  0  0  0  0  0  0  0  0
   46.3030   33.9760   40.8180 N   0  0  0  0  0  0  0  0  0  0  0  0
   44.1615   35.2536   46.3906 H   0  0  0  0  0  0  0  0  0  0  0  0
   43.6772   36.8143   44.4422 H   0  0  0  0  0  0  0  0  0  0  0  0
   44.3108   33.8554   47.4636 H   0  0  0  0  0  0  0  0  0  0  0  0
   47.7464   32.3981   45.4796 H   0  0  0  0  0  0  0  0  0  0  0  0
   49.1172   30.4427   46.8832 H   0  0  0  0  0  0  0  0  0  0  0  0
   48.8241   29.2332   49.1798 H   0  0  0  0  0  0  0  0  0  0  0  0
   46.6160   30.2663   50.3046 H   0  0  0  0  0  0  0  0  0  0  0  0
   44.7199   32.3350   49.3785 H   0  0  0  0  0  0  0  0  0  0  0  0
   48.3823   35.9696   42.4624 H   0  0  0  0  0  0  0  0  0  0  0  0
   49.7321   35.7989   40.3770 H   0  0  0  0  0  0  0  0  0  0  0  0
   48.7554   34.3724   38.5408 H   0  0  0  0  0  0  0  0  0  0  0  0
   46.5873   33.2245   38.8363 H   0  0  0  0  0  0  0  0  0  0  0  0
  1  2  2  0
  1  8  1  0
  3  2  1  0
  4  3  2  0
  5  4  1  0
  5  6  2  0
  6  1  1  0
  7 15  2  0
  8  9  2  0
  8  7  1  0
  9 10  1  0
 10 11  1  0
 10 14  2  0
 11 12  1  0
 12 13  2  0
 14 15  1  0
 14 13  1  0
 16  5  1  0
 17 16  2  0
 18 17  1  0
 19 20  1  0
 19 18  2  0
 20 21  2  0
 21 16  1  0
  2 22  1  0
  3 23  1  0
  7 24  1  0
  9 25  1  0
 11 26  1  0
 12 27  1  0
 13 28  1  0
 15 29  1  0
 17 30  1  0
 18 31  1  0
 19 32  1  0
 20 33  1  0
M  ISO  8  22  14  23  14  24  14  25  14  26   9  27  14  28  14  29  14
M  ISO  4  30  14  31  14  32  14  33  14
M  END
>  <minimizedAffinity>  (1) 
-6.29466486

>  <minimizedRMSD>  (1) 
0.42694965

$$$$
