
     RDKit          3D

 35 38  0  0  0  0  0  0  0  0999 V2000
   45.5930   33.9610   45.5510 C   0  0  0  0  0  0  0  0  0  0  0  0
   44.6840   34.9940   45.7850 C   0  0  0  0  0  0  0  0  0  0  0  0
   44.4750   35.9300   44.7730 C   0  0  0  0  0  0  0  0  0  0  0  0
   45.1710   35.7890   43.5980 N   0  0  0  0  0  0  0  0  0  0  0  0
   46.0300   34.7920   43.4030 C   0  0  0  0  0  0  0  0  0  0  0  0
   46.2200   33.9100   44.3710 N   0  0  0  0  0  0  0  0  0  0  0  0
   45.8970   32.8540   46.4350 C   0  0  0  0  0  0  0  0  0  0  0  0
   45.3370   32.8750   47.7190 C   0  0  0  0  0  0  0  0  0  0  0  0
   45.5100   31.9010   48.6740 C   0  0  0  0  0  0  0  0  0  0  0  0
   46.2870   30.8030   48.3850 C   0  0  0  0  0  0  0  0  0  0  0  0
   46.8610   30.7160   47.1480 C   0  0  0  0  0  0  0  0  0  0  0  0
   47.6150   29.6160   46.8040 C   0  0  0  0  0  0  0  0  0  0  0  0
   48.1950   29.4500   45.5420 C   0  0  0  0  0  0  0  0  0  0  0  0
   47.9510   30.4940   44.6410 C   0  0  0  0  0  0  0  0  0  0  0  0
   47.2070   31.5660   45.0060 C   0  0  0  0  0  0  0  0  0  0  0  0
   46.6450   31.7240   46.2470 C   0  0  0  0  0  0  0  0  0  0  0  0
   46.7500   34.6750   42.1360 C   0  0  0  0  0  0  0  0  0  0  0  0
   47.9440   35.3230   41.9670 C   0  0  0  0  0  0  0  0  0  0  0  0
   48.7010   35.2800   40.8080 C   0  0  0  0  0  0  0  0  0  0  0  0
   48.1450   34.5070   39.7970 C   0  0  0  0  0  0  0  0  0  0  0  0
   46.9350   33.8450   39.9550 C   0  0  0  0  0  0  0  0  0  0  0  0
   46.2570   33.9430   41.1330 N   0  0  0  0  0  0  0  0  0  0  0  0
   44.1469   35.0677   46.7421 H   0  0  0  0  0  0  0  0  0  0  0  0
   43.7690   36.7619   44.9127 H   0  0  0  0  0  0  0  0  0  0  0  0
   44.7095   33.7387   47.9840 H   0  0  0  0  0  0  0  0  0  0  0  0
   45.0317   31.9988   49.6597 H   0  0  0  0  0  0  0  0  0  0  0  0
   46.4428   30.0122   49.1336 H   0  0  0  0  0  0  0  0  0  0  0  0
   47.7685   28.8300   47.5581 H   0  0  0  0  0  0  0  0  0  0  0  0
   48.7963   28.5676   45.2777 H   0  0  0  0  0  0  0  0  0  0  0  0
   48.3684   30.4431   43.6246 H   0  0  0  0  0  0  0  0  0  0  0  0
   47.0437   32.3585   44.2609 H   0  0  0  0  0  0  0  0  0  0  0  0
   48.3281   35.9181   42.8086 H   0  0  0  0  0  0  0  0  0  0  0  0
   49.6580   35.8111   40.6980 H   0  0  0  0  0  0  0  0  0  0  0  0
   48.6805   34.4164   38.8404 H   0  0  0  0  0  0  0  0  0  0  0  0
   46.5245   33.2427   39.1312 H   0  0  0  0  0  0  0  0  0  0  0  0
  1  2  2  0
  1  7  1  0
  3  2  1  0
  4  3  2  0
  5  4  1  0
  5  6  2  0
  6  1  1  0
  7  8  2  0
  8  9  1  0
 10  9  2  0
 11 10  1  0
 12 11  2  0
 13 12  1  0
 14 15  1  0
 14 13  2  0
 15 16  2  0
 16  7  1  0
 16 11  1  0
 17  5  1  0
 18 17  2  0
 19 18  1  0
 20 21  1  0
 20 19  2  0
 21 22  2  0
 22 17  1  0
  2 23  1  0
  3 24  1  0
  8 25  1  0
  9 26  1  0
 10 27  1  0
 12 28  1  0
 13 29  1  0
 14 30  1  0
 15 31  1  0
 18 32  1  0
 19 33  1  0
 20 34  1  0
 21 35  1  0
M  ISO  8  23  14  24  14  25  14  26  14  27  14  28  14  29  14  30  14
M  ISO  5  31  14  32  14  33  14  34  14  35  14
M  END
>  <minimizedAffinity>  (1) 
-6.94477606

>  <minimizedRMSD>  (1) 
0.70186305

$$$$
