
     RDKit          3D

 32 34  0  0  0  0  0  0  0  0999 V2000
   45.6770   33.7440   45.5150 C   0  0  0  0  0  0  0  0  0  0  0  0
   44.7510   34.7480   45.7970 C   0  0  0  0  0  0  0  0  0  0  0  0
   44.5520   35.7720   44.8400 C   0  0  0  0  0  0  0  0  0  0  0  0
   45.2820   35.7280   43.6790 N   0  0  0  0  0  0  0  0  0  0  0  0
   46.1580   34.7490   43.4510 C   0  0  0  0  0  0  0  0  0  0  0  0
   46.3330   33.8000   44.3520 N   0  0  0  0  0  0  0  0  0  0  0  0
   46.9160   34.7350   42.2030 C   0  0  0  0  0  0  0  0  0  0  0  0
   48.0760   35.4640   42.0700 C   0  0  0  0  0  0  0  0  0  0  0  0
   48.8600   35.5160   40.9400 C   0  0  0  0  0  0  0  0  0  0  0  0
   48.3770   34.7480   39.8880 C   0  0  0  0  0  0  0  0  0  0  0  0
   47.2120   34.0040   39.9930 C   0  0  0  0  0  0  0  0  0  0  0  0
   46.4940   34.0060   41.1480 N   0  0  0  0  0  0  0  0  0  0  0  0
   46.0420   31.3940   46.1240 C   0  0  0  0  0  0  0  0  0  0  0  0
   45.8670   32.7090   46.4990 C   0  0  0  0  0  0  0  0  0  0  0  0
   45.8860   32.9630   47.8500 C   0  0  0  0  0  0  0  0  0  0  0  0
   46.0640   32.0110   48.8290 C   0  0  0  0  0  0  0  0  0  0  0  0
   46.2400   30.6920   48.4630 C   0  0  0  0  0  0  0  0  0  0  0  0
   46.2240   30.4240   47.1200 C   0  0  0  0  0  0  0  0  0  0  0  0
   46.0500   30.8750   44.4780 S   0  0  0  0  0  0  0  0  0  0  0  0
   47.3170   31.2300   43.7450 O   0  0  0  0  0  0  0  0  0  0  0  0
   44.8130   31.3160   43.7310 O   0  0  0  0  0  0  0  0  0  0  0  0
   44.1879   34.7443   46.7419 H   0  0  0  0  0  0  0  0  0  0  0  0
   43.8307   36.5822   45.0224 H   0  0  0  0  0  0  0  0  0  0  0  0
   48.4035   36.0539   42.9388 H   0  0  0  0  0  0  0  0  0  0  0  0
   49.7833   36.1105   40.8758 H   0  0  0  0  0  0  0  0  0  0  0  0
   48.9369   34.7296   38.9413 H   0  0  0  0  0  0  0  0  0  0  0  0
   46.8658   33.4077   39.1359 H   0  0  0  0  0  0  0  0  0  0  0  0
   45.7486   34.0054   48.1734 H   0  0  0  0  0  0  0  0  0  0  0  0
   46.0659   32.2986   49.8907 H   0  0  0  0  0  0  0  0  0  0  0  0
   46.3854   29.8980   49.2103 H   0  0  0  0  0  0  0  0  0  0  0  0
   46.3629   29.3801   46.8021 H   0  0  0  0  0  0  0  0  0  0  0  0
   46.0206   29.5061   44.5233 H   0  0  0  0  0  0  0  0  0  0  0  0
  1  2  2  0
  1 14  1  0
  3  2  1  0
  4  3  2  0
  5  4  1  0
  5  6  2  0
  6  1  1  0
  7  5  1  0
  8  7  2  0
  9  8  1  0
 10 11  1  0
 10  9  2  0
 11 12  2  0
 12  7  1  0
 13 14  2  0
 13 18  1  0
 14 15  1  0
 15 16  2  0
 17 16  1  0
 18 17  2  0
 19 13  1  0
 20 19  2  0
 21 19  2  0
  2 22  1  0
  3 23  1  0
  8 24  1  0
  9 25  1  0
 10 26  1  0
 11 27  1  0
 15 28  1  0
 16 29  1  0
 17 30  1  0
 18 31  1  0
 19 32  1  0
M  ISO  8  22  14  23  14  24  14  25  14  26  14  27  14  28  14  29  14
M  ISO  3  30  14  31  14  32  11
M  END
>  <minimizedAffinity>  (1) 
-5.84925318

>  <minimizedRMSD>  (1) 
0.288059384

$$$$
