
     RDKit          3D

 25 26  0  0  0  0  0  0  0  0999 V2000
   45.9040   33.7310   45.5390 C   0  0  0  0  0  0  0  0  0  0  0  0
   44.9040   34.6680   45.8380 C   0  0  0  0  0  0  0  0  0  0  0  0
   44.5800   35.6000   44.8510 C   0  0  0  0  0  0  0  0  0  0  0  0
   45.2480   35.5520   43.6520 N   0  0  0  0  0  0  0  0  0  0  0  0
   46.2030   34.6270   43.4190 C   0  0  0  0  0  0  0  0  0  0  0  0
   46.5250   33.7320   44.3470 N   0  0  0  0  0  0  0  0  0  0  0  0
   46.8840   34.6180   42.1290 C   0  0  0  0  0  0  0  0  0  0  0  0
   48.0380   35.3600   41.9500 C   0  0  0  0  0  0  0  0  0  0  0  0
   48.7630   35.4290   40.7830 C   0  0  0  0  0  0  0  0  0  0  0  0
   48.2340   34.6660   39.7420 C   0  0  0  0  0  0  0  0  0  0  0  0
   47.0770   33.9150   39.9030 C   0  0  0  0  0  0  0  0  0  0  0  0
   46.4140   33.9010   41.0980 N   0  0  0  0  0  0  0  0  0  0  0  0
   46.2080   32.7630   46.6280 C   0  0  0  0  0  0  0  0  0  0  0  0
   45.2060   32.7820   47.7390 C   0  0  0  0  0  0  0  0  0  0  0  0
   44.3947   34.6682   46.8130 H   0  0  0  0  0  0  0  0  0  0  0  0
   43.8041   36.3589   45.0301 H   0  0  0  0  0  0  0  0  0  0  0  0
   48.4048   35.9409   42.8091 H   0  0  0  0  0  0  0  0  0  0  0  0
   49.6775   36.0316   40.6800 H   0  0  0  0  0  0  0  0  0  0  0  0
   48.7464   34.6590   38.7686 H   0  0  0  0  0  0  0  0  0  0  0  0
   46.6899   33.3248   39.0593 H   0  0  0  0  0  0  0  0  0  0  0  0
   46.2320   31.7509   46.1978 H   0  0  0  0  0  0  0  0  0  0  0  0
   47.1765   33.0551   47.0601 H   0  0  0  0  0  0  0  0  0  0  0  0
   45.7304   32.7721   48.7059 H   0  0  0  0  0  0  0  0  0  0  0  0
   44.5925   33.6919   47.6639 H   0  0  0  0  0  0  0  0  0  0  0  0
   44.5584   31.8960   47.6639 H   0  0  0  0  0  0  0  0  0  0  0  0
  1  2  2  0
  1 13  1  0
  3  2  1  0
  4  3  2  0
  5  4  1  0
  5  6  2  0
  6  1  1  0
  7  5  1  0
  8  7  2  0
  9  8  1  0
 10 11  1  0
 10  9  2  0
 11 12  2  0
 12  7  1  0
 13 14  1  0
  2 15  1  0
  3 16  1  0
  8 17  1  0
  9 18  1  0
 10 19  1  0
 11 20  1  0
 13 21  1  0
 13 22  1  0
 14 23  1  0
 14 24  1  0
 14 25  1  0
M  ISO  8  15  14  16  14  17  14  18  14  19  14  20  14  21   8  22   8
M  ISO  3  23   8  24   8  25   8
M  END
>  <minimizedAffinity>  (1) 
-5.01471615

>  <minimizedRMSD>  (1) 
0.303348511

$$$$
