
     RDKit          3D

 21 22  0  0  0  0  0  0  0  0999 V2000
   45.4370   34.0300   45.3960 C   0  0  0  0  0  0  0  0  0  0  0  0
   44.6270   35.1540   45.6500 C   0  0  0  0  0  0  0  0  0  0  0  0
   44.5470   36.1310   44.6570 C   0  0  0  0  0  0  0  0  0  0  0  0
   45.2550   35.9570   43.4880 N   0  0  0  0  0  0  0  0  0  0  0  0
   46.0090   34.8720   43.2970 C   0  0  0  0  0  0  0  0  0  0  0  0
   46.1100   33.9170   44.2230 N   0  0  0  0  0  0  0  0  0  0  0  0
   46.7410   34.7280   42.0430 C   0  0  0  0  0  0  0  0  0  0  0  0
   47.9500   35.3670   41.8600 C   0  0  0  0  0  0  0  0  0  0  0  0
   48.7310   35.3100   40.7300 C   0  0  0  0  0  0  0  0  0  0  0  0
   48.1800   34.5080   39.7150 C   0  0  0  0  0  0  0  0  0  0  0  0
   46.9660   33.8540   39.8750 C   0  0  0  0  0  0  0  0  0  0  0  0
   46.2630   33.9740   41.0380 N   0  0  0  0  0  0  0  0  0  0  0  0
   45.5510   33.0030   46.3840 N   0  0  0  0  0  0  0  0  0  0  0  0
   44.0773   35.2578   46.5971 H   0  0  0  0  0  0  0  0  0  0  0  0
   43.9273   37.0276   44.8055 H   0  0  0  0  0  0  0  0  0  0  0  0
   48.3233   35.9782   42.6949 H   0  0  0  0  0  0  0  0  0  0  0  0
   49.6904   35.8386   40.6300 H   0  0  0  0  0  0  0  0  0  0  0  0
   48.7265   34.3956   38.7670 H   0  0  0  0  0  0  0  0  0  0  0  0
   46.5679   33.2344   39.0579 H   0  0  0  0  0  0  0  0  0  0  0  0
   46.1418   32.1786   46.2041 H   0  0  0  0  0  0  0  0  0  0  0  0
   45.0424   33.0874   47.2757 H   0  0  0  0  0  0  0  0  0  0  0  0
  1  2  2  0
  1 13  1  0
  3  2  1  0
  4  3  2  0
  5  4  1  0
  5  6  2  0
  6  1  1  0
  7  5  1  0
  8  7  2  0
  9  8  1  0
 10 11  1  0
 10  9  2  0
 11 12  2  0
 12  7  1  0
  2 14  1  0
  3 15  1  0
  8 16  1  0
  9 17  1  0
 10 18  1  0
 11 19  1  0
 13 20  1  0
 13 21  1  0
M  ISO  6  14  14  15  14  16  14  17  14  18  14  19  14
M  END
>  <minimizedAffinity>  (1) 
-5.06316233

>  <minimizedRMSD>  (1) 
0.16291447

$$$$
