
     RDKit          3D

 42 45  0  0  1  0  0  0  0  0999 V2000
   47.2930   32.1050   46.5550 C   0  0  2  0  0  0  0  0  0  0  0  0
   47.4130   30.7340   46.0200 C   0  0  0  0  0  0  0  0  0  0  0  0
   48.2130   29.8810   46.9480 C   0  0  0  0  0  0  0  0  0  0  0  0
   48.0730   30.1270   48.4100 C   0  0  0  0  0  0  0  0  0  0  0  0
   47.8160   31.5140   48.8300 C   0  0  0  0  0  0  0  0  0  0  0  0
   46.7520   32.1330   47.9110 C   0  0  2  0  0  0  0  0  0  0  0  0
   46.6660   33.0790   45.6590 C   0  0  0  0  0  0  0  0  0  0  0  0
   45.5530   33.7900   46.1160 C   0  0  0  0  0  0  0  0  0  0  0  0
   44.9580   34.7000   45.2300 C   0  0  0  0  0  0  0  0  0  0  0  0
   45.5000   34.8380   43.9730 N   0  0  0  0  0  0  0  0  0  0  0  0
   46.5780   34.1200   43.5970 C   0  0  0  0  0  0  0  0  0  0  0  0
   47.1570   33.2530   44.4170 N   0  0  0  0  0  0  0  0  0  0  0  0
   47.1090   34.3180   42.2430 C   0  0  0  0  0  0  0  0  0  0  0  0
   48.1660   35.1790   42.0330 C   0  0  0  0  0  0  0  0  0  0  0  0
   48.7300   35.4250   40.7980 C   0  0  0  0  0  0  0  0  0  0  0  0
   48.1570   34.7370   39.7490 C   0  0  0  0  0  0  0  0  0  0  0  0
   47.0850   33.8610   39.9460 C   0  0  0  0  0  0  0  0  0  0  0  0
   46.5750   33.6640   41.1960 N   0  0  0  0  0  0  0  0  0  0  0  0
   45.4130   31.5930   48.2350 C   0  0  0  0  0  0  0  0  0  0  0  0
   44.8700   31.3740   49.5850 C   0  0  0  0  0  0  0  0  0  0  0  0
   45.0960   30.2080   48.6260 C   0  0  0  0  0  0  0  0  0  0  0  0
   48.3324   32.4589   46.6210 H   0  0  0  0  0  0  0  0  0  0  0  0
   46.4085   30.3008   45.9048 H   0  0  0  0  0  0  0  0  0  0  0  0
   47.9214   30.7747   45.0454 H   0  0  0  0  0  0  0  0  0  0  0  0
   47.9264   28.8354   46.7621 H   0  0  0  0  0  0  0  0  0  0  0  0
   49.2600   30.1326   46.7232 H   0  0  0  0  0  0  0  0  0  0  0  0
   47.2377   29.5098   48.7724 H   0  0  0  0  0  0  0  0  0  0  0  0
   49.0541   29.8746   48.8386 H   0  0  0  0  0  0  0  0  0  0  0  0
   47.4544   31.5225   49.8688 H   0  0  0  0  0  0  0  0  0  0  0  0
   48.7458   32.0979   48.7632 H   0  0  0  0  0  0  0  0  0  0  0  0
   46.5373   33.2012   48.0622 H   0  0  0  0  0  0  0  0  0  0  0  0
   45.1586   33.6415   47.1321 H   0  0  0  0  0  0  0  0  0  0  0  0
   44.0796   35.2889   45.5327 H   0  0  0  0  0  0  0  0  0  0  0  0
   48.5856   35.7023   42.9048 H   0  0  0  0  0  0  0  0  0  0  0  0
   49.5733   36.1178   40.6604 H   0  0  0  0  0  0  0  0  0  0  0  0
   48.5528   34.8808   38.7328 H   0  0  0  0  0  0  0  0  0  0  0  0
   46.6502   33.3275   39.0879 H   0  0  0  0  0  0  0  0  0  0  0  0
   45.1301   32.2313   47.3850 H   0  0  0  0  0  0  0  0  0  0  0  0
   45.5150   31.4975   50.4674 H   0  0  0  0  0  0  0  0  0  0  0  0
   44.0166   31.7628   50.1600 H   0  0  0  0  0  0  0  0  0  0  0  0
   44.2380   29.6881   48.1749 H   0  0  0  0  0  0  0  0  0  0  0  0
   45.6470   29.2566   48.6625 H   0  0  0  0  0  0  0  0  0  0  0  0
  1  6  1  0
  2  1  1  0
  2  3  1  0
  3  4  1  0
  4  5  1  0
  6 19  1  0
  6  5  1  0
  7  8  2  0
  7  1  1  0
  9  8  1  0
 10  9  2  0
 11 10  1  0
 11 12  2  0
 12  7  1  0
 13 11  1  0
 14 13  2  0
 15 14  1  0
 16 17  1  0
 16 15  2  0
 17 18  2  0
 18 13  1  0
 19 21  1  0
 19 20  1  0
 21 20  1  0
  1 22  1  1
  2 23  1  0
  2 24  1  0
  3 25  1  0
  3 26  1  0
  4 27  1  0
  4 28  1  0
  5 29  1  0
  5 30  1  0
  6 31  1  1
  8 32  1  0
  9 33  1  0
 14 34  1  0
 15 35  1  0
 16 36  1  0
 17 37  1  0
 19 38  1  0
 20 39  1  0
 20 40  1  0
 21 41  1  0
 21 42  1  0
M  ISO  8  22  13  23  13  24  13  25  13  26  13  27  13  28  13  29  13
M  ISO  8  30  13  31  13  32  14  33  14  34  14  35  14  36  14  37  14
M  ISO  5  38  13  39  13  40  13  41  13  42  13
M  END
>  <minimizedAffinity>  (1) 
-6.39512634

>  <minimizedRMSD>  (1) 
1.36686838

$$$$
