
     RDKit          3D

 36 38  0  0  1  0  0  0  0  0999 V2000
   45.9290   33.6160   45.7210 C   0  0  0  0  0  0  0  0  0  0  0  0
   44.9180   34.5320   46.0410 C   0  0  0  0  0  0  0  0  0  0  0  0
   44.5700   35.4850   45.0620 C   0  0  0  0  0  0  0  0  0  0  0  0
   45.2380   35.4570   43.8610 N   0  0  0  0  0  0  0  0  0  0  0  0
   46.2030   34.5410   43.6240 C   0  0  0  0  0  0  0  0  0  0  0  0
   46.5490   33.6300   44.5360 N   0  0  0  0  0  0  0  0  0  0  0  0
   46.3310   32.5830   46.6960 C   0  0  2  0  0  0  0  0  0  0  0  0
   46.0500   31.1740   46.2380 C   0  0  0  0  0  0  0  0  0  0  0  0
   46.6630   30.2420   47.2680 C   0  0  0  0  0  0  0  0  0  0  0  0
   46.2220   30.5200   48.6660 C   0  0  0  0  0  0  0  0  0  0  0  0
   46.2950   31.9660   49.0310 C   0  0  0  0  0  0  0  0  0  0  0  0
   45.5920   32.7920   47.9990 C   0  0  2  0  0  0  0  0  0  0  0  0
   44.2690   32.4540   47.8500 O   0  0  0  0  0  0  0  0  0  0  0  0
   46.8660   34.5590   42.3160 C   0  0  0  0  0  0  0  0  0  0  0  0
   47.9870   35.2930   42.1020 C   0  0  0  0  0  0  0  0  0  0  0  0
   48.6470   35.3430   40.8840 C   0  0  0  0  0  0  0  0  0  0  0  0
   48.0940   34.5880   39.8710 C   0  0  0  0  0  0  0  0  0  0  0  0
   46.9590   33.8350   40.0660 C   0  0  0  0  0  0  0  0  0  0  0  0
   46.3490   33.8230   41.2870 N   0  0  0  0  0  0  0  0  0  0  0  0
   44.4150   34.5084   47.0189 H   0  0  0  0  0  0  0  0  0  0  0  0
   43.7848   36.2311   45.2542 H   0  0  0  0  0  0  0  0  0  0  0  0
   47.4190   32.6938   46.8139 H   0  0  0  0  0  0  0  0  0  0  0  0
   44.9646   31.0065   46.1755 H   0  0  0  0  0  0  0  0  0  0  0  0
   46.4775   30.9927   45.2408 H   0  0  0  0  0  0  0  0  0  0  0  0
   46.3810   29.2096   47.0137 H   0  0  0  0  0  0  0  0  0  0  0  0
   47.7512   30.3995   47.2368 H   0  0  0  0  0  0  0  0  0  0  0  0
   45.1805   30.1839   48.7771 H   0  0  0  0  0  0  0  0  0  0  0  0
   46.9055   29.9793   49.3372 H   0  0  0  0  0  0  0  0  0  0  0  0
   45.8150   32.1193   50.0088 H   0  0  0  0  0  0  0  0  0  0  0  0
   47.3503   32.2725   49.0805 H   0  0  0  0  0  0  0  0  0  0  0  0
   45.5976   33.8456   48.3150 H   0  0  0  0  0  0  0  0  0  0  0  0
   43.8531   32.3477   48.7421 H   0  0  0  0  0  0  0  0  0  0  0  0
   48.3935   35.8793   42.9392 H   0  0  0  0  0  0  0  0  0  0  0  0
   49.5544   35.9467   40.7349 H   0  0  0  0  0  0  0  0  0  0  0  0
   48.5730   34.5878   38.8808 H   0  0  0  0  0  0  0  0  0  0  0  0
   46.5431   33.2426   39.2377 H   0  0  0  0  0  0  0  0  0  0  0  0
  1  2  2  0
  1  7  1  0
  3  2  1  0
  4  3  2  0
  5  4  1  0
  5  6  2  0
  6  1  1  0
  7 12  1  0
  8  7  1  0
  8  9  1  0
  9 10  1  0
 10 11  1  0
 12 11  1  0
 13 12  1  0
 14  5  1  0
 15 14  2  0
 16 15  1  0
 17 18  1  0
 17 16  2  0
 18 19  2  0
 19 14  1  0
  2 20  1  0
  3 21  1  0
  7 22  1  1
  8 23  1  0
  8 24  1  0
  9 25  1  0
  9 26  1  0
 10 27  1  0
 10 28  1  0
 11 29  1  0
 11 30  1  0
 12 31  1  1
 13 32  1  0
 15 33  1  0
 16 34  1  0
 17 35  1  0
 18 36  1  0
M  ISO  8  20  14  21  14  22  13  23  13  24  13  25  13  26  13  27  13
M  ISO  8  28  13  29  13  30  13  31  13  32   3  33  14  34  14  35  14
M  ISO  1  36  14
M  END
>  <minimizedAffinity>  (1) 
-6.44682693

>  <minimizedRMSD>  (1) 
0.288537443

$$$$
