
     RDKit          3D

 38 40  0  0  1  0  0  0  0  0999 V2000
   46.3260   31.3980   46.1270 C   0  0  2  0  0  0  0  0  0  0  0  0
   46.0010   30.2610   45.2150 C   0  0  0  0  0  0  0  0  0  0  0  0
   46.4020   28.9790   45.9290 C   0  0  0  0  0  0  0  0  0  0  0  0
   45.5830   28.8380   47.1910 C   0  0  0  0  0  0  0  0  0  0  0  0
   45.8370   30.0020   48.0640 C   0  0  0  0  0  0  0  0  0  0  0  0
   45.6680   31.3240   47.4480 C   0  0  1  0  0  0  0  0  0  0  0  0
   46.0480   32.7100   45.4910 C   0  0  0  0  0  0  0  0  0  0  0  0
   45.2000   33.6350   46.0810 C   0  0  0  0  0  0  0  0  0  0  0  0
   45.0090   34.8610   45.4090 C   0  0  0  0  0  0  0  0  0  0  0  0
   45.6670   35.0630   44.2150 N   0  0  0  0  0  0  0  0  0  0  0  0
   46.4740   34.1100   43.7060 C   0  0  0  0  0  0  0  0  0  0  0  0
   46.6760   32.9440   44.3190 N   0  0  0  0  0  0  0  0  0  0  0  0
   47.1110   34.3620   42.4010 C   0  0  0  0  0  0  0  0  0  0  0  0
   48.1690   35.1930   42.2890 C   0  0  0  0  0  0  0  0  0  0  0  0
   48.7980   35.4600   41.0790 C   0  0  0  0  0  0  0  0  0  0  0  0
   48.2790   34.8230   39.9750 C   0  0  0  0  0  0  0  0  0  0  0  0
   47.2020   33.9740   40.0710 C   0  0  0  0  0  0  0  0  0  0  0  0
   46.6270   33.7500   41.2820 N   0  0  0  0  0  0  0  0  0  0  0  0
   46.5730   32.1870   48.4000 C   0  0  0  0  0  0  0  0  0  0  0  0
   47.1280   31.2980   49.3530 F   0  0  0  0  0  0  0  0  0  0  0  0
   45.8250   33.0520   49.1380 F   0  0  0  0  0  0  0  0  0  0  0  0
   47.6680   32.6990   47.7870 F   0  0  0  0  0  0  0  0  0  0  0  0
   47.4065   31.3059   46.3115 H   0  0  0  0  0  0  0  0  0  0  0  0
   46.5635   30.3600   44.2749 H   0  0  0  0  0  0  0  0  0  0  0  0
   44.9284   30.2517   44.9714 H   0  0  0  0  0  0  0  0  0  0  0  0
   46.2158   28.1174   45.2710 H   0  0  0  0  0  0  0  0  0  0  0  0
   47.4714   29.0161   46.1839 H   0  0  0  0  0  0  0  0  0  0  0  0
   44.5143   28.7965   46.9339 H   0  0  0  0  0  0  0  0  0  0  0  0
   45.8655   27.9129   47.7149 H   0  0  0  0  0  0  0  0  0  0  0  0
   45.1457   29.9386   48.9173 H   0  0  0  0  0  0  0  0  0  0  0  0
   46.9007   29.9385   48.3369 H   0  0  0  0  0  0  0  0  0  0  0  0
   44.6113   31.6041   47.3259 H   0  0  0  0  0  0  0  0  0  0  0  0
   44.6961   33.4215   47.0352 H   0  0  0  0  0  0  0  0  0  0  0  0
   44.3510   35.6366   45.8279 H   0  0  0  0  0  0  0  0  0  0  0  0
   48.5509   35.6814   43.1977 H   0  0  0  0  0  0  0  0  0  0  0  0
   49.6596   36.1401   41.0078 H   0  0  0  0  0  0  0  0  0  0  0  0
   48.7377   34.9976   38.9906 H   0  0  0  0  0  0  0  0  0  0  0  0
   46.8074   33.4782   39.1718 H   0  0  0  0  0  0  0  0  0  0  0  0
  1  6  1  0
  2  3  1  0
  2  1  1  0
  3  4  1  0
  4  5  1  0
  6  5  1  0
  6 19  1  0
  7  8  2  0
  7  1  1  0
  9  8  1  0
 10  9  2  0
 11 10  1  0
 11 12  2  0
 12  7  1  0
 13 11  1  0
 14 13  2  0
 15 14  1  0
 16 17  1  0
 16 15  2  0
 17 18  2  0
 18 13  1  0
 19 21  1  0
 19 20  1  0
 22 19  1  0
  1 23  1  1
  2 24  1  0
  2 25  1  0
  3 26  1  0
  3 27  1  0
  4 28  1  0
  4 29  1  0
  5 30  1  0
  5 31  1  0
  6 32  1  6
  8 33  1  0
  9 34  1  0
 14 35  1  0
 15 36  1  0
 16 37  1  0
 17 38  1  0
M  ISO  8  23  13  24  13  25  13  26  13  27  13  28  13  29  13  30  13
M  ISO  8  31  13  32  13  33  14  34  14  35  14  36  14  37  14  38  14
M  END
>  <minimizedAffinity>  (1) 
-5.94226456

>  <minimizedRMSD>  (1) 
1.49323487

$$$$
