
     RDKit          3D

 39 41  0  0  1  0  0  0  0  0999 V2000
   47.4030   32.0410   46.5330 C   0  0  2  0  0  0  0  0  0  0  0  0
   46.9600   30.6130   46.2670 C   0  0  0  0  0  0  0  0  0  0  0  0
   47.7960   29.6860   47.1010 C   0  0  0  0  0  0  0  0  0  0  0  0
   47.8850   30.0610   48.5400 C   0  0  0  0  0  0  0  0  0  0  0  0
   48.1710   31.4950   48.7420 C   0  0  0  0  0  0  0  0  0  0  0  0
   47.2050   32.3640   47.9600 C   0  0  2  0  0  0  0  0  0  0  0  0
   46.7640   33.0060   45.6450 C   0  0  0  0  0  0  0  0  0  0  0  0
   45.6330   33.6810   46.1070 C   0  0  0  0  0  0  0  0  0  0  0  0
   44.9990   34.6050   45.2410 C   0  0  0  0  0  0  0  0  0  0  0  0
   45.5550   34.7770   43.9810 N   0  0  0  0  0  0  0  0  0  0  0  0
   46.6530   34.0860   43.6080 C   0  0  0  0  0  0  0  0  0  0  0  0
   47.2550   33.2130   44.4190 N   0  0  0  0  0  0  0  0  0  0  0  0
   47.1840   34.3190   42.2610 C   0  0  0  0  0  0  0  0  0  0  0  0
   48.2030   35.1790   42.0200 C   0  0  0  0  0  0  0  0  0  0  0  0
   48.7290   35.4270   40.7730 C   0  0  0  0  0  0  0  0  0  0  0  0
   48.1570   34.7420   39.7370 C   0  0  0  0  0  0  0  0  0  0  0  0
   47.1130   33.8550   39.9480 C   0  0  0  0  0  0  0  0  0  0  0  0
   46.6190   33.6370   41.2080 N   0  0  0  0  0  0  0  0  0  0  0  0
   45.8760   32.1450   48.3940 N   0  0  0  0  0  0  0  0  0  0  0  0
   45.1830   31.4600   49.4640 C   0  0  0  0  0  0  0  0  0  0  0  0
   44.8850   30.2500   49.1800 O   0  0  0  0  0  0  0  0  0  0  0  0
   48.4767   32.1156   46.3060 H   0  0  0  0  0  0  0  0  0  0  0  0
   45.8996   30.4982   46.5362 H   0  0  0  0  0  0  0  0  0  0  0  0
   47.0861   30.3741   45.2007 H   0  0  0  0  0  0  0  0  0  0  0  0
   47.3611   28.6778   47.0349 H   0  0  0  0  0  0  0  0  0  0  0  0
   48.8187   29.7403   46.6996 H   0  0  0  0  0  0  0  0  0  0  0  0
   46.9271   29.8222   49.0251 H   0  0  0  0  0  0  0  0  0  0  0  0
   48.7183   29.4926   48.9789 H   0  0  0  0  0  0  0  0  0  0  0  0
   48.0799   31.7314   49.8124 H   0  0  0  0  0  0  0  0  0  0  0  0
   49.1908   31.6999   48.3841 H   0  0  0  0  0  0  0  0  0  0  0  0
   47.3952   33.4351   48.1231 H   0  0  0  0  0  0  0  0  0  0  0  0
   45.2434   33.4996   47.1196 H   0  0  0  0  0  0  0  0  0  0  0  0
   44.1039   35.1627   45.5537 H   0  0  0  0  0  0  0  0  0  0  0  0
   48.6381   35.7138   42.8772 H   0  0  0  0  0  0  0  0  0  0  0  0
   49.5585   36.1328   40.6190 H   0  0  0  0  0  0  0  0  0  0  0  0
   48.5331   34.8981   38.7151 H   0  0  0  0  0  0  0  0  0  0  0  0
   46.6751   33.3189   39.0931 H   0  0  0  0  0  0  0  0  0  0  0  0
   45.2059   32.6088   47.7641 H   0  0  0  0  0  0  0  0  0  0  0  0
   44.9372   31.9336   50.4259 H   0  0  0  0  0  0  0  0  0  0  0  0
  1  6  1  0
  2  1  1  0
  2  3  1  0
  3  4  1  0
  4  5  1  0
  6 19  1  0
  6  5  1  0
  7  8  2  0
  7  1  1  0
  9  8  1  0
 10  9  2  0
 11 10  1  0
 11 12  2  0
 12  7  1  0
 13 11  1  0
 14 13  2  0
 15 14  1  0
 16 17  1  0
 16 15  2  0
 17 18  2  0
 18 13  1  0
 19 20  1  0
 21 20  2  0
  1 22  1  6
  2 23  1  0
  2 24  1  0
  3 25  1  0
  3 26  1  0
  4 27  1  0
  4 28  1  0
  5 29  1  0
  5 30  1  0
  6 31  1  6
  8 32  1  0
  9 33  1  0
 14 34  1  0
 15 35  1  0
 16 36  1  0
 17 37  1  0
 19 38  1  0
 20 39  1  0
M  ISO  8  22  13  23  13  24  13  25  13  26  13  27  13  28  13  29  13
M  ISO  8  30  13  31  13  32  14  33  14  34  14  35  14  36  14  37  14
M  ISO  1  39   6
M  END
>  <minimizedAffinity>  (1) 
-6.02109003

>  <minimizedRMSD>  (1) 
1.22284067

$$$$
