
     RDKit          3D

 45 47  0  0  1  0  0  0  0  0999 V2000
   47.5880   31.8130   46.3340 C   0  0  2  0  0  0  0  0  0  0  0  0
   47.3330   30.3700   45.8130 C   0  0  0  0  0  0  0  0  0  0  0  0
   48.1410   29.4010   46.6080 C   0  0  0  0  0  0  0  0  0  0  0  0
   48.1520   29.6140   48.0820 C   0  0  0  0  0  0  0  0  0  0  0  0
   48.1520   30.9940   48.4940 C   0  0  0  0  0  0  0  0  0  0  0  0
   47.1550   31.8820   47.7170 C   0  0  2  0  0  0  0  0  0  0  0  0
   46.9410   32.8020   45.4940 C   0  0  0  0  0  0  0  0  0  0  0  0
   45.8410   33.4670   46.0220 C   0  0  0  0  0  0  0  0  0  0  0  0
   45.1630   34.4230   45.2290 C   0  0  0  0  0  0  0  0  0  0  0  0
   45.6640   34.6340   43.9460 N   0  0  0  0  0  0  0  0  0  0  0  0
   46.7310   33.9600   43.5020 C   0  0  0  0  0  0  0  0  0  0  0  0
   47.3550   33.0620   44.2600 N   0  0  0  0  0  0  0  0  0  0  0  0
   47.2150   34.2470   42.1490 C   0  0  0  0  0  0  0  0  0  0  0  0
   48.2590   35.1190   41.9380 C   0  0  0  0  0  0  0  0  0  0  0  0
   48.7850   35.4560   40.7160 C   0  0  0  0  0  0  0  0  0  0  0  0
   48.1730   34.8340   39.6580 C   0  0  0  0  0  0  0  0  0  0  0  0
   47.1120   33.9430   39.8320 C   0  0  0  0  0  0  0  0  0  0  0  0
   46.6390   33.6560   41.0890 N   0  0  0  0  0  0  0  0  0  0  0  0
   47.2080   33.8110   37.5150 C   0  0  0  0  0  0  0  0  0  0  0  0
   48.1590   34.6340   37.6330 O   0  0  0  0  0  0  0  0  0  0  0  0
   46.5210   33.3330   38.6910 N   0  0  0  0  0  0  0  0  0  0  0  0
   45.8160   31.3040   47.8500 N   0  0  0  0  0  0  0  0  0  0  0  0
   45.1540   30.7320   48.9500 C   0  0  0  0  0  0  0  0  0  0  0  0
   44.6340   31.4320   49.8920 O   0  0  0  0  0  0  0  0  0  0  0  0
   45.0940   29.3060   48.9400 N   0  0  0  0  0  0  0  0  0  0  0  0
   48.6618   32.0472   46.2880 H   0  0  0  0  0  0  0  0  0  0  0  0
   46.2651   30.1271   45.9156 H   0  0  0  0  0  0  0  0  0  0  0  0
   47.6249   30.3070   44.7543 H   0  0  0  0  0  0  0  0  0  0  0  0
   47.7424   28.3938   46.4166 H   0  0  0  0  0  0  0  0  0  0  0  0
   49.1813   29.5435   46.2802 H   0  0  0  0  0  0  0  0  0  0  0  0
   47.2582   29.1312   48.5040 H   0  0  0  0  0  0  0  0  0  0  0  0
   49.0942   29.1816   48.4498 H   0  0  0  0  0  0  0  0  0  0  0  0
   47.8928   31.0360   49.5622 H   0  0  0  0  0  0  0  0  0  0  0  0
   49.1578   31.3880   48.2862 H   0  0  0  0  0  0  0  0  0  0  0  0
   47.1249   32.9188   48.0834 H   0  0  0  0  0  0  0  0  0  0  0  0
   45.5008   33.2525   47.0458 H   0  0  0  0  0  0  0  0  0  0  0  0
   44.2866   34.9708   45.6056 H   0  0  0  0  0  0  0  0  0  0  0  0
   48.7107   35.5861   42.8256 H   0  0  0  0  0  0  0  0  0  0  0  0
   49.6211   36.1607   40.5961 H   0  0  0  0  0  0  0  0  0  0  0  0
   48.5297   35.0439   38.6388 H   0  0  0  0  0  0  0  0  0  0  0  0
   46.9040   33.4593   36.5180 H   0  0  0  0  0  0  0  0  0  0  0  0
   45.7372   32.6648   38.7021 H   0  0  0  0  0  0  0  0  0  0  0  0
   45.2604   31.3194   46.9829 H   0  0  0  0  0  0  0  0  0  0  0  0
   44.6266   28.8048   49.7089 H   0  0  0  0  0  0  0  0  0  0  0  0
   45.5181   28.7781   48.1639 H   0  0  0  0  0  0  0  0  0  0  0  0
  1  6  1  0
  2  1  1  0
  2  3  1  0
  3  4  1  0
  4  5  1  0
  6 22  1  0
  6  5  1  0
  7  8  2  0
  7  1  1  0
  9  8  1  0
 10  9  2  0
 11 10  1  0
 11 12  2  0
 12  7  1  0
 13 11  1  0
 14 13  2  0
 15 14  1  0
 16 17  1  0
 16 15  2  0
 17 18  2  0
 18 13  1  0
 19 20  2  0
 19 21  1  0
 21 17  1  0
 22 23  1  0
 23 24  2  0
 25 23  1  0
  1 26  1  1
  2 27  1  0
  2 28  1  0
  3 29  1  0
  3 30  1  0
  4 31  1  0
  4 32  1  0
  5 33  1  0
  5 34  1  0
  6 35  1  1
  8 36  1  0
  9 37  1  0
 14 38  1  0
 15 39  1  0
 16 40  1  0
 19 41  1  0
 21 42  1  0
 22 43  1  0
 25 44  1  0
 25 45  1  0
M  ISO  8  26  13  27  13  28  13  29  13  30  13  31  13  32  13  33  13
M  ISO  8  34  13  35  13  36  14  37  14  38  14  39  14  40  14  41   6
M  END
>  <minimizedAffinity>  (1) 
-6.69287682

>  <minimizedRMSD>  (1) 
0.191963419

$$$$
