
     RDKit          3D

 25 26  0  0  1  0  0  0  0  0999 V2000
   48.2370   34.6110   41.3070 C   0  0  1  0  0  0  0  0  0  0  0  0
   48.8570   35.9850   41.7480 C   0  0  0  0  0  0  0  0  0  0  0  0
   49.1290   34.6790   42.4250 C   0  0  2  0  0  0  0  0  0  0  0  0
   46.7620   34.5850   41.4930 C   0  0  0  0  0  0  0  0  0  0  0  0
   46.0710   34.3450   40.5040 O   0  0  0  0  0  0  0  0  0  0  0  0
   45.3950   35.9420   43.0040 C   0  0  0  0  0  0  0  0  0  0  0  0
   46.1120   34.8090   42.7540 C   0  0  0  0  0  0  0  0  0  0  0  0
   46.1960   33.8280   43.7640 C   0  0  0  0  0  0  0  0  0  0  0  0
   45.5700   34.0340   44.9430 N   0  0  0  0  0  0  0  0  0  0  0  0
   44.8590   35.1840   45.1600 C   0  0  0  0  0  0  0  0  0  0  0  0
   44.7800   36.1050   44.2090 N   0  0  0  0  0  0  0  0  0  0  0  0
   50.4640   34.2870   42.3770 O   0  0  0  0  0  0  0  0  0  0  0  0
   49.1080   32.1080   42.6690 O   0  0  0  0  0  0  0  0  0  0  0  0
   50.4230   32.6050   42.0610 P   0  0  0  0  0  0  0  0  0  0  0  0
   51.7260   31.8000   42.7390 O   0  0  0  0  0  0  0  0  0  0  0  0
   50.3040   32.3180   40.3880 O   0  0  0  0  0  0  0  0  0  0  0  0
   48.2180   33.9441   40.4324 H   0  0  0  0  0  0  0  0  0  0  0  0
   49.6312   36.4736   41.1381 H   0  0  0  0  0  0  0  0  0  0  0  0
   48.4832   36.9777   42.0394 H   0  0  0  0  0  0  0  0  0  0  0  0
   49.0069   34.2480   43.4296 H   0  0  0  0  0  0  0  0  0  0  0  0
   45.3133   36.7232   42.2339 H   0  0  0  0  0  0  0  0  0  0  0  0
   46.7664   32.9031   43.5930 H   0  0  0  0  0  0  0  0  0  0  0  0
   44.3531   35.3440   46.1236 H   0  0  0  0  0  0  0  0  0  0  0  0
   51.6613   31.8400   43.7261 H   0  0  0  0  0  0  0  0  0  0  0  0
   49.9294   31.4146   40.2340 H   0  0  0  0  0  0  0  0  0  0  0  0
  1  4  1  0
  1  2  1  0
  1  3  1  0
  2  3  1  0
  4  7  1  0
  5  4  2  0
  6 11  2  0
  7  6  1  0
  7  8  2  0
  8  9  1  0
  9 10  2  0
 11 10  1  0
 12  3  1  0
 14 12  1  0
 14 13  2  0
 14 15  1  0
 16 14  1  0
  1 17  1  6
  2 18  1  0
  2 19  1  0
  3 20  1  1
  6 21  1  0
  8 22  1  0
 10 23  1  0
 15 24  1  0
 16 25  1  0
M  ISO  8  17  13  18  13  19  13  20  13  21  14  22  14  23  14  24   3
M  ISO  1  25   3
M  END
>  <minimizedAffinity>  (1) 
-4.99233294

>  <minimizedRMSD>  (1) 
0.520768404

$$$$
