
     RDKit          3D

 47 50  0  0  1  0  0  0  0  0999 V2000
   47.0170   32.4730   45.3530 C   0  0  0  0  0  0  0  0  0  0  0  0
   45.9560   33.1520   45.9440 C   0  0  0  0  0  0  0  0  0  0  0  0
   45.3500   34.2260   45.2540 C   0  0  0  0  0  0  0  0  0  0  0  0
   45.8720   34.5380   44.0030 N   0  0  0  0  0  0  0  0  0  0  0  0
   46.8940   33.8460   43.4940 C   0  0  0  0  0  0  0  0  0  0  0  0
   47.4590   32.8320   44.1530 N   0  0  0  0  0  0  0  0  0  0  0  0
   47.5930   31.3660   46.0870 C   0  0  2  0  0  0  0  0  0  0  0  0
   47.0670   29.9970   45.5600 C   0  0  0  0  0  0  0  0  0  0  0  0
   47.7990   28.8890   46.2320 C   0  0  0  0  0  0  0  0  0  0  0  0
   48.0000   29.0330   47.7040 C   0  0  0  0  0  0  0  0  0  0  0  0
   48.2600   30.3790   48.1460 C   0  0  0  0  0  0  0  0  0  0  0  0
   47.3310   31.4360   47.5110 C   0  0  2  0  0  0  0  0  0  0  0  0
   45.9420   31.0590   47.7800 N   0  0  0  0  0  0  0  0  0  0  0  0
   45.2950   30.6830   48.9700 C   0  0  0  0  0  0  0  0  0  0  0  0
   44.9450   31.5260   49.8730 O   0  0  0  0  0  0  0  0  0  0  0  0
   45.0460   29.2830   49.0980 N   0  0  0  0  0  0  0  0  0  0  0  0
   47.4120   34.2410   42.1810 C   0  0  0  0  0  0  0  0  0  0  0  0
   48.3400   35.2220   42.0360 C   0  0  0  0  0  0  0  0  0  0  0  0
   48.8750   35.6510   40.8470 C   0  0  0  0  0  0  0  0  0  0  0  0
   48.3810   34.9840   39.7370 C   0  0  0  0  0  0  0  0  0  0  0  0
   47.4270   33.9720   39.8350 C   0  0  0  0  0  0  0  0  0  0  0  0
   46.9670   33.6290   41.0760 N   0  0  0  0  0  0  0  0  0  0  0  0
   46.9090   33.2720   38.6630 C   0  0  0  0  0  0  0  0  0  0  0  0
   47.3970   33.6320   37.3580 C   0  0  0  0  0  0  0  0  0  0  0  0
   46.4270   32.4560   36.2430 S   0  0  0  0  0  0  0  0  0  0  0  0
   45.5660   31.7210   37.7670 C   0  0  0  0  0  0  0  0  0  0  0  0
   46.0000   32.2960   38.6500 N   0  0  0  0  0  0  0  0  0  0  0  0
   45.5924   32.8556   46.9389 H   0  0  0  0  0  0  0  0  0  0  0  0
   44.5076   34.7872   45.6846 H   0  0  0  0  0  0  0  0  0  0  0  0
   48.6782   31.4436   45.9245 H   0  0  0  0  0  0  0  0  0  0  0  0
   45.9920   29.9099   45.7765 H   0  0  0  0  0  0  0  0  0  0  0  0
   47.2298   29.9366   44.4738 H   0  0  0  0  0  0  0  0  0  0  0  0
   47.2355   27.9603   46.0589 H   0  0  0  0  0  0  0  0  0  0  0  0
   48.8081   28.8929   45.7941 H   0  0  0  0  0  0  0  0  0  0  0  0
   47.0916   28.6752   48.2107 H   0  0  0  0  0  0  0  0  0  0  0  0
   48.8950   28.4447   47.9549 H   0  0  0  0  0  0  0  0  0  0  0  0
   48.1315   30.4160   49.2378 H   0  0  0  0  0  0  0  0  0  0  0  0
   49.2853   30.6256   47.8331 H   0  0  0  0  0  0  0  0  0  0  0  0
   47.5008   32.4482   47.9068 H   0  0  0  0  0  0  0  0  0  0  0  0
   45.3310   31.0715   46.9509 H   0  0  0  0  0  0  0  0  0  0  0  0
   44.5758   28.9183   49.9387 H   0  0  0  0  0  0  0  0  0  0  0  0
   45.3365   28.6377   48.3496 H   0  0  0  0  0  0  0  0  0  0  0  0
   48.6942   35.7165   42.9525 H   0  0  0  0  0  0  0  0  0  0  0  0
   49.6271   36.4510   40.7811 H   0  0  0  0  0  0  0  0  0  0  0  0
   48.7557   35.2636   38.7413 H   0  0  0  0  0  0  0  0  0  0  0  0
   48.1411   34.3936   37.0818 H   0  0  0  0  0  0  0  0  0  0  0  0
   44.8146   30.9180   37.7921 H   0  0  0  0  0  0  0  0  0  0  0  0
  1  2  2  0
  1  7  1  0
  3  2  1  0
  4  3  2  0
  5  4  1  0
  5  6  2  0
  6  1  1  0
  7 12  1  0
  8  7  1  0
  8  9  1  0
  9 10  1  0
 10 11  1  0
 12 13  1  0
 12 11  1  0
 13 14  1  0
 14 16  1  0
 14 15  2  0
 17  5  1  0
 18 17  2  0
 19 18  1  0
 20 21  1  0
 20 19  2  0
 21 22  2  0
 22 17  1  0
 23 21  1  0
 24 23  2  0
 25 24  1  0
 25 26  1  0
 26 27  2  0
 27 23  1  0
  2 28  1  0
  3 29  1  0
  7 30  1  1
  8 31  1  0
  8 32  1  0
  9 33  1  0
  9 34  1  0
 10 35  1  0
 10 36  1  0
 11 37  1  0
 11 38  1  0
 12 39  1  1
 13 40  1  0
 16 41  1  0
 16 42  1  0
 18 43  1  0
 19 44  1  0
 20 45  1  0
 24 46  1  0
 26 47  1  0
M  ISO  8  28  14  29  14  30  13  31  13  32  13  33  13  34  13  35  13
M  ISO  8  36  13  37  13  38  13  39  13  43  14  44  14  45  14  46  14
M  ISO  1  47  14
M  END
>  <minimizedAffinity>  (1) 
-6.3048358

>  <minimizedRMSD>  (1) 
0.653014123

$$$$
