
     RDKit          3D

 30 33  0  0  0  0  0  0  0  0999 V2000
   47.4670   34.6940   42.2280 C   0  0  0  0  0  0  0  0  0  0  0  0
   47.6550   34.4020   40.8540 C   0  0  0  0  0  0  0  0  0  0  0  0
   48.4360   33.2910   40.5410 C   0  0  0  0  0  0  0  0  0  0  0  0
   48.9600   32.5690   41.5370 N   0  0  0  0  0  0  0  0  0  0  0  0
   48.7670   32.8660   42.8430 C   0  0  0  0  0  0  0  0  0  0  0  0
   48.0240   33.9230   43.1700 N   0  0  0  0  0  0  0  0  0  0  0  0
   49.6050   31.8190   39.0130 C   0  0  0  0  0  0  0  0  0  0  0  0
   48.7190   32.8660   39.1730 C   0  0  0  0  0  0  0  0  0  0  0  0
   48.1630   33.4380   38.0510 C   0  0  0  0  0  0  0  0  0  0  0  0
   48.4610   33.0030   36.7800 C   0  0  0  0  0  0  0  0  0  0  0  0
   48.0510   33.3990   35.5490 N   0  0  0  0  0  0  0  0  0  0  0  0
   48.6680   32.6140   34.6190 C   0  0  0  0  0  0  0  0  0  0  0  0
   49.4500   31.7460   35.2880 N   0  0  0  0  0  0  0  0  0  0  0  0
   49.3440   31.9580   36.6140 C   0  0  0  0  0  0  0  0  0  0  0  0
   49.9090   31.3740   37.7220 C   0  0  0  0  0  0  0  0  0  0  0  0
   46.6830   35.8100   42.5340 O   0  0  0  0  0  0  0  0  0  0  0  0
   45.3480   35.7320   42.8180 C   0  0  0  0  0  0  0  0  0  0  0  0
   44.5410   35.3530   41.7890 N   0  0  0  0  0  0  0  0  0  0  0  0
   43.2640   35.3300   42.2470 C   0  0  0  0  0  0  0  0  0  0  0  0
   43.2900   35.6920   43.5410 N   0  0  0  0  0  0  0  0  0  0  0  0
   44.5490   35.9320   43.8790 N   0  0  0  0  0  0  0  0  0  0  0  0
   47.2038   35.0256   40.0682 H   0  0  0  0  0  0  0  0  0  0  0  0
   49.2190   32.2410   43.6273 H   0  0  0  0  0  0  0  0  0  0  0  0
   50.0660   31.3408   39.8898 H   0  0  0  0  0  0  0  0  0  0  0  0
   47.4561   34.2716   38.1748 H   0  0  0  0  0  0  0  0  0  0  0  0
   47.3877   34.1615   35.3504 H   0  0  0  0  0  0  0  0  0  0  0  0
   48.5488   32.6783   33.5274 H   0  0  0  0  0  0  0  0  0  0  0  0
   50.6143   30.5401   37.5913 H   0  0  0  0  0  0  0  0  0  0  0  0
   42.3696   35.0634   41.6648 H   0  0  0  0  0  0  0  0  0  0  0  0
   42.4726   35.7696   44.1628 H   0  0  0  0  0  0  0  0  0  0  0  0
  1 16  1  0
  1  6  1  0
  2  1  2  0
  3  2  1  0
  3  4  2  0
  4  5  1  0
  5  6  2  0
  7  8  2  0
  8  3  1  0
  9  8  1  0
 10  9  2  0
 11 10  1  0
 12 13  2  0
 12 11  1  0
 13 14  1  0
 14 10  1  0
 14 15  2  0
 15  7  1  0
 16 17  1  0
 17 21  2  0
 18 19  2  0
 18 17  1  0
 19 20  1  0
 20 21  1  0
  2 22  1  0
  5 23  1  0
  7 24  1  0
  9 25  1  0
 11 26  1  0
 12 27  1  0
 15 28  1  0
 19 29  1  0
 20 30  1  0
M  ISO  8  22  14  23  14  24  14  25  14  26   9  27  14  28  14  29  14
M  ISO  1  30   9
M  END
>  <minimizedAffinity>  (1) 
-5.28089857

>  <minimizedRMSD>  (1) 
4.3496871

$$$$
