
     RDKit          3D

 41 46  0  0  0  0  0  0  0  0999 V2000
   45.5010   34.8020   43.4920 C   0  0  0  0  0  0  0  0  0  0  0  0
   46.2050   33.7140   44.0810 C   0  0  0  0  0  0  0  0  0  0  0  0
   46.0150   33.5200   45.4430 C   0  0  0  0  0  0  0  0  0  0  0  0
   45.2040   34.3360   46.1210 N   0  0  0  0  0  0  0  0  0  0  0  0
   44.5470   35.3640   45.5320 C   0  0  0  0  0  0  0  0  0  0  0  0
   44.7060   35.5790   44.2350 N   0  0  0  0  0  0  0  0  0  0  0  0
   46.9920   32.6980   47.5170 C   0  0  0  0  0  0  0  0  0  0  0  0
   46.6800   32.4360   46.1790 C   0  0  0  0  0  0  0  0  0  0  0  0
   47.0080   31.2220   45.6600 C   0  0  0  0  0  0  0  0  0  0  0  0
   47.6350   30.2370   46.3930 C   0  0  0  0  0  0  0  0  0  0  0  0
   48.0470   28.9890   46.0950 N   0  0  0  0  0  0  0  0  0  0  0  0
   48.6170   28.4570   47.2320 C   0  0  0  0  0  0  0  0  0  0  0  0
   48.5450   29.3800   48.1970 N   0  0  0  0  0  0  0  0  0  0  0  0
   47.9480   30.4780   47.7060 C   0  0  0  0  0  0  0  0  0  0  0  0
   47.6290   31.7010   48.2660 C   0  0  0  0  0  0  0  0  0  0  0  0
   45.6820   35.0080   42.1310 O   0  0  0  0  0  0  0  0  0  0  0  0
   44.7470   34.5940   41.2220 C   0  0  0  0  0  0  0  0  0  0  0  0
   45.4440   33.8130   40.3710 C   0  0  0  0  0  0  0  0  0  0  0  0
   44.1280   33.2620   39.1280 S   0  0  0  0  0  0  0  0  0  0  0  0
   42.8310   34.2690   40.0860 C   0  0  0  0  0  0  0  0  0  0  0  0
   43.4770   34.6750   40.8860 N   0  0  0  0  0  0  0  0  0  0  0  0
   41.3950   34.4790   39.8710 N   0  0  0  0  0  0  0  0  0  0  0  0
   40.7380   35.5300   40.3480 C   0  0  0  0  0  0  0  0  0  0  0  0
   39.4720   35.3470   39.9380 N   0  0  0  0  0  0  0  0  0  0  0  0
   39.3800   34.2120   39.2320 C   0  0  0  0  0  0  0  0  0  0  0  0
   38.3240   33.5710   38.5960 C   0  0  0  0  0  0  0  0  0  0  0  0
   38.4990   32.4120   37.9380 N   0  0  0  0  0  0  0  0  0  0  0  0
   39.7370   31.8540   37.8960 C   0  0  0  0  0  0  0  0  0  0  0  0
   40.7800   32.4740   38.5170 N   0  0  0  0  0  0  0  0  0  0  0  0
   40.6320   33.6350   39.1810 C   0  0  0  0  0  0  0  0  0  0  0  0
   46.8641   33.0619   43.4891 H   0  0  0  0  0  0  0  0  0  0  0  0
   43.8875   36.0141   46.1256 H   0  0  0  0  0  0  0  0  0  0  0  0
   46.7420   33.6679   47.9718 H   0  0  0  0  0  0  0  0  0  0  0  0
   46.7618   31.0170   44.6077 H   0  0  0  0  0  0  0  0  0  0  0  0
   47.9531   28.5183   45.1837 H   0  0  0  0  0  0  0  0  0  0  0  0
   49.0535   27.4519   47.3283 H   0  0  0  0  0  0  0  0  0  0  0  0
   47.8802   31.8945   49.3193 H   0  0  0  0  0  0  0  0  0  0  0  0
   46.5140   33.5590   40.3940 H   0  0  0  0  0  0  0  0  0  0  0  0
   41.1399   36.3625   40.9442 H   0  0  0  0  0  0  0  0  0  0  0  0
   37.3215   34.0224   38.6318 H   0  0  0  0  0  0  0  0  0  0  0  0
   39.8971   30.9053   37.3628 H   0  0  0  0  0  0  0  0  0  0  0  0
  1  2  2  0
  1  6  1  0
  2  3  1  0
  3  4  2  0
  3  8  1  0
  5  4  1  0
  6  5  2  0
  7 15  2  0
  8  7  1  0
  9  8  2  0
  9 10  1  0
 10 14  2  0
 11 10  1  0
 11 12  1  0
 12 13  2  0
 14 13  1  0
 14 15  1  0
 16  1  1  0
 17 16  1  0
 18 17  2  0
 19 20  1  0
 19 18  1  0
 20 21  2  0
 21 17  1  0
 22 20  1  0
 22 23  1  0
 24 23  2  0
 25 24  1  0
 26 25  2  0
 27 26  1  0
 28 27  2  0
 28 29  1  0
 29 30  2  0
 30 25  1  0
 30 22  1  0
  2 31  1  0
  5 32  1  0
  7 33  1  0
  9 34  1  0
 11 35  1  0
 12 36  1  0
 15 37  1  0
 18 38  1  0
 23 39  1  0
 26 40  1  0
 28 41  1  0
M  ISO  8  31  14  32  14  33  14  34  14  35   9  36  14  37  14  38  14
M  ISO  3  39  14  40  14  41  14
M  END
>  <minimizedAffinity>  (1) 
-7.1622386

>  <minimizedRMSD>  (1) 
1.14125574

$$$$
