
     RDKit          3D

 34 36  0  0  1  0  0  0  0  0999 V2000
   48.1750   34.4980   41.1840 C   0  0  1  0  0  0  0  0  0  0  0  0
   48.8600   35.8130   41.7250 C   0  0  0  0  0  0  0  0  0  0  0  0
   49.0980   34.4920   42.3140 C   0  0  2  0  0  0  0  0  0  0  0  0
   46.7040   34.5080   41.4110 C   0  0  0  0  0  0  0  0  0  0  0  0
   45.9830   34.2850   40.4430 O   0  0  0  0  0  0  0  0  0  0  0  0
   45.4260   35.9080   42.9620 C   0  0  0  0  0  0  0  0  0  0  0  0
   46.0790   34.7570   42.6680 C   0  0  0  0  0  0  0  0  0  0  0  0
   46.1270   33.7590   43.6820 C   0  0  0  0  0  0  0  0  0  0  0  0
   45.5400   33.9700   44.8830 N   0  0  0  0  0  0  0  0  0  0  0  0
   44.8940   35.1480   45.1270 C   0  0  0  0  0  0  0  0  0  0  0  0
   44.8440   36.0800   44.1920 N   0  0  0  0  0  0  0  0  0  0  0  0
   50.4000   34.0300   42.1620 O   0  0  0  0  0  0  0  0  0  0  0  0
   49.0350   31.9770   42.9050 O   0  0  0  0  0  0  0  0  0  0  0  0
   50.3170   32.3290   42.1780 P   0  0  2  0  0  0  0  0  0  0  0  0
   51.6410   31.6090   42.8870 O   0  0  0  0  0  0  0  0  0  0  0  0
   50.1060   31.8080   40.5670 O   0  0  0  0  0  0  0  0  0  0  0  0
   51.0700   31.6080   39.6310 C   0  0  0  0  0  0  0  0  0  0  0  0
   50.9510   31.5650   38.2600 C   0  0  0  0  0  0  0  0  0  0  0  0
   52.0440   31.3480   37.4310 C   0  0  0  0  0  0  0  0  0  0  0  0
   53.2970   31.1670   37.9640 C   0  0  0  0  0  0  0  0  0  0  0  0
   53.3770   31.2170   39.3490 C   0  0  0  0  0  0  0  0  0  0  0  0
   52.3180   31.4260   40.1420 N   0  0  0  0  0  0  0  0  0  0  0  0
   48.1184   33.8940   40.2664 H   0  0  0  0  0  0  0  0  0  0  0  0
   49.6465   36.3131   41.1408 H   0  0  0  0  0  0  0  0  0  0  0  0
   48.5200   36.7945   42.0870 H   0  0  0  0  0  0  0  0  0  0  0  0
   48.9877   34.0465   43.3137 H   0  0  0  0  0  0  0  0  0  0  0  0
   45.3625   36.7083   42.2101 H   0  0  0  0  0  0  0  0  0  0  0  0
   46.6455   32.8085   43.4877 H   0  0  0  0  0  0  0  0  0  0  0  0
   44.4152   35.3210   46.1021 H   0  0  0  0  0  0  0  0  0  0  0  0
   51.5543   31.6562   43.8721 H   0  0  0  0  0  0  0  0  0  0  0  0
   49.9588   31.7070   37.8069 H   0  0  0  0  0  0  0  0  0  0  0  0
   51.9053   31.3209   36.3401 H   0  0  0  0  0  0  0  0  0  0  0  0
   54.1812   30.9934   37.3332 H   0  0  0  0  0  0  0  0  0  0  0  0
   54.3614   31.0777   39.8197 H   0  0  0  0  0  0  0  0  0  0  0  0
  1  4  1  0
  1  2  1  0
  1  3  1  0
  2  3  1  0
  4  7  1  0
  5  4  2  0
  6 11  2  0
  7  6  1  0
  7  8  2  0
  8  9  1  0
  9 10  2  0
 11 10  1  0
 12 14  1  0
 12  3  1  0
 14 15  1  0
 14 13  2  0
 16 14  1  0
 17 22  1  0
 17 16  1  0
 18 17  2  0
 19 20  2  0
 19 18  1  0
 20 21  1  0
 21 22  2  0
  1 23  1  6
  2 24  1  0
  2 25  1  0
  3 26  1  1
  6 27  1  0
  8 28  1  0
 10 29  1  0
 15 30  1  0
 18 31  1  0
 19 32  1  0
 20 33  1  0
 21 34  1  0
M  ISO  8  23  13  24  13  25  13  26  13  27  14  28  14  29  14  30   3
M  ISO  4  31  14  32  14  33  14  34  14
M  END
>  <minimizedAffinity>  (1) 
-5.24069214

>  <minimizedRMSD>  (1) 
1.99611247

$$$$
