
     RDKit          3D

 32 35  0  0  0  0  0  0  0  0999 V2000
   45.5200   34.8350   43.4990 C   0  0  0  0  0  0  0  0  0  0  0  0
   46.2230   33.7540   44.0890 C   0  0  0  0  0  0  0  0  0  0  0  0
   46.0290   33.5290   45.4380 C   0  0  0  0  0  0  0  0  0  0  0  0
   45.1930   34.3340   46.1240 N   0  0  0  0  0  0  0  0  0  0  0  0
   44.5280   35.3640   45.5460 C   0  0  0  0  0  0  0  0  0  0  0  0
   44.6950   35.6040   44.2500 N   0  0  0  0  0  0  0  0  0  0  0  0
   46.9970   32.6920   47.5110 C   0  0  0  0  0  0  0  0  0  0  0  0
   46.6840   32.4530   46.1800 C   0  0  0  0  0  0  0  0  0  0  0  0
   47.0070   31.2310   45.6480 C   0  0  0  0  0  0  0  0  0  0  0  0
   47.6250   30.2420   46.3860 C   0  0  0  0  0  0  0  0  0  0  0  0
   48.0290   28.9920   46.0810 N   0  0  0  0  0  0  0  0  0  0  0  0
   48.5950   28.4520   47.2260 C   0  0  0  0  0  0  0  0  0  0  0  0
   48.5230   29.3740   48.1880 N   0  0  0  0  0  0  0  0  0  0  0  0
   47.9340   30.4740   47.6950 C   0  0  0  0  0  0  0  0  0  0  0  0
   47.6210   31.6990   48.2630 C   0  0  0  0  0  0  0  0  0  0  0  0
   45.7120   35.0670   42.1410 O   0  0  0  0  0  0  0  0  0  0  0  0
   44.6580   34.8760   41.2490 C   0  0  0  0  0  0  0  0  0  0  0  0
   45.1380   33.8480   40.5240 C   0  0  0  0  0  0  0  0  0  0  0  0
   43.7190   33.5440   39.2840 S   0  0  0  0  0  0  0  0  0  0  0  0
   42.7560   34.9630   40.0860 C   0  0  0  0  0  0  0  0  0  0  0  0
   43.4680   35.2690   40.8630 N   0  0  0  0  0  0  0  0  0  0  0  0
   41.4330   35.4730   39.7320 N   0  0  0  0  0  0  0  0  0  0  0  0
   46.8969   33.1190   43.4952 H   0  0  0  0  0  0  0  0  0  0  0  0
   43.8557   35.9959   46.1449 H   0  0  0  0  0  0  0  0  0  0  0  0
   46.7534   33.6614   47.9702 H   0  0  0  0  0  0  0  0  0  0  0  0
   46.7645   31.0316   44.5938 H   0  0  0  0  0  0  0  0  0  0  0  0
   47.9347   28.5253   45.1677 H   0  0  0  0  0  0  0  0  0  0  0  0
   49.0259   27.4446   47.3237 H   0  0  0  0  0  0  0  0  0  0  0  0
   47.8677   31.8890   49.3180 H   0  0  0  0  0  0  0  0  0  0  0  0
   46.0983   33.3204   40.6210 H   0  0  0  0  0  0  0  0  0  0  0  0
   41.0260   36.2588   40.2591 H   0  0  0  0  0  0  0  0  0  0  0  0
   40.9076   35.0467   38.9554 H   0  0  0  0  0  0  0  0  0  0  0  0
  1  2  2  0
  1  6  1  0
  2  3  1  0
  3  4  2  0
  3  8  1  0
  5  4  1  0
  6  5  2  0
  7 15  2  0
  8  7  1  0
  9  8  2  0
  9 10  1  0
 10 14  2  0
 11 10  1  0
 11 12  1  0
 12 13  2  0
 14 13  1  0
 14 15  1  0
 16  1  1  0
 17 16  1  0
 18 17  2  0
 19 20  1  0
 19 18  1  0
 20 21  2  0
 21 17  1  0
 22 20  1  0
  2 23  1  0
  5 24  1  0
  7 25  1  0
  9 26  1  0
 11 27  1  0
 12 28  1  0
 15 29  1  0
 18 30  1  0
 22 31  1  0
 22 32  1  0
M  ISO  8  23  14  24  14  25  14  26  14  27   9  28  14  29  14  30  14
M  END
>  <minimizedAffinity>  (1) 
-5.4857688

>  <minimizedRMSD>  (1) 
0.0921726823

$$$$
