
     RDKit          3D

 36 40  0  0  0  0  0  0  0  0999 V2000
   45.7020   34.7650   43.5010 C   0  0  0  0  0  0  0  0  0  0  0  0
   46.4130   33.7020   44.1030 C   0  0  0  0  0  0  0  0  0  0  0  0
   46.1730   33.4590   45.4440 C   0  0  0  0  0  0  0  0  0  0  0  0
   45.2850   34.2360   46.1000 N   0  0  0  0  0  0  0  0  0  0  0  0
   44.6160   35.2510   45.5000 C   0  0  0  0  0  0  0  0  0  0  0  0
   44.8360   35.4970   44.2100 N   0  0  0  0  0  0  0  0  0  0  0  0
   47.0500   32.6420   47.5670 C   0  0  0  0  0  0  0  0  0  0  0  0
   46.8150   32.4080   46.2160 C   0  0  0  0  0  0  0  0  0  0  0  0
   47.2000   31.2050   45.6960 C   0  0  0  0  0  0  0  0  0  0  0  0
   47.8070   30.2200   46.4490 C   0  0  0  0  0  0  0  0  0  0  0  0
   48.2630   28.9850   46.1560 N   0  0  0  0  0  0  0  0  0  0  0  0
   48.7810   28.4490   47.3220 C   0  0  0  0  0  0  0  0  0  0  0  0
   48.6340   29.3570   48.2920 N   0  0  0  0  0  0  0  0  0  0  0  0
   48.0400   30.4490   47.7820 C   0  0  0  0  0  0  0  0  0  0  0  0
   47.6620   31.6570   48.3360 C   0  0  0  0  0  0  0  0  0  0  0  0
   45.9340   35.0190   42.1580 O   0  0  0  0  0  0  0  0  0  0  0  0
   45.0610   34.5860   41.1840 C   0  0  0  0  0  0  0  0  0  0  0  0
   45.7980   33.7260   40.4380 C   0  0  0  0  0  0  0  0  0  0  0  0
   44.5390   33.1830   39.1350 S   0  0  0  0  0  0  0  0  0  0  0  0
   43.2190   34.2970   39.9240 C   0  0  0  0  0  0  0  0  0  0  0  0
   43.8130   34.7240   40.7570 N   0  0  0  0  0  0  0  0  0  0  0  0
   41.7780   34.5320   39.5290 C   0  0  0  0  0  0  0  0  0  0  0  0
   41.2770   34.2820   38.2860 N   0  0  0  0  0  0  0  0  0  0  0  0
   39.9760   34.6090   38.3100 C   0  0  0  0  0  0  0  0  0  0  0  0
   39.7030   35.0490   39.5510 N   0  0  0  0  0  0  0  0  0  0  0  0
   40.8070   35.0020   40.2960 N   0  0  0  0  0  0  0  0  0  0  0  0
   47.1274   33.0932   43.5294 H   0  0  0  0  0  0  0  0  0  0  0  0
   43.9017   35.8626   46.0707 H   0  0  0  0  0  0  0  0  0  0  0  0
   46.7544   33.5981   48.0237 H   0  0  0  0  0  0  0  0  0  0  0  0
   47.0180   31.0123   44.6284 H   0  0  0  0  0  0  0  0  0  0  0  0
   48.2315   28.5256   45.2346 H   0  0  0  0  0  0  0  0  0  0  0  0
   49.2335   27.4524   47.4313 H   0  0  0  0  0  0  0  0  0  0  0  0
   47.8482   31.8434   49.4040 H   0  0  0  0  0  0  0  0  0  0  0  0
   46.8489   33.4243   40.5587 H   0  0  0  0  0  0  0  0  0  0  0  0
   39.2667   34.5318   37.4728 H   0  0  0  0  0  0  0  0  0  0  0  0
   38.7810   35.3730   39.8763 H   0  0  0  0  0  0  0  0  0  0  0  0
  1  2  2  0
  1  6  1  0
  2  3  1  0
  3  4  2  0
  3  8  1  0
  5  4  1  0
  6  5  2  0
  7 15  2  0
  8  7  1  0
  9  8  2  0
  9 10  1  0
 10 14  2  0
 11 10  1  0
 11 12  1  0
 12 13  2  0
 14 13  1  0
 14 15  1  0
 16  1  1  0
 17 16  1  0
 18 17  2  0
 19 20  1  0
 19 18  1  0
 20 21  2  0
 21 17  1  0
 22 20  1  0
 22 26  2  0
 23 24  2  0
 23 22  1  0
 24 25  1  0
 25 26  1  0
  2 27  1  0
  5 28  1  0
  7 29  1  0
  9 30  1  0
 11 31  1  0
 12 32  1  0
 15 33  1  0
 18 34  1  0
 24 35  1  0
 25 36  1  0
M  ISO  8  27  14  28  14  29  14  30  14  31   9  32  14  33  14  34  14
M  ISO  2  35  14  36   9
M  END
>  <minimizedAffinity>  (1) 
-6.19075918

>  <minimizedRMSD>  (1) 
0.836736441

$$$$
