
     RDKit          3D

 43 47  0  0  0  0  0  0  0  0999 V2000
   45.5980   34.7450   43.4840 C   0  0  0  0  0  0  0  0  0  0  0  0
   46.3130   33.6780   44.0860 C   0  0  0  0  0  0  0  0  0  0  0  0
   46.1090   33.4710   45.4410 C   0  0  0  0  0  0  0  0  0  0  0  0
   45.2630   34.2690   46.1140 N   0  0  0  0  0  0  0  0  0  0  0  0
   44.5910   35.2810   45.5180 C   0  0  0  0  0  0  0  0  0  0  0  0
   44.7600   35.5100   44.2200 N   0  0  0  0  0  0  0  0  0  0  0  0
   47.0210   32.6470   47.5450 C   0  0  0  0  0  0  0  0  0  0  0  0
   46.7760   32.4060   46.1990 C   0  0  0  0  0  0  0  0  0  0  0  0
   47.1620   31.2020   45.6750 C   0  0  0  0  0  0  0  0  0  0  0  0
   47.7810   30.2380   46.4420 C   0  0  0  0  0  0  0  0  0  0  0  0
   48.2400   28.9990   46.1350 N   0  0  0  0  0  0  0  0  0  0  0  0
   48.7740   28.4610   47.2910 C   0  0  0  0  0  0  0  0  0  0  0  0
   48.6270   29.3870   48.2710 N   0  0  0  0  0  0  0  0  0  0  0  0
   48.0240   30.4690   47.7600 C   0  0  0  0  0  0  0  0  0  0  0  0
   47.6440   31.6760   48.3180 C   0  0  0  0  0  0  0  0  0  0  0  0
   45.7990   34.9600   42.1210 O   0  0  0  0  0  0  0  0  0  0  0  0
   44.7470   34.7410   41.2300 C   0  0  0  0  0  0  0  0  0  0  0  0
   45.2950   33.8010   40.4390 C   0  0  0  0  0  0  0  0  0  0  0  0
   43.8780   33.4620   39.1980 S   0  0  0  0  0  0  0  0  0  0  0  0
   42.8280   34.7490   40.1000 C   0  0  0  0  0  0  0  0  0  0  0  0
   43.5200   35.0650   40.8850 N   0  0  0  0  0  0  0  0  0  0  0  0
   41.4640   35.0970   39.7170 N   0  0  0  0  0  0  0  0  0  0  0  0
   40.3350   34.8910   40.5900 C   0  0  0  0  0  0  0  0  0  0  0  0
   39.0540   34.8260   39.8320 C   0  0  0  0  0  0  0  0  0  0  0  0
   39.1110   34.2730   38.5850 O   0  0  0  0  0  0  0  0  0  0  0  0
   40.1710   34.6370   37.7950 C   0  0  0  0  0  0  0  0  0  0  0  0
   41.1010   35.6570   38.4440 C   0  0  0  0  0  0  0  0  0  0  0  0
   46.9980   33.0439   43.5040 H   0  0  0  0  0  0  0  0  0  0  0  0
   43.9076   35.9116   46.1056 H   0  0  0  0  0  0  0  0  0  0  0  0
   46.7224   33.6042   47.9972 H   0  0  0  0  0  0  0  0  0  0  0  0
   46.9728   30.9975   44.6109 H   0  0  0  0  0  0  0  0  0  0  0  0
   48.1984   28.5437   45.2120 H   0  0  0  0  0  0  0  0  0  0  0  0
   49.2328   27.4668   47.3964 H   0  0  0  0  0  0  0  0  0  0  0  0
   47.8370   31.8686   49.3837 H   0  0  0  0  0  0  0  0  0  0  0  0
   46.2953   33.3464   40.4916 H   0  0  0  0  0  0  0  0  0  0  0  0
   40.4744   33.9459   41.1353 H   0  0  0  0  0  0  0  0  0  0  0  0
   40.2791   35.7431   41.2834 H   0  0  0  0  0  0  0  0  0  0  0  0
   38.3430   34.2346   40.4276 H   0  0  0  0  0  0  0  0  0  0  0  0
   38.7568   35.8730   39.6726 H   0  0  0  0  0  0  0  0  0  0  0  0
   39.7769   35.0702   36.8639 H   0  0  0  0  0  0  0  0  0  0  0  0
   40.7655   33.7285   37.6182 H   0  0  0  0  0  0  0  0  0  0  0  0
   41.9959   35.8099   37.8229 H   0  0  0  0  0  0  0  0  0  0  0  0
   40.6144   36.6372   38.5553 H   0  0  0  0  0  0  0  0  0  0  0  0
  1  2  2  0
  1  6  1  0
  2  3  1  0
  3  4  2  0
  3  8  1  0
  5  4  1  0
  6  5  2  0
  7 15  2  0
  8  7  1  0
  9  8  2  0
  9 10  1  0
 10 14  2  0
 11 10  1  0
 11 12  1  0
 12 13  2  0
 14 13  1  0
 14 15  1  0
 16  1  1  0
 17 16  1  0
 18 17  2  0
 19 20  1  0
 19 18  1  0
 20 21  2  0
 21 17  1  0
 22 20  1  0
 22 23  1  0
 24 23  1  0
 25 24  1  0
 26 27  1  0
 26 25  1  0
 27 22  1  0
  2 28  1  0
  5 29  1  0
  7 30  1  0
  9 31  1  0
 11 32  1  0
 12 33  1  0
 15 34  1  0
 18 35  1  0
 23 36  1  0
 23 37  1  0
 24 38  1  0
 24 39  1  0
 26 40  1  0
 26 41  1  0
 27 42  1  0
 27 43  1  0
M  ISO  8  28  14  29  14  30  14  31  14  32   9  33  14  34  14  35  14
M  ISO  8  36  13  37  13  38  13  39  13  40  13  41  13  42  13  43  13
M  END
>  <minimizedAffinity>  (1) 
-6.93399143

>  <minimizedRMSD>  (1) 
0.36892125

$$$$
