
     RDKit          3D

 23 24  0  0  1  0  0  0  0  0999 V2000
   45.8740   33.0130   43.3580 C   0  0  0  0  0  0  0  0  0  0  0  0
   45.4360   31.8010   42.7880 C   0  0  0  0  0  0  0  0  0  0  0  0
   46.3540   30.7510   42.6330 C   0  0  0  0  0  0  0  0  0  0  0  0
   47.6460   30.9790   43.0570 N   0  0  0  0  0  0  0  0  0  0  0  0
   48.0170   32.1460   43.5930 C   0  0  0  0  0  0  0  0  0  0  0  0
   47.1590   33.1580   43.7480 N   0  0  0  0  0  0  0  0  0  0  0  0
   45.1470   35.2370   42.5160 C   0  0  1  0  0  0  0  0  0  0  0  0
   44.9050   34.1000   43.5130 C   0  0  2  0  0  0  0  0  0  0  0  0
   45.0540   34.8340   44.8270 C   0  0  0  0  0  0  0  0  0  0  0  0
   44.4670   36.0670   44.5250 O   0  0  0  0  0  0  0  0  0  0  0  0
   45.1480   36.4760   43.3810 C   0  0  0  0  0  0  0  0  0  0  0  0
   46.3460   35.0630   41.8310 O   0  0  0  0  0  0  0  0  0  0  0  0
   43.7320   31.5990   42.2660 S   0  0  0  0  0  0  0  0  0  0  0  0
   46.0559   29.7882   42.1925 H   0  0  0  0  0  0  0  0  0  0  0  0
   49.0603   32.2769   43.9162 H   0  0  0  0  0  0  0  0  0  0  0  0
   44.3849   35.2884   41.7245 H   0  0  0  0  0  0  0  0  0  0  0  0
   43.9381   33.5888   43.3952 H   0  0  0  0  0  0  0  0  0  0  0  0
   44.5160   34.3205   45.6375 H   0  0  0  0  0  0  0  0  0  0  0  0
   46.0915   34.9066   45.1853 H   0  0  0  0  0  0  0  0  0  0  0  0
   46.1750   36.7868   43.6234 H   0  0  0  0  0  0  0  0  0  0  0  0
   44.6840   37.3445   42.8906 H   0  0  0  0  0  0  0  0  0  0  0  0
   47.0849   34.9558   42.4811 H   0  0  0  0  0  0  0  0  0  0  0  0
   42.9248   31.5033   43.3688 H   0  0  0  0  0  0  0  0  0  0  0  0
  1  6  1  0
  2  1  2  0
  3  2  1  0
  3  4  2  0
  4  5  1  0
  5  6  2  0
  7 12  1  0
  7 11  1  0
  7  8  1  0
  8  1  1  0
  8  9  1  0
 10  9  1  0
 11 10  1  0
 13  2  1  0
  3 14  1  0
  5 15  1  0
  7 16  1  6
  8 17  1  6
  9 18  1  0
  9 19  1  0
 11 20  1  0
 11 21  1  0
 12 22  1  0
 13 23  1  0
M  ISO  8  14  14  15  14  16  13  17  13  18  13  19  13  20  13  21  13
M  ISO  2  22   3  23  11
M  END
>  <minimizedAffinity>  (1) 
-3.12129116

>  <minimizedRMSD>  (1) 
3.31184363

$$$$
