
     RDKit          3D

 17 17  0  0  0  0  0  0  0  0999 V2000
   44.9990   35.0340   43.3250 C   0  0  0  0  0  0  0  0  0  0  0  0
   45.8310   33.9340   43.6400 C   0  0  0  0  0  0  0  0  0  0  0  0
   46.0000   33.5660   44.9750 C   0  0  0  0  0  0  0  0  0  0  0  0
   45.3450   34.2980   45.9170 N   0  0  0  0  0  0  0  0  0  0  0  0
   44.5600   35.3390   45.5810 C   0  0  0  0  0  0  0  0  0  0  0  0
   44.3810   35.7130   44.3150 N   0  0  0  0  0  0  0  0  0  0  0  0
   46.6460   33.0410   42.3200 S   0  0  0  0  0  0  0  0  0  0  0  0
   44.8750   35.3460   41.9770 O   0  0  0  0  0  0  0  0  0  0  0  0
   42.9900   33.5430   41.4470 O   0  0  0  0  0  0  0  0  0  0  0  0
   43.3800   34.9900   41.2460 P   0  0  0  0  0  0  0  0  0  0  0  0
   43.3780   35.3690   39.5970 O   0  0  0  0  0  0  0  0  0  0  0  0
   42.2170   35.9400   42.0600 O   0  0  0  0  0  0  0  0  0  0  0  0
   46.6389   32.7158   45.2558 H   0  0  0  0  0  0  0  0  0  0  0  0
   44.0496   35.8992   46.3783 H   0  0  0  0  0  0  0  0  0  0  0  0
   47.4960   32.1096   42.8556 H   0  0  0  0  0  0  0  0  0  0  0  0
   43.3728   36.3526   39.4845 H   0  0  0  0  0  0  0  0  0  0  0  0
   42.3368   35.8421   43.0378 H   0  0  0  0  0  0  0  0  0  0  0  0
  1  2  2  0
  1  6  1  0
  2  3  1  0
  3  4  2  0
  5  4  1  0
  6  5  2  0
  7  2  1  0
  8  1  1  0
 10  9  2  0
 10  8  1  0
 10 12  1  0
 11 10  1  0
  3 13  1  0
  5 14  1  0
  7 15  1  0
 11 16  1  0
 12 17  1  0
M  ISO  5  13  14  14  14  15  11  16   3  17   3
M  END
>  <minimizedAffinity>  (1) 
-3.84779191

>  <minimizedRMSD>  (1) 
2.92690516

$$$$
