
     RDKit          3D

 30 31  0  0  0  0  0  0  0  0999 V2000
   46.9810   34.7500   41.9070 C   0  0  0  0  0  0  0  0  0  0  0  0
   46.1600   34.9250   43.1300 C   0  0  0  0  0  0  0  0  0  0  0  0
   46.3250   33.9440   44.1170 C   0  0  0  0  0  0  0  0  0  0  0  0
   45.5960   34.0270   45.2900 C   0  0  0  0  0  0  0  0  0  0  0  0
   44.7230   35.0980   45.4320 N   0  0  0  0  0  0  0  0  0  0  0  0
   44.5950   36.0120   44.4670 C   0  0  0  0  0  0  0  0  0  0  0  0
   45.2920   35.9400   43.3380 N   0  0  0  0  0  0  0  0  0  0  0  0
   47.4750   32.5890   43.8600 S   0  0  0  0  0  0  0  0  0  0  0  0
   46.1780   34.1930   40.7600 C   0  0  0  0  0  0  0  0  0  0  0  0
   47.0600   33.5360   39.8560 N   0  0  0  0  0  0  0  0  0  0  0  0
   46.4100   32.6210   38.9440 C   0  0  0  0  0  0  0  0  0  0  0  0
   46.2180   33.2450   37.5770 C   0  0  0  0  0  0  0  0  0  0  0  0
   47.4090   33.6850   37.0290 O   0  0  0  0  0  0  0  0  0  0  0  0
   48.4590   33.6600   37.9350 C   0  0  0  0  0  0  0  0  0  0  0  0
   48.0690   34.3270   39.2450 C   0  0  0  0  0  0  0  0  0  0  0  0
   47.3903   35.7274   41.6118 H   0  0  0  0  0  0  0  0  0  0  0  0
   47.7838   34.0342   42.1375 H   0  0  0  0  0  0  0  0  0  0  0  0
   45.7040   33.2715   46.0822 H   0  0  0  0  0  0  0  0  0  0  0  0
   43.8936   36.8471   44.6105 H   0  0  0  0  0  0  0  0  0  0  0  0
   47.8871   32.1035   45.0730 H   0  0  0  0  0  0  0  0  0  0  0  0
   45.4380   33.4743   41.1419 H   0  0  0  0  0  0  0  0  0  0  0  0
   45.6528   35.0088   40.2417 H   0  0  0  0  0  0  0  0  0  0  0  0
   47.0296   31.7179   38.8412 H   0  0  0  0  0  0  0  0  0  0  0  0
   45.4196   32.3710   39.3523 H   0  0  0  0  0  0  0  0  0  0  0  0
   45.7750   32.4952   36.9050 H   0  0  0  0  0  0  0  0  0  0  0  0
   45.5591   34.1179   37.6950 H   0  0  0  0  0  0  0  0  0  0  0  0
   48.7374   32.6144   38.1333 H   0  0  0  0  0  0  0  0  0  0  0  0
   49.3069   34.2108   37.5018 H   0  0  0  0  0  0  0  0  0  0  0  0
   48.9453   34.3910   39.9069 H   0  0  0  0  0  0  0  0  0  0  0  0
   47.6968   35.3454   39.0597 H   0  0  0  0  0  0  0  0  0  0  0  0
  1  2  1  0
  2  7  1  0
  2  3  2  0
  3  4  1  0
  4  5  2  0
  6  5  1  0
  7  6  2  0
  8  3  1  0
  9  1  1  0
 10  9  1  0
 11 10  1  0
 12 11  1  0
 13 12  1  0
 13 14  1  0
 14 15  1  0
 15 10  1  0
  1 16  1  0
  1 17  1  0
  4 18  1  0
  6 19  1  0
  8 20  1  0
  9 21  1  0
  9 22  1  0
 11 23  1  0
 11 24  1  0
 12 25  1  0
 12 26  1  0
 14 27  1  0
 14 28  1  0
 15 29  1  0
 15 30  1  0
M  ISO  8  16   8  17   8  18  14  19  14  20  11  21   8  22   8  23  13
M  ISO  7  24  13  25  13  26  13  27  13  28  13  29  13  30  13
M  END
>  <minimizedAffinity>  (1) 
-4.15655565

>  <minimizedRMSD>  (1) 
2.54534507

$$$$
