
     RDKit          3D

 26 27  0  0  0  0  0  0  0  0999 V2000
   47.0240   34.8120   41.9500 C   0  0  0  0  0  0  0  0  0  0  0  0
   46.1810   34.9670   43.1460 C   0  0  0  0  0  0  0  0  0  0  0  0
   46.3240   33.9650   44.1230 C   0  0  0  0  0  0  0  0  0  0  0  0
   45.5650   34.0310   45.2870 C   0  0  0  0  0  0  0  0  0  0  0  0
   44.6960   35.0850   45.4380 N   0  0  0  0  0  0  0  0  0  0  0  0
   44.5960   36.0210   44.4700 C   0  0  0  0  0  0  0  0  0  0  0  0
   45.3110   35.9740   43.3550 N   0  0  0  0  0  0  0  0  0  0  0  0
   47.4730   32.6040   43.8860 S   0  0  0  0  0  0  0  0  0  0  0  0
   46.2720   34.2250   40.7850 C   0  0  0  0  0  0  0  0  0  0  0  0
   47.1340   33.4660   39.8750 C   0  0  0  0  0  0  0  0  0  0  0  0
   46.6040   33.1820   38.6140 C   0  0  0  0  0  0  0  0  0  0  0  0
   47.3170   32.4720   37.6610 C   0  0  0  0  0  0  0  0  0  0  0  0
   48.5850   32.0230   37.9370 C   0  0  0  0  0  0  0  0  0  0  0  0
   49.0910   32.3220   39.2070 C   0  0  0  0  0  0  0  0  0  0  0  0
   48.3810   33.0130   40.1180 N   0  0  0  0  0  0  0  0  0  0  0  0
   47.4085   35.8007   41.6592 H   0  0  0  0  0  0  0  0  0  0  0  0
   47.8395   34.1189   42.2041 H   0  0  0  0  0  0  0  0  0  0  0  0
   45.6579   33.2599   46.0660 H   0  0  0  0  0  0  0  0  0  0  0  0
   43.8935   36.8554   44.6124 H   0  0  0  0  0  0  0  0  0  0  0  0
   47.8749   32.1279   45.1061 H   0  0  0  0  0  0  0  0  0  0  0  0
   45.4927   33.5526   41.1730 H   0  0  0  0  0  0  0  0  0  0  0  0
   45.8431   35.0613   40.2134 H   0  0  0  0  0  0  0  0  0  0  0  0
   45.5902   33.5325   38.3702 H   0  0  0  0  0  0  0  0  0  0  0  0
   46.8652   32.2672   36.6792 H   0  0  0  0  0  0  0  0  0  0  0  0
   49.1723   31.4578   37.1984 H   0  0  0  0  0  0  0  0  0  0  0  0
   50.1032   31.9808   39.4696 H   0  0  0  0  0  0  0  0  0  0  0  0
  1  2  1  0
  2  7  1  0
  2  3  2  0
  3  4  1  0
  4  5  2  0
  6  5  1  0
  7  6  2  0
  8  3  1  0
  9  1  1  0
 10 15  1  0
 10  9  1  0
 11 10  2  0
 12 13  2  0
 12 11  1  0
 13 14  1  0
 14 15  2  0
  1 16  1  0
  1 17  1  0
  4 18  1  0
  6 19  1  0
  8 20  1  0
  9 21  1  0
  9 22  1  0
 11 23  1  0
 12 24  1  0
 13 25  1  0
 14 26  1  0
M  ISO  8  16   8  17   8  18  14  19  14  20  11  21   8  22   8  23  14
M  ISO  3  24  14  25  14  26  14
M  END
>  <minimizedAffinity>  (1) 
-4.00677919

>  <minimizedRMSD>  (1) 
2.98698306

$$$$
