
     RDKit          3D

 34 37  0  0  0  0  0  0  0  0999 V2000
   44.1150   34.3010   41.5080 C   0  0  0  0  0  0  0  0  0  0  0  0
   43.5370   35.5360   41.9330 C   0  0  0  0  0  0  0  0  0  0  0  0
   41.8580   35.4830   41.1530 S   0  0  0  0  0  0  0  0  0  0  0  0
   42.2410   33.8070   40.3970 C   0  0  0  0  0  0  0  0  0  0  0  0
   43.2980   33.6020   40.7550 N   0  0  0  0  0  0  0  0  0  0  0  0
   41.3620   32.9970   39.5560 N   0  0  0  0  0  0  0  0  0  0  0  0
   41.5500   32.8300   38.2560 C   0  0  0  0  0  0  0  0  0  0  0  0
   40.5550   32.0340   37.8250 N   0  0  0  0  0  0  0  0  0  0  0  0
   39.7740   31.7270   38.8670 C   0  0  0  0  0  0  0  0  0  0  0  0
   38.6260   30.9640   39.0490 C   0  0  0  0  0  0  0  0  0  0  0  0
   38.0140   30.8050   40.2280 N   0  0  0  0  0  0  0  0  0  0  0  0
   38.5420   31.4220   41.3010 C   0  0  0  0  0  0  0  0  0  0  0  0
   39.6640   32.1790   41.1730 N   0  0  0  0  0  0  0  0  0  0  0  0
   40.2750   32.3360   39.9970 C   0  0  0  0  0  0  0  0  0  0  0  0
   45.5010   33.9400   41.9250 C   0  0  0  0  0  0  0  0  0  0  0  0
   46.5450   34.2030   40.8830 C   0  0  0  0  0  0  0  0  0  0  0  0
   47.9230   34.1510   41.4080 C   0  0  0  0  0  0  0  0  0  0  0  0
   48.6600   32.9920   41.1510 C   0  0  0  0  0  0  0  0  0  0  0  0
   49.9550   32.8850   41.6170 C   0  0  0  0  0  0  0  0  0  0  0  0
   50.4710   33.9340   42.3190 N   0  0  0  0  0  0  0  0  0  0  0  0
   49.7360   35.0380   42.5510 C   0  0  0  0  0  0  0  0  0  0  0  0
   48.4860   35.1350   42.0990 N   0  0  0  0  0  0  0  0  0  0  0  0
   47.9240   31.6410   40.2150 S   0  0  0  0  0  0  0  0  0  0  0  0
   43.9781   36.3211   42.5647 H   0  0  0  0  0  0  0  0  0  0  0  0
   42.3606   33.2581   37.6480 H   0  0  0  0  0  0  0  0  0  0  0  0
   38.1951   30.4609   38.1708 H   0  0  0  0  0  0  0  0  0  0  0  0
   38.0639   31.3134   42.2857 H   0  0  0  0  0  0  0  0  0  0  0  0
   45.7543   34.5241   42.8220 H   0  0  0  0  0  0  0  0  0  0  0  0
   45.5033   32.8552   42.1074 H   0  0  0  0  0  0  0  0  0  0  0  0
   46.3707   35.2031   40.4594 H   0  0  0  0  0  0  0  0  0  0  0  0
   46.4556   33.4097   40.1263 H   0  0  0  0  0  0  0  0  0  0  0  0
   50.5525   31.9810   41.4278 H   0  0  0  0  0  0  0  0  0  0  0  0
   50.1730   35.8710   43.1212 H   0  0  0  0  0  0  0  0  0  0  0  0
   47.4162   30.7089   41.0811 H   0  0  0  0  0  0  0  0  0  0  0  0
  1 15  1  0
  1  2  2  0
  3  2  1  0
  4  5  2  0
  4  3  1  0
  5  1  1  0
  6 14  1  0
  6  4  1  0
  7  6  1  0
  8  7  2  0
  8  9  1  0
  9 10  2  0
  9 14  1  0
 10 11  1  0
 11 12  2  0
 13 12  1  0
 14 13  2  0
 16 17  1  0
 16 15  1  0
 17 22  1  0
 18 17  2  0
 18 19  1  0
 19 20  2  0
 20 21  1  0
 22 21  2  0
 23 18  1  0
  2 24  1  0
  7 25  1  0
 10 26  1  0
 12 27  1  0
 15 28  1  0
 15 29  1  0
 16 30  1  0
 16 31  1  0
 19 32  1  0
 21 33  1  0
 23 34  1  0
M  ISO  8  24  14  25  14  26  14  27  14  28   8  29   8  30   8  31   8
M  ISO  3  32  14  33  14  34  11
M  END
>  <minimizedAffinity>  (1) 
-5.10875225

>  <minimizedRMSD>  (1) 
1.81252015

$$$$
