
     RDKit          3D

 37 40  0  0  0  0  0  0  0  0999 V2000
   44.2520   34.4320   41.5470 C   0  0  0  0  0  0  0  0  0  0  0  0
   43.6370   35.6920   41.8240 C   0  0  0  0  0  0  0  0  0  0  0  0
   41.9510   35.4860   41.0850 S   0  0  0  0  0  0  0  0  0  0  0  0
   42.3740   33.7430   40.5370 C   0  0  0  0  0  0  0  0  0  0  0  0
   43.4480   33.6190   40.9020 N   0  0  0  0  0  0  0  0  0  0  0  0
   41.4780   32.7020   38.4730 C   0  0  0  0  0  0  0  0  0  0  0  0
   41.4230   32.8880   39.8170 C   0  0  0  0  0  0  0  0  0  0  0  0
   40.4340   32.2480   40.5510 C   0  0  0  0  0  0  0  0  0  0  0  0
   39.4840   31.4180   39.9750 C   0  0  0  0  0  0  0  0  0  0  0  0
   38.4560   30.7060   40.4610 N   0  0  0  0  0  0  0  0  0  0  0  0
   37.8750   30.0810   39.4160 C   0  0  0  0  0  0  0  0  0  0  0  0
   38.5460   30.4010   38.2430 C   0  0  0  0  0  0  0  0  0  0  0  0
   39.5700   31.2510   38.5960 C   0  0  0  0  0  0  0  0  0  0  0  0
   40.5490   31.8850   37.8750 C   0  0  0  0  0  0  0  0  0  0  0  0
   45.6400   34.1370   41.9660 C   0  0  0  0  0  0  0  0  0  0  0  0
   46.6740   34.2470   40.9090 C   0  0  0  0  0  0  0  0  0  0  0  0
   48.0550   34.1240   41.4220 C   0  0  0  0  0  0  0  0  0  0  0  0
   48.7350   32.9250   41.1430 C   0  0  0  0  0  0  0  0  0  0  0  0
   50.0270   32.7520   41.5960 C   0  0  0  0  0  0  0  0  0  0  0  0
   50.6000   33.7670   42.3070 N   0  0  0  0  0  0  0  0  0  0  0  0
   49.9250   34.9020   42.5590 C   0  0  0  0  0  0  0  0  0  0  0  0
   48.6790   35.0640   42.1190 N   0  0  0  0  0  0  0  0  0  0  0  0
   47.9210   31.6230   40.1970 S   0  0  0  0  0  0  0  0  0  0  0  0
   44.0586   36.5643   42.3448 H   0  0  0  0  0  0  0  0  0  0  0  0
   42.2545   33.1979   37.8721 H   0  0  0  0  0  0  0  0  0  0  0  0
   40.4023   32.4063   41.6391 H   0  0  0  0  0  0  0  0  0  0  0  0
   38.1648   30.6475   41.4473 H   0  0  0  0  0  0  0  0  0  0  0  0
   37.0005   29.4171   39.4831 H   0  0  0  0  0  0  0  0  0  0  0  0
   38.3063   30.0451   37.2302 H   0  0  0  0  0  0  0  0  0  0  0  0
   40.5919   31.7352   36.7861 H   0  0  0  0  0  0  0  0  0  0  0  0
   45.9051   34.8384   42.7708 H   0  0  0  0  0  0  0  0  0  0  0  0
   45.6397   33.0806   42.2725 H   0  0  0  0  0  0  0  0  0  0  0  0
   46.5698   35.2269   40.4203 H   0  0  0  0  0  0  0  0  0  0  0  0
   46.5125   33.4135   40.2095 H   0  0  0  0  0  0  0  0  0  0  0  0
   50.5792   31.8232   41.3902 H   0  0  0  0  0  0  0  0  0  0  0  0
   50.4074   35.7055   43.1349 H   0  0  0  0  0  0  0  0  0  0  0  0
   47.3557   30.7189   41.0572 H   0  0  0  0  0  0  0  0  0  0  0  0
  1  2  2  0
  1 15  1  0
  3  2  1  0
  4  5  2  0
  4  3  1  0
  5  1  1  0
  6  7  2  0
  7  4  1  0
  7  8  1  0
  9 10  1  0
  9  8  2  0
 11 10  1  0
 12 13  1  0
 12 11  2  0
 13  9  1  0
 14  6  1  0
 14 13  2  0
 16 17  1  0
 16 15  1  0
 17 22  1  0
 18 17  2  0
 18 19  1  0
 19 20  2  0
 20 21  1  0
 22 21  2  0
 23 18  1  0
  2 24  1  0
  6 25  1  0
  8 26  1  0
 10 27  1  0
 11 28  1  0
 12 29  1  0
 14 30  1  0
 15 31  1  0
 15 32  1  0
 16 33  1  0
 16 34  1  0
 19 35  1  0
 21 36  1  0
 23 37  1  0
M  ISO  8  24  14  25  14  26  14  27   9  28  14  29  14  30  14  31   8
M  ISO  6  32   8  33   8  34   8  35  14  36  14  37  11
M  END
>  <minimizedAffinity>  (1) 
-4.87696362

>  <minimizedRMSD>  (1) 
2.304847

$$$$
