
     RDKit          3D

 30 32  0  0  0  0  0  0  0  0999 V2000
   46.4400   34.3310   40.8980 C   0  0  0  0  0  0  0  0  0  0  0  0
   47.8210   34.2930   41.4140 C   0  0  0  0  0  0  0  0  0  0  0  0
   48.4860   33.0690   41.3280 C   0  0  0  0  0  0  0  0  0  0  0  0
   49.7960   32.9680   41.7990 C   0  0  0  0  0  0  0  0  0  0  0  0
   50.3680   34.0850   42.3240 N   0  0  0  0  0  0  0  0  0  0  0  0
   49.6950   35.2570   42.3920 C   0  0  0  0  0  0  0  0  0  0  0  0
   48.4530   35.3340   41.9410 N   0  0  0  0  0  0  0  0  0  0  0  0
   47.6620   31.6300   40.6190 S   0  0  0  0  0  0  0  0  0  0  0  0
   45.4190   34.6310   41.9380 C   0  0  0  0  0  0  0  0  0  0  0  0
   44.0550   34.9130   41.4080 C   0  0  0  0  0  0  0  0  0  0  0  0
   43.0060   35.3210   42.2990 C   0  0  0  0  0  0  0  0  0  0  0  0
   41.5720   35.5260   41.1320 S   0  0  0  0  0  0  0  0  0  0  0  0
   42.6550   35.0240   39.6700 C   0  0  0  0  0  0  0  0  0  0  0  0
   43.6680   34.8290   40.1560 N   0  0  0  0  0  0  0  0  0  0  0  0
   42.1470   34.9490   38.2600 C   0  0  0  0  0  0  0  0  0  0  0  0
   40.6650   34.8140   38.1270 C   0  0  0  0  0  0  0  0  0  0  0  0
   41.3310   36.0770   37.7380 C   0  0  0  0  0  0  0  0  0  0  0  0
   46.3814   35.1068   40.1204 H   0  0  0  0  0  0  0  0  0  0  0  0
   46.2155   33.3271   40.5085 H   0  0  0  0  0  0  0  0  0  0  0  0
   50.3472   32.0174   41.7474 H   0  0  0  0  0  0  0  0  0  0  0  0
   50.1801   36.1457   42.8221 H   0  0  0  0  0  0  0  0  0  0  0  0
   47.2010   30.8250   41.6271 H   0  0  0  0  0  0  0  0  0  0  0  0
   45.3522   33.7647   42.6126 H   0  0  0  0  0  0  0  0  0  0  0  0
   45.7516   35.5491   42.4445 H   0  0  0  0  0  0  0  0  0  0  0  0
   43.0410   35.4728   43.3879 H   0  0  0  0  0  0  0  0  0  0  0  0
   43.0364   34.4176   37.8904 H   0  0  0  0  0  0  0  0  0  0  0  0
   40.2397   34.1560   37.3549 H   0  0  0  0  0  0  0  0  0  0  0  0
   39.8442   34.5452   38.8082 H   0  0  0  0  0  0  0  0  0  0  0  0
   41.3981   36.3576   36.6765 H   0  0  0  0  0  0  0  0  0  0  0  0
   41.2064   37.1351   38.0117 H   0  0  0  0  0  0  0  0  0  0  0  0
  1  2  1  0
  1  9  1  0
  2  7  1  0
  3  2  2  0
  3  4  1  0
  4  5  2  0
  5  6  1  0
  7  6  2  0
  8  3  1  0
 10  9  1  0
 10 11  2  0
 12 11  1  0
 13 14  2  0
 13 12  1  0
 14 10  1  0
 15 13  1  0
 16 15  1  0
 17 16  1  0
 17 15  1  0
  1 18  1  0
  1 19  1  0
  4 20  1  0
  6 21  1  0
  8 22  1  0
  9 23  1  0
  9 24  1  0
 11 25  1  0
 15 26  1  0
 16 27  1  0
 16 28  1  0
 17 29  1  0
 17 30  1  0
M  ISO  8  18   8  19   8  20  14  21  14  22  11  23   8  24   8  25  14
M  ISO  5  26  13  27  13  28  13  29  13  30  13
M  END
>  <minimizedAffinity>  (1) 
-4.47416687

>  <minimizedRMSD>  (1) 
0.797582805

$$$$
