
     RDKit          3D

 31 32  0  0  0  0  0  0  0  0999 V2000
   46.3240   34.6110   42.0620 C   0  0  0  0  0  0  0  0  0  0  0  0
   44.9090   34.7740   41.6290 C   0  0  0  0  0  0  0  0  0  0  0  0
   43.9620   35.4030   42.5120 C   0  0  0  0  0  0  0  0  0  0  0  0
   42.4090   35.3500   41.5040 S   0  0  0  0  0  0  0  0  0  0  0  0
   43.3300   34.4990   40.0980 C   0  0  0  0  0  0  0  0  0  0  0  0
   44.3860   34.4010   40.4840 N   0  0  0  0  0  0  0  0  0  0  0  0
   42.5380   34.1830   38.9280 N   0  0  0  0  0  0  0  0  0  0  0  0
   41.1830   35.0650   38.3840 S   0  0  0  0  0  0  0  0  0  0  0  0
   40.2000   34.1650   37.6690 O   0  0  0  0  0  0  0  0  0  0  0  0
   40.4500   35.7480   39.4880 O   0  0  0  0  0  0  0  0  0  0  0  0
   41.7150   36.1600   37.2040 O   0  0  0  0  0  0  0  0  0  0  0  0
   47.3030   34.5360   40.9240 C   0  0  0  0  0  0  0  0  0  0  0  0
   48.6180   33.9750   41.3290 C   0  0  0  0  0  0  0  0  0  0  0  0
   48.9830   32.7460   40.7750 C   0  0  0  0  0  0  0  0  0  0  0  0
   50.1990   32.1830   41.1210 C   0  0  0  0  0  0  0  0  0  0  0  0
   51.0010   32.8610   42.0030 N   0  0  0  0  0  0  0  0  0  0  0  0
   50.6150   34.0470   42.5170 C   0  0  0  0  0  0  0  0  0  0  0  0
   49.4500   34.5690   42.1750 N   0  0  0  0  0  0  0  0  0  0  0  0
   47.8770   31.9100   39.6210 S   0  0  0  0  0  0  0  0  0  0  0  0
   46.5937   35.4691   42.6952 H   0  0  0  0  0  0  0  0  0  0  0  0
   46.3855   33.6538   42.6005 H   0  0  0  0  0  0  0  0  0  0  0  0
   44.1196   35.8092   43.5220 H   0  0  0  0  0  0  0  0  0  0  0  0
   42.8157   33.3572   38.3786 H   0  0  0  0  0  0  0  0  0  0  0  0
   39.6601   33.6707   38.3355 H   0  0  0  0  0  0  0  0  0  0  0  0
   40.7934   35.4280   40.3596 H   0  0  0  0  0  0  0  0  0  0  0  0
   42.1024   36.9574   37.6445 H   0  0  0  0  0  0  0  0  0  0  0  0
   47.4607   35.5505   40.5292 H   0  0  0  0  0  0  0  0  0  0  0  0
   46.8765   33.8634   40.1653 H   0  0  0  0  0  0  0  0  0  0  0  0
   50.5140   31.2170   40.6996 H   0  0  0  0  0  0  0  0  0  0  0  0
   51.2705   34.5801   43.2214 H   0  0  0  0  0  0  0  0  0  0  0  0
   46.9378   31.2001   40.3216 H   0  0  0  0  0  0  0  0  0  0  0  0
  2  1  1  0
  2  3  2  0
  4  3  1  0
  5  6  2  0
  5  4  1  0
  6  2  1  0
  7  5  1  0
  8  7  1  0
  8 10  1  0
  9  8  1  0
 11  8  1  0
 12 13  1  0
 12  1  1  0
 13 18  2  0
 14 15  2  0
 14 13  1  0
 15 16  1  0
 16 17  2  0
 18 17  1  0
 19 14  1  0
  1 20  1  0
  1 21  1  0
  3 22  1  0
  7 23  1  0
  9 24  1  0
 10 25  1  0
 11 26  1  0
 12 27  1  0
 12 28  1  0
 15 29  1  0
 17 30  1  0
 19 31  1  0
M  ISO  8  20   8  21   8  22  14  24   3  25   3  26   3  27   8  28   8
M  ISO  3  29  14  30  14  31  11
M  END
>  <minimizedAffinity>  (1) 
-4.8497262

>  <minimizedRMSD>  (1) 
1.0531224

$$$$
