
     RDKit          3D

 35 37  0  0  1  0  0  0  0  0999 V2000
   48.2690   34.5690   41.2390 C   0  0  1  0  0  0  0  0  0  0  0  0
   48.9080   35.9170   41.7550 C   0  0  0  0  0  0  0  0  0  0  0  0
   49.1660   34.6190   42.3880 C   0  0  2  0  0  0  0  0  0  0  0  0
   46.7930   34.5470   41.4320 C   0  0  0  0  0  0  0  0  0  0  0  0
   46.0980   34.3060   40.4510 O   0  0  0  0  0  0  0  0  0  0  0  0
   45.4440   35.9160   42.9500 C   0  0  0  0  0  0  0  0  0  0  0  0
   46.1380   34.7850   42.6750 C   0  0  0  0  0  0  0  0  0  0  0  0
   46.1980   33.7950   43.6960 C   0  0  0  0  0  0  0  0  0  0  0  0
   45.5810   33.9930   44.8830 N   0  0  0  0  0  0  0  0  0  0  0  0
   44.8920   35.1510   45.1110 C   0  0  0  0  0  0  0  0  0  0  0  0
   44.8320   36.0760   44.1680 N   0  0  0  0  0  0  0  0  0  0  0  0
   50.4830   34.1880   42.2770 O   0  0  0  0  0  0  0  0  0  0  0  0
   49.0940   32.0650   42.7370 O   0  0  0  0  0  0  0  0  0  0  0  0
   50.4310   32.4900   42.1590 P   0  0  2  0  0  0  0  0  0  0  0  0
   51.7100   31.7470   42.9240 O   0  0  0  0  0  0  0  0  0  0  0  0
   50.3640   32.0870   40.4970 O   0  0  0  0  0  0  0  0  0  0  0  0
   49.0220   29.5870   39.8140 Cl  0  0  0  0  0  0  0  0  0  0  0  0
   50.6950   30.0090   39.4770 C   0  0  0  0  0  0  0  0  0  0  0  0
   51.2260   31.2380   39.8540 C   0  0  0  0  0  0  0  0  0  0  0  0
   52.5480   31.4760   39.5450 C   0  0  0  0  0  0  0  0  0  0  0  0
   53.3350   30.5480   38.8910 C   0  0  0  0  0  0  0  0  0  0  0  0
   52.8170   29.3150   38.5100 C   0  0  0  0  0  0  0  0  0  0  0  0
   53.7610   28.1060   37.6820 Cl  0  0  0  0  0  0  0  0  0  0  0  0
   51.4790   29.0820   38.8240 C   0  0  0  0  0  0  0  0  0  0  0  0
   48.2485   33.9371   40.3388 H   0  0  0  0  0  0  0  0  0  0  0  0
   49.6944   36.4202   41.1733 H   0  0  0  0  0  0  0  0  0  0  0  0
   48.5354   36.8995   42.0803 H   0  0  0  0  0  0  0  0  0  0  0  0
   49.0444   34.1991   43.3974 H   0  0  0  0  0  0  0  0  0  0  0  0
   45.3707   36.7104   42.1927 H   0  0  0  0  0  0  0  0  0  0  0  0
   46.7510   32.8609   43.5180 H   0  0  0  0  0  0  0  0  0  0  0  0
   44.3890   35.3130   46.0758 H   0  0  0  0  0  0  0  0  0  0  0  0
   51.5927   31.8151   43.9047 H   0  0  0  0  0  0  0  0  0  0  0  0
   52.9929   32.4408   39.8298 H   0  0  0  0  0  0  0  0  0  0  0  0
   54.3853   30.7875   38.6687 H   0  0  0  0  0  0  0  0  0  0  0  0
   51.0303   28.1189   38.5390 H   0  0  0  0  0  0  0  0  0  0  0  0
  1  4  1  0
  1  2  1  0
  1  3  1  0
  2  3  1  0
  4  7  1  0
  5  4  2  0
  6 11  2  0
  7  6  1  0
  7  8  2  0
  8  9  1  0
  9 10  2  0
 11 10  1  0
 12  3  1  0
 14 12  1  0
 14 13  2  0
 14 15  1  0
 16 14  1  0
 18 17  1  0
 18 19  2  0
 19 16  1  0
 20 19  1  0
 21 20  2  0
 22 24  2  0
 22 21  1  0
 23 22  1  0
 24 18  1  0
  1 25  1  6
  2 26  1  0
  2 27  1  0
  3 28  1  1
  6 29  1  0
  8 30  1  0
 10 31  1  0
 15 32  1  0
 20 33  1  0
 21 34  1  0
 24 35  1  0
M  ISO  8  25  13  26  13  27  13  28  13  29  14  30  14  31  14  32   3
M  ISO  3  33  14  34  14  35  14
M  END
>  <minimizedAffinity>  (1) 
-4.99809217

>  <minimizedRMSD>  (1) 
2.07687974

$$$$
