
     RDKit          3D

 33 35  0  0  0  0  0  0  0  0999 V2000
   45.5970   34.5890   41.7080 C   0  0  0  0  0  0  0  0  0  0  0  0
   44.2120   34.5970   41.1480 C   0  0  0  0  0  0  0  0  0  0  0  0
   43.3280   35.6850   41.4590 C   0  0  0  0  0  0  0  0  0  0  0  0
   41.7950   35.1840   40.5300 S   0  0  0  0  0  0  0  0  0  0  0  0
   42.6370   33.6250   39.9130 C   0  0  0  0  0  0  0  0  0  0  0  0
   43.6740   33.6840   40.3700 N   0  0  0  0  0  0  0  0  0  0  0  0
   41.9170   32.6850   39.0440 C   0  0  0  0  0  0  0  0  0  0  0  0
   42.5490   31.9610   38.0840 C   0  0  0  0  0  0  0  0  0  0  0  0
   41.8280   31.0900   37.2920 C   0  0  0  0  0  0  0  0  0  0  0  0
   40.4670   30.9360   37.4540 C   0  0  0  0  0  0  0  0  0  0  0  0
   39.7770   31.6500   38.4170 C   0  0  0  0  0  0  0  0  0  0  0  0
   40.5380   32.5070   39.1850 C   0  0  0  0  0  0  0  0  0  0  0  0
   46.6600   34.2440   40.7280 C   0  0  0  0  0  0  0  0  0  0  0  0
   48.0150   34.1830   41.3190 C   0  0  0  0  0  0  0  0  0  0  0  0
   48.7120   32.9810   41.1530 C   0  0  0  0  0  0  0  0  0  0  0  0
   49.9890   32.8400   41.6710 C   0  0  0  0  0  0  0  0  0  0  0  0
   50.5120   33.9220   42.3390 N   0  0  0  0  0  0  0  0  0  0  0  0
   49.8170   35.0570   42.4780 C   0  0  0  0  0  0  0  0  0  0  0  0
   48.5850   35.1850   41.9760 N   0  0  0  0  0  0  0  0  0  0  0  0
   47.9570   31.6050   40.2660 S   0  0  0  0  0  0  0  0  0  0  0  0
   45.8111   35.5913   42.1074 H   0  0  0  0  0  0  0  0  0  0  0  0
   45.6168   33.8037   42.4780 H   0  0  0  0  0  0  0  0  0  0  0  0
   43.5083   36.5752   42.0795 H   0  0  0  0  0  0  0  0  0  0  0  0
   43.6339   32.0686   37.9379 H   0  0  0  0  0  0  0  0  0  0  0  0
   42.3486   30.5080   36.5173 H   0  0  0  0  0  0  0  0  0  0  0  0
   39.9212   30.2338   36.8067 H   0  0  0  0  0  0  0  0  0  0  0  0
   38.6919   31.5415   38.5611 H   0  0  0  0  0  0  0  0  0  0  0  0
   40.0235   33.0909   39.9625 H   0  0  0  0  0  0  0  0  0  0  0  0
   46.6611   35.0054   39.9341 H   0  0  0  0  0  0  0  0  0  0  0  0
   46.4304   33.2389   40.3444 H   0  0  0  0  0  0  0  0  0  0  0  0
   50.5581   31.9060   41.5534 H   0  0  0  0  0  0  0  0  0  0  0  0
   50.2693   35.9026   43.0169 H   0  0  0  0  0  0  0  0  0  0  0  0
   47.4601   30.6993   41.1658 H   0  0  0  0  0  0  0  0  0  0  0  0
  2  3  2  0
  2  1  1  0
  4  3  1  0
  5  6  2  0
  5  4  1  0
  6  2  1  0
  7 12  1  0
  7  5  1  0
  8  7  2  0
  9 10  2  0
  9  8  1  0
 10 11  1  0
 11 12  2  0
 13 14  1  0
 13  1  1  0
 14 19  1  0
 15 14  2  0
 15 16  1  0
 16 17  2  0
 17 18  1  0
 19 18  2  0
 20 15  1  0
  1 21  1  0
  1 22  1  0
  3 23  1  0
  8 24  1  0
  9 25  1  0
 10 26  1  0
 11 27  1  0
 12 28  1  0
 13 29  1  0
 13 30  1  0
 16 31  1  0
 18 32  1  0
 20 33  1  0
M  ISO  8  21   8  22   8  23  14  24  14  25  14  26  14  27  14  28  14
M  ISO  5  29   8  30   8  31  14  32  14  33  11
M  END
>  <minimizedAffinity>  (1) 
-4.3835988

>  <minimizedRMSD>  (1) 
1.02531826

$$$$
