
     RDKit          3D

 32 34  0  0  0  0  0  0  0  0999 V2000
   45.8770   34.6230   41.7120 C   0  0  0  0  0  0  0  0  0  0  0  0
   44.4830   34.6140   41.1930 C   0  0  0  0  0  0  0  0  0  0  0  0
   43.5800   35.6670   41.5640 C   0  0  0  0  0  0  0  0  0  0  0  0
   42.0320   35.1630   40.6630 S   0  0  0  0  0  0  0  0  0  0  0  0
   42.9020   33.6430   39.9670 C   0  0  0  0  0  0  0  0  0  0  0  0
   43.9490   33.7160   40.3990 N   0  0  0  0  0  0  0  0  0  0  0  0
   42.1980   32.6780   39.0660 C   0  0  0  0  0  0  0  0  0  0  0  0
   42.9380   32.0890   38.0630 C   0  0  0  0  0  0  0  0  0  0  0  0
   42.2540   31.2090   37.2570 C   0  0  0  0  0  0  0  0  0  0  0  0
   40.9200   30.9630   37.4740 C   0  0  0  0  0  0  0  0  0  0  0  0
   40.2200   31.5780   38.4920 C   0  0  0  0  0  0  0  0  0  0  0  0
   40.9080   32.4360   39.2690 N   0  0  0  0  0  0  0  0  0  0  0  0
   46.9230   34.2530   40.7240 C   0  0  0  0  0  0  0  0  0  0  0  0
   48.2670   34.0720   41.3160 C   0  0  0  0  0  0  0  0  0  0  0  0
   48.9310   32.8670   41.0340 C   0  0  0  0  0  0  0  0  0  0  0  0
   50.1850   32.6350   41.5530 C   0  0  0  0  0  0  0  0  0  0  0  0
   50.7430   33.6020   42.3330 N   0  0  0  0  0  0  0  0  0  0  0  0
   50.0790   34.7530   42.5880 C   0  0  0  0  0  0  0  0  0  0  0  0
   48.8630   34.9760   42.0840 N   0  0  0  0  0  0  0  0  0  0  0  0
   48.1450   31.6240   39.9960 S   0  0  0  0  0  0  0  0  0  0  0  0
   46.0975   35.6369   42.0772 H   0  0  0  0  0  0  0  0  0  0  0  0
   45.9146   33.8545   42.4981 H   0  0  0  0  0  0  0  0  0  0  0  0
   43.7565   36.5400   42.2096 H   0  0  0  0  0  0  0  0  0  0  0  0
   44.0059   32.3085   37.9168 H   0  0  0  0  0  0  0  0  0  0  0  0
   42.7777   30.6997   36.4346 H   0  0  0  0  0  0  0  0  0  0  0  0
   40.3941   30.2548   36.8168 H   0  0  0  0  0  0  0  0  0  0  0  0
   39.1517   31.3770   38.6605 H   0  0  0  0  0  0  0  0  0  0  0  0
   46.9819   35.0489   39.9670 H   0  0  0  0  0  0  0  0  0  0  0  0
   46.6292   33.2839   40.2944 H   0  0  0  0  0  0  0  0  0  0  0  0
   50.7200   31.6969   41.3440 H   0  0  0  0  0  0  0  0  0  0  0  0
   50.5496   35.5189   43.2220 H   0  0  0  0  0  0  0  0  0  0  0  0
   47.5475   30.6791   40.7879 H   0  0  0  0  0  0  0  0  0  0  0  0
  2  3  2  0
  2  1  1  0
  4  3  1  0
  5  6  2  0
  5  4  1  0
  6  2  1  0
  7 12  1  0
  7  5  1  0
  8  7  2  0
  9 10  2  0
  9  8  1  0
 10 11  1  0
 11 12  2  0
 13 14  1  0
 13  1  1  0
 14 19  1  0
 15 14  2  0
 15 16  1  0
 16 17  2  0
 17 18  1  0
 19 18  2  0
 20 15  1  0
  1 21  1  0
  1 22  1  0
  3 23  1  0
  8 24  1  0
  9 25  1  0
 10 26  1  0
 11 27  1  0
 13 28  1  0
 13 29  1  0
 16 30  1  0
 18 31  1  0
 20 32  1  0
M  ISO  8  21   8  22   8  23  14  24  14  25  14  26  14  27  14  28   8
M  ISO  4  29   8  30  14  31  14  32  11
M  END
>  <minimizedAffinity>  (1) 
-4.30955267

>  <minimizedRMSD>  (1) 
0.929307342

$$$$
