
     RDKit          3D

 27 28  0  0  0  0  0  0  0  0999 V2000
   45.5510   34.5900   41.8510 C   0  0  0  0  0  0  0  0  0  0  0  0
   44.1770   34.8020   41.3020 C   0  0  0  0  0  0  0  0  0  0  0  0
   43.1520   35.3600   42.1310 C   0  0  0  0  0  0  0  0  0  0  0  0
   41.6930   35.4020   40.9860 S   0  0  0  0  0  0  0  0  0  0  0  0
   42.7410   34.6560   39.5950 C   0  0  0  0  0  0  0  0  0  0  0  0
   43.7580   34.5280   40.0880 N   0  0  0  0  0  0  0  0  0  0  0  0
   40.8950   34.6920   38.0890 C   0  0  0  0  0  0  0  0  0  0  0  0
   40.2370   35.1870   39.0420 O   0  0  0  0  0  0  0  0  0  0  0  0
   42.2760   34.3570   38.2610 N   0  0  0  0  0  0  0  0  0  0  0  0
   46.5830   34.2930   40.8090 C   0  0  0  0  0  0  0  0  0  0  0  0
   47.9540   34.2050   41.3520 C   0  0  0  0  0  0  0  0  0  0  0  0
   48.6480   33.0090   41.1350 C   0  0  0  0  0  0  0  0  0  0  0  0
   49.9370   32.8630   41.6200 C   0  0  0  0  0  0  0  0  0  0  0  0
   50.4860   33.9190   42.3030 N   0  0  0  0  0  0  0  0  0  0  0  0
   49.7880   35.0560   42.4930 C   0  0  0  0  0  0  0  0  0  0  0  0
   48.5490   35.1840   42.0210 N   0  0  0  0  0  0  0  0  0  0  0  0
   47.8680   31.6590   40.2290 S   0  0  0  0  0  0  0  0  0  0  0  0
   45.8535   35.5012   42.3878 H   0  0  0  0  0  0  0  0  0  0  0  0
   45.4991   33.7093   42.5080 H   0  0  0  0  0  0  0  0  0  0  0  0
   43.2138   35.6822   43.1809 H   0  0  0  0  0  0  0  0  0  0  0  0
   40.4059   34.5162   37.1195 H   0  0  0  0  0  0  0  0  0  0  0  0
   42.8673   33.9512   37.5217 H   0  0  0  0  0  0  0  0  0  0  0  0
   46.5572   35.0928   40.0543 H   0  0  0  0  0  0  0  0  0  0  0  0
   46.3390   33.3099   40.3801 H   0  0  0  0  0  0  0  0  0  0  0  0
   50.5016   31.9321   41.4630 H   0  0  0  0  0  0  0  0  0  0  0  0
   50.2474   35.8892   43.0450 H   0  0  0  0  0  0  0  0  0  0  0  0
   47.3458   30.7552   41.1164 H   0  0  0  0  0  0  0  0  0  0  0  0
  2  1  1  0
  2  3  2  0
  4  3  1  0
  5  6  2  0
  5  4  1  0
  6  2  1  0
  7  9  1  0
  7  8  2  0
  9  5  1  0
 10 11  1  0
 10  1  1  0
 11 16  1  0
 12 11  2  0
 12 13  1  0
 13 14  2  0
 14 15  1  0
 16 15  2  0
 17 12  1  0
  1 18  1  0
  1 19  1  0
  3 20  1  0
  7 21  1  0
  9 22  1  0
 10 23  1  0
 10 24  1  0
 13 25  1  0
 15 26  1  0
 17 27  1  0
M  ISO  8  18   8  19   8  20  14  21   6  23   8  24   8  25  14  26  14
M  ISO  1  27  11
M  END
>  <minimizedAffinity>  (1) 
-4.4963603

>  <minimizedRMSD>  (1) 
0.435602635

$$$$
