
     RDKit          3D

 29 30  0  0  0  0  0  0  0  0999 V2000
   46.6350   34.2960   40.8690 C   0  0  0  0  0  0  0  0  0  0  0  0
   48.0220   34.1530   41.3930 C   0  0  0  0  0  0  0  0  0  0  0  0
   48.6670   32.9490   41.1160 C   0  0  0  0  0  0  0  0  0  0  0  0
   49.9670   32.7580   41.5790 C   0  0  0  0  0  0  0  0  0  0  0  0
   50.5560   33.7590   42.2850 N   0  0  0  0  0  0  0  0  0  0  0  0
   49.8900   34.9120   42.5300 C   0  0  0  0  0  0  0  0  0  0  0  0
   48.6580   35.0880   42.0890 N   0  0  0  0  0  0  0  0  0  0  0  0
   47.8320   31.6580   40.1740 S   0  0  0  0  0  0  0  0  0  0  0  0
   45.6470   34.6470   41.9160 C   0  0  0  0  0  0  0  0  0  0  0  0
   44.2630   34.8640   41.4460 C   0  0  0  0  0  0  0  0  0  0  0  0
   43.2620   35.3970   42.3140 C   0  0  0  0  0  0  0  0  0  0  0  0
   41.7620   35.4380   41.2210 S   0  0  0  0  0  0  0  0  0  0  0  0
   42.7680   34.7270   39.7970 C   0  0  0  0  0  0  0  0  0  0  0  0
   43.7950   34.6060   40.2480 N   0  0  0  0  0  0  0  0  0  0  0  0
   41.9900   34.5130   38.4860 C   0  0  0  0  0  0  0  0  0  0  0  0
   41.4850   35.8280   37.9550 C   0  0  0  0  0  0  0  0  0  0  0  0
   46.6302   35.0872   40.1049 H   0  0  0  0  0  0  0  0  0  0  0  0
   46.3400   33.3199   40.4563 H   0  0  0  0  0  0  0  0  0  0  0  0
   50.5041   31.8193   41.3780 H   0  0  0  0  0  0  0  0  0  0  0  0
   50.3813   35.7119   43.1034 H   0  0  0  0  0  0  0  0  0  0  0  0
   47.2541   30.7644   41.0368 H   0  0  0  0  0  0  0  0  0  0  0  0
   45.6295   33.8293   42.6516 H   0  0  0  0  0  0  0  0  0  0  0  0
   45.9778   35.6118   42.3281 H   0  0  0  0  0  0  0  0  0  0  0  0
   43.3561   35.7056   43.3656 H   0  0  0  0  0  0  0  0  0  0  0  0
   42.6553   34.0526   37.7407 H   0  0  0  0  0  0  0  0  0  0  0  0
   41.1313   33.8546   38.6840 H   0  0  0  0  0  0  0  0  0  0  0  0
   41.2309   36.4898   38.7961 H   0  0  0  0  0  0  0  0  0  0  0  0
   42.2660   36.2995   37.3404 H   0  0  0  0  0  0  0  0  0  0  0  0
   40.5891   35.6556   37.3404 H   0  0  0  0  0  0  0  0  0  0  0  0
  1  2  1  0
  1  9  1  0
  2  7  1  0
  3  2  2  0
  3  4  1  0
  4  5  2  0
  5  6  1  0
  7  6  2  0
  8  3  1  0
 10  9  1  0
 10 11  2  0
 12 11  1  0
 13 14  2  0
 13 12  1  0
 14 10  1  0
 15 13  1  0
 16 15  1  0
  1 17  1  0
  1 18  1  0
  4 19  1  0
  6 20  1  0
  8 21  1  0
  9 22  1  0
  9 23  1  0
 11 24  1  0
 15 25  1  0
 15 26  1  0
 16 27  1  0
 16 28  1  0
 16 29  1  0
M  ISO  8  17   8  18   8  19  14  20  14  21  11  22   8  23   8  24  14
M  ISO  5  25   8  26   8  27   8  28   8  29   8
M  END
>  <minimizedAffinity>  (1) 
-4.10310602

>  <minimizedRMSD>  (1) 
0.611508787

$$$$
