
     RDKit          3D

 18 19  0  0  1  0  0  0  0  0999 V2000
   45.8180   35.7690   42.9410 C   0  0  0  0  0  0  0  0  0  0  0  0
   46.5840   34.6300   43.2310 C   0  0  0  0  0  0  0  0  0  0  0  0
   46.2860   33.9280   44.3920 C   0  0  0  0  0  0  0  0  0  0  0  0
   45.2640   34.3770   45.1960 N   0  0  0  0  0  0  0  0  0  0  0  0
   44.5460   35.4800   44.8840 C   0  0  0  0  0  0  0  0  0  0  0  0
   44.8330   36.1750   43.7460 N   0  0  0  0  0  0  0  0  0  0  0  0
   47.6920   34.1580   42.3560 C   0  0  1  0  0  0  0  0  0  0  0  0
   48.3890   35.1210   41.5040 C   0  0  0  0  0  0  0  0  0  0  0  0
   49.1060   34.5640   42.6930 C   0  0  2  0  0  0  0  0  0  0  0  0
   50.4710   33.4540   42.2800 S   0  0  0  0  0  0  0  0  0  0  0  0
   46.0343   36.3421   42.0274 H   0  0  0  0  0  0  0  0  0  0  0  0
   46.8575   33.0283   44.6639 H   0  0  0  0  0  0  0  0  0  0  0  0
   43.7336   35.8153   45.5456 H   0  0  0  0  0  0  0  0  0  0  0  0
   47.1778   33.2016   42.1804 H   0  0  0  0  0  0  0  0  0  0  0  0
   48.7017   34.8280   40.4909 H   0  0  0  0  0  0  0  0  0  0  0  0
   48.1643   36.1368   41.1467 H   0  0  0  0  0  0  0  0  0  0  0  0
   49.5904   34.9385   43.6068 H   0  0  0  0  0  0  0  0  0  0  0  0
   51.0449   32.9873   43.4331 H   0  0  0  0  0  0  0  0  0  0  0  0
  1  2  2  0
  1  6  1  0
  2  3  1  0
  3  4  2  0
  5  4  1  0
  6  5  2  0
  7  9  1  0
  7  2  1  0
  8  7  1  0
  8  9  1  0
 10  9  1  0
  1 11  1  0
  3 12  1  0
  5 13  1  0
  7 14  1  6
  8 15  1  0
  8 16  1  0
  9 17  1  1
 10 18  1  0
M  ISO  8  11  14  12  14  13  14  14  13  15  13  16  13  17  13  18  11
M  END
>  <minimizedAffinity>  (1) 
-3.79413557

>  <minimizedRMSD>  (1) 
0.958127558

$$$$
