
     RDKit          3D

 38 40  0  0  0  0  0  0  0  0999 V2000
   47.4480   34.6100   40.8640 C   0  0  0  0  0  0  0  0  0  0  0  0
   48.6890   33.9180   41.2260 C   0  0  0  0  0  0  0  0  0  0  0  0
   48.9240   32.7140   40.5850 C   0  0  0  0  0  0  0  0  0  0  0  0
   50.0560   31.9430   40.8220 C   0  0  0  0  0  0  0  0  0  0  0  0
   50.9420   32.4570   41.7480 N   0  0  0  0  0  0  0  0  0  0  0  0
   50.6860   33.6330   42.3570 C   0  0  0  0  0  0  0  0  0  0  0  0
   49.5890   34.3300   42.0920 N   0  0  0  0  0  0  0  0  0  0  0  0
   47.7440   32.0790   39.3570 S   0  0  0  0  0  0  0  0  0  0  0  0
   46.2910   31.4430   40.1410 C   0  0  0  0  0  0  0  0  0  0  0  0
   46.0910   31.2180   41.5000 C   0  0  0  0  0  0  0  0  0  0  0  0
   44.8820   30.7140   41.9230 C   0  0  0  0  0  0  0  0  0  0  0  0
   43.8480   30.4180   41.0550 C   0  0  0  0  0  0  0  0  0  0  0  0
   44.1010   30.6610   39.7210 C   0  0  0  0  0  0  0  0  0  0  0  0
   45.2890   31.1590   39.2700 N   0  0  0  0  0  0  0  0  0  0  0  0
   46.6290   34.9780   42.0620 C   0  0  0  0  0  0  0  0  0  0  0  0
   45.1610   34.9380   41.8070 C   0  0  0  0  0  0  0  0  0  0  0  0
   44.2620   35.5120   42.7660 C   0  0  0  0  0  0  0  0  0  0  0  0
   42.6160   35.2160   42.0130 S   0  0  0  0  0  0  0  0  0  0  0  0
   43.4270   34.3610   40.5190 C   0  0  0  0  0  0  0  0  0  0  0  0
   44.5350   34.4290   40.7800 N   0  0  0  0  0  0  0  0  0  0  0  0
   42.6970   33.8320   39.4410 O   0  0  0  0  0  0  0  0  0  0  0  0
   40.6880   34.1750   37.7470 O   0  0  0  0  0  0  0  0  0  0  0  0
   41.7400   34.9240   38.5540 P   0  0  0  0  0  0  0  0  0  0  0  0
   40.9810   35.9690   39.6410 O   0  0  0  0  0  0  0  0  0  0  0  0
   42.7360   35.8390   37.5280 O   0  0  0  0  0  0  0  0  0  0  0  0
   47.7030   35.5284   40.3148 H   0  0  0  0  0  0  0  0  0  0  0  0
   46.8495   33.9240   40.2466 H   0  0  0  0  0  0  0  0  0  0  0  0
   50.2340   30.9877   40.3066 H   0  0  0  0  0  0  0  0  0  0  0  0
   51.4051   34.0239   43.0919 H   0  0  0  0  0  0  0  0  0  0  0  0
   46.8876   31.4398   42.2254 H   0  0  0  0  0  0  0  0  0  0  0  0
   44.7323   30.5392   42.9987 H   0  0  0  0  0  0  0  0  0  0  0  0
   42.8862   30.0150   41.4051 H   0  0  0  0  0  0  0  0  0  0  0  0
   43.3101   30.4437   38.9880 H   0  0  0  0  0  0  0  0  0  0  0  0
   46.8617   34.2733   42.8740 H   0  0  0  0  0  0  0  0  0  0  0  0
   46.8858   36.0144   42.3266 H   0  0  0  0  0  0  0  0  0  0  0  0
   44.5009   36.0077   43.7185 H   0  0  0  0  0  0  0  0  0  0  0  0
   41.1858   35.6870   40.5676 H   0  0  0  0  0  0  0  0  0  0  0  0
   43.3450   36.3985   38.0722 H   0  0  0  0  0  0  0  0  0  0  0  0
  1  2  1  0
  1 15  1  0
  2  7  2  0
  3  4  2  0
  3  2  1  0
  4  5  1  0
  5  6  2  0
  7  6  1  0
  8  9  1  0
  8  3  1  0
  9 10  2  0
 10 11  1  0
 12 11  2  0
 13 12  1  0
 14 13  2  0
 14  9  1  0
 16 15  1  0
 16 17  2  0
 18 17  1  0
 19 20  2  0
 19 18  1  0
 20 16  1  0
 21 19  1  0
 22 23  2  0
 23 21  1  0
 23 24  1  0
 25 23  1  0
  1 26  1  0
  1 27  1  0
  4 28  1  0
  6 29  1  0
 10 30  1  0
 11 31  1  0
 12 32  1  0
 13 33  1  0
 15 34  1  0
 15 35  1  0
 17 36  1  0
 24 37  1  0
 25 38  1  0
M  ISO  8  26   8  27   8  28  14  29  14  30  14  31  14  32  14  33  14
M  ISO  5  34   8  35   8  36  14  37   3  38   3
M  END
>  <minimizedAffinity>  (1) 
-4.42910194

>  <minimizedRMSD>  (1) 
1.12509251

$$$$
