
     RDKit          3D

 37 38  0  0  0  0  0  0  0  0999 V2000
   47.5250   34.4400   40.7720 C   0  0  0  0  0  0  0  0  0  0  0  0
   48.7810   33.7640   41.1310 C   0  0  0  0  0  0  0  0  0  0  0  0
   49.1060   32.6250   40.4140 C   0  0  0  0  0  0  0  0  0  0  0  0
   50.2650   31.9240   40.6780 C   0  0  0  0  0  0  0  0  0  0  0  0
   51.0720   32.4220   41.6930 N   0  0  0  0  0  0  0  0  0  0  0  0
   50.7120   33.5440   42.3690 C   0  0  0  0  0  0  0  0  0  0  0  0
   49.5900   34.1900   42.0850 N   0  0  0  0  0  0  0  0  0  0  0  0
   48.0140   32.0440   39.1200 S   0  0  0  0  0  0  0  0  0  0  0  0
   48.8300   32.1680   37.5090 C   0  0  0  0  0  0  0  0  0  0  0  0
   48.4910   33.4970   36.8920 C   0  0  0  0  0  0  0  0  0  0  0  0
   48.1920   33.2930   35.5080 N   0  0  0  0  0  0  0  0  0  0  0  0
   46.7490   34.9530   41.9450 C   0  0  0  0  0  0  0  0  0  0  0  0
   45.2820   34.9400   41.7500 C   0  0  0  0  0  0  0  0  0  0  0  0
   44.4400   35.6080   42.6850 C   0  0  0  0  0  0  0  0  0  0  0  0
   42.7590   35.3120   42.0250 S   0  0  0  0  0  0  0  0  0  0  0  0
   43.4840   34.3160   40.5660 C   0  0  0  0  0  0  0  0  0  0  0  0
   44.6020   34.3750   40.7910 N   0  0  0  0  0  0  0  0  0  0  0  0
   42.6990   33.7360   39.5720 O   0  0  0  0  0  0  0  0  0  0  0  0
   40.7490   33.9820   37.7990 O   0  0  0  0  0  0  0  0  0  0  0  0
   41.7740   34.7800   38.6070 P   0  0  0  0  0  0  0  0  0  0  0  0
   40.9340   35.8420   39.6370 O   0  0  0  0  0  0  0  0  0  0  0  0
   42.7840   35.6960   37.6050 O   0  0  0  0  0  0  0  0  0  0  0  0
   47.7657   35.2913   40.1183 H   0  0  0  0  0  0  0  0  0  0  0  0
   46.8915   33.6893   40.2769 H   0  0  0  0  0  0  0  0  0  0  0  0
   50.5354   31.0188   40.1145 H   0  0  0  0  0  0  0  0  0  0  0  0
   51.3650   33.9242   43.1684 H   0  0  0  0  0  0  0  0  0  0  0  0
   49.9193   32.0888   37.6398 H   0  0  0  0  0  0  0  0  0  0  0  0
   48.4861   31.3543   36.8535 H   0  0  0  0  0  0  0  0  0  0  0  0
   47.6168   33.9297   37.4004 H   0  0  0  0  0  0  0  0  0  0  0  0
   49.3407   34.1879   36.9957 H   0  0  0  0  0  0  0  0  0  0  0  0
   47.3442   32.7145   35.4216 H   0  0  0  0  0  0  0  0  0  0  0  0
   48.0343   34.2035   35.0530 H   0  0  0  0  0  0  0  0  0  0  0  0
   46.9873   34.3270   42.8176 H   0  0  0  0  0  0  0  0  0  0  0  0
   47.0417   36.0042   42.0844 H   0  0  0  0  0  0  0  0  0  0  0  0
   44.7304   36.1672   43.5867 H   0  0  0  0  0  0  0  0  0  0  0  0
   41.1216   35.6048   40.5797 H   0  0  0  0  0  0  0  0  0  0  0  0
   43.3904   36.2460   38.1617 H   0  0  0  0  0  0  0  0  0  0  0  0
  1  2  1  0
  1 12  1  0
  2  7  2  0
  3  4  2  0
  3  2  1  0
  4  5  1  0
  5  6  2  0
  7  6  1  0
  8  3  1  0
  9  8  1  0
 10  9  1  0
 11 10  1  0
 13 12  1  0
 13 14  2  0
 15 14  1  0
 16 17  2  0
 16 15  1  0
 17 13  1  0
 18 16  1  0
 19 20  2  0
 20 18  1  0
 20 21  1  0
 22 20  1  0
  1 23  1  0
  1 24  1  0
  4 25  1  0
  6 26  1  0
  9 27  1  0
  9 28  1  0
 10 29  1  0
 10 30  1  0
 11 31  1  0
 11 32  1  0
 12 33  1  0
 12 34  1  0
 14 35  1  0
 21 36  1  0
 22 37  1  0
M  ISO  8  23   8  24   8  25  14  26  14  27   8  28   8  29   8  30   8
M  ISO  7  31   5  32   5  33   8  34   8  35  14  36   3  37   3
M  END
>  <minimizedAffinity>  (1) 
-4.65087605

>  <minimizedRMSD>  (1) 
0.514831841

$$$$
