
     RDKit          3D

 27 28  0  0  1  0  0  0  0  0999 V2000
   47.0230   34.9450   42.1220 C   0  0  2  0  0  0  0  0  0  0  0  0
   46.4200   34.2360   40.9500 C   0  0  0  0  0  0  0  0  0  0  0  0
   47.6320   34.1870   40.0260 C   0  0  0  0  0  0  0  0  0  0  0  0
   48.8200   34.0480   40.9450 C   0  0  1  0  0  0  0  0  0  0  0  0
   48.2590   34.0690   42.3640 C   0  0  0  0  0  0  0  0  0  0  0  0
   44.4440   35.9760   44.6800 C   0  0  0  0  0  0  0  0  0  0  0  0
   45.2070   36.0280   43.4980 C   0  0  0  0  0  0  0  0  0  0  0  0
   46.1550   35.0300   43.3140 C   0  0  0  0  0  0  0  0  0  0  0  0
   46.2930   34.0650   44.2810 N   0  0  0  0  0  0  0  0  0  0  0  0
   45.5490   34.0460   45.3960 C   0  0  0  0  0  0  0  0  0  0  0  0
   44.6310   34.9890   45.6020 N   0  0  0  0  0  0  0  0  0  0  0  0
   50.6890   32.4510   41.3670 C   0  0  0  0  0  0  0  0  0  0  0  0
   51.2290   33.2380   42.1760 O   0  0  0  0  0  0  0  0  0  0  0  0
   49.4690   32.7690   40.6930 N   0  0  0  0  0  0  0  0  0  0  0  0
   47.2223   36.0089   41.9262 H   0  0  0  0  0  0  0  0  0  0  0  0
   46.0685   33.2286   41.2177 H   0  0  0  0  0  0  0  0  0  0  0  0
   45.5280   34.7176   40.5229 H   0  0  0  0  0  0  0  0  0  0  0  0
   47.7059   35.1126   39.4363 H   0  0  0  0  0  0  0  0  0  0  0  0
   47.5684   33.3581   39.3057 H   0  0  0  0  0  0  0  0  0  0  0  0
   49.5569   34.8502   40.7918 H   0  0  0  0  0  0  0  0  0  0  0  0
   48.9582   34.5305   43.0769 H   0  0  0  0  0  0  0  0  0  0  0  0
   48.0595   33.0825   42.8079 H   0  0  0  0  0  0  0  0  0  0  0  0
   43.6815   36.7473   44.8635 H   0  0  0  0  0  0  0  0  0  0  0  0
   45.0588   36.8238   42.7532 H   0  0  0  0  0  0  0  0  0  0  0  0
   45.6967   33.2508   46.1416 H   0  0  0  0  0  0  0  0  0  0  0  0
   51.1692   31.4816   41.1676 H   0  0  0  0  0  0  0  0  0  0  0  0
   49.0515   32.0974   40.0330 H   0  0  0  0  0  0  0  0  0  0  0  0
  1  5  1  0
  1  8  1  0
  2  1  1  0
  3  4  1  0
  3  2  1  0
  4  5  1  0
  6 11  2  0
  7  6  1  0
  8  7  2  0
  8  9  1  0
  9 10  2  0
 10 11  1  0
 12 13  2  0
 14  4  1  0
 14 12  1  0
  1 15  1  6
  2 16  1  0
  2 17  1  0
  3 18  1  0
  3 19  1  0
  4 20  1  1
  5 21  1  0
  5 22  1  0
  6 23  1  0
  7 24  1  0
 10 25  1  0
 12 26  1  0
 14 27  1  0
M  ISO  8  15  13  16  13  17  13  18  13  19  13  20  13  21  13  22  13
M  ISO  4  23  14  24  14  25  14  26   6
M  END
>  <minimizedAffinity>  (1) 
-4.68661356

>  <minimizedRMSD>  (1) 
1.39244103

$$$$
