
     RDKit          3D

 26 27  0  0  1  0  0  0  0  0999 V2000
   46.9050   34.9400   42.0580 C   0  0  2  0  0  0  0  0  0  0  0  0
   46.2790   34.1970   40.9210 C   0  0  0  0  0  0  0  0  0  0  0  0
   47.4770   34.1660   39.9600 C   0  0  0  0  0  0  0  0  0  0  0  0
   48.6810   34.0270   40.8470 C   0  0  1  0  0  0  0  0  0  0  0  0
   48.1760   34.1280   42.2710 C   0  0  0  0  0  0  0  0  0  0  0  0
   44.4540   35.9970   44.7220 C   0  0  0  0  0  0  0  0  0  0  0  0
   45.1650   36.0520   43.5040 C   0  0  0  0  0  0  0  0  0  0  0  0
   46.0910   35.0440   43.2770 C   0  0  0  0  0  0  0  0  0  0  0  0
   46.2670   34.0620   44.2340 N   0  0  0  0  0  0  0  0  0  0  0  0
   45.5610   34.0570   45.3830 C   0  0  0  0  0  0  0  0  0  0  0  0
   44.6630   35.0070   45.6350 N   0  0  0  0  0  0  0  0  0  0  0  0
   49.2600   32.6450   40.6250 C   0  0  0  0  0  0  0  0  0  0  0  0
   47.0582   36.0043   41.8259 H   0  0  0  0  0  0  0  0  0  0  0  0
   45.9609   33.1860   41.2152 H   0  0  0  0  0  0  0  0  0  0  0  0
   45.3599   34.6443   40.5145 H   0  0  0  0  0  0  0  0  0  0  0  0
   47.5306   35.0980   39.3782 H   0  0  0  0  0  0  0  0  0  0  0  0
   47.4024   33.3449   39.2318 H   0  0  0  0  0  0  0  0  0  0  0  0
   49.4449   34.7911   40.6408 H   0  0  0  0  0  0  0  0  0  0  0  0
   48.8912   34.6558   42.9190 H   0  0  0  0  0  0  0  0  0  0  0  0
   48.0235   33.1611   42.7729 H   0  0  0  0  0  0  0  0  0  0  0  0
   43.7091   36.7763   44.9408 H   0  0  0  0  0  0  0  0  0  0  0  0
   44.9935   36.8542   42.7711 H   0  0  0  0  0  0  0  0  0  0  0  0
   45.7291   33.2585   46.1207 H   0  0  0  0  0  0  0  0  0  0  0  0
   49.4589   32.1703   41.5972 H   0  0  0  0  0  0  0  0  0  0  0  0
   48.5424   32.0335   40.0583 H   0  0  0  0  0  0  0  0  0  0  0  0
   50.1992   32.7276   40.0583 H   0  0  0  0  0  0  0  0  0  0  0  0
  1  5  1  0
  1  8  1  0
  2  1  1  0
  3  4  1  0
  3  2  1  0
  4  5  1  0
  6 11  2  0
  7  6  1  0
  8  7  2  0
  8  9  1  0
  9 10  2  0
 10 11  1  0
 12  4  1  0
  1 13  1  6
  2 14  1  0
  2 15  1  0
  3 16  1  0
  3 17  1  0
  4 18  1  6
  5 19  1  0
  5 20  1  0
  6 21  1  0
  7 22  1  0
 10 23  1  0
 12 24  1  0
 12 25  1  0
 12 26  1  0
M  ISO  8  13  13  14  13  15  13  16  13  17  13  18  13  19  13  20  13
M  ISO  6  21  14  22  14  23  14  24   8  25   8  26   8
M  END
>  <minimizedAffinity>  (1) 
-4.34371948

>  <minimizedRMSD>  (1) 
0.857384801

$$$$
