
     RDKit          3D

 33 35  0  0  1  0  0  0  0  0999 V2000
   46.8900   35.0060   42.0740 C   0  0  2  0  0  0  0  0  0  0  0  0
   46.2560   34.1760   40.9840 C   0  0  0  0  0  0  0  0  0  0  0  0
   47.4520   34.1550   40.0100 C   0  0  0  0  0  0  0  0  0  0  0  0
   48.6680   34.0960   40.8880 C   0  0  1  0  0  0  0  0  0  0  0  0
   48.1670   34.2030   42.2940 C   0  0  0  0  0  0  0  0  0  0  0  0
   44.4310   36.0410   44.7440 C   0  0  0  0  0  0  0  0  0  0  0  0
   45.1440   36.0820   43.5370 C   0  0  0  0  0  0  0  0  0  0  0  0
   46.0660   35.0550   43.3100 C   0  0  0  0  0  0  0  0  0  0  0  0
   46.2420   34.0610   44.2550 N   0  0  0  0  0  0  0  0  0  0  0  0
   45.5230   34.0770   45.4030 C   0  0  0  0  0  0  0  0  0  0  0  0
   44.6290   35.0530   45.6450 N   0  0  0  0  0  0  0  0  0  0  0  0
   49.4350   32.8120   40.8050 C   0  0  2  0  0  0  0  0  0  0  0  0
   49.2980   31.8540   41.8740 C   0  0  0  0  0  0  0  0  0  0  0  0
   50.6330   32.5240   41.5660 C   0  0  1  0  0  0  0  0  0  0  0  0
   51.7130   31.6410   40.9500 C   0  0  0  0  0  0  0  0  0  0  0  0
   47.0289   36.0663   41.8161 H   0  0  0  0  0  0  0  0  0  0  0  0
   45.9838   33.1686   41.3319 H   0  0  0  0  0  0  0  0  0  0  0  0
   45.3074   34.5559   40.5768 H   0  0  0  0  0  0  0  0  0  0  0  0
   47.4643   35.0659   39.3934 H   0  0  0  0  0  0  0  0  0  0  0  0
   47.4032   33.3041   39.3145 H   0  0  0  0  0  0  0  0  0  0  0  0
   49.3483   34.8983   40.5663 H   0  0  0  0  0  0  0  0  0  0  0  0
   48.8783   34.7400   42.9387 H   0  0  0  0  0  0  0  0  0  0  0  0
   48.0201   33.2388   42.8027 H   0  0  0  0  0  0  0  0  0  0  0  0
   43.6954   36.8292   44.9620 H   0  0  0  0  0  0  0  0  0  0  0  0
   44.9854   36.8852   42.8023 H   0  0  0  0  0  0  0  0  0  0  0  0
   45.6721   33.2811   46.1476 H   0  0  0  0  0  0  0  0  0  0  0  0
   49.2543   32.8170   39.7200 H   0  0  0  0  0  0  0  0  0  0  0  0
   48.7430   32.1170   42.7866 H   0  0  0  0  0  0  0  0  0  0  0  0
   48.9386   30.8181   41.9617 H   0  0  0  0  0  0  0  0  0  0  0  0
   51.3722   33.1332   42.1068 H   0  0  0  0  0  0  0  0  0  0  0  0
   52.2970   31.1635   41.7506 H   0  0  0  0  0  0  0  0  0  0  0  0
   51.2420   30.8659   40.3275 H   0  0  0  0  0  0  0  0  0  0  0  0
   52.3790   32.2566   40.3275 H   0  0  0  0  0  0  0  0  0  0  0  0
  1  5  1  0
  1  8  1  0
  2  1  1  0
  3  4  1  0
  3  2  1  0
  4  5  1  0
  6 11  2  0
  7  6  1  0
  8  7  2  0
  8  9  1  0
  9 10  2  0
 10 11  1  0
 12  4  1  0
 12 14  1  0
 12 13  1  0
 14 13  1  0
 15 14  1  0
  1 16  1  6
  2 17  1  0
  2 18  1  0
  3 19  1  0
  3 20  1  0
  4 21  1  6
  5 22  1  0
  5 23  1  0
  6 24  1  0
  7 25  1  0
 10 26  1  0
 12 27  1  6
 13 28  1  0
 13 29  1  0
 14 30  1  1
 15 31  1  0
 15 32  1  0
 15 33  1  0
M  ISO  8  16  13  17  13  18  13  19  13  20  13  21  13  22  13  23  13
M  ISO  8  24  14  25  14  26  14  27  13  28  13  29  13  30  13  31   8
M  ISO  2  32   8  33   8
M  END
>  <minimizedAffinity>  (1) 
-4.8087945

>  <minimizedRMSD>  (1) 
0.334575117

$$$$
