
     RDKit          3D

 37 39  0  0  1  0  0  0  0  0999 V2000
   43.9620   34.9170   40.5450 C   0  0  2  0  0  0  0  0  0  0  0  0
   44.5850   33.7220   39.8870 C   0  0  0  0  0  0  0  0  0  0  0  0
   46.0140   33.8800   40.4490 C   0  0  0  0  0  0  0  0  0  0  0  0
   45.8260   34.4140   41.8480 C   0  0  1  0  0  0  0  0  0  0  0  0
   44.3510   34.6150   42.0040 C   0  0  0  0  0  0  0  0  0  0  0  0
   40.4690   35.2720   39.1610 C   0  0  0  0  0  0  0  0  0  0  0  0
   41.8800   35.2290   39.1700 C   0  0  0  0  0  0  0  0  0  0  0  0
   42.4870   34.9670   40.4170 C   0  0  0  0  0  0  0  0  0  0  0  0
   41.7080   34.7680   41.5480 N   0  0  0  0  0  0  0  0  0  0  0  0
   40.3570   34.8250   41.4550 C   0  0  0  0  0  0  0  0  0  0  0  0
   39.7470   35.0730   40.2820 N   0  0  0  0  0  0  0  0  0  0  0  0
   46.2270   33.4750   42.9310 C   0  0  2  0  0  0  0  0  0  0  0  0
   46.5410   34.0240   44.2570 C   0  0  0  0  0  0  0  0  0  0  0  0
   47.5440   33.2210   43.4090 C   0  0  2  0  0  0  0  0  0  0  0  0
   48.8190   33.8170   42.9840 C   0  0  0  0  0  0  0  0  0  0  0  0
   49.4110   34.8090   42.2790 C   0  0  0  0  0  0  0  0  0  0  0  0
   49.0400   35.9660   41.4550 C   0  0  0  0  0  0  0  0  0  0  0  0
   44.2902   35.8779   40.1219 H   0  0  0  0  0  0  0  0  0  0  0  0
   44.5599   33.7916   38.7895 H   0  0  0  0  0  0  0  0  0  0  0  0
   44.0959   32.7563   40.0826 H   0  0  0  0  0  0  0  0  0  0  0  0
   46.5301   32.9089   40.4718 H   0  0  0  0  0  0  0  0  0  0  0  0
   46.6299   34.5492   39.8303 H   0  0  0  0  0  0  0  0  0  0  0  0
   46.4515   35.3133   41.9486 H   0  0  0  0  0  0  0  0  0  0  0  0
   44.1231   35.4604   42.6699 H   0  0  0  0  0  0  0  0  0  0  0  0
   43.8153   33.7688   42.4589 H   0  0  0  0  0  0  0  0  0  0  0  0
   39.9451   35.4731   38.2149 H   0  0  0  0  0  0  0  0  0  0  0  0
   42.4725   35.3904   38.2574 H   0  0  0  0  0  0  0  0  0  0  0  0
   39.7473   34.6653   42.3566 H   0  0  0  0  0  0  0  0  0  0  0  0
   45.4934   32.7778   42.5000 H   0  0  0  0  0  0  0  0  0  0  0  0
   46.6688   35.1074   44.3982 H   0  0  0  0  0  0  0  0  0  0  0  0
   46.1175   33.9555   45.2699 H   0  0  0  0  0  0  0  0  0  0  0  0
   48.1371   32.2966   43.4708 H   0  0  0  0  0  0  0  0  0  0  0  0
   49.6230   33.2042   43.4177 H   0  0  0  0  0  0  0  0  0  0  0  0
   50.5057   34.7216   42.3430 H   0  0  0  0  0  0  0  0  0  0  0  0
   48.7696   36.8093   42.1075 H   0  0  0  0  0  0  0  0  0  0  0  0
   49.8915   36.2521   40.8200 H   0  0  0  0  0  0  0  0  0  0  0  0
   48.1810   35.7036   40.8200 H   0  0  0  0  0  0  0  0  0  0  0  0
  1  5  1  0
  2  3  1  0
  2  1  1  0
  3  4  1  0
  4  5  1  0
  4 12  1  0
  6  7  2  0
  6 11  1  0
  7  8  1  0
  8  1  1  0
  8  9  2  0
 10  9  1  0
 11 10  2  0
 12 14  1  0
 12 13  1  0
 14 13  1  0
 15 14  1  0
 16 15  2  0
 17 16  1  0
  1 18  1  6
  2 19  1  0
  2 20  1  0
  3 21  1  0
  3 22  1  0
  4 23  1  6
  5 24  1  0
  5 25  1  0
  6 26  1  0
  7 27  1  0
 10 28  1  0
 12 29  1  1
 13 30  1  0
 13 31  1  0
 14 32  1  1
 15 33  1  0
 16 34  1  0
 17 35  1  0
 17 36  1  0
 17 37  1  0
M  ISO  8  18  13  19  13  20  13  21  13  22  13  23  13  24  13  25  13
M  ISO  8  26  14  27  14  28  14  29  13  30  13  31  13  32  13  35   8
M  ISO  2  36   8  37   8
M  END
>  <minimizedAffinity>  (1) 
-5.11803818

>  <minimizedRMSD>  (1) 
4.4946909

$$$$
