
     RDKit          3D

 37 40  0  0  1  0  0  0  0  0999 V2000
   43.6300   34.0550   40.0280 C   0  0  2  0  0  0  0  0  0  0  0  0
   43.6950   32.5890   40.3480 C   0  0  0  0  0  0  0  0  0  0  0  0
   45.2280   32.4450   40.4010 C   0  0  0  0  0  0  0  0  0  0  0  0
   45.7060   33.7420   41.0080 C   0  0  1  0  0  0  0  0  0  0  0  0
   44.5510   34.6390   41.1010 C   0  0  0  0  0  0  0  0  0  0  0  0
   40.5880   36.0300   41.0850 C   0  0  0  0  0  0  0  0  0  0  0  0
   41.9110   35.5720   41.0850 C   0  0  0  0  0  0  0  0  0  0  0  0
   42.2570   34.6250   40.1150 C   0  0  0  0  0  0  0  0  0  0  0  0
   41.3060   34.1770   39.2030 N   0  0  0  0  0  0  0  0  0  0  0  0
   40.0430   34.6640   39.2620 C   0  0  0  0  0  0  0  0  0  0  0  0
   39.6930   35.5790   40.1930 N   0  0  0  0  0  0  0  0  0  0  0  0
   46.3300   33.5860   42.3540 C   0  0  2  0  0  0  0  0  0  0  0  0
   45.9750   34.5510   43.3660 C   0  0  0  0  0  0  0  0  0  0  0  0
   47.4010   34.4110   42.8660 C   0  0  2  0  0  0  0  0  0  0  0  0
   48.0380   35.5400   42.0950 C   0  0  0  0  0  0  0  0  0  0  0  0
   48.7640   35.3710   40.8510 C   0  0  0  0  0  0  0  0  0  0  0  0
   49.5600   35.5990   42.0850 C   0  0  0  0  0  0  0  0  0  0  0  0
   43.9246   34.2802   38.9924 H   0  0  0  0  0  0  0  0  0  0  0  0
   43.2213   32.3522   41.3121 H   0  0  0  0  0  0  0  0  0  0  0  0
   43.1726   31.9200   39.6484 H   0  0  0  0  0  0  0  0  0  0  0  0
   45.5172   31.5906   41.0306 H   0  0  0  0  0  0  0  0  0  0  0  0
   45.6663   32.2594   39.4093 H   0  0  0  0  0  0  0  0  0  0  0  0
   46.4965   34.1468   40.3590 H   0  0  0  0  0  0  0  0  0  0  0  0
   44.8288   35.6782   40.8710 H   0  0  0  0  0  0  0  0  0  0  0  0
   44.0997   34.6895   42.1029 H   0  0  0  0  0  0  0  0  0  0  0  0
   40.2759   36.7750   41.8317 H   0  0  0  0  0  0  0  0  0  0  0  0
   42.6462   35.9405   41.8156 H   0  0  0  0  0  0  0  0  0  0  0  0
   39.2913   34.3094   38.5414 H   0  0  0  0  0  0  0  0  0  0  0  0
   46.2679   32.4948   42.2295 H   0  0  0  0  0  0  0  0  0  0  0  0
   45.3795   35.4375   43.1022 H   0  0  0  0  0  0  0  0  0  0  0  0
   45.4778   34.5165   44.3466 H   0  0  0  0  0  0  0  0  0  0  0  0
   48.3938   34.1979   43.2889 H   0  0  0  0  0  0  0  0  0  0  0  0
   47.1932   36.1879   42.3719 H   0  0  0  0  0  0  0  0  0  0  0  0
   48.7157   36.1570   40.0830 H   0  0  0  0  0  0  0  0  0  0  0  0
   48.7710   34.5954   40.0710 H   0  0  0  0  0  0  0  0  0  0  0  0
   50.1515   34.7823   42.5245 H   0  0  0  0  0  0  0  0  0  0  0  0
   50.3265   36.3174   42.4111 H   0  0  0  0  0  0  0  0  0  0  0  0
  1  8  1  0
  1  2  1  0
  1  5  1  0
  2  3  1  0
  3  4  1  0
  4  5  1  0
  4 12  1  0
  7  6  2  0
  8  7  1  0
  9 10  1  0
  9  8  2  0
 10 11  2  0
 11  6  1  0
 12 14  1  0
 12 13  1  0
 14 13  1  0
 15 14  1  0
 16 17  1  0
 16 15  1  0
 17 15  1  0
  1 18  1  6
  2 19  1  0
  2 20  1  0
  3 21  1  0
  3 22  1  0
  4 23  1  6
  5 24  1  0
  5 25  1  0
  6 26  1  0
  7 27  1  0
 10 28  1  0
 12 29  1  1
 13 30  1  0
 13 31  1  0
 14 32  1  1
 15 33  1  0
 16 34  1  0
 16 35  1  0
 17 36  1  0
 17 37  1  0
M  ISO  8  18  13  19  13  20  13  21  13  22  13  23  13  24  13  25  13
M  ISO  8  26  14  27  14  28  14  29  13  30  13  31  13  32  13  33  13
M  ISO  4  34  13  35  13  36  13  37  13
M  END
>  <minimizedAffinity>  (1) 
-4.85804367

>  <minimizedRMSD>  (1) 
4.81246996

$$$$
