
     RDKit          3D

 48 51  0  0  1  0  0  0  0  0999 V2000
   46.9780   34.8630   41.9440 C   0  0  2  0  0  0  0  0  0  0  0  0
   46.2180   34.1820   40.8040 C   0  0  0  0  0  0  0  0  0  0  0  0
   47.4030   34.0460   39.8230 C   0  0  0  0  0  0  0  0  0  0  0  0
   48.5850   33.7430   40.6890 C   0  0  1  0  0  0  0  0  0  0  0  0
   48.1090   33.8860   42.1050 C   0  0  0  0  0  0  0  0  0  0  0  0
   44.5110   35.9930   44.5560 C   0  0  0  0  0  0  0  0  0  0  0  0
   45.2190   35.9890   43.3540 C   0  0  0  0  0  0  0  0  0  0  0  0
   46.1420   34.9670   43.1690 C   0  0  0  0  0  0  0  0  0  0  0  0
   46.3340   33.9940   44.1620 N   0  0  0  0  0  0  0  0  0  0  0  0
   45.6140   34.0530   45.3110 C   0  0  0  0  0  0  0  0  0  0  0  0
   44.7100   35.0460   45.5050 N   0  0  0  0  0  0  0  0  0  0  0  0
   49.1320   32.3400   40.5410 C   0  0  2  0  0  0  0  0  0  0  0  0
   49.9810   31.8720   41.6290 C   0  0  0  0  0  0  0  0  0  0  0  0
   50.5490   32.0940   40.2650 C   0  0  1  0  0  0  0  0  0  0  0  0
   50.8690   30.9460   39.5000 O   0  0  0  0  0  0  0  0  0  0  0  0
   51.4130   30.3220   37.0280 O   0  0  0  0  0  0  0  0  0  0  0  0
   51.4780   31.4590   38.0190 P   0  0  1  0  0  0  0  0  0  0  0  0
   50.5120   32.7330   37.4000 O   0  0  0  0  0  0  0  0  0  0  0  0
   53.0410   32.0220   38.0690 O   0  0  0  0  0  0  0  0  0  0  0  0
   53.3940   30.2060   39.6110 C   0  0  1  0  0  0  0  0  0  0  0  0
   53.8870   30.9860   38.3850 C   0  0  1  0  0  0  0  0  0  0  0  0
   53.8930   29.8630   37.3730 C   0  0  0  0  0  0  0  0  0  0  0  0
   54.2860   28.7200   38.0530 O   0  0  0  0  0  0  0  0  0  0  0  0
   54.1860   28.9370   39.4090 C   0  0  0  0  0  0  0  0  0  0  0  0
   53.7430   30.8580   40.7890 O   0  0  0  0  0  0  0  0  0  0  0  0
   47.2886   35.9013   41.7556 H   0  0  0  0  0  0  0  0  0  0  0  0
   45.8057   33.2061   41.1001 H   0  0  0  0  0  0  0  0  0  0  0  0
   45.3308   34.7109   40.4258 H   0  0  0  0  0  0  0  0  0  0  0  0
   47.5581   34.9845   39.2706 H   0  0  0  0  0  0  0  0  0  0  0  0
   47.2297   33.2637   39.0693 H   0  0  0  0  0  0  0  0  0  0  0  0
   49.3957   34.4274   40.3987 H   0  0  0  0  0  0  0  0  0  0  0  0
   48.8989   34.2894   42.7556 H   0  0  0  0  0  0  0  0  0  0  0  0
   47.8175   32.9367   42.5781 H   0  0  0  0  0  0  0  0  0  0  0  0
   43.7711   36.7863   44.7386 H   0  0  0  0  0  0  0  0  0  0  0  0
   45.0540   36.7602   42.5872 H   0  0  0  0  0  0  0  0  0  0  0  0
   45.7643   33.2909   46.0899 H   0  0  0  0  0  0  0  0  0  0  0  0
   48.2154   32.0022   40.0352 H   0  0  0  0  0  0  0  0  0  0  0  0
   50.2451   32.5506   42.4535 H   0  0  0  0  0  0  0  0  0  0  0  0
   49.9518   31.0290   42.3350 H   0  0  0  0  0  0  0  0  0  0  0  0
   51.3811   32.6809   39.8488 H   0  0  0  0  0  0  0  0  0  0  0  0
   50.1225   33.2467   38.1513 H   0  0  0  0  0  0  0  0  0  0  0  0
   52.3057   30.0707   39.6962 H   0  0  0  0  0  0  0  0  0  0  0  0
   54.8533   31.5012   38.4890 H   0  0  0  0  0  0  0  0  0  0  0  0
   54.6029   30.0858   36.5628 H   0  0  0  0  0  0  0  0  0  0  0  0
   52.8998   29.7328   36.9185 H   0  0  0  0  0  0  0  0  0  0  0  0
   53.6688   28.0920   39.8869 H   0  0  0  0  0  0  0  0  0  0  0  0
   55.1850   29.0292   39.8602 H   0  0  0  0  0  0  0  0  0  0  0  0
   53.4527   30.3157   41.5648 H   0  0  0  0  0  0  0  0  0  0  0  0
  1  5  1  0
  1  8  1  0
  2  1  1  0
  3  4  1  0
  3  2  1  0
  4  5  1  0
  6 11  2  0
  7  6  1  0
  8  7  2  0
  8  9  1  0
  9 10  2  0
 10 11  1  0
 12  4  1  0
 12 13  1  0
 14 12  1  0
 14 13  1  0
 15 14  1  0
 17 16  2  0
 17 19  1  0
 17 15  1  0
 18 17  1  0
 20 25  1  0
 21 19  1  0
 21 20  1  0
 22 23  1  0
 22 21  1  0
 23 24  1  0
 24 20  1  0
  1 26  1  6
  2 27  1  0
  2 28  1  0
  3 29  1  0
  3 30  1  0
  4 31  1  6
  5 32  1  0
  5 33  1  0
  6 34  1  0
  7 35  1  0
 10 36  1  0
 12 37  1  6
 13 38  1  0
 13 39  1  0
 14 40  1  1
 18 41  1  0
 20 42  1  6
 21 43  1  1
 22 44  1  0
 22 45  1  0
 24 46  1  0
 24 47  1  0
 25 48  1  0
M  ISO  8  26  13  27  13  28  13  29  13  30  13  31  13  32  13  33  13
M  ISO  8  34  14  35  14  36  14  37  13  38  13  39  13  40  13  41   3
M  ISO  7  42  13  43  13  44  13  45  13  46  13  47  13  48   3
M  END
>  <minimizedAffinity>  (1) 
-5.34570312

>  <minimizedRMSD>  (1) 
0.697369099

$$$$
