
     RDKit          3D

 20 21  0  0  1  0  0  0  0  0999 V2000
   46.2280   34.7900   43.2760 C   0  0  0  0  0  0  0  0  0  0  0  0
   45.2720   35.7860   43.5970 C   0  0  0  0  0  0  0  0  0  0  0  0
   44.5940   35.6360   44.8150 C   0  0  0  0  0  0  0  0  0  0  0  0
   44.9050   34.5560   45.5870 N   0  0  0  0  0  0  0  0  0  0  0  0
   45.8210   33.6510   45.2240 C   0  0  0  0  0  0  0  0  0  0  0  0
   46.4930   33.7360   44.0890 N   0  0  0  0  0  0  0  0  0  0  0  0
   46.0880   32.5020   46.1340 C   0  0  1  0  0  0  0  0  0  0  0  0
   46.9400   32.6700   47.3470 C   0  0  0  0  0  0  0  0  0  0  0  0
   45.4560   32.6320   47.4890 C   0  0  1  0  0  0  0  0  0  0  0  0
   44.8680   33.8310   47.8490 O   0  0  0  0  0  0  0  0  0  0  0  0
   46.9040   34.9820   42.0190 C   0  0  0  0  0  0  0  0  0  0  0  0
   48.0480   35.4770   41.8670 O   0  0  0  0  0  0  0  0  0  0  0  0
   45.0722   36.6335   42.9248 H   0  0  0  0  0  0  0  0  0  0  0  0
   43.8363   36.3654   45.1371 H   0  0  0  0  0  0  0  0  0  0  0  0
   46.1098   31.7763   45.3076 H   0  0  0  0  0  0  0  0  0  0  0  0
   47.5480   31.8289   47.7115 H   0  0  0  0  0  0  0  0  0  0  0  0
   47.7300   33.3737   47.6483 H   0  0  0  0  0  0  0  0  0  0  0  0
   44.7169   32.0311   48.0392 H   0  0  0  0  0  0  0  0  0  0  0  0
   44.8347   33.8989   48.8361 H   0  0  0  0  0  0  0  0  0  0  0  0
   46.3702   34.6667   41.1103 H   0  0  0  0  0  0  0  0  0  0  0  0
  1  2  2  0
  1  6  1  0
  2  3  1  0
  3  4  2  0
  5  4  1  0
  5  7  1  0
  6  5  2  0
  7  8  1  0
  7  9  1  0
  8  9  1  0
  9 10  1  0
 11  1  1  0
 12 11  2  0
  2 13  1  0
  3 14  1  0
  7 15  1  6
  8 16  1  0
  8 17  1  0
  9 18  1  1
 10 19  1  0
 11 20  1  0
M  ISO  8  13  14  14  14  15  13  16  13  17  13  18  13  19   3  20   6
M  END
>  <minimizedAffinity>  (1) 
-4.60309744

>  <minimizedRMSD>  (1) 
0.195159599

$$$$
