
     RDKit          3D

 35 37  0  0  1  0  0  0  0  0999 V2000
   45.6290   32.7380   44.5860 C   0  0  1  0  0  0  0  0  0  0  0  0
   47.0930   32.5650   44.8230 C   0  0  0  0  0  0  0  0  0  0  0  0
   46.2630   33.2830   45.8290 C   0  0  2  0  0  0  0  0  0  0  0  0
   44.0110   34.4120   41.7480 C   0  0  0  0  0  0  0  0  0  0  0  0
   44.2940   35.7660   41.9670 C   0  0  0  0  0  0  0  0  0  0  0  0
   45.0480   36.1170   43.1140 C   0  0  0  0  0  0  0  0  0  0  0  0
   45.4520   35.1190   43.9300 N   0  0  0  0  0  0  0  0  0  0  0  0
   45.1420   33.8180   43.6570 C   0  0  0  0  0  0  0  0  0  0  0  0
   44.4330   33.4530   42.5870 N   0  0  0  0  0  0  0  0  0  0  0  0
   43.2550   34.1670   40.5640 C   0  0  0  0  0  0  0  0  0  0  0  0
   43.7440   33.8410   39.4390 O   0  0  0  0  0  0  0  0  0  0  0  0
   46.0760   32.5700   47.1460 C   0  0  0  0  0  0  0  0  0  0  0  0
   45.6790   31.1440   46.8280 C   0  0  0  0  0  0  0  0  0  0  0  0
   45.1530   30.4410   48.0590 C   0  0  0  0  0  0  0  0  0  0  0  0
   45.9990   30.8110   49.2540 C   0  0  0  0  0  0  0  0  0  0  0  0
   47.3780   31.2990   48.8660 C   0  0  0  0  0  0  0  0  0  0  0  0
   47.3590   32.4820   47.9390 C   0  0  0  0  0  0  0  0  0  0  0  0
   44.8345   32.0280   44.3128 H   0  0  0  0  0  0  0  0  0  0  0  0
   47.4977   31.5689   45.0552 H   0  0  0  0  0  0  0  0  0  0  0  0
   48.0045   32.8045   44.2558 H   0  0  0  0  0  0  0  0  0  0  0  0
   46.2552   34.2747   46.3050 H   0  0  0  0  0  0  0  0  0  0  0  0
   43.9401   36.5369   41.2667 H   0  0  0  0  0  0  0  0  0  0  0  0
   45.2959   37.1662   43.3326 H   0  0  0  0  0  0  0  0  0  0  0  0
   42.1617   34.2685   40.6309 H   0  0  0  0  0  0  0  0  0  0  0  0
   45.3287   33.1247   47.7324 H   0  0  0  0  0  0  0  0  0  0  0  0
   44.8954   31.1523   46.0560 H   0  0  0  0  0  0  0  0  0  0  0  0
   46.5678   30.6044   46.4690 H   0  0  0  0  0  0  0  0  0  0  0  0
   44.1119   30.7472   48.2386 H   0  0  0  0  0  0  0  0  0  0  0  0
   45.1953   29.3528   47.9043 H   0  0  0  0  0  0  0  0  0  0  0  0
   45.4881   31.6086   49.8132 H   0  0  0  0  0  0  0  0  0  0  0  0
   46.1272   29.9042   49.8633 H   0  0  0  0  0  0  0  0  0  0  0  0
   47.9166   31.5835   49.7819 H   0  0  0  0  0  0  0  0  0  0  0  0
   47.8720   30.4761   48.3286 H   0  0  0  0  0  0  0  0  0  0  0  0
   48.2025   32.3956   47.2383 H   0  0  0  0  0  0  0  0  0  0  0  0
   47.4375   33.3913   48.5530 H   0  0  0  0  0  0  0  0  0  0  0  0
  1  2  1  0
  1  3  1  0
  2  3  1  0
  3 12  1  0
  4  5  2  0
  4  9  1  0
  5  6  1  0
  6  7  2  0
  8  7  1  0
  8  1  1  0
  9  8  2  0
 10  4  1  0
 11 10  2  0
 12 17  1  0
 13 12  1  0
 13 14  1  0
 14 15  1  0
 16 15  1  0
 17 16  1  0
  1 18  1  1
  2 19  1  0
  2 20  1  0
  3 21  1  1
  5 22  1  0
  6 23  1  0
 10 24  1  0
 12 25  1  0
 13 26  1  0
 13 27  1  0
 14 28  1  0
 14 29  1  0
 15 30  1  0
 15 31  1  0
 16 32  1  0
 16 33  1  0
 17 34  1  0
 17 35  1  0
M  ISO  8  18  13  19  13  20  13  21  13  22  14  23  14  24   6  25  13
M  ISO  8  26  13  27  13  28  13  29  13  30  13  31  13  32  13  33  13
M  ISO  2  34  13  35  13
M  END
>  <minimizedAffinity>  (1) 
-4.82632875

>  <minimizedRMSD>  (1) 
2.62770176

$$$$
