
     RDKit          3D

 25 26  0  0  1  0  0  0  0  0999 V2000
   46.8510   32.5230   45.8630 C   0  0  1  0  0  0  0  0  0  0  0  0
   47.0990   32.8640   47.2940 C   0  0  0  0  0  0  0  0  0  0  0  0
   45.8380   32.1850   46.9150 C   0  0  2  0  0  0  0  0  0  0  0  0
   46.6660   34.7240   42.9330 C   0  0  0  0  0  0  0  0  0  0  0  0
   45.5260   35.5280   43.1900 C   0  0  0  0  0  0  0  0  0  0  0  0
   44.8320   35.2860   44.3960 C   0  0  0  0  0  0  0  0  0  0  0  0
   45.2940   34.3090   45.2220 N   0  0  0  0  0  0  0  0  0  0  0  0
   46.3980   33.5750   44.9020 C   0  0  0  0  0  0  0  0  0  0  0  0
   47.0860   33.7590   43.7880 N   0  0  0  0  0  0  0  0  0  0  0  0
   47.3200   35.0260   41.6960 C   0  0  0  0  0  0  0  0  0  0  0  0
   48.4340   35.6180   41.5830 O   0  0  0  0  0  0  0  0  0  0  0  0
   45.5930   30.8600   47.2200 O   0  0  0  0  0  0  0  0  0  0  0  0
   44.7130   31.4350   49.5560 O   0  0  0  0  0  0  0  0  0  0  0  0
   45.6390   30.4600   48.8320 P   0  0  0  0  0  0  0  0  0  0  0  0
   44.9580   28.9230   49.1220 O   0  0  0  0  0  0  0  0  0  0  0  0
   47.1520   30.5880   49.5450 O   0  0  0  0  0  0  0  0  0  0  0  0
   47.4541   31.9985   45.1072 H   0  0  0  0  0  0  0  0  0  0  0  0
   47.8662   32.3183   47.8629 H   0  0  0  0  0  0  0  0  0  0  0  0
   47.3485   33.7867   47.8384 H   0  0  0  0  0  0  0  0  0  0  0  0
   44.7743   32.4020   47.0925 H   0  0  0  0  0  0  0  0  0  0  0  0
   45.1977   36.3040   42.4828 H   0  0  0  0  0  0  0  0  0  0  0  0
   43.9401   35.8729   44.6607 H   0  0  0  0  0  0  0  0  0  0  0  0
   46.8142   34.7191   40.7686 H   0  0  0  0  0  0  0  0  0  0  0  0
   44.8905   28.7708   50.0979 H   0  0  0  0  0  0  0  0  0  0  0  0
   47.0543   30.5797   50.5301 H   0  0  0  0  0  0  0  0  0  0  0  0
  1  3  1  0
  1  2  1  0
  3 12  1  0
  3  2  1  0
  4  5  2  0
  4  9  1  0
  5  6  1  0
  6  7  2  0
  8  7  1  0
  8  1  1  0
  9  8  2  0
 10  4  1  0
 11 10  2  0
 12 14  1  0
 14 15  1  0
 14 16  1  0
 14 13  2  0
  1 17  1  6
  2 18  1  0
  2 19  1  0
  3 20  1  6
  5 21  1  0
  6 22  1  0
 10 23  1  0
 15 24  1  0
 16 25  1  0
M  ISO  8  17  13  18  13  19  13  20  13  21  14  22  14  23   6  24   3
M  ISO  1  25   3
M  END
>  <minimizedAffinity>  (1) 
-4.87012243

>  <minimizedRMSD>  (1) 
1.39210224

$$$$
