
     RDKit          3D

 34 36  0  0  1  0  0  0  0  0999 V2000
   46.8910   32.3650   46.3510 C   0  0  1  0  0  0  0  0  0  0  0  0
   47.1910   32.6220   47.7860 C   0  0  0  0  0  0  0  0  0  0  0  0
   45.9690   31.8780   47.4330 C   0  0  2  0  0  0  0  0  0  0  0  0
   46.2220   34.5800   43.5080 C   0  0  0  0  0  0  0  0  0  0  0  0
   45.1610   35.4030   43.9610 C   0  0  0  0  0  0  0  0  0  0  0  0
   44.6890   35.1660   45.2650 C   0  0  0  0  0  0  0  0  0  0  0  0
   45.2600   34.1920   45.9990 N   0  0  0  0  0  0  0  0  0  0  0  0
   46.2790   33.4380   45.4960 C   0  0  0  0  0  0  0  0  0  0  0  0
   46.7750   33.6070   44.2720 N   0  0  0  0  0  0  0  0  0  0  0  0
   46.6620   34.8680   42.1720 C   0  0  0  0  0  0  0  0  0  0  0  0
   47.7730   35.3650   41.8560 O   0  0  0  0  0  0  0  0  0  0  0  0
   45.8270   30.4700   47.4790 N   0  0  0  0  0  0  0  0  0  0  0  0
   45.0050   29.9850   46.4070 C   0  0  0  0  0  0  0  0  0  0  0  0
   44.9140   28.4810   46.5460 C   0  0  0  0  0  0  0  0  0  0  0  0
   46.2790   27.9830   46.0590 C   0  0  0  0  0  0  0  0  0  0  0  0
   47.3740   28.6590   46.8070 C   0  0  0  0  0  0  0  0  0  0  0  0
   46.9210   29.6670   47.8360 C   0  0  0  0  0  0  0  0  0  0  0  0
   47.4944   31.9506   45.5299 H   0  0  0  0  0  0  0  0  0  0  0  0
   48.0284   32.1000   48.2721 H   0  0  0  0  0  0  0  0  0  0  0  0
   47.4017   33.5226   48.3815 H   0  0  0  0  0  0  0  0  0  0  0  0
   44.9326   32.0057   47.7788 H   0  0  0  0  0  0  0  0  0  0  0  0
   44.7278   36.1885   43.3244 H   0  0  0  0  0  0  0  0  0  0  0  0
   43.8660   35.7672   45.6787 H   0  0  0  0  0  0  0  0  0  0  0  0
   45.9662   34.6333   41.3530 H   0  0  0  0  0  0  0  0  0  0  0  0
   45.4581   30.2457   45.4392 H   0  0  0  0  0  0  0  0  0  0  0  0
   44.0039   30.4388   46.4515 H   0  0  0  0  0  0  0  0  0  0  0  0
   44.7440   28.1944   47.5943 H   0  0  0  0  0  0  0  0  0  0  0  0
   44.0773   28.0519   45.9751 H   0  0  0  0  0  0  0  0  0  0  0  0
   46.3471   26.8969   46.2194 H   0  0  0  0  0  0  0  0  0  0  0  0
   46.3823   28.2138   44.9884 H   0  0  0  0  0  0  0  0  0  0  0  0
   47.9615   27.8857   47.3235 H   0  0  0  0  0  0  0  0  0  0  0  0
   47.9518   29.2231   46.0600 H   0  0  0  0  0  0  0  0  0  0  0  0
   47.7701   30.3329   48.0496 H   0  0  0  0  0  0  0  0  0  0  0  0
   46.5813   29.0742   48.6981 H   0  0  0  0  0  0  0  0  0  0  0  0
  1  3  1  0
  1  2  1  0
  3 12  1  0
  3  2  1  0
  4  5  2  0
  4  9  1  0
  5  6  1  0
  6  7  2  0
  8  7  1  0
  8  1  1  0
  9  8  2  0
 10  4  1  0
 11 10  2  0
 12 17  1  0
 13 14  1  0
 13 12  1  0
 15 14  1  0
 15 16  1  0
 16 17  1  0
  1 18  1  6
  2 19  1  0
  2 20  1  0
  3 21  1  6
  5 22  1  0
  6 23  1  0
 10 24  1  0
 13 25  1  0
 13 26  1  0
 14 27  1  0
 14 28  1  0
 15 29  1  0
 15 30  1  0
 16 31  1  0
 16 32  1  0
 17 33  1  0
 17 34  1  0
M  ISO  8  18  13  19  13  20  13  21  13  22  14  23  14  24   6  25  13
M  ISO  8  26  13  27  13  28  13  29  13  30  13  31  13  32  13  33  13
M  ISO  1  34  13
M  END
>  <minimizedAffinity>  (1) 
-4.31250858

>  <minimizedRMSD>  (1) 
1.5001334

$$$$
