
     RDKit          3D

 31 33  0  0  1  0  0  0  0  0999 V2000
   46.2240   34.8050   43.2640 C   0  0  0  0  0  0  0  0  0  0  0  0
   45.2910   35.8390   43.5700 C   0  0  0  0  0  0  0  0  0  0  0  0
   44.6190   35.7050   44.7820 C   0  0  0  0  0  0  0  0  0  0  0  0
   44.8820   34.6360   45.5700 N   0  0  0  0  0  0  0  0  0  0  0  0
   45.7990   33.6770   45.2050 C   0  0  0  0  0  0  0  0  0  0  0  0
   46.4720   33.7380   44.0740 N   0  0  0  0  0  0  0  0  0  0  0  0
   46.0400   32.5380   46.1340 C   0  0  1  0  0  0  0  0  0  0  0  0
   46.8420   32.7760   47.3920 C   0  0  0  0  0  0  0  0  0  0  0  0
   45.3460   32.6450   47.4360 C   0  0  1  0  0  0  0  0  0  0  0  0
   44.7040   33.9120   47.8040 N   0  0  0  0  0  0  0  0  0  0  0  0
   46.9330   34.9570   42.0050 C   0  0  0  0  0  0  0  0  0  0  0  0
   48.0170   35.6360   41.9020 O   0  0  0  0  0  0  0  0  0  0  0  0
   48.5940   34.0210   40.0500 F   0  0  0  0  0  0  0  0  0  0  0  0
   47.2420   33.8440   39.9480 C   0  0  0  0  0  0  0  0  0  0  0  0
   46.3080   34.2720   40.8700 C   0  0  0  0  0  0  0  0  0  0  0  0
   44.9760   34.0450   40.6770 C   0  0  0  0  0  0  0  0  0  0  0  0
   44.5670   33.3720   39.5250 C   0  0  0  0  0  0  0  0  0  0  0  0
   45.4760   32.9390   38.6000 C   0  0  0  0  0  0  0  0  0  0  0  0
   46.8180   33.1700   38.8000 C   0  0  0  0  0  0  0  0  0  0  0  0
   45.1137   36.6873   42.8926 H   0  0  0  0  0  0  0  0  0  0  0  0
   43.8825   36.4594   45.0958 H   0  0  0  0  0  0  0  0  0  0  0  0
   46.1145   31.7979   45.3236 H   0  0  0  0  0  0  0  0  0  0  0  0
   47.4795   31.9783   47.8009 H   0  0  0  0  0  0  0  0  0  0  0  0
   47.5743   33.5259   47.7257 H   0  0  0  0  0  0  0  0  0  0  0  0
   44.5944   32.0024   47.9178 H   0  0  0  0  0  0  0  0  0  0  0  0
   44.6639   33.9912   48.8302 H   0  0  0  0  0  0  0  0  0  0  0  0
   45.2489   34.6972   47.4201 H   0  0  0  0  0  0  0  0  0  0  0  0
   44.2374   34.3868   41.4170 H   0  0  0  0  0  0  0  0  0  0  0  0
   43.4956   33.1868   39.3584 H   0  0  0  0  0  0  0  0  0  0  0  0
   45.1359   32.4077   37.6989 H   0  0  0  0  0  0  0  0  0  0  0  0
   47.5540   32.8252   38.0587 H   0  0  0  0  0  0  0  0  0  0  0  0
  1  2  2  0
  1  6  1  0
  2  3  1  0
  3  4  2  0
  5  4  1  0
  5  7  1  0
  6  5  2  0
  7  8  1  0
  7  9  1  0
  8  9  1  0
  9 10  1  0
 11  1  1  0
 12 11  2  0
 14 13  1  0
 14 15  2  0
 15 11  1  0
 16 15  1  0
 17 16  2  0
 18 19  2  0
 18 17  1  0
 19 14  1  0
  2 20  1  0
  3 21  1  0
  7 22  1  6
  8 23  1  0
  8 24  1  0
  9 25  1  1
 10 26  1  0
 10 27  1  0
 16 28  1  0
 17 29  1  0
 18 30  1  0
 19 31  1  0
M  ISO  8  20  14  21  14  22  13  23  13  24  13  25  13  26   5  27   5
M  ISO  4  28  14  29  14  30  14  31  14
M  END
>  <minimizedAffinity>  (1) 
-5.87794018

>  <minimizedRMSD>  (1) 
0.330855399

$$$$
