
     RDKit          3D

 37 40  0  0  1  0  0  0  0  0999 V2000
   46.3200   34.6870   43.2450 C   0  0  0  0  0  0  0  0  0  0  0  0
   45.3680   35.7210   43.4950 C   0  0  0  0  0  0  0  0  0  0  0  0
   44.6620   35.6190   44.6890 C   0  0  0  0  0  0  0  0  0  0  0  0
   44.9110   34.5780   45.5180 N   0  0  0  0  0  0  0  0  0  0  0  0
   45.8450   33.6170   45.2100 C   0  0  0  0  0  0  0  0  0  0  0  0
   46.5480   33.6560   44.0950 N   0  0  0  0  0  0  0  0  0  0  0  0
   46.0700   32.5110   46.1870 C   0  0  1  0  0  0  0  0  0  0  0  0
   46.8480   32.7950   47.4510 C   0  0  0  0  0  0  0  0  0  0  0  0
   45.3480   32.6730   47.4670 C   0  0  1  0  0  0  0  0  0  0  0  0
   44.6980   33.9250   47.7800 N   0  0  0  0  0  0  0  0  0  0  0  0
   47.0550   34.8140   42.0030 C   0  0  0  0  0  0  0  0  0  0  0  0
   48.1200   35.5160   41.8910 O   0  0  0  0  0  0  0  0  0  0  0  0
   46.3890   34.0330   40.9650 C   0  0  0  0  0  0  0  0  0  0  0  0
   45.2090   33.3440   41.1940 C   0  0  0  0  0  0  0  0  0  0  0  0
   44.5420   32.5890   40.2520 C   0  0  0  0  0  0  0  0  0  0  0  0
   45.0650   32.4970   38.9920 C   0  0  0  0  0  0  0  0  0  0  0  0
   46.2390   33.1570   38.6920 C   0  0  0  0  0  0  0  0  0  0  0  0
   46.7960   33.0820   37.4130 C   0  0  0  0  0  0  0  0  0  0  0  0
   47.9590   33.7280   37.0890 C   0  0  0  0  0  0  0  0  0  0  0  0
   48.6100   34.4860   38.0650 C   0  0  0  0  0  0  0  0  0  0  0  0
   48.0250   34.5330   39.3170 C   0  0  0  0  0  0  0  0  0  0  0  0
   46.8580   33.8960   39.6770 C   0  0  0  0  0  0  0  0  0  0  0  0
   45.2031   36.5469   42.7874 H   0  0  0  0  0  0  0  0  0  0  0  0
   43.9098   36.3756   44.9567 H   0  0  0  0  0  0  0  0  0  0  0  0
   46.1623   31.7394   45.4085 H   0  0  0  0  0  0  0  0  0  0  0  0
   47.4720   32.0110   47.9049 H   0  0  0  0  0  0  0  0  0  0  0  0
   47.5777   33.5537   47.7703 H   0  0  0  0  0  0  0  0  0  0  0  0
   44.5819   32.0528   47.9553 H   0  0  0  0  0  0  0  0  0  0  0  0
   44.6405   34.0358   48.8024 H   0  0  0  0  0  0  0  0  0  0  0  0
   45.2415   34.7033   47.3804 H   0  0  0  0  0  0  0  0  0  0  0  0
   44.7718   33.4035   42.2016 H   0  0  0  0  0  0  0  0  0  0  0  0
   43.6067   32.0705   40.5096 H   0  0  0  0  0  0  0  0  0  0  0  0
   44.5531   31.9006   38.2224 H   0  0  0  0  0  0  0  0  0  0  0  0
   46.2847   32.4858   36.6428 H   0  0  0  0  0  0  0  0  0  0  0  0
   48.3751   33.6510   36.0736 H   0  0  0  0  0  0  0  0  0  0  0  0
   49.5459   35.0215   37.8474 H   0  0  0  0  0  0  0  0  0  0  0  0
   48.5337   35.1284   40.0895 H   0  0  0  0  0  0  0  0  0  0  0  0
  1  2  2  0
  1  6  1  0
  2  3  1  0
  3  4  2  0
  5  4  1  0
  5  7  1  0
  6  5  2  0
  7  8  1  0
  7  9  1  0
  8  9  1  0
  9 10  1  0
 11  1  1  0
 12 11  2  0
 13 14  2  0
 13 11  1  0
 15 14  1  0
 16 15  2  0
 17 16  1  0
 17 22  2  0
 18 17  1  0
 19 18  2  0
 19 20  1  0
 20 21  2  0
 21 22  1  0
 22 13  1  0
  2 23  1  0
  3 24  1  0
  7 25  1  6
  8 26  1  0
  8 27  1  0
  9 28  1  1
 10 29  1  0
 10 30  1  0
 14 31  1  0
 15 32  1  0
 16 33  1  0
 18 34  1  0
 19 35  1  0
 20 36  1  0
 21 37  1  0
M  ISO  8  23  14  24  14  25  13  26  13  27  13  28  13  29   5  30   5
M  ISO  7  31  14  32  14  33  14  34  14  35  14  36  14  37  14
M  END
>  <minimizedAffinity>  (1) 
-6.46690798

>  <minimizedRMSD>  (1) 
0.911674082

$$$$
