
     RDKit          3D

 21 22  0  0  1  0  0  0  0  0999 V2000
   46.2760   34.7570   43.2430 C   0  0  0  0  0  0  0  0  0  0  0  0
   45.3050   35.7330   43.5840 C   0  0  0  0  0  0  0  0  0  0  0  0
   44.6420   35.5540   44.8070 C   0  0  0  0  0  0  0  0  0  0  0  0
   44.9630   34.4840   45.5730 N   0  0  0  0  0  0  0  0  0  0  0  0
   45.9100   33.5830   45.1790 C   0  0  0  0  0  0  0  0  0  0  0  0
   46.5680   33.7000   44.0340 N   0  0  0  0  0  0  0  0  0  0  0  0
   46.2210   32.4330   46.0810 C   0  0  1  0  0  0  0  0  0  0  0  0
   47.0300   32.6480   47.3180 C   0  0  0  0  0  0  0  0  0  0  0  0
   45.5460   32.5100   47.4140 C   0  0  1  0  0  0  0  0  0  0  0  0
   44.8610   33.7300   47.8130 N   0  0  0  0  0  0  0  0  0  0  0  0
   46.9290   34.9950   41.9840 C   0  0  0  0  0  0  0  0  0  0  0  0
   48.0840   35.4930   41.8380 O   0  0  0  0  0  0  0  0  0  0  0  0
   45.0837   36.5850   42.9244 H   0  0  0  0  0  0  0  0  0  0  0  0
   43.8751   36.2697   45.1381 H   0  0  0  0  0  0  0  0  0  0  0  0
   46.3085   31.7156   45.2517 H   0  0  0  0  0  0  0  0  0  0  0  0
   47.6821   31.8462   47.6946 H   0  0  0  0  0  0  0  0  0  0  0  0
   47.7635   33.3992   47.6461 H   0  0  0  0  0  0  0  0  0  0  0  0
   44.8213   31.8557   47.9207 H   0  0  0  0  0  0  0  0  0  0  0  0
   44.8297   33.7857   48.8410 H   0  0  0  0  0  0  0  0  0  0  0  0
   45.3675   34.5457   47.4402 H   0  0  0  0  0  0  0  0  0  0  0  0
   46.3791   34.7215   41.0714 H   0  0  0  0  0  0  0  0  0  0  0  0
  1  2  2  0
  1  6  1  0
  2  3  1  0
  3  4  2  0
  5  4  1  0
  5  7  1  0
  6  5  2  0
  7  8  1  0
  7  9  1  0
  8  9  1  0
  9 10  1  0
 11  1  1  0
 12 11  2  0
  2 13  1  0
  3 14  1  0
  7 15  1  6
  8 16  1  0
  8 17  1  0
  9 18  1  1
 10 19  1  0
 10 20  1  0
 11 21  1  0
M  ISO  8  13  14  14  14  15  13  16  13  17  13  18  13  19   5  20   5
M  ISO  1  21   6
M  END
>  <minimizedAffinity>  (1) 
-4.57401371

>  <minimizedRMSD>  (1) 
0.250853151

$$$$
