
     RDKit          3D

 47 50  0  0  1  0  0  0  0  0999 V2000
   49.0010   32.0830   43.3300 O   0  0  0  0  0  0  0  0  0  0  0  0
   50.0350   32.3600   42.2500 P   0  0  2  0  0  0  0  0  0  0  0  0
   51.4660   31.5920   42.5520 O   0  0  0  0  0  0  0  0  0  0  0  0
   50.1360   34.0410   42.0850 O   0  0  0  0  0  0  0  0  0  0  0  0
   47.8930   34.5070   41.1760 C   0  0  1  0  0  0  0  0  0  0  0  0
   48.6320   35.8220   41.6410 C   0  0  0  0  0  0  0  0  0  0  0  0
   48.8680   34.5530   42.2910 C   0  0  2  0  0  0  0  0  0  0  0  0
   46.4310   34.5660   41.4710 C   0  0  0  0  0  0  0  0  0  0  0  0
   45.6610   34.3570   40.5390 O   0  0  0  0  0  0  0  0  0  0  0  0
   45.2760   36.0080   43.0840 C   0  0  0  0  0  0  0  0  0  0  0  0
   45.8660   34.8440   42.7420 C   0  0  0  0  0  0  0  0  0  0  0  0
   45.9130   33.8300   43.7520 C   0  0  0  0  0  0  0  0  0  0  0  0
   45.3870   34.0480   44.9810 N   0  0  0  0  0  0  0  0  0  0  0  0
   44.8060   35.2410   45.2690 C   0  0  0  0  0  0  0  0  0  0  0  0
   44.7560   36.1810   44.3470 N   0  0  0  0  0  0  0  0  0  0  0  0
   49.2900   31.7510   40.8020 O   0  0  0  0  0  0  0  0  0  0  0  0
   49.9210   31.7010   39.5790 C   0  0  0  0  0  0  0  0  0  0  0  0
   49.4110   31.9690   38.3110 C   0  0  0  0  0  0  0  0  0  0  0  0
   50.2230   31.8580   37.2140 C   0  0  0  0  0  0  0  0  0  0  0  0
   51.5150   31.4890   37.3590 N   0  0  0  0  0  0  0  0  0  0  0  0
   52.0120   31.2290   38.5840 C   0  0  0  0  0  0  0  0  0  0  0  0
   51.2180   31.3330   39.7020 N   0  0  0  0  0  0  0  0  0  0  0  0
   53.3760   30.8410   38.7130 N   0  0  0  0  0  0  0  0  0  0  0  0
   53.9620   29.9870   39.7270 C   0  0  0  0  0  0  0  0  0  0  0  0
   54.3330   28.6970   39.0010 C   0  0  0  0  0  0  0  0  0  0  0  0
   55.0700   28.9670   37.8000 N   0  0  0  0  0  0  0  0  0  0  0  0
   55.5120   30.3380   37.6640 C   0  0  0  0  0  0  0  0  0  0  0  0
   54.3570   31.3140   37.7570 C   0  0  0  0  0  0  0  0  0  0  0  0
   51.6015   31.5193   43.5300 H   0  0  0  0  0  0  0  0  0  0  0  0
   47.7886   33.8637   40.2899 H   0  0  0  0  0  0  0  0  0  0  0  0
   49.4102   36.2736   41.0082 H   0  0  0  0  0  0  0  0  0  0  0  0
   48.3212   36.8261   41.9654 H   0  0  0  0  0  0  0  0  0  0  0  0
   48.7947   34.1878   43.3260 H   0  0  0  0  0  0  0  0  0  0  0  0
   45.2100   36.8239   42.3492 H   0  0  0  0  0  0  0  0  0  0  0  0
   46.3825   32.8611   43.5268 H   0  0  0  0  0  0  0  0  0  0  0  0
   44.3794   35.4217   46.2667 H   0  0  0  0  0  0  0  0  0  0  0  0
   48.3595   32.2688   38.1912 H   0  0  0  0  0  0  0  0  0  0  0  0
   49.8225   32.0698   36.2117 H   0  0  0  0  0  0  0  0  0  0  0  0
   54.8579   30.4585   40.1572 H   0  0  0  0  0  0  0  0  0  0  0  0
   53.2678   29.8037   40.5604 H   0  0  0  0  0  0  0  0  0  0  0  0
   54.9493   28.0756   39.6673 H   0  0  0  0  0  0  0  0  0  0  0  0
   53.4049   28.1735   38.7280 H   0  0  0  0  0  0  0  0  0  0  0  0
   55.9008   28.3583   37.7884 H   0  0  0  0  0  0  0  0  0  0  0  0
   56.0022   30.4587   36.6867 H   0  0  0  0  0  0  0  0  0  0  0  0
   56.2098   30.5551   38.4861 H   0  0  0  0  0  0  0  0  0  0  0  0
   54.7356   32.2948   38.0804 H   0  0  0  0  0  0  0  0  0  0  0  0
   53.8813   31.4014   36.7690 H   0  0  0  0  0  0  0  0  0  0  0  0
  2  3  1  0
  2  1  2  0
  4  2  1  0
  4  7  1  0
  5  8  1  0
  5  6  1  0
  5  7  1  0
  6  7  1  0
  8 11  1  0
  9  8  2  0
 10 15  2  0
 11 10  1  0
 11 12  2  0
 12 13  1  0
 13 14  2  0
 15 14  1  0
 16  2  1  0
 17 22  1  0
 17 16  1  0
 18 17  2  0
 19 20  2  0
 19 18  1  0
 20 21  1  0
 21 23  1  0
 21 22  2  0
 23 24  1  0
 25 24  1  0
 26 25  1  0
 27 28  1  0
 27 26  1  0
 28 23  1  0
  3 29  1  0
  5 30  1  6
  6 31  1  0
  6 32  1  0
  7 33  1  1
 10 34  1  0
 12 35  1  0
 14 36  1  0
 18 37  1  0
 19 38  1  0
 24 39  1  0
 24 40  1  0
 25 41  1  0
 25 42  1  0
 26 43  1  0
 27 44  1  0
 27 45  1  0
 28 46  1  0
 28 47  1  0
M  ISO  8  29   3  30  13  31  13  32  13  33  13  34  14  35  14  36  14
M  ISO  8  37  14  38  14  39  13  40  13  41  13  42  13  43   5  44  13
M  ISO  3  45  13  46  13  47  13
M  END
>  <minimizedAffinity>  (1) 
-5.5720048

>  <minimizedRMSD>  (1) 
1.01994896

$$$$
