
     RDKit          3D

 32 34  0  0  1  0  0  0  0  0999 V2000
   46.3240   34.8560   43.2310 C   0  0  0  0  0  0  0  0  0  0  0  0
   45.3750   35.8840   43.5110 C   0  0  0  0  0  0  0  0  0  0  0  0
   44.6420   35.7300   44.6830 C   0  0  0  0  0  0  0  0  0  0  0  0
   44.8650   34.6470   45.4660 N   0  0  0  0  0  0  0  0  0  0  0  0
   45.7970   33.6930   45.1330 C   0  0  0  0  0  0  0  0  0  0  0  0
   46.5240   33.7810   44.0350 N   0  0  0  0  0  0  0  0  0  0  0  0
   45.9960   32.5360   46.0550 C   0  0  1  0  0  0  0  0  0  0  0  0
   46.8120   32.7410   47.3110 C   0  0  0  0  0  0  0  0  0  0  0  0
   45.3100   32.6640   47.3570 C   0  0  1  0  0  0  0  0  0  0  0  0
   44.7040   33.9460   47.7300 N   0  0  0  0  0  0  0  0  0  0  0  0
   47.0910   35.0320   42.0140 C   0  0  0  0  0  0  0  0  0  0  0  0
   48.0250   35.8990   41.8930 O   0  0  0  0  0  0  0  0  0  0  0  0
   45.8400   33.7250   40.2820 C   0  0  0  0  0  0  0  0  0  0  0  0
   46.9950   34.3260   40.7390 C   0  0  0  0  0  0  0  0  0  0  0  0
   48.1310   34.2550   39.9420 C   0  0  0  0  0  0  0  0  0  0  0  0
   48.1370   33.6080   38.7180 C   0  0  0  0  0  0  0  0  0  0  0  0
   46.9730   33.0100   38.2730 C   0  0  0  0  0  0  0  0  0  0  0  0
   45.8310   33.0750   39.0640 C   0  0  0  0  0  0  0  0  0  0  0  0
   43.7150   33.8390   41.7370 N   0  0  0  0  0  0  0  0  0  0  0  0
   44.6570   33.7870   41.0910 C   0  0  0  0  0  0  0  0  0  0  0  0
   45.2319   36.7450   42.8415 H   0  0  0  0  0  0  0  0  0  0  0  0
   43.8897   36.4791   44.9710 H   0  0  0  0  0  0  0  0  0  0  0  0
   46.0390   31.7957   45.2425 H   0  0  0  0  0  0  0  0  0  0  0  0
   47.4212   31.9194   47.7158 H   0  0  0  0  0  0  0  0  0  0  0  0
   47.5723   33.4623   47.6450 H   0  0  0  0  0  0  0  0  0  0  0  0
   44.5383   32.0471   47.8406 H   0  0  0  0  0  0  0  0  0  0  0  0
   44.6677   34.0228   48.7565 H   0  0  0  0  0  0  0  0  0  0  0  0
   45.2696   34.7173   47.3478 H   0  0  0  0  0  0  0  0  0  0  0  0
   49.0581   34.7295   40.2960 H   0  0  0  0  0  0  0  0  0  0  0  0
   49.0528   33.5705   38.1098 H   0  0  0  0  0  0  0  0  0  0  0  0
   46.9502   32.4888   37.3046 H   0  0  0  0  0  0  0  0  0  0  0  0
   44.9033   32.5997   38.7127 H   0  0  0  0  0  0  0  0  0  0  0  0
  1  2  2  0
  1  6  1  0
  2  3  1  0
  3  4  2  0
  5  4  1  0
  5  7  1  0
  6  5  2  0
  7  8  1  0
  7  9  1  0
  8  9  1  0
  9 10  1  0
 11  1  1  0
 12 11  2  0
 13 14  2  0
 13 20  1  0
 14 11  1  0
 15 14  1  0
 16 15  2  0
 17 16  1  0
 17 18  2  0
 18 13  1  0
 20 19  3  0
  2 21  1  0
  3 22  1  0
  7 23  1  6
  8 24  1  0
  8 25  1  0
  9 26  1  1
 10 27  1  0
 10 28  1  0
 15 29  1  0
 16 30  1  0
 17 31  1  0
 18 32  1  0
M  ISO  8  21  14  22  14  23  13  24  13  25  13  26  13  27   5  28   5
M  ISO  4  29  14  30  14  31  14  32  14
M  END
>  <minimizedAffinity>  (1) 
-5.80581808

>  <minimizedRMSD>  (1) 
0.683840632

$$$$
