
     RDKit          3D

 23 24  0  0  1  0  0  0  0  0999 V2000
   46.2330   34.7750   43.2100 C   0  0  0  0  0  0  0  0  0  0  0  0
   45.3080   35.7960   43.5040 C   0  0  0  0  0  0  0  0  0  0  0  0
   44.6150   35.6970   44.7190 C   0  0  0  0  0  0  0  0  0  0  0  0
   44.8760   34.6400   45.5200 N   0  0  0  0  0  0  0  0  0  0  0  0
   45.7960   33.6780   45.1640 C   0  0  0  0  0  0  0  0  0  0  0  0
   46.4720   33.7280   44.0310 N   0  0  0  0  0  0  0  0  0  0  0  0
   46.0470   32.5500   46.1160 C   0  0  1  0  0  0  0  0  0  0  0  0
   46.8340   32.8230   47.3790 C   0  0  0  0  0  0  0  0  0  0  0  0
   45.3380   32.6720   47.4070 C   0  0  1  0  0  0  0  0  0  0  0  0
   44.6910   33.9400   47.7550 N   0  0  0  0  0  0  0  0  0  0  0  0
   46.9280   34.9380   41.9500 C   0  0  0  0  0  0  0  0  0  0  0  0
   48.0590   35.5310   41.8400 O   0  0  0  0  0  0  0  0  0  0  0  0
   46.4310   34.4560   40.6870 N   0  0  0  0  0  0  0  0  0  0  0  0
   45.1370   36.6334   42.8115 H   0  0  0  0  0  0  0  0  0  0  0  0
   43.8784   36.4594   45.0125 H   0  0  0  0  0  0  0  0  0  0  0  0
   46.1413   31.7961   45.3205 H   0  0  0  0  0  0  0  0  0  0  0  0
   47.4775   32.0419   47.8101 H   0  0  0  0  0  0  0  0  0  0  0  0
   47.5526   33.5887   47.7068 H   0  0  0  0  0  0  0  0  0  0  0  0
   44.5847   32.0280   47.8844 H   0  0  0  0  0  0  0  0  0  0  0  0
   44.6442   34.0317   48.7798 H   0  0  0  0  0  0  0  0  0  0  0  0
   45.2361   34.7220   47.3649 H   0  0  0  0  0  0  0  0  0  0  0  0
   46.9777   34.6064   39.8271 H   0  0  0  0  0  0  0  0  0  0  0  0
   45.5288   33.9609   40.6437 H   0  0  0  0  0  0  0  0  0  0  0  0
  1  2  2  0
  1  6  1  0
  2  3  1  0
  3  4  2  0
  5  4  1  0
  5  7  1  0
  6  5  2  0
  7  8  1  0
  7  9  1  0
  8  9  1  0
  9 10  1  0
 11  1  1  0
 12 11  2  0
 13 11  1  0
  2 14  1  0
  3 15  1  0
  7 16  1  6
  8 17  1  0
  8 18  1  0
  9 19  1  1
 10 20  1  0
 10 21  1  0
 13 22  1  0
 13 23  1  0
M  ISO  8  14  14  15  14  16  13  17  13  18  13  19  13  20   5  21   5
M  END
>  <minimizedAffinity>  (1) 
-4.91030359

>  <minimizedRMSD>  (1) 
0.182999179

$$$$
