
     RDKit          3D

 34 36  0  0  1  0  0  0  0  0999 V2000
   44.5740   34.4200   42.9520 C   0  0  0  0  0  0  0  0  0  0  0  0
   44.3040   35.6900   43.5450 C   0  0  0  0  0  0  0  0  0  0  0  0
   44.6420   35.8130   44.8830 C   0  0  0  0  0  0  0  0  0  0  0  0
   45.1900   34.7510   45.5240 N   0  0  0  0  0  0  0  0  0  0  0  0
   45.4240   33.5610   44.9040 C   0  0  0  0  0  0  0  0  0  0  0  0
   45.1270   33.3770   43.6350 N   0  0  0  0  0  0  0  0  0  0  0  0
   46.0280   32.4620   45.6950 C   0  0  1  0  0  0  0  0  0  0  0  0
   46.9730   32.7910   46.8250 C   0  0  0  0  0  0  0  0  0  0  0  0
   45.5530   32.3690   47.0910 C   0  0  1  0  0  0  0  0  0  0  0  0
   44.7540   33.4320   47.6570 N   0  0  0  0  0  0  0  0  0  0  0  0
   44.2360   34.3000   41.5480 C   0  0  0  0  0  0  0  0  0  0  0  0
   45.1200   34.1140   40.6370 O   0  0  0  0  0  0  0  0  0  0  0  0
   41.9100   33.3600   41.3180 C   0  0  0  0  0  0  0  0  0  0  0  0
   42.7970   34.4160   41.3120 C   0  0  0  0  0  0  0  0  0  0  0  0
   42.2380   35.6750   41.0560 C   0  0  0  0  0  0  0  0  0  0  0  0
   40.8940   35.8840   40.8220 C   0  0  0  0  0  0  0  0  0  0  0  0
   40.0390   34.8020   40.8370 C   0  0  0  0  0  0  0  0  0  0  0  0
   40.5620   33.5490   41.0860 C   0  0  0  0  0  0  0  0  0  0  0  0
   42.5340   31.7670   41.6290 S   0  0  0  0  0  0  0  0  0  0  0  0
   42.5410   31.0250   40.3000 O   0  0  0  0  0  0  0  0  0  0  0  0
   41.6810   31.0050   42.5970 O   0  0  0  0  0  0  0  0  0  0  0  0
   43.8562   36.5181   42.9761 H   0  0  0  0  0  0  0  0  0  0  0  0
   44.4683   36.7585   45.4177 H   0  0  0  0  0  0  0  0  0  0  0  0
   46.1049   31.7911   44.8267 H   0  0  0  0  0  0  0  0  0  0  0  0
   47.8059   32.1138   47.0650 H   0  0  0  0  0  0  0  0  0  0  0  0
   47.6008   33.6519   47.0984 H   0  0  0  0  0  0  0  0  0  0  0  0
   45.0253   31.5696   47.6319 H   0  0  0  0  0  0  0  0  0  0  0  0
   44.7927   33.3805   48.6850 H   0  0  0  0  0  0  0  0  0  0  0  0
   45.1222   34.3418   47.3447 H   0  0  0  0  0  0  0  0  0  0  0  0
   42.9087   36.5467   41.0406 H   0  0  0  0  0  0  0  0  0  0  0  0
   40.5112   36.8966   40.6268 H   0  0  0  0  0  0  0  0  0  0  0  0
   38.9624   34.9347   40.6543 H   0  0  0  0  0  0  0  0  0  0  0  0
   39.8882   32.6796   41.0999 H   0  0  0  0  0  0  0  0  0  0  0  0
   43.7843   31.8752   42.1786 H   0  0  0  0  0  0  0  0  0  0  0  0
  1  2  2  0
  1  6  1  0
  2  3  1  0
  3  4  2  0
  5  4  1  0
  5  7  1  0
  6  5  2  0
  7  8  1  0
  7  9  1  0
  8  9  1  0
  9 10  1  0
 11  1  1  0
 12 11  2  0
 13 19  1  0
 14 13  2  0
 14 11  1  0
 15 14  1  0
 16 17  1  0
 16 15  2  0
 17 18  2  0
 18 13  1  0
 19 21  2  0
 20 19  2  0
  2 22  1  0
  3 23  1  0
  7 24  1  6
  8 25  1  0
  8 26  1  0
  9 27  1  1
 10 28  1  0
 10 29  1  0
 15 30  1  0
 16 31  1  0
 17 32  1  0
 18 33  1  0
 19 34  1  0
M  ISO  8  22  14  23  14  24  13  25  13  26  13  27  13  28   5  29   5
M  ISO  5  30  14  31  14  32  14  33  14  34  11
M  END
>  <minimizedAffinity>  (1) 
-5.78984356

>  <minimizedRMSD>  (1) 
3.13188243

$$$$
