
     RDKit          3D

 46 49  0  0  1  0  0  0  0  0999 V2000
   44.1610   34.1230   41.5000 C   0  0  0  0  0  0  0  0  0  0  0  0
   44.9980   33.7890   40.5940 O   0  0  0  0  0  0  0  0  0  0  0  0
   41.7990   33.3170   41.3520 C   0  0  0  0  0  0  0  0  0  0  0  0
   42.7300   34.3330   41.2710 C   0  0  0  0  0  0  0  0  0  0  0  0
   42.2880   35.6200   40.9640 C   0  0  0  0  0  0  0  0  0  0  0  0
   40.9470   35.8960   40.7430 C   0  0  0  0  0  0  0  0  0  0  0  0
   40.0210   34.8880   40.8230 C   0  0  0  0  0  0  0  0  0  0  0  0
   40.4690   33.6300   41.1250 C   0  0  0  0  0  0  0  0  0  0  0  0
   42.2520   31.7300   41.6490 S   0  0  0  0  0  0  0  0  0  0  0  0
   42.0700   31.0610   40.3140 O   0  0  0  0  0  0  0  0  0  0  0  0
   41.2520   31.1160   42.6610 O   0  0  0  0  0  0  0  0  0  0  0  0
   43.6810   30.3060   43.4200 N   0  0  0  0  0  0  0  0  0  0  0  0
   42.7500   29.2130   43.4730 C   0  0  0  0  0  0  0  0  0  0  0  0
   42.6330   28.7100   42.0780 C   0  0  0  0  0  0  0  0  0  0  0  0
   43.7160   29.5080   41.4100 C   0  0  0  0  0  0  0  0  0  0  0  0
   43.6180   30.9430   42.1190 C   0  0  1  0  0  0  0  0  0  0  0  0
   44.5360   34.3310   42.8720 C   0  0  0  0  0  0  0  0  0  0  0  0
   44.3030   35.6260   43.4160 C   0  0  0  0  0  0  0  0  0  0  0  0
   44.6590   35.8220   44.7440 C   0  0  0  0  0  0  0  0  0  0  0  0
   45.2000   34.7830   45.4330 N   0  0  0  0  0  0  0  0  0  0  0  0
   45.4060   33.5530   44.8650 C   0  0  0  0  0  0  0  0  0  0  0  0
   45.0690   33.3980   43.6400 N   0  0  0  0  0  0  0  0  0  0  0  0
   45.9930   32.4790   45.6890 C   0  0  1  0  0  0  0  0  0  0  0  0
   46.9300   32.8530   46.8170 C   0  0  0  0  0  0  0  0  0  0  0  0
   45.5140   32.4480   47.0970 C   0  0  1  0  0  0  0  0  0  0  0  0
   44.7300   33.5470   47.6210 N   0  0  0  0  0  0  0  0  0  0  0  0
   43.0217   36.4367   40.8955 H   0  0  0  0  0  0  0  0  0  0  0  0
   40.6271   36.9210   40.5041 H   0  0  0  0  0  0  0  0  0  0  0  0
   38.9525   35.0838   40.6501 H   0  0  0  0  0  0  0  0  0  0  0  0
   39.7284   32.8194   41.1913 H   0  0  0  0  0  0  0  0  0  0  0  0
   43.4429   30.9935   44.1491 H   0  0  0  0  0  0  0  0  0  0  0  0
   43.1278   28.4202   44.1353 H   0  0  0  0  0  0  0  0  0  0  0  0
   41.7752   29.5314   43.8709 H   0  0  0  0  0  0  0  0  0  0  0  0
   42.8286   27.6292   42.0179 H   0  0  0  0  0  0  0  0  0  0  0  0
   41.6349   28.8255   41.6304 H   0  0  0  0  0  0  0  0  0  0  0  0
   44.7023   29.0519   41.5809 H   0  0  0  0  0  0  0  0  0  0  0  0
   43.5961   29.5615   40.3179 H   0  0  0  0  0  0  0  0  0  0  0  0
   44.3215   31.7725   41.9548 H   0  0  0  0  0  0  0  0  0  0  0  0
   43.8618   36.4332   42.8129 H   0  0  0  0  0  0  0  0  0  0  0  0
   44.5063   36.7979   45.2281 H   0  0  0  0  0  0  0  0  0  0  0  0
   46.0676   31.7722   44.8494 H   0  0  0  0  0  0  0  0  0  0  0  0
   47.7599   32.1847   47.0902 H   0  0  0  0  0  0  0  0  0  0  0  0
   47.5569   33.7244   47.0573 H   0  0  0  0  0  0  0  0  0  0  0  0
   44.9790   31.6734   47.6661 H   0  0  0  0  0  0  0  0  0  0  0  0
   44.7482   33.5215   48.6505 H   0  0  0  0  0  0  0  0  0  0  0  0
   45.1267   34.4390   47.2926 H   0  0  0  0  0  0  0  0  0  0  0  0
  1 17  1  0
  2  1  2  0
  3  9  1  0
  4  3  1  0
  4  1  1  0
  5  4  2  0
  6  7  2  0
  6  5  1  0
  7  8  1  0
  8  3  2  0
  9 11  2  0
 10  9  2  0
 12 13  1  0
 14 13  1  0
 15 14  1  0
 15 16  1  0
 16  9  1  0
 16 12  1  0
 17 18  2  0
 17 22  1  0
 18 19  1  0
 19 20  2  0
 21 20  1  0
 21 23  1  0
 22 21  2  0
 23 24  1  0
 23 25  1  0
 24 25  1  0
 25 26  1  0
  5 27  1  0
  6 28  1  0
  7 29  1  0
  8 30  1  0
 12 31  1  0
 13 32  1  0
 13 33  1  0
 14 34  1  0
 14 35  1  0
 15 36  1  0
 15 37  1  0
 16 38  1  6
 18 39  1  0
 19 40  1  0
 23 41  1  6
 24 42  1  0
 24 43  1  0
 25 44  1  1
 26 45  1  0
 26 46  1  0
M  ISO  8  27  14  28  14  29  14  30  14  31   5  32  13  33  13  34  13
M  ISO  8  35  13  36  13  37  13  38  13  39  14  40  14  41  13  42  13
M  ISO  4  43  13  44  13  45   5  46   5
M  END
>  <minimizedAffinity>  (1) 
-6.03621244

>  <minimizedRMSD>  (1) 
0.423601508

$$$$
