
     RDKit          3D

 44 47  0  0  1  0  0  0  0  0999 V2000
   42.0100   33.2810   41.1010 C   0  0  0  0  0  0  0  0  0  0  0  0
   42.7690   34.3990   41.3010 C   0  0  0  0  0  0  0  0  0  0  0  0
   42.1200   35.6500   41.2920 C   0  0  0  0  0  0  0  0  0  0  0  0
   40.7660   35.7970   41.0940 C   0  0  0  0  0  0  0  0  0  0  0  0
   40.0130   34.6710   40.8960 C   0  0  0  0  0  0  0  0  0  0  0  0
   40.6350   33.4590   40.9020 C   0  0  0  0  0  0  0  0  0  0  0  0
   42.6380   31.7240   41.1980 S   0  0  0  0  0  0  0  0  0  0  0  0
   41.5010   30.9230   40.4810 O   0  0  0  0  0  0  0  0  0  0  0  0
   42.7260   31.2160   42.5900 O   0  0  0  0  0  0  0  0  0  0  0  0
   42.6660   32.6970   38.3040 Cl  0  0  0  0  0  0  0  0  0  0  0  0
   43.7460   31.3970   38.8570 C   0  0  0  0  0  0  0  0  0  0  0  0
   43.7210   30.9110   40.1960 C   0  0  0  0  0  0  0  0  0  0  0  0
   44.6610   29.9030   40.3550 C   0  0  0  0  0  0  0  0  0  0  0  0
   45.5600   29.3260   39.4910 C   0  0  0  0  0  0  0  0  0  0  0  0
   45.4340   29.9190   38.2710 C   0  0  0  0  0  0  0  0  0  0  0  0
   44.5880   30.9210   37.8840 C   0  0  0  0  0  0  0  0  0  0  0  0
   44.6200   31.5360   36.2470 Cl  0  0  0  0  0  0  0  0  0  0  0  0
   44.2040   34.3510   41.5190 C   0  0  0  0  0  0  0  0  0  0  0  0
   45.0660   34.2430   40.5990 O   0  0  0  0  0  0  0  0  0  0  0  0
   44.5670   34.4420   42.9140 C   0  0  0  0  0  0  0  0  0  0  0  0
   44.3120   35.7130   43.5400 C   0  0  0  0  0  0  0  0  0  0  0  0
   44.6500   35.8250   44.8750 C   0  0  0  0  0  0  0  0  0  0  0  0
   45.1930   34.7450   45.5020 N   0  0  0  0  0  0  0  0  0  0  0  0
   45.4140   33.5600   44.8550 C   0  0  0  0  0  0  0  0  0  0  0  0
   45.1040   33.4410   43.6100 N   0  0  0  0  0  0  0  0  0  0  0  0
   46.0060   32.4360   45.6170 C   0  0  1  0  0  0  0  0  0  0  0  0
   46.9690   32.7390   46.7430 C   0  0  0  0  0  0  0  0  0  0  0  0
   45.5510   32.3330   47.0210 C   0  0  1  0  0  0  0  0  0  0  0  0
   44.7700   33.4070   47.6160 N   0  0  0  0  0  0  0  0  0  0  0  0
   42.7260   36.5541   41.4512 H   0  0  0  0  0  0  0  0  0  0  0  0
   40.3008   36.7938   41.0948 H   0  0  0  0  0  0  0  0  0  0  0  0
   38.9272   34.7434   40.7352 H   0  0  0  0  0  0  0  0  0  0  0  0
   40.0180   32.5629   40.7402 H   0  0  0  0  0  0  0  0  0  0  0  0
   44.6927   29.4839   41.3715 H   0  0  0  0  0  0  0  0  0  0  0  0
   46.2644   28.5194   39.7425 H   0  0  0  0  0  0  0  0  0  0  0  0
   46.1067   29.5387   37.4881 H   0  0  0  0  0  0  0  0  0  0  0  0
   43.8703   36.5528   42.9835 H   0  0  0  0  0  0  0  0  0  0  0  0
   44.4841   36.7662   45.4196 H   0  0  0  0  0  0  0  0  0  0  0  0
   46.0584   31.7743   44.7398 H   0  0  0  0  0  0  0  0  0  0  0  0
   47.7959   32.0483   46.9648 H   0  0  0  0  0  0  0  0  0  0  0  0
   47.6106   33.5886   47.0196 H   0  0  0  0  0  0  0  0  0  0  0  0
   45.0204   31.5335   47.5588 H   0  0  0  0  0  0  0  0  0  0  0  0
   44.8193   33.3393   48.6426 H   0  0  0  0  0  0  0  0  0  0  0  0
   45.1491   34.3156   47.3133 H   0  0  0  0  0  0  0  0  0  0  0  0
  1  7  1  0
  1  2  1  0
  2 18  1  0
  3  2  2  0
  4  3  1  0
  5  6  1  0
  5  4  2  0
  6  1  2  0
  7  9  2  0
  8  7  2  0
 10 11  1  0
 11 12  2  0
 12 13  1  0
 12  7  1  0
 14 13  2  0
 15 14  1  0
 16 15  2  0
 16 11  1  0
 17 16  1  0
 18 20  1  0
 19 18  2  0
 20 21  2  0
 20 25  1  0
 21 22  1  0
 22 23  2  0
 24 23  1  0
 24 26  1  0
 25 24  2  0
 26 27  1  0
 26 28  1  0
 27 28  1  0
 28 29  1  0
  3 30  1  0
  4 31  1  0
  5 32  1  0
  6 33  1  0
 13 34  1  0
 14 35  1  0
 15 36  1  0
 21 37  1  0
 22 38  1  0
 26 39  1  6
 27 40  1  0
 27 41  1  0
 28 42  1  1
 29 43  1  0
 29 44  1  0
M  ISO  8  30  14  31  14  32  14  33  14  34  14  35  14  36  14  37  14
M  ISO  7  38  14  39  13  40  13  41  13  42  13  43   5  44   5
M  END
>  <minimizedAffinity>  (1) 
-6.02596188

>  <minimizedRMSD>  (1) 
1.52220428

$$$$
