
     RDKit          3D

 37 39  0  0  1  0  0  0  0  0999 V2000
   44.5130   34.2780   42.8770 C   0  0  0  0  0  0  0  0  0  0  0  0
   44.2920   35.5840   43.3910 C   0  0  0  0  0  0  0  0  0  0  0  0
   44.6780   35.8180   44.7090 C   0  0  0  0  0  0  0  0  0  0  0  0
   45.2310   34.7970   45.4110 N   0  0  0  0  0  0  0  0  0  0  0  0
   45.4240   33.5520   44.8700 C   0  0  0  0  0  0  0  0  0  0  0  0
   45.0630   33.3630   43.6580 N   0  0  0  0  0  0  0  0  0  0  0  0
   46.0260   32.4970   45.7110 C   0  0  1  0  0  0  0  0  0  0  0  0
   46.9530   32.8760   46.8310 C   0  0  0  0  0  0  0  0  0  0  0  0
   45.5340   32.4700   47.1120 C   0  0  1  0  0  0  0  0  0  0  0  0
   44.7160   33.5490   47.6190 N   0  0  0  0  0  0  0  0  0  0  0  0
   44.1020   34.0370   41.5200 C   0  0  0  0  0  0  0  0  0  0  0  0
   44.9090   33.6360   40.6170 O   0  0  0  0  0  0  0  0  0  0  0  0
   41.7190   33.3140   41.3150 C   0  0  0  0  0  0  0  0  0  0  0  0
   42.6740   34.3040   41.3070 C   0  0  0  0  0  0  0  0  0  0  0  0
   42.2690   35.6200   41.0930 C   0  0  0  0  0  0  0  0  0  0  0  0
   40.9370   35.9500   40.8900 C   0  0  0  0  0  0  0  0  0  0  0  0
   39.9830   34.9560   40.8990 C   0  0  0  0  0  0  0  0  0  0  0  0
   40.3870   33.6670   41.1090 C   0  0  0  0  0  0  0  0  0  0  0  0
   42.1310   31.6840   41.5070 S   0  0  0  0  0  0  0  0  0  0  0  0
   42.5920   31.2730   40.1280 O   0  0  0  0  0  0  0  0  0  0  0  0
   40.8710   30.8910   41.8820 O   0  0  0  0  0  0  0  0  0  0  0  0
   43.2530   30.9120   42.4270 C   0  0  0  0  0  0  0  0  0  0  0  0
   43.8368   36.3745   42.7762 H   0  0  0  0  0  0  0  0  0  0  0  0
   44.5378   36.8070   45.1696 H   0  0  0  0  0  0  0  0  0  0  0  0
   46.1170   31.7885   44.8745 H   0  0  0  0  0  0  0  0  0  0  0  0
   47.7832   32.2104   47.1097 H   0  0  0  0  0  0  0  0  0  0  0  0
   47.5781   33.7497   47.0674 H   0  0  0  0  0  0  0  0  0  0  0  0
   45.0054   31.6996   47.6926 H   0  0  0  0  0  0  0  0  0  0  0  0
   44.7275   33.5339   48.6488 H   0  0  0  0  0  0  0  0  0  0  0  0
   45.0891   34.4490   47.2847 H   0  0  0  0  0  0  0  0  0  0  0  0
   43.0256   36.4184   41.0848 H   0  0  0  0  0  0  0  0  0  0  0  0
   40.6447   36.9972   40.7231 H   0  0  0  0  0  0  0  0  0  0  0  0
   38.9208   35.1941   40.7409 H   0  0  0  0  0  0  0  0  0  0  0  0
   39.6261   32.8726   41.1156 H   0  0  0  0  0  0  0  0  0  0  0  0
   43.0251   31.0688   43.4916 H   0  0  0  0  0  0  0  0  0  0  0  0
   43.2333   29.8353   42.2026 H   0  0  0  0  0  0  0  0  0  0  0  0
   44.2515   31.3152   42.2026 H   0  0  0  0  0  0  0  0  0  0  0  0
  1  2  2  0
  1  6  1  0
  2  3  1  0
  3  4  2  0
  5  4  1  0
  5  7  1  0
  6  5  2  0
  7  8  1  0
  7  9  1  0
  8  9  1  0
  9 10  1  0
 11  1  1  0
 12 11  2  0
 13 19  1  0
 14 13  2  0
 14 11  1  0
 15 14  1  0
 16 17  1  0
 16 15  2  0
 17 18  2  0
 18 13  1  0
 19 21  2  0
 19 22  1  0
 20 19  2  0
  2 23  1  0
  3 24  1  0
  7 25  1  6
  8 26  1  0
  8 27  1  0
  9 28  1  1
 10 29  1  0
 10 30  1  0
 15 31  1  0
 16 32  1  0
 17 33  1  0
 18 34  1  0
 22 35  1  0
 22 36  1  0
 22 37  1  0
M  ISO  8  23  14  24  14  25  13  26  13  27  13  28  13  29   5  30   5
M  ISO  7  31  14  32  14  33  14  34  14  35   8  36   8  37   8
M  END
>  <minimizedAffinity>  (1) 
-5.77210093

>  <minimizedRMSD>  (1) 
0.366939068

$$$$
