
     RDKit          3D

 40 42  0  0  1  0  0  0  0  0999 V2000
   44.5320   34.3090   42.8840 C   0  0  0  0  0  0  0  0  0  0  0  0
   44.3040   35.6040   43.4180 C   0  0  0  0  0  0  0  0  0  0  0  0
   44.6720   35.8220   44.7430 C   0  0  0  0  0  0  0  0  0  0  0  0
   45.2210   34.7900   45.4350 N   0  0  0  0  0  0  0  0  0  0  0  0
   45.4230   33.5540   44.8770 C   0  0  0  0  0  0  0  0  0  0  0  0
   45.0760   33.3820   43.6580 N   0  0  0  0  0  0  0  0  0  0  0  0
   46.0180   32.4850   45.7100 C   0  0  1  0  0  0  0  0  0  0  0  0
   46.9480   32.8550   46.8360 C   0  0  0  0  0  0  0  0  0  0  0  0
   45.5320   32.4470   47.1060 C   0  0  1  0  0  0  0  0  0  0  0  0
   44.7200   33.5390   47.6280 N   0  0  0  0  0  0  0  0  0  0  0  0
   44.1390   34.0890   41.5200 C   0  0  0  0  0  0  0  0  0  0  0  0
   44.9600   33.7330   40.6130 O   0  0  0  0  0  0  0  0  0  0  0  0
   41.7640   33.3200   41.3430 C   0  0  0  0  0  0  0  0  0  0  0  0
   42.7050   34.3230   41.3040 C   0  0  0  0  0  0  0  0  0  0  0  0
   42.2720   35.6280   41.0540 C   0  0  0  0  0  0  0  0  0  0  0  0
   40.9360   35.9250   40.8480 C   0  0  0  0  0  0  0  0  0  0  0  0
   39.9980   34.9240   40.8870 C   0  0  0  0  0  0  0  0  0  0  0  0
   40.4280   33.6470   41.1330 C   0  0  0  0  0  0  0  0  0  0  0  0
   42.2030   31.7170   41.5720 S   0  0  0  0  0  0  0  0  0  0  0  0
   42.0810   31.0860   40.2110 O   0  0  0  0  0  0  0  0  0  0  0  0
   41.1860   31.0480   42.5300 O   0  0  0  0  0  0  0  0  0  0  0  0
   43.5740   30.9310   42.0430 C   0  0  0  0  0  0  0  0  0  0  0  0
   43.1790   29.7620   43.0220 C   0  0  0  0  0  0  0  0  0  0  0  0
   43.8548   36.4030   42.8098 H   0  0  0  0  0  0  0  0  0  0  0  0
   44.5222   36.8034   45.2167 H   0  0  0  0  0  0  0  0  0  0  0  0
   46.1026   31.7822   44.8680 H   0  0  0  0  0  0  0  0  0  0  0  0
   47.7777   32.1868   47.1100 H   0  0  0  0  0  0  0  0  0  0  0  0
   47.5734   33.7258   47.0821 H   0  0  0  0  0  0  0  0  0  0  0  0
   45.0002   31.6699   47.6745 H   0  0  0  0  0  0  0  0  0  0  0  0
   44.7363   33.5171   48.6576 H   0  0  0  0  0  0  0  0  0  0  0  0
   45.0998   34.4376   47.2976 H   0  0  0  0  0  0  0  0  0  0  0  0
   43.0126   36.4406   41.0200 H   0  0  0  0  0  0  0  0  0  0  0  0
   40.6263   36.9624   40.6532 H   0  0  0  0  0  0  0  0  0  0  0  0
   38.9318   35.1409   40.7254 H   0  0  0  0  0  0  0  0  0  0  0  0
   39.6806   32.8406   41.1662 H   0  0  0  0  0  0  0  0  0  0  0  0
   44.0846   30.5176   41.1607 H   0  0  0  0  0  0  0  0  0  0  0  0
   44.2502   31.6328   42.5531 H   0  0  0  0  0  0  0  0  0  0  0  0
   43.2934   30.1005   44.0623 H   0  0  0  0  0  0  0  0  0  0  0  0
   42.1330   29.4720   42.8437 H   0  0  0  0  0  0  0  0  0  0  0  0
   43.8348   28.8970   42.8437 H   0  0  0  0  0  0  0  0  0  0  0  0
  1  2  2  0
  1  6  1  0
  2  3  1  0
  3  4  2  0
  5  4  1  0
  5  7  1  0
  6  5  2  0
  7  8  1  0
  7  9  1  0
  8  9  1  0
  9 10  1  0
 11  1  1  0
 12 11  2  0
 13 19  1  0
 14 13  2  0
 14 11  1  0
 15 14  1  0
 16 17  1  0
 16 15  2  0
 17 18  2  0
 18 13  1  0
 19 22  1  0
 19 21  2  0
 20 19  2  0
 22 23  1  0
  2 24  1  0
  3 25  1  0
  7 26  1  6
  8 27  1  0
  8 28  1  0
  9 29  1  1
 10 30  1  0
 10 31  1  0
 15 32  1  0
 16 33  1  0
 17 34  1  0
 18 35  1  0
 22 36  1  0
 22 37  1  0
 23 38  1  0
 23 39  1  0
 23 40  1  0
M  ISO  8  24  14  25  14  26  13  27  13  28  13  29  13  30   5  31   5
M  ISO  8  32  14  33  14  34  14  35  14  36   8  37   8  38   8  39   8
M  ISO  1  40   8
M  END
>  <minimizedAffinity>  (1) 
-5.65023613

>  <minimizedRMSD>  (1) 
0.259817362

$$$$
