
     RDKit          3D

 42 45  0  0  1  0  0  0  0  0999 V2000
   48.9830   32.0920   43.3710 O   0  0  0  0  0  0  0  0  0  0  0  0
   50.0600   32.3110   42.3210 P   0  0  2  0  0  0  0  0  0  0  0  0
   51.4940   31.6090   42.7420 O   0  0  0  0  0  0  0  0  0  0  0  0
   50.1280   33.9750   42.0260 O   0  0  0  0  0  0  0  0  0  0  0  0
   47.8850   34.4790   41.1380 C   0  0  1  0  0  0  0  0  0  0  0  0
   48.6350   35.7780   41.6390 C   0  0  0  0  0  0  0  0  0  0  0  0
   48.8660   34.4940   42.2510 C   0  0  2  0  0  0  0  0  0  0  0  0
   46.4250   34.5420   41.4390 C   0  0  0  0  0  0  0  0  0  0  0  0
   45.6530   34.3290   40.5110 O   0  0  0  0  0  0  0  0  0  0  0  0
   45.2940   35.9890   43.0650 C   0  0  0  0  0  0  0  0  0  0  0  0
   45.8660   34.8270   42.7090 C   0  0  0  0  0  0  0  0  0  0  0  0
   45.8990   33.8080   43.7200 C   0  0  0  0  0  0  0  0  0  0  0  0
   45.3800   34.0280   44.9490 N   0  0  0  0  0  0  0  0  0  0  0  0
   44.8140   35.2280   45.2430 C   0  0  0  0  0  0  0  0  0  0  0  0
   44.7770   36.1710   44.3250 N   0  0  0  0  0  0  0  0  0  0  0  0
   49.3950   31.5720   40.8950 O   0  0  0  0  0  0  0  0  0  0  0  0
   49.9770   31.6410   39.6500 C   0  0  0  0  0  0  0  0  0  0  0  0
   49.4490   32.1200   38.4600 C   0  0  0  0  0  0  0  0  0  0  0  0
   50.2080   32.1020   37.3070 C   0  0  0  0  0  0  0  0  0  0  0  0
   51.4760   31.6080   37.3520 N   0  0  0  0  0  0  0  0  0  0  0  0
   51.9810   31.1440   38.5090 C   0  0  0  0  0  0  0  0  0  0  0  0
   51.2570   31.1460   39.6750 N   0  0  0  0  0  0  0  0  0  0  0  0
   53.3470   30.6290   38.4870 C   0  0  0  0  0  0  0  0  0  0  0  0
   54.2640   30.9200   37.4990 C   0  0  0  0  0  0  0  0  0  0  0  0
   55.5530   30.4230   37.4940 C   0  0  0  0  0  0  0  0  0  0  0  0
   55.9170   29.5900   38.5530 C   0  0  0  0  0  0  0  0  0  0  0  0
   54.9870   29.3030   39.5430 C   0  0  0  0  0  0  0  0  0  0  0  0
   53.7280   29.8230   39.4940 N   0  0  0  0  0  0  0  0  0  0  0  0
   51.5668   31.5733   43.7287 H   0  0  0  0  0  0  0  0  0  0  0  0
   47.7735   33.8583   40.2367 H   0  0  0  0  0  0  0  0  0  0  0  0
   49.4136   36.2429   41.0164 H   0  0  0  0  0  0  0  0  0  0  0  0
   48.3308   36.7741   41.9928 H   0  0  0  0  0  0  0  0  0  0  0  0
   48.7961   34.1058   43.2779 H   0  0  0  0  0  0  0  0  0  0  0  0
   45.2384   36.8097   42.3347 H   0  0  0  0  0  0  0  0  0  0  0  0
   46.3537   32.8329   43.4911 H   0  0  0  0  0  0  0  0  0  0  0  0
   44.3896   35.4102   46.2413 H   0  0  0  0  0  0  0  0  0  0  0  0
   48.4228   32.5152   38.4350 H   0  0  0  0  0  0  0  0  0  0  0  0
   49.7929   32.4826   36.3621 H   0  0  0  0  0  0  0  0  0  0  0  0
   53.9542   31.5797   36.6751 H   0  0  0  0  0  0  0  0  0  0  0  0
   56.2615   30.6729   36.6905 H   0  0  0  0  0  0  0  0  0  0  0  0
   56.9304   29.1652   38.6027 H   0  0  0  0  0  0  0  0  0  0  0  0
   55.2702   28.6465   40.3790 H   0  0  0  0  0  0  0  0  0  0  0  0
  2  3  1  0
  2  1  2  0
  4  7  1  0
  4  2  1  0
  5  8  1  0
  5  6  1  0
  5  7  1  0
  6  7  1  0
  8 11  1  0
  9  8  2  0
 10 15  2  0
 11 10  1  0
 11 12  2  0
 12 13  1  0
 13 14  2  0
 15 14  1  0
 16  2  1  0
 17 22  1  0
 17 16  1  0
 18 17  2  0
 19 20  2  0
 19 18  1  0
 20 21  1  0
 21 22  2  0
 23 21  1  0
 23 28  1  0
 24 23  2  0
 25 24  1  0
 25 26  2  0
 26 27  1  0
 28 27  2  0
  3 29  1  0
  5 30  1  6
  6 31  1  0
  6 32  1  0
  7 33  1  1
 10 34  1  0
 12 35  1  0
 14 36  1  0
 18 37  1  0
 19 38  1  0
 24 39  1  0
 25 40  1  0
 26 41  1  0
 27 42  1  0
M  ISO  8  29   3  30  13  31  13  32  13  33  13  34  14  35  14  36  14
M  ISO  6  37  14  38  14  39  14  40  14  41  14  42  14
M  END
>  <minimizedAffinity>  (1) 
-5.39341211

>  <minimizedRMSD>  (1) 
1.17715454

$$$$
