
     RDKit          3D

 36 38  0  0  1  0  0  0  0  0999 V2000
   47.8590   34.5030   41.1850 C   0  0  1  0  0  0  0  0  0  0  0  0
   48.6050   35.8170   41.6510 C   0  0  0  0  0  0  0  0  0  0  0  0
   48.8370   34.5490   42.2980 C   0  0  2  0  0  0  0  0  0  0  0  0
   46.3980   34.5680   41.4820 C   0  0  0  0  0  0  0  0  0  0  0  0
   45.6250   34.3610   40.5540 O   0  0  0  0  0  0  0  0  0  0  0  0
   45.2620   36.0140   43.1060 C   0  0  0  0  0  0  0  0  0  0  0  0
   45.8360   34.8500   42.7550 C   0  0  0  0  0  0  0  0  0  0  0  0
   45.8760   33.8330   43.7640 C   0  0  0  0  0  0  0  0  0  0  0  0
   45.3580   34.0500   44.9930 N   0  0  0  0  0  0  0  0  0  0  0  0
   44.7900   35.2480   45.2900 C   0  0  0  0  0  0  0  0  0  0  0  0
   44.7480   36.1930   44.3690 N   0  0  0  0  0  0  0  0  0  0  0  0
   50.1010   34.0260   42.0900 O   0  0  0  0  0  0  0  0  0  0  0  0
   48.9280   32.0780   43.3110 O   0  0  0  0  0  0  0  0  0  0  0  0
   50.0000   32.3480   42.2640 P   0  0  2  0  0  0  0  0  0  0  0  0
   51.4170   31.5780   42.6150 O   0  0  0  0  0  0  0  0  0  0  0  0
   49.3000   31.7310   40.7980 O   0  0  0  0  0  0  0  0  0  0  0  0
   49.9530   31.6880   39.5890 C   0  0  0  0  0  0  0  0  0  0  0  0
   49.4460   31.8800   38.3120 C   0  0  0  0  0  0  0  0  0  0  0  0
   50.2820   31.7940   37.2150 C   0  0  0  0  0  0  0  0  0  0  0  0
   51.5990   31.5200   37.3990 N   0  0  0  0  0  0  0  0  0  0  0  0
   52.0820   31.3340   38.6550 C   0  0  0  0  0  0  0  0  0  0  0  0
   51.2780   31.4140   39.7510 N   0  0  0  0  0  0  0  0  0  0  0  0
   53.5430   31.0340   38.8060 C   0  0  0  0  0  0  0  0  0  0  0  0
   53.8790   31.0590   40.1530 F   0  0  0  0  0  0  0  0  0  0  0  0
   53.7840   29.7740   38.2950 F   0  0  0  0  0  0  0  0  0  0  0  0
   54.2820   31.9520   38.0860 F   0  0  0  0  0  0  0  0  0  0  0  0
   47.7505   33.8590   40.2999 H   0  0  0  0  0  0  0  0  0  0  0  0
   49.3837   36.2664   41.0173 H   0  0  0  0  0  0  0  0  0  0  0  0
   48.2985   36.8219   41.9770 H   0  0  0  0  0  0  0  0  0  0  0  0
   48.7656   34.1879   43.3346 H   0  0  0  0  0  0  0  0  0  0  0  0
   45.2028   36.8331   42.3741 H   0  0  0  0  0  0  0  0  0  0  0  0
   46.3357   32.8604   43.5343 H   0  0  0  0  0  0  0  0  0  0  0  0
   44.3685   35.4291   46.2898 H   0  0  0  0  0  0  0  0  0  0  0  0
   51.5259   31.5188   43.5972 H   0  0  0  0  0  0  0  0  0  0  0  0
   48.3775   32.1009   38.1725 H   0  0  0  0  0  0  0  0  0  0  0  0
   49.8837   31.9463   36.2010 H   0  0  0  0  0  0  0  0  0  0  0  0
  1  4  1  0
  1  2  1  0
  1  3  1  0
  2  3  1  0
  4  7  1  0
  5  4  2  0
  6 11  2  0
  7  6  1  0
  7  8  2  0
  8  9  1  0
  9 10  2  0
 11 10  1  0
 12 14  1  0
 12  3  1  0
 14 15  1  0
 14 13  2  0
 16 14  1  0
 17 22  1  0
 17 16  1  0
 18 17  2  0
 19 20  2  0
 19 18  1  0
 20 21  1  0
 21 23  1  0
 21 22  2  0
 23 24  1  0
 25 23  1  0
 26 23  1  0
  1 27  1  6
  2 28  1  0
  2 29  1  0
  3 30  1  1
  6 31  1  0
  8 32  1  0
 10 33  1  0
 15 34  1  0
 18 35  1  0
 19 36  1  0
M  ISO  8  27  13  28  13  29  13  30  13  31  14  32  14  33  14  34   3
M  ISO  2  35  14  36  14
M  END
>  <minimizedAffinity>  (1) 
-5.38674879

>  <minimizedRMSD>  (1) 
0.775831223

$$$$
