
     RDKit          3D

 32 34  0  0  0  0  0  0  0  0999 V2000
   46.2490   35.2400   42.7520 C   0  0  0  0  0  0  0  0  0  0  0  0
   46.8250   34.0220   43.1600 C   0  0  0  0  0  0  0  0  0  0  0  0
   46.3740   33.4780   44.3620 C   0  0  0  0  0  0  0  0  0  0  0  0
   45.4200   34.1160   45.0870 N   0  0  0  0  0  0  0  0  0  0  0  0
   44.8930   35.2880   44.6540 C   0  0  0  0  0  0  0  0  0  0  0  0
   45.3140   35.8310   43.4940 N   0  0  0  0  0  0  0  0  0  0  0  0
   46.9180   32.2520   44.8920 C   0  0  0  0  0  0  0  0  0  0  0  0
   47.6680   31.3100   44.2240 C   0  0  0  0  0  0  0  0  0  0  0  0
   48.1210   30.1440   44.7940 C   0  0  0  0  0  0  0  0  0  0  0  0
   47.8360   29.8510   46.1120 C   0  0  0  0  0  0  0  0  0  0  0  0
   47.0740   30.8020   46.8100 C   0  0  0  0  0  0  0  0  0  0  0  0
   46.7980   30.5240   48.1290 C   0  0  0  0  0  0  0  0  0  0  0  0
   46.0660   31.4040   48.8990 C   0  0  0  0  0  0  0  0  0  0  0  0
   45.6030   32.5850   48.3330 C   0  0  0  0  0  0  0  0  0  0  0  0
   45.8830   32.8680   46.9890 C   0  0  0  0  0  0  0  0  0  0  0  0
   46.6310   31.9570   46.2270 C   0  0  0  0  0  0  0  0  0  0  0  0
   47.7850   33.4530   42.3610 O   0  0  0  0  0  0  0  0  0  0  0  0
   50.3120   33.2930   41.6100 O   0  0  0  0  0  0  0  0  0  0  0  0
   49.2630   34.2650   42.0230 P   0  0  0  0  0  0  0  0  0  0  0  0
   49.0790   35.3750   40.7510 O   0  0  0  0  0  0  0  0  0  0  0  0
   49.7790   35.1090   43.3890 O   0  0  0  0  0  0  0  0  0  0  0  0
   46.5743   35.7082   41.8113 H   0  0  0  0  0  0  0  0  0  0  0  0
   44.1209   35.7964   45.2501 H   0  0  0  0  0  0  0  0  0  0  0  0
   47.9199   31.5021   43.1706 H   0  0  0  0  0  0  0  0  0  0  0  0
   48.7155   29.4388   44.1946 H   0  0  0  0  0  0  0  0  0  0  0  0
   48.1862   28.9240   46.5894 H   0  0  0  0  0  0  0  0  0  0  0  0
   47.1657   29.5882   48.5752 H   0  0  0  0  0  0  0  0  0  0  0  0
   45.8507   31.1723   49.9526 H   0  0  0  0  0  0  0  0  0  0  0  0
   45.0191   33.2952   48.9369 H   0  0  0  0  0  0  0  0  0  0  0  0
   45.5180   33.8003   46.5333 H   0  0  0  0  0  0  0  0  0  0  0  0
   48.9289   36.2804   41.1222 H   0  0  0  0  0  0  0  0  0  0  0  0
   49.4856   34.6292   44.2037 H   0  0  0  0  0  0  0  0  0  0  0  0
  1  2  2  0
  1  6  1  0
  2  3  1  0
  3  7  1  0
  3  4  2  0
  5  4  1  0
  6  5  2  0
  7 16  2  0
  8  9  2  0
  8  7  1  0
  9 10  1  0
 10 11  2  0
 11 12  1  0
 12 13  2  0
 14 13  1  0
 15 14  2  0
 16 11  1  0
 16 15  1  0
 17  2  1  0
 18 19  2  0
 19 17  1  0
 19 21  1  0
 20 19  1  0
  1 22  1  0
  5 23  1  0
  8 24  1  0
  9 25  1  0
 10 26  1  0
 12 27  1  0
 13 28  1  0
 14 29  1  0
 15 30  1  0
 20 31  1  0
 21 32  1  0
M  ISO  8  22  14  23  14  24  14  25  14  26  14  27  14  28  14  29  14
M  ISO  3  30  14  31   3  32   3
M  END
>  <minimizedAffinity>  (1) 
-6.2126646

>  <minimizedRMSD>  (1) 
0.742842197

$$$$
