
     RDKit          3D

 46 49  0  0  0  0  0  0  0  0999 V2000
   45.2070   35.7640   42.9920 C   0  0  0  0  0  0  0  0  0  0  0  0
   45.5200   34.4150   43.0490 C   0  0  0  0  0  0  0  0  0  0  0  0
   45.3710   33.7250   44.2260 C   0  0  0  0  0  0  0  0  0  0  0  0
   44.9020   34.4350   45.3140 N   0  0  0  0  0  0  0  0  0  0  0  0
   44.6010   35.7300   45.2530 C   0  0  0  0  0  0  0  0  0  0  0  0
   44.7600   36.3840   44.0830 N   0  0  0  0  0  0  0  0  0  0  0  0
   45.6470   32.3550   44.4460 C   0  0  0  0  0  0  0  0  0  0  0  0
   45.2610   31.3300   43.5770 C   0  0  0  0  0  0  0  0  0  0  0  0
   45.4660   29.9960   43.8220 C   0  0  0  0  0  0  0  0  0  0  0  0
   46.0880   29.6060   44.9850 C   0  0  0  0  0  0  0  0  0  0  0  0
   46.4950   30.6340   45.8860 C   0  0  0  0  0  0  0  0  0  0  0  0
   47.1140   30.2540   47.0420 C   0  0  0  0  0  0  0  0  0  0  0  0
   47.5360   31.2020   47.9540 C   0  0  0  0  0  0  0  0  0  0  0  0
   47.3210   32.5620   47.6820 C   0  0  0  0  0  0  0  0  0  0  0  0
   46.6780   32.9010   46.4770 C   0  0  0  0  0  0  0  0  0  0  0  0
   46.2690   31.9380   45.5950 C   0  0  0  0  0  0  0  0  0  0  0  0
   45.9680   33.8310   41.8990 O   0  0  0  0  0  0  0  0  0  0  0  0
   48.0730   32.3960   41.2960 O   0  0  0  0  0  0  0  0  0  0  0  0
   47.5890   33.7980   41.4050 P   0  0  1  0  0  0  0  0  0  0  0  0
   47.7680   34.5060   39.8790 O   0  0  0  0  0  0  0  0  0  0  0  0
   47.5520   33.8470   38.6840 C   0  0  0  0  0  0  0  0  0  0  0  0
   46.4500   33.0710   38.3990 C   0  0  0  0  0  0  0  0  0  0  0  0
   46.3540   32.4620   37.1570 C   0  0  0  0  0  0  0  0  0  0  0  0
   47.3290   32.6020   36.1810 C   0  0  0  0  0  0  0  0  0  0  0  0
   48.4340   33.3950   36.4970 C   0  0  0  0  0  0  0  0  0  0  0  0
   48.5350   34.0020   37.7280 C   0  0  0  0  0  0  0  0  0  0  0  0
   48.4960   34.6690   42.5130 O   0  0  0  0  0  0  0  0  0  0  0  0
   49.7140   35.2890   42.2830 C   0  0  0  0  0  0  0  0  0  0  0  0
   49.4190   36.3820   41.7700 O   0  0  0  0  0  0  0  0  0  0  0  0
   50.8070   34.4520   42.7160 N   0  0  0  0  0  0  0  0  0  0  0  0
   45.3271   36.3199   42.0505 H   0  0  0  0  0  0  0  0  0  0  0  0
   44.2284   36.2592   46.1424 H   0  0  0  0  0  0  0  0  0  0  0  0
   44.7616   31.6109   42.6380 H   0  0  0  0  0  0  0  0  0  0  0  0
   45.1348   29.2424   43.0924 H   0  0  0  0  0  0  0  0  0  0  0  0
   46.2645   28.5441   45.2112 H   0  0  0  0  0  0  0  0  0  0  0  0
   47.2778   29.1861   47.2486 H   0  0  0  0  0  0  0  0  0  0  0  0
   48.0357   30.8939   48.8843 H   0  0  0  0  0  0  0  0  0  0  0  0
   47.6453   33.3395   48.3894 H   0  0  0  0  0  0  0  0  0  0  0  0
   46.5008   33.9603   46.2396 H   0  0  0  0  0  0  0  0  0  0  0  0
   45.6556   32.9361   39.1479 H   0  0  0  0  0  0  0  0  0  0  0  0
   45.4707   31.8442   36.9376 H   0  0  0  0  0  0  0  0  0  0  0  0
   47.2361   32.1102   35.2014 H   0  0  0  0  0  0  0  0  0  0  0  0
   49.2326   33.5361   35.7538 H   0  0  0  0  0  0  0  0  0  0  0  0
   49.4152   34.6219   37.9539 H   0  0  0  0  0  0  0  0  0  0  0  0
   51.7784   34.7777   42.6100 H   0  0  0  0  0  0  0  0  0  0  0  0
   50.6157   33.5289   43.1310 H   0  0  0  0  0  0  0  0  0  0  0  0
  1  2  2  0
  1  6  1  0
  2  3  1  0
  3  7  1  0
  3  4  2  0
  5  4  1  0
  6  5  2  0
  7 16  2  0
  8  9  2  0
  8  7  1  0
  9 10  1  0
 10 11  2  0
 11 12  1  0
 12 13  2  0
 14 13  1  0
 15 14  2  0
 16 11  1  0
 16 15  1  0
 17  2  1  0
 19 18  2  0
 19 17  1  0
 19 27  1  0
 20 19  1  0
 21 20  1  0
 22 21  2  0
 23 22  1  0
 24 25  1  0
 24 23  2  0
 25 26  2  0
 26 21  1  0
 28 27  1  0
 28 30  1  0
 29 28  2  0
  1 31  1  0
  5 32  1  0
  8 33  1  0
  9 34  1  0
 10 35  1  0
 12 36  1  0
 13 37  1  0
 14 38  1  0
 15 39  1  0
 22 40  1  0
 23 41  1  0
 24 42  1  0
 25 43  1  0
 26 44  1  0
 30 45  1  0
 30 46  1  0
M  ISO  8  31  14  32  14  33  14  34  14  35  14  36  14  37  14  38  14
M  ISO  6  39  14  40  14  41  14  42  14  43  14  44  14
M  END
>  <minimizedAffinity>  (1) 
-6.36352348

>  <minimizedRMSD>  (1) 
0.873699844

$$$$
