
     RDKit          3D

 50 53  0  0  1  0  0  0  0  0999 V2000
   45.2420   35.7750   43.0200 C   0  0  0  0  0  0  0  0  0  0  0  0
   45.5340   34.4220   43.0870 C   0  0  0  0  0  0  0  0  0  0  0  0
   45.3420   33.7320   44.2590 C   0  0  0  0  0  0  0  0  0  0  0  0
   44.8540   34.4510   45.3320 N   0  0  0  0  0  0  0  0  0  0  0  0
   44.5770   35.7520   45.2610 C   0  0  0  0  0  0  0  0  0  0  0  0
   44.7760   36.4010   44.0960 N   0  0  0  0  0  0  0  0  0  0  0  0
   45.5910   32.3590   44.4890 C   0  0  0  0  0  0  0  0  0  0  0  0
   45.1690   31.3340   43.6400 C   0  0  0  0  0  0  0  0  0  0  0  0
   45.3510   29.9990   43.8940 C   0  0  0  0  0  0  0  0  0  0  0  0
   45.9850   29.6060   45.0460 C   0  0  0  0  0  0  0  0  0  0  0  0
   46.4280   30.6380   45.9290 C   0  0  0  0  0  0  0  0  0  0  0  0
   47.0600   30.2530   47.0820 C   0  0  0  0  0  0  0  0  0  0  0  0
   47.5150   31.1990   47.9760 C   0  0  0  0  0  0  0  0  0  0  0  0
   47.3230   32.5590   47.6940 C   0  0  0  0  0  0  0  0  0  0  0  0
   46.6680   32.9030   46.4980 C   0  0  0  0  0  0  0  0  0  0  0  0
   46.2250   31.9420   45.6320 C   0  0  0  0  0  0  0  0  0  0  0  0
   46.0060   33.8270   41.9480 O   0  0  0  0  0  0  0  0  0  0  0  0
   48.0690   32.2330   41.6990 O   0  0  0  0  0  0  0  0  0  0  0  0
   47.6460   33.6510   41.5620 P   0  0  1  0  0  0  0  0  0  0  0  0
   47.9390   34.1060   39.9590 O   0  0  0  0  0  0  0  0  0  0  0  0
   45.7720   33.7630   39.0970 N   0  0  0  0  0  0  0  0  0  0  0  0
   47.1960   33.4000   39.0500 C   0  0  1  0  0  0  0  0  0  0  0  0
   47.6730   33.7440   37.6540 C   0  0  0  0  0  0  0  0  0  0  0  0
   46.5520   34.0610   36.7570 N   0  0  0  0  0  0  0  0  0  0  0  0
   45.6430   32.9320   36.8390 C   0  0  0  0  0  0  0  0  0  0  0  0
   45.1220   32.7490   38.2540 C   0  0  0  0  0  0  0  0  0  0  0  0
   48.5330   34.6520   42.5780 O   0  0  0  0  0  0  0  0  0  0  0  0
   49.7410   35.2670   42.2890 C   0  0  0  0  0  0  0  0  0  0  0  0
   49.4270   36.3470   41.7570 O   0  0  0  0  0  0  0  0  0  0  0  0
   50.8480   34.4410   42.7030 N   0  0  0  0  0  0  0  0  0  0  0  0
   45.3950   36.3279   42.0815 H   0  0  0  0  0  0  0  0  0  0  0  0
   44.1915   36.2891   46.1401 H   0  0  0  0  0  0  0  0  0  0  0  0
   44.6578   31.6156   42.7076 H   0  0  0  0  0  0  0  0  0  0  0  0
   44.9904   29.2462   43.1776 H   0  0  0  0  0  0  0  0  0  0  0  0
   46.1450   28.5430   45.2792 H   0  0  0  0  0  0  0  0  0  0  0  0
   47.2052   29.1837   47.2956 H   0  0  0  0  0  0  0  0  0  0  0  0
   48.0235   30.8899   48.9011 H   0  0  0  0  0  0  0  0  0  0  0  0
   47.6750   33.3355   48.3891 H   0  0  0  0  0  0  0  0  0  0  0  0
   46.5092   33.9640   46.2549 H   0  0  0  0  0  0  0  0  0  0  0  0
   45.4146   33.7213   40.0621 H   0  0  0  0  0  0  0  0  0  0  0  0
   47.3159   32.3340   39.2936 H   0  0  0  0  0  0  0  0  0  0  0  0
   48.3412   34.6159   37.7107 H   0  0  0  0  0  0  0  0  0  0  0  0
   48.1997   32.8683   37.2470 H   0  0  0  0  0  0  0  0  0  0  0  0
   46.8891   34.1798   35.7910 H   0  0  0  0  0  0  0  0  0  0  0  0
   44.7927   33.1059   36.1631 H   0  0  0  0  0  0  0  0  0  0  0  0
   46.1894   32.0226   36.5483 H   0  0  0  0  0  0  0  0  0  0  0  0
   44.0309   32.8872   38.2736 H   0  0  0  0  0  0  0  0  0  0  0  0
   45.3457   31.7368   38.6221 H   0  0  0  0  0  0  0  0  0  0  0  0
   51.8149   34.7635   42.5546 H   0  0  0  0  0  0  0  0  0  0  0  0
   50.6719   33.5285   43.1471 H   0  0  0  0  0  0  0  0  0  0  0  0
  1  2  2  0
  1  6  1  0
  2  3  1  0
  3  7  1  0
  3  4  2  0
  5  4  1  0
  6  5  2  0
  7 16  2  0
  8  9  2  0
  8  7  1  0
  9 10  1  0
 10 11  2  0
 11 12  1  0
 12 13  2  0
 14 13  1  0
 15 14  2  0
 16 11  1  0
 16 15  1  0
 17  2  1  0
 19 18  2  0
 19 17  1  0
 19 27  1  0
 20 19  1  0
 22 21  1  0
 22 20  1  0
 23 22  1  0
 24 25  1  0
 24 23  1  0
 25 26  1  0
 26 21  1  0
 28 27  1  0
 28 30  1  0
 29 28  2  0
  1 31  1  0
  5 32  1  0
  8 33  1  0
  9 34  1  0
 10 35  1  0
 12 36  1  0
 13 37  1  0
 14 38  1  0
 15 39  1  0
 21 40  1  0
 22 41  1  1
 23 42  1  0
 23 43  1  0
 24 44  1  0
 25 45  1  0
 25 46  1  0
 26 47  1  0
 26 48  1  0
 30 49  1  0
 30 50  1  0
M  ISO  8  31  14  32  14  33  14  34  14  35  14  36  14  37  14  38  14
M  ISO  8  39  14  40   5  41  13  42  13  43  13  44   5  45  13  46  13
M  ISO  2  47  13  48  13
M  END
>  <minimizedAffinity>  (1) 
-6.60402584

>  <minimizedRMSD>  (1) 
1.40995324

$$$$
