
     RDKit          3D

 50 53  0  0  0  0  0  0  0  0999 V2000
   45.0540   35.4420   43.3610 C   0  0  0  0  0  0  0  0  0  0  0  0
   45.5010   34.1220   43.3980 C   0  0  0  0  0  0  0  0  0  0  0  0
   45.4960   33.4430   44.5920 C   0  0  0  0  0  0  0  0  0  0  0  0
   45.0370   34.1190   45.7040 N   0  0  0  0  0  0  0  0  0  0  0  0
   44.6120   35.3800   45.6570 C   0  0  0  0  0  0  0  0  0  0  0  0
   44.6270   36.0310   44.4740 N   0  0  0  0  0  0  0  0  0  0  0  0
   45.9150   32.1090   44.8020 C   0  0  0  0  0  0  0  0  0  0  0  0
   45.6380   31.0530   43.9290 C   0  0  0  0  0  0  0  0  0  0  0  0
   45.9840   29.7490   44.1630 C   0  0  0  0  0  0  0  0  0  0  0  0
   46.6470   29.4170   45.3200 C   0  0  0  0  0  0  0  0  0  0  0  0
   46.9390   30.4700   46.2170 C   0  0  0  0  0  0  0  0  0  0  0  0
   47.6000   30.1570   47.3830 C   0  0  0  0  0  0  0  0  0  0  0  0
   47.9170   31.1340   48.3030 C   0  0  0  0  0  0  0  0  0  0  0  0
   47.5590   32.4660   48.0400 C   0  0  0  0  0  0  0  0  0  0  0  0
   46.8830   32.7450   46.8390 C   0  0  0  0  0  0  0  0  0  0  0  0
   46.5800   31.7540   45.9480 C   0  0  0  0  0  0  0  0  0  0  0  0
   45.9220   33.5750   42.2270 O   0  0  0  0  0  0  0  0  0  0  0  0
   48.2400   32.6080   41.4980 O   0  0  0  0  0  0  0  0  0  0  0  0
   47.4360   33.8560   41.5160 P   0  0  1  0  0  0  0  0  0  0  0  0
   47.2610   34.3770   39.9260 O   0  0  0  0  0  0  0  0  0  0  0  0
   47.8330   33.5630   38.9850 C   0  0  0  0  0  0  0  0  0  0  0  0
   46.9170   32.4800   38.4520 C   0  0  0  0  0  0  0  0  0  0  0  0
   46.2990   33.0550   37.1940 C   0  0  0  0  0  0  0  0  0  0  0  0
   47.2750   33.0470   36.2020 O   0  0  0  0  0  0  0  0  0  0  0  0
   48.5340   33.3460   36.6830 C   0  0  0  0  0  0  0  0  0  0  0  0
   48.5020   34.3200   37.8610 C   0  0  0  0  0  0  0  0  0  0  0  0
   48.2070   35.0630   42.3940 O   0  0  0  0  0  0  0  0  0  0  0  0
   49.5030   35.5210   42.2140 C   0  0  0  0  0  0  0  0  0  0  0  0
   49.3840   36.5270   41.4910 O   0  0  0  0  0  0  0  0  0  0  0  0
   50.4450   34.6820   42.9100 N   0  0  0  0  0  0  0  0  0  0  0  0
   45.0546   35.9963   42.4109 H   0  0  0  0  0  0  0  0  0  0  0  0
   44.2544   35.8834   46.5673 H   0  0  0  0  0  0  0  0  0  0  0  0
   45.1077   31.2846   42.9935 H   0  0  0  0  0  0  0  0  0  0  0  0
   45.7323   28.9704   43.4279 H   0  0  0  0  0  0  0  0  0  0  0  0
   46.9374   28.3787   45.5384 H   0  0  0  0  0  0  0  0  0  0  0  0
   47.8795   29.1122   47.5839 H   0  0  0  0  0  0  0  0  0  0  0  0
   48.4443   30.8729   49.2324 H   0  0  0  0  0  0  0  0  0  0  0  0
   47.8004   33.2681   48.7530 H   0  0  0  0  0  0  0  0  0  0  0  0
   46.5923   33.7814   46.6121 H   0  0  0  0  0  0  0  0  0  0  0  0
   48.6253   33.0427   39.5432 H   0  0  0  0  0  0  0  0  0  0  0  0
   47.4915   31.5717   38.2175 H   0  0  0  0  0  0  0  0  0  0  0  0
   46.1517   32.1941   39.1885 H   0  0  0  0  0  0  0  0  0  0  0  0
   45.4425   32.4393   36.8820 H   0  0  0  0  0  0  0  0  0  0  0  0
   45.9406   34.0793   37.3740 H   0  0  0  0  0  0  0  0  0  0  0  0
   49.0156   32.4131   37.0113 H   0  0  0  0  0  0  0  0  0  0  0  0
   49.0936   33.8293   35.8686 H   0  0  0  0  0  0  0  0  0  0  0  0
   49.5231   34.6123   38.1473 H   0  0  0  0  0  0  0  0  0  0  0  0
   47.9639   35.2467   37.6129 H   0  0  0  0  0  0  0  0  0  0  0  0
   51.4519   34.8954   42.8706 H   0  0  0  0  0  0  0  0  0  0  0  0
   50.1116   33.8687   43.4470 H   0  0  0  0  0  0  0  0  0  0  0  0
  1  2  2  0
  1  6  1  0
  2  3  1  0
  3  7  1  0
  3  4  2  0
  5  4  1  0
  6  5  2  0
  7 16  2  0
  8  9  2  0
  8  7  1  0
  9 10  1  0
 10 11  2  0
 11 12  1  0
 12 13  2  0
 14 13  1  0
 15 14  2  0
 16 11  1  0
 16 15  1  0
 17  2  1  0
 19 18  2  0
 19 17  1  0
 19 27  1  0
 20 19  1  0
 21 20  1  0
 22 21  1  0
 23 22  1  0
 24 25  1  0
 24 23  1  0
 25 26  1  0
 26 21  1  0
 28 27  1  0
 28 30  1  0
 29 28  2  0
  1 31  1  0
  5 32  1  0
  8 33  1  0
  9 34  1  0
 10 35  1  0
 12 36  1  0
 13 37  1  0
 14 38  1  0
 15 39  1  0
 21 40  1  0
 22 41  1  0
 22 42  1  0
 23 43  1  0
 23 44  1  0
 25 45  1  0
 25 46  1  0
 26 47  1  0
 26 48  1  0
 30 49  1  0
 30 50  1  0
M  ISO  8  31  14  32  14  33  14  34  14  35  14  36  14  37  14  38  14
M  ISO  8  39  14  40  13  41  13  42  13  43  13  44  13  45  13  46  13
M  ISO  2  47  13  48  13
M  END
>  <minimizedAffinity>  (1) 
-6.51780128

>  <minimizedRMSD>  (1) 
0.916531682

$$$$
