
     RDKit          3D

 44 47  0  0  1  0  0  0  0  0999 V2000
   49.0200   32.1040   43.3970 O   0  0  0  0  0  0  0  0  0  0  0  0
   50.0430   32.3440   42.2960 P   0  0  2  0  0  0  0  0  0  0  0  0
   51.4840   31.5990   42.6120 O   0  0  0  0  0  0  0  0  0  0  0  0
   50.1250   34.0120   42.0580 O   0  0  0  0  0  0  0  0  0  0  0  0
   47.8820   34.5010   41.1580 C   0  0  1  0  0  0  0  0  0  0  0  0
   48.6280   35.8100   41.6420 C   0  0  0  0  0  0  0  0  0  0  0  0
   48.8620   34.5330   42.2720 C   0  0  2  0  0  0  0  0  0  0  0  0
   46.4220   34.5630   41.4600 C   0  0  0  0  0  0  0  0  0  0  0  0
   45.6480   34.3560   40.5340 O   0  0  0  0  0  0  0  0  0  0  0  0
   45.2760   36.0030   43.0810 C   0  0  0  0  0  0  0  0  0  0  0  0
   45.8630   34.8400   42.7340 C   0  0  0  0  0  0  0  0  0  0  0  0
   45.9130   33.8260   43.7440 C   0  0  0  0  0  0  0  0  0  0  0  0
   45.3950   34.0390   44.9780 N   0  0  0  0  0  0  0  0  0  0  0  0
   44.8160   35.2360   45.2650 C   0  0  0  0  0  0  0  0  0  0  0  0
   44.7620   36.1760   44.3490 N   0  0  0  0  0  0  0  0  0  0  0  0
   49.2870   31.6650   40.8850 O   0  0  0  0  0  0  0  0  0  0  0  0
   49.8430   31.6870   39.6270 C   0  0  0  0  0  0  0  0  0  0  0  0
   49.2810   32.1080   38.4340 C   0  0  0  0  0  0  0  0  0  0  0  0
   50.0140   32.0500   37.2640 C   0  0  0  0  0  0  0  0  0  0  0  0
   51.2890   31.5770   37.2950 N   0  0  0  0  0  0  0  0  0  0  0  0
   51.8240   31.1680   38.4770 C   0  0  0  0  0  0  0  0  0  0  0  0
   51.1320   31.2120   39.6380 N   0  0  0  0  0  0  0  0  0  0  0  0
   53.6520   29.7490   39.3370 C   0  0  0  0  0  0  0  0  0  0  0  0
   53.1970   30.6700   38.4460 C   0  0  0  0  0  0  0  0  0  0  0  0
   54.1420   31.0790   37.5280 C   0  0  0  0  0  0  0  0  0  0  0  0
   55.4310   30.6390   37.4650 C   0  0  0  0  0  0  0  0  0  0  0  0
   55.8160   29.6920   38.4190 C   0  0  0  0  0  0  0  0  0  0  0  0
   54.9340   29.2270   39.3750 C   0  0  0  0  0  0  0  0  0  0  0  0
   52.0240   28.8390   41.1830 N   0  0  0  0  0  0  0  0  0  0  0  0
   52.7560   29.2350   40.3580 C   0  0  0  0  0  0  0  0  0  0  0  0
   51.6132   31.5322   43.5913 H   0  0  0  0  0  0  0  0  0  0  0  0
   47.7731   33.8690   40.2643 H   0  0  0  0  0  0  0  0  0  0  0  0
   49.4058   36.2687   41.0139 H   0  0  0  0  0  0  0  0  0  0  0  0
   48.3208   36.8100   41.9820 H   0  0  0  0  0  0  0  0  0  0  0  0
   48.7922   34.1588   43.3040 H   0  0  0  0  0  0  0  0  0  0  0  0
   45.2065   36.8198   42.3475 H   0  0  0  0  0  0  0  0  0  0  0  0
   46.3802   32.8570   43.5141 H   0  0  0  0  0  0  0  0  0  0  0  0
   44.3930   35.4168   46.2642 H   0  0  0  0  0  0  0  0  0  0  0  0
   48.2493   32.4893   38.4173 H   0  0  0  0  0  0  0  0  0  0  0  0
   49.5698   32.3838   36.3147 H   0  0  0  0  0  0  0  0  0  0  0  0
   53.8285   31.8245   36.7824 H   0  0  0  0  0  0  0  0  0  0  0  0
   56.1320   31.0100   36.7028 H   0  0  0  0  0  0  0  0  0  0  0  0
   56.8467   29.3078   38.4079 H   0  0  0  0  0  0  0  0  0  0  0  0
   55.2340   28.4818   40.1264 H   0  0  0  0  0  0  0  0  0  0  0  0
  2  3  1  0
  2  1  2  0
  4  7  1  0
  4  2  1  0
  5  8  1  0
  5  6  1  0
  5  7  1  0
  6  7  1  0
  8 11  1  0
  9  8  2  0
 10 15  2  0
 11 10  1  0
 11 12  2  0
 12 13  1  0
 13 14  2  0
 15 14  1  0
 16  2  1  0
 17 22  1  0
 17 16  1  0
 18 17  2  0
 19 20  2  0
 19 18  1  0
 20 21  1  0
 21 22  2  0
 23 28  2  0
 23 30  1  0
 24 21  1  0
 24 23  1  0
 25 24  2  0
 26 25  1  0
 26 27  2  0
 27 28  1  0
 30 29  3  0
  3 31  1  0
  5 32  1  6
  6 33  1  0
  6 34  1  0
  7 35  1  1
 10 36  1  0
 12 37  1  0
 14 38  1  0
 18 39  1  0
 19 40  1  0
 25 41  1  0
 26 42  1  0
 27 43  1  0
 28 44  1  0
M  ISO  8  31   3  32  13  33  13  34  13  35  13  36  14  37  14  38  14
M  ISO  6  39  14  40  14  41  14  42  14  43  14  44  14
M  END
>  <minimizedAffinity>  (1) 
-5.31184196

>  <minimizedRMSD>  (1) 
1.56473935

$$$$
