
     RDKit          3D

 50 53  0  0  1  0  0  0  0  0999 V2000
   45.0390   35.4970   43.3600 C   0  0  0  0  0  0  0  0  0  0  0  0
   45.4840   34.1920   43.3980 C   0  0  0  0  0  0  0  0  0  0  0  0
   45.4890   33.4790   44.5630 C   0  0  0  0  0  0  0  0  0  0  0  0
   45.0180   34.1530   45.6870 N   0  0  0  0  0  0  0  0  0  0  0  0
   44.5910   35.4030   45.6550 C   0  0  0  0  0  0  0  0  0  0  0  0
   44.6080   36.0680   44.4760 N   0  0  0  0  0  0  0  0  0  0  0  0
   45.9110   32.1560   44.7860 C   0  0  0  0  0  0  0  0  0  0  0  0
   45.6320   31.1100   43.8830 C   0  0  0  0  0  0  0  0  0  0  0  0
   45.9780   29.8020   44.0940 C   0  0  0  0  0  0  0  0  0  0  0  0
   46.6410   29.4520   45.2560 C   0  0  0  0  0  0  0  0  0  0  0  0
   46.9300   30.4980   46.1800 C   0  0  0  0  0  0  0  0  0  0  0  0
   47.5840   30.1660   47.3380 C   0  0  0  0  0  0  0  0  0  0  0  0
   47.8910   31.1300   48.2690 C   0  0  0  0  0  0  0  0  0  0  0  0
   47.5300   32.4680   48.0230 C   0  0  0  0  0  0  0  0  0  0  0  0
   46.8580   32.7520   46.8120 C   0  0  0  0  0  0  0  0  0  0  0  0
   46.5650   31.7760   45.9160 C   0  0  0  0  0  0  0  0  0  0  0  0
   45.9150   33.6420   42.2220 O   0  0  0  0  0  0  0  0  0  0  0  0
   48.2190   32.5660   41.5810 O   0  0  0  0  0  0  0  0  0  0  0  0
   47.4340   33.8420   41.5490 P   0  0  1  0  0  0  0  0  0  0  0  0
   47.3600   34.3450   39.9410 O   0  0  0  0  0  0  0  0  0  0  0  0
   46.9610   33.2050   39.2130 C   0  0  0  0  0  0  0  0  0  0  0  0
   46.9450   33.4730   37.7260 C   0  0  1  0  0  0  0  0  0  0  0  0
   48.1730   34.3190   37.3650 C   0  0  0  0  0  0  0  0  0  0  0  0
   49.1680   33.1750   37.1330 C   0  0  0  0  0  0  0  0  0  0  0  0
   48.4170   32.4210   36.2320 O   0  0  0  0  0  0  0  0  0  0  0  0
   47.2180   32.2360   36.9190 C   0  0  0  0  0  0  0  0  0  0  0  0
   48.2560   35.0120   42.4490 O   0  0  0  0  0  0  0  0  0  0  0  0
   49.5310   35.4910   42.2400 C   0  0  0  0  0  0  0  0  0  0  0  0
   49.4140   36.4990   41.5550 O   0  0  0  0  0  0  0  0  0  0  0  0
   50.5060   34.6660   42.8790 N   0  0  0  0  0  0  0  0  0  0  0  0
   45.0417   36.0579   42.4138 H   0  0  0  0  0  0  0  0  0  0  0  0
   44.2283   35.8944   46.5699 H   0  0  0  0  0  0  0  0  0  0  0  0
   45.1036   31.3600   42.9512 H   0  0  0  0  0  0  0  0  0  0  0  0
   45.7304   29.0355   43.3449 H   0  0  0  0  0  0  0  0  0  0  0  0
   46.9328   28.4109   45.4585 H   0  0  0  0  0  0  0  0  0  0  0  0
   47.8657   29.1191   47.5241 H   0  0  0  0  0  0  0  0  0  0  0  0
   48.4140   30.8581   49.1977 H   0  0  0  0  0  0  0  0  0  0  0  0
   47.7622   33.2635   48.7464 H   0  0  0  0  0  0  0  0  0  0  0  0
   46.5656   33.7891   46.5908 H   0  0  0  0  0  0  0  0  0  0  0  0
   47.6639   32.3847   39.4205 H   0  0  0  0  0  0  0  0  0  0  0  0
   45.9411   32.9364   39.5255 H   0  0  0  0  0  0  0  0  0  0  0  0
   45.9613   33.9185   37.5164 H   0  0  0  0  0  0  0  0  0  0  0  0
   48.0116   34.9198   36.4578 H   0  0  0  0  0  0  0  0  0  0  0  0
   48.4724   35.0726   38.1082 H   0  0  0  0  0  0  0  0  0  0  0  0
   50.1105   33.5299   36.6905 H   0  0  0  0  0  0  0  0  0  0  0  0
   49.5009   32.6434   38.0367 H   0  0  0  0  0  0  0  0  0  0  0  0
   46.3999   32.0705   36.2026 H   0  0  0  0  0  0  0  0  0  0  0  0
   47.2893   31.3591   37.5793 H   0  0  0  0  0  0  0  0  0  0  0  0
   51.5061   34.9020   42.8087 H   0  0  0  0  0  0  0  0  0  0  0  0
   50.2091   33.8350   43.4101 H   0  0  0  0  0  0  0  0  0  0  0  0
  1  2  2  0
  1  6  1  0
  2  3  1  0
  3  7  1  0
  3  4  2  0
  5  4  1  0
  6  5  2  0
  7 16  2  0
  8  9  2  0
  8  7  1  0
  9 10  1  0
 10 11  2  0
 11 12  1  0
 12 13  2  0
 14 13  1  0
 15 14  2  0
 16 11  1  0
 16 15  1  0
 17  2  1  0
 19 18  2  0
 19 17  1  0
 19 27  1  0
 20 19  1  0
 21 20  1  0
 22 21  1  0
 23 22  1  0
 24 23  1  0
 25 26  1  0
 25 24  1  0
 26 22  1  0
 28 27  1  0
 28 30  1  0
 29 28  2  0
  1 31  1  0
  5 32  1  0
  8 33  1  0
  9 34  1  0
 10 35  1  0
 12 36  1  0
 13 37  1  0
 14 38  1  0
 15 39  1  0
 21 40  1  0
 21 41  1  0
 22 42  1  6
 23 43  1  0
 23 44  1  0
 24 45  1  0
 24 46  1  0
 26 47  1  0
 26 48  1  0
 30 49  1  0
 30 50  1  0
M  ISO  8  31  14  32  14  33  14  34  14  35  14  36  14  37  14  38  14
M  ISO  8  39  14  40   8  41   8  42  13  43  13  44  13  45  13  46  13
M  ISO  2  47  13  48  13
M  END
>  <minimizedAffinity>  (1) 
-6.30505133

>  <minimizedRMSD>  (1) 
1.02568698

$$$$
