
     RDKit          3D

 53 56  0  0  0  0  0  0  0  0999 V2000
   45.0590   35.4810   43.3400 C   0  0  0  0  0  0  0  0  0  0  0  0
   45.5000   34.1760   43.3880 C   0  0  0  0  0  0  0  0  0  0  0  0
   45.4970   33.4710   44.5580 C   0  0  0  0  0  0  0  0  0  0  0  0
   45.0230   34.1500   45.6760 N   0  0  0  0  0  0  0  0  0  0  0  0
   44.5990   35.4010   45.6340 C   0  0  0  0  0  0  0  0  0  0  0  0
   44.6230   36.0610   44.4530 N   0  0  0  0  0  0  0  0  0  0  0  0
   45.9130   32.1460   44.7880 C   0  0  0  0  0  0  0  0  0  0  0  0
   45.6330   31.0970   43.8910 C   0  0  0  0  0  0  0  0  0  0  0  0
   45.9750   29.7890   44.1100 C   0  0  0  0  0  0  0  0  0  0  0  0
   46.6360   29.4440   45.2750 C   0  0  0  0  0  0  0  0  0  0  0  0
   46.9320   30.4970   46.1990 C   0  0  0  0  0  0  0  0  0  0  0  0
   47.5800   30.1660   47.3510 C   0  0  0  0  0  0  0  0  0  0  0  0
   47.8910   31.1360   48.2760 C   0  0  0  0  0  0  0  0  0  0  0  0
   47.5330   32.4720   48.0220 C   0  0  0  0  0  0  0  0  0  0  0  0
   46.8620   32.7520   46.8120 C   0  0  0  0  0  0  0  0  0  0  0  0
   46.5660   31.7720   45.9200 C   0  0  0  0  0  0  0  0  0  0  0  0
   45.9340   33.6210   42.2170 O   0  0  0  0  0  0  0  0  0  0  0  0
   48.2210   32.5700   41.4790 O   0  0  0  0  0  0  0  0  0  0  0  0
   47.4420   33.8500   41.5280 P   0  0  1  0  0  0  0  0  0  0  0  0
   47.3420   34.4310   39.9480 O   0  0  0  0  0  0  0  0  0  0  0  0
   47.3240   33.2890   39.1280 C   0  0  0  0  0  0  0  0  0  0  0  0
   47.2810   33.6540   37.6750 C   0  0  0  0  0  0  0  0  0  0  0  0
   46.7360   32.5500   36.8060 C   0  0  0  0  0  0  0  0  0  0  0  0
   47.6890   31.4050   36.6750 C   0  0  0  0  0  0  0  0  0  0  0  0
   48.8170   31.4810   37.4550 O   0  0  0  0  0  0  0  0  0  0  0  0
   49.5080   32.6570   37.4240 C   0  0  0  0  0  0  0  0  0  0  0  0
   48.7050   33.8950   37.2210 C   0  0  0  0  0  0  0  0  0  0  0  0
   48.2860   34.9700   42.4700 O   0  0  0  0  0  0  0  0  0  0  0  0
   49.5590   35.4560   42.2620 C   0  0  0  0  0  0  0  0  0  0  0  0
   49.4310   36.4810   41.6050 O   0  0  0  0  0  0  0  0  0  0  0  0
   50.5410   34.6170   42.8700 N   0  0  0  0  0  0  0  0  0  0  0  0
   45.0679   36.0363   42.3905 H   0  0  0  0  0  0  0  0  0  0  0  0
   44.2325   35.8977   46.5445 H   0  0  0  0  0  0  0  0  0  0  0  0
   45.1071   31.3434   42.9568 H   0  0  0  0  0  0  0  0  0  0  0  0
   45.7259   29.0188   43.3652 H   0  0  0  0  0  0  0  0  0  0  0  0
   46.9227   28.4026   45.4833 H   0  0  0  0  0  0  0  0  0  0  0  0
   47.8558   29.1185   47.5424 H   0  0  0  0  0  0  0  0  0  0  0  0
   48.4149   30.8689   49.2056 H   0  0  0  0  0  0  0  0  0  0  0  0
   47.7676   33.2708   48.7409 H   0  0  0  0  0  0  0  0  0  0  0  0
   46.5720   33.7888   46.5864 H   0  0  0  0  0  0  0  0  0  0  0  0
   48.2307   32.6968   39.3207 H   0  0  0  0  0  0  0  0  0  0  0  0
   46.4191   32.7099   39.3643 H   0  0  0  0  0  0  0  0  0  0  0  0
   46.6272   34.5330   37.5750 H   0  0  0  0  0  0  0  0  0  0  0  0
   45.7993   32.1811   37.2493 H   0  0  0  0  0  0  0  0  0  0  0  0
   46.5700   32.9651   35.8009 H   0  0  0  0  0  0  0  0  0  0  0  0
   47.1514   30.4843   36.9457 H   0  0  0  0  0  0  0  0  0  0  0  0
   48.0411   31.4235   35.6331 H   0  0  0  0  0  0  0  0  0  0  0  0
   50.0401   32.7572   38.3815 H   0  0  0  0  0  0  0  0  0  0  0  0
   50.1623   32.5868   36.5425 H   0  0  0  0  0  0  0  0  0  0  0  0
   49.1427   34.7161   37.8077 H   0  0  0  0  0  0  0  0  0  0  0  0
   48.7089   34.1633   36.1542 H   0  0  0  0  0  0  0  0  0  0  0  0
   51.5400   34.8567   42.7965 H   0  0  0  0  0  0  0  0  0  0  0  0
   50.2505   33.7719   43.3822 H   0  0  0  0  0  0  0  0  0  0  0  0
  1  2  2  0
  1  6  1  0
  2  3  1  0
  3  7  1  0
  3  4  2  0
  5  4  1  0
  6  5  2  0
  7 16  2  0
  8  9  2  0
  8  7  1  0
  9 10  1  0
 10 11  2  0
 11 12  1  0
 12 13  2  0
 14 13  1  0
 15 14  2  0
 16 11  1  0
 16 15  1  0
 17  2  1  0
 19 18  2  0
 19 17  1  0
 19 28  1  0
 20 19  1  0
 21 20  1  0
 22 21  1  0
 23 22  1  0
 24 23  1  0
 24 25  1  0
 26 25  1  0
 27 26  1  0
 27 22  1  0
 29 28  1  0
 29 31  1  0
 30 29  2  0
  1 32  1  0
  5 33  1  0
  8 34  1  0
  9 35  1  0
 10 36  1  0
 12 37  1  0
 13 38  1  0
 14 39  1  0
 15 40  1  0
 21 41  1  0
 21 42  1  0
 22 43  1  0
 23 44  1  0
 23 45  1  0
 24 46  1  0
 24 47  1  0
 26 48  1  0
 26 49  1  0
 27 50  1  0
 27 51  1  0
 31 52  1  0
 31 53  1  0
M  ISO  8  32  14  33  14  34  14  35  14  36  14  37  14  38  14  39  14
M  ISO  8  40  14  41   8  42   8  43  13  44  13  45  13  46  13  47  13
M  ISO  4  48  13  49  13  50  13  51  13
M  END
>  <minimizedAffinity>  (1) 
-6.28341007

>  <minimizedRMSD>  (1) 
1.374138

$$$$
