
     RDKit          3D

 24 25  0  0  0  0  0  0  0  0999 V2000
   44.5830   36.2040   44.1590 C   0  0  0  0  0  0  0  0  0  0  0  0
   45.3600   35.9950   43.0020 C   0  0  0  0  0  0  0  0  0  0  0  0
   46.1940   34.8890   42.9820 C   0  0  0  0  0  0  0  0  0  0  0  0
   46.2280   34.0650   44.0580 N   0  0  0  0  0  0  0  0  0  0  0  0
   45.4730   34.2870   45.1530 C   0  0  0  0  0  0  0  0  0  0  0  0
   44.6720   35.3440   45.1810 N   0  0  0  0  0  0  0  0  0  0  0  0
   45.5730   33.3530   46.2630 C   0  0  0  0  0  0  0  0  0  0  0  0
   46.7140   32.8010   46.5540 C   0  0  0  0  0  0  0  0  0  0  0  0
   46.7780   31.8410   47.7100 C   0  0  0  0  0  0  0  0  0  0  0  0
   45.4010   31.4330   48.1560 C   0  0  0  0  0  0  0  0  0  0  0  0
   45.1560   30.0960   48.7510 C   0  0  0  0  0  0  0  0  0  0  0  0
   45.1670   31.2860   49.6300 C   0  0  0  0  0  0  0  0  0  0  0  0
   43.9069   37.0694   44.2220 H   0  0  0  0  0  0  0  0  0  0  0  0
   45.3063   36.6845   42.1466 H   0  0  0  0  0  0  0  0  0  0  0  0
   46.8217   34.6817   42.1028 H   0  0  0  0  0  0  0  0  0  0  0  0
   44.6802   33.1124   46.8588 H   0  0  0  0  0  0  0  0  0  0  0  0
   47.6147   33.0317   45.9662 H   0  0  0  0  0  0  0  0  0  0  0  0
   47.3353   30.9443   47.4011 H   0  0  0  0  0  0  0  0  0  0  0  0
   47.2819   32.3412   48.5502 H   0  0  0  0  0  0  0  0  0  0  0  0
   44.9460   31.9901   47.3238 H   0  0  0  0  0  0  0  0  0  0  0  0
   44.2099   29.5721   48.5502 H   0  0  0  0  0  0  0  0  0  0  0  0
   45.6930   29.1360   48.7428 H   0  0  0  0  0  0  0  0  0  0  0  0
   45.9952   31.4406   50.3372 H   0  0  0  0  0  0  0  0  0  0  0  0
   44.4667   31.7255   50.3556 H   0  0  0  0  0  0  0  0  0  0  0  0
  1  6  2  0
  2  1  1  0
  3  2  2  0
  3  4  1  0
  4  5  2  0
  5  6  1  0
  5  7  1  0
  7  8  2  0
  8  9  1  0
  9 10  1  0
 10 11  1  0
 10 12  1  0
 11 12  1  0
  1 13  1  0
  2 14  1  0
  3 15  1  0
  7 16  1  0
  8 17  1  0
  9 18  1  0
  9 19  1  0
 10 20  1  0
 11 21  1  0
 11 22  1  0
 12 23  1  0
 12 24  1  0
M  ISO  8  13  14  14  14  15  14  18   8  19   8  20  13  21  13  22  13
M  ISO  2  23  13  24  13
M  END
>  <minimizedAffinity>  (1) 
-4.32513571

>  <minimizedRMSD>  (1) 
1.35838902

$$$$
