
     RDKit          3D

 26 27  0  0  1  0  0  0  0  0999 V2000
   46.2370   30.9390   46.6510 C   0  0  0  0  0  0  0  0  0  0  0  0
   45.5550   31.3450   47.9360 C   0  0  1  0  0  0  0  0  0  0  0  0
   45.2780   30.3030   48.9530 C   0  0  0  0  0  0  0  0  0  0  0  0
   46.3420   31.2850   49.1980 C   0  0  1  0  0  0  0  0  0  0  0  0
   47.7680   30.9410   49.0990 C   0  0  0  0  0  0  0  0  0  0  0  0
   48.7100   30.5970   49.7920 O   0  0  0  0  0  0  0  0  0  0  0  0
   45.7970   33.1910   45.9810 C   0  0  0  0  0  0  0  0  0  0  0  0
   46.0060   31.9780   45.5850 C   0  0  0  0  0  0  0  0  0  0  0  0
   44.5520   36.2140   44.3210 C   0  0  0  0  0  0  0  0  0  0  0  0
   45.2490   36.1750   43.0820 C   0  0  0  0  0  0  0  0  0  0  0  0
   46.1040   35.1290   42.8410 C   0  0  0  0  0  0  0  0  0  0  0  0
   46.2220   34.2060   43.8050 N   0  0  0  0  0  0  0  0  0  0  0  0
   45.5780   34.2230   44.9760 C   0  0  0  0  0  0  0  0  0  0  0  0
   44.7410   35.2350   45.2230 N   0  0  0  0  0  0  0  0  0  0  0  0
   47.3175   30.8372   46.8302 H   0  0  0  0  0  0  0  0  0  0  0  0
   45.8189   29.9797   46.3119 H   0  0  0  0  0  0  0  0  0  0  0  0
   44.9557   32.1095   47.4199 H   0  0  0  0  0  0  0  0  0  0  0  0
   44.3488   30.3433   49.5403 H   0  0  0  0  0  0  0  0  0  0  0  0
   45.2260   29.2043   48.9416 H   0  0  0  0  0  0  0  0  0  0  0  0
   46.5627   31.9567   50.0407 H   0  0  0  0  0  0  0  0  0  0  0  0
   48.0929   31.0205   48.0511 H   0  0  0  0  0  0  0  0  0  0  0  0
   45.7848   33.4383   47.0528 H   0  0  0  0  0  0  0  0  0  0  0  0
   46.0147   31.7163   44.5166 H   0  0  0  0  0  0  0  0  0  0  0  0
   43.8613   37.0415   44.5404 H   0  0  0  0  0  0  0  0  0  0  0  0
   45.1057   36.9670   42.3322 H   0  0  0  0  0  0  0  0  0  0  0  0
   46.6669   35.0518   41.8991 H   0  0  0  0  0  0  0  0  0  0  0  0
  1  2  1  0
  2  3  1  0
  2  4  1  0
  3  4  1  0
  5  4  1  0
  5  6  2  0
  8  7  2  0
  8  1  1  0
  9 14  2  0
 10  9  1  0
 11 10  2  0
 11 12  1  0
 12 13  2  0
 13 14  1  0
 13  7  1  0
  1 15  1  0
  1 16  1  0
  2 17  1  6
  3 18  1  0
  3 19  1  0
  4 20  1  1
  5 21  1  0
  7 22  1  0
  8 23  1  0
  9 24  1  0
 10 25  1  0
 11 26  1  0
M  ISO  8  15   8  16   8  17  13  18  13  19  13  20  13  21   6  24  14
M  ISO  2  25  14  26  14
M  END
>  <minimizedAffinity>  (1) 
-4.36076403

>  <minimizedRMSD>  (1) 
1.05786514

$$$$
