
     RDKit          3D

 45 49  0  0  1  0  0  0  0  0999 V2000
   45.6930   33.0930   46.2390 C   0  0  0  0  0  0  0  0  0  0  0  0
   45.9740   31.9240   45.8160 C   0  0  0  0  0  0  0  0  0  0  0  0
   44.5290   36.1690   44.6030 C   0  0  0  0  0  0  0  0  0  0  0  0
   45.1320   36.1240   43.3530 C   0  0  0  0  0  0  0  0  0  0  0  0
   45.9340   35.0520   43.1150 C   0  0  0  0  0  0  0  0  0  0  0  0
   46.1090   34.0990   44.0660 N   0  0  0  0  0  0  0  0  0  0  0  0
   45.5120   34.1630   45.2720 C   0  0  0  0  0  0  0  0  0  0  0  0
   44.7290   35.2130   45.5040 N   0  0  0  0  0  0  0  0  0  0  0  0
   47.9320   35.3210   41.7140 C   0  0  0  0  0  0  0  0  0  0  0  0
   46.6460   34.8430   41.8610 C   0  0  0  0  0  0  0  0  0  0  0  0
   46.1180   34.1820   40.7730 C   0  0  0  0  0  0  0  0  0  0  0  0
   46.7980   33.9870   39.5890 C   0  0  0  0  0  0  0  0  0  0  0  0
   46.4630   33.3830   38.4410 N   0  0  0  0  0  0  0  0  0  0  0  0
   47.4850   33.4570   37.5710 C   0  0  0  0  0  0  0  0  0  0  0  0
   48.5060   34.1380   38.1950 C   0  0  0  0  0  0  0  0  0  0  0  0
   48.0920   34.4790   39.4680 C   0  0  0  0  0  0  0  0  0  0  0  0
   48.6410   35.1450   40.5440 C   0  0  0  0  0  0  0  0  0  0  0  0
   46.1320   30.8530   46.8810 C   0  0  0  0  0  0  0  0  0  0  0  0
   45.9090   31.4540   48.2490 C   0  0  1  0  0  0  0  0  0  0  0  0
   45.7010   30.5070   49.3740 C   0  0  0  0  0  0  0  0  0  0  0  0
   46.9350   31.2670   49.3010 C   0  0  1  0  0  0  0  0  0  0  0  0
   48.2490   30.7120   48.9050 C   0  0  0  0  0  0  0  0  0  0  0  0
   49.2110   30.4320   50.0890 C   0  0  0  0  0  0  0  0  0  0  0  0
   49.4770   31.5940   49.2090 C   0  0  0  0  0  0  0  0  0  0  0  0
   45.5893   33.2886   47.3165 H   0  0  0  0  0  0  0  0  0  0  0  0
   46.0947   31.7043   44.7449 H   0  0  0  0  0  0  0  0  0  0  0  0
   43.8713   37.0146   44.8529 H   0  0  0  0  0  0  0  0  0  0  0  0
   44.9704   36.9092   42.5998 H   0  0  0  0  0  0  0  0  0  0  0  0
   48.4039   35.8561   42.5513 H   0  0  0  0  0  0  0  0  0  0  0  0
   45.0946   33.7869   40.8536 H   0  0  0  0  0  0  0  0  0  0  0  0
   45.5575   32.9296   38.2531 H   0  0  0  0  0  0  0  0  0  0  0  0
   47.5024   33.0490   36.5496 H   0  0  0  0  0  0  0  0  0  0  0  0
   49.4864   34.3713   37.7541 H   0  0  0  0  0  0  0  0  0  0  0  0
   49.6635   35.5433   40.4676 H   0  0  0  0  0  0  0  0  0  0  0  0
   45.3950   30.0549   46.7083 H   0  0  0  0  0  0  0  0  0  0  0  0
   47.1488   30.4365   46.8289 H   0  0  0  0  0  0  0  0  0  0  0  0
   45.3844   32.3243   47.8278 H   0  0  0  0  0  0  0  0  0  0  0  0
   44.9608   30.7368   50.1545 H   0  0  0  0  0  0  0  0  0  0  0  0
   45.4533   29.4380   49.4506 H   0  0  0  0  0  0  0  0  0  0  0  0
   47.4599   31.8857   50.0438 H   0  0  0  0  0  0  0  0  0  0  0  0
   47.8715   30.1650   48.0285 H   0  0  0  0  0  0  0  0  0  0  0  0
   48.8692   30.5949   51.1218 H   0  0  0  0  0  0  0  0  0  0  0  0
   49.7987   29.5616   50.4162 H   0  0  0  0  0  0  0  0  0  0  0  0
   50.3422   31.5770   48.5299 H   0  0  0  0  0  0  0  0  0  0  0  0
   49.6255   32.6701   49.3821 H   0  0  0  0  0  0  0  0  0  0  0  0
  2  1  2  0
  2 18  1  0
  3  8  2  0
  4  3  1  0
  5  4  2  0
  5  6  1  0
  6  7  2  0
  7  8  1  0
  7  1  1  0
  9 10  2  0
 10  5  1  0
 11 10  1  0
 12 11  2  0
 13 12  1  0
 14 15  2  0
 14 13  1  0
 15 16  1  0
 16 12  1  0
 16 17  2  0
 17  9  1  0
 18 19  1  0
 19 21  1  0
 19 20  1  0
 21 20  1  0
 22 24  1  0
 22 21  1  0
 22 23  1  0
 24 23  1  0
  1 25  1  0
  2 26  1  0
  3 27  1  0
  4 28  1  0
  9 29  1  0
 11 30  1  0
 13 31  1  0
 14 32  1  0
 15 33  1  0
 17 34  1  0
 18 35  1  0
 18 36  1  0
 19 37  1  6
 20 38  1  0
 20 39  1  0
 21 40  1  1
 22 41  1  0
 23 42  1  0
 23 43  1  0
 24 44  1  0
 24 45  1  0
M  ISO  8  27  14  28  14  29  14  30  14  31   9  32  14  33  14  34  14
M  ISO  8  35   8  36   8  37  13  38  13  39  13  40  13  41  13  42  13
M  ISO  3  43  13  44  13  45  13
M  END
>  <minimizedAffinity>  (1) 
-6.79414463

>  <minimizedRMSD>  (1) 
1.09996402

$$$$
