
     RDKit          3D

 38 41  0  0  1  0  0  0  0  0999 V2000
   46.2520   30.8700   46.7090 C   0  0  0  0  0  0  0  0  0  0  0  0
   45.9820   31.4910   48.0570 C   0  0  1  0  0  0  0  0  0  0  0  0
   45.7240   30.5560   49.1820 C   0  0  0  0  0  0  0  0  0  0  0  0
   46.9640   31.3040   49.1500 C   0  0  1  0  0  0  0  0  0  0  0  0
   48.2980   30.7580   48.8060 C   0  0  0  0  0  0  0  0  0  0  0  0
   49.1930   30.4250   50.0340 C   0  0  0  0  0  0  0  0  0  0  0  0
   49.5040   31.6320   49.2440 C   0  0  0  0  0  0  0  0  0  0  0  0
   45.8730   33.1070   46.0240 C   0  0  0  0  0  0  0  0  0  0  0  0
   46.0770   31.9160   45.6160 C   0  0  0  0  0  0  0  0  0  0  0  0
   44.5770   36.0450   44.2180 C   0  0  0  0  0  0  0  0  0  0  0  0
   45.3680   36.0960   43.0780 C   0  0  0  0  0  0  0  0  0  0  0  0
   46.3290   35.1360   42.9580 C   0  0  0  0  0  0  0  0  0  0  0  0
   46.4610   34.2020   43.9320 N   0  0  0  0  0  0  0  0  0  0  0  0
   45.6890   34.1610   45.0320 C   0  0  0  0  0  0  0  0  0  0  0  0
   44.7490   35.1080   45.1410 N   0  0  0  0  0  0  0  0  0  0  0  0
   47.2470   35.0390   41.8290 C   0  0  0  0  0  0  0  0  0  0  0  0
   46.9700   34.2510   40.7060 C   0  0  0  0  0  0  0  0  0  0  0  0
   48.0380   34.3750   39.8130 C   0  0  0  0  0  0  0  0  0  0  0  0
   48.9160   35.2250   40.4180 N   0  0  0  0  0  0  0  0  0  0  0  0
   48.4350   35.6000   41.5920 N   0  0  0  0  0  0  0  0  0  0  0  0
   47.2819   30.4843   46.6841 H   0  0  0  0  0  0  0  0  0  0  0  0
   45.5438   30.0455   46.5400 H   0  0  0  0  0  0  0  0  0  0  0  0
   45.4831   32.3624   47.6078 H   0  0  0  0  0  0  0  0  0  0  0  0
   44.9565   30.7988   49.9316 H   0  0  0  0  0  0  0  0  0  0  0  0
   45.4649   29.4897   49.2585 H   0  0  0  0  0  0  0  0  0  0  0  0
   47.4635   31.9163   49.9152 H   0  0  0  0  0  0  0  0  0  0  0  0
   47.9783   30.2506   47.8839 H   0  0  0  0  0  0  0  0  0  0  0  0
   48.7852   30.5282   51.0504 H   0  0  0  0  0  0  0  0  0  0  0  0
   49.7695   29.5424   50.3482 H   0  0  0  0  0  0  0  0  0  0  0  0
   50.4119   31.6583   48.6235 H   0  0  0  0  0  0  0  0  0  0  0  0
   49.6313   32.6970   49.4880 H   0  0  0  0  0  0  0  0  0  0  0  0
   45.8366   33.3345   47.0996 H   0  0  0  0  0  0  0  0  0  0  0  0
   46.1234   31.6615   44.5469 H   0  0  0  0  0  0  0  0  0  0  0  0
   43.7891   36.7995   44.3591 H   0  0  0  0  0  0  0  0  0  0  0  0
   45.2266   36.8714   42.3107 H   0  0  0  0  0  0  0  0  0  0  0  0
   46.0682   33.6401   40.5528 H   0  0  0  0  0  0  0  0  0  0  0  0
   48.1470   33.8903   38.8316 H   0  0  0  0  0  0  0  0  0  0  0  0
   49.8167   35.5289   40.0213 H   0  0  0  0  0  0  0  0  0  0  0  0
  1  2  1  0
  2  4  1  0
  2  3  1  0
  4  3  1  0
  5  4  1  0
  5  7  1  0
  5  6  1  0
  7  6  1  0
  9  8  2  0
  9  1  1  0
 10 15  2  0
 11 10  1  0
 12 11  2  0
 12 13  1  0
 13 14  2  0
 14 15  1  0
 14  8  1  0
 16 12  1  0
 17 16  1  0
 18 19  1  0
 18 17  2  0
 19 20  1  0
 20 16  2  0
  1 21  1  0
  1 22  1  0
  2 23  1  6
  3 24  1  0
  3 25  1  0
  4 26  1  1
  5 27  1  0
  6 28  1  0
  6 29  1  0
  7 30  1  0
  7 31  1  0
  8 32  1  0
  9 33  1  0
 10 34  1  0
 11 35  1  0
 17 36  1  0
 18 37  1  0
 19 38  1  0
M  ISO  8  21   8  22   8  23  13  24  13  25  13  26  13  27  13  28  13
M  ISO  8  29  13  30  13  31  13  34  14  35  14  36  14  37  14  38   9
M  END
>  <minimizedAffinity>  (1) 
-6.01559877

>  <minimizedRMSD>  (1) 
0.801229596

$$$$
