
     RDKit          3D

 38 41  0  0  1  0  0  0  0  0999 V2000
   46.2030   30.8590   46.7870 C   0  0  0  0  0  0  0  0  0  0  0  0
   45.9680   31.5130   48.1260 C   0  0  1  0  0  0  0  0  0  0  0  0
   45.7260   30.6040   49.2770 C   0  0  0  0  0  0  0  0  0  0  0  0
   46.9680   31.3510   49.2080 C   0  0  1  0  0  0  0  0  0  0  0  0
   48.2870   30.7790   48.8500 C   0  0  0  0  0  0  0  0  0  0  0  0
   49.1940   30.4320   50.0580 C   0  0  0  0  0  0  0  0  0  0  0  0
   49.5240   31.6040   49.2300 C   0  0  0  0  0  0  0  0  0  0  0  0
   45.8510   33.0880   46.0560 C   0  0  0  0  0  0  0  0  0  0  0  0
   46.0570   31.8860   45.6760 C   0  0  0  0  0  0  0  0  0  0  0  0
   44.6380   36.0220   44.1910 C   0  0  0  0  0  0  0  0  0  0  0  0
   45.4210   36.0190   43.0440 C   0  0  0  0  0  0  0  0  0  0  0  0
   46.3450   35.0190   42.9470 C   0  0  0  0  0  0  0  0  0  0  0  0
   46.4550   34.1060   43.9350 N   0  0  0  0  0  0  0  0  0  0  0  0
   45.6940   34.1210   45.0320 C   0  0  0  0  0  0  0  0  0  0  0  0
   44.7910   35.0910   45.1380 N   0  0  0  0  0  0  0  0  0  0  0  0
   47.2090   34.9360   41.7820 C   0  0  0  0  0  0  0  0  0  0  0  0
   48.4540   35.5170   41.6420 C   0  0  0  0  0  0  0  0  0  0  0  0
   48.9570   35.2210   40.4210 N   0  0  0  0  0  0  0  0  0  0  0  0
   48.0200   34.4620   39.8220 C   0  0  0  0  0  0  0  0  0  0  0  0
   46.9560   34.2840   40.6400 N   0  0  0  0  0  0  0  0  0  0  0  0
   47.2180   30.4357   46.7611 H   0  0  0  0  0  0  0  0  0  0  0  0
   45.4623   30.0592   46.6400 H   0  0  0  0  0  0  0  0  0  0  0  0
   45.4681   32.3772   47.6643 H   0  0  0  0  0  0  0  0  0  0  0  0
   44.9703   30.8651   50.0325 H   0  0  0  0  0  0  0  0  0  0  0  0
   45.4671   29.5401   49.3824 H   0  0  0  0  0  0  0  0  0  0  0  0
   47.4803   31.9843   49.9473 H   0  0  0  0  0  0  0  0  0  0  0  0
   47.9275   30.2769   47.9397 H   0  0  0  0  0  0  0  0  0  0  0  0
   48.8191   30.5737   51.0824 H   0  0  0  0  0  0  0  0  0  0  0  0
   49.7426   29.5342   50.3788 H   0  0  0  0  0  0  0  0  0  0  0  0
   50.4136   31.5806   48.5834 H   0  0  0  0  0  0  0  0  0  0  0  0
   49.6980   32.6687   49.4446 H   0  0  0  0  0  0  0  0  0  0  0  0
   45.7932   33.3398   47.1252 H   0  0  0  0  0  0  0  0  0  0  0  0
   46.1244   31.6117   44.6129 H   0  0  0  0  0  0  0  0  0  0  0  0
   43.8773   36.8055   44.3228 H   0  0  0  0  0  0  0  0  0  0  0  0
   45.3032   36.7795   42.2581 H   0  0  0  0  0  0  0  0  0  0  0  0
   48.9592   36.1267   42.4056 H   0  0  0  0  0  0  0  0  0  0  0  0
   49.8646   35.5143   40.0322 H   0  0  0  0  0  0  0  0  0  0  0  0
   48.1070   34.0443   38.8081 H   0  0  0  0  0  0  0  0  0  0  0  0
  1  2  1  0
  2  4  1  0
  2  3  1  0
  4  3  1  0
  5  4  1  0
  5  7  1  0
  5  6  1  0
  7  6  1  0
  9  8  2  0
  9  1  1  0
 10 15  2  0
 11 10  1  0
 12 11  2  0
 12 13  1  0
 13 14  2  0
 14 15  1  0
 14  8  1  0
 16 12  1  0
 17 16  2  0
 18 17  1  0
 19 18  1  0
 19 20  2  0
 20 16  1  0
  1 21  1  0
  1 22  1  0
  2 23  1  6
  3 24  1  0
  3 25  1  0
  4 26  1  1
  5 27  1  0
  6 28  1  0
  6 29  1  0
  7 30  1  0
  7 31  1  0
  8 32  1  0
  9 33  1  0
 10 34  1  0
 11 35  1  0
 17 36  1  0
 18 37  1  0
 19 38  1  0
M  ISO  8  21   8  22   8  23  13  24  13  25  13  26  13  27  13  28  13
M  ISO  8  29  13  30  13  31  13  34  14  35  14  36  14  37   9  38  14
M  END
>  <minimizedAffinity>  (1) 
-5.92602634

>  <minimizedRMSD>  (1) 
0.662956893

$$$$
