
     RDKit          3D

 34 36  0  0  1  0  0  0  0  0999 V2000
   47.9220   34.5090   41.1650 C   0  0  1  0  0  0  0  0  0  0  0  0
   48.6520   35.8140   41.6700 C   0  0  0  0  0  0  0  0  0  0  0  0
   48.8870   34.5310   42.2900 C   0  0  2  0  0  0  0  0  0  0  0  0
   46.4570   34.5500   41.4420 C   0  0  0  0  0  0  0  0  0  0  0  0
   45.6970   34.3310   40.5150 O   0  0  0  0  0  0  0  0  0  0  0  0
   45.2940   35.9920   43.0550 C   0  0  0  0  0  0  0  0  0  0  0  0
   45.8800   34.8260   42.7130 C   0  0  0  0  0  0  0  0  0  0  0  0
   45.9150   33.8170   43.7290 C   0  0  0  0  0  0  0  0  0  0  0  0
   45.3860   34.0450   44.9550 N   0  0  0  0  0  0  0  0  0  0  0  0
   44.8120   35.2440   45.2290 C   0  0  0  0  0  0  0  0  0  0  0  0
   44.7700   36.1810   44.3100 N   0  0  0  0  0  0  0  0  0  0  0  0
   50.1580   34.0250   42.0860 O   0  0  0  0  0  0  0  0  0  0  0  0
   48.9360   32.0650   43.2380 O   0  0  0  0  0  0  0  0  0  0  0  0
   50.0760   32.3460   42.2740 P   0  0  2  0  0  0  0  0  0  0  0  0
   51.4820   31.6130   42.7380 O   0  0  0  0  0  0  0  0  0  0  0  0
   49.5010   31.7010   40.7640 O   0  0  0  0  0  0  0  0  0  0  0  0
   50.2480   31.6570   39.6140 C   0  0  0  0  0  0  0  0  0  0  0  0
   49.8290   31.7880   38.3000 C   0  0  0  0  0  0  0  0  0  0  0  0
   50.7480   31.7140   37.2650 C   0  0  0  0  0  0  0  0  0  0  0  0
   52.0530   31.5120   37.5570 N   0  0  0  0  0  0  0  0  0  0  0  0
   52.4550   31.3850   38.8440 C   0  0  0  0  0  0  0  0  0  0  0  0
   51.5660   31.4550   39.8700 N   0  0  0  0  0  0  0  0  0  0  0  0
   53.8120   31.1770   39.0930 O   0  0  0  0  0  0  0  0  0  0  0  0
   47.8282   33.8882   40.2618 H   0  0  0  0  0  0  0  0  0  0  0  0
   49.4342   36.2841   41.0559 H   0  0  0  0  0  0  0  0  0  0  0  0
   48.3344   36.8085   42.0167 H   0  0  0  0  0  0  0  0  0  0  0  0
   48.8062   34.1412   43.3155 H   0  0  0  0  0  0  0  0  0  0  0  0
   45.2350   36.8048   42.3162 H   0  0  0  0  0  0  0  0  0  0  0  0
   46.3779   32.8433   43.5106 H   0  0  0  0  0  0  0  0  0  0  0  0
   44.3809   35.4313   46.2235 H   0  0  0  0  0  0  0  0  0  0  0  0
   51.5304   31.5878   43.7265 H   0  0  0  0  0  0  0  0  0  0  0  0
   48.7642   31.9512   38.0775 H   0  0  0  0  0  0  0  0  0  0  0  0
   50.4203   31.8182   36.2201 H   0  0  0  0  0  0  0  0  0  0  0  0
   54.1354   31.0805   40.0237 H   0  0  0  0  0  0  0  0  0  0  0  0
  1  4  1  0
  1  2  1  0
  1  3  1  0
  2  3  1  0
  4  7  1  0
  5  4  2  0
  6 11  2  0
  7  6  1  0
  7  8  2  0
  8  9  1  0
  9 10  2  0
 11 10  1  0
 12 14  1  0
 12  3  1  0
 14 15  1  0
 14 13  2  0
 16 14  1  0
 17 22  1  0
 17 16  1  0
 18 17  2  0
 19 20  2  0
 19 18  1  0
 20 21  1  0
 21 23  1  0
 21 22  2  0
  1 24  1  6
  2 25  1  0
  2 26  1  0
  3 27  1  1
  6 28  1  0
  8 29  1  0
 10 30  1  0
 15 31  1  0
 18 32  1  0
 19 33  1  0
 23 34  1  0
M  ISO  8  24  13  25  13  26  13  27  13  28  14  29  14  30  14  31   3
M  ISO  3  32  14  33  14  34   3
M  END
>  <minimizedAffinity>  (1) 
-5.16296339

>  <minimizedRMSD>  (1) 
0.412890315

$$$$
