
     RDKit          3D

 33 35  0  0  1  0  0  0  0  0999 V2000
   46.1760   30.8920   46.8030 C   0  0  0  0  0  0  0  0  0  0  0  0
   45.9470   31.5390   48.1470 C   0  0  1  0  0  0  0  0  0  0  0  0
   45.7210   30.6150   49.2960 C   0  0  0  0  0  0  0  0  0  0  0  0
   46.9580   31.3680   49.2160 C   0  0  1  0  0  0  0  0  0  0  0  0
   48.2640   30.7810   48.8500 C   0  0  0  0  0  0  0  0  0  0  0  0
   49.1730   30.4300   50.0560 C   0  0  0  0  0  0  0  0  0  0  0  0
   49.5170   31.6080   49.2110 C   0  0  0  0  0  0  0  0  0  0  0  0
   45.7570   33.1130   46.0890 C   0  0  0  0  0  0  0  0  0  0  0  0
   46.0600   31.9340   45.7010 C   0  0  0  0  0  0  0  0  0  0  0  0
   44.5710   36.1140   44.3300 C   0  0  0  0  0  0  0  0  0  0  0  0
   45.2840   36.0840   43.1400 C   0  0  0  0  0  0  0  0  0  0  0  0
   46.1770   35.0380   42.9780 C   0  0  0  0  0  0  0  0  0  0  0  0
   46.3100   34.1160   43.9590 N   0  0  0  0  0  0  0  0  0  0  0  0
   45.6030   34.1700   45.1030 C   0  0  0  0  0  0  0  0  0  0  0  0
   44.7490   35.1690   45.2650 N   0  0  0  0  0  0  0  0  0  0  0  0
   46.9510   34.9550   41.7570 C   0  0  0  0  0  0  0  0  0  0  0  0
   48.1190   35.4150   41.6920 O   0  0  0  0  0  0  0  0  0  0  0  0
   47.1813   30.4462   46.7792 H   0  0  0  0  0  0  0  0  0  0  0  0
   45.4190   30.1100   46.6435 H   0  0  0  0  0  0  0  0  0  0  0  0
   45.4385   32.4055   47.6992 H   0  0  0  0  0  0  0  0  0  0  0  0
   44.9743   30.8663   50.0636 H   0  0  0  0  0  0  0  0  0  0  0  0
   45.4672   29.5493   49.3955 H   0  0  0  0  0  0  0  0  0  0  0  0
   47.4778   32.0068   49.9452 H   0  0  0  0  0  0  0  0  0  0  0  0
   47.8951   30.2740   47.9462 H   0  0  0  0  0  0  0  0  0  0  0  0
   48.8043   30.5810   51.0813 H   0  0  0  0  0  0  0  0  0  0  0  0
   49.7129   29.5276   50.3788 H   0  0  0  0  0  0  0  0  0  0  0  0
   50.4017   31.5720   48.5582 H   0  0  0  0  0  0  0  0  0  0  0  0
   49.7036   32.6727   49.4148 H   0  0  0  0  0  0  0  0  0  0  0  0
   45.6141   33.3261   47.1586 H   0  0  0  0  0  0  0  0  0  0  0  0
   46.2258   31.6890   44.6415 H   0  0  0  0  0  0  0  0  0  0  0  0
   43.8493   36.9246   44.5091 H   0  0  0  0  0  0  0  0  0  0  0  0
   45.1469   36.8521   42.3646 H   0  0  0  0  0  0  0  0  0  0  0  0
   46.5082   34.4801   40.8690 H   0  0  0  0  0  0  0  0  0  0  0  0
  1  2  1  0
  2  4  1  0
  2  3  1  0
  4  3  1  0
  5  7  1  0
  5  4  1  0
  5  6  1  0
  7  6  1  0
  9  8  2  0
  9  1  1  0
 10 15  2  0
 11 10  1  0
 12 11  2  0
 12 13  1  0
 13 14  2  0
 14 15  1  0
 14  8  1  0
 16 12  1  0
 17 16  2  0
  1 18  1  0
  1 19  1  0
  2 20  1  6
  3 21  1  0
  3 22  1  0
  4 23  1  1
  5 24  1  0
  6 25  1  0
  6 26  1  0
  7 27  1  0
  7 28  1  0
  8 29  1  0
  9 30  1  0
 10 31  1  0
 11 32  1  0
 16 33  1  0
M  ISO  8  18   8  19   8  20  13  21  13  22  13  23  13  24  13  25  13
M  ISO  6  26  13  27  13  28  13  31  14  32  14  33   6
M  END
>  <minimizedAffinity>  (1) 
-4.85756826

>  <minimizedRMSD>  (1) 
0.683796823

$$$$
