
     RDKit          3D

 41 44  0  0  1  0  0  0  0  0999 V2000
   45.6680   33.1050   46.2200 C   0  0  0  0  0  0  0  0  0  0  0  0
   45.9610   31.9320   45.8180 C   0  0  0  0  0  0  0  0  0  0  0  0
   44.5490   36.1540   44.4910 C   0  0  0  0  0  0  0  0  0  0  0  0
   45.2220   36.1040   43.2780 C   0  0  0  0  0  0  0  0  0  0  0  0
   46.0490   35.0390   43.0930 C   0  0  0  0  0  0  0  0  0  0  0  0
   46.1830   34.0970   44.0640 N   0  0  0  0  0  0  0  0  0  0  0  0
   45.5200   34.1660   45.2340 C   0  0  0  0  0  0  0  0  0  0  0  0
   44.7150   35.2080   45.4100 N   0  0  0  0  0  0  0  0  0  0  0  0
   46.8180   34.8550   41.8680 C   0  0  0  0  0  0  0  0  0  0  0  0
   48.0510   35.4160   41.6360 C   0  0  0  0  0  0  0  0  0  0  0  0
   48.7730   35.2380   40.4740 C   0  0  0  0  0  0  0  0  0  0  0  0
   48.2530   34.4550   39.4640 C   0  0  0  0  0  0  0  0  0  0  0  0
   47.0180   33.8650   39.6400 C   0  0  0  0  0  0  0  0  0  0  0  0
   46.3480   34.0820   40.8250 C   0  0  0  0  0  0  0  0  0  0  0  0
   46.0890   30.8770   46.9070 C   0  0  0  0  0  0  0  0  0  0  0  0
   45.9070   31.5140   48.2580 C   0  0  1  0  0  0  0  0  0  0  0  0
   45.6940   30.5890   49.4040 C   0  0  0  0  0  0  0  0  0  0  0  0
   46.9420   31.3200   49.3030 C   0  0  1  0  0  0  0  0  0  0  0  0
   48.2460   30.7490   48.8920 C   0  0  0  0  0  0  0  0  0  0  0  0
   49.2010   30.4270   50.0700 C   0  0  0  0  0  0  0  0  0  0  0  0
   49.4900   31.5960   49.2110 C   0  0  0  0  0  0  0  0  0  0  0  0
   45.5295   33.3121   47.2914 H   0  0  0  0  0  0  0  0  0  0  0  0
   46.1115   31.6974   44.7539 H   0  0  0  0  0  0  0  0  0  0  0  0
   43.8659   36.9916   44.6955 H   0  0  0  0  0  0  0  0  0  0  0  0
   45.0942   36.8810   42.5099 H   0  0  0  0  0  0  0  0  0  0  0  0
   48.4888   36.0453   42.4249 H   0  0  0  0  0  0  0  0  0  0  0  0
   49.7560   35.7168   40.3536 H   0  0  0  0  0  0  0  0  0  0  0  0
   48.8154   34.3031   38.5309 H   0  0  0  0  0  0  0  0  0  0  0  0
   46.5781   33.2357   38.8524 H   0  0  0  0  0  0  0  0  0  0  0  0
   45.3653   33.6035   40.9489 H   0  0  0  0  0  0  0  0  0  0  0  0
   45.3188   30.1055   46.7603 H   0  0  0  0  0  0  0  0  0  0  0  0
   47.0876   30.4189   46.8531 H   0  0  0  0  0  0  0  0  0  0  0  0
   45.4027   32.3917   47.8275 H   0  0  0  0  0  0  0  0  0  0  0  0
   44.9692   30.8477   50.1899 H   0  0  0  0  0  0  0  0  0  0  0  0
   45.4248   29.5269   49.5018 H   0  0  0  0  0  0  0  0  0  0  0  0
   47.4880   31.9307   50.0371 H   0  0  0  0  0  0  0  0  0  0  0  0
   47.8574   30.2293   48.0038 H   0  0  0  0  0  0  0  0  0  0  0  0
   48.8631   30.5791   51.1057 H   0  0  0  0  0  0  0  0  0  0  0  0
   49.7699   29.5387   50.3819 H   0  0  0  0  0  0  0  0  0  0  0  0
   50.3544   31.5723   48.5311 H   0  0  0  0  0  0  0  0  0  0  0  0
   49.6613   32.6655   49.4031 H   0  0  0  0  0  0  0  0  0  0  0  0
  2  1  2  0
  2 15  1  0
  3  8  2  0
  4  3  1  0
  5  4  2  0
  5  6  1  0
  6  7  2  0
  7  8  1  0
  7  1  1  0
  9  5  1  0
 10  9  2  0
 11 10  1  0
 12 13  1  0
 12 11  2  0
 13 14  2  0
 14  9  1  0
 15 16  1  0
 16 18  1  0
 16 17  1  0
 18 17  1  0
 19 21  1  0
 19 18  1  0
 19 20  1  0
 21 20  1  0
  1 22  1  0
  2 23  1  0
  3 24  1  0
  4 25  1  0
 10 26  1  0
 11 27  1  0
 12 28  1  0
 13 29  1  0
 14 30  1  0
 15 31  1  0
 15 32  1  0
 16 33  1  6
 17 34  1  0
 17 35  1  0
 18 36  1  1
 19 37  1  0
 20 38  1  0
 20 39  1  0
 21 40  1  0
 21 41  1  0
M  ISO  8  24  14  25  14  26  14  27  14  28  14  29  14  30  14  31   8
M  ISO  8  32   8  33  13  34  13  35  13  36  13  37  13  38  13  39  13
M  ISO  2  40  13  41  13
M  END
>  <minimizedAffinity>  (1) 
-6.25631332

>  <minimizedRMSD>  (1) 
0.654500425

$$$$
