
     RDKit          3D

 42 45  0  0  1  0  0  0  0  0999 V2000
   45.9990   33.0830   46.1780 C   0  0  0  0  0  0  0  0  0  0  0  0
   46.8060   32.1580   45.8650 C   0  0  0  0  0  0  0  0  0  0  0  0
   44.5310   35.9730   44.4240 C   0  0  0  0  0  0  0  0  0  0  0  0
   45.1720   35.9470   43.1910 C   0  0  0  0  0  0  0  0  0  0  0  0
   46.0750   34.9510   42.9990 C   0  0  0  0  0  0  0  0  0  0  0  0
   46.3170   34.0420   43.9880 N   0  0  0  0  0  0  0  0  0  0  0  0
   45.6780   34.0980   45.1730 C   0  0  0  0  0  0  0  0  0  0  0  0
   44.7980   35.0670   45.3580 N   0  0  0  0  0  0  0  0  0  0  0  0
   46.8220   34.7950   41.7600 C   0  0  0  0  0  0  0  0  0  0  0  0
   48.0330   35.3630   41.4980 C   0  0  0  0  0  0  0  0  0  0  0  0
   48.7270   35.2030   40.3160 C   0  0  0  0  0  0  0  0  0  0  0  0
   48.1910   34.4230   39.3070 C   0  0  0  0  0  0  0  0  0  0  0  0
   46.9760   33.8260   39.5110 C   0  0  0  0  0  0  0  0  0  0  0  0
   46.3260   34.0220   40.7160 C   0  0  0  0  0  0  0  0  0  0  0  0
   47.0400   31.1070   46.9230 C   0  0  0  0  0  0  0  0  0  0  0  0
   46.8340   31.6670   48.2840 C   0  0  1  0  0  0  0  0  0  0  0  0
   46.2770   30.7100   49.2830 C   0  0  0  0  0  0  0  0  0  0  0  0
   47.6470   31.1960   49.4210 C   0  0  1  0  0  0  0  0  0  0  0  0
   48.8260   30.3250   49.1220 C   0  0  2  0  0  0  0  0  0  0  0  0
   49.7170   30.0450   50.3590 C   0  0  0  0  0  0  0  0  0  0  0  0
   50.2150   30.9340   49.2970 C   0  0  2  0  0  0  0  0  0  0  0  0
   50.2190   32.3090   49.6220 O   0  0  0  0  0  0  0  0  0  0  0  0
   45.5500   33.1226   47.1814 H   0  0  0  0  0  0  0  0  0  0  0  0
   47.3043   32.1229   44.8850 H   0  0  0  0  0  0  0  0  0  0  0  0
   43.7889   36.7583   44.6302 H   0  0  0  0  0  0  0  0  0  0  0  0
   44.9591   36.6937   42.4118 H   0  0  0  0  0  0  0  0  0  0  0  0
   48.4867   35.9899   42.2798 H   0  0  0  0  0  0  0  0  0  0  0  0
   49.7018   35.6934   40.1768 H   0  0  0  0  0  0  0  0  0  0  0  0
   48.7309   34.2851   38.3586 H   0  0  0  0  0  0  0  0  0  0  0  0
   46.5234   33.1997   38.7281 H   0  0  0  0  0  0  0  0  0  0  0  0
   45.3508   33.5334   40.8581 H   0  0  0  0  0  0  0  0  0  0  0  0
   46.3372   30.2755   46.7659 H   0  0  0  0  0  0  0  0  0  0  0  0
   48.0786   30.7537   46.8427 H   0  0  0  0  0  0  0  0  0  0  0  0
   46.5975   32.6671   47.8916 H   0  0  0  0  0  0  0  0  0  0  0  0
   45.5019   31.0415   49.9896 H   0  0  0  0  0  0  0  0  0  0  0  0
   45.8049   29.7178   49.2309 H   0  0  0  0  0  0  0  0  0  0  0  0
   48.1951   31.6615   50.2534 H   0  0  0  0  0  0  0  0  0  0  0  0
   48.3276   29.7523   48.3260 H   0  0  0  0  0  0  0  0  0  0  0  0
   49.4415   30.4622   51.3388 H   0  0  0  0  0  0  0  0  0  0  0  0
   50.0969   29.1368   50.8497 H   0  0  0  0  0  0  0  0  0  0  0  0
   51.1278   30.9558   48.6835 H   0  0  0  0  0  0  0  0  0  0  0  0
   50.2193   32.4154   50.6063 H   0  0  0  0  0  0  0  0  0  0  0  0
  2  1  2  0
  2 15  1  0
  3  8  2  0
  4  3  1  0
  5  4  2  0
  5  6  1  0
  6  7  2  0
  7  8  1  0
  7  1  1  0
  9  5  1  0
 10  9  2  0
 11 10  1  0
 12 13  1  0
 12 11  2  0
 13 14  2  0
 14  9  1  0
 15 16  1  0
 16 17  1  0
 16 18  1  0
 17 18  1  0
 19 21  1  0
 19 18  1  0
 19 20  1  0
 21 22  1  0
 21 20  1  0
  1 23  1  0
  2 24  1  0
  3 25  1  0
  4 26  1  0
 10 27  1  0
 11 28  1  0
 12 29  1  0
 13 30  1  0
 14 31  1  0
 15 32  1  0
 15 33  1  0
 16 34  1  6
 17 35  1  0
 17 36  1  0
 18 37  1  1
 19 38  1  6
 20 39  1  0
 20 40  1  0
 21 41  1  6
 22 42  1  0
M  ISO  8  25  14  26  14  27  14  28  14  29  14  30  14  31  14  32   8
M  ISO  8  33   8  34  13  35  13  36  13  37  13  38  13  39  13  40  13
M  ISO  2  41  13  42   3
M  END
>  <minimizedAffinity>  (1) 
-6.31674004

>  <minimizedRMSD>  (1) 
0.573743641

$$$$
