
     RDKit          3D

 44 47  0  0  1  0  0  0  0  0999 V2000
   46.1610   33.0660   46.1740 C   0  0  0  0  0  0  0  0  0  0  0  0
   46.9840   32.1580   45.8520 C   0  0  0  0  0  0  0  0  0  0  0  0
   44.5400   35.8600   44.4010 C   0  0  0  0  0  0  0  0  0  0  0  0
   45.1640   35.8480   43.1600 C   0  0  0  0  0  0  0  0  0  0  0  0
   46.1080   34.8940   42.9740 C   0  0  0  0  0  0  0  0  0  0  0  0
   46.4000   34.0140   43.9730 N   0  0  0  0  0  0  0  0  0  0  0  0
   45.7800   34.0520   45.1600 C   0  0  0  0  0  0  0  0  0  0  0  0
   44.8590   34.9800   45.3430 N   0  0  0  0  0  0  0  0  0  0  0  0
   46.8480   34.7550   41.7230 C   0  0  0  0  0  0  0  0  0  0  0  0
   48.0530   35.3470   41.4580 C   0  0  0  0  0  0  0  0  0  0  0  0
   48.7420   35.2070   40.2730 C   0  0  0  0  0  0  0  0  0  0  0  0
   48.2130   34.4240   39.2610 C   0  0  0  0  0  0  0  0  0  0  0  0
   47.0090   33.8060   39.4690 C   0  0  0  0  0  0  0  0  0  0  0  0
   46.3570   33.9810   40.6780 C   0  0  0  0  0  0  0  0  0  0  0  0
   47.2870   31.1370   46.9270 C   0  0  0  0  0  0  0  0  0  0  0  0
   46.9310   31.6660   48.2720 C   0  0  1  0  0  0  0  0  0  0  0  0
   46.3750   30.6630   49.2250 C   0  0  0  0  0  0  0  0  0  0  0  0
   47.6910   31.2440   49.4650 C   0  0  1  0  0  0  0  0  0  0  0  0
   48.9460   30.4580   49.2530 C   0  0  2  0  0  0  0  0  0  0  0  0
   49.6880   30.1290   50.5760 C   0  0  0  0  0  0  0  0  0  0  0  0
   50.2670   31.1070   49.6500 C   0  0  1  0  0  0  0  0  0  0  0  0
   51.4780   30.6620   48.8610 C   0  0  0  0  0  0  0  0  0  0  0  0
   52.1550   29.7260   49.6160 F   0  0  0  0  0  0  0  0  0  0  0  0
   51.0650   29.9820   47.7150 F   0  0  0  0  0  0  0  0  0  0  0  0
   52.3030   31.7080   48.5570 F   0  0  0  0  0  0  0  0  0  0  0  0
   45.7428   33.1127   47.1903 H   0  0  0  0  0  0  0  0  0  0  0  0
   47.4481   32.1147   44.8556 H   0  0  0  0  0  0  0  0  0  0  0  0
   43.7659   36.6137   44.6076 H   0  0  0  0  0  0  0  0  0  0  0  0
   44.9064   36.5720   42.3729 H   0  0  0  0  0  0  0  0  0  0  0  0
   48.5007   35.9755   42.2420 H   0  0  0  0  0  0  0  0  0  0  0  0
   49.7075   35.7148   40.1317 H   0  0  0  0  0  0  0  0  0  0  0  0
   48.7494   34.3008   38.3086 H   0  0  0  0  0  0  0  0  0  0  0  0
   46.5643   33.1770   38.6838 H   0  0  0  0  0  0  0  0  0  0  0  0
   45.3902   33.4760   40.8203 H   0  0  0  0  0  0  0  0  0  0  0  0
   46.7045   30.2244   46.7324 H   0  0  0  0  0  0  0  0  0  0  0  0
   48.3640   30.9142   46.9089 H   0  0  0  0  0  0  0  0  0  0  0  0
   46.6462   32.6478   47.8657 H   0  0  0  0  0  0  0  0  0  0  0  0
   45.5286   30.9316   49.8742 H   0  0  0  0  0  0  0  0  0  0  0  0
   45.9815   29.6397   49.1350 H   0  0  0  0  0  0  0  0  0  0  0  0
   48.1427   31.7423   50.3355 H   0  0  0  0  0  0  0  0  0  0  0  0
   48.5851   29.9305   48.3577 H   0  0  0  0  0  0  0  0  0  0  0  0
   49.2704   30.4641   51.5369 H   0  0  0  0  0  0  0  0  0  0  0  0
   50.0490   29.2055   51.0523 H   0  0  0  0  0  0  0  0  0  0  0  0
   50.6119   32.1454   49.7627 H   0  0  0  0  0  0  0  0  0  0  0  0
  2  1  2  0
  2 15  1  0
  3  8  2  0
  4  3  1  0
  5  4  2  0
  5  6  1  0
  6  7  2  0
  7  8  1  0
  7  1  1  0
  9  5  1  0
 10  9  2  0
 11 10  1  0
 12 13  1  0
 12 11  2  0
 13 14  2  0
 14  9  1  0
 15 16  1  0
 16 17  1  0
 16 18  1  0
 17 18  1  0
 19 18  1  0
 19 21  1  0
 19 20  1  0
 21 20  1  0
 22 23  1  0
 22 21  1  0
 24 22  1  0
 25 22  1  0
  1 26  1  0
  2 27  1  0
  3 28  1  0
  4 29  1  0
 10 30  1  0
 11 31  1  0
 12 32  1  0
 13 33  1  0
 14 34  1  0
 15 35  1  0
 15 36  1  0
 16 37  1  6
 17 38  1  0
 17 39  1  0
 18 40  1  1
 19 41  1  6
 20 42  1  0
 20 43  1  0
 21 44  1  1
M  ISO  8  28  14  29  14  30  14  31  14  32  14  33  14  34  14  35   8
M  ISO  8  36   8  37  13  38  13  39  13  40  13  41  13  42  13  43  13
M  ISO  1  44  13
M  END
>  <minimizedAffinity>  (1) 
-6.2842679

>  <minimizedRMSD>  (1) 
0.785427988

$$$$
