
     RDKit          3D

 36 38  0  0  0  0  0  0  0  0999 V2000
   46.0690   34.0230   40.7890 C   0  0  0  0  0  0  0  0  0  0  0  0
   46.9340   33.9070   39.7120 C   0  0  0  0  0  0  0  0  0  0  0  0
   48.1990   34.4330   39.6280 C   0  0  0  0  0  0  0  0  0  0  0  0
   48.6160   35.1410   40.7490 C   0  0  0  0  0  0  0  0  0  0  0  0
   47.7900   35.2790   41.8390 C   0  0  0  0  0  0  0  0  0  0  0  0
   46.5360   34.7430   41.8890 C   0  0  0  0  0  0  0  0  0  0  0  0
   45.8330   34.9970   43.1370 C   0  0  0  0  0  0  0  0  0  0  0  0
   45.0250   36.0290   43.5380 C   0  0  0  0  0  0  0  0  0  0  0  0
   44.4710   36.0660   44.7960 C   0  0  0  0  0  0  0  0  0  0  0  0
   44.6740   35.0950   45.7410 C   0  0  0  0  0  0  0  0  0  0  0  0
   45.4800   34.0360   45.3850 C   0  0  0  0  0  0  0  0  0  0  0  0
   46.0280   34.0150   44.1190 C   0  0  0  0  0  0  0  0  0  0  0  0
   44.7120   33.4710   40.8490 C   0  0  0  0  0  0  0  0  0  0  0  0
   43.9500   33.7670   39.5530 C   0  0  0  0  0  0  0  0  0  0  0  0
   41.3100   35.4410   41.6370 C   0  0  0  0  0  0  0  0  0  0  0  0
   42.4670   34.7280   41.2560 C   0  0  0  0  0  0  0  0  0  0  0  0
   42.7330   34.5120   39.9160 C   0  0  0  0  0  0  0  0  0  0  0  0
   41.8330   35.0170   39.0270 N   0  0  0  0  0  0  0  0  0  0  0  0
   40.7360   35.6930   39.3970 C   0  0  0  0  0  0  0  0  0  0  0  0
   40.4590   35.9130   40.7020 N   0  0  0  0  0  0  0  0  0  0  0  0
   46.5722   33.3394   38.8420 H   0  0  0  0  0  0  0  0  0  0  0  0
   48.8352   34.3039   38.7399 H   0  0  0  0  0  0  0  0  0  0  0  0
   49.6175   35.5957   40.7641 H   0  0  0  0  0  0  0  0  0  0  0  0
   48.1554   35.8457   42.7081 H   0  0  0  0  0  0  0  0  0  0  0  0
   44.8143   36.8487   42.8354 H   0  0  0  0  0  0  0  0  0  0  0  0
   43.8304   36.9211   45.0577 H   0  0  0  0  0  0  0  0  0  0  0  0
   44.2144   35.1581   46.7384 H   0  0  0  0  0  0  0  0  0  0  0  0
   45.6829   33.2223   46.0969 H   0  0  0  0  0  0  0  0  0  0  0  0
   46.6691   33.1597   43.8591 H   0  0  0  0  0  0  0  0  0  0  0  0
   44.7710   32.3820   40.9927 H   0  0  0  0  0  0  0  0  0  0  0  0
   44.1767   33.9379   41.6889 H   0  0  0  0  0  0  0  0  0  0  0  0
   43.6790   32.8254   39.0532 H   0  0  0  0  0  0  0  0  0  0  0  0
   44.5729   34.3548   38.8627 H   0  0  0  0  0  0  0  0  0  0  0  0
   41.1006   35.6131   42.7031 H   0  0  0  0  0  0  0  0  0  0  0  0
   43.1558   34.3449   42.0233 H   0  0  0  0  0  0  0  0  0  0  0  0
   40.0501   36.0749   38.6264 H   0  0  0  0  0  0  0  0  0  0  0  0
  1 13  1  0
  1  6  1  0
  2  1  2  0
  3  2  1  0
  3  4  2  0
  4  5  1  0
  5  6  2  0
  6  7  1  0
  7  8  2  0
  7 12  1  0
  8  9  1  0
  9 10  2  0
 11 10  1  0
 12 11  2  0
 14 17  1  0
 14 13  1  0
 16 15  2  0
 17 16  1  0
 18 19  1  0
 18 17  2  0
 19 20  2  0
 20 15  1  0
  2 21  1  0
  3 22  1  0
  4 23  1  0
  5 24  1  0
  8 25  1  0
  9 26  1  0
 10 27  1  0
 11 28  1  0
 12 29  1  0
 13 30  1  0
 13 31  1  0
 14 32  1  0
 14 33  1  0
 15 34  1  0
 16 35  1  0
 19 36  1  0
M  ISO  8  21  14  22  14  23  14  24  14  25  14  26  14  27  14  28  14
M  ISO  8  29  14  30   8  31   8  32   8  33   8  34  14  35  14  36  14
M  END
>  <minimizedAffinity>  (1) 
-6.31932831

>  <minimizedRMSD>  (1) 
1.6276443

$$$$
