
     RDKit          3D

 33 35  0  0  0  0  0  0  0  0999 V2000
   46.1230   34.0110   40.8530 C   0  0  0  0  0  0  0  0  0  0  0  0
   46.9760   33.9350   39.7870 C   0  0  0  0  0  0  0  0  0  0  0  0
   48.2270   34.5140   39.7470 C   0  0  0  0  0  0  0  0  0  0  0  0
   48.6240   35.2120   40.8680 C   0  0  0  0  0  0  0  0  0  0  0  0
   47.7850   35.3010   41.9450 C   0  0  0  0  0  0  0  0  0  0  0  0
   46.5250   34.7190   41.9910 C   0  0  0  0  0  0  0  0  0  0  0  0
   45.8510   34.9270   43.2710 C   0  0  0  0  0  0  0  0  0  0  0  0
   45.0580   35.9160   43.6720 C   0  0  0  0  0  0  0  0  0  0  0  0
   44.4650   36.0060   44.8590 C   0  0  0  0  0  0  0  0  0  0  0  0
   44.7560   34.9010   45.7220 C   0  0  0  0  0  0  0  0  0  0  0  0
   45.8770   33.8790   44.6440 S   0  0  0  0  0  0  0  0  0  0  0  0
   44.7800   33.4190   40.8990 C   0  0  0  0  0  0  0  0  0  0  0  0
   43.7320   34.4250   40.3790 C   0  0  0  0  0  0  0  0  0  0  0  0
   40.1840   34.5430   41.6270 C   0  0  0  0  0  0  0  0  0  0  0  0
   41.4560   34.9560   41.1540 C   0  0  0  0  0  0  0  0  0  0  0  0
   42.4090   33.9910   40.8740 C   0  0  0  0  0  0  0  0  0  0  0  0
   42.0380   32.6960   41.0760 N   0  0  0  0  0  0  0  0  0  0  0  0
   40.8410   32.3250   41.5210 C   0  0  0  0  0  0  0  0  0  0  0  0
   39.9020   33.2350   41.8000 N   0  0  0  0  0  0  0  0  0  0  0  0
   46.6418   33.3742   38.9017 H   0  0  0  0  0  0  0  0  0  0  0  0
   48.8765   34.4234   38.8639 H   0  0  0  0  0  0  0  0  0  0  0  0
   49.6116   35.6955   40.8962 H   0  0  0  0  0  0  0  0  0  0  0  0
   48.1280   35.8657   42.8245 H   0  0  0  0  0  0  0  0  0  0  0  0
   44.8761   36.7329   42.9581 H   0  0  0  0  0  0  0  0  0  0  0  0
   43.8159   36.8454   45.1489 H   0  0  0  0  0  0  0  0  0  0  0  0
   44.4095   34.7079   46.7480 H   0  0  0  0  0  0  0  0  0  0  0  0
   44.7597   32.5166   40.2703 H   0  0  0  0  0  0  0  0  0  0  0  0
   44.5396   33.1588   41.9404 H   0  0  0  0  0  0  0  0  0  0  0  0
   43.7357   34.4350   39.2791 H   0  0  0  0  0  0  0  0  0  0  0  0
   43.9625   35.4401   40.7345 H   0  0  0  0  0  0  0  0  0  0  0  0
   39.4180   35.2986   41.8556 H   0  0  0  0  0  0  0  0  0  0  0  0
   41.6813   36.0233   41.0122 H   0  0  0  0  0  0  0  0  0  0  0  0
   40.6207   31.2564   41.6613 H   0  0  0  0  0  0  0  0  0  0  0  0
  1 12  1  0
  1  6  1  0
  2  1  2  0
  3  2  1  0
  3  4  2  0
  4  5  1  0
  5  6  2  0
  6  7  1  0
  7  8  2  0
  7 11  1  0
  8  9  1  0
  9 10  2  0
 11 10  1  0
 13 16  1  0
 13 12  1  0
 14 19  2  0
 15 14  1  0
 16 17  1  0
 16 15  2  0
 17 18  2  0
 18 19  1  0
  2 20  1  0
  3 21  1  0
  4 22  1  0
  5 23  1  0
  8 24  1  0
  9 25  1  0
 10 26  1  0
 12 27  1  0
 12 28  1  0
 13 29  1  0
 13 30  1  0
 14 31  1  0
 15 32  1  0
 18 33  1  0
M  ISO  8  20  14  21  14  22  14  23  14  24  14  25  14  26  14  27   8
M  ISO  6  28   8  29   8  30   8  31  14  32  14  33  14
M  END
>  <minimizedAffinity>  (1) 
-5.78307104

>  <minimizedRMSD>  (1) 
0.941767514

$$$$
