
     RDKit          3D

 41 43  0  0  0  0  0  0  0  0999 V2000
   45.6910   33.7600   40.7140 C   0  0  0  0  0  0  0  0  0  0  0  0
   46.1720   33.4470   39.4520 C   0  0  0  0  0  0  0  0  0  0  0  0
   47.4120   33.7690   38.9520 C   0  0  0  0  0  0  0  0  0  0  0  0
   48.2420   34.4840   39.8390 C   0  0  0  0  0  0  0  0  0  0  0  0
   47.8070   34.8170   41.1020 C   0  0  0  0  0  0  0  0  0  0  0  0
   46.5490   34.4670   41.5510 C   0  0  0  0  0  0  0  0  0  0  0  0
   46.2480   34.8740   42.8570 N   0  0  0  0  0  0  0  0  0  0  0  0
   45.5230   36.0990   43.1420 C   0  0  0  0  0  0  0  0  0  0  0  0
   44.2830   35.8200   44.0010 C   0  0  0  0  0  0  0  0  0  0  0  0
   44.7410   35.1870   45.2800 C   0  0  0  0  0  0  0  0  0  0  0  0
   45.4790   33.9160   44.9840 C   0  0  0  0  0  0  0  0  0  0  0  0
   46.6270   34.1210   44.0160 C   0  0  0  0  0  0  0  0  0  0  0  0
   44.3640   33.4060   41.2210 C   0  0  0  0  0  0  0  0  0  0  0  0
   43.3900   33.1930   40.0570 C   0  0  0  0  0  0  0  0  0  0  0  0
   40.2220   35.0970   39.3510 C   0  0  0  0  0  0  0  0  0  0  0  0
   41.3180   34.2130   39.2270 C   0  0  0  0  0  0  0  0  0  0  0  0
   42.2640   34.1310   40.2330 C   0  0  0  0  0  0  0  0  0  0  0  0
   42.0590   34.9400   41.3120 N   0  0  0  0  0  0  0  0  0  0  0  0
   41.0250   35.7670   41.4180 C   0  0  0  0  0  0  0  0  0  0  0  0
   40.1000   35.8590   40.4510 N   0  0  0  0  0  0  0  0  0  0  0  0
   45.4974   32.8877   38.7871 H   0  0  0  0  0  0  0  0  0  0  0  0
   47.7318   33.4899   37.9372 H   0  0  0  0  0  0  0  0  0  0  0  0
   49.2515   34.7801   39.5175 H   0  0  0  0  0  0  0  0  0  0  0  0
   48.4785   35.3760   41.7703 H   0  0  0  0  0  0  0  0  0  0  0  0
   46.1857   36.7913   43.6820 H   0  0  0  0  0  0  0  0  0  0  0  0
   45.1957   36.5409   42.1893 H   0  0  0  0  0  0  0  0  0  0  0  0
   43.7586   36.7624   44.2174 H   0  0  0  0  0  0  0  0  0  0  0  0
   43.5911   35.1507   43.4687 H   0  0  0  0  0  0  0  0  0  0  0  0
   45.4084   35.8810   45.8120 H   0  0  0  0  0  0  0  0  0  0  0  0
   43.8654   34.9602   45.9060 H   0  0  0  0  0  0  0  0  0  0  0  0
   45.8800   33.5138   45.9260 H   0  0  0  0  0  0  0  0  0  0  0  0
   44.7683   33.2193   44.5155 H   0  0  0  0  0  0  0  0  0  0  0  0
   46.9929   33.1359   43.6910 H   0  0  0  0  0  0  0  0  0  0  0  0
   47.4060   34.6922   44.5421 H   0  0  0  0  0  0  0  0  0  0  0  0
   44.4354   32.4790   41.8088 H   0  0  0  0  0  0  0  0  0  0  0  0
   43.9921   34.2253   41.8537 H   0  0  0  0  0  0  0  0  0  0  0  0
   43.0190   32.1575   40.0643 H   0  0  0  0  0  0  0  0  0  0  0  0
   43.8942   33.3741   39.0963 H   0  0  0  0  0  0  0  0  0  0  0  0
   39.4713   35.1609   38.5495 H   0  0  0  0  0  0  0  0  0  0  0  0
   41.4190   33.5881   38.3274 H   0  0  0  0  0  0  0  0  0  0  0  0
   40.9251   36.3903   42.3188 H   0  0  0  0  0  0  0  0  0  0  0  0
  1 13  1  0
  1  6  1  0
  2  1  2  0
  3  2  1  0
  3  4  2  0
  4  5  1  0
  5  6  2  0
  6  7  1  0
  7  8  1  0
  7 12  1  0
  8  9  1  0
  9 10  1  0
 11 10  1  0
 12 11  1  0
 14 17  1  0
 14 13  1  0
 15 20  2  0
 16 15  1  0
 16 17  2  0
 17 18  1  0
 18 19  2  0
 20 19  1  0
  2 21  1  0
  3 22  1  0
  4 23  1  0
  5 24  1  0
  8 25  1  0
  8 26  1  0
  9 27  1  0
  9 28  1  0
 10 29  1  0
 10 30  1  0
 11 31  1  0
 11 32  1  0
 12 33  1  0
 12 34  1  0
 13 35  1  0
 13 36  1  0
 14 37  1  0
 14 38  1  0
 15 39  1  0
 16 40  1  0
 19 41  1  0
M  ISO  8  21  14  22  14  23  14  24  14  25  13  26  13  27  13  28  13
M  ISO  8  29  13  30  13  31  13  32  13  33  13  34  13  35   8  36   8
M  ISO  5  37   8  38   8  39  14  40  14  41  14
M  END
>  <minimizedAffinity>  (1) 
-5.49858189

>  <minimizedRMSD>  (1) 
1.64519584

$$$$
