
     RDKit          3D

 54 57  0  0  0  0  0  0  0  0999 V2000
   46.2760   33.9610   40.5070 C   0  0  0  0  0  0  0  0  0  0  0  0
   46.9140   33.7920   39.2980 C   0  0  0  0  0  0  0  0  0  0  0  0
   48.1580   34.2960   39.0000 C   0  0  0  0  0  0  0  0  0  0  0  0
   48.7800   35.0200   40.0260 C   0  0  0  0  0  0  0  0  0  0  0  0
   48.1900   35.2150   41.2430 C   0  0  0  0  0  0  0  0  0  0  0  0
   46.9540   34.6980   41.4980 C   0  0  0  0  0  0  0  0  0  0  0  0
   46.4330   34.9460   42.7820 N   0  0  0  0  0  0  0  0  0  0  0  0
   45.5000   35.9910   43.0870 C   0  0  0  0  0  0  0  0  0  0  0  0
   44.7760   35.7140   44.3890 C   0  0  0  0  0  0  0  0  0  0  0  0
   44.4460   34.3460   44.6090 N   0  0  0  0  0  0  0  0  0  0  0  0
   45.5420   33.4520   44.5000 C   0  0  0  0  0  0  0  0  0  0  0  0
   46.7650   34.1790   43.9920 C   0  0  0  0  0  0  0  0  0  0  0  0
   44.9460   33.4280   40.8180 C   0  0  0  0  0  0  0  0  0  0  0  0
   43.9610   33.7000   39.6990 C   0  0  0  0  0  0  0  0  0  0  0  0
   41.2080   35.2930   41.7230 C   0  0  0  0  0  0  0  0  0  0  0  0
   42.4870   35.0330   41.1800 C   0  0  0  0  0  0  0  0  0  0  0  0
   42.6300   33.9810   40.2770 C   0  0  0  0  0  0  0  0  0  0  0  0
   41.5110   33.2580   39.9690 N   0  0  0  0  0  0  0  0  0  0  0  0
   40.3140   33.5190   40.4920 C   0  0  0  0  0  0  0  0  0  0  0  0
   40.1540   34.5280   41.3640 N   0  0  0  0  0  0  0  0  0  0  0  0
   39.1820   32.7300   40.1340 N   0  0  0  0  0  0  0  0  0  0  0  0
   38.4340   31.9850   41.1290 C   0  0  0  0  0  0  0  0  0  0  0  0
   37.8790   30.7760   40.3680 C   0  0  0  0  0  0  0  0  0  0  0  0
   38.9370   30.3370   39.4610 N   0  0  0  0  0  0  0  0  0  0  0  0
   39.0860   31.2110   38.3380 C   0  0  0  0  0  0  0  0  0  0  0  0
   38.7370   32.6460   38.7540 C   0  0  0  0  0  0  0  0  0  0  0  0
   46.3936   33.2154   38.5191 H   0  0  0  0  0  0  0  0  0  0  0  0
   48.6338   34.1411   38.0204 H   0  0  0  0  0  0  0  0  0  0  0  0
   49.7779   35.4462   39.8454 H   0  0  0  0  0  0  0  0  0  0  0  0
   48.7139   35.7911   42.0199 H   0  0  0  0  0  0  0  0  0  0  0  0
   46.0434   36.9435   43.1738 H   0  0  0  0  0  0  0  0  0  0  0  0
   44.7563   36.0421   42.2781 H   0  0  0  0  0  0  0  0  0  0  0  0
   45.4194   36.0482   45.2163 H   0  0  0  0  0  0  0  0  0  0  0  0
   43.8216   36.2582   44.3347 H   0  0  0  0  0  0  0  0  0  0  0  0
   44.0523   34.2584   45.5567 H   0  0  0  0  0  0  0  0  0  0  0  0
   45.7599   33.0232   45.4892 H   0  0  0  0  0  0  0  0  0  0  0  0
   45.2816   32.6524   43.7909 H   0  0  0  0  0  0  0  0  0  0  0  0
   47.5505   33.4466   43.7540 H   0  0  0  0  0  0  0  0  0  0  0  0
   47.1204   34.8710   44.7697 H   0  0  0  0  0  0  0  0  0  0  0  0
   45.0233   32.3412   40.9694 H   0  0  0  0  0  0  0  0  0  0  0  0
   44.5796   33.9260   41.7278 H   0  0  0  0  0  0  0  0  0  0  0  0
   43.8981   32.8194   39.0428 H   0  0  0  0  0  0  0  0  0  0  0  0
   44.2990   34.5678   39.1136 H   0  0  0  0  0  0  0  0  0  0  0  0
   41.0710   36.1180   42.4376 H   0  0  0  0  0  0  0  0  0  0  0  0
   43.3527   35.6491   41.4647 H   0  0  0  0  0  0  0  0  0  0  0  0
   39.0930   31.6598   41.9475 H   0  0  0  0  0  0  0  0  0  0  0  0
   37.6390   32.5881   41.5920 H   0  0  0  0  0  0  0  0  0  0  0  0
   37.6218   29.9698   41.0707 H   0  0  0  0  0  0  0  0  0  0  0  0
   36.9645   31.0384   39.8159 H   0  0  0  0  0  0  0  0  0  0  0  0
   39.8268   30.3085   39.9790 H   0  0  0  0  0  0  0  0  0  0  0  0
   38.4110   30.8891   37.5313 H   0  0  0  0  0  0  0  0  0  0  0  0
   40.1265   31.1760   37.9829 H   0  0  0  0  0  0  0  0  0  0  0  0
   39.2697   33.3755   38.1263 H   0  0  0  0  0  0  0  0  0  0  0  0
   37.6664   32.8713   38.6400 H   0  0  0  0  0  0  0  0  0  0  0  0
  1 13  1  0
  1  6  1  0
  2  1  2  0
  3  2  1  0
  3  4  2  0
  4  5  1  0
  5  6  2  0
  6  7  1  0
  7  8  1  0
  7 12  1  0
  8  9  1  0
  9 10  1  0
 11 10  1  0
 12 11  1  0
 14 17  1  0
 14 13  1  0
 16 15  2  0
 17 16  1  0
 18 17  2  0
 18 19  1  0
 19 20  2  0
 20 15  1  0
 21 19  1  0
 21 22  1  0
 23 22  1  0
 24 23  1  0
 25 26  1  0
 25 24  1  0
 26 21  1  0
  2 27  1  0
  3 28  1  0
  4 29  1  0
  5 30  1  0
  8 31  1  0
  8 32  1  0
  9 33  1  0
  9 34  1  0
 10 35  1  0
 11 36  1  0
 11 37  1  0
 12 38  1  0
 12 39  1  0
 13 40  1  0
 13 41  1  0
 14 42  1  0
 14 43  1  0
 15 44  1  0
 16 45  1  0
 22 46  1  0
 22 47  1  0
 23 48  1  0
 23 49  1  0
 24 50  1  0
 25 51  1  0
 25 52  1  0
 26 53  1  0
 26 54  1  0
M  ISO  8  27  14  28  14  29  14  30  14  31  13  32  13  33  13  34  13
M  ISO  8  35   5  36  13  37  13  38  13  39  13  40   8  41   8  42   8
M  ISO  8  43   8  44  14  45  14  46  13  47  13  48  13  49  13  50   5
M  ISO  4  51  13  52  13  53  13  54  13
M  END
>  <minimizedAffinity>  (1) 
-6.28615475

>  <minimizedRMSD>  (1) 
2.55882502

$$$$
