
     RDKit          3D

 41 43  0  0  0  0  0  0  0  0999 V2000
   45.8750   33.7960   40.5720 C   0  0  0  0  0  0  0  0  0  0  0  0
   46.4120   33.5140   39.3350 C   0  0  0  0  0  0  0  0  0  0  0  0
   47.6570   33.9030   38.9180 C   0  0  0  0  0  0  0  0  0  0  0  0
   48.4070   34.6380   39.8460 C   0  0  0  0  0  0  0  0  0  0  0  0
   47.9290   34.9480   41.0890 C   0  0  0  0  0  0  0  0  0  0  0  0
   46.6770   34.5350   41.4550 C   0  0  0  0  0  0  0  0  0  0  0  0
   46.2750   34.8960   42.7620 N   0  0  0  0  0  0  0  0  0  0  0  0
   45.3900   35.9810   43.0620 C   0  0  0  0  0  0  0  0  0  0  0  0
   44.7820   35.8190   44.4460 C   0  0  0  0  0  0  0  0  0  0  0  0
   44.4500   34.4790   44.7940 N   0  0  0  0  0  0  0  0  0  0  0  0
   45.5150   33.5530   44.6610 C   0  0  0  0  0  0  0  0  0  0  0  0
   46.7020   34.2160   43.9950 C   0  0  0  0  0  0  0  0  0  0  0  0
   44.5430   33.3770   41.0120 C   0  0  0  0  0  0  0  0  0  0  0  0
   43.5900   33.2470   39.8430 C   0  0  0  0  0  0  0  0  0  0  0  0
   40.7340   35.7060   39.6190 C   0  0  0  0  0  0  0  0  0  0  0  0
   41.9310   35.0160   39.3290 C   0  0  0  0  0  0  0  0  0  0  0  0
   42.3410   33.9750   40.1510 C   0  0  0  0  0  0  0  0  0  0  0  0
   41.5490   33.6630   41.2270 N   0  0  0  0  0  0  0  0  0  0  0  0
   40.4140   34.3390   41.4780 C   0  0  0  0  0  0  0  0  0  0  0  0
   40.0090   35.3500   40.6830 N   0  0  0  0  0  0  0  0  0  0  0  0
   39.7460   33.8820   42.6060 O   0  0  0  0  0  0  0  0  0  0  0  0
   45.7962   32.9345   38.6315 H   0  0  0  0  0  0  0  0  0  0  0  0
   48.0436   33.6545   37.9186 H   0  0  0  0  0  0  0  0  0  0  0  0
   49.4149   34.9772   39.5648 H   0  0  0  0  0  0  0  0  0  0  0  0
   48.5477   35.5263   41.7910 H   0  0  0  0  0  0  0  0  0  0  0  0
   45.9526   36.9255   43.0242 H   0  0  0  0  0  0  0  0  0  0  0  0
   44.5779   35.9873   42.3201 H   0  0  0  0  0  0  0  0  0  0  0  0
   45.5046   36.1964   45.1846 H   0  0  0  0  0  0  0  0  0  0  0  0
   43.8375   36.3828   44.4397 H   0  0  0  0  0  0  0  0  0  0  0  0
   44.1374   34.4701   45.7754 H   0  0  0  0  0  0  0  0  0  0  0  0
   45.8111   33.1937   45.6576 H   0  0  0  0  0  0  0  0  0  0  0  0
   45.1811   32.7074   44.0417 H   0  0  0  0  0  0  0  0  0  0  0  0
   47.4539   33.4522   43.7476 H   0  0  0  0  0  0  0  0  0  0  0  0
   47.1339   34.9569   44.6838 H   0  0  0  0  0  0  0  0  0  0  0  0
   44.6231   32.4037   41.5182 H   0  0  0  0  0  0  0  0  0  0  0  0
   44.1483   34.1421   41.6967 H   0  0  0  0  0  0  0  0  0  0  0  0
   43.3634   32.1847   39.6694 H   0  0  0  0  0  0  0  0  0  0  0  0
   44.0525   33.6721   38.9400 H   0  0  0  0  0  0  0  0  0  0  0  0
   40.4005   36.5315   38.9730 H   0  0  0  0  0  0  0  0  0  0  0  0
   42.5360   35.3018   38.4559 H   0  0  0  0  0  0  0  0  0  0  0  0
   38.8970   34.3080   42.8851 H   0  0  0  0  0  0  0  0  0  0  0  0
  1 13  1  0
  1  6  1  0
  2  1  2  0
  3  2  1  0
  3  4  2  0
  4  5  1  0
  5  6  2  0
  6  7  1  0
  7  8  1  0
  7 12  1  0
  8  9  1  0
  9 10  1  0
 11 10  1  0
 12 11  1  0
 14 17  1  0
 14 13  1  0
 15 20  2  0
 16 15  1  0
 16 17  2  0
 17 18  1  0
 18 19  2  0
 19 21  1  0
 20 19  1  0
  2 22  1  0
  3 23  1  0
  4 24  1  0
  5 25  1  0
  8 26  1  0
  8 27  1  0
  9 28  1  0
  9 29  1  0
 10 30  1  0
 11 31  1  0
 11 32  1  0
 12 33  1  0
 12 34  1  0
 13 35  1  0
 13 36  1  0
 14 37  1  0
 14 38  1  0
 15 39  1  0
 16 40  1  0
 21 41  1  0
M  ISO  8  22  14  23  14  24  14  25  14  26  13  27  13  28  13  29  13
M  ISO  8  30   5  31  13  32  13  33  13  34  13  35   8  36   8  37   8
M  ISO  4  38   8  39  14  40  14  41   3
M  END
>  <minimizedAffinity>  (1) 
-6.07538605

>  <minimizedRMSD>  (1) 
0.235581279

$$$$
