
     RDKit          3D

 47 50  0  0  0  0  0  0  0  0999 V2000
   45.6760   33.2070   38.9210 C   0  0  0  0  0  0  0  0  0  0  0  0
   46.2140   33.2300   37.6520 C   0  0  0  0  0  0  0  0  0  0  0  0
   47.4760   33.6860   37.3550 C   0  0  0  0  0  0  0  0  0  0  0  0
   48.2280   34.1480   38.4440 C   0  0  0  0  0  0  0  0  0  0  0  0
   47.7380   34.1450   39.7250 C   0  0  0  0  0  0  0  0  0  0  0  0
   46.4800   33.6820   39.9700 C   0  0  0  0  0  0  0  0  0  0  0  0
   46.0710   33.7160   41.3190 N   0  0  0  0  0  0  0  0  0  0  0  0
   45.4160   34.8330   41.9360 C   0  0  0  0  0  0  0  0  0  0  0  0
   44.6940   34.4160   43.1930 C   0  0  0  0  0  0  0  0  0  0  0  0
   44.0650   33.1410   43.1230 N   0  0  0  0  0  0  0  0  0  0  0  0
   44.9170   32.0830   42.7180 C   0  0  0  0  0  0  0  0  0  0  0  0
   46.2560   32.6250   42.2890 C   0  0  0  0  0  0  0  0  0  0  0  0
   44.3270   32.7310   39.2360 C   0  0  0  0  0  0  0  0  0  0  0  0
   43.2960   33.8300   39.0750 C   0  0  0  0  0  0  0  0  0  0  0  0
   40.2530   34.4020   41.2320 C   0  0  0  0  0  0  0  0  0  0  0  0
   41.3050   34.6530   40.3180 C   0  0  0  0  0  0  0  0  0  0  0  0
   42.1870   33.6080   40.0310 C   0  0  0  0  0  0  0  0  0  0  0  0
   41.9820   32.4060   40.6510 N   0  0  0  0  0  0  0  0  0  0  0  0
   40.9810   32.2000   41.5090 C   0  0  0  0  0  0  0  0  0  0  0  0
   40.1180   33.1950   41.8000 N   0  0  0  0  0  0  0  0  0  0  0  0
   40.9160   30.8530   42.0750 C   0  0  0  0  0  0  0  0  0  0  0  0
   41.1660   29.5650   41.6780 C   0  0  0  0  0  0  0  0  0  0  0  0
   40.8780   28.7460   42.7700 C   0  0  0  0  0  0  0  0  0  0  0  0
   40.4640   29.6050   43.7790 C   0  0  0  0  0  0  0  0  0  0  0  0
   40.4970   30.8340   43.3400 O   0  0  0  0  0  0  0  0  0  0  0  0
   45.5929   32.8593   36.8233 H   0  0  0  0  0  0  0  0  0  0  0  0
   47.8708   33.6883   36.3283 H   0  0  0  0  0  0  0  0  0  0  0  0
   49.2455   34.5257   38.2651 H   0  0  0  0  0  0  0  0  0  0  0  0
   48.3595   34.5158   40.5534 H   0  0  0  0  0  0  0  0  0  0  0  0
   46.1681   35.5944   42.1901 H   0  0  0  0  0  0  0  0  0  0  0  0
   44.6776   35.2381   41.2284 H   0  0  0  0  0  0  0  0  0  0  0  0
   45.4238   34.3932   44.0157 H   0  0  0  0  0  0  0  0  0  0  0  0
   43.8901   35.1507   43.3475 H   0  0  0  0  0  0  0  0  0  0  0  0
   43.6935   32.9146   44.0566 H   0  0  0  0  0  0  0  0  0  0  0  0
   45.0591   31.3891   43.5596 H   0  0  0  0  0  0  0  0  0  0  0  0
   44.4555   31.5567   41.8695 H   0  0  0  0  0  0  0  0  0  0  0  0
   46.8427   31.8194   41.8234 H   0  0  0  0  0  0  0  0  0  0  0  0
   46.7875   33.0125   43.1707 H   0  0  0  0  0  0  0  0  0  0  0  0
   44.0738   31.9020   38.5588 H   0  0  0  0  0  0  0  0  0  0  0  0
   44.3153   32.3992   40.2847 H   0  0  0  0  0  0  0  0  0  0  0  0
   43.7643   34.8048   39.2761 H   0  0  0  0  0  0  0  0  0  0  0  0
   42.9034   33.8178   38.0475 H   0  0  0  0  0  0  0  0  0  0  0  0
   39.5409   35.2036   41.4780 H   0  0  0  0  0  0  0  0  0  0  0  0
   41.4242   35.6405   39.8483 H   0  0  0  0  0  0  0  0  0  0  0  0
   41.5242   29.2402   40.6900 H   0  0  0  0  0  0  0  0  0  0  0  0
   40.9614   27.6503   42.8209 H   0  0  0  0  0  0  0  0  0  0  0  0
   40.1565   29.2982   44.7896 H   0  0  0  0  0  0  0  0  0  0  0  0
  1 13  1  0
  1  6  1  0
  2  1  2  0
  3  2  1  0
  3  4  2  0
  4  5  1  0
  5  6  2  0
  6  7  1  0
  7  8  1  0
  7 12  1  0
  8  9  1  0
 10  9  1  0
 11 10  1  0
 12 11  1  0
 14 13  1  0
 14 17  1  0
 15 20  2  0
 16 15  1  0
 17 16  2  0
 17 18  1  0
 18 19  2  0
 19 20  1  0
 19 21  1  0
 21 25  1  0
 22 21  2  0
 22 23  1  0
 23 24  2  0
 25 24  1  0
  2 26  1  0
  3 27  1  0
  4 28  1  0
  5 29  1  0
  8 30  1  0
  8 31  1  0
  9 32  1  0
  9 33  1  0
 10 34  1  0
 11 35  1  0
 11 36  1  0
 12 37  1  0
 12 38  1  0
 13 39  1  0
 13 40  1  0
 14 41  1  0
 14 42  1  0
 15 43  1  0
 16 44  1  0
 22 45  1  0
 23 46  1  0
 24 47  1  0
M  ISO  8  26  14  27  14  28  14  29  14  30  13  31  13  32  13  33  13
M  ISO  8  34   5  35  13  36  13  37  13  38  13  39   8  40   8  41   8
M  ISO  6  42   8  43  14  44  14  45  14  46  14  47  14
M  END
>  <minimizedAffinity>  (1) 
-5.00620508

>  <minimizedRMSD>  (1) 
2.80000567

$$$$
