
     RDKit          3D

 43 45  0  0  0  0  0  0  0  0999 V2000
   46.1860   33.8170   40.4340 C   0  0  0  0  0  0  0  0  0  0  0  0
   46.7880   33.6270   39.2080 C   0  0  0  0  0  0  0  0  0  0  0  0
   48.0160   34.1370   38.8600 C   0  0  0  0  0  0  0  0  0  0  0  0
   48.6610   34.8930   39.8480 C   0  0  0  0  0  0  0  0  0  0  0  0
   48.1070   35.1080   41.0760 C   0  0  0  0  0  0  0  0  0  0  0  0
   46.8880   34.5850   41.3830 C   0  0  0  0  0  0  0  0  0  0  0  0
   46.4050   34.8550   42.6770 N   0  0  0  0  0  0  0  0  0  0  0  0
   45.4770   35.9010   42.9940 C   0  0  0  0  0  0  0  0  0  0  0  0
   44.7920   35.6450   44.3250 C   0  0  0  0  0  0  0  0  0  0  0  0
   44.4920   34.2860   44.5670 N   0  0  0  0  0  0  0  0  0  0  0  0
   45.5700   33.3920   44.4540 C   0  0  0  0  0  0  0  0  0  0  0  0
   46.7780   34.1110   43.8920 C   0  0  0  0  0  0  0  0  0  0  0  0
   44.8750   33.2750   40.7980 C   0  0  0  0  0  0  0  0  0  0  0  0
   44.0720   32.8800   39.5760 C   0  0  0  0  0  0  0  0  0  0  0  0
   41.3750   35.3460   38.6360 C   0  0  0  0  0  0  0  0  0  0  0  0
   42.6000   34.6350   38.6340 C   0  0  0  0  0  0  0  0  0  0  0  0
   42.7980   33.6330   39.5610 C   0  0  0  0  0  0  0  0  0  0  0  0
   41.7810   33.3830   40.4430 N   0  0  0  0  0  0  0  0  0  0  0  0
   40.6350   34.0570   40.4360 C   0  0  0  0  0  0  0  0  0  0  0  0
   40.4250   35.0390   39.5370 N   0  0  0  0  0  0  0  0  0  0  0  0
   39.6280   33.6650   41.4610 C   0  0  0  0  0  0  0  0  0  0  0  0
   46.2498   33.0276   38.4589 H   0  0  0  0  0  0  0  0  0  0  0  0
   48.4634   33.9630   37.8703 H   0  0  0  0  0  0  0  0  0  0  0  0
   49.6468   35.3276   39.6260 H   0  0  0  0  0  0  0  0  0  0  0  0
   48.6484   35.7075   41.8226 H   0  0  0  0  0  0  0  0  0  0  0  0
   46.0188   36.8568   43.0476 H   0  0  0  0  0  0  0  0  0  0  0  0
   44.7082   35.9336   42.2080 H   0  0  0  0  0  0  0  0  0  0  0  0
   45.4538   36.0011   45.1283 H   0  0  0  0  0  0  0  0  0  0  0  0
   43.8322   36.1816   44.2963 H   0  0  0  0  0  0  0  0  0  0  0  0
   44.1179   34.2105   45.5237 H   0  0  0  0  0  0  0  0  0  0  0  0
   45.8151   32.9885   45.4475 H   0  0  0  0  0  0  0  0  0  0  0  0
   45.2903   32.5705   43.7781 H   0  0  0  0  0  0  0  0  0  0  0  0
   47.5563   33.3746   43.6430 H   0  0  0  0  0  0  0  0  0  0  0  0
   47.1581   34.8179   44.6442 H   0  0  0  0  0  0  0  0  0  0  0  0
   45.0198   32.3874   41.4314 H   0  0  0  0  0  0  0  0  0  0  0  0
   44.3184   34.0569   41.3355 H   0  0  0  0  0  0  0  0  0  0  0  0
   44.6470   33.1133   38.6678 H   0  0  0  0  0  0  0  0  0  0  0  0
   43.8609   31.8009   39.6079 H   0  0  0  0  0  0  0  0  0  0  0  0
   41.2012   36.1471   37.9025 H   0  0  0  0  0  0  0  0  0  0  0  0
   43.3840   34.8790   37.9020 H   0  0  0  0  0  0  0  0  0  0  0  0
   40.0452   33.8274   42.4658 H   0  0  0  0  0  0  0  0  0  0  0  0
   38.7217   34.2760   41.3371 H   0  0  0  0  0  0  0  0  0  0  0  0
   39.3734   32.6021   41.3371 H   0  0  0  0  0  0  0  0  0  0  0  0
  1 13  1  0
  1  6  1  0
  2  1  2  0
  3  2  1  0
  3  4  2  0
  4  5  1  0
  5  6  2  0
  6  7  1  0
  7  8  1  0
  7 12  1  0
  8  9  1  0
  9 10  1  0
 11 10  1  0
 12 11  1  0
 14 13  1  0
 15 20  2  0
 16 15  1  0
 16 17  2  0
 17 14  1  0
 17 18  1  0
 19 18  2  0
 19 21  1  0
 20 19  1  0
  2 22  1  0
  3 23  1  0
  4 24  1  0
  5 25  1  0
  8 26  1  0
  8 27  1  0
  9 28  1  0
  9 29  1  0
 10 30  1  0
 11 31  1  0
 11 32  1  0
 12 33  1  0
 12 34  1  0
 13 35  1  0
 13 36  1  0
 14 37  1  0
 14 38  1  0
 15 39  1  0
 16 40  1  0
 21 41  1  0
 21 42  1  0
 21 43  1  0
M  ISO  8  22  14  23  14  24  14  25  14  26  13  27  13  28  13  29  13
M  ISO  8  30   5  31  13  32  13  33  13  34  13  35   8  36   8  37   8
M  ISO  6  38   8  39  14  40  14  41   8  42   8  43   8
M  END
>  <minimizedAffinity>  (1) 
-5.37895632

>  <minimizedRMSD>  (1) 
0.750050128

$$$$
