
     RDKit          3D

 43 47  0  0  1  0  0  0  0  0999 V2000
   46.2310   33.0310   46.6570 C   0  0  1  0  0  0  0  0  0  0  0  0
   45.2850   32.6560   47.7170 C   0  0  0  0  0  0  0  0  0  0  0  0
   45.7690   31.6570   46.5920 C   0  0  2  0  0  0  0  0  0  0  0  0
   46.5630   30.4820   46.9660 C   0  0  0  0  0  0  0  0  0  0  0  0
   47.8670   30.4560   47.3560 C   0  0  0  0  0  0  0  0  0  0  0  0
   48.6220   29.3140   47.5820 C   0  0  0  0  0  0  0  0  0  0  0  0
   47.9730   28.0860   47.3870 C   0  0  0  0  0  0  0  0  0  0  0  0
   46.6350   28.0860   46.9880 C   0  0  0  0  0  0  0  0  0  0  0  0
   46.0230   26.8510   46.8700 C   0  0  0  0  0  0  0  0  0  0  0  0
   44.6700   26.8040   46.5460 C   0  0  0  0  0  0  0  0  0  0  0  0
   43.9500   27.9640   46.3480 C   0  0  0  0  0  0  0  0  0  0  0  0
   44.6150   29.1610   46.4770 C   0  0  0  0  0  0  0  0  0  0  0  0
   45.9590   29.2620   46.7890 C   0  0  0  0  0  0  0  0  0  0  0  0
   44.4480   35.6830   44.8080 C   0  0  0  0  0  0  0  0  0  0  0  0
   45.1160   35.6690   43.5350 C   0  0  0  0  0  0  0  0  0  0  0  0
   46.1750   34.7450   43.3640 C   0  0  0  0  0  0  0  0  0  0  0  0
   46.5220   33.9220   44.3770 N   0  0  0  0  0  0  0  0  0  0  0  0
   45.8400   33.9840   45.5760 C   0  0  0  0  0  0  0  0  0  0  0  0
   44.8400   34.8350   45.7820 N   0  0  0  0  0  0  0  0  0  0  0  0
   45.2060   33.2330   41.3030 F   0  0  0  0  0  0  0  0  0  0  0  0
   46.3780   33.9140   41.0730 C   0  0  0  0  0  0  0  0  0  0  0  0
   46.8880   34.6840   42.0970 C   0  0  0  0  0  0  0  0  0  0  0  0
   48.0450   35.3300   41.8110 C   0  0  0  0  0  0  0  0  0  0  0  0
   48.6870   35.2370   40.5790 C   0  0  0  0  0  0  0  0  0  0  0  0
   48.1270   34.4510   39.5940 C   0  0  0  0  0  0  0  0  0  0  0  0
   46.9580   33.7750   39.8310 C   0  0  0  0  0  0  0  0  0  0  0  0
   47.2295   33.4910   46.6956 H   0  0  0  0  0  0  0  0  0  0  0  0
   45.6276   32.5369   48.7555 H   0  0  0  0  0  0  0  0  0  0  0  0
   44.3196   33.0273   48.0913 H   0  0  0  0  0  0  0  0  0  0  0  0
   45.3313   31.0419   45.7920 H   0  0  0  0  0  0  0  0  0  0  0  0
   48.3657   31.4250   47.5050 H   0  0  0  0  0  0  0  0  0  0  0  0
   49.6743   29.3689   47.8975 H   0  0  0  0  0  0  0  0  0  0  0  0
   48.5092   27.1387   47.5458 H   0  0  0  0  0  0  0  0  0  0  0  0
   46.5942   25.9245   47.0290 H   0  0  0  0  0  0  0  0  0  0  0  0
   44.1688   25.8299   46.4466 H   0  0  0  0  0  0  0  0  0  0  0  0
   42.8799   27.9326   46.0954 H   0  0  0  0  0  0  0  0  0  0  0  0
   44.0464   30.0900   46.3235 H   0  0  0  0  0  0  0  0  0  0  0  0
   43.6191   36.3834   44.9878 H   0  0  0  0  0  0  0  0  0  0  0  0
   44.8158   36.3500   42.7250 H   0  0  0  0  0  0  0  0  0  0  0  0
   48.4991   35.9588   42.5909 H   0  0  0  0  0  0  0  0  0  0  0  0
   49.6250   35.7813   40.3945 H   0  0  0  0  0  0  0  0  0  0  0  0
   48.6201   34.3661   38.6144 H   0  0  0  0  0  0  0  0  0  0  0  0
   46.4989   33.1434   39.0562 H   0  0  0  0  0  0  0  0  0  0  0  0
  1  2  1  0
  3  1  1  0
  3  4  1  0
  3  2  1  0
  4  5  2  0
  5  6  1  0
  7  6  2  0
  8  7  1  0
  9  8  2  0
 10  9  1  0
 11 12  1  0
 11 10  2  0
 12 13  2  0
 13  4  1  0
 13  8  1  0
 14 19  2  0
 15 14  1  0
 16 15  2  0
 16 17  1  0
 17 18  2  0
 18 19  1  0
 18  1  1  0
 21 20  1  0
 21 22  2  0
 22 16  1  0
 23 22  1  0
 24 23  2  0
 25 26  2  0
 25 24  1  0
 26 21  1  0
  1 27  1  1
  2 28  1  0
  2 29  1  0
  3 30  1  6
  5 31  1  0
  6 32  1  0
  7 33  1  0
  9 34  1  0
 10 35  1  0
 11 36  1  0
 12 37  1  0
 14 38  1  0
 15 39  1  0
 23 40  1  0
 24 41  1  0
 25 42  1  0
 26 43  1  0
M  ISO  8  27  13  28  13  29  13  30  13  31  14  32  14  33  14  34  14
M  ISO  8  35  14  36  14  37  14  38  14  39  14  40  14  41  14  42  14
M  ISO  1  43  14
M  END
>  <minimizedAffinity>  (1) 
-7.083992

>  <minimizedRMSD>  (1) 
1.72126949

$$$$
