
     RDKit          3D

 42 46  0  0  1  0  0  0  0  0999 V2000
   46.4050   32.2950   46.2970 C   0  0  1  0  0  0  0  0  0  0  0  0
   46.6770   32.5260   47.7220 C   0  0  0  0  0  0  0  0  0  0  0  0
   45.3740   31.8020   47.1900 C   0  0  2  0  0  0  0  0  0  0  0  0
   45.1510   30.3920   47.5320 C   0  0  0  0  0  0  0  0  0  0  0  0
   45.0470   29.8490   48.7730 C   0  0  0  0  0  0  0  0  0  0  0  0
   44.9530   28.4910   49.0580 C   0  0  0  0  0  0  0  0  0  0  0  0
   44.9680   27.6200   47.9550 C   0  0  0  0  0  0  0  0  0  0  0  0
   45.0720   28.1540   46.6680 C   0  0  0  0  0  0  0  0  0  0  0  0
   45.0210   27.2590   45.6120 C   0  0  0  0  0  0  0  0  0  0  0  0
   45.0490   27.7550   44.3190 C   0  0  0  0  0  0  0  0  0  0  0  0
   45.1230   29.1120   44.0810 C   0  0  0  0  0  0  0  0  0  0  0  0
   45.1730   29.9520   45.1680 C   0  0  0  0  0  0  0  0  0  0  0  0
   45.1570   29.5120   46.4790 C   0  0  0  0  0  0  0  0  0  0  0  0
   44.8230   35.3250   44.8970 C   0  0  0  0  0  0  0  0  0  0  0  0
   45.4900   35.4570   43.6310 C   0  0  0  0  0  0  0  0  0  0  0  0
   46.4840   34.4920   43.3030 C   0  0  0  0  0  0  0  0  0  0  0  0
   46.7640   33.5020   44.1770 N   0  0  0  0  0  0  0  0  0  0  0  0
   46.0880   33.4280   45.3780 C   0  0  0  0  0  0  0  0  0  0  0  0
   45.1520   34.3090   45.7220 N   0  0  0  0  0  0  0  0  0  0  0  0
   47.1650   34.6200   42.0210 C   0  0  0  0  0  0  0  0  0  0  0  0
   48.2560   35.4600   41.9450 C   0  0  0  0  0  0  0  0  0  0  0  0
   48.8750   35.5580   40.7270 C   0  0  0  0  0  0  0  0  0  0  0  0
   48.3610   34.8120   39.6710 C   0  0  0  0  0  0  0  0  0  0  0  0
   47.2580   33.9660   39.7570 C   0  0  0  0  0  0  0  0  0  0  0  0
   46.6960   33.9130   40.9790 N   0  0  0  0  0  0  0  0  0  0  0  0
   47.0071   31.8249   45.5055 H   0  0  0  0  0  0  0  0  0  0  0  0
   47.4612   31.9555   48.2412 H   0  0  0  0  0  0  0  0  0  0  0  0
   46.9031   33.3930   48.3601 H   0  0  0  0  0  0  0  0  0  0  0  0
   44.2822   31.9309   47.2268 H   0  0  0  0  0  0  0  0  0  0  0  0
   45.0362   30.5434   49.6260 H   0  0  0  0  0  0  0  0  0  0  0  0
   44.8714   28.1190   50.0900 H   0  0  0  0  0  0  0  0  0  0  0  0
   44.8988   26.5322   48.1030 H   0  0  0  0  0  0  0  0  0  0  0  0
   44.9595   26.1763   45.7965 H   0  0  0  0  0  0  0  0  0  0  0  0
   45.0117   27.0569   43.4697 H   0  0  0  0  0  0  0  0  0  0  0  0
   45.1414   29.5087   43.0552 H   0  0  0  0  0  0  0  0  0  0  0  0
   45.2289   31.0352   44.9847 H   0  0  0  0  0  0  0  0  0  0  0  0
   44.0484   36.0482   45.1920 H   0  0  0  0  0  0  0  0  0  0  0  0
   45.2412   36.2753   42.9393 H   0  0  0  0  0  0  0  0  0  0  0  0
   48.6118   36.0239   42.8199 H   0  0  0  0  0  0  0  0  0  0  0  0
   49.7522   36.2070   40.5879 H   0  0  0  0  0  0  0  0  0  0  0  0
   48.8630   34.8967   38.6959 H   0  0  0  0  0  0  0  0  0  0  0  0
   46.8786   33.3905   38.8998 H   0  0  0  0  0  0  0  0  0  0  0  0
  1  3  1  0
  1  2  1  0
  3  4  1  0
  3  2  1  0
  4  5  2  0
  5  6  1  0
  7  6  2  0
  8  7  1  0
  9  8  2  0
 10  9  1  0
 11 10  2  0
 11 12  1  0
 12 13  2  0
 13  8  1  0
 13  4  1  0
 14 19  2  0
 15 14  1  0
 16 15  2  0
 16 17  1  0
 17 18  2  0
 18 19  1  0
 18  1  1  0
 20 16  1  0
 21 20  2  0
 22 21  1  0
 23 24  1  0
 23 22  2  0
 24 25  2  0
 25 20  1  0
  1 26  1  6
  2 27  1  0
  2 28  1  0
  3 29  1  6
  5 30  1  0
  6 31  1  0
  7 32  1  0
  9 33  1  0
 10 34  1  0
 11 35  1  0
 12 36  1  0
 14 37  1  0
 15 38  1  0
 21 39  1  0
 22 40  1  0
 23 41  1  0
 24 42  1  0
M  ISO  8  26  13  27  13  28  13  29  13  30  14  31  14  32  14  33  14
M  ISO  8  34  14  35  14  36  14  37  14  38  14  39  14  40  14  41  14
M  ISO  1  42  14
M  END
>  <minimizedAffinity>  (1) 
-5.9279213

>  <minimizedRMSD>  (1) 
0.761107385

$$$$
