
     RDKit          3D

 46 50  0  0  1  0  0  0  0  0999 V2000
   46.3200   32.4250   46.2470 C   0  0  1  0  0  0  0  0  0  0  0  0
   46.7180   32.6130   47.6490 C   0  0  0  0  0  0  0  0  0  0  0  0
   45.3700   31.9090   47.2120 C   0  0  2  0  0  0  0  0  0  0  0  0
   45.1620   30.4940   47.5230 C   0  0  0  0  0  0  0  0  0  0  0  0
   45.0510   29.9240   48.7530 C   0  0  0  0  0  0  0  0  0  0  0  0
   44.9840   28.5620   49.0180 C   0  0  0  0  0  0  0  0  0  0  0  0
   45.0370   27.7080   47.8980 C   0  0  0  0  0  0  0  0  0  0  0  0
   45.1470   28.2680   46.6340 C   0  0  0  0  0  0  0  0  0  0  0  0
   45.1350   27.3910   45.5650 C   0  0  0  0  0  0  0  0  0  0  0  0
   45.1750   27.9020   44.2650 C   0  0  0  0  0  0  0  0  0  0  0  0
   45.2220   29.2650   44.0520 C   0  0  0  0  0  0  0  0  0  0  0  0
   45.2340   30.0890   45.1530 C   0  0  0  0  0  0  0  0  0  0  0  0
   45.2050   29.6310   46.4560 C   0  0  0  0  0  0  0  0  0  0  0  0
   44.6760   35.5050   45.0630 C   0  0  0  0  0  0  0  0  0  0  0  0
   45.2240   35.6690   43.7520 C   0  0  0  0  0  0  0  0  0  0  0  0
   46.1540   34.7080   43.3160 C   0  0  0  0  0  0  0  0  0  0  0  0
   46.4760   33.7020   44.1450 N   0  0  0  0  0  0  0  0  0  0  0  0
   45.9330   33.5790   45.3890 C   0  0  0  0  0  0  0  0  0  0  0  0
   45.0500   34.4650   45.8360 N   0  0  0  0  0  0  0  0  0  0  0  0
   46.5440   34.1260   40.8670 C   0  0  0  0  0  0  0  0  0  0  0  0
   46.8600   34.7260   42.0560 C   0  0  0  0  0  0  0  0  0  0  0  0
   48.0720   35.4300   42.0390 C   0  0  0  0  0  0  0  0  0  0  0  0
   48.9180   35.5580   40.9660 C   0  0  0  0  0  0  0  0  0  0  0  0
   48.5760   34.9520   39.7880 C   0  0  0  0  0  0  0  0  0  0  0  0
   47.3970   34.2490   39.7630 C   0  0  0  0  0  0  0  0  0  0  0  0
   45.1490   33.1370   40.7100 S   0  0  0  0  0  0  0  0  0  0  0  0
   45.2090   31.8520   41.4990 O   0  0  0  0  0  0  0  0  0  0  0  0
   43.8400   33.8430   40.8150 O   0  0  0  0  0  0  0  0  0  0  0  0
   46.8479   31.9772   45.3921 H   0  0  0  0  0  0  0  0  0  0  0  0
   47.5417   32.0252   48.0802 H   0  0  0  0  0  0  0  0  0  0  0  0
   47.0040   33.4599   48.2901 H   0  0  0  0  0  0  0  0  0  0  0  0
   44.2870   32.0405   47.3526 H   0  0  0  0  0  0  0  0  0  0  0  0
   45.0106   30.6037   49.6169 H   0  0  0  0  0  0  0  0  0  0  0  0
   44.8947   28.1725   50.0428 H   0  0  0  0  0  0  0  0  0  0  0  0
   44.9919   26.6162   48.0243 H   0  0  0  0  0  0  0  0  0  0  0  0
   45.0945   26.3051   45.7357 H   0  0  0  0  0  0  0  0  0  0  0  0
   45.1690   27.2142   43.4066 H   0  0  0  0  0  0  0  0  0  0  0  0
   45.2490   29.6792   43.0333 H   0  0  0  0  0  0  0  0  0  0  0  0
   45.2687   31.1758   44.9865 H   0  0  0  0  0  0  0  0  0  0  0  0
   43.9440   36.2326   45.4436 H   0  0  0  0  0  0  0  0  0  0  0  0
   44.9299   36.5128   43.1105 H   0  0  0  0  0  0  0  0  0  0  0  0
   48.3733   35.9264   42.9733 H   0  0  0  0  0  0  0  0  0  0  0  0
   49.8506   36.1351   41.0512 H   0  0  0  0  0  0  0  0  0  0  0  0
   49.2187   35.0250   38.8983 H   0  0  0  0  0  0  0  0  0  0  0  0
   47.1063   33.7551   38.8241 H   0  0  0  0  0  0  0  0  0  0  0  0
   45.1986   32.7567   39.3948 H   0  0  0  0  0  0  0  0  0  0  0  0
  1  3  1  0
  1  2  1  0
  3  4  1  0
  3  2  1  0
  4  5  2  0
  5  6  1  0
  7  6  2  0
  8  7  1  0
  9  8  2  0
 10  9  1  0
 11 10  2  0
 11 12  1  0
 12 13  2  0
 13  8  1  0
 13  4  1  0
 14 19  2  0
 15 14  1  0
 16 15  2  0
 16 17  1  0
 17 18  2  0
 18 19  1  0
 18  1  1  0
 20 21  2  0
 21 16  1  0
 22 21  1  0
 23 22  2  0
 24 23  1  0
 25 24  2  0
 25 20  1  0
 26 28  2  0
 26 20  1  0
 26 27  2  0
  1 29  1  6
  2 30  1  0
  2 31  1  0
  3 32  1  1
  5 33  1  0
  6 34  1  0
  7 35  1  0
  9 36  1  0
 10 37  1  0
 11 38  1  0
 12 39  1  0
 14 40  1  0
 15 41  1  0
 22 42  1  0
 23 43  1  0
 24 44  1  0
 25 45  1  0
 26 46  1  0
M  ISO  8  29  13  30  13  31  13  32  13  33  14  34  14  35  14  36  14
M  ISO  8  37  14  38  14  39  14  40  14  41  14  42  14  43  14  44  14
M  ISO  2  45  14  46  11
M  END
>  <minimizedAffinity>  (1) 
-6.23884964

>  <minimizedRMSD>  (1) 
1.34466124

$$$$
