
     RDKit          3D

 40 44  0  0  1  0  0  0  0  0999 V2000
   46.5300   32.4610   45.9980 C   0  0  1  0  0  0  0  0  0  0  0  0
   46.9070   32.7330   47.3940 C   0  0  0  0  0  0  0  0  0  0  0  0
   45.5470   32.0450   46.9770 C   0  0  2  0  0  0  0  0  0  0  0  0
   45.2790   30.6600   47.3800 C   0  0  0  0  0  0  0  0  0  0  0  0
   45.1360   30.1800   48.6420 C   0  0  0  0  0  0  0  0  0  0  0  0
   45.0030   28.8430   48.9920 C   0  0  0  0  0  0  0  0  0  0  0  0
   45.0200   27.9180   47.9320 C   0  0  0  0  0  0  0  0  0  0  0  0
   45.1620   28.3860   46.6260 C   0  0  0  0  0  0  0  0  0  0  0  0
   45.1120   27.4430   45.6180 C   0  0  0  0  0  0  0  0  0  0  0  0
   45.1790   27.8680   44.2960 C   0  0  0  0  0  0  0  0  0  0  0  0
   45.2930   29.2090   43.9960 C   0  0  0  0  0  0  0  0  0  0  0  0
   45.3410   30.1040   45.0390 C   0  0  0  0  0  0  0  0  0  0  0  0
   45.2860   29.7290   46.3700 C   0  0  0  0  0  0  0  0  0  0  0  0
   44.8670   35.3990   44.5080 C   0  0  0  0  0  0  0  0  0  0  0  0
   45.5930   35.5690   43.2790 C   0  0  0  0  0  0  0  0  0  0  0  0
   46.6600   34.6510   43.0100 C   0  0  0  0  0  0  0  0  0  0  0  0
   46.9340   33.6890   43.8950 N   0  0  0  0  0  0  0  0  0  0  0  0
   46.2020   33.5720   45.0580 C   0  0  0  0  0  0  0  0  0  0  0  0
   45.2050   34.4000   45.3510 N   0  0  0  0  0  0  0  0  0  0  0  0
   47.4190   34.7910   41.7740 C   0  0  0  0  0  0  0  0  0  0  0  0
   48.5610   35.5410   41.6130 C   0  0  0  0  0  0  0  0  0  0  0  0
   48.9450   35.4070   40.3380 N   0  0  0  0  0  0  0  0  0  0  0  0
   48.0980   34.6050   39.6830 C   0  0  0  0  0  0  0  0  0  0  0  0
   47.1510   34.2260   40.5820 N   0  0  0  0  0  0  0  0  0  0  0  0
   47.0545   31.9364   45.1858 H   0  0  0  0  0  0  0  0  0  0  0  0
   47.7019   32.1503   47.8824 H   0  0  0  0  0  0  0  0  0  0  0  0
   47.2085   33.6125   47.9819 H   0  0  0  0  0  0  0  0  0  0  0  0
   44.4667   32.2213   47.0864 H   0  0  0  0  0  0  0  0  0  0  0  0
   45.1245   30.9157   49.4597 H   0  0  0  0  0  0  0  0  0  0  0  0
   44.8907   28.5249   50.0390 H   0  0  0  0  0  0  0  0  0  0  0  0
   44.9226   26.8405   48.1307 H   0  0  0  0  0  0  0  0  0  0  0  0
   45.0207   26.3732   45.8573 H   0  0  0  0  0  0  0  0  0  0  0  0
   45.1408   27.1284   43.4826 H   0  0  0  0  0  0  0  0  0  0  0  0
   45.3441   29.5530   42.9524 H   0  0  0  0  0  0  0  0  0  0  0  0
   45.4277   31.1748   44.8028 H   0  0  0  0  0  0  0  0  0  0  0  0
   44.0403   36.0794   44.7603 H   0  0  0  0  0  0  0  0  0  0  0  0
   45.3393   36.3728   42.5722 H   0  0  0  0  0  0  0  0  0  0  0  0
   49.0642   36.1388   42.3872 H   0  0  0  0  0  0  0  0  0  0  0  0
   49.7729   35.8563   39.9213 H   0  0  0  0  0  0  0  0  0  0  0  0
   48.1563   34.3101   38.6249 H   0  0  0  0  0  0  0  0  0  0  0  0
  1  3  1  0
  1  2  1  0
  3  4  1  0
  3  2  1  0
  4  5  2  0
  5  6  1  0
  7  6  2  0
  8  7  1  0
  9  8  2  0
 10  9  1  0
 11 10  2  0
 11 12  1  0
 12 13  2  0
 13  8  1  0
 13  4  1  0
 14 19  2  0
 15 14  1  0
 16 15  2  0
 16 17  1  0
 17 18  2  0
 18 19  1  0
 18  1  1  0
 20 16  1  0
 21 20  2  0
 22 21  1  0
 23 22  1  0
 23 24  2  0
 24 20  1  0
  1 25  1  6
  2 26  1  0
  2 27  1  0
  3 28  1  6
  5 29  1  0
  6 30  1  0
  7 31  1  0
  9 32  1  0
 10 33  1  0
 11 34  1  0
 12 35  1  0
 14 36  1  0
 15 37  1  0
 21 38  1  0
 22 39  1  0
 23 40  1  0
M  ISO  8  25  13  26  13  27  13  28  13  29  14  30  14  31  14  32  14
M  ISO  8  33  14  34  14  35  14  36  14  37  14  38  14  39   9  40  14
M  END
>  <minimizedAffinity>  (1) 
-5.95793104

>  <minimizedRMSD>  (1) 
0.590749741

$$$$
