
     RDKit          3D

 47 51  0  0  1  0  0  0  0  0999 V2000
   46.2330   32.7670   46.8980 C   0  0  1  0  0  0  0  0  0  0  0  0
   45.2390   32.3720   47.9070 C   0  0  0  0  0  0  0  0  0  0  0  0
   45.7890   31.3930   46.7970 C   0  0  2  0  0  0  0  0  0  0  0  0
   46.5670   30.2170   47.1920 C   0  0  0  0  0  0  0  0  0  0  0  0
   47.8550   30.1820   47.6280 C   0  0  0  0  0  0  0  0  0  0  0  0
   48.6030   29.0390   47.8770 C   0  0  0  0  0  0  0  0  0  0  0  0
   47.9540   27.8130   47.6500 C   0  0  0  0  0  0  0  0  0  0  0  0
   46.6370   27.8250   47.2060 C   0  0  0  0  0  0  0  0  0  0  0  0
   46.0270   26.5950   47.0530 C   0  0  0  0  0  0  0  0  0  0  0  0
   44.6850   26.5470   46.6710 C   0  0  0  0  0  0  0  0  0  0  0  0
   43.9720   27.7070   46.4540 C   0  0  0  0  0  0  0  0  0  0  0  0
   44.6340   28.9030   46.6200 C   0  0  0  0  0  0  0  0  0  0  0  0
   45.9650   29.0010   46.9880 C   0  0  0  0  0  0  0  0  0  0  0  0
   44.5350   35.4520   45.0200 C   0  0  0  0  0  0  0  0  0  0  0  0
   45.2410   35.4420   43.7640 C   0  0  0  0  0  0  0  0  0  0  0  0
   46.3080   34.4970   43.6180 C   0  0  0  0  0  0  0  0  0  0  0  0
   46.6000   33.6760   44.6330 N   0  0  0  0  0  0  0  0  0  0  0  0
   45.8890   33.7310   45.8100 C   0  0  0  0  0  0  0  0  0  0  0  0
   44.8910   34.5910   45.9920 N   0  0  0  0  0  0  0  0  0  0  0  0
   47.0070   34.4850   42.3770 N   0  0  0  0  0  0  0  0  0  0  0  0
   46.2620   34.3410   41.1540 C   0  0  0  0  0  0  0  0  0  0  0  0
   47.1200   33.9790   39.9740 C   0  0  0  0  0  0  0  0  0  0  0  0
   48.3630   34.7060   39.9910 N   0  0  0  0  0  0  0  0  0  0  0  0
   49.1080   34.2130   41.1390 C   0  0  0  0  0  0  0  0  0  0  0  0
   48.4500   34.6200   42.4350 C   0  0  0  0  0  0  0  0  0  0  0  0
   47.2243   33.2349   46.9895 H   0  0  0  0  0  0  0  0  0  0  0  0
   45.5310   32.2444   48.9598 H   0  0  0  0  0  0  0  0  0  0  0  0
   44.2526   32.7295   48.2375 H   0  0  0  0  0  0  0  0  0  0  0  0
   45.3996   30.7838   45.9680 H   0  0  0  0  0  0  0  0  0  0  0  0
   48.3501   31.1492   47.7993 H   0  0  0  0  0  0  0  0  0  0  0  0
   49.6431   29.0900   48.2313 H   0  0  0  0  0  0  0  0  0  0  0  0
   48.4788   26.8615   47.8206 H   0  0  0  0  0  0  0  0  0  0  0  0
   46.5904   25.6669   47.2296 H   0  0  0  0  0  0  0  0  0  0  0  0
   44.1909   25.5728   46.5417 H   0  0  0  0  0  0  0  0  0  0  0  0
   42.9127   27.6781   46.1590 H   0  0  0  0  0  0  0  0  0  0  0  0
   44.0731   29.8339   46.4505 H   0  0  0  0  0  0  0  0  0  0  0  0
   43.7090   36.1597   45.1840 H   0  0  0  0  0  0  0  0  0  0  0  0
   44.9718   36.1317   42.9505 H   0  0  0  0  0  0  0  0  0  0  0  0
   45.5099   33.5506   41.2944 H   0  0  0  0  0  0  0  0  0  0  0  0
   45.8026   35.3164   40.9357 H   0  0  0  0  0  0  0  0  0  0  0  0
   46.5766   34.2191   39.0482 H   0  0  0  0  0  0  0  0  0  0  0  0
   47.3450   32.9034   40.0240 H   0  0  0  0  0  0  0  0  0  0  0  0
   48.8895   34.5327   39.1229 H   0  0  0  0  0  0  0  0  0  0  0  0
   49.1558   33.1151   41.0906 H   0  0  0  0  0  0  0  0  0  0  0  0
   50.1180   34.6479   41.1106 H   0  0  0  0  0  0  0  0  0  0  0  0
   48.7003   35.6701   42.6460 H   0  0  0  0  0  0  0  0  0  0  0  0
   48.8220   33.9553   43.2286 H   0  0  0  0  0  0  0  0  0  0  0  0
  1  2  1  0
  3  1  1  0
  3  4  1  0
  3  2  1  0
  4  5  2  0
  5  6  1  0
  7  6  2  0
  8  7  1  0
  9  8  2  0
 10  9  1  0
 11 12  1  0
 11 10  2  0
 12 13  2  0
 13  4  1  0
 13  8  1  0
 14 19  2  0
 15 14  1  0
 16 15  2  0
 16 17  1  0
 17 18  2  0
 18 19  1  0
 18  1  1  0
 20 25  1  0
 20 16  1  0
 21 20  1  0
 22 23  1  0
 22 21  1  0
 23 24  1  0
 24 25  1  0
  1 26  1  1
  2 27  1  0
  2 28  1  0
  3 29  1  6
  5 30  1  0
  6 31  1  0
  7 32  1  0
  9 33  1  0
 10 34  1  0
 11 35  1  0
 12 36  1  0
 14 37  1  0
 15 38  1  0
 21 39  1  0
 21 40  1  0
 22 41  1  0
 22 42  1  0
 23 43  1  0
 24 44  1  0
 24 45  1  0
 25 46  1  0
 25 47  1  0
M  ISO  8  26  13  27  13  28  13  29  13  30  14  31  14  32  14  33  14
M  ISO  8  34  14  35  14  36  14  37  14  38  14  39  13  40  13  41  13
M  ISO  6  42  13  43   5  44  13  45  13  46  13  47  13
M  END
>  <minimizedAffinity>  (1) 
-6.26621723

>  <minimizedRMSD>  (1) 
1.87269258

$$$$
