
     RDKit          3D

 36 39  0  0  1  0  0  0  0  0999 V2000
   46.7000   32.4310   45.7690 C   0  0  1  0  0  0  0  0  0  0  0  0
   47.0390   32.7260   47.1690 C   0  0  0  0  0  0  0  0  0  0  0  0
   45.6740   32.0660   46.7270 C   0  0  2  0  0  0  0  0  0  0  0  0
   45.3620   30.6930   47.1470 C   0  0  0  0  0  0  0  0  0  0  0  0
   45.2370   30.2290   48.4190 C   0  0  0  0  0  0  0  0  0  0  0  0
   45.0640   28.9010   48.7830 C   0  0  0  0  0  0  0  0  0  0  0  0
   45.0160   27.9670   47.7370 C   0  0  0  0  0  0  0  0  0  0  0  0
   45.1380   28.4160   46.4190 C   0  0  0  0  0  0  0  0  0  0  0  0
   45.0220   27.4650   45.4190 C   0  0  0  0  0  0  0  0  0  0  0  0
   45.0680   27.8840   44.0980 C   0  0  0  0  0  0  0  0  0  0  0  0
   45.2230   29.2170   43.7780 C   0  0  0  0  0  0  0  0  0  0  0  0
   45.3350   30.1150   44.8130 C   0  0  0  0  0  0  0  0  0  0  0  0
   45.3050   29.7550   46.1490 C   0  0  0  0  0  0  0  0  0  0  0  0
   45.0320   35.2420   44.0430 C   0  0  0  0  0  0  0  0  0  0  0  0
   45.9290   35.4940   42.9460 C   0  0  0  0  0  0  0  0  0  0  0  0
   47.1010   34.6890   42.8400 C   0  0  0  0  0  0  0  0  0  0  0  0
   47.3200   33.7340   43.7640 N   0  0  0  0  0  0  0  0  0  0  0  0
   46.4260   33.5340   44.7970 C   0  0  0  0  0  0  0  0  0  0  0  0
   45.3230   34.2660   44.9270 N   0  0  0  0  0  0  0  0  0  0  0  0
   48.0360   34.9380   41.7120 C   0  0  0  0  0  0  0  0  0  0  0  0
   48.6280   36.1610   41.7290 F   0  0  0  0  0  0  0  0  0  0  0  0
   47.3690   34.8050   40.4880 F   0  0  0  0  0  0  0  0  0  0  0  0
   48.9590   33.8890   41.7100 F   0  0  0  0  0  0  0  0  0  0  0  0
   47.2362   31.8733   44.9870 H   0  0  0  0  0  0  0  0  0  0  0  0
   47.8014   32.1338   47.6963 H   0  0  0  0  0  0  0  0  0  0  0  0
   47.3465   33.6113   47.7450 H   0  0  0  0  0  0  0  0  0  0  0  0
   44.5968   32.2759   46.8021 H   0  0  0  0  0  0  0  0  0  0  0  0
   45.2764   30.9709   49.2302 H   0  0  0  0  0  0  0  0  0  0  0  0
   44.9695   28.5967   49.8358 H   0  0  0  0  0  0  0  0  0  0  0  0
   44.8842   26.8962   47.9513 H   0  0  0  0  0  0  0  0  0  0  0  0
   44.8962   26.4008   45.6672 H   0  0  0  0  0  0  0  0  0  0  0  0
   44.9794   27.1411   43.2916 H   0  0  0  0  0  0  0  0  0  0  0  0
   45.2559   29.5501   42.7302 H   0  0  0  0  0  0  0  0  0  0  0  0
   45.4553   31.1800   44.5652 H   0  0  0  0  0  0  0  0  0  0  0  0
   44.1165   35.8406   44.1594 H   0  0  0  0  0  0  0  0  0  0  0  0
   45.7166   36.2844   42.2110 H   0  0  0  0  0  0  0  0  0  0  0  0
  1  3  1  0
  1  2  1  0
  3  4  1  0
  3  2  1  0
  4  5  2  0
  5  6  1  0
  7  6  2  0
  8  7  1  0
  9  8  2  0
 10  9  1  0
 11 10  2  0
 11 12  1  0
 12 13  2  0
 13  8  1  0
 13  4  1  0
 14 19  2  0
 15 14  1  0
 16 15  2  0
 16 17  1  0
 17 18  2  0
 18 19  1  0
 18  1  1  0
 20 21  1  0
 20 16  1  0
 22 20  1  0
 23 20  1  0
  1 24  1  6
  2 25  1  0
  2 26  1  0
  3 27  1  6
  5 28  1  0
  6 29  1  0
  7 30  1  0
  9 31  1  0
 10 32  1  0
 11 33  1  0
 12 34  1  0
 14 35  1  0
 15 36  1  0
M  ISO  8  24  13  25  13  26  13  27  13  28  14  29  14  30  14  31  14
M  ISO  5  32  14  33  14  34  14  35  14  36  14
M  END
>  <minimizedAffinity>  (1) 
-5.49812412

>  <minimizedRMSD>  (1) 
0.838387609

$$$$
