
     RDKit          3D

 36 39  0  0  1  0  0  0  0  0999 V2000
   46.4400   32.4600   46.0060 C   0  0  1  0  0  0  0  0  0  0  0  0
   46.9660   32.6540   47.3640 C   0  0  0  0  0  0  0  0  0  0  0  0
   45.5430   32.0390   47.0630 C   0  0  2  0  0  0  0  0  0  0  0  0
   45.2700   30.6460   47.4320 C   0  0  0  0  0  0  0  0  0  0  0  0
   45.1410   30.1320   48.6860 C   0  0  0  0  0  0  0  0  0  0  0  0
   45.0070   28.7850   49.0000 C   0  0  0  0  0  0  0  0  0  0  0  0
   45.0070   27.8880   47.9220 C   0  0  0  0  0  0  0  0  0  0  0  0
   45.1340   28.3910   46.6240 C   0  0  0  0  0  0  0  0  0  0  0  0
   45.0640   27.4730   45.5920 C   0  0  0  0  0  0  0  0  0  0  0  0
   45.1120   27.9330   44.2820 C   0  0  0  0  0  0  0  0  0  0  0  0
   45.2270   29.2800   44.0120 C   0  0  0  0  0  0  0  0  0  0  0  0
   45.2950   30.1460   45.0790 C   0  0  0  0  0  0  0  0  0  0  0  0
   45.2590   29.7410   46.4010 C   0  0  0  0  0  0  0  0  0  0  0  0
   44.7220   35.4920   44.7850 C   0  0  0  0  0  0  0  0  0  0  0  0
   45.3660   35.7190   43.5180 C   0  0  0  0  0  0  0  0  0  0  0  0
   46.3960   34.8100   43.1280 C   0  0  0  0  0  0  0  0  0  0  0  0
   46.7250   33.7860   43.9470 N   0  0  0  0  0  0  0  0  0  0  0  0
   46.0670   33.6260   45.1490 C   0  0  0  0  0  0  0  0  0  0  0  0
   45.1030   34.4490   45.5510 N   0  0  0  0  0  0  0  0  0  0  0  0
   47.0720   35.0300   41.8230 C   0  0  0  0  0  0  0  0  0  0  0  0
   46.8570   31.9523   45.1238 H   0  0  0  0  0  0  0  0  0  0  0  0
   47.7803   32.0196   47.7441 H   0  0  0  0  0  0  0  0  0  0  0  0
   47.3630   33.4942   47.9526 H   0  0  0  0  0  0  0  0  0  0  0  0
   44.4881   32.2523   47.2902 H   0  0  0  0  0  0  0  0  0  0  0  0
   45.1430   30.8450   49.5236 H   0  0  0  0  0  0  0  0  0  0  0  0
   44.9062   28.4403   50.0397 H   0  0  0  0  0  0  0  0  0  0  0  0
   44.9087   26.8062   48.0951 H   0  0  0  0  0  0  0  0  0  0  0  0
   44.9719   26.3977   45.8046 H   0  0  0  0  0  0  0  0  0  0  0  0
   45.0576   27.2144   43.4509 H   0  0  0  0  0  0  0  0  0  0  0  0
   45.2632   29.6505   42.9769 H   0  0  0  0  0  0  0  0  0  0  0  0
   45.3830   31.2221   44.8686 H   0  0  0  0  0  0  0  0  0  0  0  0
   43.9228   36.1659   45.1271 H   0  0  0  0  0  0  0  0  0  0  0  0
   45.0754   36.5618   42.8737 H   0  0  0  0  0  0  0  0  0  0  0  0
   48.1048   35.3661   41.9971 H   0  0  0  0  0  0  0  0  0  0  0  0
   47.0837   34.0893   41.2529 H   0  0  0  0  0  0  0  0  0  0  0  0
   46.5278   35.7974   41.2529 H   0  0  0  0  0  0  0  0  0  0  0  0
  1  3  1  0
  1  2  1  0
  3  2  1  0
  3  4  1  0
  4  5  2  0
  5  6  1  0
  7  6  2  0
  8  7  1  0
  9  8  2  0
 10  9  1  0
 11 10  2  0
 11 12  1  0
 12 13  2  0
 13  8  1  0
 13  4  1  0
 14 19  2  0
 15 14  1  0
 16 15  2  0
 16 17  1  0
 17 18  2  0
 18 19  1  0
 18  1  1  0
 20 16  1  0
  1 21  1  6
  2 22  1  0
  2 23  1  0
  3 24  1  1
  5 25  1  0
  6 26  1  0
  7 27  1  0
  9 28  1  0
 10 29  1  0
 11 30  1  0
 12 31  1  0
 14 32  1  0
 15 33  1  0
 20 34  1  0
 20 35  1  0
 20 36  1  0
M  ISO  8  21  13  22  13  23  13  24  13  25  14  26  14  27  14  28  14
M  ISO  8  29  14  30  14  31  14  32  14  33  14  34   8  35   8  36   8
M  END
>  <minimizedAffinity>  (1) 
-4.83994341

>  <minimizedRMSD>  (1) 
0.279268384

$$$$
