
     RDKit          3D

 39 42  0  0  1  0  0  0  0  0999 V2000
   46.6910   32.4450   45.7170 C   0  0  1  0  0  0  0  0  0  0  0  0
   47.0450   32.7450   47.1120 C   0  0  0  0  0  0  0  0  0  0  0  0
   45.6740   32.0880   46.6840 C   0  0  2  0  0  0  0  0  0  0  0  0
   45.3610   30.7190   47.1150 C   0  0  0  0  0  0  0  0  0  0  0  0
   45.2410   30.2610   48.3930 C   0  0  0  0  0  0  0  0  0  0  0  0
   45.0760   28.9380   48.7680 C   0  0  0  0  0  0  0  0  0  0  0  0
   45.0310   27.9960   47.7300 C   0  0  0  0  0  0  0  0  0  0  0  0
   45.1480   28.4340   46.4080 C   0  0  0  0  0  0  0  0  0  0  0  0
   45.0330   27.4760   45.4160 C   0  0  0  0  0  0  0  0  0  0  0  0
   45.0720   27.8820   44.0910 C   0  0  0  0  0  0  0  0  0  0  0  0
   45.2190   29.2140   43.7600 C   0  0  0  0  0  0  0  0  0  0  0  0
   45.3300   30.1210   44.7890 C   0  0  0  0  0  0  0  0  0  0  0  0
   45.3060   29.7690   46.1250 C   0  0  0  0  0  0  0  0  0  0  0  0
   45.0910   35.3330   44.0560 C   0  0  0  0  0  0  0  0  0  0  0  0
   45.9090   35.4900   42.8810 C   0  0  0  0  0  0  0  0  0  0  0  0
   46.9920   34.6040   42.7090 C   0  0  0  0  0  0  0  0  0  0  0  0
   47.2290   33.6480   43.6320 N   0  0  0  0  0  0  0  0  0  0  0  0
   46.4140   33.5410   44.7400 C   0  0  0  0  0  0  0  0  0  0  0  0
   45.3820   34.3550   44.9430 N   0  0  0  0  0  0  0  0  0  0  0  0
   47.8260   34.7790   41.4920 C   0  0  0  0  0  0  0  0  0  0  0  0
   48.9440   35.7500   41.7370 C   0  0  0  0  0  0  0  0  0  0  0  0
   47.2180   31.8820   44.9326 H   0  0  0  0  0  0  0  0  0  0  0  0
   47.8102   32.1523   47.6347 H   0  0  0  0  0  0  0  0  0  0  0  0
   47.3611   33.6314   47.6816 H   0  0  0  0  0  0  0  0  0  0  0  0
   44.5980   32.3016   46.7660 H   0  0  0  0  0  0  0  0  0  0  0  0
   45.2786   31.0090   49.1987 H   0  0  0  0  0  0  0  0  0  0  0  0
   44.9851   28.6419   49.8235 H   0  0  0  0  0  0  0  0  0  0  0  0
   44.9053   26.9263   47.9535 H   0  0  0  0  0  0  0  0  0  0  0  0
   44.9130   26.4134   45.6737 H   0  0  0  0  0  0  0  0  0  0  0  0
   44.9845   27.1315   43.2916 H   0  0  0  0  0  0  0  0  0  0  0  0
   45.2465   29.5394   42.7096 H   0  0  0  0  0  0  0  0  0  0  0  0
   45.4441   31.1849   44.5339 H   0  0  0  0  0  0  0  0  0  0  0  0
   44.2365   36.0033   44.2303 H   0  0  0  0  0  0  0  0  0  0  0  0
   45.6956   36.2759   42.1416 H   0  0  0  0  0  0  0  0  0  0  0  0
   47.1941   35.1576   40.6751 H   0  0  0  0  0  0  0  0  0  0  0  0
   48.2619   33.8051   41.2247 H   0  0  0  0  0  0  0  0  0  0  0  0
   49.0893   35.8762   42.8200 H   0  0  0  0  0  0  0  0  0  0  0  0
   49.8700   35.3646   41.2853 H   0  0  0  0  0  0  0  0  0  0  0  0
   48.6921   36.7208   41.2853 H   0  0  0  0  0  0  0  0  0  0  0  0
  1  3  1  0
  1  2  1  0
  3  2  1  0
  3  4  1  0
  4  5  2  0
  5  6  1  0
  7  6  2  0
  8  7  1  0
  9  8  2  0
 10  9  1  0
 11 10  2  0
 11 12  1  0
 12 13  2  0
 13  8  1  0
 13  4  1  0
 14 19  2  0
 15 14  1  0
 16 15  2  0
 16 17  1  0
 17 18  2  0
 18 19  1  0
 18  1  1  0
 20 21  1  0
 20 16  1  0
  1 22  1  6
  2 23  1  0
  2 24  1  0
  3 25  1  6
  5 26  1  0
  6 27  1  0
  7 28  1  0
  9 29  1  0
 10 30  1  0
 11 31  1  0
 12 32  1  0
 14 33  1  0
 15 34  1  0
 20 35  1  0
 20 36  1  0
 21 37  1  0
 21 38  1  0
 21 39  1  0
M  ISO  8  22  13  23  13  24  13  25  13  26  14  27  14  28  14  29  14
M  ISO  8  30  14  31  14  32  14  33  14  34  14  35   8  36   8  37   8
M  ISO  2  38   8  39   8
M  END
>  <minimizedAffinity>  (1) 
-5.10852146

>  <minimizedRMSD>  (1) 
0.780915022

$$$$
