
     RDKit          3D

 39 43  0  0  1  0  0  0  0  0999 V2000
   46.4160   32.2950   46.3170 C   0  0  1  0  0  0  0  0  0  0  0  0
   46.6520   32.5440   47.7470 C   0  0  0  0  0  0  0  0  0  0  0  0
   45.3710   31.8040   47.1960 C   0  0  2  0  0  0  0  0  0  0  0  0
   45.1420   30.3960   47.5330 C   0  0  0  0  0  0  0  0  0  0  0  0
   45.0400   29.8520   48.7760 C   0  0  0  0  0  0  0  0  0  0  0  0
   44.9510   28.4990   49.0680 C   0  0  0  0  0  0  0  0  0  0  0  0
   44.9710   27.6230   47.9640 C   0  0  0  0  0  0  0  0  0  0  0  0
   45.0710   28.1520   46.6810 C   0  0  0  0  0  0  0  0  0  0  0  0
   45.0260   27.2620   45.6260 C   0  0  0  0  0  0  0  0  0  0  0  0
   45.0520   27.7490   44.3270 C   0  0  0  0  0  0  0  0  0  0  0  0
   45.1210   29.1070   44.0830 C   0  0  0  0  0  0  0  0  0  0  0  0
   45.1670   29.9520   45.1710 C   0  0  0  0  0  0  0  0  0  0  0  0
   45.1520   29.5160   46.4810 C   0  0  0  0  0  0  0  0  0  0  0  0
   44.8460   35.2940   44.8540 C   0  0  0  0  0  0  0  0  0  0  0  0
   45.5460   35.4390   43.6100 C   0  0  0  0  0  0  0  0  0  0  0  0
   46.5660   34.4680   43.3210 C   0  0  0  0  0  0  0  0  0  0  0  0
   46.8080   33.5060   44.2010 N   0  0  0  0  0  0  0  0  0  0  0  0
   46.1120   33.4100   45.3790 C   0  0  0  0  0  0  0  0  0  0  0  0
   45.1600   34.2810   45.6890 N   0  0  0  0  0  0  0  0  0  0  0  0
   47.2710   34.6160   42.0580 C   0  0  0  0  0  0  0  0  0  0  0  0
   46.8610   33.7520   40.9370 C   0  0  0  0  0  0  0  0  0  0  0  0
   48.0370   34.3090   39.5740 S   0  0  0  0  0  0  0  0  0  0  0  0
   48.8260   35.5620   40.7580 C   0  0  0  0  0  0  0  0  0  0  0  0
   48.2690   35.4520   41.7730 N   0  0  0  0  0  0  0  0  0  0  0  0
   47.0391   31.8219   45.5438 H   0  0  0  0  0  0  0  0  0  0  0  0
   47.4290   31.9865   48.2906 H   0  0  0  0  0  0  0  0  0  0  0  0
   46.8553   33.4202   48.3802 H   0  0  0  0  0  0  0  0  0  0  0  0
   44.2780   31.9260   47.2173 H   0  0  0  0  0  0  0  0  0  0  0  0
   45.0269   30.5489   49.6270 H   0  0  0  0  0  0  0  0  0  0  0  0
   44.8695   28.1309   50.1014 H   0  0  0  0  0  0  0  0  0  0  0  0
   44.9084   26.5352   48.1148 H   0  0  0  0  0  0  0  0  0  0  0  0
   44.9702   26.1795   45.8133 H   0  0  0  0  0  0  0  0  0  0  0  0
   45.0173   27.0458   43.4819 H   0  0  0  0  0  0  0  0  0  0  0  0
   45.1386   29.5004   43.0559 H   0  0  0  0  0  0  0  0  0  0  0  0
   45.2186   31.0350   44.9851 H   0  0  0  0  0  0  0  0  0  0  0  0
   44.0545   36.0074   45.1269 H   0  0  0  0  0  0  0  0  0  0  0  0
   45.3131   36.2550   42.9101 H   0  0  0  0  0  0  0  0  0  0  0  0
   46.0747   32.9835   40.9044 H   0  0  0  0  0  0  0  0  0  0  0  0
   49.6483   36.2561   40.5299 H   0  0  0  0  0  0  0  0  0  0  0  0
  1  3  1  0
  1  2  1  0
  3  4  1  0
  3  2  1  0
  4  5  2  0
  5  6  1  0
  7  6  2  0
  8  7  1  0
  9  8  2  0
 10  9  1  0
 11 10  2  0
 11 12  1  0
 12 13  2  0
 13  8  1  0
 13  4  1  0
 14 19  2  0
 15 14  1  0
 16 15  2  0
 16 17  1  0
 17 18  2  0
 18 19  1  0
 18  1  1  0
 20 16  1  0
 21 20  2  0
 22 23  1  0
 22 21  1  0
 23 24  2  0
 24 20  1  0
  1 25  1  6
  2 26  1  0
  2 27  1  0
  3 28  1  6
  5 29  1  0
  6 30  1  0
  7 31  1  0
  9 32  1  0
 10 33  1  0
 11 34  1  0
 12 35  1  0
 14 36  1  0
 15 37  1  0
 21 38  1  0
 23 39  1  0
M  ISO  8  25  13  26  13  27  13  28  13  29  14  30  14  31  14  32  14
M  ISO  7  33  14  34  14  35  14  36  14  37  14  38  14  39  14
M  END
>  <minimizedAffinity>  (1) 
-5.23036432

>  <minimizedRMSD>  (1) 
0.76777035

$$$$
