
     RDKit          3D

 37 40  0  0  1  0  0  0  0  0999 V2000
   46.5270   32.4660   45.9540 C   0  0  1  0  0  0  0  0  0  0  0  0
   46.9840   32.6960   47.3330 C   0  0  0  0  0  0  0  0  0  0  0  0
   45.5870   32.0560   46.9740 C   0  0  2  0  0  0  0  0  0  0  0  0
   45.3000   30.6710   47.3620 C   0  0  0  0  0  0  0  0  0  0  0  0
   45.1450   30.1800   48.6220 C   0  0  0  0  0  0  0  0  0  0  0  0
   44.9990   28.8410   48.9590 C   0  0  0  0  0  0  0  0  0  0  0  0
   45.0140   27.9260   47.8900 C   0  0  0  0  0  0  0  0  0  0  0  0
   45.1700   28.4030   46.5860 C   0  0  0  0  0  0  0  0  0  0  0  0
   45.1170   27.4670   45.5660 C   0  0  0  0  0  0  0  0  0  0  0  0
   45.1990   27.9060   44.2550 C   0  0  0  0  0  0  0  0  0  0  0  0
   45.3260   29.2490   43.9650 C   0  0  0  0  0  0  0  0  0  0  0  0
   45.3730   30.1330   45.0170 C   0  0  0  0  0  0  0  0  0  0  0  0
   45.3050   29.7480   46.3460 C   0  0  0  0  0  0  0  0  0  0  0  0
   44.7890   35.4120   44.5540 C   0  0  0  0  0  0  0  0  0  0  0  0
   45.5340   35.6520   43.3470 C   0  0  0  0  0  0  0  0  0  0  0  0
   46.6360   34.7890   43.0530 C   0  0  0  0  0  0  0  0  0  0  0  0
   46.9320   33.7900   43.9150 N   0  0  0  0  0  0  0  0  0  0  0  0
   46.1790   33.6090   45.0570 C   0  0  0  0  0  0  0  0  0  0  0  0
   45.1490   34.3910   45.3630 N   0  0  0  0  0  0  0  0  0  0  0  0
   46.9510   34.2750   40.7330 C   0  0  0  0  0  0  0  0  0  0  0  0
   45.9580   33.4920   40.9170 O   0  0  0  0  0  0  0  0  0  0  0  0
   47.3770   35.0190   41.8660 N   0  0  0  0  0  0  0  0  0  0  0  0
   46.9934   31.9459   45.1043 H   0  0  0  0  0  0  0  0  0  0  0  0
   47.7863   32.0808   47.7664 H   0  0  0  0  0  0  0  0  0  0  0  0
   47.3408   33.5533   47.9226 H   0  0  0  0  0  0  0  0  0  0  0  0
   44.5194   32.2595   47.1439 H   0  0  0  0  0  0  0  0  0  0  0  0
   45.1345   30.9084   49.4462 H   0  0  0  0  0  0  0  0  0  0  0  0
   44.8785   28.5140   50.0023 H   0  0  0  0  0  0  0  0  0  0  0  0
   44.9042   26.8479   48.0787 H   0  0  0  0  0  0  0  0  0  0  0  0
   45.0118   26.3958   45.7930 H   0  0  0  0  0  0  0  0  0  0  0  0
   45.1624   27.1745   43.4343 H   0  0  0  0  0  0  0  0  0  0  0  0
   45.3877   29.6014   42.9248 H   0  0  0  0  0  0  0  0  0  0  0  0
   45.4699   31.2051   44.7909 H   0  0  0  0  0  0  0  0  0  0  0  0
   43.9345   36.0533   44.8160 H   0  0  0  0  0  0  0  0  0  0  0  0
   45.2639   36.4756   42.6697 H   0  0  0  0  0  0  0  0  0  0  0  0
   47.4466   34.3675   39.7553 H   0  0  0  0  0  0  0  0  0  0  0  0
   48.1675   35.6782   41.8279 H   0  0  0  0  0  0  0  0  0  0  0  0
  1  3  1  0
  1  2  1  0
  3  2  1  0
  3  4  1  0
  4  5  2  0
  5  6  1  0
  7  6  2  0
  8  7  1  0
  9  8  2  0
 10  9  1  0
 11 10  2  0
 11 12  1  0
 12 13  2  0
 13  8  1  0
 13  4  1  0
 14 19  2  0
 15 14  1  0
 16 15  2  0
 16 17  1  0
 17 18  2  0
 18 19  1  0
 18  1  1  0
 20 21  2  0
 20 22  1  0
 22 16  1  0
  1 23  1  6
  2 24  1  0
  2 25  1  0
  3 26  1  6
  5 27  1  0
  6 28  1  0
  7 29  1  0
  9 30  1  0
 10 31  1  0
 11 32  1  0
 12 33  1  0
 14 34  1  0
 15 35  1  0
 20 36  1  0
 22 37  1  0
M  ISO  8  23  13  24  13  25  13  26  13  27  14  28  14  29  14  30  14
M  ISO  6  31  14  32  14  33  14  34  14  35  14  36   6
M  END
>  <minimizedAffinity>  (1) 
-4.94159222

>  <minimizedRMSD>  (1) 
0.382392049

$$$$
