
     RDKit          3D

 47 51  0  0  1  0  0  0  0  0999 V2000
   41.8250   35.4100   39.1130 N   0  0  0  0  0  0  0  0  0  0  0  0
   40.3650   35.3870   39.3460 C   0  0  2  0  0  0  0  0  0  0  0  0
   40.0200   35.7350   40.7510 C   0  0  0  0  0  0  0  0  0  0  0  0
   41.1350   36.2820   41.4810 N   0  0  0  0  0  0  0  0  0  0  0  0
   42.3140   35.5040   41.4000 C   0  0  0  0  0  0  0  0  0  0  0  0
   42.3860   34.5980   40.1630 C   0  0  2  0  0  0  0  0  0  0  0  0
   43.7860   34.2100   40.0920 C   0  0  0  0  0  0  0  0  0  0  0  0
   43.9300   33.4240   38.9300 C   0  0  0  0  0  0  0  0  0  0  0  0
   45.1510   32.8490   38.5730 C   0  0  0  0  0  0  0  0  0  0  0  0
   46.2590   33.0440   39.3680 C   0  0  0  0  0  0  0  0  0  0  0  0
   46.1650   33.8030   40.5070 C   0  0  0  0  0  0  0  0  0  0  0  0
   47.1930   34.0840   41.3750 C   0  0  0  0  0  0  0  0  0  0  0  0
   47.0710   34.8620   42.5080 C   0  0  0  0  0  0  0  0  0  0  0  0
   45.7990   35.3880   42.7620 C   0  0  0  0  0  0  0  0  0  0  0  0
   44.7520   35.1230   41.9110 C   0  0  0  0  0  0  0  0  0  0  0  0
   44.9430   34.3410   40.8040 C   0  0  0  0  0  0  0  0  0  0  0  0
   39.5520   32.0870   38.1680 C   0  0  0  0  0  0  0  0  0  0  0  0
   38.6850   32.2760   39.2510 C   0  0  0  0  0  0  0  0  0  0  0  0
   38.8920   33.5330   39.7970 C   0  0  0  0  0  0  0  0  0  0  0  0
   39.8710   34.0730   39.0410 N   0  0  0  0  0  0  0  0  0  0  0  0
   40.2430   33.2240   38.1000 N   0  0  0  0  0  0  0  0  0  0  0  0
   40.6500   28.8570   36.5740 C   0  0  0  0  0  0  0  0  0  0  0  0
   40.7000   29.9980   37.4310 C   0  0  0  0  0  0  0  0  0  0  0  0
   39.6280   30.8880   37.3410 C   0  0  0  0  0  0  0  0  0  0  0  0
   38.6200   30.6400   36.4740 N   0  0  0  0  0  0  0  0  0  0  0  0
   38.6020   29.5550   35.6780 C   0  0  0  0  0  0  0  0  0  0  0  0
   39.6110   28.6870   35.7430 N   0  0  0  0  0  0  0  0  0  0  0  0
   42.0500   35.0130   38.1896 H   0  0  0  0  0  0  0  0  0  0  0  0
   39.8984   36.1410   38.6950 H   0  0  0  0  0  0  0  0  0  0  0  0
   39.2088   36.4779   40.7399 H   0  0  0  0  0  0  0  0  0  0  0  0
   39.7166   34.8066   41.2570 H   0  0  0  0  0  0  0  0  0  0  0  0
   41.3392   37.2193   41.1058 H   0  0  0  0  0  0  0  0  0  0  0  0
   43.1767   36.1861   41.3787 H   0  0  0  0  0  0  0  0  0  0  0  0
   42.3164   34.8412   42.2779 H   0  0  0  0  0  0  0  0  0  0  0  0
   41.8249   33.6524   40.1327 H   0  0  0  0  0  0  0  0  0  0  0  0
   43.0539   33.2590   38.2856 H   0  0  0  0  0  0  0  0  0  0  0  0
   45.2282   32.2417   37.6591 H   0  0  0  0  0  0  0  0  0  0  0  0
   47.2213   32.5901   39.0889 H   0  0  0  0  0  0  0  0  0  0  0  0
   48.1824   33.6588   41.1507 H   0  0  0  0  0  0  0  0  0  0  0  0
   47.9246   35.0577   43.1736 H   0  0  0  0  0  0  0  0  0  0  0  0
   45.6358   36.0180   43.6489 H   0  0  0  0  0  0  0  0  0  0  0  0
   43.7565   35.5413   42.1208 H   0  0  0  0  0  0  0  0  0  0  0  0
   37.9521   31.5399   39.6130 H   0  0  0  0  0  0  0  0  0  0  0  0
   38.3745   33.9884   40.6542 H   0  0  0  0  0  0  0  0  0  0  0  0
   41.4638   28.1172   36.5953 H   0  0  0  0  0  0  0  0  0  0  0  0
   41.5373   30.1666   38.1242 H   0  0  0  0  0  0  0  0  0  0  0  0
   37.7659   29.3870   34.9833 H   0  0  0  0  0  0  0  0  0  0  0  0
  1  2  1  0
  1  6  1  0
  2  3  1  0
  3  4  1  0
  5  4  1  0
  6  5  1  0
  7  6  1  0
  7 16  1  0
  8  7  2  0
  9  8  1  0
  9 10  2  0
 10 11  1  0
 11 16  2  0
 11 12  1  0
 12 13  2  0
 13 14  1  0
 15 14  2  0
 16 15  1  0
 17 18  1  0
 18 19  2  0
 20  2  1  0
 20 19  1  0
 21 17  2  0
 21 20  1  0
 22 23  2  0
 24 23  1  0
 24 17  1  0
 25 24  2  0
 26 27  2  0
 26 25  1  0
 27 22  1  0
  1 28  1  0
  2 29  1  6
  3 30  1  0
  3 31  1  0
  4 32  1  0
  5 33  1  0
  5 34  1  0
  6 35  1  1
  8 36  1  0
  9 37  1  0
 10 38  1  0
 12 39  1  0
 13 40  1  0
 14 41  1  0
 15 42  1  0
 18 43  1  0
 19 44  1  0
 22 45  1  0
 23 46  1  0
 26 47  1  0
M  ISO  8  28   5  29  13  30  13  31  13  32   5  33  13  34  13  35  13
M  ISO  8  36  14  37  14  38  14  39  14  40  14  41  14  42  14  43  14
M  ISO  4  44  14  45  14  46  14  47  14
M  END
>  <minimizedAffinity>  (1) 
-6.36434269

>  <minimizedRMSD>  (1) 
7.0207715

$$$$
