
     RDKit          3D

 37 39  0  0  1  0  0  0  0  0999 V2000
   40.5010   32.8260   39.2880 N   0  0  0  0  0  0  0  0  0  0  0  0
   40.6690   32.6040   40.7270 C   0  0  2  0  0  0  0  0  0  0  0  0
   39.4650   32.9630   41.5120 C   0  0  0  0  0  0  0  0  0  0  0  0
   38.3080   33.2200   40.6700 N   0  0  0  0  0  0  0  0  0  0  0  0
   38.5290   34.1020   39.5820 C   0  0  0  0  0  0  0  0  0  0  0  0
   39.9860   34.2120   39.1920 C   0  0  2  0  0  0  0  0  0  0  0  0
   43.7980   34.0990   41.7280 C   0  0  0  0  0  0  0  0  0  0  0  0
   42.8700   35.1330   41.8590 C   0  0  0  0  0  0  0  0  0  0  0  0
   41.6090   34.6920   41.5130 C   0  0  0  0  0  0  0  0  0  0  0  0
   41.7910   33.4160   41.1790 N   0  0  0  0  0  0  0  0  0  0  0  0
   43.0650   33.0700   41.3040 N   0  0  0  0  0  0  0  0  0  0  0  0
   47.5220   34.5630   41.5390 C   0  0  0  0  0  0  0  0  0  0  0  0
   46.1700   34.4840   41.0750 C   0  0  0  0  0  0  0  0  0  0  0  0
   45.2240   34.2090   42.0290 C   0  0  0  0  0  0  0  0  0  0  0  0
   45.5940   34.0280   43.3370 N   0  0  0  0  0  0  0  0  0  0  0  0
   46.8880   34.1130   43.7270 C   0  0  0  0  0  0  0  0  0  0  0  0
   47.8210   34.3790   42.8180 N   0  0  0  0  0  0  0  0  0  0  0  0
   40.1250   34.6080   37.8640 O   0  0  0  0  0  0  0  0  0  0  0  0
   41.1080   36.8800   38.8190 O   0  0  0  0  0  0  0  0  0  0  0  0
   41.2230   35.8830   37.6970 P   0  0  0  0  0  0  0  0  0  0  0  0
   41.0310   36.6380   36.1760 O   0  0  0  0  0  0  0  0  0  0  0  0
   42.7880   35.2290   37.7380 O   0  0  0  0  0  0  0  0  0  0  0  0
   41.4019   32.7362   38.7968 H   0  0  0  0  0  0  0  0  0  0  0  0
   40.8465   31.5303   40.8869 H   0  0  0  0  0  0  0  0  0  0  0  0
   39.2278   32.1329   42.1937 H   0  0  0  0  0  0  0  0  0  0  0  0
   39.6891   33.8879   42.0637 H   0  0  0  0  0  0  0  0  0  0  0  0
   37.9871   32.3189   40.2880 H   0  0  0  0  0  0  0  0  0  0  0  0
   37.9612   33.7358   38.7139 H   0  0  0  0  0  0  0  0  0  0  0  0
   38.1986   35.1022   39.8991 H   0  0  0  0  0  0  0  0  0  0  0  0
   40.5068   34.9424   39.8286 H   0  0  0  0  0  0  0  0  0  0  0  0
   43.1095   36.1540   42.1908 H   0  0  0  0  0  0  0  0  0  0  0  0
   40.6691   35.2635   41.5131 H   0  0  0  0  0  0  0  0  0  0  0  0
   48.3273   34.7802   40.8219 H   0  0  0  0  0  0  0  0  0  0  0  0
   45.9061   34.6347   40.0178 H   0  0  0  0  0  0  0  0  0  0  0  0
   47.1634   33.9640   44.7815 H   0  0  0  0  0  0  0  0  0  0  0  0
   40.7892   37.5889   36.3078 H   0  0  0  0  0  0  0  0  0  0  0  0
   43.0716   35.1105   38.6791 H   0  0  0  0  0  0  0  0  0  0  0  0
  1  2  1  0
  2 10  1  0
  2  3  1  0
  4  3  1  0
  5  4  1  0
  6  1  1  0
  6  5  1  0
  7  8  1  0
  7 14  1  0
  9  8  2  0
 10 11  1  0
 10  9  1  0
 11  7  2  0
 12 17  2  0
 13 12  1  0
 13 14  2  0
 14 15  1  0
 15 16  2  0
 17 16  1  0
 18  6  1  0
 20 22  1  0
 20 18  1  0
 20 19  2  0
 21 20  1  0
  1 23  1  0
  2 24  1  6
  3 25  1  0
  3 26  1  0
  4 27  1  0
  5 28  1  0
  5 29  1  0
  6 30  1  1
  8 31  1  0
  9 32  1  0
 12 33  1  0
 13 34  1  0
 16 35  1  0
 21 36  1  0
 22 37  1  0
M  ISO  8  23   5  24  13  25  13  26  13  27   5  28  13  29  13  30  13
M  ISO  7  31  14  32  14  33  14  34  14  35  14  36   3  37   3
M  END
>  <minimizedAffinity>  (1) 
-5.38137197

>  <minimizedRMSD>  (1) 
2.32447171

$$$$
