
     RDKit          3D

 34 36  0  0  1  0  0  0  0  0999 V2000
   45.3940   34.5290   42.0110 C   0  0  0  0  0  0  0  0  0  0  0  0
   44.6590   35.6030   42.4690 C   0  0  0  0  0  0  0  0  0  0  0  0
   43.3140   35.4190   42.1870 C   0  0  0  0  0  0  0  0  0  0  0  0
   43.2710   34.2450   41.5640 N   0  0  0  0  0  0  0  0  0  0  0  0
   44.4830   33.7210   41.4600 N   0  0  0  0  0  0  0  0  0  0  0  0
   41.9900   33.8060   39.6290 N   0  0  0  0  0  0  0  0  0  0  0  0
   42.0000   33.7200   41.0930 C   0  0  2  0  0  0  0  0  0  0  0  0
   40.8980   34.4970   41.7180 C   0  0  0  0  0  0  0  0  0  0  0  0
   39.9070   34.9360   40.7510 N   0  0  0  0  0  0  0  0  0  0  0  0
   40.4360   35.5920   39.6110 C   0  0  0  0  0  0  0  0  0  0  0  0
   41.8840   35.2570   39.3560 C   0  0  2  0  0  0  0  0  0  0  0  0
   42.3310   35.5860   37.9690 C   0  0  0  0  0  0  0  0  0  0  0  0
   49.1140   35.0590   41.9800 C   0  0  0  0  0  0  0  0  0  0  0  0
   47.7370   35.3590   41.7980 C   0  0  0  0  0  0  0  0  0  0  0  0
   46.8470   34.3670   42.1450 C   0  0  0  0  0  0  0  0  0  0  0  0
   47.3120   33.1850   42.6300 N   0  0  0  0  0  0  0  0  0  0  0  0
   48.6310   32.9380   42.7900 C   0  0  0  0  0  0  0  0  0  0  0  0
   49.5040   33.8820   42.4610 N   0  0  0  0  0  0  0  0  0  0  0  0
   45.0796   36.4793   42.9839 H   0  0  0  0  0  0  0  0  0  0  0  0
   42.4752   36.0900   42.4241 H   0  0  0  0  0  0  0  0  0  0  0  0
   42.8601   33.4217   39.2338 H   0  0  0  0  0  0  0  0  0  0  0  0
   41.8591   32.6665   41.3765 H   0  0  0  0  0  0  0  0  0  0  0  0
   40.4019   33.8640   42.4685 H   0  0  0  0  0  0  0  0  0  0  0  0
   41.3400   35.3952   42.1739 H   0  0  0  0  0  0  0  0  0  0  0  0
   39.3842   34.1085   40.4303 H   0  0  0  0  0  0  0  0  0  0  0  0
   39.8473   35.2942   38.7308 H   0  0  0  0  0  0  0  0  0  0  0  0
   40.3772   36.6744   39.7980 H   0  0  0  0  0  0  0  0  0  0  0  0
   42.5433   35.8586   39.9990 H   0  0  0  0  0  0  0  0  0  0  0  0
   43.2162   36.2375   38.0139 H   0  0  0  0  0  0  0  0  0  0  0  0
   42.5854   34.6580   37.4359 H   0  0  0  0  0  0  0  0  0  0  0  0
   41.5206   36.1047   37.4359 H   0  0  0  0  0  0  0  0  0  0  0  0
   49.8706   35.8134   41.7185 H   0  0  0  0  0  0  0  0  0  0  0  0
   47.4009   36.3288   41.4023 H   0  0  0  0  0  0  0  0  0  0  0  0
   48.9751   31.9712   43.1861 H   0  0  0  0  0  0  0  0  0  0  0  0
  1 15  1  0
  1  2  1  0
  3  2  2  0
  4  3  1  0
  5  4  1  0
  5  1  2  0
  6  7  1  0
  7  4  1  0
  7  8  1  0
  9  8  1  0
 10  9  1  0
 11 10  1  0
 11  6  1  0
 12 11  1  0
 13 18  2  0
 14 13  1  0
 14 15  2  0
 15 16  1  0
 16 17  2  0
 18 17  1  0
  2 19  1  0
  3 20  1  0
  6 21  1  0
  7 22  1  6
  8 23  1  0
  8 24  1  0
  9 25  1  0
 10 26  1  0
 10 27  1  0
 11 28  1  1
 12 29  1  0
 12 30  1  0
 12 31  1  0
 13 32  1  0
 14 33  1  0
 17 34  1  0
M  ISO  8  19  14  20  14  21   5  22  13  23  13  24  13  25   5  26  13
M  ISO  8  27  13  28  13  29   8  30   8  31   8  32  14  33  14  34  14
M  END
>  <minimizedAffinity>  (1) 
-4.65884924

>  <minimizedRMSD>  (1) 
0.453728884

$$$$
