
     RDKit          3D

 33 35  0  0  1  0  0  0  0  0999 V2000
   45.1040   34.4160   42.2810 N   0  0  0  0  0  0  0  0  0  0  0  0
   46.0570   33.6420   41.5520 C   0  0  1  0  0  0  0  0  0  0  0  0
   45.9010   33.6730   40.0790 C   0  0  0  0  0  0  0  0  0  0  0  0
   44.6160   33.8060   39.5500 N   0  0  0  0  0  0  0  0  0  0  0  0
   43.6320   34.4450   40.3340 C   0  0  0  0  0  0  0  0  0  0  0  0
   44.2540   35.2340   41.4700 C   0  0  0  0  0  0  0  0  0  0  0  0
   44.5860   35.4070   44.3830 C   0  0  0  0  0  0  0  0  0  0  0  0
   45.0900   34.3120   43.6880 C   0  0  0  0  0  0  0  0  0  0  0  0
   45.5360   33.2360   44.4330 C   0  0  0  0  0  0  0  0  0  0  0  0
   45.4870   33.2390   45.7890 N   0  0  0  0  0  0  0  0  0  0  0  0
   44.9860   34.3290   46.4420 C   0  0  0  0  0  0  0  0  0  0  0  0
   44.5510   35.3760   45.7450 N   0  0  0  0  0  0  0  0  0  0  0  0
   47.4510   34.0740   41.8410 C   0  0  0  0  0  0  0  0  0  0  0  0
   47.8970   35.3420   41.5240 C   0  0  0  0  0  0  0  0  0  0  0  0
   49.1830   35.7960   41.7630 C   0  0  0  0  0  0  0  0  0  0  0  0
   50.0940   34.9610   42.3500 C   0  0  0  0  0  0  0  0  0  0  0  0
   49.6500   33.6950   42.6670 C   0  0  0  0  0  0  0  0  0  0  0  0
   48.4130   33.2990   42.4220 N   0  0  0  0  0  0  0  0  0  0  0  0
   45.8597   32.6172   41.8996 H   0  0  0  0  0  0  0  0  0  0  0  0
   46.4952   34.5206   39.7068 H   0  0  0  0  0  0  0  0  0  0  0  0
   46.2261   32.6744   39.7517 H   0  0  0  0  0  0  0  0  0  0  0  0
   44.7011   34.3397   38.6731 H   0  0  0  0  0  0  0  0  0  0  0  0
   43.0559   35.1309   39.6956 H   0  0  0  0  0  0  0  0  0  0  0  0
   42.9793   33.6724   40.7666 H   0  0  0  0  0  0  0  0  0  0  0  0
   44.8490   36.0574   41.0480 H   0  0  0  0  0  0  0  0  0  0  0  0
   43.4420   35.6186   42.1046 H   0  0  0  0  0  0  0  0  0  0  0  0
   44.2192   36.2894   43.8382 H   0  0  0  0  0  0  0  0  0  0  0  0
   45.9408   32.3551   43.9132 H   0  0  0  0  0  0  0  0  0  0  0  0
   44.9422   34.3414   47.5411 H   0  0  0  0  0  0  0  0  0  0  0  0
   47.1854   36.0352   41.0517 H   0  0  0  0  0  0  0  0  0  0  0  0
   49.4700   36.8203   41.4830 H   0  0  0  0  0  0  0  0  0  0  0  0
   51.1252   35.2825   42.5578 H   0  0  0  0  0  0  0  0  0  0  0  0
   50.3493   32.9900   43.1402 H   0  0  0  0  0  0  0  0  0  0  0  0
  1  8  1  0
  2 13  1  0
  2  1  1  0
  3  2  1  0
  4  3  1  0
  4  5  1  0
  5  6  1  0
  6  1  1  0
  7 12  2  0
  8  7  1  0
  8  9  2  0
  9 10  1  0
 10 11  2  0
 12 11  1  0
 13 18  2  0
 14 15  2  0
 14 13  1  0
 15 16  1  0
 16 17  2  0
 18 17  1  0
  2 19  1  1
  3 20  1  0
  3 21  1  0
  4 22  1  0
  5 23  1  0
  5 24  1  0
  6 25  1  0
  6 26  1  0
  7 27  1  0
  9 28  1  0
 11 29  1  0
 14 30  1  0
 15 31  1  0
 16 32  1  0
 17 33  1  0
M  ISO  8  19  13  20  13  21  13  22   5  23  13  24  13  25  13  26  13
M  ISO  7  27  14  28  14  29  14  30  14  31  14  32  14  33  14
M  END
>  <minimizedAffinity>  (1) 
-5.25875568

>  <minimizedRMSD>  (1) 
1.96392512

$$$$
