
     RDKit          3D

 31 33  0  0  1  0  0  0  0  0999 V2000
   45.8370   34.0000   41.8260 N   0  0  0  0  0  0  0  0  0  0  0  0
   47.0950   33.3430   41.6340 C   0  0  1  0  0  0  0  0  0  0  0  0
   47.3750   32.9190   40.2390 C   0  0  0  0  0  0  0  0  0  0  0  0
   46.2820   32.3900   39.5420 N   0  0  0  0  0  0  0  0  0  0  0  0
   45.0260   32.9700   39.7590 C   0  0  0  0  0  0  0  0  0  0  0  0
   45.0980   34.2060   40.6200 C   0  0  0  0  0  0  0  0  0  0  0  0
   44.9020   35.6350   43.2710 C   0  0  0  0  0  0  0  0  0  0  0  0
   45.4620   34.3720   43.1260 C   0  0  0  0  0  0  0  0  0  0  0  0
   45.6080   33.5970   44.2740 C   0  0  0  0  0  0  0  0  0  0  0  0
   45.2160   34.0680   45.4860 N   0  0  0  0  0  0  0  0  0  0  0  0
   44.6690   35.3170   45.5910 C   0  0  0  0  0  0  0  0  0  0  0  0
   44.5220   36.0670   44.5030 N   0  0  0  0  0  0  0  0  0  0  0  0
   48.2460   34.1860   42.0670 C   0  0  0  0  0  0  0  0  0  0  0  0
   48.4290   35.3290   41.3020 C   0  0  0  0  0  0  0  0  0  0  0  0
   49.5340   35.9990   41.8240 C   0  0  0  0  0  0  0  0  0  0  0  0
   49.9610   35.2480   42.8570 N   0  0  0  0  0  0  0  0  0  0  0  0
   49.2090   34.1830   43.0040 N   0  0  0  0  0  0  0  0  0  0  0  0
   46.9950   32.4445   42.2607 H   0  0  0  0  0  0  0  0  0  0  0  0
   47.7392   33.7962   39.6841 H   0  0  0  0  0  0  0  0  0  0  0  0
   48.1115   32.1051   40.3113 H   0  0  0  0  0  0  0  0  0  0  0  0
   46.2086   31.3945   39.7958 H   0  0  0  0  0  0  0  0  0  0  0  0
   44.5915   33.2434   38.7861 H   0  0  0  0  0  0  0  0  0  0  0  0
   44.4054   32.2317   40.2879 H   0  0  0  0  0  0  0  0  0  0  0  0
   45.5827   35.0078   40.0437 H   0  0  0  0  0  0  0  0  0  0  0  0
   44.0690   34.4716   40.9040 H   0  0  0  0  0  0  0  0  0  0  0  0
   44.7665   36.2831   42.3926 H   0  0  0  0  0  0  0  0  0  0  0  0
   46.0463   32.5909   44.1981 H   0  0  0  0  0  0  0  0  0  0  0  0
   44.3517   35.6998   46.5722 H   0  0  0  0  0  0  0  0  0  0  0  0
   47.8171   35.6466   40.4448 H   0  0  0  0  0  0  0  0  0  0  0  0
   49.9673   36.9447   41.4665 H   0  0  0  0  0  0  0  0  0  0  0  0
   50.7695   35.4787   43.4519 H   0  0  0  0  0  0  0  0  0  0  0  0
  1  8  1  0
  2  1  1  0
  2 13  1  0
  3  2  1  0
  4  5  1  0
  4  3  1  0
  5  6  1  0
  6  1  1  0
  7 12  2  0
  8  7  1  0
  8  9  2  0
  9 10  1  0
 10 11  2  0
 12 11  1  0
 13 17  2  0
 14 15  2  0
 14 13  1  0
 15 16  1  0
 16 17  1  0
  2 18  1  1
  3 19  1  0
  3 20  1  0
  4 21  1  0
  5 22  1  0
  5 23  1  0
  6 24  1  0
  6 25  1  0
  7 26  1  0
  9 27  1  0
 11 28  1  0
 14 29  1  0
 15 30  1  0
 16 31  1  0
M  ISO  8  18  13  19  13  20  13  21   5  22  13  23  13  24  13  25  13
M  ISO  6  26  14  27  14  28  14  29  14  30  14  31   9
M  END
>  <minimizedAffinity>  (1) 
-5.18941355

>  <minimizedRMSD>  (1) 
2.77048254

$$$$
