
     RDKit          3D

 38 41  0  0  1  0  0  0  0  0999 V2000
   44.8950   34.6540   42.5440 N   0  0  0  0  0  0  0  0  0  0  0  0
   45.5150   33.7410   41.6660 C   0  0  1  0  0  0  0  0  0  0  0  0
   45.2640   33.9610   40.2200 C   0  0  0  0  0  0  0  0  0  0  0  0
   44.0200   34.4760   39.8390 N   0  0  0  0  0  0  0  0  0  0  0  0
   43.3240   35.2690   40.7650 C   0  0  0  0  0  0  0  0  0  0  0  0
   44.2610   35.7470   41.8660 C   0  0  0  0  0  0  0  0  0  0  0  0
   47.7110   34.7570   41.7660 C   0  0  0  0  0  0  0  0  0  0  0  0
   46.9870   33.5880   41.8210 C   0  0  0  0  0  0  0  0  0  0  0  0
   47.7170   32.4190   41.9990 C   0  0  0  0  0  0  0  0  0  0  0  0
   49.0900   32.4420   42.1130 C   0  0  0  0  0  0  0  0  0  0  0  0
   49.9060   31.3690   42.2890 N   0  0  0  0  0  0  0  0  0  0  0  0
   51.1740   31.8650   42.3470 C   0  0  0  0  0  0  0  0  0  0  0  0
   51.1350   33.2380   42.2080 C   0  0  0  0  0  0  0  0  0  0  0  0
   49.8110   33.6020   42.0590 C   0  0  0  0  0  0  0  0  0  0  0  0
   49.0960   34.7700   41.8820 C   0  0  0  0  0  0  0  0  0  0  0  0
   44.4500   35.4570   44.7440 C   0  0  0  0  0  0  0  0  0  0  0  0
   44.9570   34.4340   43.9310 C   0  0  0  0  0  0  0  0  0  0  0  0
   45.4790   33.3180   44.5570 C   0  0  0  0  0  0  0  0  0  0  0  0
   45.5020   33.2160   45.9090 N   0  0  0  0  0  0  0  0  0  0  0  0
   45.0010   34.2280   46.6810 C   0  0  0  0  0  0  0  0  0  0  0  0
   44.4860   35.3260   46.0980 N   0  0  0  0  0  0  0  0  0  0  0  0
   45.0097   32.8209   41.9949 H   0  0  0  0  0  0  0  0  0  0  0  0
   46.0321   34.6601   39.8576 H   0  0  0  0  0  0  0  0  0  0  0  0
   45.2895   32.9528   39.7808 H   0  0  0  0  0  0  0  0  0  0  0  0
   44.1707   35.0494   38.9967 H   0  0  0  0  0  0  0  0  0  0  0  0
   42.8985   36.1413   40.2474 H   0  0  0  0  0  0  0  0  0  0  0  0
   42.5209   34.6680   41.2164 H   0  0  0  0  0  0  0  0  0  0  0  0
   45.0370   36.3860   41.4193 H   0  0  0  0  0  0  0  0  0  0  0  0
   43.6632   36.3032   42.6031 H   0  0  0  0  0  0  0  0  0  0  0  0
   47.1780   35.7090   41.6261 H   0  0  0  0  0  0  0  0  0  0  0  0
   47.1881   31.4559   42.0499 H   0  0  0  0  0  0  0  0  0  0  0  0
   49.6232   30.3814   42.3634 H   0  0  0  0  0  0  0  0  0  0  0  0
   52.0860   31.2652   42.4833 H   0  0  0  0  0  0  0  0  0  0  0  0
   51.9999   33.9176   42.2147 H   0  0  0  0  0  0  0  0  0  0  0  0
   49.6327   35.7289   41.8319 H   0  0  0  0  0  0  0  0  0  0  0  0
   44.0241   36.3633   44.2888 H   0  0  0  0  0  0  0  0  0  0  0  0
   45.8835   32.4969   43.9470 H   0  0  0  0  0  0  0  0  0  0  0  0
   45.0191   34.1443   47.7777 H   0  0  0  0  0  0  0  0  0  0  0  0
  1 17  1  0
  2  8  1  0
  2  1  1  0
  3  2  1  0
  4  3  1  0
  4  5  1  0
  5  6  1  0
  6  1  1  0
  7  8  2  0
  7 15  1  0
  8  9  1  0
  9 10  2  0
 10 11  1  0
 11 12  1  0
 13 12  2  0
 14 10  1  0
 14 13  1  0
 15 14  2  0
 16 21  2  0
 17 18  2  0
 17 16  1  0
 18 19  1  0
 19 20  2  0
 21 20  1  0
  2 22  1  1
  3 23  1  0
  3 24  1  0
  4 25  1  0
  5 26  1  0
  5 27  1  0
  6 28  1  0
  6 29  1  0
  7 30  1  0
  9 31  1  0
 11 32  1  0
 12 33  1  0
 13 34  1  0
 15 35  1  0
 16 36  1  0
 18 37  1  0
 20 38  1  0
M  ISO  8  22  13  23  13  24  13  25   5  26  13  27  13  28  13  29  13
M  ISO  8  30  14  31  14  32   9  33  14  34  14  35  14  36  14  37  14
M  ISO  1  38  14
M  END
>  <minimizedAffinity>  (1) 
-5.25135994

>  <minimizedRMSD>  (1) 
1.78682685

$$$$
