
     RDKit          3D

 34 36  0  0  1  0  0  0  0  0999 V2000
   45.9990   33.6620   43.2580 N   0  0  0  0  0  0  0  0  0  0  0  0
   46.6080   33.1470   42.0680 C   0  0  1  0  0  0  0  0  0  0  0  0
   46.4190   33.9810   40.8510 C   0  0  0  0  0  0  0  0  0  0  0  0
   45.1380   34.5680   40.7220 N   0  0  0  0  0  0  0  0  0  0  0  0
   44.5470   35.0740   41.8940 C   0  0  0  0  0  0  0  0  0  0  0  0
   45.4620   34.9770   43.1040 C   0  0  0  0  0  0  0  0  0  0  0  0
   46.2350   33.4970   45.6210 C   0  0  0  0  0  0  0  0  0  0  0  0
   45.9940   32.8450   44.4160 C   0  0  0  0  0  0  0  0  0  0  0  0
   45.7770   31.4800   44.4520 C   0  0  0  0  0  0  0  0  0  0  0  0
   45.8020   30.8190   45.6390 N   0  0  0  0  0  0  0  0  0  0  0  0
   46.0410   31.4820   46.8060 C   0  0  0  0  0  0  0  0  0  0  0  0
   46.2550   32.8080   46.7960 N   0  0  0  0  0  0  0  0  0  0  0  0
   48.1290   35.6900   41.9800 Cl  0  0  0  0  0  0  0  0  0  0  0  0
   48.9450   34.1360   42.1560 C   0  0  0  0  0  0  0  0  0  0  0  0
   48.1050   33.0160   42.1830 C   0  0  0  0  0  0  0  0  0  0  0  0
   48.7390   31.8050   42.3200 C   0  0  0  0  0  0  0  0  0  0  0  0
   50.1060   31.6730   42.4260 C   0  0  0  0  0  0  0  0  0  0  0  0
   50.8970   32.8000   42.3950 C   0  0  0  0  0  0  0  0  0  0  0  0
   50.3110   34.0390   42.2590 C   0  0  0  0  0  0  0  0  0  0  0  0
   46.0956   32.1791   41.9649 H   0  0  0  0  0  0  0  0  0  0  0  0
   47.1644   34.7896   40.8722 H   0  0  0  0  0  0  0  0  0  0  0  0
   46.5347   33.3031   39.9925 H   0  0  0  0  0  0  0  0  0  0  0  0
   45.2191   35.3473   40.0534 H   0  0  0  0  0  0  0  0  0  0  0  0
   44.2913   36.1313   41.7305 H   0  0  0  0  0  0  0  0  0  0  0  0
   43.6545   34.4663   42.1040 H   0  0  0  0  0  0  0  0  0  0  0  0
   46.2918   35.6885   42.9810 H   0  0  0  0  0  0  0  0  0  0  0  0
   44.8698   35.2121   44.0007 H   0  0  0  0  0  0  0  0  0  0  0  0
   46.4117   34.5827   45.6251 H   0  0  0  0  0  0  0  0  0  0  0  0
   45.5841   30.9290   43.5197 H   0  0  0  0  0  0  0  0  0  0  0  0
   46.0586   30.9301   47.7574 H   0  0  0  0  0  0  0  0  0  0  0  0
   48.1233   30.8938   42.3464 H   0  0  0  0  0  0  0  0  0  0  0  0
   50.5613   30.6775   42.5343 H   0  0  0  0  0  0  0  0  0  0  0  0
   51.9902   32.7111   42.4784 H   0  0  0  0  0  0  0  0  0  0  0  0
   50.9335   34.9455   42.2330 H   0  0  0  0  0  0  0  0  0  0  0  0
  1  8  1  0
  2 15  1  0
  2  1  1  0
  3  2  1  0
  4  3  1  0
  4  5  1  0
  5  6  1  0
  6  1  1  0
  7 12  2  0
  8  9  2  0
  8  7  1  0
  9 10  1  0
 10 11  2  0
 12 11  1  0
 13 14  1  0
 14 15  2  0
 14 19  1  0
 15 16  1  0
 16 17  2  0
 18 17  1  0
 19 18  2  0
  2 20  1  6
  3 21  1  0
  3 22  1  0
  4 23  1  0
  5 24  1  0
  5 25  1  0
  6 26  1  0
  6 27  1  0
  7 28  1  0
  9 29  1  0
 11 30  1  0
 16 31  1  0
 17 32  1  0
 18 33  1  0
 19 34  1  0
M  ISO  8  20  13  21  13  22  13  23   5  24  13  25  13  26  13  27  13
M  ISO  7  28  14  29  14  30  14  31  14  32  14  33  14  34  14
M  END
>  <minimizedAffinity>  (1) 
-4.84394836

>  <minimizedRMSD>  (1) 
2.6644814

$$$$
