
     RDKit          3D

 30 31  0  0  1  0  0  0  0  0999 V2000
   45.5470   34.4690   42.2430 N   0  0  0  0  0  0  0  0  0  0  0  0
   46.8170   34.1460   41.6780 C   0  0  1  0  0  0  0  0  0  0  0  0
   46.8600   34.0060   40.2070 C   0  0  0  0  0  0  0  0  0  0  0  0
   45.6860   33.6900   39.5180 N   0  0  0  0  0  0  0  0  0  0  0  0
   44.4510   33.8890   40.1340 C   0  0  0  0  0  0  0  0  0  0  0  0
   44.5830   34.8820   41.2770 C   0  0  0  0  0  0  0  0  0  0  0  0
   44.7200   35.4200   44.2590 C   0  0  0  0  0  0  0  0  0  0  0  0
   45.3920   34.3550   43.6420 C   0  0  0  0  0  0  0  0  0  0  0  0
   45.8380   33.3200   44.4430 C   0  0  0  0  0  0  0  0  0  0  0  0
   45.6240   33.3490   45.7830 N   0  0  0  0  0  0  0  0  0  0  0  0
   44.9730   34.3860   46.3640 C   0  0  0  0  0  0  0  0  0  0  0  0
   44.5310   35.4000   45.6110 N   0  0  0  0  0  0  0  0  0  0  0  0
   47.7400   35.3290   42.0140 C   0  0  0  0  0  0  0  0  0  0  0  0
   48.8070   35.5170   40.9660 C   0  0  0  0  0  0  0  0  0  0  0  0
   47.1002   33.1669   42.0916 H   0  0  0  0  0  0  0  0  0  0  0  0
   47.2218   34.9632   39.8034 H   0  0  0  0  0  0  0  0  0  0  0  0
   47.5024   33.1276   40.0463 H   0  0  0  0  0  0  0  0  0  0  0  0
   45.7415   32.6906   39.2751 H   0  0  0  0  0  0  0  0  0  0  0  0
   43.7361   34.2799   39.3950 H   0  0  0  0  0  0  0  0  0  0  0  0
   44.0933   32.9291   40.5348 H   0  0  0  0  0  0  0  0  0  0  0  0
   44.8882   35.8558   40.8664 H   0  0  0  0  0  0  0  0  0  0  0  0
   43.6075   34.9470   41.7811 H   0  0  0  0  0  0  0  0  0  0  0  0
   44.3485   36.2639   43.6591 H   0  0  0  0  0  0  0  0  0  0  0  0
   46.3690   32.4687   43.9920 H   0  0  0  0  0  0  0  0  0  0  0  0
   44.8084   34.3941   47.4516 H   0  0  0  0  0  0  0  0  0  0  0  0
   47.1360   36.2462   42.0766 H   0  0  0  0  0  0  0  0  0  0  0  0
   48.2345   35.1172   42.9735 H   0  0  0  0  0  0  0  0  0  0  0  0
   49.7767   35.6878   41.4565 H   0  0  0  0  0  0  0  0  0  0  0  0
   48.8673   34.6157   40.3384 H   0  0  0  0  0  0  0  0  0  0  0  0
   48.5556   36.3847   40.3384 H   0  0  0  0  0  0  0  0  0  0  0  0
  1  8  1  0
  2 13  1  0
  2  1  1  0
  3  2  1  0
  4  5  1  0
  4  3  1  0
  5  6  1  0
  6  1  1  0
  7 12  2  0
  8  7  1  0
  8  9  2  0
  9 10  1  0
 10 11  2  0
 12 11  1  0
 14 13  1  0
  2 15  1  1
  3 16  1  0
  3 17  1  0
  4 18  1  0
  5 19  1  0
  5 20  1  0
  6 21  1  0
  6 22  1  0
  7 23  1  0
  9 24  1  0
 11 25  1  0
 13 26  1  0
 13 27  1  0
 14 28  1  0
 14 29  1  0
 14 30  1  0
M  ISO  8  15  13  16  13  17  13  18   5  19  13  20  13  21  13  22  13
M  ISO  8  23  14  24  14  25  14  26   8  27   8  28   8  29   8  30   8
M  END
>  <minimizedAffinity>  (1) 
-4.32995939

>  <minimizedRMSD>  (1) 
2.08514047

$$$$
