
     RDKit          3D

 27 28  0  0  1  0  0  0  0  0999 V2000
   45.6130   34.4060   41.8510 N   0  0  0  0  0  0  0  0  0  0  0  0
   46.9490   34.1230   41.4140 C   0  0  1  0  0  0  0  0  0  0  0  0
   47.1040   33.9890   39.9420 C   0  0  0  0  0  0  0  0  0  0  0  0
   46.0550   33.3790   39.2490 N   0  0  0  0  0  0  0  0  0  0  0  0
   44.7570   33.4890   39.7670 C   0  0  0  0  0  0  0  0  0  0  0  0
   44.6600   34.5990   40.8010 C   0  0  0  0  0  0  0  0  0  0  0  0
   44.7160   35.6110   43.6970 C   0  0  0  0  0  0  0  0  0  0  0  0
   45.3730   34.4760   43.2320 C   0  0  0  0  0  0  0  0  0  0  0  0
   45.7550   33.5090   44.1760 C   0  0  0  0  0  0  0  0  0  0  0  0
   45.4790   33.7020   45.4910 N   0  0  0  0  0  0  0  0  0  0  0  0
   44.8390   34.8170   45.9030 C   0  0  0  0  0  0  0  0  0  0  0  0
   44.4620   35.7570   45.0280 N   0  0  0  0  0  0  0  0  0  0  0  0
   47.8420   35.2710   41.8600 C   0  0  0  0  0  0  0  0  0  0  0  0
   47.2197   33.1527   41.8559 H   0  0  0  0  0  0  0  0  0  0  0  0
   47.2324   35.0000   39.5279 H   0  0  0  0  0  0  0  0  0  0  0  0
   47.9663   33.3201   39.8041 H   0  0  0  0  0  0  0  0  0  0  0  0
   46.2741   32.3744   39.1888 H   0  0  0  0  0  0  0  0  0  0  0  0
   44.0611   33.7064   38.9433 H   0  0  0  0  0  0  0  0  0  0  0  0
   44.5002   32.5384   40.2573 H   0  0  0  0  0  0  0  0  0  0  0  0
   44.8546   35.5647   40.3115 H   0  0  0  0  0  0  0  0  0  0  0  0
   43.6502   34.5847   41.2370 H   0  0  0  0  0  0  0  0  0  0  0  0
   44.4011   36.3918   42.9891 H   0  0  0  0  0  0  0  0  0  0  0  0
   46.2768   32.5970   43.8505 H   0  0  0  0  0  0  0  0  0  0  0  0
   44.6243   34.9549   46.9730 H   0  0  0  0  0  0  0  0  0  0  0  0
   47.8706   35.3077   42.9590 H   0  0  0  0  0  0  0  0  0  0  0  0
   48.8595   35.1162   41.4717 H   0  0  0  0  0  0  0  0  0  0  0  0
   47.4417   36.2191   41.4717 H   0  0  0  0  0  0  0  0  0  0  0  0
  1  8  1  0
  2  1  1  0
  2 13  1  0
  3  2  1  0
  4  5  1  0
  4  3  1  0
  5  6  1  0
  6  1  1  0
  7 12  2  0
  8  7  1  0
  8  9  2  0
  9 10  1  0
 10 11  2  0
 12 11  1  0
  2 14  1  1
  3 15  1  0
  3 16  1  0
  4 17  1  0
  5 18  1  0
  5 19  1  0
  6 20  1  0
  6 21  1  0
  7 22  1  0
  9 23  1  0
 11 24  1  0
 13 25  1  0
 13 26  1  0
 13 27  1  0
M  ISO  8  14  13  15  13  16  13  17   5  18  13  19  13  20  13  21  13
M  ISO  6  22  14  23  14  24  14  25   8  26   8  27   8
M  END
>  <minimizedAffinity>  (1) 
-3.94845414

>  <minimizedRMSD>  (1) 
2.16702175

$$$$
