
     RDKit          3D

 29 30  0  0  1  0  0  0  0  0999 V2000
   45.7330   34.4020   41.7920 N   0  0  0  0  0  0  0  0  0  0  0  0
   47.0860   34.1380   41.3950 C   0  0  1  0  0  0  0  0  0  0  0  0
   47.2760   34.0160   39.9270 C   0  0  0  0  0  0  0  0  0  0  0  0
   46.2530   33.3860   39.2150 N   0  0  0  0  0  0  0  0  0  0  0  0
   44.9350   33.4540   39.7040 C   0  0  0  0  0  0  0  0  0  0  0  0
   44.8000   34.5570   40.7250 C   0  0  0  0  0  0  0  0  0  0  0  0
   44.8000   35.6020   43.6250 C   0  0  0  0  0  0  0  0  0  0  0  0
   45.4700   34.4790   43.1780 C   0  0  0  0  0  0  0  0  0  0  0  0
   45.8280   33.5220   44.1320 C   0  0  0  0  0  0  0  0  0  0  0  0
   45.5170   33.7150   45.4310 N   0  0  0  0  0  0  0  0  0  0  0  0
   44.8650   34.8170   45.8270 C   0  0  0  0  0  0  0  0  0  0  0  0
   44.5030   35.7620   44.9440 N   0  0  0  0  0  0  0  0  0  0  0  0
   47.9350   35.3190   41.8520 C   0  0  0  0  0  0  0  0  0  0  0  0
   48.9380   35.5990   40.8240 N   0  0  0  0  0  0  0  0  0  0  0  0
   47.3695   33.1761   41.8470 H   0  0  0  0  0  0  0  0  0  0  0  0
   47.3900   35.0314   39.5196 H   0  0  0  0  0  0  0  0  0  0  0  0
   48.1577   33.3704   39.8010 H   0  0  0  0  0  0  0  0  0  0  0  0
   46.4999   32.3880   39.1525 H   0  0  0  0  0  0  0  0  0  0  0  0
   44.2492   33.6512   38.8669 H   0  0  0  0  0  0  0  0  0  0  0  0
   44.6865   32.4960   40.1841 H   0  0  0  0  0  0  0  0  0  0  0  0
   44.9792   35.5238   40.2318 H   0  0  0  0  0  0  0  0  0  0  0  0
   43.7850   34.5130   41.1466 H   0  0  0  0  0  0  0  0  0  0  0  0
   44.5023   36.3780   42.9045 H   0  0  0  0  0  0  0  0  0  0  0  0
   46.3632   32.6117   43.8239 H   0  0  0  0  0  0  0  0  0  0  0  0
   44.6226   34.9495   46.8917 H   0  0  0  0  0  0  0  0  0  0  0  0
   47.2949   36.2020   41.9953 H   0  0  0  0  0  0  0  0  0  0  0  0
   48.4302   35.0793   42.8045 H   0  0  0  0  0  0  0  0  0  0  0  0
   49.8304   35.8481   41.2739 H   0  0  0  0  0  0  0  0  0  0  0  0
   49.0709   34.7630   40.2373 H   0  0  0  0  0  0  0  0  0  0  0  0
  1  8  1  0
  2  1  1  0
  2 13  1  0
  3  2  1  0
  4  5  1  0
  4  3  1  0
  5  6  1  0
  6  1  1  0
  7 12  2  0
  8  7  1  0
  8  9  2  0
  9 10  1  0
 10 11  2  0
 12 11  1  0
 14 13  1  0
  2 15  1  1
  3 16  1  0
  3 17  1  0
  4 18  1  0
  5 19  1  0
  5 20  1  0
  6 21  1  0
  6 22  1  0
  7 23  1  0
  9 24  1  0
 11 25  1  0
 13 26  1  0
 13 27  1  0
 14 28  1  0
 14 29  1  0
M  ISO  8  15  13  16  13  17  13  18   5  19  13  20  13  21  13  22  13
M  ISO  7  23  14  24  14  25  14  26   8  27   8  28   5  29   5
M  END
>  <minimizedAffinity>  (1) 
-4.24854374

>  <minimizedRMSD>  (1) 
0.273543537

$$$$
