
     RDKit          3D

 34 36  0  0  1  0  0  0  0  0999 V2000
   45.3150   34.4360   41.9940 N   0  0  0  0  0  0  0  0  0  0  0  0
   46.6010   34.0810   41.4440 C   0  0  1  0  0  0  0  0  0  0  0  0
   46.6350   34.0310   39.9640 C   0  0  0  0  0  0  0  0  0  0  0  0
   45.5010   33.4960   39.3310 N   0  0  0  0  0  0  0  0  0  0  0  0
   44.2540   33.6550   39.9500 C   0  0  0  0  0  0  0  0  0  0  0  0
   44.3070   34.7310   41.0190 C   0  0  0  0  0  0  0  0  0  0  0  0
   44.5930   35.5970   43.9310 C   0  0  0  0  0  0  0  0  0  0  0  0
   45.1910   34.4530   43.3910 C   0  0  0  0  0  0  0  0  0  0  0  0
   45.6010   33.4540   44.2720 C   0  0  0  0  0  0  0  0  0  0  0  0
   45.4110   33.6190   45.6070 N   0  0  0  0  0  0  0  0  0  0  0  0
   44.8310   34.7350   46.0930 C   0  0  0  0  0  0  0  0  0  0  0  0
   44.4290   35.7050   45.2810 N   0  0  0  0  0  0  0  0  0  0  0  0
   47.6070   35.1180   41.8910 C   0  0  0  0  0  0  0  0  0  0  0  0
   49.0140   34.8090   41.4800 C   0  0  0  0  0  0  0  0  0  0  0  0
   50.0270   34.9440   42.6320 C   0  0  0  0  0  0  0  0  0  0  0  0
   49.7370   33.6230   41.9790 C   0  0  0  0  0  0  0  0  0  0  0  0
   46.8300   33.0684   41.8076 H   0  0  0  0  0  0  0  0  0  0  0  0
   46.7690   35.0594   39.5974 H   0  0  0  0  0  0  0  0  0  0  0  0
   47.4594   33.3471   39.7136 H   0  0  0  0  0  0  0  0  0  0  0  0
   45.6610   32.4841   39.2243 H   0  0  0  0  0  0  0  0  0  0  0  0
   43.5100   33.9390   39.1912 H   0  0  0  0  0  0  0  0  0  0  0  0
   43.9769   32.7030   40.4264 H   0  0  0  0  0  0  0  0  0  0  0  0
   44.5358   35.6973   40.5459 H   0  0  0  0  0  0  0  0  0  0  0  0
   43.3310   34.7715   41.5247 H   0  0  0  0  0  0  0  0  0  0  0  0
   44.2558   36.4076   43.2683 H   0  0  0  0  0  0  0  0  0  0  0  0
   46.0752   32.5383   43.8891 H   0  0  0  0  0  0  0  0  0  0  0  0
   44.6889   34.8432   47.1784 H   0  0  0  0  0  0  0  0  0  0  0  0
   47.3231   36.0875   41.4556 H   0  0  0  0  0  0  0  0  0  0  0  0
   47.5888   35.1301   42.9908 H   0  0  0  0  0  0  0  0  0  0  0  0
   48.8578   35.1909   40.4603 H   0  0  0  0  0  0  0  0  0  0  0  0
   50.9922   35.4451   42.4669 H   0  0  0  0  0  0  0  0  0  0  0  0
   50.0065   35.3382   43.6588 H   0  0  0  0  0  0  0  0  0  0  0  0
   49.1909   32.8487   42.5377 H   0  0  0  0  0  0  0  0  0  0  0  0
   50.3613   32.8524   41.5032 H   0  0  0  0  0  0  0  0  0  0  0  0
  1  8  1  0
  2 13  1  0
  2  1  1  0
  3  2  1  0
  4  5  1  0
  4  3  1  0
  5  6  1  0
  6  1  1  0
  7 12  2  0
  8  7  1  0
  8  9  2  0
  9 10  1  0
 10 11  2  0
 12 11  1  0
 14 13  1  0
 14 16  1  0
 14 15  1  0
 16 15  1  0
  2 17  1  1
  3 18  1  0
  3 19  1  0
  4 20  1  0
  5 21  1  0
  5 22  1  0
  6 23  1  0
  6 24  1  0
  7 25  1  0
  9 26  1  0
 11 27  1  0
 13 28  1  0
 13 29  1  0
 14 30  1  0
 15 31  1  0
 15 32  1  0
 16 33  1  0
 16 34  1  0
M  ISO  8  17  13  18  13  19  13  20   5  21  13  22  13  23  13  24  13
M  ISO  8  25  14  26  14  27  14  28   8  29   8  30  13  31  13  32  13
M  ISO  2  33  13  34  13
M  END
>  <minimizedAffinity>  (1) 
-4.66046095

>  <minimizedRMSD>  (1) 
0.767518044

$$$$
