
     RDKit          3D

 37 40  0  0  0  0  0  0  0  0999 V2000
   44.1650   33.6270   39.8990 C   0  0  0  0  0  0  0  0  0  0  0  0
   45.4040   33.1190   40.2470 C   0  0  0  0  0  0  0  0  0  0  0  0
   46.1130   32.4830   39.2790 C   0  0  0  0  0  0  0  0  0  0  0  0
   45.6720   32.3190   37.9850 C   0  0  0  0  0  0  0  0  0  0  0  0
   44.4390   32.8340   37.6690 C   0  0  0  0  0  0  0  0  0  0  0  0
   43.6830   33.4840   38.6090 C   0  0  0  0  0  0  0  0  0  0  0  0
   42.3840   34.0430   38.2930 C   0  0  0  0  0  0  0  0  0  0  0  0
   42.4460   35.3670   38.0380 N   0  0  0  0  0  0  0  0  0  0  0  0
   41.3220   36.0470   37.7240 C   0  0  0  0  0  0  0  0  0  0  0  0
   40.1540   35.4190   37.6650 N   0  0  0  0  0  0  0  0  0  0  0  0
   40.0090   34.0960   37.9070 C   0  0  0  0  0  0  0  0  0  0  0  0
   38.8180   33.3970   37.8610 C   0  0  0  0  0  0  0  0  0  0  0  0
   38.8110   32.0280   38.1360 C   0  0  0  0  0  0  0  0  0  0  0  0
   39.9910   31.3770   38.4530 C   0  0  0  0  0  0  0  0  0  0  0  0
   41.1860   32.0780   38.5000 C   0  0  0  0  0  0  0  0  0  0  0  0
   41.1590   33.4180   38.2250 C   0  0  0  0  0  0  0  0  0  0  0  0
   45.8420   32.6930   43.9710 C   0  0  0  0  0  0  0  0  0  0  0  0
   45.4100   32.4710   42.6520 C   0  0  0  0  0  0  0  0  0  0  0  0
   45.8310   33.3140   41.6240 C   0  0  0  0  0  0  0  0  0  0  0  0
   46.6620   34.3280   41.9990 N   0  0  0  0  0  0  0  0  0  0  0  0
   47.0680   34.5310   43.2520 C   0  0  0  0  0  0  0  0  0  0  0  0
   46.6600   33.7160   44.2350 N   0  0  0  0  0  0  0  0  0  0  0  0
   45.3810   31.8020   44.9680 N   0  0  0  0  0  0  0  0  0  0  0  0
   42.6740   34.8860   41.6360 N   0  0  0  0  0  0  0  0  0  0  0  0
   43.3440   34.3190   40.8650 C   0  0  0  0  0  0  0  0  0  0  0  0
   47.0990   32.0742   39.5447 H   0  0  0  0  0  0  0  0  0  0  0  0
   46.2830   31.7963   37.2344 H   0  0  0  0  0  0  0  0  0  0  0  0
   44.0521   32.7230   36.6453 H   0  0  0  0  0  0  0  0  0  0  0  0
   41.3747   37.1259   37.5163 H   0  0  0  0  0  0  0  0  0  0  0  0
   37.8812   33.9157   37.6093 H   0  0  0  0  0  0  0  0  0  0  0  0
   37.8662   31.4658   38.1007 H   0  0  0  0  0  0  0  0  0  0  0  0
   39.9803   30.2984   38.6686 H   0  0  0  0  0  0  0  0  0  0  0  0
   42.1294   31.5712   38.7513 H   0  0  0  0  0  0  0  0  0  0  0  0
   44.7375   31.6294   42.4299 H   0  0  0  0  0  0  0  0  0  0  0  0
   47.7407   35.3708   43.4805 H   0  0  0  0  0  0  0  0  0  0  0  0
   44.7508   31.0275   44.7151 H   0  0  0  0  0  0  0  0  0  0  0  0
   45.6754   31.9276   45.9470 H   0  0  0  0  0  0  0  0  0  0  0  0
  1  2  2  0
  1 25  1  0
  2 19  1  0
  3  2  1  0
  4  3  2  0
  5  4  1  0
  5  6  2  0
  6  1  1  0
  7  6  1  0
  8  7  2  0
  9  8  1  0
 10  9  2  0
 10 11  1  0
 11 16  2  0
 12 11  1  0
 12 13  2  0
 13 14  1  0
 14 15  2  0
 16  7  1  0
 16 15  1  0
 17 22  2  0
 17 23  1  0
 18 17  1  0
 19 20  1  0
 19 18  2  0
 20 21  2  0
 21 22  1  0
 25 24  3  0
  3 26  1  0
  4 27  1  0
  5 28  1  0
  9 29  1  0
 12 30  1  0
 13 31  1  0
 14 32  1  0
 15 33  1  0
 18 34  1  0
 21 35  1  0
 23 36  1  0
 23 37  1  0
M  ISO  8  26  14  27  14  28  14  29  14  30  14  31  14  32  14  33  14
M  ISO  2  34  14  35  14
M  END
>  <minimizedAffinity>  (1) 
-5.40890598

>  <minimizedRMSD>  (1) 
7.46059752

$$$$
