
     RDKit          3D

 26 27  0  0  0  0  0  0  0  0999 V2000
   47.4390   34.2020   39.9330 C   0  0  0  0  0  0  0  0  0  0  0  0
   46.3860   33.5720   40.5420 C   0  0  0  0  0  0  0  0  0  0  0  0
   45.6170   32.7410   39.7770 C   0  0  0  0  0  0  0  0  0  0  0  0
   45.8540   32.5130   38.4300 C   0  0  0  0  0  0  0  0  0  0  0  0
   46.9160   33.1570   37.8430 C   0  0  0  0  0  0  0  0  0  0  0  0
   47.7190   34.0070   38.5830 C   0  0  0  0  0  0  0  0  0  0  0  0
   45.0290   34.9630   43.7780 C   0  0  0  0  0  0  0  0  0  0  0  0
   45.1930   34.7290   42.3990 C   0  0  0  0  0  0  0  0  0  0  0  0
   46.1820   33.8430   41.9500 C   0  0  0  0  0  0  0  0  0  0  0  0
   46.9370   33.2540   42.9190 N   0  0  0  0  0  0  0  0  0  0  0  0
   46.7670   33.4870   44.2250 C   0  0  0  0  0  0  0  0  0  0  0  0
   45.8170   34.3400   44.6590 N   0  0  0  0  0  0  0  0  0  0  0  0
   44.0230   35.8590   44.1770 N   0  0  0  0  0  0  0  0  0  0  0  0
   49.0150   35.8070   41.2590 N   0  0  0  0  0  0  0  0  0  0  0  0
   48.3020   35.0940   40.6570 C   0  0  0  0  0  0  0  0  0  0  0  0
   48.8780   34.7140   37.9570 C   0  0  0  0  0  0  0  0  0  0  0  0
   44.7684   32.2278   40.2530 H   0  0  0  0  0  0  0  0  0  0  0  0
   45.2106   31.8363   37.8485 H   0  0  0  0  0  0  0  0  0  0  0  0
   47.1298   32.9957   36.7761 H   0  0  0  0  0  0  0  0  0  0  0  0
   44.5444   35.2420   41.6736 H   0  0  0  0  0  0  0  0  0  0  0  0
   47.4112   32.9756   44.9554 H   0  0  0  0  0  0  0  0  0  0  0  0
   43.4345   36.3210   43.4691 H   0  0  0  0  0  0  0  0  0  0  0  0
   43.8740   36.0538   45.1774 H   0  0  0  0  0  0  0  0  0  0  0  0
   49.5330   35.1135   38.7453 H   0  0  0  0  0  0  0  0  0  0  0  0
   49.4446   34.0076   37.3326 H   0  0  0  0  0  0  0  0  0  0  0  0
   48.5092   35.5411   37.3326 H   0  0  0  0  0  0  0  0  0  0  0  0
  1  2  2  0
  1 15  1  0
  2  9  1  0
  3  2  1  0
  4  3  2  0
  5  4  1  0
  5  6  2  0
  6  1  1  0
  7 13  1  0
  7 12  2  0
  8  7  1  0
  9  8  2  0
  9 10  1  0
 10 11  2  0
 11 12  1  0
 15 14  3  0
 16  6  1  0
  3 17  1  0
  4 18  1  0
  5 19  1  0
  8 20  1  0
 11 21  1  0
 13 22  1  0
 13 23  1  0
 16 24  1  0
 16 25  1  0
 16 26  1  0
M  ISO  8  17  14  18  14  19  14  20  14  21  14  24   8  25   8  26   8
M  END
>  <minimizedAffinity>  (1) 
-4.4893508

>  <minimizedRMSD>  (1) 
0.674214423

$$$$
