
     RDKit          3D

 43 46  0  0  0  0  0  0  0  0999 V2000
   45.0330   34.0190   40.7900 C   0  0  0  0  0  0  0  0  0  0  0  0
   43.9880   33.6250   39.9940 C   0  0  0  0  0  0  0  0  0  0  0  0
   44.2900   33.0280   38.8110 C   0  0  0  0  0  0  0  0  0  0  0  0
   45.5770   32.8000   38.3740 C   0  0  0  0  0  0  0  0  0  0  0  0
   46.6030   33.2060   39.1930 C   0  0  0  0  0  0  0  0  0  0  0  0
   46.3490   33.8170   40.4020 C   0  0  0  0  0  0  0  0  0  0  0  0
   40.7460   35.3750   40.8170 C   0  0  0  0  0  0  0  0  0  0  0  0
   42.0400   35.1520   40.3250 C   0  0  0  0  0  0  0  0  0  0  0  0
   42.6490   33.8850   40.4930 C   0  0  0  0  0  0  0  0  0  0  0  0
   41.9050   32.9500   41.1390 N   0  0  0  0  0  0  0  0  0  0  0  0
   40.6730   33.1910   41.5980 C   0  0  0  0  0  0  0  0  0  0  0  0
   40.0940   34.3920   41.4400 N   0  0  0  0  0  0  0  0  0  0  0  0
   40.1740   36.6440   40.6340 N   0  0  0  0  0  0  0  0  0  0  0  0
   47.5070   34.2140   41.1930 C   0  0  0  0  0  0  0  0  0  0  0  0
   48.1230   35.3770   40.8080 C   0  0  0  0  0  0  0  0  0  0  0  0
   49.2400   35.8990   41.4540 C   0  0  0  0  0  0  0  0  0  0  0  0
   49.7440   35.2110   42.5300 C   0  0  0  0  0  0  0  0  0  0  0  0
   49.1430   34.0420   42.9340 C   0  0  0  0  0  0  0  0  0  0  0  0
   48.0350   33.5510   42.2700 C   0  0  0  0  0  0  0  0  0  0  0  0
   47.3900   32.3100   42.6920 C   0  0  0  0  0  0  0  0  0  0  0  0
   46.8300   32.4790   43.9660 C   0  0  0  0  0  0  0  0  0  0  0  0
   46.1600   31.4480   44.6020 C   0  0  0  0  0  0  0  0  0  0  0  0
   46.0390   30.2180   43.9650 C   0  0  0  0  0  0  0  0  0  0  0  0
   46.5990   30.0990   42.7250 C   0  0  0  0  0  0  0  0  0  0  0  0
   47.2710   31.0990   42.0660 C   0  0  0  0  0  0  0  0  0  0  0  0
   44.6230   35.1920   43.0900 N   0  0  0  0  0  0  0  0  0  0  0  0
   44.8060   34.6600   42.0570 C   0  0  0  0  0  0  0  0  0  0  0  0
   43.4591   32.7083   38.1649 H   0  0  0  0  0  0  0  0  0  0  0  0
   45.7750   32.3124   37.4081 H   0  0  0  0  0  0  0  0  0  0  0  0
   47.6440   33.0406   38.8785 H   0  0  0  0  0  0  0  0  0  0  0  0
   42.5807   35.9596   39.8097 H   0  0  0  0  0  0  0  0  0  0  0  0
   40.1233   32.3905   42.1148 H   0  0  0  0  0  0  0  0  0  0  0  0
   40.7033   37.3824   40.1487 H   0  0  0  0  0  0  0  0  0  0  0  0
   39.2250   36.8366   40.9851 H   0  0  0  0  0  0  0  0  0  0  0  0
   47.7142   35.9245   39.9460 H   0  0  0  0  0  0  0  0  0  0  0  0
   49.7053   36.8354   41.1124 H   0  0  0  0  0  0  0  0  0  0  0  0
   50.6248   35.5933   43.0666 H   0  0  0  0  0  0  0  0  0  0  0  0
   49.5488   33.4915   43.7955 H   0  0  0  0  0  0  0  0  0  0  0  0
   46.9250   33.4516   44.4711 H   0  0  0  0  0  0  0  0  0  0  0  0
   45.7274   31.6004   45.6018 H   0  0  0  0  0  0  0  0  0  0  0  0
   45.5142   29.3760   44.4399 H   0  0  0  0  0  0  0  0  0  0  0  0
   46.5046   29.1286   42.2156 H   0  0  0  0  0  0  0  0  0  0  0  0
   47.6999   30.9319   41.0669 H   0  0  0  0  0  0  0  0  0  0  0  0
  1 27  1  0
  2  9  1  0
  2  1  2  0
  3  2  1  0
  4  3  2  0
  4  5  1  0
  5  6  2  0
  6  1  1  0
  6 14  1  0
  7 12  2  0
  8  9  2  0
  8  7  1  0
  9 10  1  0
 10 11  2  0
 12 11  1  0
 13  7  1  0
 14 19  1  0
 15 14  2  0
 15 16  1  0
 16 17  2  0
 17 18  1  0
 19 20  1  0
 19 18  2  0
 20 21  2  0
 21 22  1  0
 23 22  2  0
 24 23  1  0
 25 20  1  0
 25 24  2  0
 27 26  3  0
  3 28  1  0
  4 29  1  0
  5 30  1  0
  8 31  1  0
 11 32  1  0
 13 33  1  0
 13 34  1  0
 15 35  1  0
 16 36  1  0
 17 37  1  0
 18 38  1  0
 21 39  1  0
 22 40  1  0
 23 41  1  0
 24 42  1  0
 25 43  1  0
M  ISO  8  28  14  29  14  30  14  31  14  32  14  35  14  36  14  37  14
M  ISO  6  38  14  39  14  40  14  41  14  42  14  43  14
M  END
>  <minimizedAffinity>  (1) 
-6.13827229

>  <minimizedRMSD>  (1) 
0.688681662

$$$$
