
     RDKit          3D

 14 14  0  0  0  0  0  0  0  0999 V2000
   45.5550   34.0010   44.0460 C   0  0  0  0  0  0  0  0  0  0  0  0
   46.5220   33.1330   43.5430 C   0  0  0  0  0  0  0  0  0  0  0  0
   47.2600   32.3390   44.4470 C   0  0  0  0  0  0  0  0  0  0  0  0
   46.9730   32.4780   45.7740 N   0  0  0  0  0  0  0  0  0  0  0  0
   46.0260   33.3320   46.2270 C   0  0  0  0  0  0  0  0  0  0  0  0
   45.3110   34.0990   45.3600 N   0  0  0  0  0  0  0  0  0  0  0  0
   44.7890   34.8280   43.0630 C   0  0  0  0  0  0  0  0  0  0  0  0
   45.0240   36.6070   43.3760 S   0  0  0  0  0  0  0  0  0  0  0  0
   46.7070   33.0677   42.4606 H   0  0  0  0  0  0  0  0  0  0  0  0
   48.0328   31.6387   44.0972 H   0  0  0  0  0  0  0  0  0  0  0  0
   45.8323   33.4068   47.3072 H   0  0  0  0  0  0  0  0  0  0  0  0
   43.7191   34.5869   43.1477 H   0  0  0  0  0  0  0  0  0  0  0  0
   45.1587   34.5999   42.0524 H   0  0  0  0  0  0  0  0  0  0  0  0
   45.0538   36.8330   44.7269 H   0  0  0  0  0  0  0  0  0  0  0  0
  1  6  2  0
  2  1  1  0
  2  3  2  0
  3  4  1  0
  4  5  2  0
  6  5  1  0
  7  8  1  0
  7  1  1  0
  2  9  1  0
  3 10  1  0
  5 11  1  0
  7 12  1  0
  7 13  1  0
  8 14  1  0
M  ISO  6   9  14  10  14  11  14  12   8  13   8  14  11
M  END
>  <minimizedAffinity>  (1) 
-2.22183514

>  <minimizedRMSD>  (1) 
1.07274187

$$$$
