
     RDKit          3D

 36 38  0  0  0  0  0  0  0  0999 V2000
   45.1380   33.9440   40.7020 C   0  0  0  0  0  0  0  0  0  0  0  0
   44.0880   33.6380   39.8780 C   0  0  0  0  0  0  0  0  0  0  0  0
   44.3830   33.1500   38.6330 C   0  0  0  0  0  0  0  0  0  0  0  0
   45.6570   32.9560   38.1770 C   0  0  0  0  0  0  0  0  0  0  0  0
   46.6970   33.2710   39.0290 C   0  0  0  0  0  0  0  0  0  0  0  0
   46.4500   33.7670   40.2920 C   0  0  0  0  0  0  0  0  0  0  0  0
   40.8070   35.2680   40.7890 C   0  0  0  0  0  0  0  0  0  0  0  0
   42.1080   35.0910   40.2720 C   0  0  0  0  0  0  0  0  0  0  0  0
   42.7570   33.8580   40.3950 C   0  0  0  0  0  0  0  0  0  0  0  0
   42.0350   32.8920   41.0340 N   0  0  0  0  0  0  0  0  0  0  0  0
   40.8110   33.0680   41.5180 C   0  0  0  0  0  0  0  0  0  0  0  0
   40.1970   34.2480   41.3980 N   0  0  0  0  0  0  0  0  0  0  0  0
   40.2010   36.5270   40.6400 N   0  0  0  0  0  0  0  0  0  0  0  0
   47.6050   34.0720   41.1180 C   0  0  0  0  0  0  0  0  0  0  0  0
   48.1370   35.3400   40.9510 C   0  0  0  0  0  0  0  0  0  0  0  0
   49.2420   35.8160   41.6520 C   0  0  0  0  0  0  0  0  0  0  0  0
   49.8270   34.9570   42.5620 C   0  0  0  0  0  0  0  0  0  0  0  0
   49.3180   33.6850   42.7500 C   0  0  0  0  0  0  0  0  0  0  0  0
   48.2170   33.2490   42.0330 C   0  0  0  0  0  0  0  0  0  0  0  0
   47.6280   31.9030   42.1920 C   0  0  0  0  0  0  0  0  0  0  0  0
   44.7300   34.8750   43.1130 N   0  0  0  0  0  0  0  0  0  0  0  0
   44.9060   34.4630   42.0280 C   0  0  0  0  0  0  0  0  0  0  0  0
   43.5478   32.9001   37.9621 H   0  0  0  0  0  0  0  0  0  0  0  0
   45.8469   32.5630   37.1673 H   0  0  0  0  0  0  0  0  0  0  0  0
   47.7352   33.1245   38.6963 H   0  0  0  0  0  0  0  0  0  0  0  0
   42.6149   35.9278   39.7692 H   0  0  0  0  0  0  0  0  0  0  0  0
   40.2986   32.2352   42.0218 H   0  0  0  0  0  0  0  0  0  0  0  0
   40.7055   37.2882   40.1637 H   0  0  0  0  0  0  0  0  0  0  0  0
   39.2523   36.6886   41.0071 H   0  0  0  0  0  0  0  0  0  0  0  0
   47.6585   36.0103   40.2218 H   0  0  0  0  0  0  0  0  0  0  0  0
   49.6319   36.8315   41.4883 H   0  0  0  0  0  0  0  0  0  0  0  0
   50.7027   35.2866   43.1404 H   0  0  0  0  0  0  0  0  0  0  0  0
   49.7937   33.0115   43.4781 H   0  0  0  0  0  0  0  0  0  0  0  0
   47.5266   31.6713   43.2625 H   0  0  0  0  0  0  0  0  0  0  0  0
   46.6367   31.8780   41.7159 H   0  0  0  0  0  0  0  0  0  0  0  0
   48.2823   31.1579   41.7159 H   0  0  0  0  0  0  0  0  0  0  0  0
  1 22  1  0
  2  9  1  0
  2  1  2  0
  3  2  1  0
  4  3  2  0
  4  5  1  0
  5  6  2  0
  6  1  1  0
  6 14  1  0
  7 12  2  0
  8  9  2  0
  8  7  1  0
  9 10  1  0
 10 11  2  0
 12 11  1  0
 13  7  1  0
 14 19  1  0
 15 14  2  0
 15 16  1  0
 16 17  2  0
 17 18  1  0
 19 20  1  0
 19 18  2  0
 22 21  3  0
  3 23  1  0
  4 24  1  0
  5 25  1  0
  8 26  1  0
 11 27  1  0
 13 28  1  0
 13 29  1  0
 15 30  1  0
 16 31  1  0
 17 32  1  0
 18 33  1  0
 20 34  1  0
 20 35  1  0
 20 36  1  0
M  ISO  8  23  14  24  14  25  14  26  14  27  14  30  14  31  14  32  14
M  ISO  4  33  14  34   8  35   8  36   8
M  END
>  <minimizedAffinity>  (1) 
-5.94981194

>  <minimizedRMSD>  (1) 
0.013639641

$$$$
