
     RDKit          3D

 35 37  0  0  0  0  0  0  0  0999 V2000
   45.1320   33.9310   40.7030 C   0  0  0  0  0  0  0  0  0  0  0  0
   44.0870   33.6320   39.8700 C   0  0  0  0  0  0  0  0  0  0  0  0
   44.3860   33.1640   38.6160 C   0  0  0  0  0  0  0  0  0  0  0  0
   45.6650   32.9820   38.1560 C   0  0  0  0  0  0  0  0  0  0  0  0
   46.6990   33.2880   39.0060 C   0  0  0  0  0  0  0  0  0  0  0  0
   46.4500   33.7630   40.2810 C   0  0  0  0  0  0  0  0  0  0  0  0
   40.8070   35.2590   40.7820 C   0  0  0  0  0  0  0  0  0  0  0  0
   42.1000   35.0770   40.2720 C   0  0  0  0  0  0  0  0  0  0  0  0
   42.7470   33.8370   40.3940 C   0  0  0  0  0  0  0  0  0  0  0  0
   42.0390   32.8790   41.0190 N   0  0  0  0  0  0  0  0  0  0  0  0
   40.8120   33.0590   41.5010 C   0  0  0  0  0  0  0  0  0  0  0  0
   40.1990   34.2340   41.3860 N   0  0  0  0  0  0  0  0  0  0  0  0
   40.1970   36.5200   40.6380 N   0  0  0  0  0  0  0  0  0  0  0  0
   47.6040   34.0590   41.1070 C   0  0  0  0  0  0  0  0  0  0  0  0
   48.1300   35.3320   40.9440 C   0  0  0  0  0  0  0  0  0  0  0  0
   49.2450   35.7910   41.6600 C   0  0  0  0  0  0  0  0  0  0  0  0
   49.8360   34.9350   42.5610 C   0  0  0  0  0  0  0  0  0  0  0  0
   49.3200   33.6780   42.7250 C   0  0  0  0  0  0  0  0  0  0  0  0
   48.2200   33.2360   42.0140 C   0  0  0  0  0  0  0  0  0  0  0  0
   47.6590   31.9430   42.1570 N   0  0  0  0  0  0  0  0  0  0  0  0
   44.7320   34.8470   43.1070 N   0  0  0  0  0  0  0  0  0  0  0  0
   44.9100   34.4260   42.0330 C   0  0  0  0  0  0  0  0  0  0  0  0
   43.5524   32.9208   37.9407 H   0  0  0  0  0  0  0  0  0  0  0  0
   45.8560   32.6038   37.1409 H   0  0  0  0  0  0  0  0  0  0  0  0
   47.7375   33.1538   38.6691 H   0  0  0  0  0  0  0  0  0  0  0  0
   42.6119   35.9125   39.7721 H   0  0  0  0  0  0  0  0  0  0  0  0
   40.2977   32.2252   42.0012 H   0  0  0  0  0  0  0  0  0  0  0  0
   40.7002   37.2846   40.1656 H   0  0  0  0  0  0  0  0  0  0  0  0
   39.2477   36.6778   41.0051 H   0  0  0  0  0  0  0  0  0  0  0  0
   47.6521   36.0106   40.2222 H   0  0  0  0  0  0  0  0  0  0  0  0
   49.6365   36.8073   41.5057 H   0  0  0  0  0  0  0  0  0  0  0  0
   50.7125   35.2571   43.1423 H   0  0  0  0  0  0  0  0  0  0  0  0
   49.7961   32.9973   43.4461 H   0  0  0  0  0  0  0  0  0  0  0  0
   48.0721   31.2730   42.8213 H   0  0  0  0  0  0  0  0  0  0  0  0
   46.8380   31.6730   41.5967 H   0  0  0  0  0  0  0  0  0  0  0  0
  1 22  1  0
  2  9  1  0
  2  1  2  0
  3  2  1  0
  4  3  2  0
  4  5  1  0
  5  6  2  0
  6  1  1  0
  6 14  1  0
  7 12  2  0
  8  9  2  0
  8  7  1  0
  9 10  1  0
 10 11  2  0
 12 11  1  0
 13  7  1  0
 14 19  1  0
 15 14  2  0
 15 16  1  0
 16 17  2  0
 17 18  1  0
 19 20  1  0
 19 18  2  0
 22 21  3  0
  3 23  1  0
  4 24  1  0
  5 25  1  0
  8 26  1  0
 11 27  1  0
 13 28  1  0
 13 29  1  0
 15 30  1  0
 16 31  1  0
 17 32  1  0
 18 33  1  0
 20 34  1  0
 20 35  1  0
M  ISO  8  23  14  24  14  25  14  26  14  27  14  30  14  31  14  32  14
M  ISO  1  33  14
M  END
>  <minimizedAffinity>  (1) 
-5.89961767

>  <minimizedRMSD>  (1) 
0.0166671332

$$$$
