
     RDKit          3D

 34 36  0  0  0  0  0  0  0  0999 V2000
   45.1330   33.9450   40.7050 C   0  0  0  0  0  0  0  0  0  0  0  0
   44.0880   33.6340   39.8700 C   0  0  0  0  0  0  0  0  0  0  0  0
   44.3840   33.1600   38.6260 C   0  0  0  0  0  0  0  0  0  0  0  0
   45.6590   32.9730   38.1570 C   0  0  0  0  0  0  0  0  0  0  0  0
   46.6960   33.2900   39.0060 C   0  0  0  0  0  0  0  0  0  0  0  0
   46.4490   33.7750   40.2770 C   0  0  0  0  0  0  0  0  0  0  0  0
   40.7960   35.2510   40.7910 C   0  0  0  0  0  0  0  0  0  0  0  0
   42.0880   35.0910   40.2740 C   0  0  0  0  0  0  0  0  0  0  0  0
   42.7470   33.8410   40.3940 C   0  0  0  0  0  0  0  0  0  0  0  0
   42.0440   32.8770   41.0190 N   0  0  0  0  0  0  0  0  0  0  0  0
   40.8070   33.0620   41.5030 C   0  0  0  0  0  0  0  0  0  0  0  0
   40.1950   34.2400   41.3880 N   0  0  0  0  0  0  0  0  0  0  0  0
   40.1970   36.5220   40.6380 N   0  0  0  0  0  0  0  0  0  0  0  0
   47.6080   34.0820   41.1030 C   0  0  0  0  0  0  0  0  0  0  0  0
   48.1430   35.3380   40.9480 C   0  0  0  0  0  0  0  0  0  0  0  0
   49.2430   35.8010   41.6500 C   0  0  0  0  0  0  0  0  0  0  0  0
   49.8330   34.9340   42.5610 C   0  0  0  0  0  0  0  0  0  0  0  0
   49.3170   33.6800   42.7300 C   0  0  0  0  0  0  0  0  0  0  0  0
   48.2120   33.2460   42.0100 C   0  0  0  0  0  0  0  0  0  0  0  0
   47.6320   31.9700   42.1360 O   0  0  0  0  0  0  0  0  0  0  0  0
   44.7280   34.8470   43.1040 N   0  0  0  0  0  0  0  0  0  0  0  0
   44.9080   34.4480   42.0240 C   0  0  0  0  0  0  0  0  0  0  0  0
   43.5472   32.9120   37.9565 H   0  0  0  0  0  0  0  0  0  0  0  0
   45.8457   32.5858   37.1445 H   0  0  0  0  0  0  0  0  0  0  0  0
   47.7343   33.1556   38.6685 H   0  0  0  0  0  0  0  0  0  0  0  0
   42.5905   35.9333   39.7759 H   0  0  0  0  0  0  0  0  0  0  0  0
   40.2901   32.2291   42.0022 H   0  0  0  0  0  0  0  0  0  0  0  0
   40.7094   37.2791   40.1634 H   0  0  0  0  0  0  0  0  0  0  0  0
   39.2481   36.6912   41.0011 H   0  0  0  0  0  0  0  0  0  0  0  0
   47.6692   36.0161   40.2230 H   0  0  0  0  0  0  0  0  0  0  0  0
   49.6348   36.8167   41.4923 H   0  0  0  0  0  0  0  0  0  0  0  0
   50.7099   35.2548   43.1426 H   0  0  0  0  0  0  0  0  0  0  0  0
   49.7881   32.9984   43.4535 H   0  0  0  0  0  0  0  0  0  0  0  0
   48.0138   31.3132   42.7708 H   0  0  0  0  0  0  0  0  0  0  0  0
  1 22  1  0
  2  9  1  0
  2  1  2  0
  3  2  1  0
  4  3  2  0
  4  5  1  0
  5  6  2  0
  6  1  1  0
  6 14  1  0
  7 12  2  0
  8  9  2  0
  8  7  1  0
  9 10  1  0
 10 11  2  0
 12 11  1  0
 13  7  1  0
 14 19  1  0
 15 14  2  0
 15 16  1  0
 16 17  2  0
 17 18  1  0
 19 20  1  0
 19 18  2  0
 22 21  3  0
  3 23  1  0
  4 24  1  0
  5 25  1  0
  8 26  1  0
 11 27  1  0
 13 28  1  0
 13 29  1  0
 15 30  1  0
 16 31  1  0
 17 32  1  0
 18 33  1  0
 20 34  1  0
M  ISO  8  23  14  24  14  25  14  26  14  27  14  30  14  31  14  32  14
M  ISO  2  33  14  34   3
M  END
>  <minimizedAffinity>  (1) 
-5.91412973

>  <minimizedRMSD>  (1) 
0.0121637834

$$$$
