
     RDKit          3D

 28 30  0  0  0  0  0  0  0  0999 V2000
   46.0950   34.1600   40.9080 C   0  0  0  0  0  0  0  0  0  0  0  0
   46.6160   34.7430   42.0550 C   0  0  0  0  0  0  0  0  0  0  0  0
   47.9230   35.2090   42.0210 C   0  0  0  0  0  0  0  0  0  0  0  0
   48.6660   35.0890   40.8720 C   0  0  0  0  0  0  0  0  0  0  0  0
   48.1710   34.5160   39.7250 C   0  0  0  0  0  0  0  0  0  0  0  0
   46.8500   34.0520   39.7810 C   0  0  0  0  0  0  0  0  0  0  0  0
   42.3210   33.9060   40.6990 C   0  0  0  0  0  0  0  0  0  0  0  0
   43.6130   34.4410   40.5700 C   0  0  0  0  0  0  0  0  0  0  0  0
   44.7170   33.6900   40.9990 C   0  0  0  0  0  0  0  0  0  0  0  0
   44.4680   32.4670   41.5220 N   0  0  0  0  0  0  0  0  0  0  0  0
   43.2170   31.9660   41.6390 C   0  0  0  0  0  0  0  0  0  0  0  0
   42.1440   32.6750   41.2320 N   0  0  0  0  0  0  0  0  0  0  0  0
   45.9190   34.9220   43.3290 C   0  0  0  0  0  0  0  0  0  0  0  0
   45.1230   36.0260   43.5750 C   0  0  0  0  0  0  0  0  0  0  0  0
   44.4590   36.1940   44.7890 C   0  0  0  0  0  0  0  0  0  0  0  0
   44.6170   35.2300   45.7380 N   0  0  0  0  0  0  0  0  0  0  0  0
   45.4030   34.1440   45.4900 C   0  0  0  0  0  0  0  0  0  0  0  0
   46.0330   34.0030   44.3130 N   0  0  0  0  0  0  0  0  0  0  0  0
   48.3640   35.6747   42.9147 H   0  0  0  0  0  0  0  0  0  0  0  0
   49.6991   35.4668   40.8697 H   0  0  0  0  0  0  0  0  0  0  0  0
   48.7788   34.4265   38.8126 H   0  0  0  0  0  0  0  0  0  0  0  0
   46.4099   33.5863   38.8869 H   0  0  0  0  0  0  0  0  0  0  0  0
   41.4501   34.4895   40.3657 H   0  0  0  0  0  0  0  0  0  0  0  0
   43.7580   35.4413   40.1359 H   0  0  0  0  0  0  0  0  0  0  0  0
   43.0725   30.9654   42.0725 H   0  0  0  0  0  0  0  0  0  0  0  0
   45.0111   36.7910   42.7926 H   0  0  0  0  0  0  0  0  0  0  0  0
   43.8283   37.0759   44.9744 H   0  0  0  0  0  0  0  0  0  0  0  0
   45.5226   33.3727   46.2651 H   0  0  0  0  0  0  0  0  0  0  0  0
  1  9  1  0
  1  2  1  0
  2 13  1  0
  3  2  2  0
  4  3  1  0
  5  6  1  0
  5  4  2  0
  6  1  2  0
  7 12  2  0
  8  7  1  0
  8  9  2  0
  9 10  1  0
 10 11  2  0
 12 11  1  0
 13 14  2  0
 13 18  1  0
 14 15  1  0
 15 16  2  0
 17 16  1  0
 18 17  2  0
  3 19  1  0
  4 20  1  0
  5 21  1  0
  6 22  1  0
  7 23  1  0
  8 24  1  0
 11 25  1  0
 14 26  1  0
 15 27  1  0
 17 28  1  0
M  ISO  8  19  14  20  14  21  14  22  14  23  14  24  14  25  14  26  14
M  ISO  2  27  14  28  14
M  END
>  <minimizedAffinity>  (1) 
-5.66433096

>  <minimizedRMSD>  (1) 
3.70998478

$$$$
