
     RDKit          3D

 24 25  0  0  0  0  0  0  0  0999 V2000
   46.4940   34.3800   41.4640 C   0  0  0  0  0  0  0  0  0  0  0  0
   47.7460   34.8710   41.2130 C   0  0  0  0  0  0  0  0  0  0  0  0
   48.3500   34.6380   39.9930 C   0  0  0  0  0  0  0  0  0  0  0  0
   47.6710   33.9100   39.0450 C   0  0  0  0  0  0  0  0  0  0  0  0
   46.4130   33.3960   39.2470 C   0  0  0  0  0  0  0  0  0  0  0  0
   45.8410   33.6580   40.5000 C   0  0  0  0  0  0  0  0  0  0  0  0
   44.5480   35.9140   44.3210 C   0  0  0  0  0  0  0  0  0  0  0  0
   45.0480   35.7340   43.0010 C   0  0  0  0  0  0  0  0  0  0  0  0
   45.9200   34.6630   42.7670 C   0  0  0  0  0  0  0  0  0  0  0  0
   46.2230   33.8770   43.8150 N   0  0  0  0  0  0  0  0  0  0  0  0
   45.7480   34.0490   45.0650 C   0  0  0  0  0  0  0  0  0  0  0  0
   44.8990   35.0820   45.3170 N   0  0  0  0  0  0  0  0  0  0  0  0
   49.6730   34.9390   42.6100 C   0  0  0  0  0  0  0  0  0  0  0  0
   50.2670   33.8190   42.5310 O   0  0  0  0  0  0  0  0  0  0  0  0
   48.5400   35.6360   42.1170 N   0  0  0  0  0  0  0  0  0  0  0  0
   49.3569   35.0282   39.7835 H   0  0  0  0  0  0  0  0  0  0  0  0
   48.1594   33.7299   38.0760 H   0  0  0  0  0  0  0  0  0  0  0  0
   45.8876   32.8155   38.4744 H   0  0  0  0  0  0  0  0  0  0  0  0
   44.8343   33.2709   40.7163 H   0  0  0  0  0  0  0  0  0  0  0  0
   43.8624   36.7484   44.5301 H   0  0  0  0  0  0  0  0  0  0  0  0
   44.7582   36.4160   42.1880 H   0  0  0  0  0  0  0  0  0  0  0  0
   46.0434   33.3621   45.8718 H   0  0  0  0  0  0  0  0  0  0  0  0
   50.2284   35.5940   43.2974 H   0  0  0  0  0  0  0  0  0  0  0  0
   48.3124   36.6036   42.3867 H   0  0  0  0  0  0  0  0  0  0  0  0
  1  9  1  0
  2  1  2  0
  2 15  1  0
  3  2  1  0
  4  5  1  0
  4  3  2  0
  5  6  2  0
  6  1  1  0
  7 12  2  0
  8  7  1  0
  9  8  2  0
  9 10  1  0
 10 11  2  0
 11 12  1  0
 14 13  2  0
 15 13  1  0
  3 16  1  0
  4 17  1  0
  5 18  1  0
  6 19  1  0
  7 20  1  0
  8 21  1  0
 11 22  1  0
 13 23  1  0
 15 24  1  0
M  ISO  8  16  14  17  14  18  14  19  14  20  14  21  14  22  14  23   6
M  END
>  <minimizedAffinity>  (1) 
-4.89646435

>  <minimizedRMSD>  (1) 
0.799105167

$$$$
