
     RDKit          3D

 24 25  0  0  0  0  0  0  0  0999 V2000
   46.2740   34.2800   41.3370 C   0  0  0  0  0  0  0  0  0  0  0  0
   47.5750   34.6570   41.0640 C   0  0  0  0  0  0  0  0  0  0  0  0
   48.1210   34.3480   39.8300 C   0  0  0  0  0  0  0  0  0  0  0  0
   47.3700   33.6800   38.9150 C   0  0  0  0  0  0  0  0  0  0  0  0
   46.0720   33.2890   39.1510 C   0  0  0  0  0  0  0  0  0  0  0  0
   45.5620   33.6190   40.4030 C   0  0  0  0  0  0  0  0  0  0  0  0
   44.6650   36.0870   44.2490 C   0  0  0  0  0  0  0  0  0  0  0  0
   45.1220   35.8370   42.9400 C   0  0  0  0  0  0  0  0  0  0  0  0
   45.7620   34.6400   42.6590 C   0  0  0  0  0  0  0  0  0  0  0  0
   45.9090   33.7690   43.6720 N   0  0  0  0  0  0  0  0  0  0  0  0
   45.4670   34.0120   44.9310 C   0  0  0  0  0  0  0  0  0  0  0  0
   44.8440   35.1750   45.2120 N   0  0  0  0  0  0  0  0  0  0  0  0
   48.3930   35.3960   42.0880 C   0  0  0  0  0  0  0  0  0  0  0  0
   49.2670   36.3010   41.5340 O   0  0  0  0  0  0  0  0  0  0  0  0
   49.1543   34.6407   39.5919 H   0  0  0  0  0  0  0  0  0  0  0  0
   47.8208   33.4408   37.9405 H   0  0  0  0  0  0  0  0  0  0  0  0
   45.4764   32.7507   38.3991 H   0  0  0  0  0  0  0  0  0  0  0  0
   44.5288   33.3265   40.6416 H   0  0  0  0  0  0  0  0  0  0  0  0
   44.1589   37.0358   44.4805 H   0  0  0  0  0  0  0  0  0  0  0  0
   44.9722   36.5853   42.1478 H   0  0  0  0  0  0  0  0  0  0  0  0
   45.6163   33.2620   45.7217 H   0  0  0  0  0  0  0  0  0  0  0  0
   47.7084   35.9366   42.7581 H   0  0  0  0  0  0  0  0  0  0  0  0
   48.9946   34.6487   42.6262 H   0  0  0  0  0  0  0  0  0  0  0  0
   49.7381   36.7888   42.2552 H   0  0  0  0  0  0  0  0  0  0  0  0
  1  9  1  0
  2  1  2  0
  2 13  1  0
  3  2  1  0
  4  5  1  0
  4  3  2  0
  5  6  2  0
  6  1  1  0
  7 12  2  0
  8  7  1  0
  9  8  2  0
  9 10  1  0
 10 11  2  0
 11 12  1  0
 14 13  1  0
  3 15  1  0
  4 16  1  0
  5 17  1  0
  6 18  1  0
  7 19  1  0
  8 20  1  0
 11 21  1  0
 13 22  1  0
 13 23  1  0
 14 24  1  0
M  ISO  8  15  14  16  14  17  14  18  14  19  14  20  14  21  14  22   8
M  ISO  2  23   8  24   3
M  END
>  <minimizedAffinity>  (1) 
-4.72446346

>  <minimizedRMSD>  (1) 
0.566475272

$$$$
