
     RDKit          3D

 37 38  0  0  0  0  0  0  0  0999 V2000
   43.6560   34.9580   41.8810 C   0  0  0  0  0  0  0  0  0  0  0  0
   43.9090   33.6270   42.1870 C   0  0  0  0  0  0  0  0  0  0  0  0
   44.9730   33.3370   43.0080 C   0  0  0  0  0  0  0  0  0  0  0  0
   45.7550   34.3420   43.5060 C   0  0  0  0  0  0  0  0  0  0  0  0
   45.5270   35.6630   43.2210 C   0  0  0  0  0  0  0  0  0  0  0  0
   44.4490   35.9130   42.3910 C   0  0  0  0  0  0  0  0  0  0  0  0
   40.2280   35.8020   40.5200 C   0  0  0  0  0  0  0  0  0  0  0  0
   41.2580   35.5840   41.4570 C   0  0  0  0  0  0  0  0  0  0  0  0
   42.5150   35.2110   41.0050 C   0  0  0  0  0  0  0  0  0  0  0  0
   42.6830   35.0740   39.6620 N   0  0  0  0  0  0  0  0  0  0  0  0
   41.6850   35.2870   38.7710 C   0  0  0  0  0  0  0  0  0  0  0  0
   40.4650   35.6500   39.2140 N   0  0  0  0  0  0  0  0  0  0  0  0
   43.0450   32.5470   41.6350 C   0  0  0  0  0  0  0  0  0  0  0  0
   42.7100   31.5140   42.5710 N   0  0  0  0  0  0  0  0  0  0  0  0
   41.0360   31.1420   42.5590 S   0  0  0  0  0  0  0  0  0  0  0  0
   40.2000   32.3920   42.4530 O   0  0  0  0  0  0  0  0  0  0  0  0
   40.6450   30.3630   43.7670 O   0  0  0  0  0  0  0  0  0  0  0  0
   40.7480   30.1950   41.1980 O   0  0  0  0  0  0  0  0  0  0  0  0
   40.0830   29.0500   41.6030 C   0  0  0  0  0  0  0  0  0  0  0  0
   40.9250   27.8250   41.2220 C   0  0  0  0  0  0  0  0  0  0  0  0
   45.1963   32.2911   43.2655 H   0  0  0  0  0  0  0  0  0  0  0  0
   46.5995   34.0802   44.1605 H   0  0  0  0  0  0  0  0  0  0  0  0
   46.1577   36.4689   43.6244 H   0  0  0  0  0  0  0  0  0  0  0  0
   44.2281   36.9593   42.1331 H   0  0  0  0  0  0  0  0  0  0  0  0
   39.2263   36.0981   40.8649 H   0  0  0  0  0  0  0  0  0  0  0  0
   41.0673   35.7081   42.5332 H   0  0  0  0  0  0  0  0  0  0  0  0
   41.8691   35.1645   37.6935 H   0  0  0  0  0  0  0  0  0  0  0  0
   42.1099   33.0039   41.2790 H   0  0  0  0  0  0  0  0  0  0  0  0
   43.6226   32.0652   40.8323 H   0  0  0  0  0  0  0  0  0  0  0  0
   43.2398   30.6642   42.3300 H   0  0  0  0  0  0  0  0  0  0  0  0
   39.9805   32.7202   43.3609 H   0  0  0  0  0  0  0  0  0  0  0  0
   40.8979   30.8669   44.5808 H   0  0  0  0  0  0  0  0  0  0  0  0
   39.9376   29.0735   42.6931 H   0  0  0  0  0  0  0  0  0  0  0  0
   39.1012   28.9952   41.1101 H   0  0  0  0  0  0  0  0  0  0  0  0
   41.2720   27.3201   42.1356 H   0  0  0  0  0  0  0  0  0  0  0  0
   40.3131   27.1296   40.6287 H   0  0  0  0  0  0  0  0  0  0  0  0
   41.7934   28.1471   40.6287 H   0  0  0  0  0  0  0  0  0  0  0  0
  1  2  2  0
  1  6  1  0
  2  3  1  0
  3  4  2  0
  5  4  1  0
  6  5  2  0
  7  8  2  0
  9  8  1  0
  9  1  1  0
 10  9  2  0
 11 12  2  0
 11 10  1  0
 12  7  1  0
 13  2  1  0
 13 14  1  0
 15 14  1  0
 15 17  1  0
 16 15  1  0
 18 19  1  0
 18 15  1  0
 20 19  1  0
  3 21  1  0
  4 22  1  0
  5 23  1  0
  6 24  1  0
  7 25  1  0
  8 26  1  0
 11 27  1  0
 13 28  1  0
 13 29  1  0
 14 30  1  0
 16 31  1  0
 17 32  1  0
 19 33  1  0
 19 34  1  0
 20 35  1  0
 20 36  1  0
 20 37  1  0
M  ISO  8  21  14  22  14  23  14  24  14  25  14  26  14  27  14  28   8
M  ISO  8  29   8  30   5  31   3  32   3  33   8  34   8  35   8  36   8
M  ISO  1  37   8
M  END
>  <minimizedAffinity>  (1) 
-4.81249619

>  <minimizedRMSD>  (1) 
5.95807219

$$$$
