
     RDKit          3D

 39 40  0  0  0  0  0  0  0  0999 V2000
   43.0270   32.5380   41.6280 C   0  0  0  0  0  0  0  0  0  0  0  0
   43.6520   34.9430   41.8820 C   0  0  0  0  0  0  0  0  0  0  0  0
   43.9020   33.6200   42.1850 C   0  0  0  0  0  0  0  0  0  0  0  0
   44.9670   33.3230   43.0040 C   0  0  0  0  0  0  0  0  0  0  0  0
   45.7520   34.3210   43.5020 C   0  0  0  0  0  0  0  0  0  0  0  0
   45.5260   35.6490   43.2160 C   0  0  0  0  0  0  0  0  0  0  0  0
   44.4450   35.9010   42.3900 C   0  0  0  0  0  0  0  0  0  0  0  0
   40.2340   35.8100   40.5220 C   0  0  0  0  0  0  0  0  0  0  0  0
   41.2570   35.5830   41.4490 C   0  0  0  0  0  0  0  0  0  0  0  0
   42.5170   35.2040   41.0130 C   0  0  0  0  0  0  0  0  0  0  0  0
   42.6880   35.0700   39.6640 N   0  0  0  0  0  0  0  0  0  0  0  0
   41.6890   35.2900   38.7750 C   0  0  0  0  0  0  0  0  0  0  0  0
   40.4610   35.6620   39.2140 N   0  0  0  0  0  0  0  0  0  0  0  0
   42.6990   31.5080   42.5620 N   0  0  0  0  0  0  0  0  0  0  0  0
   41.0220   31.1490   42.5620 S   0  0  0  0  0  0  0  0  0  0  0  0
   40.1950   32.4040   42.4630 O   0  0  0  0  0  0  0  0  0  0  0  0
   40.6360   30.3640   43.7720 O   0  0  0  0  0  0  0  0  0  0  0  0
   40.7140   30.2050   41.1930 O   0  0  0  0  0  0  0  0  0  0  0  0
   40.0890   29.0480   41.6180 C   0  0  0  0  0  0  0  0  0  0  0  0
   40.9450   27.8350   41.2140 C   0  0  0  0  0  0  0  0  0  0  0  0
   42.0870   28.2330   40.4460 N   0  0  0  0  0  0  0  0  0  0  0  0
   42.0905   32.9977   41.2792 H   0  0  0  0  0  0  0  0  0  0  0  0
   43.5959   32.0588   40.8176 H   0  0  0  0  0  0  0  0  0  0  0  0
   45.1864   32.2755   43.2584 H   0  0  0  0  0  0  0  0  0  0  0  0
   46.5960   34.0556   44.1556 H   0  0  0  0  0  0  0  0  0  0  0  0
   46.1607   36.4533   43.6163 H   0  0  0  0  0  0  0  0  0  0  0  0
   44.2218   36.9473   42.1342 H   0  0  0  0  0  0  0  0  0  0  0  0
   39.2362   36.1123   40.8726 H   0  0  0  0  0  0  0  0  0  0  0  0
   41.0613   35.7054   42.5245 H   0  0  0  0  0  0  0  0  0  0  0  0
   41.8742   35.1669   37.6977 H   0  0  0  0  0  0  0  0  0  0  0  0
   43.2213   30.6557   42.3138 H   0  0  0  0  0  0  0  0  0  0  0  0
   39.9801   32.7302   43.3727 H   0  0  0  0  0  0  0  0  0  0  0  0
   40.8845   30.8693   44.5863 H   0  0  0  0  0  0  0  0  0  0  0  0
   39.9761   29.0710   42.7119 H   0  0  0  0  0  0  0  0  0  0  0  0
   39.0953   28.9715   41.1525 H   0  0  0  0  0  0  0  0  0  0  0  0
   41.2874   27.3199   42.1236 H   0  0  0  0  0  0  0  0  0  0  0  0
   40.3279   27.1667   40.5954 H   0  0  0  0  0  0  0  0  0  0  0  0
   42.8523   28.4997   41.0817 H   0  0  0  0  0  0  0  0  0  0  0  0
   42.3917   27.4486   39.8521 H   0  0  0  0  0  0  0  0  0  0  0  0
  1  3  1  0
  1 14  1  0
  2  3  2  0
  2  7  1  0
  3  4  1  0
  4  5  2  0
  6  5  1  0
  7  6  2  0
  8  9  2  0
 10  9  1  0
 10  2  1  0
 11 10  2  0
 12 13  2  0
 12 11  1  0
 13  8  1  0
 15 14  1  0
 15 17  1  0
 16 15  1  0
 18 19  1  0
 18 15  1  0
 20 19  1  0
 21 20  1  0
  1 22  1  0
  1 23  1  0
  4 24  1  0
  5 25  1  0
  6 26  1  0
  7 27  1  0
  8 28  1  0
  9 29  1  0
 12 30  1  0
 14 31  1  0
 16 32  1  0
 17 33  1  0
 19 34  1  0
 19 35  1  0
 20 36  1  0
 20 37  1  0
 21 38  1  0
 21 39  1  0
M  ISO  8  22   8  23   8  24  14  25  14  26  14  27  14  28  14  29  14
M  ISO  8  30  14  31   5  32   3  33   3  34   8  35   8  36   8  37   8
M  ISO  2  38   5  39   5
M  END
>  <minimizedAffinity>  (1) 
-4.63769054

>  <minimizedRMSD>  (1) 
0.275410265

$$$$
