
     RDKit          3D

 20 21  0  0  0  0  0  0  0  0999 V2000
   46.0800   34.1470   41.0050 C   0  0  0  0  0  0  0  0  0  0  0  0
   46.6210   34.8320   42.1030 C   0  0  0  0  0  0  0  0  0  0  0  0
   47.9380   35.2820   41.9870 C   0  0  0  0  0  0  0  0  0  0  0  0
   48.6100   35.0330   40.8290 N   0  0  0  0  0  0  0  0  0  0  0  0
   48.0550   34.3750   39.8050 C   0  0  0  0  0  0  0  0  0  0  0  0
   46.7750   33.9210   39.8800 N   0  0  0  0  0  0  0  0  0  0  0  0
   45.8120   35.0420   43.2940 C   0  0  0  0  0  0  0  0  0  0  0  0
   45.0500   36.1810   43.4950 C   0  0  0  0  0  0  0  0  0  0  0  0
   44.4620   35.9620   44.7240 C   0  0  0  0  0  0  0  0  0  0  0  0
   44.8400   34.7720   45.2380 N   0  0  0  0  0  0  0  0  0  0  0  0
   45.6520   34.2440   44.3530 N   0  0  0  0  0  0  0  0  0  0  0  0
   44.7760   33.6960   41.1130 O   0  0  0  0  0  0  0  0  0  0  0  0
   43.7130   34.2210   40.4040 C   0  0  0  0  0  0  0  0  0  0  0  0
   43.2260   35.3810   40.4330 O   0  0  0  0  0  0  0  0  0  0  0  0
   48.4215   35.8252   42.8123 H   0  0  0  0  0  0  0  0  0  0  0  0
   48.6411   34.1989   38.8909 H   0  0  0  0  0  0  0  0  0  0  0  0
   44.9398   37.0524   42.8328 H   0  0  0  0  0  0  0  0  0  0  0  0
   43.7757   36.6644   45.2197 H   0  0  0  0  0  0  0  0  0  0  0  0
   44.5508   34.3635   46.1382 H   0  0  0  0  0  0  0  0  0  0  0  0
   43.2197   33.5223   39.7123 H   0  0  0  0  0  0  0  0  0  0  0  0
  1 12  1  0
  1  2  2  0
  2  7  1  0
  3  2  1  0
  4  3  2  0
  5  6  2  0
  5  4  1  0
  6  1  1  0
  7  8  1  0
  7 11  2  0
  8  9  2  0
  9 10  1  0
 11 10  1  0
 13 14  2  0
 13 12  1  0
  3 15  1  0
  5 16  1  0
  8 17  1  0
  9 18  1  0
 10 19  1  0
 13 20  1  0
M  ISO  6  15  14  16  14  17  14  18  14  19   9  20   6
M  END
>  <minimizedAffinity>  (1) 
-4.3197546

>  <minimizedRMSD>  (1) 
5.75274563

$$$$
