
     RDKit          3D

 32 34  0  0  0  0  0  0  0  0999 V2000
   45.9070   34.1670   41.0000 C   0  0  0  0  0  0  0  0  0  0  0  0
   46.5120   34.8010   42.1060 C   0  0  0  0  0  0  0  0  0  0  0  0
   47.8560   35.1610   41.9760 C   0  0  0  0  0  0  0  0  0  0  0  0
   48.4930   34.8770   40.7950 N   0  0  0  0  0  0  0  0  0  0  0  0
   47.8770   34.2760   39.7790 C   0  0  0  0  0  0  0  0  0  0  0  0
   46.5810   33.9200   39.8800 N   0  0  0  0  0  0  0  0  0  0  0  0
   45.7420   35.0540   43.3120 C   0  0  0  0  0  0  0  0  0  0  0  0
   45.0650   36.2270   43.5480 C   0  0  0  0  0  0  0  0  0  0  0  0
   44.4920   36.0200   44.7870 C   0  0  0  0  0  0  0  0  0  0  0  0
   44.8030   34.7930   45.2730 N   0  0  0  0  0  0  0  0  0  0  0  0
   45.5590   34.2320   44.3600 N   0  0  0  0  0  0  0  0  0  0  0  0
   44.5840   33.8100   41.1180 O   0  0  0  0  0  0  0  0  0  0  0  0
   43.5210   34.4550   40.5420 C   0  0  0  0  0  0  0  0  0  0  0  0
   43.1160   35.6450   40.7410 O   0  0  0  0  0  0  0  0  0  0  0  0
   42.5270   34.0990   39.5790 N   0  0  0  0  0  0  0  0  0  0  0  0
   42.2380   35.0600   38.5320 C   0  0  0  0  0  0  0  0  0  0  0  0
   40.7780   34.7060   38.2390 C   0  0  0  0  0  0  0  0  0  0  0  0
   40.9430   33.1820   38.1660 C   0  0  0  0  0  0  0  0  0  0  0  0
   41.7220   32.9260   39.4380 C   0  0  0  0  0  0  0  0  0  0  0  0
   48.3891   35.6591   42.7992 H   0  0  0  0  0  0  0  0  0  0  0  0
   48.4297   34.0686   38.8508 H   0  0  0  0  0  0  0  0  0  0  0  0
   44.9963   37.1165   42.9045 H   0  0  0  0  0  0  0  0  0  0  0  0
   43.8644   36.7553   45.3119 H   0  0  0  0  0  0  0  0  0  0  0  0
   44.5072   34.3863   46.1719 H   0  0  0  0  0  0  0  0  0  0  0  0
   42.3431   36.0954   38.8883 H   0  0  0  0  0  0  0  0  0  0  0  0
   42.9092   35.0118   37.6618 H   0  0  0  0  0  0  0  0  0  0  0  0
   40.1028   35.0143   39.0508 H   0  0  0  0  0  0  0  0  0  0  0  0
   40.3304   35.1875   37.3571 H   0  0  0  0  0  0  0  0  0  0  0  0
   39.9707   32.6676   38.1751 H   0  0  0  0  0  0  0  0  0  0  0  0
   41.4304   32.8177   37.2496 H   0  0  0  0  0  0  0  0  0  0  0  0
   41.0447   32.8085   40.2968 H   0  0  0  0  0  0  0  0  0  0  0  0
   42.3163   32.0012   39.3973 H   0  0  0  0  0  0  0  0  0  0  0  0
  1 12  1  0
  1  2  1  0
  2  7  1  0
  3  2  2  0
  4  3  1  0
  5  6  1  0
  5  4  2  0
  6  1  2  0
  7  8  1  0
  7 11  2  0
  8  9  2  0
  9 10  1  0
 11 10  1  0
 13 14  2  0
 13 12  1  0
 15 13  1  0
 16 15  1  0
 17 16  1  0
 18 17  1  0
 18 19  1  0
 19 15  1  0
  3 20  1  0
  5 21  1  0
  8 22  1  0
  9 23  1  0
 10 24  1  0
 16 25  1  0
 16 26  1  0
 17 27  1  0
 17 28  1  0
 18 29  1  0
 18 30  1  0
 19 31  1  0
 19 32  1  0
M  ISO  8  20  14  21  14  22  14  23  14  24   9  25  13  26  13  27  13
M  ISO  5  28  13  29  13  30  13  31  13  32  13
M  END
>  <minimizedAffinity>  (1) 
-5.61427259

>  <minimizedRMSD>  (1) 
0.378416657

$$$$
