
     RDKit          3D

 30 32  0  0  0  0  0  0  0  0999 V2000
   43.9800   33.7630   40.7410 C   0  0  0  0  0  0  0  0  0  0  0  0
   45.0950   34.1810   41.4580 C   0  0  0  0  0  0  0  0  0  0  0  0
   46.3380   34.0260   40.8230 C   0  0  0  0  0  0  0  0  0  0  0  0
   46.3680   33.4850   39.5690 N   0  0  0  0  0  0  0  0  0  0  0  0
   45.2680   33.1020   38.9320 C   0  0  0  0  0  0  0  0  0  0  0  0
   44.0600   33.2320   39.5010 N   0  0  0  0  0  0  0  0  0  0  0  0
   44.9400   34.7420   42.7830 C   0  0  0  0  0  0  0  0  0  0  0  0
   44.8460   36.0960   43.0210 C   0  0  0  0  0  0  0  0  0  0  0  0
   44.7130   36.1800   44.3870 C   0  0  0  0  0  0  0  0  0  0  0  0
   44.7260   34.9470   44.9550 N   0  0  0  0  0  0  0  0  0  0  0  0
   44.8640   34.1010   43.9600 N   0  0  0  0  0  0  0  0  0  0  0  0
   42.7330   33.9000   41.3320 O   0  0  0  0  0  0  0  0  0  0  0  0
   41.7640   34.8070   41.0040 C   0  0  0  0  0  0  0  0  0  0  0  0
   41.6480   36.0170   41.4180 O   0  0  0  0  0  0  0  0  0  0  0  0
   42.1250   35.6290   38.1040 Cl  0  0  0  0  0  0  0  0  0  0  0  0
   40.6740   34.8090   38.7070 C   0  0  0  0  0  0  0  0  0  0  0  0
   40.6470   34.4890   40.0680 C   0  0  0  0  0  0  0  0  0  0  0  0
   39.4810   33.8580   40.4280 C   0  0  0  0  0  0  0  0  0  0  0  0
   38.4520   33.5630   39.5830 C   0  0  0  0  0  0  0  0  0  0  0  0
   38.5750   33.9190   38.2610 C   0  0  0  0  0  0  0  0  0  0  0  0
   39.7010   34.5540   37.7960 C   0  0  0  0  0  0  0  0  0  0  0  0
   47.2674   34.3336   41.3246 H   0  0  0  0  0  0  0  0  0  0  0  0
   45.3482   32.6717   37.9228 H   0  0  0  0  0  0  0  0  0  0  0  0
   44.8714   36.9172   42.2896 H   0  0  0  0  0  0  0  0  0  0  0  0
   44.6097   37.1219   44.9458 H   0  0  0  0  0  0  0  0  0  0  0  0
   44.6446   34.7221   45.9568 H   0  0  0  0  0  0  0  0  0  0  0  0
   39.3683   33.5673   41.4829 H   0  0  0  0  0  0  0  0  0  0  0  0
   37.5482   33.0541   39.9493 H   0  0  0  0  0  0  0  0  0  0  0  0
   37.7565   33.6912   37.5623 H   0  0  0  0  0  0  0  0  0  0  0  0
   39.8084   34.8410   36.7395 H   0  0  0  0  0  0  0  0  0  0  0  0
  1 12  1  0
  1  2  1  0
  2  7  1  0
  3  2  2  0
  4  3  1  0
  5  6  1  0
  5  4  2  0
  6  1  2  0
  7  8  1  0
  7 11  2  0
  8  9  2  0
  9 10  1  0
 11 10  1  0
 13 12  1  0
 13 14  2  0
 15 16  1  0
 16 17  2  0
 17 18  1  0
 17 13  1  0
 19 18  2  0
 20 19  1  0
 21 20  2  0
 21 16  1  0
  3 22  1  0
  5 23  1  0
  8 24  1  0
  9 25  1  0
 10 26  1  0
 18 27  1  0
 19 28  1  0
 20 29  1  0
 21 30  1  0
M  ISO  8  22  14  23  14  24  14  25  14  26   9  27  14  28  14  29  14
M  ISO  1  30  14
M  END
>  <minimizedAffinity>  (1) 
-5.99823236

>  <minimizedRMSD>  (1) 
2.30901122

$$$$
