
     RDKit          3D

 36 39  0  0  0  0  0  0  0  0999 V2000
   48.3190   33.1010   41.5390 C   0  0  0  0  0  0  0  0  0  0  0  0
   48.0280   34.4050   41.9020 C   0  0  0  0  0  0  0  0  0  0  0  0
   49.0350   35.2030   42.4480 C   0  0  0  0  0  0  0  0  0  0  0  0
   50.2990   34.6430   42.6020 C   0  0  0  0  0  0  0  0  0  0  0  0
   50.5480   33.3580   42.2330 C   0  0  0  0  0  0  0  0  0  0  0  0
   49.5530   32.5400   41.6830 C   0  0  0  0  0  0  0  0  0  0  0  0
   46.6450   34.8430   41.6710 C   0  0  0  0  0  0  0  0  0  0  0  0
   45.9340   35.0060   43.0010 C   0  0  0  0  0  0  0  0  0  0  0  0
   46.0360   33.9590   43.9050 C   0  0  0  0  0  0  0  0  0  0  0  0
   45.3940   34.1040   45.1300 C   0  0  0  0  0  0  0  0  0  0  0  0
   44.7170   35.2430   45.3660 N   0  0  0  0  0  0  0  0  0  0  0  0
   44.6340   36.2500   44.4650 C   0  0  0  0  0  0  0  0  0  0  0  0
   45.2450   36.1220   43.2880 N   0  0  0  0  0  0  0  0  0  0  0  0
   47.3860   32.2250   40.9890 O   0  0  0  0  0  0  0  0  0  0  0  0
   49.9040   31.2420   41.3330 O   0  0  0  0  0  0  0  0  0  0  0  0
   51.1870   31.6380   39.5550 N   0  0  0  0  0  0  0  0  0  0  0  0
   51.1120   30.9660   40.7510 C   0  0  0  0  0  0  0  0  0  0  0  0
   52.2800   30.3200   40.8290 N   0  0  0  0  0  0  0  0  0  0  0  0
   53.0720   30.5420   39.7690 C   0  0  0  0  0  0  0  0  0  0  0  0
   54.3320   30.0370   39.5250 C   0  0  0  0  0  0  0  0  0  0  0  0
   54.9610   30.4000   38.3700 N   0  0  0  0  0  0  0  0  0  0  0  0
   54.2790   31.2310   37.5620 C   0  0  0  0  0  0  0  0  0  0  0  0
   53.0510   31.7120   37.8180 N   0  0  0  0  0  0  0  0  0  0  0  0
   52.3620   31.4040   38.9300 C   0  0  0  0  0  0  0  0  0  0  0  0
   48.8351   36.2425   42.7472 H   0  0  0  0  0  0  0  0  0  0  0  0
   51.1108   35.2498   43.0295 H   0  0  0  0  0  0  0  0  0  0  0  0
   51.5600   32.9493   42.3704 H   0  0  0  0  0  0  0  0  0  0  0  0
   46.6499   35.8053   41.1382 H   0  0  0  0  0  0  0  0  0  0  0  0
   46.1195   34.0897   41.0658 H   0  0  0  0  0  0  0  0  0  0  0  0
   46.6033   33.0484   43.6621 H   0  0  0  0  0  0  0  0  0  0  0  0
   45.4384   33.3075   45.8874 H   0  0  0  0  0  0  0  0  0  0  0  0
   44.0686   37.1634   44.7019 H   0  0  0  0  0  0  0  0  0  0  0  0
   46.4545   32.5246   40.8383 H   0  0  0  0  0  0  0  0  0  0  0  0
   50.4419   32.2435   39.1820 H   0  0  0  0  0  0  0  0  0  0  0  0
   54.8171   29.3593   40.2429 H   0  0  0  0  0  0  0  0  0  0  0  0
   54.7618   31.5394   36.6230 H   0  0  0  0  0  0  0  0  0  0  0  0
  1  6  2  0
  1  2  1  0
  2  3  2  0
  3  4  1  0
  5  4  2  0
  6  5  1  0
  7  2  1  0
  7  8  1  0
  8 13  1  0
  8  9  2  0
  9 10  1  0
 10 11  2  0
 12 11  1  0
 13 12  2  0
 14  1  1  0
 15  6  1  0
 16 17  1  0
 17 18  2  0
 17 15  1  0
 19 18  1  0
 20 19  2  0
 21 20  1  0
 22 23  1  0
 22 21  2  0
 23 24  2  0
 24 16  1  0
 24 19  1  0
  3 25  1  0
  4 26  1  0
  5 27  1  0
  7 28  1  0
  7 29  1  0
  9 30  1  0
 10 31  1  0
 12 32  1  0
 14 33  1  0
 16 34  1  0
 20 35  1  0
 22 36  1  0
M  ISO  8  25  14  26  14  27  14  28   8  29   8  30  14  31  14  32  14
M  ISO  4  33   3  34   9  35  14  36  14
M  END
>  <minimizedAffinity>  (1) 
-5.81666756

>  <minimizedRMSD>  (1) 
1.79828107

$$$$
