
     RDKit          3D

 30 32  0  0  0  0  0  0  0  0999 V2000
   44.2280   33.7780   40.6470 C   0  0  0  0  0  0  0  0  0  0  0  0
   45.2860   34.2350   41.4230 C   0  0  0  0  0  0  0  0  0  0  0  0
   46.5670   34.1450   40.8480 C   0  0  0  0  0  0  0  0  0  0  0  0
   46.6830   33.6220   39.5870 N   0  0  0  0  0  0  0  0  0  0  0  0
   45.6320   33.2010   38.8940 C   0  0  0  0  0  0  0  0  0  0  0  0
   44.3960   33.2740   39.4140 N   0  0  0  0  0  0  0  0  0  0  0  0
   45.0450   34.7690   42.7450 C   0  0  0  0  0  0  0  0  0  0  0  0
   44.9600   36.1290   43.0050 C   0  0  0  0  0  0  0  0  0  0  0  0
   44.7280   36.1820   44.3620 C   0  0  0  0  0  0  0  0  0  0  0  0
   44.6750   34.9350   44.8970 N   0  0  0  0  0  0  0  0  0  0  0  0
   44.8710   34.1050   43.8960 N   0  0  0  0  0  0  0  0  0  0  0  0
   42.9570   33.8500   41.1780 O   0  0  0  0  0  0  0  0  0  0  0  0
   41.9890   34.7720   40.8970 C   0  0  0  0  0  0  0  0  0  0  0  0
   41.9090   35.9760   41.3340 O   0  0  0  0  0  0  0  0  0  0  0  0
   39.4820   33.8010   41.8140 F   0  0  0  0  0  0  0  0  0  0  0  0
   39.6080   34.0130   40.4740 C   0  0  0  0  0  0  0  0  0  0  0  0
   40.8330   34.4920   40.0010 C   0  0  0  0  0  0  0  0  0  0  0  0
   40.8420   34.6700   38.6390 C   0  0  0  0  0  0  0  0  0  0  0  0
   39.7740   34.4090   37.8130 C   0  0  0  0  0  0  0  0  0  0  0  0
   38.6170   33.9440   38.3610 C   0  0  0  0  0  0  0  0  0  0  0  0
   38.5040   33.7350   39.7050 C   0  0  0  0  0  0  0  0  0  0  0  0
   47.4557   34.4870   41.3987 H   0  0  0  0  0  0  0  0  0  0  0  0
   45.7748   32.7885   37.8843 H   0  0  0  0  0  0  0  0  0  0  0  0
   45.0551   36.9653   42.2968 H   0  0  0  0  0  0  0  0  0  0  0  0
   44.6023   37.1117   44.9363 H   0  0  0  0  0  0  0  0  0  0  0  0
   44.5143   34.6896   45.8843 H   0  0  0  0  0  0  0  0  0  0  0  0
   41.7666   35.0470   38.1775 H   0  0  0  0  0  0  0  0  0  0  0  0
   39.8528   34.5730   36.7281 H   0  0  0  0  0  0  0  0  0  0  0  0
   37.7574   33.7329   37.7080 H   0  0  0  0  0  0  0  0  0  0  0  0
   37.5712   33.3609   40.1522 H   0  0  0  0  0  0  0  0  0  0  0  0
  1 12  1  0
  1  2  1  0
  2  7  1  0
  3  2  2  0
  4  3  1  0
  5  6  1  0
  5  4  2  0
  6  1  2  0
  7  8  1  0
  7 11  2  0
  8  9  2  0
  9 10  1  0
 11 10  1  0
 13 12  1  0
 13 14  2  0
 16 15  1  0
 17 16  2  0
 17 13  1  0
 18 17  1  0
 19 20  1  0
 19 18  2  0
 20 21  2  0
 21 16  1  0
  3 22  1  0
  5 23  1  0
  8 24  1  0
  9 25  1  0
 10 26  1  0
 18 27  1  0
 19 28  1  0
 20 29  1  0
 21 30  1  0
M  ISO  8  22  14  23  14  24  14  25  14  26   9  27  14  28  14  29  14
M  ISO  1  30  14
M  END
>  <minimizedAffinity>  (1) 
-5.97229862

>  <minimizedRMSD>  (1) 
2.25244951

$$$$
