
     RDKit          3D

 35 37  0  0  0  0  0  0  0  0999 V2000
   45.7920   34.1190   41.0790 C   0  0  0  0  0  0  0  0  0  0  0  0
   46.4220   34.7570   42.1580 C   0  0  0  0  0  0  0  0  0  0  0  0
   47.7730   35.1010   41.9800 C   0  0  0  0  0  0  0  0  0  0  0  0
   48.3790   34.7990   40.7910 N   0  0  0  0  0  0  0  0  0  0  0  0
   47.7300   34.1940   39.8060 C   0  0  0  0  0  0  0  0  0  0  0  0
   46.4340   33.8490   39.9400 N   0  0  0  0  0  0  0  0  0  0  0  0
   45.6870   35.0300   43.3740 C   0  0  0  0  0  0  0  0  0  0  0  0
   45.0430   36.2400   43.6050 C   0  0  0  0  0  0  0  0  0  0  0  0
   44.4840   36.0740   44.8520 C   0  0  0  0  0  0  0  0  0  0  0  0
   44.7680   34.8500   45.3460 N   0  0  0  0  0  0  0  0  0  0  0  0
   45.4930   34.2500   44.4320 N   0  0  0  0  0  0  0  0  0  0  0  0
   44.4680   33.7720   41.2280 O   0  0  0  0  0  0  0  0  0  0  0  0
   43.3880   34.4760   40.7660 C   0  0  0  0  0  0  0  0  0  0  0  0
   43.2980   35.7270   40.5470 O   0  0  0  0  0  0  0  0  0  0  0  0
   42.0500   34.0650   40.3870 N   0  0  0  0  0  0  0  0  0  0  0  0
   41.6890   34.3540   39.0130 C   0  0  0  0  0  0  0  0  0  0  0  0
   40.8390   35.6280   39.0840 C   0  0  0  0  0  0  0  0  0  0  0  0
   40.0230   35.5360   40.3770 C   0  0  0  0  0  0  0  0  0  0  0  0
   39.7210   34.0890   40.7410 C   0  0  0  0  0  0  0  0  0  0  0  0
   41.0210   33.4070   41.1890 C   0  0  0  0  0  0  0  0  0  0  0  0
   48.3331   35.6039   42.7821 H   0  0  0  0  0  0  0  0  0  0  0  0
   48.2565   33.9705   38.8664 H   0  0  0  0  0  0  0  0  0  0  0  0
   44.9922   37.1206   42.9478 H   0  0  0  0  0  0  0  0  0  0  0  0
   43.8868   36.8354   45.3751 H   0  0  0  0  0  0  0  0  0  0  0  0
   44.4750   34.4655   46.2555 H   0  0  0  0  0  0  0  0  0  0  0  0
   41.1073   33.5249   38.5838 H   0  0  0  0  0  0  0  0  0  0  0  0
   42.5738   34.4835   38.3725 H   0  0  0  0  0  0  0  0  0  0  0  0
   41.4873   36.5164   39.1063 H   0  0  0  0  0  0  0  0  0  0  0  0
   40.1830   35.7175   38.2056 H   0  0  0  0  0  0  0  0  0  0  0  0
   40.5947   35.9990   41.1948 H   0  0  0  0  0  0  0  0  0  0  0  0
   39.0686   36.0607   40.2223 H   0  0  0  0  0  0  0  0  0  0  0  0
   38.9875   34.0597   41.5602 H   0  0  0  0  0  0  0  0  0  0  0  0
   39.3066   33.5639   39.8678 H   0  0  0  0  0  0  0  0  0  0  0  0
   40.9904   32.3276   40.9792 H   0  0  0  0  0  0  0  0  0  0  0  0
   41.1998   33.4978   42.2706 H   0  0  0  0  0  0  0  0  0  0  0  0
  1 12  1  0
  1  2  1  0
  2  7  1  0
  3  2  2  0
  4  3  1  0
  5  6  1  0
  5  4  2  0
  6  1  2  0
  7  8  1  0
  7 11  2  0
  8  9  2  0
  9 10  1  0
 11 10  1  0
 13 12  1  0
 14 13  2  0
 15 13  1  0
 15 20  1  0
 16 17  1  0
 16 15  1  0
 17 18  1  0
 18 19  1  0
 19 20  1  0
  3 21  1  0
  5 22  1  0
  8 23  1  0
  9 24  1  0
 10 25  1  0
 16 26  1  0
 16 27  1  0
 17 28  1  0
 17 29  1  0
 18 30  1  0
 18 31  1  0
 19 32  1  0
 19 33  1  0
 20 34  1  0
 20 35  1  0
M  ISO  8  21  14  22  14  23  14  24  14  25   9  26  13  27  13  28  13
M  ISO  7  29  13  30  13  31  13  32  13  33  13  34  13  35  13
M  END
>  <minimizedAffinity>  (1) 
-6.1058774

>  <minimizedRMSD>  (1) 
0.944740653

$$$$
