
     RDKit          3D

 48 51  0  0  1  0  0  0  0  0999 V2000
   43.3080   34.5030   40.7710 C   0  0  0  0  0  0  0  0  0  0  0  0
   43.2830   35.7190   40.4310 O   0  0  0  0  0  0  0  0  0  0  0  0
   41.9310   34.1260   40.4800 N   0  0  0  0  0  0  0  0  0  0  0  0
   41.5430   34.3100   39.0870 C   0  0  0  0  0  0  0  0  0  0  0  0
   40.7740   35.6240   39.0590 C   0  0  0  0  0  0  0  0  0  0  0  0
   40.0010   35.7100   40.3760 C   0  0  0  0  0  0  0  0  0  0  0  0
   39.6280   34.3310   40.8840 C   0  0  0  0  0  0  0  0  0  0  0  0
   40.9070   33.6040   41.3560 C   0  0  1  0  0  0  0  0  0  0  0  0
   40.6120   32.1430   41.1820 C   0  0  0  0  0  0  0  0  0  0  0  0
   40.6760   31.3160   42.4130 C   0  0  0  0  0  0  0  0  0  0  0  0
   39.8530   30.0800   42.0200 C   0  0  0  0  0  0  0  0  0  0  0  0
   38.6260   30.7710   41.4470 C   0  0  0  0  0  0  0  0  0  0  0  0
   39.1290   32.0550   40.8190 C   0  0  0  0  0  0  0  0  0  0  0  0
   44.3600   33.7740   41.2700 O   0  0  0  0  0  0  0  0  0  0  0  0
   45.6940   34.0660   41.1160 C   0  0  0  0  0  0  0  0  0  0  0  0
   46.3530   34.6920   42.1920 C   0  0  0  0  0  0  0  0  0  0  0  0
   47.7090   34.9760   42.0040 C   0  0  0  0  0  0  0  0  0  0  0  0
   48.3100   34.6470   40.8290 N   0  0  0  0  0  0  0  0  0  0  0  0
   47.6360   34.0550   39.8430 C   0  0  0  0  0  0  0  0  0  0  0  0
   46.3270   33.7640   39.9860 N   0  0  0  0  0  0  0  0  0  0  0  0
   45.6340   35.0020   43.3980 C   0  0  0  0  0  0  0  0  0  0  0  0
   45.0240   36.2380   43.6220 C   0  0  0  0  0  0  0  0  0  0  0  0
   44.4610   36.1070   44.8720 C   0  0  0  0  0  0  0  0  0  0  0  0
   44.7060   34.8860   45.3750 N   0  0  0  0  0  0  0  0  0  0  0  0
   45.4090   34.2480   44.4720 N   0  0  0  0  0  0  0  0  0  0  0  0
   42.4328   34.3696   38.4430 H   0  0  0  0  0  0  0  0  0  0  0  0
   40.9380   33.4706   38.7136 H   0  0  0  0  0  0  0  0  0  0  0  0
   41.4720   36.4698   38.9734 H   0  0  0  0  0  0  0  0  0  0  0  0
   40.0920   35.6646   38.1969 H   0  0  0  0  0  0  0  0  0  0  0  0
   40.6278   36.2119   41.1278 H   0  0  0  0  0  0  0  0  0  0  0  0
   39.0758   36.2785   40.2003 H   0  0  0  0  0  0  0  0  0  0  0  0
   38.9261   34.4257   41.7256 H   0  0  0  0  0  0  0  0  0  0  0  0
   39.1503   33.7553   40.0776 H   0  0  0  0  0  0  0  0  0  0  0  0
   41.2274   33.7479   42.3984 H   0  0  0  0  0  0  0  0  0  0  0  0
   41.3567   31.7769   40.4599 H   0  0  0  0  0  0  0  0  0  0  0  0
   41.7135   31.0430   42.6560 H   0  0  0  0  0  0  0  0  0  0  0  0
   40.2983   31.8300   43.3092 H   0  0  0  0  0  0  0  0  0  0  0  0
   40.3681   29.4660   41.2665 H   0  0  0  0  0  0  0  0  0  0  0  0
   39.6535   29.3701   42.8362 H   0  0  0  0  0  0  0  0  0  0  0  0
   38.1482   30.1349   40.6873 H   0  0  0  0  0  0  0  0  0  0  0  0
   37.8735   30.9690   42.2245 H   0  0  0  0  0  0  0  0  0  0  0  0
   38.5833   32.9195   41.2250 H   0  0  0  0  0  0  0  0  0  0  0  0
   38.9778   32.0592   39.7294 H   0  0  0  0  0  0  0  0  0  0  0  0
   48.2873   35.4634   42.8028 H   0  0  0  0  0  0  0  0  0  0  0  0
   48.1518   33.8018   38.9050 H   0  0  0  0  0  0  0  0  0  0  0  0
   44.9990   37.1126   42.9553 H   0  0  0  0  0  0  0  0  0  0  0  0
   43.8898   36.8934   45.3871 H   0  0  0  0  0  0  0  0  0  0  0  0
   44.4015   34.5230   46.2896 H   0  0  0  0  0  0  0  0  0  0  0  0
  1 14  1  0
  2  1  2  0
  3  1  1  0
  3  8  1  0
  4  3  1  0
  5  4  1  0
  5  6  1  0
  6  7  1  0
  7  8  1  0
  9  8  1  0
  9 10  1  0
 11 10  1  0
 12 11  1  0
 13  9  1  0
 13 12  1  0
 15 14  1  0
 15 16  1  0
 16 21  1  0
 17 16  2  0
 18 17  1  0
 19 20  1  0
 19 18  2  0
 20 15  2  0
 21 22  1  0
 21 25  2  0
 22 23  2  0
 23 24  1  0
 25 24  1  0
  4 26  1  0
  4 27  1  0
  5 28  1  0
  5 29  1  0
  6 30  1  0
  6 31  1  0
  7 32  1  0
  7 33  1  0
  8 34  1  1
  9 35  1  0
 10 36  1  0
 10 37  1  0
 11 38  1  0
 11 39  1  0
 12 40  1  0
 12 41  1  0
 13 42  1  0
 13 43  1  0
 17 44  1  0
 19 45  1  0
 22 46  1  0
 23 47  1  0
 24 48  1  0
M  ISO  8  26  13  27  13  28  13  29  13  30  13  31  13  32  13  33  13
M  ISO  8  34  13  35  13  36  13  37  13  38  13  39  13  40  13  41  13
M  ISO  7  42  13  43  13  44  14  45  14  46  14  47  14  48   9
M  END
>  <minimizedAffinity>  (1) 
-6.78737879

>  <minimizedRMSD>  (1) 
0.610616207

$$$$
