
     RDKit          3D

 37 39  0  0  1  0  0  0  0  0999 V2000
   43.3860   34.4780   40.7680 C   0  0  0  0  0  0  0  0  0  0  0  0
   43.3060   35.7360   40.5380 O   0  0  0  0  0  0  0  0  0  0  0  0
   42.0380   34.0780   40.3960 N   0  0  0  0  0  0  0  0  0  0  0  0
   41.6850   34.3550   39.0190 C   0  0  0  0  0  0  0  0  0  0  0  0
   40.8420   35.6460   39.0880 C   0  0  0  0  0  0  0  0  0  0  0  0
   40.0250   35.5670   40.3820 C   0  0  0  0  0  0  0  0  0  0  0  0
   39.7120   34.1160   40.7580 C   0  0  0  0  0  0  0  0  0  0  0  0
   41.0070   33.4470   41.2080 C   0  0  1  0  0  0  0  0  0  0  0  0
   40.9630   32.0160   41.0420 N   0  0  0  0  0  0  0  0  0  0  0  0
   44.4650   33.7710   41.2320 O   0  0  0  0  0  0  0  0  0  0  0  0
   45.7900   34.1180   41.0870 C   0  0  0  0  0  0  0  0  0  0  0  0
   46.4230   34.7550   42.1720 C   0  0  0  0  0  0  0  0  0  0  0  0
   47.7720   35.0950   41.9910 C   0  0  0  0  0  0  0  0  0  0  0  0
   48.3780   34.7970   40.8030 N   0  0  0  0  0  0  0  0  0  0  0  0
   47.7260   34.1920   39.8090 C   0  0  0  0  0  0  0  0  0  0  0  0
   46.4330   33.8500   39.9440 N   0  0  0  0  0  0  0  0  0  0  0  0
   45.6870   35.0250   43.3890 C   0  0  0  0  0  0  0  0  0  0  0  0
   45.0380   36.2350   43.6210 C   0  0  0  0  0  0  0  0  0  0  0  0
   44.4790   36.0810   44.8590 C   0  0  0  0  0  0  0  0  0  0  0  0
   44.7700   34.8500   45.3540 N   0  0  0  0  0  0  0  0  0  0  0  0
   45.4930   34.2510   44.4440 N   0  0  0  0  0  0  0  0  0  0  0  0
   41.0961   33.5284   38.5948 H   0  0  0  0  0  0  0  0  0  0  0  0
   42.5697   34.4672   38.3750 H   0  0  0  0  0  0  0  0  0  0  0  0
   41.4993   36.5278   39.1074 H   0  0  0  0  0  0  0  0  0  0  0  0
   40.1861   35.7388   38.2099 H   0  0  0  0  0  0  0  0  0  0  0  0
   40.5995   36.0318   41.1968 H   0  0  0  0  0  0  0  0  0  0  0  0
   39.0738   36.0962   40.2235 H   0  0  0  0  0  0  0  0  0  0  0  0
   38.9781   34.0942   41.5771 H   0  0  0  0  0  0  0  0  0  0  0  0
   39.2912   33.5829   39.8927 H   0  0  0  0  0  0  0  0  0  0  0  0
   41.1974   33.5814   42.2830 H   0  0  0  0  0  0  0  0  0  0  0  0
   40.9491   31.5633   41.9671 H   0  0  0  0  0  0  0  0  0  0  0  0
   40.1136   31.7569   40.5201 H   0  0  0  0  0  0  0  0  0  0  0  0
   48.3340   35.5944   42.7940 H   0  0  0  0  0  0  0  0  0  0  0  0
   48.2520   33.9705   38.8687 H   0  0  0  0  0  0  0  0  0  0  0  0
   44.9869   37.1128   42.9601 H   0  0  0  0  0  0  0  0  0  0  0  0
   43.8803   36.8434   45.3789 H   0  0  0  0  0  0  0  0  0  0  0  0
   44.4793   34.4653   46.2642 H   0  0  0  0  0  0  0  0  0  0  0  0
  1 10  1  0
  2  1  2  0
  3  1  1  0
  3  8  1  0
  4  5  1  0
  4  3  1  0
  5  6  1  0
  6  7  1  0
  7  8  1  0
  9  8  1  0
 11 10  1  0
 11 12  1  0
 12 17  1  0
 13 12  2  0
 14 13  1  0
 15 16  1  0
 15 14  2  0
 16 11  2  0
 17 18  1  0
 17 21  2  0
 18 19  2  0
 19 20  1  0
 21 20  1  0
  4 22  1  0
  4 23  1  0
  5 24  1  0
  5 25  1  0
  6 26  1  0
  6 27  1  0
  7 28  1  0
  7 29  1  0
  8 30  1  1
  9 31  1  0
  9 32  1  0
 13 33  1  0
 15 34  1  0
 18 35  1  0
 19 36  1  0
 20 37  1  0
M  ISO  8  22  13  23  13  24  13  25  13  26  13  27  13  28  13  29  13
M  ISO  8  30  13  31   5  32   5  33  14  34  14  35  14  36  14  37   9
M  END
>  <minimizedAffinity>  (1) 
-6.27067852

>  <minimizedRMSD>  (1) 
0.0181409195

$$$$
