
     RDKit          3D

 38 40  0  0  1  0  0  0  0  0999 V2000
   43.3820   34.4750   40.7710 C   0  0  0  0  0  0  0  0  0  0  0  0
   43.3000   35.7310   40.5270 O   0  0  0  0  0  0  0  0  0  0  0  0
   42.0360   34.0770   40.4050 N   0  0  0  0  0  0  0  0  0  0  0  0
   41.6660   34.3470   39.0340 C   0  0  0  0  0  0  0  0  0  0  0  0
   40.8350   35.6280   39.0820 C   0  0  0  0  0  0  0  0  0  0  0  0
   40.0300   35.5680   40.3850 C   0  0  0  0  0  0  0  0  0  0  0  0
   39.7100   34.1280   40.7610 C   0  0  0  0  0  0  0  0  0  0  0  0
   41.0090   33.4450   41.2250 C   0  0  1  0  0  0  0  0  0  0  0  0
   40.9640   31.9590   41.0750 C   0  0  0  0  0  0  0  0  0  0  0  0
   44.4630   33.7690   41.2430 O   0  0  0  0  0  0  0  0  0  0  0  0
   45.7900   34.1150   41.0900 C   0  0  0  0  0  0  0  0  0  0  0  0
   46.4220   34.7550   42.1740 C   0  0  0  0  0  0  0  0  0  0  0  0
   47.7680   35.0990   41.9960 C   0  0  0  0  0  0  0  0  0  0  0  0
   48.3670   34.7900   40.7940 N   0  0  0  0  0  0  0  0  0  0  0  0
   47.7180   34.1900   39.8190 C   0  0  0  0  0  0  0  0  0  0  0  0
   46.4310   33.8460   39.9490 N   0  0  0  0  0  0  0  0  0  0  0  0
   45.6840   35.0280   43.3920 C   0  0  0  0  0  0  0  0  0  0  0  0
   45.0350   36.2370   43.6170 C   0  0  0  0  0  0  0  0  0  0  0  0
   44.4800   36.0680   44.8620 C   0  0  0  0  0  0  0  0  0  0  0  0
   44.7680   34.8540   45.3530 N   0  0  0  0  0  0  0  0  0  0  0  0
   45.5010   34.2400   44.4440 N   0  0  0  0  0  0  0  0  0  0  0  0
   41.0705   33.5172   38.6257 H   0  0  0  0  0  0  0  0  0  0  0  0
   42.5484   34.4562   38.3864 H   0  0  0  0  0  0  0  0  0  0  0  0
   41.4930   36.5095   39.0807 H   0  0  0  0  0  0  0  0  0  0  0  0
   40.1742   35.7097   38.2064 H   0  0  0  0  0  0  0  0  0  0  0  0
   40.6176   36.0289   41.1927 H   0  0  0  0  0  0  0  0  0  0  0  0
   39.0846   36.1111   40.2390 H   0  0  0  0  0  0  0  0  0  0  0  0
   38.9710   34.1125   41.5757 H   0  0  0  0  0  0  0  0  0  0  0  0
   39.2929   33.5954   39.8936 H   0  0  0  0  0  0  0  0  0  0  0  0
   41.1984   33.5759   42.3006 H   0  0  0  0  0  0  0  0  0  0  0  0
   40.9498   31.4903   42.0700 H   0  0  0  0  0  0  0  0  0  0  0  0
   40.0568   31.6736   40.5223 H   0  0  0  0  0  0  0  0  0  0  0  0
   41.8523   31.6192   40.5223 H   0  0  0  0  0  0  0  0  0  0  0  0
   48.3322   35.6026   42.7948 H   0  0  0  0  0  0  0  0  0  0  0  0
   48.2435   33.9668   38.8788 H   0  0  0  0  0  0  0  0  0  0  0  0
   44.9795   37.1158   42.9577 H   0  0  0  0  0  0  0  0  0  0  0  0
   43.8799   36.8266   45.3858 H   0  0  0  0  0  0  0  0  0  0  0  0
   44.4738   34.4741   46.2640 H   0  0  0  0  0  0  0  0  0  0  0  0
  1 10  1  0
  2  1  2  0
  3  1  1  0
  3  8  1  0
  4  5  1  0
  4  3  1  0
  5  6  1  0
  6  7  1  0
  7  8  1  0
  9  8  1  0
 11 10  1  0
 11 12  1  0
 12 17  1  0
 13 12  2  0
 14 13  1  0
 15 16  1  0
 15 14  2  0
 16 11  2  0
 17 18  1  0
 17 21  2  0
 18 19  2  0
 19 20  1  0
 21 20  1  0
  4 22  1  0
  4 23  1  0
  5 24  1  0
  5 25  1  0
  6 26  1  0
  6 27  1  0
  7 28  1  0
  7 29  1  0
  8 30  1  1
  9 31  1  0
  9 32  1  0
  9 33  1  0
 13 34  1  0
 15 35  1  0
 18 36  1  0
 19 37  1  0
 20 38  1  0
M  ISO  8  22  13  23  13  24  13  25  13  26  13  27  13  28  13  29  13
M  ISO  8  30  13  31   8  32   8  33   8  34  14  35  14  36  14  37  14
M  ISO  1  38   9
M  END
>  <minimizedAffinity>  (1) 
-6.27369261

>  <minimizedRMSD>  (1) 
0.0269695576

$$$$
