
     RDKit          3D

 41 43  0  0  1  0  0  0  0  0999 V2000
   43.4420   34.4730   40.6170 C   0  0  0  0  0  0  0  0  0  0  0  0
   43.1370   35.6930   40.7300 O   0  0  0  0  0  0  0  0  0  0  0  0
   42.3540   34.0190   39.7560 N   0  0  0  0  0  0  0  0  0  0  0  0
   42.2860   34.7030   38.4730 C   0  0  0  0  0  0  0  0  0  0  0  0
   41.1870   35.7460   38.6350 C   0  0  0  0  0  0  0  0  0  0  0  0
   40.1290   35.1350   39.5440 C   0  0  0  0  0  0  0  0  0  0  0  0
   40.0760   33.6100   39.3990 C   0  0  0  0  0  0  0  0  0  0  0  0
   41.3400   32.9960   39.9880 C   0  0  2  0  0  0  0  0  0  0  0  0
   44.5050   33.7860   41.1610 O   0  0  0  0  0  0  0  0  0  0  0  0
   45.8350   34.1350   41.0180 C   0  0  0  0  0  0  0  0  0  0  0  0
   46.4590   34.7710   42.1090 C   0  0  0  0  0  0  0  0  0  0  0  0
   47.8080   35.1200   41.9490 C   0  0  0  0  0  0  0  0  0  0  0  0
   48.4150   34.8220   40.7630 N   0  0  0  0  0  0  0  0  0  0  0  0
   47.7840   34.2250   39.7730 C   0  0  0  0  0  0  0  0  0  0  0  0
   46.4830   33.8720   39.8870 N   0  0  0  0  0  0  0  0  0  0  0  0
   45.7120   35.0380   43.3230 C   0  0  0  0  0  0  0  0  0  0  0  0
   45.0610   36.2300   43.5630 C   0  0  0  0  0  0  0  0  0  0  0  0
   44.4990   36.0460   44.8030 C   0  0  0  0  0  0  0  0  0  0  0  0
   44.7840   34.8240   45.2940 N   0  0  0  0  0  0  0  0  0  0  0  0
   45.5130   34.2450   44.3790 N   0  0  0  0  0  0  0  0  0  0  0  0
   41.1580   32.6960   41.4550 C   0  0  0  0  0  0  0  0  0  0  0  0
   39.7590   32.1520   41.6520 C   0  0  0  0  0  0  0  0  0  0  0  0
   42.0306   33.9947   37.6711 H   0  0  0  0  0  0  0  0  0  0  0  0
   43.2486   35.1589   38.1982 H   0  0  0  0  0  0  0  0  0  0  0  0
   41.5964   36.6593   39.0914 H   0  0  0  0  0  0  0  0  0  0  0  0
   40.7579   36.0210   37.6602 H   0  0  0  0  0  0  0  0  0  0  0  0
   40.3664   35.3867   40.5882 H   0  0  0  0  0  0  0  0  0  0  0  0
   39.1491   35.5432   39.2557 H   0  0  0  0  0  0  0  0  0  0  0  0
   39.1968   33.2218   39.9341 H   0  0  0  0  0  0  0  0  0  0  0  0
   40.0045   33.3468   38.3334 H   0  0  0  0  0  0  0  0  0  0  0  0
   41.6118   32.0320   39.5333 H   0  0  0  0  0  0  0  0  0  0  0  0
   48.3618   35.6202   42.7571 H   0  0  0  0  0  0  0  0  0  0  0  0
   48.3234   34.0100   38.8387 H   0  0  0  0  0  0  0  0  0  0  0  0
   45.0051   37.1173   42.9153 H   0  0  0  0  0  0  0  0  0  0  0  0
   43.8938   36.7998   45.3279 H   0  0  0  0  0  0  0  0  0  0  0  0
   44.4893   34.4304   46.1990 H   0  0  0  0  0  0  0  0  0  0  0  0
   41.8978   31.9487   41.7776 H   0  0  0  0  0  0  0  0  0  0  0  0
   41.3002   33.6089   42.0519 H   0  0  0  0  0  0  0  0  0  0  0  0
   39.5459   32.0692   42.7280 H   0  0  0  0  0  0  0  0  0  0  0  0
   39.0318   32.8329   41.1856 H   0  0  0  0  0  0  0  0  0  0  0  0
   39.6828   31.1587   41.1856 H   0  0  0  0  0  0  0  0  0  0  0  0
  1  2  2  0
  1  9  1  0
  3  8  1  0
  3  1  1  0
  4  5  1  0
  4  3  1  0
  5  6  1  0
  7  6  1  0
  7  8  1  0
  8 21  1  0
 10  9  1  0
 10 11  1  0
 11 16  1  0
 12 11  2  0
 13 12  1  0
 14 15  1  0
 14 13  2  0
 15 10  2  0
 16 17  1  0
 16 20  2  0
 17 18  2  0
 18 19  1  0
 20 19  1  0
 21 22  1  0
  4 23  1  0
  4 24  1  0
  5 25  1  0
  5 26  1  0
  6 27  1  0
  6 28  1  0
  7 29  1  0
  7 30  1  0
  8 31  1  6
 12 32  1  0
 14 33  1  0
 17 34  1  0
 18 35  1  0
 19 36  1  0
 21 37  1  0
 21 38  1  0
 22 39  1  0
 22 40  1  0
 22 41  1  0
M  ISO  8  23  13  24  13  25  13  26  13  27  13  28  13  29  13  30  13
M  ISO  8  31  13  32  14  33  14  34  14  35  14  36   9  37   8  38   8
M  ISO  3  39   8  40   8  41   8
M  END
>  <minimizedAffinity>  (1) 
-6.13402271

>  <minimizedRMSD>  (1) 
0.751381338

$$$$
