
     RDKit          3D

 37 39  0  0  1  0  0  0  0  0999 V2000
   43.2970   34.4110   40.7650 C   0  0  0  0  0  0  0  0  0  0  0  0
   43.2280   35.6140   40.3870 O   0  0  0  0  0  0  0  0  0  0  0  0
   41.9540   33.9850   40.4680 N   0  0  0  0  0  0  0  0  0  0  0  0
   41.5670   34.0950   39.0820 C   0  0  0  0  0  0  0  0  0  0  0  0
   40.7310   35.3780   39.0000 C   0  0  0  0  0  0  0  0  0  0  0  0
   39.9480   35.4660   40.3040 C   0  0  0  0  0  0  0  0  0  0  0  0
   39.6280   34.0800   40.8590 C   0  0  0  0  0  0  0  0  0  0  0  0
   40.9280   33.4560   41.3800 C   0  0  1  0  0  0  0  0  0  0  0  0
   40.8840   31.9860   41.3740 C   0  0  0  0  0  0  0  0  0  0  0  0
   40.7130   31.3890   42.4450 O   0  0  0  0  0  0  0  0  0  0  0  0
   44.3820   33.7680   41.2950 O   0  0  0  0  0  0  0  0  0  0  0  0
   45.7090   34.1040   41.1310 C   0  0  0  0  0  0  0  0  0  0  0  0
   46.3440   34.7390   42.1950 C   0  0  0  0  0  0  0  0  0  0  0  0
   47.7040   35.0710   42.0000 C   0  0  0  0  0  0  0  0  0  0  0  0
   48.2880   34.7570   40.8120 N   0  0  0  0  0  0  0  0  0  0  0  0
   47.6210   34.1460   39.8310 C   0  0  0  0  0  0  0  0  0  0  0  0
   46.3300   33.8170   39.9840 N   0  0  0  0  0  0  0  0  0  0  0  0
   45.6310   35.0260   43.4110 C   0  0  0  0  0  0  0  0  0  0  0  0
   44.9910   36.2370   43.6500 C   0  0  0  0  0  0  0  0  0  0  0  0
   44.4480   36.0860   44.9070 C   0  0  0  0  0  0  0  0  0  0  0  0
   44.7380   34.8630   45.4010 N   0  0  0  0  0  0  0  0  0  0  0  0
   45.4430   34.2610   44.4820 N   0  0  0  0  0  0  0  0  0  0  0  0
   42.4555   34.1715   38.4381 H   0  0  0  0  0  0  0  0  0  0  0  0
   41.0036   33.2140   38.7407 H   0  0  0  0  0  0  0  0  0  0  0  0
   41.3878   36.2536   38.8909 H   0  0  0  0  0  0  0  0  0  0  0  0
   40.0570   35.3596   38.1309 H   0  0  0  0  0  0  0  0  0  0  0  0
   40.5465   36.0179   41.0438 H   0  0  0  0  0  0  0  0  0  0  0  0
   38.9991   35.9847   40.1026 H   0  0  0  0  0  0  0  0  0  0  0  0
   38.9022   34.1673   41.6810 H   0  0  0  0  0  0  0  0  0  0  0  0
   39.1945   33.4476   40.0702 H   0  0  0  0  0  0  0  0  0  0  0  0
   41.1249   33.7103   42.4319 H   0  0  0  0  0  0  0  0  0  0  0  0
   41.0010   31.4266   40.4341 H   0  0  0  0  0  0  0  0  0  0  0  0
   48.2784   35.5730   42.7925 H   0  0  0  0  0  0  0  0  0  0  0  0
   48.1351   33.9099   38.8876 H   0  0  0  0  0  0  0  0  0  0  0  0
   44.9319   37.1135   42.9880 H   0  0  0  0  0  0  0  0  0  0  0  0
   43.8613   36.8530   45.4338 H   0  0  0  0  0  0  0  0  0  0  0  0
   44.4595   34.4826   46.3168 H   0  0  0  0  0  0  0  0  0  0  0  0
  1 11  1  0
  2  1  2  0
  3  1  1  0
  3  8  1  0
  4  3  1  0
  5  4  1  0
  5  6  1  0
  6  7  1  0
  7  8  1  0
  9  8  1  0
  9 10  2  0
 12 11  1  0
 12 13  1  0
 13 18  1  0
 14 13  2  0
 15 14  1  0
 16 17  1  0
 16 15  2  0
 17 12  2  0
 18 19  1  0
 18 22  2  0
 19 20  2  0
 20 21  1  0
 22 21  1  0
  4 23  1  0
  4 24  1  0
  5 25  1  0
  5 26  1  0
  6 27  1  0
  6 28  1  0
  7 29  1  0
  7 30  1  0
  8 31  1  1
  9 32  1  0
 14 33  1  0
 16 34  1  0
 19 35  1  0
 20 36  1  0
 21 37  1  0
M  ISO  8  23  13  24  13  25  13  26  13  27  13  28  13  29  13  30  13
M  ISO  7  31  13  32   6  33  14  34  14  35  14  36  14  37   9
M  END
>  <minimizedAffinity>  (1) 
-6.2015295

>  <minimizedRMSD>  (1) 
0.26646027

$$$$
