
     RDKit          3D

 22 22  0  0  0  0  0  0  0  0999 V2000
   46.3150   34.4640   41.2950 C   0  0  0  0  0  0  0  0  0  0  0  0
   49.5660   32.8320   42.2800 C   0  0  0  0  0  0  0  0  0  0  0  0
   48.2310   33.0150   41.8820 C   0  0  0  0  0  0  0  0  0  0  0  0
   47.7250   34.2940   41.7150 C   0  0  0  0  0  0  0  0  0  0  0  0
   48.5810   35.3180   41.9540 N   0  0  0  0  0  0  0  0  0  0  0  0
   49.8580   35.1360   42.3350 C   0  0  0  0  0  0  0  0  0  0  0  0
   50.3450   33.9110   42.4960 N   0  0  0  0  0  0  0  0  0  0  0  0
   45.4130   34.1370   42.4700 C   0  0  0  0  0  0  0  0  0  0  0  0
   45.8440   34.9510   43.5190 O   0  0  0  0  0  0  0  0  0  0  0  0
   44.5040   35.4670   45.6410 O   0  0  0  0  0  0  0  0  0  0  0  0
   44.6020   35.8790   44.1700 P   0  0  0  0  0  0  0  0  0  0  0  0
   44.9540   37.5090   44.1120 O   0  0  0  0  0  0  0  0  0  0  0  0
   43.1160   35.6060   43.4290 O   0  0  0  0  0  0  0  0  0  0  0  0
   46.1465   35.5036   40.9774 H   0  0  0  0  0  0  0  0  0  0  0  0
   46.0917   33.7917   40.4535 H   0  0  0  0  0  0  0  0  0  0  0  0
   49.9716   31.8183   42.4140 H   0  0  0  0  0  0  0  0  0  0  0  0
   47.5867   32.1417   41.7027 H   0  0  0  0  0  0  0  0  0  0  0  0
   50.5038   36.0082   42.5146 H   0  0  0  0  0  0  0  0  0  0  0  0
   44.3644   34.3568   42.2206 H   0  0  0  0  0  0  0  0  0  0  0  0
   45.4663   33.0711   42.7367 H   0  0  0  0  0  0  0  0  0  0  0  0
   45.0305   37.8631   45.0333 H   0  0  0  0  0  0  0  0  0  0  0  0
   42.4204   35.4782   44.1217 H   0  0  0  0  0  0  0  0  0  0  0  0
  1  4  1  0
  1  8  1  0
  2  7  2  0
  3  2  1  0
  4  3  2  0
  4  5  1  0
  5  6  2  0
  6  7  1  0
  8  9  1  0
  9 11  1  0
 11 10  2  0
 12 11  1  0
 13 11  1  0
  1 14  1  0
  1 15  1  0
  2 16  1  0
  3 17  1  0
  6 18  1  0
  8 19  1  0
  8 20  1  0
 12 21  1  0
 13 22  1  0
M  ISO  8  14   8  15   8  16  14  17  14  18  14  19   8  20   8  21   3
M  ISO  1  22   3
M  END
>  <minimizedAffinity>  (1) 
-4.27110052

>  <minimizedRMSD>  (1) 
5.3224144

$$$$
