
     RDKit          3D

 38 41  0  0  0  0  0  0  0  0999 V2000
   48.3960   33.0730   41.3730 C   0  0  0  0  0  0  0  0  0  0  0  0
   48.0300   34.3270   41.8240 C   0  0  0  0  0  0  0  0  0  0  0  0
   48.9780   35.1120   42.4410 C   0  0  0  0  0  0  0  0  0  0  0  0
   50.2630   34.6370   42.5980 C   0  0  0  0  0  0  0  0  0  0  0  0
   50.5910   33.3860   42.1390 C   0  0  0  0  0  0  0  0  0  0  0  0
   49.6550   32.5680   41.5100 C   0  0  0  0  0  0  0  0  0  0  0  0
   46.6200   34.7120   41.5930 C   0  0  0  0  0  0  0  0  0  0  0  0
   45.9280   34.9240   42.9280 C   0  0  0  0  0  0  0  0  0  0  0  0
   46.0060   33.8990   43.8570 C   0  0  0  0  0  0  0  0  0  0  0  0
   45.3790   34.1010   45.0850 C   0  0  0  0  0  0  0  0  0  0  0  0
   44.7420   35.2630   45.2920 N   0  0  0  0  0  0  0  0  0  0  0  0
   44.6830   36.2550   44.3590 C   0  0  0  0  0  0  0  0  0  0  0  0
   45.2800   36.0750   43.1780 N   0  0  0  0  0  0  0  0  0  0  0  0
   47.4930   32.1960   40.7290 O   0  0  0  0  0  0  0  0  0  0  0  0
   50.0660   31.3090   41.0700 O   0  0  0  0  0  0  0  0  0  0  0  0
   50.6100   31.6410   38.8530 C   0  0  0  0  0  0  0  0  0  0  0  0
   51.0120   31.2110   40.0960 C   0  0  0  0  0  0  0  0  0  0  0  0
   52.2840   30.7180   40.3260 C   0  0  0  0  0  0  0  0  0  0  0  0
   53.1600   30.6660   39.2580 C   0  0  0  0  0  0  0  0  0  0  0  0
   54.4420   30.2320   39.2220 N   0  0  0  0  0  0  0  0  0  0  0  0
   54.8640   30.3860   37.9390 C   0  0  0  0  0  0  0  0  0  0  0  0
   53.8330   30.9030   37.2520 N   0  0  0  0  0  0  0  0  0  0  0  0
   52.7540   31.0970   38.0140 C   0  0  0  0  0  0  0  0  0  0  0  0
   51.4820   31.5920   37.7730 C   0  0  0  0  0  0  0  0  0  0  0  0
   48.7113   36.1143   42.8073 H   0  0  0  0  0  0  0  0  0  0  0  0
   51.0241   35.2600   43.0905 H   0  0  0  0  0  0  0  0  0  0  0  0
   51.6197   33.0196   42.2712 H   0  0  0  0  0  0  0  0  0  0  0  0
   46.5852   35.6441   41.0099 H   0  0  0  0  0  0  0  0  0  0  0  0
   46.1079   33.9126   41.0374 H   0  0  0  0  0  0  0  0  0  0  0  0
   46.5410   32.9640   43.6343 H   0  0  0  0  0  0  0  0  0  0  0  0
   45.4058   33.3264   45.8655 H   0  0  0  0  0  0  0  0  0  0  0  0
   44.1501   37.1925   44.5762 H   0  0  0  0  0  0  0  0  0  0  0  0
   46.5537   32.4725   40.5826 H   0  0  0  0  0  0  0  0  0  0  0  0
   49.5895   32.0269   38.7130 H   0  0  0  0  0  0  0  0  0  0  0  0
   52.5886   30.3782   41.3269 H   0  0  0  0  0  0  0  0  0  0  0  0
   54.9893   29.8589   40.0108 H   0  0  0  0  0  0  0  0  0  0  0  0
   55.8582   30.1354   37.5407 H   0  0  0  0  0  0  0  0  0  0  0  0
   51.1769   31.9307   36.7719 H   0  0  0  0  0  0  0  0  0  0  0  0
  1  6  2  0
  1  2  1  0
  2  3  2  0
  3  4  1  0
  5  4  2  0
  6  5  1  0
  7  2  1  0
  7  8  1  0
  8 13  1  0
  8  9  2  0
  9 10  1  0
 10 11  2  0
 12 11  1  0
 13 12  2  0
 14  1  1  0
 15  6  1  0
 16 17  2  0
 17 18  1  0
 17 15  1  0
 19 18  2  0
 20 19  1  0
 21 20  1  0
 22 21  2  0
 22 23  1  0
 23 19  1  0
 24 23  2  0
 24 16  1  0
  3 25  1  0
  4 26  1  0
  5 27  1  0
  7 28  1  0
  7 29  1  0
  9 30  1  0
 10 31  1  0
 12 32  1  0
 14 33  1  0
 16 34  1  0
 18 35  1  0
 20 36  1  0
 21 37  1  0
 24 38  1  0
M  ISO  8  25  14  26  14  27  14  28   8  29   8  30  14  31  14  32  14
M  ISO  6  33   3  34  14  35  14  36   9  37  14  38  14
M  END
>  <minimizedAffinity>  (1) 
-5.59705687

>  <minimizedRMSD>  (1) 
2.30808306

$$$$
