
     RDKit          3D

 33 34  0  0  1  0  0  0  0  0999 V2000
   49.0030   33.0840   42.1550 N   0  0  0  0  0  0  0  0  0  0  0  0
   48.1240   32.2230   41.4780 C   0  0  0  0  0  0  0  0  0  0  0  0
   48.6150   31.6260   40.1920 C   0  0  0  0  0  0  0  0  0  0  0  0
   50.1000   31.4420   40.0910 C   0  0  0  0  0  0  0  0  0  0  0  0
   50.7990   31.7900   41.3920 C   0  0  0  0  0  0  0  0  0  0  0  0
   50.3170   33.2250   41.6820 C   0  0  2  0  0  0  0  0  0  0  0  0
   48.3860   34.2290   42.7540 C   0  0  0  0  0  0  0  0  0  0  0  0
   46.9480   34.3280   42.3490 C   0  0  0  0  0  0  0  0  0  0  0  0
   44.4850   35.9390   44.6990 C   0  0  0  0  0  0  0  0  0  0  0  0
   45.2630   35.6980   43.5400 C   0  0  0  0  0  0  0  0  0  0  0  0
   46.1180   34.6150   43.5420 C   0  0  0  0  0  0  0  0  0  0  0  0
   46.1620   33.8520   44.6460 N   0  0  0  0  0  0  0  0  0  0  0  0
   45.4130   34.0910   45.7510 C   0  0  0  0  0  0  0  0  0  0  0  0
   44.5690   35.1420   45.7770 N   0  0  0  0  0  0  0  0  0  0  0  0
   51.1780   33.8040   42.7110 N   0  0  0  0  0  0  0  0  0  0  0  0
   47.8816   31.3933   42.1584 H   0  0  0  0  0  0  0  0  0  0  0  0
   47.2680   32.8526   41.1936 H   0  0  0  0  0  0  0  0  0  0  0  0
   48.1425   30.6397   40.0741 H   0  0  0  0  0  0  0  0  0  0  0  0
   48.3454   32.3440   39.4034 H   0  0  0  0  0  0  0  0  0  0  0  0
   50.3129   30.3919   39.8419 H   0  0  0  0  0  0  0  0  0  0  0  0
   50.4765   32.1172   39.3085 H   0  0  0  0  0  0  0  0  0  0  0  0
   50.4980   31.1032   42.1968 H   0  0  0  0  0  0  0  0  0  0  0  0
   51.8941   31.7091   41.3268 H   0  0  0  0  0  0  0  0  0  0  0  0
   50.3524   33.8817   40.8002 H   0  0  0  0  0  0  0  0  0  0  0  0
   48.4476   34.1410   43.8487 H   0  0  0  0  0  0  0  0  0  0  0  0
   48.9123   35.1329   42.4135 H   0  0  0  0  0  0  0  0  0  0  0  0
   46.8286   35.1390   41.6154 H   0  0  0  0  0  0  0  0  0  0  0  0
   46.6273   33.3768   41.8992 H   0  0  0  0  0  0  0  0  0  0  0  0
   43.7973   36.7973   44.7166 H   0  0  0  0  0  0  0  0  0  0  0  0
   45.1876   36.3565   42.6621 H   0  0  0  0  0  0  0  0  0  0  0  0
   45.4940   33.4281   46.6251 H   0  0  0  0  0  0  0  0  0  0  0  0
   50.8128   33.5584   43.6423 H   0  0  0  0  0  0  0  0  0  0  0  0
   52.1333   33.4330   42.6080 H   0  0  0  0  0  0  0  0  0  0  0  0
  1  7  1  0
  2  1  1  0
  3  2  1  0
  4  3  1  0
  4  5  1  0
  5  6  1  0
  6  1  1  0
  6 15  1  0
  8  7  1  0
  8 11  1  0
  9 14  2  0
 10 11  2  0
 10  9  1  0
 11 12  1  0
 12 13  2  0
 13 14  1  0
  2 16  1  0
  2 17  1  0
  3 18  1  0
  3 19  1  0
  4 20  1  0
  4 21  1  0
  5 22  1  0
  5 23  1  0
  6 24  1  6
  7 25  1  0
  7 26  1  0
  8 27  1  0
  8 28  1  0
  9 29  1  0
 10 30  1  0
 13 31  1  0
 15 32  1  0
 15 33  1  0
M  ISO  8  16  13  17  13  18  13  19  13  20  13  21  13  22  13  23  13
M  ISO  8  24  13  25   8  26   8  27   8  28   8  29  14  30  14  31  14
M  ISO  2  32   5  33   5
M  END
>  <minimizedAffinity>  (1) 
-4.34751368

>  <minimizedRMSD>  (1) 
2.23164248

$$$$
