
     RDKit          3D

 35 37  0  0  0  0  0  0  0  0999 V2000
   48.4040   32.9740   41.4370 C   0  0  0  0  0  0  0  0  0  0  0  0
   48.0540   34.2460   41.8220 C   0  0  0  0  0  0  0  0  0  0  0  0
   49.0120   35.0480   42.4080 C   0  0  0  0  0  0  0  0  0  0  0  0
   50.2910   34.5590   42.5960 C   0  0  0  0  0  0  0  0  0  0  0  0
   50.6000   33.2780   42.1960 C   0  0  0  0  0  0  0  0  0  0  0  0
   49.6530   32.4460   41.6010 C   0  0  0  0  0  0  0  0  0  0  0  0
   46.6530   34.6470   41.5660 C   0  0  0  0  0  0  0  0  0  0  0  0
   45.9510   34.8990   42.8890 C   0  0  0  0  0  0  0  0  0  0  0  0
   46.0030   33.8970   43.8400 C   0  0  0  0  0  0  0  0  0  0  0  0
   45.3630   34.1390   45.0540 C   0  0  0  0  0  0  0  0  0  0  0  0
   44.7410   35.3140   45.2280 N   0  0  0  0  0  0  0  0  0  0  0  0
   44.7070   36.2800   44.2760 C   0  0  0  0  0  0  0  0  0  0  0  0
   45.3130   36.0710   43.1030 N   0  0  0  0  0  0  0  0  0  0  0  0
   47.4960   32.0750   40.8280 O   0  0  0  0  0  0  0  0  0  0  0  0
   50.0540   31.1670   41.2290 O   0  0  0  0  0  0  0  0  0  0  0  0
   52.3950   29.8050   42.7770 Br  0  0  0  0  0  0  0  0  0  0  0  0
   52.4150   30.5030   41.0170 C   0  0  0  0  0  0  0  0  0  0  0  0
   51.2530   31.0650   40.5340 C   0  0  0  0  0  0  0  0  0  0  0  0
   51.3330   31.5580   39.2360 C   0  0  0  0  0  0  0  0  0  0  0  0
   52.4500   31.5320   38.4140 C   0  0  0  0  0  0  0  0  0  0  0  0
   53.5920   30.9510   38.9630 C   0  0  0  0  0  0  0  0  0  0  0  0
   53.5690   30.4400   40.2580 C   0  0  0  0  0  0  0  0  0  0  0  0
   48.7591   36.0709   42.7238 H   0  0  0  0  0  0  0  0  0  0  0  0
   51.0600   35.1913   43.0638 H   0  0  0  0  0  0  0  0  0  0  0  0
   51.6218   32.9011   42.3502 H   0  0  0  0  0  0  0  0  0  0  0  0
   46.6388   35.5662   40.9620 H   0  0  0  0  0  0  0  0  0  0  0  0
   46.1344   33.8439   41.0218 H   0  0  0  0  0  0  0  0  0  0  0  0
   46.5271   32.9494   43.6467 H   0  0  0  0  0  0  0  0  0  0  0  0
   45.3680   33.3823   45.8524 H   0  0  0  0  0  0  0  0  0  0  0  0
   44.1844   37.2287   44.4681 H   0  0  0  0  0  0  0  0  0  0  0  0
   46.5608   32.3535   40.6606 H   0  0  0  0  0  0  0  0  0  0  0  0
   50.4216   32.0129   38.8208 H   0  0  0  0  0  0  0  0  0  0  0  0
   52.4356   31.9436   37.3940 H   0  0  0  0  0  0  0  0  0  0  0  0
   54.5167   30.8959   38.3697 H   0  0  0  0  0  0  0  0  0  0  0  0
   54.4758   29.9827   40.6805 H   0  0  0  0  0  0  0  0  0  0  0  0
  1  6  2  0
  1  2  1  0
  2  3  2  0
  3  4  1  0
  5  4  2  0
  6  5  1  0
  7  2  1  0
  7  8  1  0
  8 13  1  0
  8  9  2  0
  9 10  1  0
 10 11  2  0
 12 11  1  0
 13 12  2  0
 14  1  1  0
 15  6  1  0
 17 16  1  0
 18 17  2  0
 18 15  1  0
 19 18  1  0
 20 21  1  0
 20 19  2  0
 21 22  2  0
 22 17  1  0
  3 23  1  0
  4 24  1  0
  5 25  1  0
  7 26  1  0
  7 27  1  0
  9 28  1  0
 10 29  1  0
 12 30  1  0
 14 31  1  0
 19 32  1  0
 20 33  1  0
 21 34  1  0
 22 35  1  0
M  ISO  8  23  14  24  14  25  14  26   8  27   8  28  14  29  14  30  14
M  ISO  5  31   3  32  14  33  14  34  14  35  14
M  END
>  <minimizedAffinity>  (1) 
-5.43327284

>  <minimizedRMSD>  (1) 
1.82960951

$$$$
