
     RDKit          3D

 44 46  0  0  1  0  0  0  0  0999 V2000
   47.4420   30.7440   47.9900 N   0  0  0  0  0  0  0  0  0  0  0  0
   46.7090   30.8440   49.1990 C   0  0  0  0  0  0  0  0  0  0  0  0
   45.7310   31.9990   49.2630 C   0  0  0  0  0  0  0  0  0  0  0  0
   45.1150   32.3700   47.9410 C   0  0  0  0  0  0  0  0  0  0  0  0
   45.5280   31.4120   46.8500 C   0  0  0  0  0  0  0  0  0  0  0  0
   47.0990   31.4900   46.8760 C   0  0  2  0  0  0  0  0  0  0  0  0
   48.8120   30.3450   48.1610 C   0  0  0  0  0  0  0  0  0  0  0  0
   49.2790   30.8200   49.5020 C   0  0  0  0  0  0  0  0  0  0  0  0
   50.6940   27.4200   50.2370 C   0  0  0  0  0  0  0  0  0  0  0  0
   50.0880   28.4960   49.5610 C   0  0  0  0  0  0  0  0  0  0  0  0
   49.9190   29.6900   50.2240 C   0  0  0  0  0  0  0  0  0  0  0  0
   50.3440   29.7630   51.4890 N   0  0  0  0  0  0  0  0  0  0  0  0
   50.9210   28.7300   52.1280 C   0  0  0  0  0  0  0  0  0  0  0  0
   51.1010   27.5450   51.5030 N   0  0  0  0  0  0  0  0  0  0  0  0
   47.4270   30.8380   45.6970 O   0  0  0  0  0  0  0  0  0  0  0  0
   45.9830   31.2850   43.5090 O   0  0  0  0  0  0  0  0  0  0  0  0
   47.1750   31.7890   44.3320 P   0  0  2  0  0  0  0  0  0  0  0  0
   48.5330   31.5260   43.3200 O   0  0  0  0  0  0  0  0  0  0  0  0
   47.0920   33.4050   44.6640 O   0  0  0  0  0  0  0  0  0  0  0  0
   46.1970   34.3530   44.2500 C   0  0  0  0  0  0  0  0  0  0  0  0
   45.1250   34.7310   45.0650 C   0  0  0  0  0  0  0  0  0  0  0  0
   44.4440   35.6990   44.3240 C   0  0  0  0  0  0  0  0  0  0  0  0
   45.1340   35.8490   43.1180 C   0  0  0  0  0  0  0  0  0  0  0  0
   46.1570   35.0350   43.1260 O   0  0  0  0  0  0  0  0  0  0  0  0
   46.1431   29.9103   49.3328 H   0  0  0  0  0  0  0  0  0  0  0  0
   47.4492   31.0246   49.9924 H   0  0  0  0  0  0  0  0  0  0  0  0
   44.9207   31.7250   49.9546 H   0  0  0  0  0  0  0  0  0  0  0  0
   46.3045   32.8760   49.5977 H   0  0  0  0  0  0  0  0  0  0  0  0
   44.0195   32.3496   48.0388 H   0  0  0  0  0  0  0  0  0  0  0  0
   45.4650   33.3763   47.6674 H   0  0  0  0  0  0  0  0  0  0  0  0
   45.1336   31.7321   45.8743 H   0  0  0  0  0  0  0  0  0  0  0  0
   45.1449   30.3925   47.0044 H   0  0  0  0  0  0  0  0  0  0  0  0
   47.5789   32.4781   46.9337 H   0  0  0  0  0  0  0  0  0  0  0  0
   48.8891   29.2490   48.1076 H   0  0  0  0  0  0  0  0  0  0  0  0
   49.4349   30.7828   47.3671 H   0  0  0  0  0  0  0  0  0  0  0  0
   50.0081   31.6332   49.3710 H   0  0  0  0  0  0  0  0  0  0  0  0
   48.4214   31.1914   50.0822 H   0  0  0  0  0  0  0  0  0  0  0  0
   50.8344   26.4621   49.7148 H   0  0  0  0  0  0  0  0  0  0  0  0
   49.7547   28.3840   48.5187 H   0  0  0  0  0  0  0  0  0  0  0  0
   51.2501   28.8506   53.1707 H   0  0  0  0  0  0  0  0  0  0  0  0
   49.3355   31.3706   43.8784 H   0  0  0  0  0  0  0  0  0  0  0  0
   44.8743   34.3506   46.0662 H   0  0  0  0  0  0  0  0  0  0  0  0
   43.5371   36.2404   44.6311 H   0  0  0  0  0  0  0  0  0  0  0  0
   44.8628   36.5346   42.3017 H   0  0  0  0  0  0  0  0  0  0  0  0
  1  7  1  0
  1  2  1  0
  2  3  1  0
  4  3  1  0
  5  6  1  0
  5  4  1  0
  6  1  1  0
  7  8  1  0
  8 11  1  0
  9 14  2  0
 10 11  2  0
 10  9  1  0
 11 12  1  0
 12 13  2  0
 14 13  1  0
 15  6  1  0
 17 16  2  0
 17 19  1  0
 17 15  1  0
 18 17  1  0
 20 19  1  0
 20 21  2  0
 22 21  1  0
 23 24  1  0
 23 22  2  0
 24 20  1  0
  2 25  1  0
  2 26  1  0
  3 27  1  0
  3 28  1  0
  4 29  1  0
  4 30  1  0
  5 31  1  0
  5 32  1  0
  6 33  1  1
  7 34  1  0
  7 35  1  0
  8 36  1  0
  8 37  1  0
  9 38  1  0
 10 39  1  0
 13 40  1  0
 18 41  1  0
 21 42  1  0
 22 43  1  0
 23 44  1  0
M  ISO  8  25  13  26  13  27  13  28  13  29  13  30  13  31  13  32  13
M  ISO  8  33  13  34   8  35   8  36   8  37   8  38  14  39  14  40  14
M  ISO  4  41   3  42  14  43  14  44  14
M  END
>  <minimizedAffinity>  (1) 
-5.11447906

>  <minimizedRMSD>  (1) 
8.39582825

$$$$
