
     RDKit          3D

 52 54  0  0  1  0  0  0  0  0999 V2000
   46.7110   34.3470   43.4910 N   0  0  0  0  0  0  0  0  0  0  0  0
   46.4700   34.9500   42.2360 C   0  0  0  0  0  0  0  0  0  0  0  0
   45.0010   35.0000   41.8440 C   0  0  0  0  0  0  0  0  0  0  0  0
   44.0680   35.2160   43.0110 C   0  0  0  0  0  0  0  0  0  0  0  0
   44.8290   35.4130   44.3090 C   0  0  0  0  0  0  0  0  0  0  0  0
   45.7160   34.1050   44.4040 C   0  0  2  0  0  0  0  0  0  0  0  0
   47.9020   33.5360   43.5380 C   0  0  0  0  0  0  0  0  0  0  0  0
   47.6700   32.3260   42.7080 C   0  0  0  0  0  0  0  0  0  0  0  0
   51.2030   32.1900   41.4510 C   0  0  0  0  0  0  0  0  0  0  0  0
   50.0830   32.3940   42.2820 C   0  0  0  0  0  0  0  0  0  0  0  0
   48.8290   32.1020   41.8130 C   0  0  0  0  0  0  0  0  0  0  0  0
   48.7390   31.6310   40.5740 N   0  0  0  0  0  0  0  0  0  0  0  0
   49.7890   31.4320   39.7740 C   0  0  0  0  0  0  0  0  0  0  0  0
   51.0420   31.7090   40.2020 N   0  0  0  0  0  0  0  0  0  0  0  0
   46.1390   34.1810   45.7200 O   0  0  0  0  0  0  0  0  0  0  0  0
   45.5790   31.5780   45.5840 O   0  0  0  0  0  0  0  0  0  0  0  0
   46.0070   32.7060   46.5210 P   0  0  2  0  0  0  0  0  0  0  0  0
   44.7010   32.8980   47.6180 O   0  0  0  0  0  0  0  0  0  0  0  0
   47.3690   32.3170   47.4080 O   0  0  0  0  0  0  0  0  0  0  0  0
   47.6850   30.9940   47.1730 C   0  0  0  0  0  0  0  0  0  0  0  0
   50.3520   30.1810   49.3230 C   0  0  2  0  0  0  0  0  0  0  0  0
   49.4060   29.5860   48.3210 C   0  0  0  0  0  0  0  0  0  0  0  0
   48.1560   30.3990   48.5080 C   0  0  1  0  0  0  0  0  0  0  0  0
   48.4110   31.3770   49.4310 O   0  0  0  0  0  0  0  0  0  0  0  0
   49.7820   31.5740   49.4890 C   0  0  0  0  0  0  0  0  0  0  0  0
   51.6280   30.2170   48.7650 O   0  0  0  0  0  0  0  0  0  0  0  0
   46.8545   35.9801   42.2679 H   0  0  0  0  0  0  0  0  0  0  0  0
   46.9788   34.3304   41.4829 H   0  0  0  0  0  0  0  0  0  0  0  0
   44.8602   35.8246   41.1297 H   0  0  0  0  0  0  0  0  0  0  0  0
   44.7509   34.0208   41.4097 H   0  0  0  0  0  0  0  0  0  0  0  0
   43.4560   36.1093   42.8175 H   0  0  0  0  0  0  0  0  0  0  0  0
   43.4371   34.3210   43.1158 H   0  0  0  0  0  0  0  0  0  0  0  0
   45.4576   36.3147   44.2658 H   0  0  0  0  0  0  0  0  0  0  0  0
   44.1717   35.5551   45.1795 H   0  0  0  0  0  0  0  0  0  0  0  0
   45.2770   33.1185   44.1940 H   0  0  0  0  0  0  0  0  0  0  0  0
   48.7555   34.1037   43.1390 H   0  0  0  0  0  0  0  0  0  0  0  0
   48.1265   33.2487   44.5758 H   0  0  0  0  0  0  0  0  0  0  0  0
   47.5408   31.4524   43.3639 H   0  0  0  0  0  0  0  0  0  0  0  0
   46.7644   32.4703   42.1005 H   0  0  0  0  0  0  0  0  0  0  0  0
   52.2115   32.4240   41.8227 H   0  0  0  0  0  0  0  0  0  0  0  0
   50.2148   32.7855   43.3015 H   0  0  0  0  0  0  0  0  0  0  0  0
   49.6340   31.0395   38.7582 H   0  0  0  0  0  0  0  0  0  0  0  0
   45.0401   32.8481   48.5468 H   0  0  0  0  0  0  0  0  0  0  0  0
   46.7986   30.4529   46.8104 H   0  0  0  0  0  0  0  0  0  0  0  0
   48.4702   30.9088   46.4073 H   0  0  0  0  0  0  0  0  0  0  0  0
   50.4421   29.6358   50.2741 H   0  0  0  0  0  0  0  0  0  0  0  0
   49.2214   28.5229   48.5350 H   0  0  0  0  0  0  0  0  0  0  0  0
   49.7915   29.6163   47.2912 H   0  0  0  0  0  0  0  0  0  0  0  0
   47.3414   29.7566   48.8738 H   0  0  0  0  0  0  0  0  0  0  0  0
   50.0757   32.0052   50.4574 H   0  0  0  0  0  0  0  0  0  0  0  0
   50.1444   32.2769   48.7244 H   0  0  0  0  0  0  0  0  0  0  0  0
   52.3040   30.2361   49.4881 H   0  0  0  0  0  0  0  0  0  0  0  0
  1  7  1  0
  1  6  1  0
  2  1  1  0
  3  2  1  0
  3  4  1  0
  4  5  1  0
  5  6  1  0
  6 15  1  0
  8  7  1  0
  9 10  2  0
 11 10  1  0
 11  8  1  0
 12 11  2  0
 13 14  2  0
 13 12  1  0
 14  9  1  0
 15 17  1  0
 17 16  2  0
 17 19  1  0
 17 18  1  0
 20 19  1  0
 21 26  1  0
 21 25  1  0
 22 23  1  0
 22 21  1  0
 23 20  1  0
 23 24  1  0
 24 25  1  0
  2 27  1  0
  2 28  1  0
  3 29  1  0
  3 30  1  0
  4 31  1  0
  4 32  1  0
  5 33  1  0
  5 34  1  0
  6 35  1  6
  7 36  1  0
  7 37  1  0
  8 38  1  0
  8 39  1  0
  9 40  1  0
 10 41  1  0
 13 42  1  0
 18 43  1  0
 20 44  1  0
 20 45  1  0
 21 46  1  1
 22 47  1  0
 22 48  1  0
 23 49  1  1
 25 50  1  0
 25 51  1  0
 26 52  1  0
M  ISO  8  27  13  28  13  29  13  30  13  31  13  32  13  33  13  34  13
M  ISO  8  35  13  36   8  37   8  38   8  39   8  40  14  41  14  42  14
M  ISO  8  43   3  44   8  45   8  46  13  47  13  48  13  49  13  50  13
M  ISO  2  51  13  52   3
M  END
>  <minimizedAffinity>  (1) 
-4.93625879

>  <minimizedRMSD>  (1) 
3.273947

$$$$
