
     RDKit          3D

 46 48  0  0  1  0  0  0  0  0999 V2000
   46.7340   34.4880   43.5730 N   0  0  0  0  0  0  0  0  0  0  0  0
   46.2600   35.5490   42.7630 C   0  0  0  0  0  0  0  0  0  0  0  0
   44.7670   35.7450   42.7940 C   0  0  0  0  0  0  0  0  0  0  0  0
   44.1150   35.4220   44.1190 C   0  0  0  0  0  0  0  0  0  0  0  0
   45.1470   35.0530   45.1610 C   0  0  0  0  0  0  0  0  0  0  0  0
   45.9160   33.8580   44.4920 C   0  0  2  0  0  0  0  0  0  0  0  0
   47.8120   33.7340   42.9820 C   0  0  0  0  0  0  0  0  0  0  0  0
   47.2490   32.6880   42.0960 C   0  0  0  0  0  0  0  0  0  0  0  0
   49.0700   31.9910   38.8860 C   0  0  0  0  0  0  0  0  0  0  0  0
   48.5540   31.8530   40.1880 C   0  0  0  0  0  0  0  0  0  0  0  0
   47.7860   32.8470   40.7230 C   0  0  0  0  0  0  0  0  0  0  0  0
   47.5560   33.9270   39.9650 N   0  0  0  0  0  0  0  0  0  0  0  0
   48.0470   34.0620   38.7210 C   0  0  0  0  0  0  0  0  0  0  0  0
   48.8040   33.1040   38.1680 N   0  0  0  0  0  0  0  0  0  0  0  0
   46.6230   33.3540   45.5710 O   0  0  0  0  0  0  0  0  0  0  0  0
   45.5540   31.0620   44.7630 O   0  0  0  0  0  0  0  0  0  0  0  0
   46.1760   31.7720   45.9620 P   0  0  2  0  0  0  0  0  0  0  0  0
   44.9460   31.8910   47.1300 O   0  0  0  0  0  0  0  0  0  0  0  0
   47.4410   30.8970   46.6130 O   0  0  0  0  0  0  0  0  0  0  0  0
   47.3710   29.5840   46.1950 C   0  0  0  0  0  0  0  0  0  0  0  0
   46.5090   28.7190   47.0280 C   0  0  0  0  0  0  0  0  0  0  0  0
   46.6310   27.3720   46.9690 N   0  0  0  0  0  0  0  0  0  0  0  0
   45.7460   26.7910   47.8120 C   0  0  0  0  0  0  0  0  0  0  0  0
   45.0660   27.8070   48.4010 N   0  0  0  0  0  0  0  0  0  0  0  0
   45.5340   28.9340   47.9220 N   0  0  0  0  0  0  0  0  0  0  0  0
   46.5576   35.3461   41.7236 H   0  0  0  0  0  0  0  0  0  0  0  0
   46.7031   36.4710   43.1675 H   0  0  0  0  0  0  0  0  0  0  0  0
   44.5545   36.7975   42.5551 H   0  0  0  0  0  0  0  0  0  0  0  0
   44.3459   35.0414   42.0608 H   0  0  0  0  0  0  0  0  0  0  0  0
   43.5532   36.3016   44.4663 H   0  0  0  0  0  0  0  0  0  0  0  0
   43.4422   34.5636   43.9760 H   0  0  0  0  0  0  0  0  0  0  0  0
   45.8246   35.8959   45.3616 H   0  0  0  0  0  0  0  0  0  0  0  0
   44.7053   34.7926   46.1342 H   0  0  0  0  0  0  0  0  0  0  0  0
   45.3452   33.0636   43.9888 H   0  0  0  0  0  0  0  0  0  0  0  0
   48.4527   34.4078   42.3942 H   0  0  0  0  0  0  0  0  0  0  0  0
   48.4104   33.2623   43.7754 H   0  0  0  0  0  0  0  0  0  0  0  0
   47.5242   31.6956   42.4826 H   0  0  0  0  0  0  0  0  0  0  0  0
   46.1537   32.7863   42.0701 H   0  0  0  0  0  0  0  0  0  0  0  0
   49.6901   31.1924   38.4528 H   0  0  0  0  0  0  0  0  0  0  0  0
   48.7689   30.9467   40.7731 H   0  0  0  0  0  0  0  0  0  0  0  0
   47.8239   34.9737   38.1474 H   0  0  0  0  0  0  0  0  0  0  0  0
   45.3455   31.8524   48.0350 H   0  0  0  0  0  0  0  0  0  0  0  0
   46.9791   29.5714   45.1672 H   0  0  0  0  0  0  0  0  0  0  0  0
   48.3899   29.1769   46.2728 H   0  0  0  0  0  0  0  0  0  0  0  0
   45.6062   25.7137   47.9847 H   0  0  0  0  0  0  0  0  0  0  0  0
   44.3157   27.7099   49.1000 H   0  0  0  0  0  0  0  0  0  0  0  0
  1  6  1  0
  2  3  1  0
  2  1  1  0
  3  4  1  0
  4  5  1  0
  6  5  1  0
  6 15  1  0
  7  1  1  0
  8  7  1  0
  9 10  2  0
 10 11  1  0
 11  8  1  0
 12 11  2  0
 13 12  1  0
 14 13  2  0
 14  9  1  0
 15 17  1  0
 17 16  2  0
 17 19  1  0
 17 18  1  0
 20 19  1  0
 20 21  1  0
 21 25  2  0
 22 21  1  0
 22 23  2  0
 23 24  1  0
 25 24  1  0
  2 26  1  0
  2 27  1  0
  3 28  1  0
  3 29  1  0
  4 30  1  0
  4 31  1  0
  5 32  1  0
  5 33  1  0
  6 34  1  6
  7 35  1  0
  7 36  1  0
  8 37  1  0
  8 38  1  0
  9 39  1  0
 10 40  1  0
 13 41  1  0
 18 42  1  0
 20 43  1  0
 20 44  1  0
 23 45  1  0
 24 46  1  0
M  ISO  8  26  13  27  13  28  13  29  13  30  13  31  13  32  13  33  13
M  ISO  8  34  13  35   8  36   8  37   8  38   8  39  14  40  14  41  14
M  ISO  5  42   3  43   8  44   8  45  14  46   9
M  END
>  <minimizedAffinity>  (1) 
-4.32644224

>  <minimizedRMSD>  (1) 
1.26936316

$$$$
