
     RDKit          3D

 41 42  0  0  1  0  0  0  0  0999 V2000
   46.7720   34.3510   43.6340 N   0  0  0  0  0  0  0  0  0  0  0  0
   46.3720   35.1890   42.5730 C   0  0  0  0  0  0  0  0  0  0  0  0
   44.8680   35.3110   42.3970 C   0  0  0  0  0  0  0  0  0  0  0  0
   44.0940   35.2600   43.6880 C   0  0  0  0  0  0  0  0  0  0  0  0
   45.0190   35.2100   44.8940 C   0  0  0  0  0  0  0  0  0  0  0  0
   45.8950   33.9240   44.6000 C   0  0  2  0  0  0  0  0  0  0  0  0
   47.9160   33.5340   43.3250 C   0  0  0  0  0  0  0  0  0  0  0  0
   47.4640   32.3320   42.5840 C   0  0  0  0  0  0  0  0  0  0  0  0
   50.1030   31.6870   39.9790 C   0  0  0  0  0  0  0  0  0  0  0  0
   49.4290   31.7500   41.2110 C   0  0  0  0  0  0  0  0  0  0  0  0
   48.1660   32.2720   41.2750 C   0  0  0  0  0  0  0  0  0  0  0  0
   47.6280   32.7070   40.1240 N   0  0  0  0  0  0  0  0  0  0  0  0
   48.2670   32.6480   38.9530 C   0  0  0  0  0  0  0  0  0  0  0  0
   49.5020   32.1440   38.8530 N   0  0  0  0  0  0  0  0  0  0  0  0
   46.5120   33.7210   45.8300 O   0  0  0  0  0  0  0  0  0  0  0  0
   45.7130   31.2270   45.4070 O   0  0  0  0  0  0  0  0  0  0  0  0
   46.1840   32.2100   46.4840 P   0  0  2  0  0  0  0  0  0  0  0  0
   44.8500   32.4280   47.5240 O   0  0  0  0  0  0  0  0  0  0  0  0
   47.4600   31.6060   47.3760 O   0  0  0  0  0  0  0  0  0  0  0  0
   47.3640   30.2170   47.3810 C   0  0  0  0  0  0  0  0  0  0  0  0
   46.1400   29.8520   47.9440 O   0  0  0  0  0  0  0  0  0  0  0  0
   46.7787   36.1943   42.7575 H   0  0  0  0  0  0  0  0  0  0  0  0
   46.7580   34.7305   41.6506 H   0  0  0  0  0  0  0  0  0  0  0  0
   44.6542   36.2704   41.9032 H   0  0  0  0  0  0  0  0  0  0  0  0
   44.5464   34.4458   41.7987 H   0  0  0  0  0  0  0  0  0  0  0  0
   43.4612   36.1569   43.7605 H   0  0  0  0  0  0  0  0  0  0  0  0
   43.4817   34.3462   43.6861 H   0  0  0  0  0  0  0  0  0  0  0  0
   45.6450   36.1126   44.9527 H   0  0  0  0  0  0  0  0  0  0  0  0
   44.4853   35.1671   45.8549 H   0  0  0  0  0  0  0  0  0  0  0  0
   45.3975   33.0053   44.2557 H   0  0  0  0  0  0  0  0  0  0  0  0
   48.6213   34.1063   42.7045 H   0  0  0  0  0  0  0  0  0  0  0  0
   48.4183   33.2303   44.2553 H   0  0  0  0  0  0  0  0  0  0  0  0
   47.6978   31.4300   43.1685 H   0  0  0  0  0  0  0  0  0  0  0  0
   46.3779   32.3865   42.4187 H   0  0  0  0  0  0  0  0  0  0  0  0
   51.1183   31.2668   39.9286 H   0  0  0  0  0  0  0  0  0  0  0  0
   49.9174   31.3793   42.1243 H   0  0  0  0  0  0  0  0  0  0  0  0
   47.7656   33.0230   38.0486 H   0  0  0  0  0  0  0  0  0  0  0  0
   45.1536   32.3784   48.4650 H   0  0  0  0  0  0  0  0  0  0  0  0
   47.4240   29.8387   46.3498 H   0  0  0  0  0  0  0  0  0  0  0  0
   48.1884   29.7878   47.9693 H   0  0  0  0  0  0  0  0  0  0  0  0
   46.2114   29.8733   48.9312 H   0  0  0  0  0  0  0  0  0  0  0  0
  1  6  1  0
  2  1  1  0
  3  2  1  0
  3  4  1  0
  4  5  1  0
  6  5  1  0
  6 15  1  0
  7  1  1  0
  8  7  1  0
  9 10  2  0
 10 11  1  0
 11  8  1  0
 12 11  2  0
 13 12  1  0
 14 13  2  0
 14  9  1  0
 15 17  1  0
 17 16  2  0
 17 19  1  0
 17 18  1  0
 19 20  1  0
 20 21  1  0
  2 22  1  0
  2 23  1  0
  3 24  1  0
  3 25  1  0
  4 26  1  0
  4 27  1  0
  5 28  1  0
  5 29  1  0
  6 30  1  6
  7 31  1  0
  7 32  1  0
  8 33  1  0
  8 34  1  0
  9 35  1  0
 10 36  1  0
 13 37  1  0
 18 38  1  0
 20 39  1  0
 20 40  1  0
 21 41  1  0
M  ISO  8  22  13  23  13  24  13  25  13  26  13  27  13  28  13  29  13
M  ISO  8  30  13  31   8  32   8  33   8  34   8  35  14  36  14  37  14
M  ISO  4  38   3  39   8  40   8  41   3
M  END
>  <minimizedAffinity>  (1) 
-4.02833796

>  <minimizedRMSD>  (1) 
1.67700851

$$$$
