
     RDKit          3D

 42 43  0  0  1  0  0  0  0  0999 V2000
   46.5620   34.5860   43.5640 N   0  0  0  0  0  0  0  0  0  0  0  0
   46.0340   35.5130   42.6470 C   0  0  0  0  0  0  0  0  0  0  0  0
   44.5170   35.6220   42.6520 C   0  0  0  0  0  0  0  0  0  0  0  0
   43.9000   35.4430   44.0100 C   0  0  0  0  0  0  0  0  0  0  0  0
   44.9420   35.2600   45.0770 C   0  0  0  0  0  0  0  0  0  0  0  0
   45.7860   34.0390   44.5690 C   0  0  2  0  0  0  0  0  0  0  0  0
   47.6880   33.8330   43.0730 C   0  0  0  0  0  0  0  0  0  0  0  0
   47.1590   32.7210   42.2190 C   0  0  0  0  0  0  0  0  0  0  0  0
   49.0720   31.9410   39.0680 C   0  0  0  0  0  0  0  0  0  0  0  0
   48.5190   31.8340   40.3610 C   0  0  0  0  0  0  0  0  0  0  0  0
   47.7360   32.8460   40.8530 C   0  0  0  0  0  0  0  0  0  0  0  0
   47.5310   33.9050   40.0670 N   0  0  0  0  0  0  0  0  0  0  0  0
   48.0490   34.0210   38.8330 C   0  0  0  0  0  0  0  0  0  0  0  0
   48.8250   33.0400   38.3210 N   0  0  0  0  0  0  0  0  0  0  0  0
   46.5190   33.7050   45.6930 O   0  0  0  0  0  0  0  0  0  0  0  0
   45.6980   31.2450   45.1090 O   0  0  0  0  0  0  0  0  0  0  0  0
   46.2190   32.1490   46.2340 P   0  0  2  0  0  0  0  0  0  0  0  0
   44.9250   32.2670   47.3430 O   0  0  0  0  0  0  0  0  0  0  0  0
   47.5010   31.4560   47.0350 O   0  0  0  0  0  0  0  0  0  0  0  0
   47.3980   30.0780   46.9930 C   0  0  0  0  0  0  0  0  0  0  0  0
   46.2120   29.5630   47.5960 N   0  0  0  0  0  0  0  0  0  0  0  0
   46.3523   35.2146   41.6372 H   0  0  0  0  0  0  0  0  0  0  0  0
   46.4163   36.4993   42.9490 H   0  0  0  0  0  0  0  0  0  0  0  0
   44.2397   36.6170   42.2736 H   0  0  0  0  0  0  0  0  0  0  0  0
   44.1356   34.8085   42.0174 H   0  0  0  0  0  0  0  0  0  0  0  0
   43.2991   36.3331   44.2481 H   0  0  0  0  0  0  0  0  0  0  0  0
   43.2744   34.5386   43.9846 H   0  0  0  0  0  0  0  0  0  0  0  0
   45.5695   36.1586   45.1704 H   0  0  0  0  0  0  0  0  0  0  0  0
   44.5065   35.0916   46.0730 H   0  0  0  0  0  0  0  0  0  0  0  0
   45.2608   33.1541   44.1802 H   0  0  0  0  0  0  0  0  0  0  0  0
   48.3420   34.4850   42.4754 H   0  0  0  0  0  0  0  0  0  0  0  0
   48.2739   33.4279   43.9112 H   0  0  0  0  0  0  0  0  0  0  0  0
   47.4465   31.7525   42.6541 H   0  0  0  0  0  0  0  0  0  0  0  0
   46.0618   32.7806   42.1670 H   0  0  0  0  0  0  0  0  0  0  0  0
   49.7023   31.1327   38.6688 H   0  0  0  0  0  0  0  0  0  0  0  0
   48.7154   30.9412   40.9728 H   0  0  0  0  0  0  0  0  0  0  0  0
   47.8402   34.9205   38.2352 H   0  0  0  0  0  0  0  0  0  0  0  0
   45.2785   32.2348   48.2672 H   0  0  0  0  0  0  0  0  0  0  0  0
   47.4146   29.7625   45.9394 H   0  0  0  0  0  0  0  0  0  0  0  0
   48.2455   29.6793   47.5698 H   0  0  0  0  0  0  0  0  0  0  0  0
   46.3031   29.6025   48.6212 H   0  0  0  0  0  0  0  0  0  0  0  0
   45.4034   30.1287   47.3011 H   0  0  0  0  0  0  0  0  0  0  0  0
  1  6  1  0
  2  3  1  0
  2  1  1  0
  3  4  1  0
  4  5  1  0
  6  5  1  0
  6 15  1  0
  7  1  1  0
  8  7  1  0
  9 10  2  0
 10 11  1  0
 11  8  1  0
 12 11  2  0
 13 12  1  0
 14 13  2  0
 14  9  1  0
 15 17  1  0
 17 16  2  0
 17 19  1  0
 17 18  1  0
 20 19  1  0
 20 21  1  0
  2 22  1  0
  2 23  1  0
  3 24  1  0
  3 25  1  0
  4 26  1  0
  4 27  1  0
  5 28  1  0
  5 29  1  0
  6 30  1  6
  7 31  1  0
  7 32  1  0
  8 33  1  0
  8 34  1  0
  9 35  1  0
 10 36  1  0
 13 37  1  0
 18 38  1  0
 20 39  1  0
 20 40  1  0
 21 41  1  0
 21 42  1  0
M  ISO  8  22  13  23  13  24  13  25  13  26  13  27  13  28  13  29  13
M  ISO  8  30  13  31   8  32   8  33   8  34   8  35  14  36  14  37  14
M  ISO  5  38   3  39   8  40   8  41   5  42   5
M  END
>  <minimizedAffinity>  (1) 
-3.96962595

>  <minimizedRMSD>  (1) 
1.32333314

$$$$
