
     RDKit          3D

 28 29  0  0  0  0  0  0  0  0999 V2000
   48.3470   32.9690   41.8070 C   0  0  0  0  0  0  0  0  0  0  0  0
   47.9370   34.2720   41.9800 C   0  0  0  0  0  0  0  0  0  0  0  0
   48.8740   35.2290   42.3350 C   0  0  0  0  0  0  0  0  0  0  0  0
   50.2010   34.8520   42.5060 C   0  0  0  0  0  0  0  0  0  0  0  0
   50.5690   33.5490   42.3250 C   0  0  0  0  0  0  0  0  0  0  0  0
   49.6430   32.5660   41.9670 C   0  0  0  0  0  0  0  0  0  0  0  0
   46.5050   34.5300   41.7650 C   0  0  0  0  0  0  0  0  0  0  0  0
   45.8390   34.8220   43.1010 C   0  0  0  0  0  0  0  0  0  0  0  0
   45.9480   33.8630   44.0960 C   0  0  0  0  0  0  0  0  0  0  0  0
   45.3440   34.1390   45.3130 C   0  0  0  0  0  0  0  0  0  0  0  0
   44.6910   35.3110   45.4570 N   0  0  0  0  0  0  0  0  0  0  0  0
   44.6010   36.2300   44.4620 C   0  0  0  0  0  0  0  0  0  0  0  0
   45.1780   35.9800   43.2800 N   0  0  0  0  0  0  0  0  0  0  0  0
   47.4910   31.9230   41.4500 O   0  0  0  0  0  0  0  0  0  0  0  0
   50.1360   31.2720   41.8090 O   0  0  0  0  0  0  0  0  0  0  0  0
   50.4650   30.3880   42.8290 C   0  0  0  0  0  0  0  0  0  0  0  0
   51.6850   30.5950   43.4220 F   0  0  0  0  0  0  0  0  0  0  0  0
   50.3760   29.1000   42.2860 F   0  0  0  0  0  0  0  0  0  0  0  0
   49.4280   30.4380   43.7550 F   0  0  0  0  0  0  0  0  0  0  0  0
   48.5709   36.2764   42.4800 H   0  0  0  0  0  0  0  0  0  0  0  0
   50.9544   35.6026   42.7869 H   0  0  0  0  0  0  0  0  0  0  0  0
   51.6228   33.2661   42.4649 H   0  0  0  0  0  0  0  0  0  0  0  0
   46.3841   35.3959   41.0975 H   0  0  0  0  0  0  0  0  0  0  0  0
   46.0370   33.6467   41.3060 H   0  0  0  0  0  0  0  0  0  0  0  0
   46.4914   32.9217   43.9269 H   0  0  0  0  0  0  0  0  0  0  0  0
   45.3959   33.4186   46.1427 H   0  0  0  0  0  0  0  0  0  0  0  0
   44.0583   37.1727   44.6256 H   0  0  0  0  0  0  0  0  0  0  0  0
   46.5272   32.0988   41.3073 H   0  0  0  0  0  0  0  0  0  0  0  0
  1  6  2  0
  1  2  1  0
  2  3  2  0
  3  4  1  0
  5  4  2  0
  6  5  1  0
  7  2  1  0
  7  8  1  0
  8 13  1  0
  8  9  2  0
  9 10  1  0
 10 11  2  0
 12 11  1  0
 13 12  2  0
 14  1  1  0
 15  6  1  0
 15 16  1  0
 16 17  1  0
 16 19  1  0
 18 16  1  0
  3 20  1  0
  4 21  1  0
  5 22  1  0
  7 23  1  0
  7 24  1  0
  9 25  1  0
 10 26  1  0
 12 27  1  0
 14 28  1  0
M  ISO  8  20  14  21  14  22  14  23   8  24   8  25  14  26  14  27  14
M  ISO  1  28   3
M  END
>  <minimizedAffinity>  (1) 
-4.74422693

>  <minimizedRMSD>  (1) 
0.678260863

$$$$
