
     RDKit          3D

 41 44  0  0  0  0  0  0  0  0999 V2000
   47.5450   31.7690   38.9330 C   0  0  0  0  0  0  0  0  0  0  0  0
   47.1460   33.0730   38.9580 C   0  0  0  0  0  0  0  0  0  0  0  0
   47.8240   34.0170   38.2040 C   0  0  0  0  0  0  0  0  0  0  0  0
   48.8980   33.6430   37.4300 C   0  0  0  0  0  0  0  0  0  0  0  0
   49.3380   32.3220   37.3760 C   0  0  0  0  0  0  0  0  0  0  0  0
   48.6350   31.3870   38.1480 C   0  0  0  0  0  0  0  0  0  0  0  0
   45.3780   35.4230   43.2000 Cl  0  0  0  0  0  0  0  0  0  0  0  0
   45.1940   34.6390   41.6520 C   0  0  0  0  0  0  0  0  0  0  0  0
   46.2720   34.2010   40.9530 C   0  0  0  0  0  0  0  0  0  0  0  0
   46.0180   33.5760   39.7400 C   0  0  0  0  0  0  0  0  0  0  0  0
   44.7420   33.4060   39.2600 C   0  0  0  0  0  0  0  0  0  0  0  0
   43.6780   33.8510   39.9740 C   0  0  0  0  0  0  0  0  0  0  0  0
   43.9140   34.4700   41.1770 C   0  0  0  0  0  0  0  0  0  0  0  0
   49.5770   35.7440   41.9190 C   0  0  0  0  0  0  0  0  0  0  0  0
   48.2940   35.5730   41.3810 C   0  0  0  0  0  0  0  0  0  0  0  0
   47.5980   34.3910   41.5060 C   0  0  0  0  0  0  0  0  0  0  0  0
   48.2560   33.4160   42.1890 N   0  0  0  0  0  0  0  0  0  0  0  0
   49.4760   33.5710   42.7050 C   0  0  0  0  0  0  0  0  0  0  0  0
   50.1260   34.7270   42.5680 N   0  0  0  0  0  0  0  0  0  0  0  0
   46.7200   30.5880   39.8020 S   0  0  0  0  0  0  0  0  0  0  0  0
   45.4330   30.1860   39.1110 O   0  0  0  0  0  0  0  0  0  0  0  0
   47.6090   29.3040   39.6440 O   0  0  0  0  0  0  0  0  0  0  0  0
   46.3050   30.6670   41.4630 C   0  0  0  0  0  0  0  0  0  0  0  0
   47.2690   30.2180   42.4100 C   0  0  0  0  0  0  0  0  0  0  0  0
   47.2210   30.1640   43.8080 C   0  0  0  0  0  0  0  0  0  0  0  0
   46.0520   30.6250   44.2770 N   0  0  0  0  0  0  0  0  0  0  0  0
   45.0810   31.0690   43.4700 C   0  0  0  0  0  0  0  0  0  0  0  0
   45.2310   31.0760   42.1550 N   0  0  0  0  0  0  0  0  0  0  0  0
   47.5026   35.0688   38.2243 H   0  0  0  0  0  0  0  0  0  0  0  0
   49.4233   34.4070   36.8381 H   0  0  0  0  0  0  0  0  0  0  0  0
   50.1974   32.0266   36.7561 H   0  0  0  0  0  0  0  0  0  0  0  0
   48.9477   30.3325   38.1353 H   0  0  0  0  0  0  0  0  0  0  0  0
   44.5826   32.9070   38.2928 H   0  0  0  0  0  0  0  0  0  0  0  0
   42.6523   33.7194   39.5990 H   0  0  0  0  0  0  0  0  0  0  0  0
   43.0644   34.8372   41.7714 H   0  0  0  0  0  0  0  0  0  0  0  0
   50.1142   36.6972   41.8056 H   0  0  0  0  0  0  0  0  0  0  0  0
   47.8276   36.4103   40.8412 H   0  0  0  0  0  0  0  0  0  0  0  0
   49.9493   32.7393   43.2474 H   0  0  0  0  0  0  0  0  0  0  0  0
   48.2083   29.8525   41.9694 H   0  0  0  0  0  0  0  0  0  0  0  0
   48.0388   29.7906   44.4419 H   0  0  0  0  0  0  0  0  0  0  0  0
   44.1406   31.4350   43.9079 H   0  0  0  0  0  0  0  0  0  0  0  0
  1  2  1  0
  1 20  1  0
  2 10  1  0
  3  2  2  0
  4  3  1  0
  5  4  2  0
  5  6  1  0
  6  1  2  0
  8  7  1  0
  9 16  1  0
  9  8  2  0
 10  9  1  0
 11 10  2  0
 11 12  1  0
 12 13  2  0
 13  8  1  0
 14 19  2  0
 15 16  2  0
 15 14  1  0
 16 17  1  0
 17 18  2  0
 19 18  1  0
 20 23  1  0
 21 20  2  0
 22 20  2  0
 23 28  1  0
 23 24  2  0
 24 25  1  0
 25 26  2  0
 27 26  1  0
 28 27  2  0
  3 29  1  0
  4 30  1  0
  5 31  1  0
  6 32  1  0
 11 33  1  0
 12 34  1  0
 13 35  1  0
 14 36  1  0
 15 37  1  0
 18 38  1  0
 24 39  1  0
 25 40  1  0
 27 41  1  0
M  ISO  8  29  14  30  14  31  14  32  14  33  14  34  14  35  14  36  14
M  ISO  5  37  14  38  14  39  14  40  14  41  14
M  END
>  <minimizedAffinity>  (1) 
-4.75717878

>  <minimizedRMSD>  (1) 
1.12686229

$$$$
