
     RDKit          3D

 43 46  0  0  0  0  0  0  0  0999 V2000
   47.4660   31.7820   38.7380 C   0  0  0  0  0  0  0  0  0  0  0  0
   47.1350   33.0970   38.8770 C   0  0  0  0  0  0  0  0  0  0  0  0
   47.8580   34.0650   38.2010 C   0  0  0  0  0  0  0  0  0  0  0  0
   48.9090   33.7090   37.3900 C   0  0  0  0  0  0  0  0  0  0  0  0
   49.2810   32.3790   37.2210 C   0  0  0  0  0  0  0  0  0  0  0  0
   48.5350   31.4190   37.9150 C   0  0  0  0  0  0  0  0  0  0  0  0
   45.4790   35.2880   43.2510 Cl  0  0  0  0  0  0  0  0  0  0  0  0
   45.2490   34.5580   41.6820 C   0  0  0  0  0  0  0  0  0  0  0  0
   46.3040   34.1390   40.9380 C   0  0  0  0  0  0  0  0  0  0  0  0
   46.0320   33.5800   39.7010 C   0  0  0  0  0  0  0  0  0  0  0  0
   44.7500   33.4510   39.2330 C   0  0  0  0  0  0  0  0  0  0  0  0
   43.7000   33.8720   39.9850 C   0  0  0  0  0  0  0  0  0  0  0  0
   43.9630   34.4290   41.2190 C   0  0  0  0  0  0  0  0  0  0  0  0
   49.6020   35.6690   41.9960 C   0  0  0  0  0  0  0  0  0  0  0  0
   48.3070   35.5230   41.4860 C   0  0  0  0  0  0  0  0  0  0  0  0
   47.6530   34.3030   41.4610 C   0  0  0  0  0  0  0  0  0  0  0  0
   48.3790   33.3020   41.9660 N   0  0  0  0  0  0  0  0  0  0  0  0
   49.6090   33.4140   42.4560 C   0  0  0  0  0  0  0  0  0  0  0  0
   50.2170   34.5980   42.4700 N   0  0  0  0  0  0  0  0  0  0  0  0
   46.6350   30.5630   39.5550 S   0  0  0  0  0  0  0  0  0  0  0  0
   45.2950   30.2790   38.8340 O   0  0  0  0  0  0  0  0  0  0  0  0
   47.4370   29.2770   39.3220 O   0  0  0  0  0  0  0  0  0  0  0  0
   46.0860   30.6470   41.1720 C   0  0  0  0  0  0  0  0  0  0  0  0
   44.8020   30.8280   41.6700 C   0  0  0  0  0  0  0  0  0  0  0  0
   44.3960   30.9360   42.9760 C   0  0  0  0  0  0  0  0  0  0  0  0
   45.3920   30.8570   43.9190 C   0  0  0  0  0  0  0  0  0  0  0  0
   46.7240   30.6820   43.6300 C   0  0  0  0  0  0  0  0  0  0  0  0
   46.9790   30.5890   42.2790 C   0  0  0  0  0  0  0  0  0  0  0  0
   47.5896   35.1258   38.3137 H   0  0  0  0  0  0  0  0  0  0  0  0
   49.4695   34.4944   36.8619 H   0  0  0  0  0  0  0  0  0  0  0  0
   50.1225   32.0949   36.5720 H   0  0  0  0  0  0  0  0  0  0  0  0
   48.7962   30.3556   37.8100 H   0  0  0  0  0  0  0  0  0  0  0  0
   44.5707   33.0045   38.2438 H   0  0  0  0  0  0  0  0  0  0  0  0
   42.6674   33.7713   39.6195 H   0  0  0  0  0  0  0  0  0  0  0  0
   43.1269   34.7763   41.8438 H   0  0  0  0  0  0  0  0  0  0  0  0
   50.0969   36.6513   42.0026 H   0  0  0  0  0  0  0  0  0  0  0  0
   47.7899   36.4098   41.0906 H   0  0  0  0  0  0  0  0  0  0  0  0
   50.1257   32.5267   42.8507 H   0  0  0  0  0  0  0  0  0  0  0  0
   44.0036   30.8935   40.9161 H   0  0  0  0  0  0  0  0  0  0  0  0
   43.3402   31.0769   43.2507 H   0  0  0  0  0  0  0  0  0  0  0  0
   45.1036   30.9394   44.9773 H   0  0  0  0  0  0  0  0  0  0  0  0
   47.5077   30.6222   44.3996 H   0  0  0  0  0  0  0  0  0  0  0  0
   48.0375   30.4480   42.0149 H   0  0  0  0  0  0  0  0  0  0  0  0
  1  2  1  0
  1 20  1  0
  2 10  1  0
  3  2  2  0
  4  3  1  0
  5  4  2  0
  5  6  1  0
  6  1  2  0
  8  7  1  0
  9 16  1  0
  9  8  2  0
 10  9  1  0
 11 10  2  0
 11 12  1  0
 12 13  2  0
 13  8  1  0
 14 19  2  0
 15 14  1  0
 16 15  2  0
 16 17  1  0
 17 18  2  0
 18 19  1  0
 20 23  1  0
 21 20  2  0
 22 20  2  0
 23 24  2  0
 23 28  1  0
 24 25  1  0
 25 26  2  0
 27 26  1  0
 28 27  2  0
  3 29  1  0
  4 30  1  0
  5 31  1  0
  6 32  1  0
 11 33  1  0
 12 34  1  0
 13 35  1  0
 14 36  1  0
 15 37  1  0
 18 38  1  0
 24 39  1  0
 25 40  1  0
 26 41  1  0
 27 42  1  0
 28 43  1  0
M  ISO  8  29  14  30  14  31  14  32  14  33  14  34  14  35  14  36  14
M  ISO  7  37  14  38  14  39  14  40  14  41  14  42  14  43  14
M  END
>  <minimizedAffinity>  (1) 
-4.79268742

>  <minimizedRMSD>  (1) 
1.0974648

$$$$
