
     RDKit          3D

 31 32  0  0  0  0  0  0  0  0999 V2000
   48.5100   33.0840   41.3760 C   0  0  0  0  0  0  0  0  0  0  0  0
   48.0660   34.3040   41.8170 C   0  0  0  0  0  0  0  0  0  0  0  0
   48.9550   35.1580   42.4600 C   0  0  0  0  0  0  0  0  0  0  0  0
   50.2670   34.7260   42.6270 C   0  0  0  0  0  0  0  0  0  0  0  0
   50.6600   33.5060   42.1720 C   0  0  0  0  0  0  0  0  0  0  0  0
   49.8020   32.6320   41.5260 C   0  0  0  0  0  0  0  0  0  0  0  0
   46.6460   34.6170   41.5630 C   0  0  0  0  0  0  0  0  0  0  0  0
   45.9390   34.8940   42.8760 C   0  0  0  0  0  0  0  0  0  0  0  0
   45.9830   33.8990   43.8400 C   0  0  0  0  0  0  0  0  0  0  0  0
   45.3440   34.1480   45.0500 C   0  0  0  0  0  0  0  0  0  0  0  0
   44.7230   35.3380   45.2100 N   0  0  0  0  0  0  0  0  0  0  0  0
   44.7010   36.2880   44.2440 C   0  0  0  0  0  0  0  0  0  0  0  0
   45.3100   36.0650   43.0770 N   0  0  0  0  0  0  0  0  0  0  0  0
   47.6780   32.1530   40.7110 O   0  0  0  0  0  0  0  0  0  0  0  0
   50.2770   31.4200   41.0930 O   0  0  0  0  0  0  0  0  0  0  0  0
   51.6170   31.2530   40.7370 C   0  0  0  0  0  0  0  0  0  0  0  0
   51.8660   31.3710   39.2590 C   0  0  0  0  0  0  0  0  0  0  0  0
   48.6314   36.1439   42.8251 H   0  0  0  0  0  0  0  0  0  0  0  0
   50.9943   35.3783   43.1325 H   0  0  0  0  0  0  0  0  0  0  0  0
   51.7056   33.2001   42.3239 H   0  0  0  0  0  0  0  0  0  0  0  0
   46.5775   35.5046   40.9168 H   0  0  0  0  0  0  0  0  0  0  0  0
   46.1679   33.7597   41.0665 H   0  0  0  0  0  0  0  0  0  0  0  0
   46.5038   32.9480   43.6550 H   0  0  0  0  0  0  0  0  0  0  0  0
   45.3440   33.3976   45.8543 H   0  0  0  0  0  0  0  0  0  0  0  0
   44.1821   37.2416   44.4211 H   0  0  0  0  0  0  0  0  0  0  0  0
   46.7261   32.3693   40.5462 H   0  0  0  0  0  0  0  0  0  0  0  0
   52.2121   32.0212   41.2524 H   0  0  0  0  0  0  0  0  0  0  0  0
   51.9047   30.2332   41.0323 H   0  0  0  0  0  0  0  0  0  0  0  0
   52.8480   31.8364   39.0886 H   0  0  0  0  0  0  0  0  0  0  0  0
   51.8507   30.3699   38.8035 H   0  0  0  0  0  0  0  0  0  0  0  0
   51.0814   31.9931   38.8035 H   0  0  0  0  0  0  0  0  0  0  0  0
  1  6  2  0
  1  2  1  0
  2  3  2  0
  3  4  1  0
  5  4  2  0
  6  5  1  0
  7  2  1  0
  7  8  1  0
  8 13  1  0
  8  9  2  0
  9 10  1  0
 10 11  2  0
 12 11  1  0
 13 12  2  0
 14  1  1  0
 15  6  1  0
 16 15  1  0
 17 16  1  0
  3 18  1  0
  4 19  1  0
  5 20  1  0
  7 21  1  0
  7 22  1  0
  9 23  1  0
 10 24  1  0
 12 25  1  0
 14 26  1  0
 16 27  1  0
 16 28  1  0
 17 29  1  0
 17 30  1  0
 17 31  1  0
M  ISO  8  18  14  19  14  20  14  21   8  22   8  23  14  24  14  25  14
M  ISO  6  26   3  27   8  28   8  29   8  30   8  31   8
M  END
>  <minimizedAffinity>  (1) 
-4.64589834

>  <minimizedRMSD>  (1) 
0.410271287

$$$$
