
     RDKit          3D

 29 31  0  0  0  0  0  0  0  0999 V2000
   47.6010   31.8620   44.2560 C   0  0  0  0  0  0  0  0  0  0  0  0
   47.0950   33.1200   43.9400 C   0  0  0  0  0  0  0  0  0  0  0  0
   46.2330   33.8020   44.7690 C   0  0  0  0  0  0  0  0  0  0  0  0
   45.8460   33.2150   45.9800 C   0  0  0  0  0  0  0  0  0  0  0  0
   45.0390   33.5880   47.0100 N   0  0  0  0  0  0  0  0  0  0  0  0
   45.0460   32.5860   47.9400 C   0  0  0  0  0  0  0  0  0  0  0  0
   45.8610   31.6080   47.4630 N   0  0  0  0  0  0  0  0  0  0  0  0
   46.3650   31.9680   46.2630 C   0  0  0  0  0  0  0  0  0  0  0  0
   47.2250   31.2650   45.4560 C   0  0  0  0  0  0  0  0  0  0  0  0
   47.2240   34.0520   40.3900 C   0  0  0  0  0  0  0  0  0  0  0  0
   48.2760   34.9630   40.3430 C   0  0  0  0  0  0  0  0  0  0  0  0
   48.9380   35.2510   41.5410 C   0  0  0  0  0  0  0  0  0  0  0  0
   48.5280   34.6360   42.6930 N   0  0  0  0  0  0  0  0  0  0  0  0
   47.4970   33.7520   42.7010 C   0  0  0  0  0  0  0  0  0  0  0  0
   46.8730   33.4840   41.5590 N   0  0  0  0  0  0  0  0  0  0  0  0
   45.6080   35.1290   44.5380 C   0  0  0  0  0  0  0  0  0  0  0  0
   44.4140   35.0860   43.6360 C   0  0  0  0  0  0  0  0  0  0  0  0
   48.2877   31.3475   43.5677 H   0  0  0  0  0  0  0  0  0  0  0  0
   44.5141   34.4716   47.0773 H   0  0  0  0  0  0  0  0  0  0  0  0
   44.4967   32.5735   48.8930 H   0  0  0  0  0  0  0  0  0  0  0  0
   47.6008   30.2725   45.7453 H   0  0  0  0  0  0  0  0  0  0  0  0
   46.6785   33.7958   39.4698 H   0  0  0  0  0  0  0  0  0  0  0  0
   48.5757   35.4391   39.3977 H   0  0  0  0  0  0  0  0  0  0  0  0
   49.7769   35.9623   41.5571 H   0  0  0  0  0  0  0  0  0  0  0  0
   45.2941   35.5383   45.5096 H   0  0  0  0  0  0  0  0  0  0  0  0
   46.3626   35.7562   44.0408 H   0  0  0  0  0  0  0  0  0  0  0  0
   43.4971   35.0530   44.2428 H   0  0  0  0  0  0  0  0  0  0  0  0
   44.4015   35.9843   43.0012 H   0  0  0  0  0  0  0  0  0  0  0  0
   44.4661   34.1891   43.0012 H   0  0  0  0  0  0  0  0  0  0  0  0
  1  9  2  0
  2  1  1  0
  2  3  2  0
  3  4  1  0
  4  8  2  0
  4  5  1  0
  5  6  1  0
  7  6  2  0
  8  7  1  0
  9  8  1  0
 10 15  2  0
 11 10  1  0
 11 12  2  0
 12 13  1  0
 13 14  2  0
 14  2  1  0
 15 14  1  0
 16  3  1  0
 17 16  1  0
  1 18  1  0
  5 19  1  0
  6 20  1  0
  9 21  1  0
 10 22  1  0
 11 23  1  0
 12 24  1  0
 16 25  1  0
 16 26  1  0
 17 27  1  0
 17 28  1  0
 17 29  1  0
M  ISO  8  18  14  19   9  20  14  21  14  22  14  23  14  24  14  25   8
M  ISO  4  26   8  27   8  28   8  29   8
M  END
>  <minimizedAffinity>  (1) 
-4.76170635

>  <minimizedRMSD>  (1) 
1.6006763

$$$$
