
     RDKit          3D

 33 36  0  0  0  0  0  0  0  0999 V2000
   47.4850   32.8620   44.2230 C   0  0  0  0  0  0  0  0  0  0  0  0
   47.7190   32.9320   42.8730 C   0  0  0  0  0  0  0  0  0  0  0  0
   46.9560   33.7300   42.0390 C   0  0  0  0  0  0  0  0  0  0  0  0
   45.9140   34.4950   42.5460 C   0  0  0  0  0  0  0  0  0  0  0  0
   44.9900   35.3600   42.0460 N   0  0  0  0  0  0  0  0  0  0  0  0
   44.2170   35.8000   43.0720 C   0  0  0  0  0  0  0  0  0  0  0  0
   44.6670   35.2060   44.1930 N   0  0  0  0  0  0  0  0  0  0  0  0
   45.7090   34.3980   43.9050 C   0  0  0  0  0  0  0  0  0  0  0  0
   46.4420   33.6210   44.7650 C   0  0  0  0  0  0  0  0  0  0  0  0
   49.5700   30.2130   41.2280 C   0  0  0  0  0  0  0  0  0  0  0  0
   50.8670   30.7230   41.1570 C   0  0  0  0  0  0  0  0  0  0  0  0
   51.0940   32.0020   41.6780 C   0  0  0  0  0  0  0  0  0  0  0  0
   50.0350   32.6790   42.2240 N   0  0  0  0  0  0  0  0  0  0  0  0
   48.7940   32.1580   42.2770 C   0  0  0  0  0  0  0  0  0  0  0  0
   48.5510   30.9250   41.7800 N   0  0  0  0  0  0  0  0  0  0  0  0
   47.2120   33.7990   40.6010 C   0  0  0  0  0  0  0  0  0  0  0  0
   46.4540   33.0320   39.7290 C   0  0  0  0  0  0  0  0  0  0  0  0
   46.6160   33.0280   38.3810 C   0  0  0  0  0  0  0  0  0  0  0  0
   47.6140   33.8560   37.8680 C   0  0  0  0  0  0  0  0  0  0  0  0
   48.4020   34.6480   38.7110 C   0  0  0  0  0  0  0  0  0  0  0  0
   48.2030   34.6200   40.0720 C   0  0  0  0  0  0  0  0  0  0  0  0
   48.1055   32.2214   44.8670 H   0  0  0  0  0  0  0  0  0  0  0  0
   44.8935   35.6342   41.0579 H   0  0  0  0  0  0  0  0  0  0  0  0
   43.3794   36.5094   43.0005 H   0  0  0  0  0  0  0  0  0  0  0  0
   46.2181   33.5954   45.8417 H   0  0  0  0  0  0  0  0  0  0  0  0
   49.3664   29.2091   40.8271 H   0  0  0  0  0  0  0  0  0  0  0  0
   51.6835   30.1394   40.7067 H   0  0  0  0  0  0  0  0  0  0  0  0
   52.0972   32.4524   41.6499 H   0  0  0  0  0  0  0  0  0  0  0  0
   45.6725   32.3864   40.1562 H   0  0  0  0  0  0  0  0  0  0  0  0
   45.9912   32.4028   37.7262 H   0  0  0  0  0  0  0  0  0  0  0  0
   47.7849   33.8872   36.7818 H   0  0  0  0  0  0  0  0  0  0  0  0
   49.1827   35.2947   38.2841 H   0  0  0  0  0  0  0  0  0  0  0  0
   48.8219   35.2412   40.7361 H   0  0  0  0  0  0  0  0  0  0  0  0
  1  9  2  0
  2  1  1  0
  3  4  1  0
  3  2  2  0
  4  8  2  0
  5  4  1  0
  5  6  1  0
  6  7  2  0
  8  7  1  0
  8  9  1  0
 10 15  2  0
 11 10  1  0
 11 12  2  0
 12 13  1  0
 13 14  2  0
 14  2  1  0
 15 14  1  0
 16  3  1  0
 17 16  2  0
 18 17  1  0
 19 18  2  0
 19 20  1  0
 20 21  2  0
 21 16  1  0
  1 22  1  0
  5 23  1  0
  6 24  1  0
  9 25  1  0
 10 26  1  0
 11 27  1  0
 12 28  1  0
 17 29  1  0
 18 30  1  0
 19 31  1  0
 20 32  1  0
 21 33  1  0
M  ISO  8  22  14  23   9  24  14  25  14  26  14  27  14  28  14  29  14
M  ISO  4  30  14  31  14  32  14  33  14
M  END
>  <minimizedAffinity>  (1) 
-4.76855564

>  <minimizedRMSD>  (1) 
5.76823568

$$$$
