
     RDKit          3D

 37 41  0  0  0  0  0  0  0  0999 V2000
   47.5520   31.2250   44.7680 C   0  0  0  0  0  0  0  0  0  0  0  0
   47.4640   32.2840   43.8750 C   0  0  0  0  0  0  0  0  0  0  0  0
   46.7230   33.4080   44.1360 C   0  0  0  0  0  0  0  0  0  0  0  0
   46.0160   33.5240   45.3370 C   0  0  0  0  0  0  0  0  0  0  0  0
   45.2130   34.4510   45.9090 N   0  0  0  0  0  0  0  0  0  0  0  0
   44.8070   33.9920   47.1250 C   0  0  0  0  0  0  0  0  0  0  0  0
   45.3760   32.7840   47.2690 N   0  0  0  0  0  0  0  0  0  0  0  0
   46.1200   32.4610   46.2050 C   0  0  0  0  0  0  0  0  0  0  0  0
   46.8510   31.3220   45.9780 C   0  0  0  0  0  0  0  0  0  0  0  0
   48.2180   31.6180   40.3450 C   0  0  0  0  0  0  0  0  0  0  0  0
   49.5420   32.0540   40.2270 C   0  0  0  0  0  0  0  0  0  0  0  0
   50.1650   32.5760   41.3640 C   0  0  0  0  0  0  0  0  0  0  0  0
   49.4570   32.6350   42.5350 N   0  0  0  0  0  0  0  0  0  0  0  0
   48.1850   32.2050   42.6100 C   0  0  0  0  0  0  0  0  0  0  0  0
   47.5660   31.6990   41.5270 N   0  0  0  0  0  0  0  0  0  0  0  0
   46.6130   34.7740   42.9850 S   0  0  0  0  0  0  0  0  0  0  0  0
   45.0170   34.1390   40.7770 C   0  0  0  0  0  0  0  0  0  0  0  0
   45.1130   34.7080   42.0300 C   0  0  0  0  0  0  0  0  0  0  0  0
   43.9870   35.2670   42.5990 C   0  0  0  0  0  0  0  0  0  0  0  0
   42.8210   35.2190   41.8650 C   0  0  0  0  0  0  0  0  0  0  0  0
   41.5870   35.6920   42.1950 N   0  0  0  0  0  0  0  0  0  0  0  0
   40.7330   35.4430   41.2030 N   0  0  0  0  0  0  0  0  0  0  0  0
   41.4010   34.8070   40.2220 C   0  0  0  0  0  0  0  0  0  0  0  0
   42.7360   34.6440   40.6040 C   0  0  0  0  0  0  0  0  0  0  0  0
   43.8580   34.0830   40.0300 C   0  0  0  0  0  0  0  0  0  0  0  0
   48.1545   30.3352   44.5329 H   0  0  0  0  0  0  0  0  0  0  0  0
   44.9516   35.3560   45.4925 H   0  0  0  0  0  0  0  0  0  0  0  0
   44.1487   34.5049   47.8416 H   0  0  0  0  0  0  0  0  0  0  0  0
   46.8857   30.5117   46.7212 H   0  0  0  0  0  0  0  0  0  0  0  0
   47.7014   31.2046   39.4663 H   0  0  0  0  0  0  0  0  0  0  0  0
   50.0768   31.9880   39.2680 H   0  0  0  0  0  0  0  0  0  0  0  0
   51.2046   32.9328   41.3193 H   0  0  0  0  0  0  0  0  0  0  0  0
   45.9273   33.6995   40.3433 H   0  0  0  0  0  0  0  0  0  0  0  0
   44.0184   35.7311   43.5958 H   0  0  0  0  0  0  0  0  0  0  0  0
   41.3502   36.1692   43.0766 H   0  0  0  0  0  0  0  0  0  0  0  0
   40.9652   34.4690   39.2703 H   0  0  0  0  0  0  0  0  0  0  0  0
   43.8304   33.6176   39.0337 H   0  0  0  0  0  0  0  0  0  0  0  0
  1  9  2  0
  2  3  2  0
  2  1  1  0
  3  4  1  0
  4  5  1  0
  4  8  2  0
  5  6  1  0
  6  7  2  0
  8  7  1  0
  9  8  1  0
 10 15  2  0
 11 10  1  0
 11 12  2  0
 12 13  1  0
 13 14  2  0
 14  2  1  0
 15 14  1  0
 16  3  1  0
 17 18  2  0
 18 19  1  0
 18 16  1  0
 20 21  1  0
 20 19  2  0
 22 21  1  0
 23 24  1  0
 23 22  2  0
 24 20  1  0
 25 24  2  0
 25 17  1  0
  1 26  1  0
  5 27  1  0
  6 28  1  0
  9 29  1  0
 10 30  1  0
 11 31  1  0
 12 32  1  0
 17 33  1  0
 19 34  1  0
 21 35  1  0
 23 36  1  0
 25 37  1  0
M  ISO  8  26  14  27   9  28  14  29  14  30  14  31  14  32  14  33  14
M  ISO  4  34  14  35   9  36  14  37  14
M  END
>  <minimizedAffinity>  (1) 
-6.0081234

>  <minimizedRMSD>  (1) 
2.47661161

$$$$
