
     RDKit          3D

 24 26  0  0  0  0  0  0  0  0999 V2000
   47.4620   31.6770   44.8220 C   0  0  0  0  0  0  0  0  0  0  0  0
   46.7850   32.8560   44.5370 C   0  0  0  0  0  0  0  0  0  0  0  0
   45.9160   33.4450   45.4260 C   0  0  0  0  0  0  0  0  0  0  0  0
   45.6820   32.8590   46.6730 C   0  0  0  0  0  0  0  0  0  0  0  0
   44.9250   33.1380   47.7590 N   0  0  0  0  0  0  0  0  0  0  0  0
   45.1130   32.1770   48.6950 C   0  0  0  0  0  0  0  0  0  0  0  0
   45.9940   31.3110   48.1610 N   0  0  0  0  0  0  0  0  0  0  0  0
   46.3630   31.6950   46.9280 C   0  0  0  0  0  0  0  0  0  0  0  0
   47.2430   31.0730   46.0630 C   0  0  0  0  0  0  0  0  0  0  0  0
   46.3800   33.8170   41.0170 C   0  0  0  0  0  0  0  0  0  0  0  0
   47.4230   34.7210   40.8200 C   0  0  0  0  0  0  0  0  0  0  0  0
   48.2640   34.9990   41.9030 C   0  0  0  0  0  0  0  0  0  0  0  0
   48.0270   34.3730   43.1010 N   0  0  0  0  0  0  0  0  0  0  0  0
   46.9990   33.5000   43.2420 C   0  0  0  0  0  0  0  0  0  0  0  0
   46.1700   33.2130   42.2140 N   0  0  0  0  0  0  0  0  0  0  0  0
   45.0460   34.9630   45.0560 S   0  0  0  0  0  0  0  0  0  0  0  0
   48.1519   31.2308   44.0906 H   0  0  0  0  0  0  0  0  0  0  0  0
   44.3033   33.9532   47.8585 H   0  0  0  0  0  0  0  0  0  0  0  0
   44.6424   32.1168   49.6874 H   0  0  0  0  0  0  0  0  0  0  0  0
   47.7517   30.1381   46.3407 H   0  0  0  0  0  0  0  0  0  0  0  0
   45.7076   33.5866   40.1775 H   0  0  0  0  0  0  0  0  0  0  0  0
   47.5799   35.2011   39.8428 H   0  0  0  0  0  0  0  0  0  0  0  0
   49.0997   35.7062   41.7962 H   0  0  0  0  0  0  0  0  0  0  0  0
   44.6910   35.5825   46.2252 H   0  0  0  0  0  0  0  0  0  0  0  0
  1  9  2  0
  2  1  1  0
  2  3  2  0
  3  4  1  0
  4  8  2  0
  4  5  1  0
  5  6  1  0
  7  6  2  0
  8  7  1  0
  9  8  1  0
 10 15  2  0
 11 10  1  0
 11 12  2  0
 12 13  1  0
 13 14  2  0
 14  2  1  0
 15 14  1  0
 16  3  1  0
  1 17  1  0
  5 18  1  0
  6 19  1  0
  9 20  1  0
 10 21  1  0
 11 22  1  0
 12 23  1  0
 16 24  1  0
M  ISO  8  17  14  18   9  19  14  20  14  21  14  22  14  23  14  24  11
M  END
>  <minimizedAffinity>  (1) 
-4.8195467

>  <minimizedRMSD>  (1) 
1.04435182

$$$$
