
     RDKit          3D

 38 41  0  0  1  0  0  0  0  0999 V2000
   47.6670   32.5150   44.0620 C   0  0  0  0  0  0  0  0  0  0  0  0
   47.0100   33.5480   43.3790 C   0  0  0  0  0  0  0  0  0  0  0  0
   45.9980   34.2830   43.9540 C   0  0  0  0  0  0  0  0  0  0  0  0
   45.5940   34.0070   45.2630 C   0  0  0  0  0  0  0  0  0  0  0  0
   44.6720   34.5000   46.1230 N   0  0  0  0  0  0  0  0  0  0  0  0
   44.7360   33.8210   47.2860 C   0  0  0  0  0  0  0  0  0  0  0  0
   45.7140   32.8990   47.1300 N   0  0  0  0  0  0  0  0  0  0  0  0
   46.2490   32.9950   45.9080 C   0  0  0  0  0  0  0  0  0  0  0  0
   47.2750   32.2300   45.3660 C   0  0  0  0  0  0  0  0  0  0  0  0
   47.3430   33.3680   39.7290 C   0  0  0  0  0  0  0  0  0  0  0  0
   48.1620   34.4430   39.4380 C   0  0  0  0  0  0  0  0  0  0  0  0
   48.6000   35.2310   40.5050 C   0  0  0  0  0  0  0  0  0  0  0  0
   48.2120   34.9210   41.7860 N   0  0  0  0  0  0  0  0  0  0  0  0
   47.4100   33.8600   42.0180 C   0  0  0  0  0  0  0  0  0  0  0  0
   46.9790   33.0890   41.0020 N   0  0  0  0  0  0  0  0  0  0  0  0
   45.1670   35.5950   43.0930 S   0  0  0  0  0  0  0  0  0  0  0  0
   42.8960   36.1340   41.6890 N   0  0  0  0  0  0  0  0  0  0  0  0
   43.4870   35.2040   42.6120 C   0  0  1  0  0  0  0  0  0  0  0  0
   43.5550   33.8550   41.8840 C   0  0  0  0  0  0  0  0  0  0  0  0
   44.0370   34.0720   40.5480 N   0  0  0  0  0  0  0  0  0  0  0  0
   42.9830   34.6530   39.7420 C   0  0  0  0  0  0  0  0  0  0  0  0
   42.0820   35.4010   40.7050 C   0  0  0  0  0  0  0  0  0  0  0  0
   48.4730   31.9436   43.5785 H   0  0  0  0  0  0  0  0  0  0  0  0
   44.0227   35.2734   45.9204 H   0  0  0  0  0  0  0  0  0  0  0  0
   44.1178   33.9837   48.1812 H   0  0  0  0  0  0  0  0  0  0  0  0
   47.7585   31.4300   45.9458 H   0  0  0  0  0  0  0  0  0  0  0  0
   46.9807   32.7280   38.9110 H   0  0  0  0  0  0  0  0  0  0  0  0
   48.4582   34.6698   38.4032 H   0  0  0  0  0  0  0  0  0  0  0  0
   49.2532   36.0966   40.3203 H   0  0  0  0  0  0  0  0  0  0  0  0
   42.2979   36.7956   42.2043 H   0  0  0  0  0  0  0  0  0  0  0  0
   42.8724   35.2189   43.5242 H   0  0  0  0  0  0  0  0  0  0  0  0
   44.2400   33.1807   42.4189 H   0  0  0  0  0  0  0  0  0  0  0  0
   42.5548   33.3984   41.8502 H   0  0  0  0  0  0  0  0  0  0  0  0
   44.8425   34.7134   40.5737 H   0  0  0  0  0  0  0  0  0  0  0  0
   43.4073   35.3454   39.0000 H   0  0  0  0  0  0  0  0  0  0  0  0
   42.4278   33.8811   39.1890 H   0  0  0  0  0  0  0  0  0  0  0  0
   41.4601   36.1136   40.1434 H   0  0  0  0  0  0  0  0  0  0  0  0
   41.4395   34.6806   41.2324 H   0  0  0  0  0  0  0  0  0  0  0  0
  1  9  2  0
  2  3  2  0
  2  1  1  0
  3  4  1  0
  4  8  2  0
  4  5  1  0
  5  6  1  0
  7  6  2  0
  8  7  1  0
  9  8  1  0
 10 15  2  0
 11 10  1  0
 11 12  2  0
 12 13  1  0
 13 14  2  0
 14  2  1  0
 15 14  1  0
 16  3  1  0
 17 18  1  0
 18 16  1  0
 19 18  1  0
 20 19  1  0
 21 20  1  0
 21 22  1  0
 22 17  1  0
  1 23  1  0
  5 24  1  0
  6 25  1  0
  9 26  1  0
 10 27  1  0
 11 28  1  0
 12 29  1  0
 17 30  1  0
 18 31  1  1
 19 32  1  0
 19 33  1  0
 20 34  1  0
 21 35  1  0
 21 36  1  0
 22 37  1  0
 22 38  1  0
M  ISO  8  23  14  24   9  25  14  26  14  27  14  28  14  29  14  30   5
M  ISO  8  31  13  32  13  33  13  34   5  35  13  36  13  37  13  38  13
M  END
>  <minimizedAffinity>  (1) 
-5.28234863

>  <minimizedRMSD>  (1) 
1.67663872

$$$$
