
     RDKit          3D

 27 29  0  0  0  0  0  0  0  0999 V2000
   47.4340   32.6270   44.1920 C   0  0  0  0  0  0  0  0  0  0  0  0
   46.8460   33.6990   43.5450 C   0  0  0  0  0  0  0  0  0  0  0  0
   45.8640   34.4610   44.1220 C   0  0  0  0  0  0  0  0  0  0  0  0
   45.4140   34.1740   45.4150 C   0  0  0  0  0  0  0  0  0  0  0  0
   44.5030   34.6770   46.2810 N   0  0  0  0  0  0  0  0  0  0  0  0
   44.5150   33.9570   47.4220 C   0  0  0  0  0  0  0  0  0  0  0  0
   45.4480   33.0000   47.2510 N   0  0  0  0  0  0  0  0  0  0  0  0
   46.0140   33.1040   46.0380 C   0  0  0  0  0  0  0  0  0  0  0  0
   47.0110   32.3110   45.4830 C   0  0  0  0  0  0  0  0  0  0  0  0
   47.1250   33.7200   39.8920 C   0  0  0  0  0  0  0  0  0  0  0  0
   48.1030   34.6730   39.6590 C   0  0  0  0  0  0  0  0  0  0  0  0
   48.6700   35.3100   40.7580 C   0  0  0  0  0  0  0  0  0  0  0  0
   48.2420   34.9740   42.0160 N   0  0  0  0  0  0  0  0  0  0  0  0
   47.2810   34.0350   42.1940 C   0  0  0  0  0  0  0  0  0  0  0  0
   46.7080   33.3950   41.1420 N   0  0  0  0  0  0  0  0  0  0  0  0
   45.1010   35.8450   43.2980 S   0  0  0  0  0  0  0  0  0  0  0  0
   43.7610   35.3450   42.2020 C   0  0  0  0  0  0  0  0  0  0  0  0
   48.2193   32.0357   43.6983 H   0  0  0  0  0  0  0  0  0  0  0  0
   43.8933   35.4865   46.0968 H   0  0  0  0  0  0  0  0  0  0  0  0
   43.8894   34.1186   48.3122 H   0  0  0  0  0  0  0  0  0  0  0  0
   47.4486   31.4687   46.0389 H   0  0  0  0  0  0  0  0  0  0  0  0
   46.6694   33.2076   39.0319 H   0  0  0  0  0  0  0  0  0  0  0  0
   48.4218   34.9187   38.6353 H   0  0  0  0  0  0  0  0  0  0  0  0
   49.4507   36.0725   40.6194 H   0  0  0  0  0  0  0  0  0  0  0  0
   42.8973   35.0227   42.8022 H   0  0  0  0  0  0  0  0  0  0  0  0
   43.4698   36.1950   41.5674 H   0  0  0  0  0  0  0  0  0  0  0  0
   44.0978   34.5120   41.5674 H   0  0  0  0  0  0  0  0  0  0  0  0
  1  9  2  0
  2  3  2  0
  2  1  1  0
  3  4  1  0
  4  8  2  0
  4  5  1  0
  5  6  1  0
  7  6  2  0
  8  7  1  0
  9  8  1  0
 10 15  2  0
 11 10  1  0
 11 12  2  0
 12 13  1  0
 13 14  2  0
 14  2  1  0
 15 14  1  0
 16  3  1  0
 17 16  1  0
  1 18  1  0
  5 19  1  0
  6 20  1  0
  9 21  1  0
 10 22  1  0
 11 23  1  0
 12 24  1  0
 17 25  1  0
 17 26  1  0
 17 27  1  0
M  ISO  8  18  14  19   9  20  14  21  14  22  14  23  14  24  14  25   8
M  ISO  2  26   8  27   8
M  END
>  <minimizedAffinity>  (1) 
-4.76726437

>  <minimizedRMSD>  (1) 
1.64790058

$$$$
