
     RDKit          3D

 34 37  0  0  0  0  0  0  0  0999 V2000
   47.7910   32.0560   44.1660 C   0  0  0  0  0  0  0  0  0  0  0  0
   47.1110   33.1560   43.6480 C   0  0  0  0  0  0  0  0  0  0  0  0
   46.1570   33.8360   44.3490 C   0  0  0  0  0  0  0  0  0  0  0  0
   45.8140   33.4490   45.6460 C   0  0  0  0  0  0  0  0  0  0  0  0
   44.9530   33.8690   46.6010 N   0  0  0  0  0  0  0  0  0  0  0  0
   45.0820   33.0640   47.6890 C   0  0  0  0  0  0  0  0  0  0  0  0
   46.0250   32.1560   47.3850 N   0  0  0  0  0  0  0  0  0  0  0  0
   46.4900   32.3690   46.1400 C   0  0  0  0  0  0  0  0  0  0  0  0
   47.4630   31.6500   45.4660 C   0  0  0  0  0  0  0  0  0  0  0  0
   47.2740   33.3360   39.9840 C   0  0  0  0  0  0  0  0  0  0  0  0
   48.0480   34.4630   39.7530 C   0  0  0  0  0  0  0  0  0  0  0  0
   48.5120   35.1590   40.8640 C   0  0  0  0  0  0  0  0  0  0  0  0
   48.1980   34.7200   42.1270 N   0  0  0  0  0  0  0  0  0  0  0  0
   47.4320   33.6030   42.2940 C   0  0  0  0  0  0  0  0  0  0  0  0
   46.9720   32.9160   41.2380 N   0  0  0  0  0  0  0  0  0  0  0  0
   45.2920   35.2490   43.6700 S   0  0  0  0  0  0  0  0  0  0  0  0
   44.1380   34.7550   42.4010 C   0  0  0  0  0  0  0  0  0  0  0  0
   43.6830   33.4420   42.2980 C   0  0  0  0  0  0  0  0  0  0  0  0
   42.7950   33.0840   41.3130 C   0  0  0  0  0  0  0  0  0  0  0  0
   42.3550   34.0350   40.4250 C   0  0  0  0  0  0  0  0  0  0  0  0
   42.8230   35.3480   40.5440 C   0  0  0  0  0  0  0  0  0  0  0  0
   43.7160   35.7280   41.5270 C   0  0  0  0  0  0  0  0  0  0  0  0
   48.5552   31.5272   43.5775 H   0  0  0  0  0  0  0  0  0  0  0  0
   44.3067   34.6666   46.5177 H   0  0  0  0  0  0  0  0  0  0  0  0
   44.5236   33.1409   48.6336 H   0  0  0  0  0  0  0  0  0  0  0  0
   47.9614   30.7892   45.9356 H   0  0  0  0  0  0  0  0  0  0  0  0
   46.8933   32.7651   39.1242 H   0  0  0  0  0  0  0  0  0  0  0  0
   48.2857   34.7936   38.7311 H   0  0  0  0  0  0  0  0  0  0  0  0
   49.1295   36.0596   40.7315 H   0  0  0  0  0  0  0  0  0  0  0  0
   44.0384   32.6848   43.0124 H   0  0  0  0  0  0  0  0  0  0  0  0
   42.4397   32.0458   41.2361 H   0  0  0  0  0  0  0  0  0  0  0  0
   41.6434   33.7675   39.6300 H   0  0  0  0  0  0  0  0  0  0  0  0
   42.4672   36.1047   39.8293 H   0  0  0  0  0  0  0  0  0  0  0  0
   44.0740   36.7650   41.6068 H   0  0  0  0  0  0  0  0  0  0  0  0
  1  9  2  0
  2  1  1  0
  2  3  2  0
  3  4  1  0
  4  8  2  0
  4  5  1  0
  5  6  1  0
  7  6  2  0
  8  7  1  0
  9  8  1  0
 10 15  2  0
 11 10  1  0
 11 12  2  0
 12 13  1  0
 13 14  2  0
 14  2  1  0
 15 14  1  0
 16  3  1  0
 17 16  1  0
 18 17  2  0
 19 18  1  0
 20 21  1  0
 20 19  2  0
 21 22  2  0
 22 17  1  0
  1 23  1  0
  5 24  1  0
  6 25  1  0
  9 26  1  0
 10 27  1  0
 11 28  1  0
 12 29  1  0
 18 30  1  0
 19 31  1  0
 20 32  1  0
 21 33  1  0
 22 34  1  0
M  ISO  8  23  14  24   9  25  14  26  14  27  14  28  14  29  14  30  14
M  ISO  4  31  14  32  14  33  14  34  14
M  END
>  <minimizedAffinity>  (1) 
-5.47088575

>  <minimizedRMSD>  (1) 
1.63949776

$$$$
