
     RDKit          3D

 36 39  0  0  1  0  0  0  0  0999 V2000
   48.1150   32.8730   41.5310 C   0  0  0  0  0  0  0  0  0  0  0  0
   46.8560   32.8010   40.9440 C   0  0  0  0  0  0  0  0  0  0  0  0
   45.6800   32.9780   41.6500 C   0  0  0  0  0  0  0  0  0  0  0  0
   45.7380   33.2440   43.0190 C   0  0  0  0  0  0  0  0  0  0  0  0
   44.8520   33.4690   44.0110 N   0  0  0  0  0  0  0  0  0  0  0  0
   45.4880   33.6760   45.1780 C   0  0  0  0  0  0  0  0  0  0  0  0
   46.7880   33.5730   44.8820 N   0  0  0  0  0  0  0  0  0  0  0  0
   46.9950   33.3110   43.5810 C   0  0  0  0  0  0  0  0  0  0  0  0
   48.1790   33.1380   42.9000 C   0  0  0  0  0  0  0  0  0  0  0  0
   46.4370   31.0500   37.7510 C   0  0  0  0  0  0  0  0  0  0  0  0
   46.5840   32.0580   36.8130 C   0  0  0  0  0  0  0  0  0  0  0  0
   46.8320   33.3640   37.2750 C   0  0  0  0  0  0  0  0  0  0  0  0
   46.9120   33.5560   38.6290 N   0  0  0  0  0  0  0  0  0  0  0  0
   46.7590   32.5280   39.5080 C   0  0  0  0  0  0  0  0  0  0  0  0
   46.5230   31.2790   39.0860 N   0  0  0  0  0  0  0  0  0  0  0  0
   44.0750   32.8770   40.8900 S   0  0  0  0  0  0  0  0  0  0  0  0
   43.2460   33.9770   38.5840 C   0  0  1  0  0  0  0  0  0  0  0  0
   43.6000   34.3660   40.0260 C   0  0  1  0  0  0  0  0  0  0  0  0
   42.1780   34.7090   40.4790 C   0  0  0  0  0  0  0  0  0  0  0  0
   41.3850   33.6910   39.9720 O   0  0  0  0  0  0  0  0  0  0  0  0
   42.0020   33.1490   38.8660 C   0  0  0  0  0  0  0  0  0  0  0  0
   42.8260   35.0910   37.8630 O   0  0  0  0  0  0  0  0  0  0  0  0
   49.0289   32.7261   40.9367 H   0  0  0  0  0  0  0  0  0  0  0  0
   43.8291   33.4807   43.8913 H   0  0  0  0  0  0  0  0  0  0  0  0
   45.0378   33.8842   46.1598 H   0  0  0  0  0  0  0  0  0  0  0  0
   49.1464   33.2066   43.4191 H   0  0  0  0  0  0  0  0  0  0  0  0
   46.2433   30.0253   37.4010 H   0  0  0  0  0  0  0  0  0  0  0  0
   46.5090   31.8439   35.7367 H   0  0  0  0  0  0  0  0  0  0  0  0
   46.9573   34.2017   36.5731 H   0  0  0  0  0  0  0  0  0  0  0  0
   44.0673   33.5066   38.0235 H   0  0  0  0  0  0  0  0  0  0  0  0
   44.3845   35.1242   40.1664 H   0  0  0  0  0  0  0  0  0  0  0  0
   42.1178   34.7357   41.5770 H   0  0  0  0  0  0  0  0  0  0  0  0
   41.8580   35.6990   40.1221 H   0  0  0  0  0  0  0  0  0  0  0  0
   41.3228   33.1855   38.0015 H   0  0  0  0  0  0  0  0  0  0  0  0
   42.2698   32.0978   39.0483 H   0  0  0  0  0  0  0  0  0  0  0  0
   42.5558   35.8075   38.4904 H   0  0  0  0  0  0  0  0  0  0  0  0
  1  9  2  0
  2  1  1  0
  2  3  2  0
  3  4  1  0
  4  8  2  0
  4  5  1  0
  5  6  1  0
  7  6  2  0
  8  7  1  0
  9  8  1  0
 10 15  2  0
 11 12  2  0
 11 10  1  0
 12 13  1  0
 13 14  2  0
 14  2  1  0
 15 14  1  0
 16  3  1  0
 17 22  1  0
 17 21  1  0
 17 18  1  0
 18 19  1  0
 18 16  1  0
 20 19  1  0
 21 20  1  0
  1 23  1  0
  5 24  1  0
  6 25  1  0
  9 26  1  0
 10 27  1  0
 11 28  1  0
 12 29  1  0
 17 30  1  6
 18 31  1  6
 19 32  1  0
 19 33  1  0
 21 34  1  0
 21 35  1  0
 22 36  1  0
M  ISO  8  23  14  24   9  25  14  26  14  27  14  28  14  29  14  30  13
M  ISO  6  31  13  32  13  33  13  34  13  35  13  36   3
M  END
>  <minimizedAffinity>  (1) 
-4.49224567

>  <minimizedRMSD>  (1) 
5.15015888

$$$$
