
     RDKit          3D

 51 55  0  0  1  0  0  0  0  0999 V2000
   44.9050   35.3670   43.1630 S   0  0  0  0  0  0  0  0  0  0  0  0
   47.5770   32.5470   44.4060 C   0  0  0  0  0  0  0  0  0  0  0  0
   46.8710   33.4690   43.6380 C   0  0  0  0  0  0  0  0  0  0  0  0
   45.7970   34.1970   44.1470 C   0  0  0  0  0  0  0  0  0  0  0  0
   45.4100   34.0000   45.4760 C   0  0  0  0  0  0  0  0  0  0  0  0
   44.4550   34.5060   46.2820 N   0  0  0  0  0  0  0  0  0  0  0  0
   44.5400   33.9420   47.5030 C   0  0  0  0  0  0  0  0  0  0  0  0
   45.5680   33.0790   47.4290 N   0  0  0  0  0  0  0  0  0  0  0  0
   46.1180   33.0910   46.2090 C   0  0  0  0  0  0  0  0  0  0  0  0
   47.1890   32.3500   45.7360 C   0  0  0  0  0  0  0  0  0  0  0  0
   47.2730   32.9710   40.0340 C   0  0  0  0  0  0  0  0  0  0  0  0
   47.9940   34.1080   39.6450 C   0  0  0  0  0  0  0  0  0  0  0  0
   48.3360   35.0370   40.6360 C   0  0  0  0  0  0  0  0  0  0  0  0
   47.9560   34.8030   41.9330 N   0  0  0  0  0  0  0  0  0  0  0  0
   47.2580   33.6870   42.2560 C   0  0  0  0  0  0  0  0  0  0  0  0
   46.8990   32.7480   41.3310 N   0  0  0  0  0  0  0  0  0  0  0  0
   42.4340   35.2470   42.2690 N   0  0  0  0  0  0  0  0  0  0  0  0
   43.7210   34.6070   42.0200 C   0  0  1  0  0  0  0  0  0  0  0  0
   44.2380   34.9130   40.6200 C   0  0  0  0  0  0  0  0  0  0  0  0
   43.2600   34.8270   39.6480 O   0  0  0  0  0  0  0  0  0  0  0  0
   42.0630   34.3050   40.0460 C   0  0  0  0  0  0  0  0  0  0  0  0
   41.5240   35.1330   41.1840 C   0  0  1  0  0  0  0  0  0  0  0  0
   40.1680   34.7720   41.5620 N   0  0  0  0  0  0  0  0  0  0  0  0
   39.3120   35.4430   40.5750 C   0  0  0  0  0  0  0  0  0  0  0  0
   39.0950   34.5880   39.3600 C   0  0  0  0  0  0  0  0  0  0  0  0
   38.2440   33.4860   39.7690 N   0  0  0  0  0  0  0  0  0  0  0  0
   38.6410   32.9100   41.0290 C   0  0  0  0  0  0  0  0  0  0  0  0
   40.0470   33.3480   41.3840 C   0  0  0  0  0  0  0  0  0  0  0  0
   48.4205   31.9862   43.9771 H   0  0  0  0  0  0  0  0  0  0  0  0
   43.7635   35.2176   46.0057 H   0  0  0  0  0  0  0  0  0  0  0  0
   43.9025   34.1450   48.3762 H   0  0  0  0  0  0  0  0  0  0  0  0
   47.7154   31.6326   46.3828 H   0  0  0  0  0  0  0  0  0  0  0  0
   46.9977   32.2307   39.2684 H   0  0  0  0  0  0  0  0  0  0  0  0
   48.2821   34.2658   38.5952 H   0  0  0  0  0  0  0  0  0  0  0  0
   48.9027   35.9436   40.3771 H   0  0  0  0  0  0  0  0  0  0  0  0
   42.0080   34.8102   43.0988 H   0  0  0  0  0  0  0  0  0  0  0  0
   43.6078   33.5195   42.1409 H   0  0  0  0  0  0  0  0  0  0  0  0
   44.6481   35.9337   40.6141 H   0  0  0  0  0  0  0  0  0  0  0  0
   45.0028   34.1591   40.3819 H   0  0  0  0  0  0  0  0  0  0  0  0
   41.3534   34.3257   39.2058 H   0  0  0  0  0  0  0  0  0  0  0  0
   42.2009   33.2644   40.3747 H   0  0  0  0  0  0  0  0  0  0  0  0
   41.4309   36.1594   40.7996 H   0  0  0  0  0  0  0  0  0  0  0  0
   38.3377   35.6610   41.0368 H   0  0  0  0  0  0  0  0  0  0  0  0
   39.8128   36.3699   40.2587 H   0  0  0  0  0  0  0  0  0  0  0  0
   40.0575   34.2057   38.9892 H   0  0  0  0  0  0  0  0  0  0  0  0
   38.6290   35.1664   38.5486 H   0  0  0  0  0  0  0  0  0  0  0  0
   37.2775   33.8314   39.8553 H   0  0  0  0  0  0  0  0  0  0  0  0
   37.9473   33.2425   41.8153 H   0  0  0  0  0  0  0  0  0  0  0  0
   38.6166   31.8134   40.9462 H   0  0  0  0  0  0  0  0  0  0  0  0
   40.7249   33.0376   40.5752 H   0  0  0  0  0  0  0  0  0  0  0  0
   40.3053   32.8749   42.3429 H   0  0  0  0  0  0  0  0  0  0  0  0
  1  4  1  0
  2 10  2  0
  3  4  2  0
  3  2  1  0
  4  5  1  0
  5  9  2  0
  5  6  1  0
  6  7  1  0
  8  7  2  0
  9  8  1  0
 10  9  1  0
 11 16  2  0
 12 11  1  0
 12 13  2  0
 13 14  1  0
 14 15  2  0
 15  3  1  0
 16 15  1  0
 18 17  1  0
 18  1  1  0
 19 18  1  0
 20 21  1  0
 20 19  1  0
 21 22  1  0
 22 23  1  0
 22 17  1  0
 23 28  1  0
 24 23  1  0
 25 26  1  0
 25 24  1  0
 26 27  1  0
 27 28  1  0
  2 29  1  0
  6 30  1  0
  7 31  1  0
 10 32  1  0
 11 33  1  0
 12 34  1  0
 13 35  1  0
 17 36  1  0
 18 37  1  1
 19 38  1  0
 19 39  1  0
 21 40  1  0
 21 41  1  0
 22 42  1  6
 24 43  1  0
 24 44  1  0
 25 45  1  0
 25 46  1  0
 26 47  1  0
 27 48  1  0
 27 49  1  0
 28 50  1  0
 28 51  1  0
M  ISO  8  29  14  30   9  31  14  32  14  33  14  34  14  35  14  36   5
M  ISO  8  37  13  38  13  39  13  40  13  41  13  42  13  43  13  44  13
M  ISO  7  45  13  46  13  47   5  48  13  49  13  50  13  51  13
M  END
>  <minimizedAffinity>  (1) 
-6.49555588

>  <minimizedRMSD>  (1) 
0.702528477

$$$$
