
     RDKit          3D

 38 41  0  0  1  0  0  0  0  0999 V2000
   47.5740   32.6730   44.2810 C   0  0  0  0  0  0  0  0  0  0  0  0
   46.8650   33.6350   43.5760 C   0  0  0  0  0  0  0  0  0  0  0  0
   45.8020   34.3470   44.1080 C   0  0  0  0  0  0  0  0  0  0  0  0
   45.4210   34.0840   45.4250 C   0  0  0  0  0  0  0  0  0  0  0  0
   44.4660   34.5630   46.2520 N   0  0  0  0  0  0  0  0  0  0  0  0
   44.5460   33.9410   47.4480 C   0  0  0  0  0  0  0  0  0  0  0  0
   45.5620   33.0770   47.3360 N   0  0  0  0  0  0  0  0  0  0  0  0
   46.1240   33.1380   46.1070 C   0  0  0  0  0  0  0  0  0  0  0  0
   47.1920   32.4070   45.6060 C   0  0  0  0  0  0  0  0  0  0  0  0
   47.1100   33.4250   39.9190 C   0  0  0  0  0  0  0  0  0  0  0  0
   48.0050   34.4420   39.6060 C   0  0  0  0  0  0  0  0  0  0  0  0
   48.5200   35.1980   40.6580 C   0  0  0  0  0  0  0  0  0  0  0  0
   48.1380   34.9210   41.9470 N   0  0  0  0  0  0  0  0  0  0  0  0
   47.2620   33.9150   42.1910 C   0  0  0  0  0  0  0  0  0  0  0  0
   46.7280   33.1490   41.2030 N   0  0  0  0  0  0  0  0  0  0  0  0
   44.9210   35.5700   43.1710 S   0  0  0  0  0  0  0  0  0  0  0  0
   42.3650   35.3790   42.6100 N   0  0  0  0  0  0  0  0  0  0  0  0
   43.6180   34.8760   42.1200 C   0  0  1  0  0  0  0  0  0  0  0  0
   43.9160   35.3880   40.7090 C   0  0  0  0  0  0  0  0  0  0  0  0
   42.8190   35.3410   39.8710 O   0  0  0  0  0  0  0  0  0  0  0  0
   41.7330   34.6670   40.3480 C   0  0  0  0  0  0  0  0  0  0  0  0
   41.3000   35.3150   41.6510 C   0  0  1  0  0  0  0  0  0  0  0  0
   40.1310   34.7260   42.1530 O   0  0  0  0  0  0  0  0  0  0  0  0
   48.4119   32.1337   43.8151 H   0  0  0  0  0  0  0  0  0  0  0  0
   43.7808   35.2921   46.0073 H   0  0  0  0  0  0  0  0  0  0  0  0
   43.9096   34.1092   48.3293 H   0  0  0  0  0  0  0  0  0  0  0  0
   47.7139   31.6558   46.2170 H   0  0  0  0  0  0  0  0  0  0  0  0
   46.6927   32.8185   39.1017 H   0  0  0  0  0  0  0  0  0  0  0  0
   48.2965   34.6431   38.5646 H   0  0  0  0  0  0  0  0  0  0  0  0
   49.2299   36.0136   40.4558 H   0  0  0  0  0  0  0  0  0  0  0  0
   42.0930   34.8251   43.4347 H   0  0  0  0  0  0  0  0  0  0  0  0
   43.5754   33.7768   42.1210 H   0  0  0  0  0  0  0  0  0  0  0  0
   44.2572   36.4313   40.7803 H   0  0  0  0  0  0  0  0  0  0  0  0
   44.6855   34.7306   40.2780 H   0  0  0  0  0  0  0  0  0  0  0  0
   40.9129   34.7193   39.6168 H   0  0  0  0  0  0  0  0  0  0  0  0
   41.9890   33.6108   40.5183 H   0  0  0  0  0  0  0  0  0  0  0  0
   41.0470   36.3627   41.4311 H   0  0  0  0  0  0  0  0  0  0  0  0
   40.1543   34.7377   43.1427 H   0  0  0  0  0  0  0  0  0  0  0  0
  1  9  2  0
  2  3  2  0
  2  1  1  0
  3  4  1  0
  4  8  2  0
  4  5  1  0
  5  6  1  0
  7  6  2  0
  8  7  1  0
  9  8  1  0
 10 15  2  0
 11 10  1  0
 11 12  2  0
 12 13  1  0
 13 14  2  0
 14  2  1  0
 15 14  1  0
 16  3  1  0
 18 17  1  0
 18 16  1  0
 19 18  1  0
 20 21  1  0
 20 19  1  0
 21 22  1  0
 22 23  1  0
 22 17  1  0
  1 24  1  0
  5 25  1  0
  6 26  1  0
  9 27  1  0
 10 28  1  0
 11 29  1  0
 12 30  1  0
 17 31  1  0
 18 32  1  6
 19 33  1  0
 19 34  1  0
 21 35  1  0
 21 36  1  0
 22 37  1  6
 23 38  1  0
M  ISO  8  24  14  25   9  26  14  27  14  28  14  29  14  30  14  31   5
M  ISO  7  32  13  33  13  34  13  35  13  36  13  37  13  38   3
M  END
>  <minimizedAffinity>  (1) 
-6.00420284

>  <minimizedRMSD>  (1) 
0.149339408

$$$$
