
     RDKit          3D

 17 18  0  0  0  0  0  0  0  0999 V2000
   44.5720   35.7780   44.7030 C   0  0  0  0  0  0  0  0  0  0  0  0
   45.2760   35.5760   43.5000 C   0  0  0  0  0  0  0  0  0  0  0  0
   46.1500   34.4870   43.4360 C   0  0  0  0  0  0  0  0  0  0  0  0
   46.2710   33.6810   44.5420 N   0  0  0  0  0  0  0  0  0  0  0  0
   45.5650   33.9210   45.6830 C   0  0  0  0  0  0  0  0  0  0  0  0
   44.7220   34.9670   45.7560 N   0  0  0  0  0  0  0  0  0  0  0  0
   45.8790   32.9190   46.7020 C   0  0  0  0  0  0  0  0  0  0  0  0
   45.1270   32.8140   47.9210 C   0  0  0  0  0  0  0  0  0  0  0  0
   45.5070   31.8390   48.8050 C   0  0  0  0  0  0  0  0  0  0  0  0
   46.6140   30.9830   48.4840 C   0  0  0  0  0  0  0  0  0  0  0  0
   47.1280   31.6140   46.8350 S   0  0  0  0  0  0  0  0  0  0  0  0
   43.8781   36.6281   44.7788 H   0  0  0  0  0  0  0  0  0  0  0  0
   45.1428   36.2509   42.6417 H   0  0  0  0  0  0  0  0  0  0  0  0
   46.7268   34.2804   42.5224 H   0  0  0  0  0  0  0  0  0  0  0  0
   44.2834   33.4866   48.1353 H   0  0  0  0  0  0  0  0  0  0  0  0
   44.9672   31.7127   49.7551 H   0  0  0  0  0  0  0  0  0  0  0  0
   47.0445   30.1602   49.0736 H   0  0  0  0  0  0  0  0  0  0  0  0
  1  6  2  0
  2  1  1  0
  3  2  2  0
  3  4  1  0
  4  5  2  0
  5  6  1  0
  5  7  1  0
  7 11  1  0
  7  8  2  0
  8  9  1  0
 10  9  2  0
 11 10  1  0
  1 12  1  0
  2 13  1  0
  3 14  1  0
  8 15  1  0
  9 16  1  0
 10 17  1  0
M  ISO  6  12  14  13  14  14  14  15  14  16  14  17  14
M  END
>  <minimizedAffinity>  (1) 
-4.14108419

>  <minimizedRMSD>  (1) 
0.486318588

$$$$
