
     RDKit          3D

 30 33  0  0  0  0  0  0  0  0999 V2000
   45.9410   33.1450   45.9100 C   0  0  0  0  0  0  0  0  0  0  0  0
   45.5280   33.0900   47.2670 C   0  0  0  0  0  0  0  0  0  0  0  0
   46.2080   32.2690   48.1050 C   0  0  0  0  0  0  0  0  0  0  0  0
   47.2950   31.5040   47.6020 C   0  0  0  0  0  0  0  0  0  0  0  0
   47.3440   31.9920   45.8250 S   0  0  0  0  0  0  0  0  0  0  0  0
   48.4510   29.3760   47.6540 C   0  0  0  0  0  0  0  0  0  0  0  0
   48.1570   30.5880   48.2440 C   0  0  0  0  0  0  0  0  0  0  0  0
   48.6780   30.9650   49.4650 C   0  0  0  0  0  0  0  0  0  0  0  0
   49.5350   30.0780   50.1250 C   0  0  0  0  0  0  0  0  0  0  0  0
   50.1780   30.1960   51.3230 N   0  0  0  0  0  0  0  0  0  0  0  0
   50.8780   29.0370   51.4720 C   0  0  0  0  0  0  0  0  0  0  0  0
   50.6660   28.2430   50.3980 N   0  0  0  0  0  0  0  0  0  0  0  0
   49.8360   28.8640   49.5460 C   0  0  0  0  0  0  0  0  0  0  0  0
   49.2960   28.5060   48.3080 C   0  0  0  0  0  0  0  0  0  0  0  0
   44.2870   35.8770   43.9950 C   0  0  0  0  0  0  0  0  0  0  0  0
   44.1400   35.2360   42.7370 C   0  0  0  0  0  0  0  0  0  0  0  0
   44.6090   33.9260   42.6180 C   0  0  0  0  0  0  0  0  0  0  0  0
   45.1820   33.3330   43.7160 N   0  0  0  0  0  0  0  0  0  0  0  0
   45.2990   33.9860   44.8940 C   0  0  0  0  0  0  0  0  0  0  0  0
   44.8540   35.2590   45.0420 N   0  0  0  0  0  0  0  0  0  0  0  0
   44.6827   33.6945   47.6275 H   0  0  0  0  0  0  0  0  0  0  0  0
   45.9209   32.1958   49.1644 H   0  0  0  0  0  0  0  0  0  0  0  0
   48.0184   29.1089   46.6786 H   0  0  0  0  0  0  0  0  0  0  0  0
   48.4255   31.9394   49.9085 H   0  0  0  0  0  0  0  0  0  0  0  0
   50.1417   30.9920   51.9756 H   0  0  0  0  0  0  0  0  0  0  0  0
   51.5163   28.7860   52.3320 H   0  0  0  0  0  0  0  0  0  0  0  0
   49.5444   27.5338   47.8574 H   0  0  0  0  0  0  0  0  0  0  0  0
   43.9259   36.9091   44.1146 H   0  0  0  0  0  0  0  0  0  0  0  0
   43.6730   35.7530   41.8857 H   0  0  0  0  0  0  0  0  0  0  0  0
   44.5214   33.3815   41.6662 H   0  0  0  0  0  0  0  0  0  0  0  0
  1  2  2  0
  2  3  1  0
  4  3  2  0
  4  7  1  0
  5  1  1  0
  5  4  1  0
  6  7  2  0
  6 14  1  0
  7  8  1  0
  8  9  2  0
  9 10  1  0
 10 11  1  0
 12 11  2  0
 13  9  1  0
 13 12  1  0
 14 13  2  0
 15 20  2  0
 16 15  1  0
 17 16  2  0
 17 18  1  0
 18 19  2  0
 19 20  1  0
 19  1  1  0
  2 21  1  0
  3 22  1  0
  6 23  1  0
  8 24  1  0
 10 25  1  0
 11 26  1  0
 14 27  1  0
 15 28  1  0
 16 29  1  0
 17 30  1  0
M  ISO  8  21  14  22  14  23  14  24  14  25   9  26  14  27  14  28  14
M  ISO  2  29  14  30  14
M  END
>  <minimizedAffinity>  (1) 
-5.39495754

>  <minimizedRMSD>  (1) 
1.54228449

$$$$
