
     RDKit          3D

 24 26  0  0  0  0  0  0  0  0999 V2000
   46.0850   32.9620   45.8100 C   0  0  0  0  0  0  0  0  0  0  0  0
   45.7370   32.7510   47.1740 C   0  0  0  0  0  0  0  0  0  0  0  0
   46.2080   31.6370   47.7700 C   0  0  0  0  0  0  0  0  0  0  0  0
   47.0190   30.7270   47.0400 C   0  0  0  0  0  0  0  0  0  0  0  0
   47.1140   31.5190   45.3850 S   0  0  0  0  0  0  0  0  0  0  0  0
   44.4780   36.0700   44.5820 C   0  0  0  0  0  0  0  0  0  0  0  0
   45.0680   36.1590   43.2940 C   0  0  0  0  0  0  0  0  0  0  0  0
   45.9830   35.1580   42.9100 C   0  0  0  0  0  0  0  0  0  0  0  0
   46.2410   34.1630   43.8080 N   0  0  0  0  0  0  0  0  0  0  0  0
   45.6490   34.1270   45.0230 C   0  0  0  0  0  0  0  0  0  0  0  0
   44.7650   35.0760   45.4190 N   0  0  0  0  0  0  0  0  0  0  0  0
   47.6180   29.5150   47.4470 C   0  0  0  0  0  0  0  0  0  0  0  0
   48.9110   29.2620   47.8510 C   0  0  0  0  0  0  0  0  0  0  0  0
   48.9250   27.8930   48.1300 C   0  0  0  0  0  0  0  0  0  0  0  0
   47.6890   27.3740   47.8960 N   0  0  0  0  0  0  0  0  0  0  0  0
   46.9290   28.3590   47.4910 N   0  0  0  0  0  0  0  0  0  0  0  0
   45.1081   33.4690   47.7207 H   0  0  0  0  0  0  0  0  0  0  0  0
   45.9640   31.4324   48.8229 H   0  0  0  0  0  0  0  0  0  0  0  0
   43.7634   36.8446   44.8972 H   0  0  0  0  0  0  0  0  0  0  0  0
   44.8179   36.9867   42.6140 H   0  0  0  0  0  0  0  0  0  0  0  0
   46.4706   35.1779   41.9242 H   0  0  0  0  0  0  0  0  0  0  0  0
   49.7435   29.9761   47.9348 H   0  0  0  0  0  0  0  0  0  0  0  0
   49.7978   27.3242   48.4832 H   0  0  0  0  0  0  0  0  0  0  0  0
   47.4053   26.3911   48.0152 H   0  0  0  0  0  0  0  0  0  0  0  0
  1  2  2  0
  2  3  1  0
  4 12  1  0
  4  3  2  0
  5  1  1  0
  5  4  1  0
  6 11  2  0
  7  6  1  0
  8  7  2  0
  8  9  1  0
  9 10  2  0
 10 11  1  0
 10  1  1  0
 12 16  2  0
 12 13  1  0
 13 14  2  0
 15 14  1  0
 16 15  1  0
  2 17  1  0
  3 18  1  0
  6 19  1  0
  7 20  1  0
  8 21  1  0
 13 22  1  0
 14 23  1  0
 15 24  1  0
M  ISO  8  17  14  18  14  19  14  20  14  21  14  22  14  23  14  24   9
M  END
>  <minimizedAffinity>  (1) 
-4.54941034

>  <minimizedRMSD>  (1) 
1.48902154

$$$$
