
     RDKit          3D

 24 26  0  0  0  0  0  0  0  0999 V2000
   46.0180   32.9480   45.9220 C   0  0  0  0  0  0  0  0  0  0  0  0
   45.6250   32.7540   47.2710 C   0  0  0  0  0  0  0  0  0  0  0  0
   46.0670   31.6470   47.8950 C   0  0  0  0  0  0  0  0  0  0  0  0
   46.8930   30.7280   47.2090 C   0  0  0  0  0  0  0  0  0  0  0  0
   47.0540   31.4890   45.5570 S   0  0  0  0  0  0  0  0  0  0  0  0
   44.5010   36.0630   44.5970 C   0  0  0  0  0  0  0  0  0  0  0  0
   45.1170   36.1020   43.3180 C   0  0  0  0  0  0  0  0  0  0  0  0
   46.0040   35.0820   42.9770 C   0  0  0  0  0  0  0  0  0  0  0  0
   46.2280   34.1010   43.8990 N   0  0  0  0  0  0  0  0  0  0  0  0
   45.6200   34.1010   45.1070 C   0  0  0  0  0  0  0  0  0  0  0  0
   44.7530   35.0810   45.4650 N   0  0  0  0  0  0  0  0  0  0  0  0
   47.5220   29.4990   47.5390 C   0  0  0  0  0  0  0  0  0  0  0  0
   48.6600   29.3980   48.3050 C   0  0  0  0  0  0  0  0  0  0  0  0
   48.9350   28.0850   48.3870 N   0  0  0  0  0  0  0  0  0  0  0  0
   48.0050   27.3610   47.6970 C   0  0  0  0  0  0  0  0  0  0  0  0
   47.1290   28.2700   47.1740 N   0  0  0  0  0  0  0  0  0  0  0  0
   44.9824   33.4819   47.7880 H   0  0  0  0  0  0  0  0  0  0  0  0
   45.7849   31.4569   48.9411 H   0  0  0  0  0  0  0  0  0  0  0  0
   43.7991   36.8616   44.8791 H   0  0  0  0  0  0  0  0  0  0  0  0
   44.8994   36.9178   42.6130 H   0  0  0  0  0  0  0  0  0  0  0  0
   46.5061   35.0683   41.9984 H   0  0  0  0  0  0  0  0  0  0  0  0
   49.2289   30.2234   48.7580 H   0  0  0  0  0  0  0  0  0  0  0  0
   49.7336   27.6821   48.8976 H   0  0  0  0  0  0  0  0  0  0  0  0
   47.9685   26.2673   47.5849 H   0  0  0  0  0  0  0  0  0  0  0  0
  1  2  2  0
  2  3  1  0
  4 12  1  0
  4  3  2  0
  5  1  1  0
  5  4  1  0
  6 11  2  0
  7  6  1  0
  8  7  2  0
  8  9  1  0
  9 10  2  0
 10 11  1  0
 10  1  1  0
 12 13  2  0
 13 14  1  0
 15 14  1  0
 16 12  1  0
 16 15  2  0
  2 17  1  0
  3 18  1  0
  6 19  1  0
  7 20  1  0
  8 21  1  0
 13 22  1  0
 14 23  1  0
 15 24  1  0
M  ISO  8  17  14  18  14  19  14  20  14  21  14  22  14  23   9  24  14
M  END
>  <minimizedAffinity>  (1) 
-4.53664207

>  <minimizedRMSD>  (1) 
1.32666397

$$$$
