
     RDKit          3D

 19 20  0  0  0  0  0  0  0  0999 V2000
   45.8650   33.1210   46.5350 C   0  0  0  0  0  0  0  0  0  0  0  0
   45.1230   32.9930   47.7410 C   0  0  0  0  0  0  0  0  0  0  0  0
   45.5100   32.0510   48.6300 C   0  0  0  0  0  0  0  0  0  0  0  0
   46.6290   31.2340   48.3310 C   0  0  0  0  0  0  0  0  0  0  0  0
   47.1530   31.8490   46.6890 S   0  0  0  0  0  0  0  0  0  0  0  0
   44.5030   35.9340   44.5230 C   0  0  0  0  0  0  0  0  0  0  0  0
   45.2010   35.7270   43.3270 C   0  0  0  0  0  0  0  0  0  0  0  0
   46.1000   34.6490   43.2510 C   0  0  0  0  0  0  0  0  0  0  0  0
   46.2430   33.8540   44.3640 N   0  0  0  0  0  0  0  0  0  0  0  0
   45.5410   34.1040   45.4920 C   0  0  0  0  0  0  0  0  0  0  0  0
   44.6680   35.1450   45.5770 N   0  0  0  0  0  0  0  0  0  0  0  0
   47.2430   30.1800   49.0790 N   0  0  0  0  0  0  0  0  0  0  0  0
   44.2586   33.6420   47.9449 H   0  0  0  0  0  0  0  0  0  0  0  0
   44.9625   31.9200   49.5750 H   0  0  0  0  0  0  0  0  0  0  0  0
   43.7974   36.7751   44.5908 H   0  0  0  0  0  0  0  0  0  0  0  0
   45.0491   36.3937   42.4653 H   0  0  0  0  0  0  0  0  0  0  0  0
   46.6701   34.4481   42.3320 H   0  0  0  0  0  0  0  0  0  0  0  0
   48.0638   29.6883   48.6976 H   0  0  0  0  0  0  0  0  0  0  0  0
   46.8642   29.9129   49.9988 H   0  0  0  0  0  0  0  0  0  0  0  0
  1  5  1  0
  1  2  2  0
  2  3  1  0
  4  3  2  0
  4 12  1  0
  5  4  1  0
  6 11  2  0
  7  6  1  0
  8  7  2  0
  8  9  1  0
  9 10  2  0
 10 11  1  0
 10  1  1  0
  2 13  1  0
  3 14  1  0
  6 15  1  0
  7 16  1  0
  8 17  1  0
 12 18  1  0
 12 19  1  0
M  ISO  5  13  14  14  14  15  14  16  14  17  14
M  END
>  <minimizedAffinity>  (1) 
-4.52858973

>  <minimizedRMSD>  (1) 
0.263749391

$$$$
