
     RDKit          3D

 40 43  0  0  1  0  0  0  0  0999 V2000
   47.7840   29.7550   48.1430 C   0  0  1  0  0  0  0  0  0  0  0  0
   47.7580   28.6510   47.1410 C   0  0  0  0  0  0  0  0  0  0  0  0
   49.0510   27.9280   46.9580 C   0  0  0  0  0  0  0  0  0  0  0  0
   49.7740   27.6570   48.2520 C   0  0  0  0  0  0  0  0  0  0  0  0
   49.7700   28.8380   49.1940 C   0  0  0  0  0  0  0  0  0  0  0  0
   49.2620   30.0760   48.4570 C   0  0  2  0  0  0  0  0  0  0  0  0
   46.0450   32.9880   46.3140 C   0  0  0  0  0  0  0  0  0  0  0  0
   45.5280   32.7520   47.5970 C   0  0  0  0  0  0  0  0  0  0  0  0
   46.0230   31.7190   48.2990 C   0  0  0  0  0  0  0  0  0  0  0  0
   47.0330   30.9070   47.7430 C   0  0  0  0  0  0  0  0  0  0  0  0
   47.3010   31.6640   46.1060 S   0  0  0  0  0  0  0  0  0  0  0  0
   44.4320   35.9590   44.7590 C   0  0  0  0  0  0  0  0  0  0  0  0
   45.0490   35.9230   43.4810 C   0  0  0  0  0  0  0  0  0  0  0  0
   45.9830   34.8900   43.2130 C   0  0  0  0  0  0  0  0  0  0  0  0
   46.2260   33.9950   44.2070 N   0  0  0  0  0  0  0  0  0  0  0  0
   45.6080   34.0710   45.4200 C   0  0  0  0  0  0  0  0  0  0  0  0
   44.7120   35.0500   45.6990 N   0  0  0  0  0  0  0  0  0  0  0  0
   49.2620   31.2250   49.4420 C   0  0  0  0  0  0  0  0  0  0  0  0
   50.0920   31.0520   50.6610 C   0  0  0  0  0  0  0  0  0  0  0  0
   50.5120   32.0120   49.5600 C   0  0  0  0  0  0  0  0  0  0  0  0
   47.2754   29.4219   49.0597 H   0  0  0  0  0  0  0  0  0  0  0  0
   47.0013   27.9193   47.4604 H   0  0  0  0  0  0  0  0  0  0  0  0
   47.5324   29.1226   46.1731 H   0  0  0  0  0  0  0  0  0  0  0  0
   48.8459   26.9662   46.4653 H   0  0  0  0  0  0  0  0  0  0  0  0
   49.7019   28.5754   46.3520 H   0  0  0  0  0  0  0  0  0  0  0  0
   49.2868   26.8079   48.7536 H   0  0  0  0  0  0  0  0  0  0  0  0
   50.8233   27.4419   48.0016 H   0  0  0  0  0  0  0  0  0  0  0  0
   49.1107   28.6235   50.0480 H   0  0  0  0  0  0  0  0  0  0  0  0
   50.7923   29.0211   49.5566 H   0  0  0  0  0  0  0  0  0  0  0  0
   49.8593   30.3238   47.5672 H   0  0  0  0  0  0  0  0  0  0  0  0
   44.7397   33.3946   48.0161 H   0  0  0  0  0  0  0  0  0  0  0  0
   45.6402   31.5065   49.3081 H   0  0  0  0  0  0  0  0  0  0  0  0
   43.7055   36.7544   44.9816 H   0  0  0  0  0  0  0  0  0  0  0  0
   44.8086   36.6776   42.7176 H   0  0  0  0  0  0  0  0  0  0  0  0
   46.4905   34.8159   42.2399 H   0  0  0  0  0  0  0  0  0  0  0  0
   48.2094   31.4836   49.2546 H   0  0  0  0  0  0  0  0  0  0  0  0
   49.7407   31.4403   51.6284 H   0  0  0  0  0  0  0  0  0  0  0  0
   50.5581   30.1994   51.1766 H   0  0  0  0  0  0  0  0  0  0  0  0
   51.3756   31.7754   48.9211 H   0  0  0  0  0  0  0  0  0  0  0  0
   50.7714   33.0798   49.5104 H   0  0  0  0  0  0  0  0  0  0  0  0
  1  6  1  0
  2  1  1  0
  3  2  1  0
  3  4  1  0
  4  5  1  0
  6  5  1  0
  6 18  1  0
  7  8  2  0
  8  9  1  0
 10  1  1  0
 10  9  2  0
 11  7  1  0
 11 10  1  0
 12 17  2  0
 13 12  1  0
 14 13  2  0
 14 15  1  0
 15 16  2  0
 16 17  1  0
 16  7  1  0
 18 20  1  0
 18 19  1  0
 20 19  1  0
  1 21  1  1
  2 22  1  0
  2 23  1  0
  3 24  1  0
  3 25  1  0
  4 26  1  0
  4 27  1  0
  5 28  1  0
  5 29  1  0
  6 30  1  6
  8 31  1  0
  9 32  1  0
 12 33  1  0
 13 34  1  0
 14 35  1  0
 18 36  1  0
 19 37  1  0
 19 38  1  0
 20 39  1  0
 20 40  1  0
M  ISO  8  21  13  22  13  23  13  24  13  25  13  26  13  27  13  28  13
M  ISO  8  29  13  30  13  31  14  32  14  33  14  34  14  35  14  36  13
M  ISO  4  37  13  38  13  39  13  40  13
M  END
>  <minimizedAffinity>  (1) 
-5.22754526

>  <minimizedRMSD>  (1) 
1.28127229

$$$$
