
     RDKit          3D

 33 35  0  0  0  0  0  0  0  0999 V2000
   45.8030   33.2290   46.3480 C   0  0  0  0  0  0  0  0  0  0  0  0
   45.1910   33.1360   47.6230 C   0  0  0  0  0  0  0  0  0  0  0  0
   45.7570   32.3180   48.5410 C   0  0  0  0  0  0  0  0  0  0  0  0
   46.9290   31.5880   48.2110 C   0  0  0  0  0  0  0  0  0  0  0  0
   47.2340   32.1050   46.4890 S   0  0  0  0  0  0  0  0  0  0  0  0
   44.3410   35.9230   44.2440 C   0  0  0  0  0  0  0  0  0  0  0  0
   44.4990   35.3410   42.9690 C   0  0  0  0  0  0  0  0  0  0  0  0
   45.0920   34.0660   42.8890 C   0  0  0  0  0  0  0  0  0  0  0  0
   45.4840   33.4620   44.0530 N   0  0  0  0  0  0  0  0  0  0  0  0
   45.3090   34.0680   45.2560 C   0  0  0  0  0  0  0  0  0  0  0  0
   44.7400   35.2940   45.3540 N   0  0  0  0  0  0  0  0  0  0  0  0
   47.7880   30.6660   48.8680 C   0  0  0  0  0  0  0  0  0  0  0  0
   48.1770   29.5070   47.9910 C   0  0  0  0  0  0  0  0  0  0  0  0
   49.5980   29.0570   48.1360 C   0  0  0  0  0  0  0  0  0  0  0  0
   50.0760   29.0210   49.5610 C   0  0  0  0  0  0  0  0  0  0  0  0
   49.6650   30.2410   50.3450 C   0  0  0  0  0  0  0  0  0  0  0  0
   49.0860   31.2880   49.3980 C   0  0  0  0  0  0  0  0  0  0  0  0
   44.2836   33.7111   47.8593 H   0  0  0  0  0  0  0  0  0  0  0  0
   45.3096   32.2191   49.5410 H   0  0  0  0  0  0  0  0  0  0  0  0
   43.8787   36.9177   44.3269 H   0  0  0  0  0  0  0  0  0  0  0  0
   44.1682   35.8684   42.0621 H   0  0  0  0  0  0  0  0  0  0  0  0
   45.2361   33.5695   41.9181 H   0  0  0  0  0  0  0  0  0  0  0  0
   47.1804   30.3211   49.7176 H   0  0  0  0  0  0  0  0  0  0  0  0
   48.0170   29.8021   46.9435 H   0  0  0  0  0  0  0  0  0  0  0  0
   47.5508   28.6587   48.3043 H   0  0  0  0  0  0  0  0  0  0  0  0
   49.6871   28.0452   47.7138 H   0  0  0  0  0  0  0  0  0  0  0  0
   50.2238   29.7890   47.6045 H   0  0  0  0  0  0  0  0  0  0  0  0
   49.6554   28.1303   50.0506 H   0  0  0  0  0  0  0  0  0  0  0  0
   51.1755   28.9944   49.5414 H   0  0  0  0  0  0  0  0  0  0  0  0
   48.9045   29.9593   51.0882 H   0  0  0  0  0  0  0  0  0  0  0  0
   50.5442   30.6588   50.8574 H   0  0  0  0  0  0  0  0  0  0  0  0
   49.7835   31.4906   48.5719 H   0  0  0  0  0  0  0  0  0  0  0  0
   48.9087   32.2495   49.9022 H   0  0  0  0  0  0  0  0  0  0  0  0
  1  5  1  0
  1  2  2  0
  2  3  1  0
  4  3  2  0
  4 12  1  0
  5  4  1  0
  6 11  2  0
  7  6  1  0
  8  7  2  0
  8  9  1  0
  9 10  2  0
 10 11  1  0
 10  1  1  0
 12 17  1  0
 13 14  1  0
 13 12  1  0
 14 15  1  0
 15 16  1  0
 17 16  1  0
  2 18  1  0
  3 19  1  0
  6 20  1  0
  7 21  1  0
  8 22  1  0
 12 23  1  0
 13 24  1  0
 13 25  1  0
 14 26  1  0
 14 27  1  0
 15 28  1  0
 15 29  1  0
 16 30  1  0
 16 31  1  0
 17 32  1  0
 17 33  1  0
M  ISO  8  18  14  19  14  20  14  21  14  22  14  23  13  24  13  25  13
M  ISO  8  26  13  27  13  28  13  29  13  30  13  31  13  32  13  33  13
M  END
>  <minimizedAffinity>  (1) 
-5.09788465

>  <minimizedRMSD>  (1) 
0.876616776

$$$$
