
     RDKit          3D

 35 37  0  0  1  0  0  0  0  0999 V2000
   47.7090   30.0730   48.3980 C   0  0  1  0  0  0  0  0  0  0  0  0
   47.7520   28.8950   47.4850 C   0  0  0  0  0  0  0  0  0  0  0  0
   49.0790   28.2130   47.3950 C   0  0  0  0  0  0  0  0  0  0  0  0
   49.7510   28.0470   48.7400 C   0  0  0  0  0  0  0  0  0  0  0  0
   49.6690   29.2860   49.5910 C   0  0  0  0  0  0  0  0  0  0  0  0
   49.1620   30.4590   48.7480 C   0  0  2  0  0  0  0  0  0  0  0  0
   45.9860   33.1440   46.3130 C   0  0  0  0  0  0  0  0  0  0  0  0
   45.3470   32.9070   47.5400 C   0  0  0  0  0  0  0  0  0  0  0  0
   45.8290   31.9180   48.3220 C   0  0  0  0  0  0  0  0  0  0  0  0
   46.9400   31.1630   47.8990 C   0  0  0  0  0  0  0  0  0  0  0  0
   47.3240   31.9050   46.2860 S   0  0  0  0  0  0  0  0  0  0  0  0
   44.3990   36.0370   44.5830 C   0  0  0  0  0  0  0  0  0  0  0  0
   45.0220   35.9360   43.3330 C   0  0  0  0  0  0  0  0  0  0  0  0
   45.9580   34.8920   43.1290 C   0  0  0  0  0  0  0  0  0  0  0  0
   46.2220   34.0200   44.1550 N   0  0  0  0  0  0  0  0  0  0  0  0
   45.5750   34.1770   45.3520 C   0  0  0  0  0  0  0  0  0  0  0  0
   44.6750   35.1760   45.5560 N   0  0  0  0  0  0  0  0  0  0  0  0
   49.1190   31.6380   49.5840 N   0  0  0  0  0  0  0  0  0  0  0  0
   47.1723   29.7919   49.3161 H   0  0  0  0  0  0  0  0  0  0  0  0
   47.0144   28.1606   47.8408 H   0  0  0  0  0  0  0  0  0  0  0  0
   47.5351   29.2792   46.4774 H   0  0  0  0  0  0  0  0  0  0  0  0
   48.9319   27.2172   46.9514 H   0  0  0  0  0  0  0  0  0  0  0  0
   49.7327   28.8457   46.7766 H   0  0  0  0  0  0  0  0  0  0  0  0
   49.2636   27.2195   49.2764 H   0  0  0  0  0  0  0  0  0  0  0  0
   50.8159   27.8428   48.5548 H   0  0  0  0  0  0  0  0  0  0  0  0
   48.9760   29.1101   50.4269 H   0  0  0  0  0  0  0  0  0  0  0  0
   50.6685   29.5249   49.9835 H   0  0  0  0  0  0  0  0  0  0  0  0
   49.7882   30.6556   47.8652 H   0  0  0  0  0  0  0  0  0  0  0  0
   44.4810   33.5081   47.8543 H   0  0  0  0  0  0  0  0  0  0  0  0
   45.3538   31.7016   49.2902 H   0  0  0  0  0  0  0  0  0  0  0  0
   43.6702   36.8413   44.7618 H   0  0  0  0  0  0  0  0  0  0  0  0
   44.7903   36.6499   42.5289 H   0  0  0  0  0  0  0  0  0  0  0  0
   46.4668   34.7819   42.1600 H   0  0  0  0  0  0  0  0  0  0  0  0
   49.1293   31.3569   50.5748 H   0  0  0  0  0  0  0  0  0  0  0  0
   49.9390   32.2291   49.3863 H   0  0  0  0  0  0  0  0  0  0  0  0
  1  6  1  0
  2  1  1  0
  3  2  1  0
  3  4  1  0
  4  5  1  0
  6 18  1  0
  6  5  1  0
  7  8  2  0
  8  9  1  0
 10  9  2  0
 10  1  1  0
 11  7  1  0
 11 10  1  0
 12 17  2  0
 13 12  1  0
 14 13  2  0
 14 15  1  0
 15 16  2  0
 16 17  1  0
 16  7  1  0
  1 19  1  1
  2 20  1  0
  2 21  1  0
  3 22  1  0
  3 23  1  0
  4 24  1  0
  4 25  1  0
  5 26  1  0
  5 27  1  0
  6 28  1  6
  8 29  1  0
  9 30  1  0
 12 31  1  0
 13 32  1  0
 14 33  1  0
 18 34  1  0
 18 35  1  0
M  ISO  8  19  13  20  13  21  13  22  13  23  13  24  13  25  13  26  13
M  ISO  8  27  13  28  13  29  14  30  14  31  14  32  14  33  14  34   5
M  ISO  1  35   5
M  END
>  <minimizedAffinity>  (1) 
-4.9723959

>  <minimizedRMSD>  (1) 
0.83394438

$$$$
