
     RDKit          3D

 36 38  0  0  1  0  0  0  0  0999 V2000
   47.6730   29.9930   48.3050 C   0  0  1  0  0  0  0  0  0  0  0  0
   47.6350   28.8120   47.3990 C   0  0  0  0  0  0  0  0  0  0  0  0
   48.9300   28.0780   47.2590 C   0  0  0  0  0  0  0  0  0  0  0  0
   49.6600   27.9020   48.5740 C   0  0  0  0  0  0  0  0  0  0  0  0
   49.6560   29.1390   49.4220 C   0  0  0  0  0  0  0  0  0  0  0  0
   49.1540   30.3230   48.5910 C   0  0  2  0  0  0  0  0  0  0  0  0
   45.9860   33.1240   46.2830 C   0  0  0  0  0  0  0  0  0  0  0  0
   45.3940   32.9270   47.5410 C   0  0  0  0  0  0  0  0  0  0  0  0
   45.8740   31.9200   48.3060 C   0  0  0  0  0  0  0  0  0  0  0  0
   46.9290   31.1140   47.8360 C   0  0  0  0  0  0  0  0  0  0  0  0
   47.2710   31.8240   46.1980 S   0  0  0  0  0  0  0  0  0  0  0  0
   44.4200   36.0300   44.5590 C   0  0  0  0  0  0  0  0  0  0  0  0
   45.0540   35.9340   43.3100 C   0  0  0  0  0  0  0  0  0  0  0  0
   45.9770   34.8970   43.1120 C   0  0  0  0  0  0  0  0  0  0  0  0
   46.2190   34.0290   44.1410 N   0  0  0  0  0  0  0  0  0  0  0  0
   45.5720   34.1690   45.3380 C   0  0  0  0  0  0  0  0  0  0  0  0
   44.6830   35.1630   45.5340 N   0  0  0  0  0  0  0  0  0  0  0  0
   49.3120   31.6260   49.2960 C   0  0  0  0  0  0  0  0  0  0  0  0
   47.1600   29.7345   49.2431 H   0  0  0  0  0  0  0  0  0  0  0  0
   46.8847   28.1080   47.7881 H   0  0  0  0  0  0  0  0  0  0  0  0
   47.3937   29.2009   46.3988 H   0  0  0  0  0  0  0  0  0  0  0  0
   48.7243   27.0831   46.8372 H   0  0  0  0  0  0  0  0  0  0  0  0
   49.5774   28.6786   46.6031 H   0  0  0  0  0  0  0  0  0  0  0  0
   49.1755   27.0906   49.1370 H   0  0  0  0  0  0  0  0  0  0  0  0
   50.7092   27.6713   48.3372 H   0  0  0  0  0  0  0  0  0  0  0  0
   48.9922   28.9894   50.2863 H   0  0  0  0  0  0  0  0  0  0  0  0
   50.6767   29.3451   49.7764 H   0  0  0  0  0  0  0  0  0  0  0  0
   49.7381   30.4480   47.6673 H   0  0  0  0  0  0  0  0  0  0  0  0
   44.5710   33.5674   47.8911 H   0  0  0  0  0  0  0  0  0  0  0  0
   45.4390   31.7300   49.2983 H   0  0  0  0  0  0  0  0  0  0  0  0
   43.6928   36.8363   44.7349 H   0  0  0  0  0  0  0  0  0  0  0  0
   44.8325   36.6533   42.5078 H   0  0  0  0  0  0  0  0  0  0  0  0
   46.4959   34.7839   42.1487 H   0  0  0  0  0  0  0  0  0  0  0  0
   49.2918   31.4595   50.3831 H   0  0  0  0  0  0  0  0  0  0  0  0
   50.2720   32.0821   49.0127 H   0  0  0  0  0  0  0  0  0  0  0  0
   48.4888   32.2984   49.0127 H   0  0  0  0  0  0  0  0  0  0  0  0
  1  6  1  0
  2  1  1  0
  3  2  1  0
  3  4  1  0
  4  5  1  0
  6 18  1  0
  6  5  1  0
  7  8  2  0
  8  9  1  0
 10  1  1  0
 10  9  2  0
 11  7  1  0
 11 10  1  0
 12 17  2  0
 13 12  1  0
 14 13  2  0
 14 15  1  0
 15 16  2  0
 16 17  1  0
 16  7  1  0
  1 19  1  1
  2 20  1  0
  2 21  1  0
  3 22  1  0
  3 23  1  0
  4 24  1  0
  4 25  1  0
  5 26  1  0
  5 27  1  0
  6 28  1  6
  8 29  1  0
  9 30  1  0
 12 31  1  0
 13 32  1  0
 14 33  1  0
 18 34  1  0
 18 35  1  0
 18 36  1  0
M  ISO  8  19  13  20  13  21  13  22  13  23  13  24  13  25  13  26  13
M  ISO  8  27  13  28  13  29  14  30  14  31  14  32  14  33  14  34   8
M  ISO  2  35   8  36   8
M  END
>  <minimizedAffinity>  (1) 
-4.95020866

>  <minimizedRMSD>  (1) 
0.94911319

$$$$
