
     RDKit          3D

 35 37  0  0  1  0  0  0  0  0999 V2000
   47.5800   29.9810   48.2490 C   0  0  1  0  0  0  0  0  0  0  0  0
   47.4510   28.7840   47.3720 C   0  0  0  0  0  0  0  0  0  0  0  0
   48.7150   28.0080   47.1750 C   0  0  0  0  0  0  0  0  0  0  0  0
   49.5030   27.8280   48.4520 C   0  0  0  0  0  0  0  0  0  0  0  0
   49.5970   29.0980   49.2630 C   0  0  0  0  0  0  0  0  0  0  0  0
   49.0890   30.2780   48.4230 C   0  0  2  0  0  0  0  0  0  0  0  0
   45.9270   33.1530   46.2400 C   0  0  0  0  0  0  0  0  0  0  0  0
   45.3400   32.9530   47.4990 C   0  0  0  0  0  0  0  0  0  0  0  0
   45.8070   31.9390   48.2520 C   0  0  0  0  0  0  0  0  0  0  0  0
   46.8480   31.1180   47.7770 C   0  0  0  0  0  0  0  0  0  0  0  0
   47.1980   31.8340   46.1350 S   0  0  0  0  0  0  0  0  0  0  0  0
   44.4200   36.1020   44.5440 C   0  0  0  0  0  0  0  0  0  0  0  0
   45.0440   36.0120   43.2900 C   0  0  0  0  0  0  0  0  0  0  0  0
   45.9500   34.9530   43.0760 C   0  0  0  0  0  0  0  0  0  0  0  0
   46.1670   34.0760   44.1040 N   0  0  0  0  0  0  0  0  0  0  0  0
   45.5360   34.2110   45.2940 C   0  0  0  0  0  0  0  0  0  0  0  0
   44.6620   35.2260   45.5140 N   0  0  0  0  0  0  0  0  0  0  0  0
   49.1930   31.5070   49.2610 C   0  0  0  0  0  0  0  0  0  0  0  0
   49.9320   31.6050   50.2350 O   0  0  0  0  0  0  0  0  0  0  0  0
   47.1231   29.7605   49.2250 H   0  0  0  0  0  0  0  0  0  0  0  0
   46.7036   28.1119   47.8189 H   0  0  0  0  0  0  0  0  0  0  0  0
   47.1613   29.1588   46.3792 H   0  0  0  0  0  0  0  0  0  0  0  0
   48.4582   27.0145   46.7787 H   0  0  0  0  0  0  0  0  0  0  0  0
   49.3456   28.5783   46.4771 H   0  0  0  0  0  0  0  0  0  0  0  0
   49.0118   27.0561   49.0627 H   0  0  0  0  0  0  0  0  0  0  0  0
   50.5260   27.5359   48.1726 H   0  0  0  0  0  0  0  0  0  0  0  0
   48.9815   29.0010   50.1695 H   0  0  0  0  0  0  0  0  0  0  0  0
   50.6443   29.2746   49.5491 H   0  0  0  0  0  0  0  0  0  0  0  0
   49.6343   30.4076   47.4765 H   0  0  0  0  0  0  0  0  0  0  0  0
   44.5273   33.6016   47.8579 H   0  0  0  0  0  0  0  0  0  0  0  0
   45.3724   31.7507   49.2448 H   0  0  0  0  0  0  0  0  0  0  0  0
   43.7099   36.9214   44.7295 H   0  0  0  0  0  0  0  0  0  0  0  0
   44.8326   36.7455   42.4980 H   0  0  0  0  0  0  0  0  0  0  0  0
   46.4667   34.8353   42.1121 H   0  0  0  0  0  0  0  0  0  0  0  0
   48.5724   32.3740   48.9906 H   0  0  0  0  0  0  0  0  0  0  0  0
  1  6  1  0
  2  1  1  0
  3  2  1  0
  3  4  1  0
  4  5  1  0
  6 18  1  0
  6  5  1  0
  7  8  2  0
  8  9  1  0
 10  1  1  0
 10  9  2  0
 11  7  1  0
 11 10  1  0
 12 17  2  0
 13 12  1  0
 14 13  2  0
 14 15  1  0
 15 16  2  0
 16 17  1  0
 16  7  1  0
 18 19  2  0
  1 20  1  1
  2 21  1  0
  2 22  1  0
  3 23  1  0
  3 24  1  0
  4 25  1  0
  4 26  1  0
  5 27  1  0
  5 28  1  0
  6 29  1  6
  8 30  1  0
  9 31  1  0
 12 32  1  0
 13 33  1  0
 14 34  1  0
 18 35  1  0
M  ISO  8  20  13  21  13  22  13  23  13  24  13  25  13  26  13  27  13
M  ISO  8  28  13  29  13  30  14  31  14  32  14  33  14  34  14  35   6
M  END
>  <minimizedAffinity>  (1) 
-4.99851131

>  <minimizedRMSD>  (1) 
1.07968318

$$$$
