
     RDKit          3D

 25 27  0  0  0  0  0  0  0  0999 V2000
   45.2790   36.0950   43.1410 C   0  0  0  0  0  0  0  0  0  0  0  0
   45.8040   34.7910   42.9360 C   0  0  0  0  0  0  0  0  0  0  0  0
   45.6680   33.9370   44.0090 C   0  0  0  0  0  0  0  0  0  0  0  0
   45.0580   34.3880   45.1650 N   0  0  0  0  0  0  0  0  0  0  0  0
   44.5800   35.6280   45.3080 C   0  0  0  0  0  0  0  0  0  0  0  0
   44.7020   36.4740   44.2760 N   0  0  0  0  0  0  0  0  0  0  0  0
   46.0820   32.4940   43.8710 C   0  0  0  0  0  0  0  0  0  0  0  0
   47.4460   32.2570   44.5340 C   0  0  0  0  0  0  0  0  0  0  0  0
   46.1020   31.6740   45.0690 C   0  0  0  0  0  0  0  0  0  0  0  0
   46.4270   34.4790   41.6640 C   0  0  0  0  0  0  0  0  0  0  0  0
   45.6900   33.8010   40.7230 C   0  0  0  0  0  0  0  0  0  0  0  0
   46.1510   33.4300   39.4800 C   0  0  0  0  0  0  0  0  0  0  0  0
   47.4300   33.7460   39.1280 N   0  0  0  0  0  0  0  0  0  0  0  0
   48.1420   34.4080   40.0540 C   0  0  0  0  0  0  0  0  0  0  0  0
   47.6530   34.7390   41.2330 N   0  0  0  0  0  0  0  0  0  0  0  0
   45.3537   36.8251   42.3216 H   0  0  0  0  0  0  0  0  0  0  0  0
   44.1003   35.9449   46.2458 H   0  0  0  0  0  0  0  0  0  0  0  0
   45.6236   32.3202   42.8863 H   0  0  0  0  0  0  0  0  0  0  0  0
   48.1930   31.6020   44.0617 H   0  0  0  0  0  0  0  0  0  0  0  0
   48.2630   32.8785   44.9293 H   0  0  0  0  0  0  0  0  0  0  0  0
   45.6716   32.0617   46.0041 H   0  0  0  0  0  0  0  0  0  0  0  0
   45.7446   30.6639   45.3178 H   0  0  0  0  0  0  0  0  0  0  0  0
   44.6546   33.5349   40.9822 H   0  0  0  0  0  0  0  0  0  0  0  0
   45.4976   32.8869   38.7814 H   0  0  0  0  0  0  0  0  0  0  0  0
   49.1797   34.6867   39.8186 H   0  0  0  0  0  0  0  0  0  0  0  0
  1  6  2  0
  2  1  1  0
  2  3  2  0
  3  4  1  0
  4  5  2  0
  6  5  1  0
  7  3  1  0
  7  8  1  0
  7  9  1  0
  8  9  1  0
 10  2  1  0
 11 10  2  0
 12 11  1  0
 13 12  2  0
 13 14  1  0
 14 15  2  0
 15 10  1  0
  1 16  1  0
  5 17  1  0
  7 18  1  0
  8 19  1  0
  8 20  1  0
  9 21  1  0
  9 22  1  0
 11 23  1  0
 12 24  1  0
 14 25  1  0
M  ISO  8  16  14  17  14  18  13  19  13  20  13  21  13  22  13  23  14
M  ISO  2  24  14  25  14
M  END
>  <minimizedAffinity>  (1) 
-4.23864698

>  <minimizedRMSD>  (1) 
3.5699048

$$$$
