
     RDKit          3D

 24 26  0  0  0  0  0  0  0  0999 V2000
   45.1770   35.8970   43.3510 C   0  0  0  0  0  0  0  0  0  0  0  0
   46.1170   34.8570   43.1870 C   0  0  0  0  0  0  0  0  0  0  0  0
   46.2650   34.0310   44.2700 C   0  0  0  0  0  0  0  0  0  0  0  0
   45.5070   34.2750   45.4000 N   0  0  0  0  0  0  0  0  0  0  0  0
   44.6270   35.2700   45.5160 C   0  0  0  0  0  0  0  0  0  0  0  0
   44.4810   36.0780   44.4610 N   0  0  0  0  0  0  0  0  0  0  0  0
   47.1500   32.8060   44.2040 C   0  0  0  0  0  0  0  0  0  0  0  0
   46.9460   31.9330   45.4500 C   0  0  0  0  0  0  0  0  0  0  0  0
   46.5240   31.5120   44.0090 C   0  0  0  0  0  0  0  0  0  0  0  0
   46.8610   34.7070   41.9850 C   0  0  0  0  0  0  0  0  0  0  0  0
   46.2890   34.0220   40.9000 C   0  0  0  0  0  0  0  0  0  0  0  0
   46.9250   33.8330   39.7340 C   0  0  0  0  0  0  0  0  0  0  0  0
   48.2470   34.3620   39.6120 C   0  0  0  0  0  0  0  0  0  0  0  0
   48.4450   35.1330   41.3190 S   0  0  0  0  0  0  0  0  0  0  0  0
   45.0152   36.5918   42.5137 H   0  0  0  0  0  0  0  0  0  0  0  0
   44.0470   35.4194   46.4387 H   0  0  0  0  0  0  0  0  0  0  0  0
   47.9902   33.2818   43.6770 H   0  0  0  0  0  0  0  0  0  0  0  0
   47.8032   31.4542   45.9460 H   0  0  0  0  0  0  0  0  0  0  0  0
   46.4568   32.0371   46.4297 H   0  0  0  0  0  0  0  0  0  0  0  0
   45.4573   31.4548   43.7465 H   0  0  0  0  0  0  0  0  0  0  0  0
   46.7334   30.6434   43.3674 H   0  0  0  0  0  0  0  0  0  0  0  0
   45.2707   33.6214   41.0119 H   0  0  0  0  0  0  0  0  0  0  0  0
   46.4474   33.2918   38.9039 H   0  0  0  0  0  0  0  0  0  0  0  0
   48.9476   34.3285   38.7646 H   0  0  0  0  0  0  0  0  0  0  0  0
  1  6  2  0
  2  1  1  0
  2  3  2  0
  3  4  1  0
  4  5  2  0
  6  5  1  0
  7  3  1  0
  7  8  1  0
  9  7  1  0
  9  8  1  0
 10  2  1  0
 11 10  2  0
 12 11  1  0
 13 12  2  0
 13 14  1  0
 14 10  1  0
  1 15  1  0
  5 16  1  0
  7 17  1  0
  8 18  1  0
  8 19  1  0
  9 20  1  0
  9 21  1  0
 11 22  1  0
 12 23  1  0
 13 24  1  0
M  ISO  8  15  14  16  14  17  13  18  13  19  13  20  13  21  13  22  14
M  ISO  2  23  14  24  14
M  END
>  <minimizedAffinity>  (1) 
-4.41617918

>  <minimizedRMSD>  (1) 
3.36862969

$$$$
