
     RDKit          3D

 43 46  0  0  0  0  0  0  0  0999 V2000
   48.4390   33.0980   41.5030 C   0  0  0  0  0  0  0  0  0  0  0  0
   47.9840   34.3120   41.9370 C   0  0  0  0  0  0  0  0  0  0  0  0
   48.8610   35.1820   42.5230 C   0  0  0  0  0  0  0  0  0  0  0  0
   50.1990   34.8190   42.6670 C   0  0  0  0  0  0  0  0  0  0  0  0
   50.6180   33.5830   42.2140 C   0  0  0  0  0  0  0  0  0  0  0  0
   49.7270   32.6880   41.6140 C   0  0  0  0  0  0  0  0  0  0  0  0
   46.5620   34.6100   41.7460 C   0  0  0  0  0  0  0  0  0  0  0  0
   45.8830   34.8590   43.0760 C   0  0  0  0  0  0  0  0  0  0  0  0
   45.9850   33.8590   44.0420 C   0  0  0  0  0  0  0  0  0  0  0  0
   45.3610   34.0990   45.2560 C   0  0  0  0  0  0  0  0  0  0  0  0
   44.7070   35.2580   45.4320 N   0  0  0  0  0  0  0  0  0  0  0  0
   44.6280   36.2140   44.4650 C   0  0  0  0  0  0  0  0  0  0  0  0
   45.2190   36.0010   43.2980 N   0  0  0  0  0  0  0  0  0  0  0  0
   47.6200   32.1370   40.8900 O   0  0  0  0  0  0  0  0  0  0  0  0
   50.2730   31.4750   41.2010 O   0  0  0  0  0  0  0  0  0  0  0  0
   50.8100   31.4910   39.9120 C   0  0  0  0  0  0  0  0  0  0  0  0
   52.1700   31.3610   39.7660 C   0  0  0  0  0  0  0  0  0  0  0  0
   52.7950   31.3650   38.5140 C   0  0  0  0  0  0  0  0  0  0  0  0
   52.0270   31.5020   37.4200 N   0  0  0  0  0  0  0  0  0  0  0  0
   50.7030   31.6290   37.5640 C   0  0  0  0  0  0  0  0  0  0  0  0
   50.1100   31.6250   38.7740 N   0  0  0  0  0  0  0  0  0  0  0  0
   49.7890   31.7820   36.4840 N   0  0  0  0  0  0  0  0  0  0  0  0
   49.7300   30.9040   35.4430 C   0  0  0  0  0  0  0  0  0  0  0  0
   48.8220   31.1040   34.4230 C   0  0  0  0  0  0  0  0  0  0  0  0
   47.9750   32.1930   34.4560 C   0  0  0  0  0  0  0  0  0  0  0  0
   47.1540   32.3550   33.5150 O   0  0  0  0  0  0  0  0  0  0  0  0
   48.0190   33.0770   35.4840 N   0  0  0  0  0  0  0  0  0  0  0  0
   48.9220   32.8100   36.4240 C   0  0  0  0  0  0  0  0  0  0  0  0
   48.9870   33.6230   37.3990 O   0  0  0  0  0  0  0  0  0  0  0  0
   48.5126   36.1628   42.8788 H   0  0  0  0  0  0  0  0  0  0  0  0
   50.9144   35.5100   43.1368 H   0  0  0  0  0  0  0  0  0  0  0  0
   51.6741   33.2971   42.3277 H   0  0  0  0  0  0  0  0  0  0  0  0
   46.4625   35.5066   41.1166 H   0  0  0  0  0  0  0  0  0  0  0  0
   46.0824   33.7472   41.2607 H   0  0  0  0  0  0  0  0  0  0  0  0
   46.5339   32.9252   43.8501 H   0  0  0  0  0  0  0  0  0  0  0  0
   45.4010   33.3518   46.0623 H   0  0  0  0  0  0  0  0  0  0  0  0
   44.0810   37.1502   44.6502 H   0  0  0  0  0  0  0  0  0  0  0  0
   46.6571   32.3220   40.7531 H   0  0  0  0  0  0  0  0  0  0  0  0
   52.7909   31.2496   40.6672 H   0  0  0  0  0  0  0  0  0  0  0  0
   53.8865   31.2588   38.4277 H   0  0  0  0  0  0  0  0  0  0  0  0
   50.4058   30.0365   35.4159 H   0  0  0  0  0  0  0  0  0  0  0  0
   48.7734   30.3950   33.5834 H   0  0  0  0  0  0  0  0  0  0  0  0
   47.3974   33.8968   35.5334 H   0  0  0  0  0  0  0  0  0  0  0  0
  1  6  2  0
  1  2  1  0
  2  3  2  0
  3  4  1  0
  5  4  2  0
  6  5  1  0
  7  2  1  0
  7  8  1  0
  8 13  1  0
  8  9  2  0
  9 10  1  0
 10 11  2  0
 12 11  1  0
 13 12  2  0
 14  1  1  0
 15  6  1  0
 16 15  1  0
 17 16  2  0
 18 17  1  0
 19 20  1  0
 19 18  2  0
 20 21  2  0
 21 16  1  0
 22 20  1  0
 23 22  1  0
 24 25  1  0
 24 23  2  0
 25 27  1  0
 26 25  2  0
 27 28  1  0
 28 22  1  0
 28 29  2  0
  3 30  1  0
  4 31  1  0
  5 32  1  0
  7 33  1  0
  7 34  1  0
  9 35  1  0
 10 36  1  0
 12 37  1  0
 14 38  1  0
 17 39  1  0
 18 40  1  0
 23 41  1  0
 24 42  1  0
 27 43  1  0
M  ISO  8  30  14  31  14  32  14  33   8  34   8  35  14  36  14  37  14
M  ISO  6  38   3  39  14  40  14  41  14  42  14  43   9
M  END
>  <minimizedAffinity>  (1) 
-6.91748238

>  <minimizedRMSD>  (1) 
0.772485673

$$$$
