
     RDKit          3D

 27 29  0  0  0  0  0  0  0  0999 V2000
   45.1680   33.7540   43.8060 C   0  0  0  0  0  0  0  0  0  0  0  0
   45.2580   33.9970   42.3910 C   0  0  0  0  0  0  0  0  0  0  0  0
   46.5420   34.0100   41.8740 C   0  0  0  0  0  0  0  0  0  0  0  0
   47.6550   33.8080   42.6620 N   0  0  0  0  0  0  0  0  0  0  0  0
   47.5060   33.5830   43.9930 C   0  0  0  0  0  0  0  0  0  0  0  0
   46.2770   33.5590   44.5460 N   0  0  0  0  0  0  0  0  0  0  0  0
   44.0120   31.8200   41.1940 F   0  0  0  0  0  0  0  0  0  0  0  0
   43.5090   33.0710   40.9940 C   0  0  0  0  0  0  0  0  0  0  0  0
   44.0810   34.2110   41.5630 C   0  0  0  0  0  0  0  0  0  0  0  0
   43.4740   35.4180   41.2850 C   0  0  0  0  0  0  0  0  0  0  0  0
   42.3620   35.4920   40.4850 C   0  0  0  0  0  0  0  0  0  0  0  0
   41.8030   34.3480   39.9250 C   0  0  0  0  0  0  0  0  0  0  0  0
   42.4000   33.1340   40.1970 C   0  0  0  0  0  0  0  0  0  0  0  0
   46.6510   34.1590   40.3780 C   0  0  0  0  0  0  0  0  0  0  0  0
   48.0830   34.5070   39.9600 C   0  0  0  0  0  0  0  0  0  0  0  0
   47.3950   33.1460   39.6620 C   0  0  0  0  0  0  0  0  0  0  0  0
   44.1807   33.7270   44.2903 H   0  0  0  0  0  0  0  0  0  0  0  0
   48.3928   33.4195   44.6230 H   0  0  0  0  0  0  0  0  0  0  0  0
   43.8906   36.3412   41.7141 H   0  0  0  0  0  0  0  0  0  0  0  0
   41.9050   36.4720   40.2831 H   0  0  0  0  0  0  0  0  0  0  0  0
   40.9111   34.4093   39.2841 H   0  0  0  0  0  0  0  0  0  0  0  0
   41.9809   32.2110   39.7698 H   0  0  0  0  0  0  0  0  0  0  0  0
   45.6465   34.5763   40.2141 H   0  0  0  0  0  0  0  0  0  0  0  0
   48.2717   35.2290   39.1519 H   0  0  0  0  0  0  0  0  0  0  0  0
   49.0026   34.8476   40.4583 H   0  0  0  0  0  0  0  0  0  0  0  0
   47.1149   32.8898   38.6296 H   0  0  0  0  0  0  0  0  0  0  0  0
   47.6504   32.0944   39.8591 H   0  0  0  0  0  0  0  0  0  0  0  0
  1  6  2  0
  2  1  1  0
  3  2  2  0
  3  4  1  0
  4  5  2  0
  5  6  1  0
  8  7  1  0
  8  9  2  0
  9  2  1  0
 10  9  1  0
 11 10  2  0
 12 13  2  0
 12 11  1  0
 13  8  1  0
 14  3  1  0
 15 14  1  0
 16 15  1  0
 16 14  1  0
  1 17  1  0
  5 18  1  0
 10 19  1  0
 11 20  1  0
 12 21  1  0
 13 22  1  0
 14 23  1  0
 15 24  1  0
 15 25  1  0
 16 26  1  0
 16 27  1  0
M  ISO  8  17  14  18  14  19  14  20  14  21  14  22  14  23  13  24  13
M  ISO  3  25  13  26  13  27  13
M  END
>  <minimizedAffinity>  (1) 
-3.82611704

>  <minimizedRMSD>  (1) 
3.04811978

$$$$
