
     RDKit          3D

 19 20  0  0  0  0  0  0  0  0999 V2000
   44.6260   35.4670   45.1270 C   0  0  0  0  0  0  0  0  0  0  0  0
   45.1080   35.7240   43.8070 C   0  0  0  0  0  0  0  0  0  0  0  0
   46.0610   34.8260   43.3620 C   0  0  0  0  0  0  0  0  0  0  0  0
   46.4950   33.7710   44.1520 N   0  0  0  0  0  0  0  0  0  0  0  0
   46.0030   33.5860   45.3780 C   0  0  0  0  0  0  0  0  0  0  0  0
   45.0670   34.4320   45.8730 N   0  0  0  0  0  0  0  0  0  0  0  0
   46.5340   34.9800   41.9310 C   0  0  0  0  0  0  0  0  0  0  0  0
   48.0480   35.2830   41.9150 C   0  0  0  0  0  0  0  0  0  0  0  0
   47.4030   33.9600   41.4130 C   0  0  0  0  0  0  0  0  0  0  0  0
   44.6380   36.8120   43.0300 N   0  0  0  0  0  0  0  0  0  0  0  0
   43.8658   36.1388   45.5521 H   0  0  0  0  0  0  0  0  0  0  0  0
   46.3583   32.7436   45.9896 H   0  0  0  0  0  0  0  0  0  0  0  0
   45.6163   35.4236   41.5175 H   0  0  0  0  0  0  0  0  0  0  0  0
   48.4691   36.0090   41.2039 H   0  0  0  0  0  0  0  0  0  0  0  0
   48.8176   35.5772   42.6439 H   0  0  0  0  0  0  0  0  0  0  0  0
   47.3945   33.7326   40.3368 H   0  0  0  0  0  0  0  0  0  0  0  0
   47.5585   32.8960   41.6448 H   0  0  0  0  0  0  0  0  0  0  0  0
   45.0091   36.9658   42.0816 H   0  0  0  0  0  0  0  0  0  0  0  0
   43.9253   37.4489   43.4137 H   0  0  0  0  0  0  0  0  0  0  0  0
  1  6  2  0
  2  1  1  0
  3  2  2  0
  3  4  1  0
  4  5  2  0
  5  6  1  0
  7  3  1  0
  8  7  1  0
  9  8  1  0
  9  7  1  0
 10  2  1  0
  1 11  1  0
  5 12  1  0
  7 13  1  0
  8 14  1  0
  8 15  1  0
  9 16  1  0
  9 17  1  0
 10 18  1  0
 10 19  1  0
M  ISO  7  11  14  12  14  13  13  14  13  15  13  16  13  17  13
M  END
>  <minimizedAffinity>  (1) 
-3.94340277

>  <minimizedRMSD>  (1) 
0.72717905

$$$$
