
     RDKit          3D

 33 36  0  0  1  0  0  0  0  0999 V2000
   46.4630   35.0550   41.8870 C   0  0  1  0  0  0  0  0  0  0  0  0
   48.0100   35.0560   41.7930 C   0  0  0  0  0  0  0  0  0  0  0  0
   47.0550   33.9920   41.1620 C   0  0  2  0  0  0  0  0  0  0  0  0
   47.1860   33.9000   39.7070 C   0  0  0  0  0  0  0  0  0  0  0  0
   48.2570   34.4930   39.1260 N   0  0  0  0  0  0  0  0  0  0  0  0
   48.3910   34.4170   37.7850 C   0  0  0  0  0  0  0  0  0  0  0  0
   47.5180   33.7790   36.9650 N   0  0  0  0  0  0  0  0  0  0  0  0
   46.4330   33.1730   37.5070 C   0  0  0  0  0  0  0  0  0  0  0  0
   45.4870   32.4990   36.7640 C   0  0  0  0  0  0  0  0  0  0  0  0
   44.3920   31.8880   37.3390 C   0  0  0  0  0  0  0  0  0  0  0  0
   44.2440   31.9600   38.7160 C   0  0  0  0  0  0  0  0  0  0  0  0
   45.2000   32.6370   39.4290 C   0  0  0  0  0  0  0  0  0  0  0  0
   46.3010   33.2530   38.8710 C   0  0  0  0  0  0  0  0  0  0  0  0
   44.7080   35.3390   45.2020 C   0  0  0  0  0  0  0  0  0  0  0  0
   45.1120   35.6690   43.8820 C   0  0  0  0  0  0  0  0  0  0  0  0
   46.0320   34.8200   43.3180 C   0  0  0  0  0  0  0  0  0  0  0  0
   46.5160   33.7220   44.0180 N   0  0  0  0  0  0  0  0  0  0  0  0
   46.1040   33.4520   45.2630 C   0  0  0  0  0  0  0  0  0  0  0  0
   45.1920   34.2710   45.8550 N   0  0  0  0  0  0  0  0  0  0  0  0
   44.6310   36.8160   43.1770 N   0  0  0  0  0  0  0  0  0  0  0  0
   45.6313   35.7205   41.6125 H   0  0  0  0  0  0  0  0  0  0  0  0
   48.5378   35.7868   41.1626 H   0  0  0  0  0  0  0  0  0  0  0  0
   48.8642   35.0690   42.4859 H   0  0  0  0  0  0  0  0  0  0  0  0
   46.8329   32.9164   41.2236 H   0  0  0  0  0  0  0  0  0  0  0  0
   49.2647   34.9039   37.3271 H   0  0  0  0  0  0  0  0  0  0  0  0
   45.6100   32.4466   35.6722 H   0  0  0  0  0  0  0  0  0  0  0  0
   43.6540   31.3565   36.7202 H   0  0  0  0  0  0  0  0  0  0  0  0
   43.3872   31.4891   39.2202 H   0  0  0  0  0  0  0  0  0  0  0  0
   45.0807   32.6927   40.5211 H   0  0  0  0  0  0  0  0  0  0  0  0
   43.9721   35.9814   45.7078 H   0  0  0  0  0  0  0  0  0  0  0  0
   46.4983   32.5777   45.8017 H   0  0  0  0  0  0  0  0  0  0  0  0
   44.9589   37.0069   42.2194 H   0  0  0  0  0  0  0  0  0  0  0  0
   43.9566   37.4515   43.6267 H   0  0  0  0  0  0  0  0  0  0  0  0
  1 16  1  0
  2  1  1  0
  3  2  1  0
  3  1  1  0
  4  3  1  0
  5  4  2  0
  6  5  1  0
  7  8  1  0
  7  6  2  0
  8 13  2  0
  9 10  2  0
  9  8  1  0
 10 11  1  0
 11 12  2  0
 13 12  1  0
 13  4  1  0
 14 19  2  0
 15 14  1  0
 16 15  2  0
 16 17  1  0
 17 18  2  0
 18 19  1  0
 20 15  1  0
  1 21  1  6
  2 22  1  0
  2 23  1  0
  3 24  1  1
  6 25  1  0
  9 26  1  0
 10 27  1  0
 11 28  1  0
 12 29  1  0
 14 30  1  0
 18 31  1  0
 20 32  1  0
 20 33  1  0
M  ISO  8  21  13  22  13  23  13  24  13  25  14  26  14  27  14  28  14
M  ISO  3  29  14  30  14  31  14
M  END
>  <minimizedAffinity>  (1) 
-5.7487812

>  <minimizedRMSD>  (1) 
0.74300313

$$$$
