
     RDKit          3D

 47 50  0  0  0  0  0  0  0  0999 V2000
   48.3530   33.1410   41.4300 C   0  0  0  0  0  0  0  0  0  0  0  0
   47.9460   34.3580   41.9060 C   0  0  0  0  0  0  0  0  0  0  0  0
   48.8550   35.1770   42.5120 C   0  0  0  0  0  0  0  0  0  0  0  0
   50.1780   34.7610   42.6370 C   0  0  0  0  0  0  0  0  0  0  0  0
   50.5530   33.5350   42.1490 C   0  0  0  0  0  0  0  0  0  0  0  0
   49.6260   32.6830   41.5230 C   0  0  0  0  0  0  0  0  0  0  0  0
   46.5300   34.7130   41.7310 C   0  0  0  0  0  0  0  0  0  0  0  0
   45.8650   34.9170   43.0790 C   0  0  0  0  0  0  0  0  0  0  0  0
   45.9790   33.8900   44.0130 C   0  0  0  0  0  0  0  0  0  0  0  0
   45.3650   34.0960   45.2380 C   0  0  0  0  0  0  0  0  0  0  0  0
   44.7090   35.2510   45.4520 N   0  0  0  0  0  0  0  0  0  0  0  0
   44.6170   36.2300   44.5190 C   0  0  0  0  0  0  0  0  0  0  0  0
   45.2010   36.0410   43.3450 N   0  0  0  0  0  0  0  0  0  0  0  0
   47.4920   32.2320   40.7920 O   0  0  0  0  0  0  0  0  0  0  0  0
   50.1230   31.4590   41.0650 O   0  0  0  0  0  0  0  0  0  0  0  0
   50.5690   31.4840   39.7420 C   0  0  0  0  0  0  0  0  0  0  0  0
   51.9040   31.2370   39.4960 C   0  0  0  0  0  0  0  0  0  0  0  0
   52.4360   31.2420   38.2030 C   0  0  0  0  0  0  0  0  0  0  0  0
   51.6290   31.4940   37.1760 N   0  0  0  0  0  0  0  0  0  0  0  0
   50.3220   31.7370   37.4240 C   0  0  0  0  0  0  0  0  0  0  0  0
   49.8140   31.7310   38.6610 N   0  0  0  0  0  0  0  0  0  0  0  0
   49.4170   32.0140   36.3370 N   0  0  0  0  0  0  0  0  0  0  0  0
   48.2560   32.8640   36.5060 C   0  0  0  0  0  0  0  0  0  0  0  0
   47.1900   32.3450   35.5650 C   0  0  0  0  0  0  0  0  0  0  0  0
   47.6200   32.5960   34.2200 N   0  0  0  0  0  0  0  0  0  0  0  0
   48.9890   32.2740   33.9510 C   0  0  0  0  0  0  0  0  0  0  0  0
   49.6420   31.4440   35.0190 C   0  0  0  0  0  0  0  0  0  0  0  0
   48.5443   36.1588   42.8988 H   0  0  0  0  0  0  0  0  0  0  0  0
   50.9186   35.4121   43.1245 H   0  0  0  0  0  0  0  0  0  0  0  0
   51.5997   33.2120   42.2494 H   0  0  0  0  0  0  0  0  0  0  0  0
   46.4590   35.6428   41.1475 H   0  0  0  0  0  0  0  0  0  0  0  0
   46.0199   33.8945   41.2019 H   0  0  0  0  0  0  0  0  0  0  0  0
   46.5280   32.9633   43.7897 H   0  0  0  0  0  0  0  0  0  0  0  0
   45.4132   33.3272   46.0233 H   0  0  0  0  0  0  0  0  0  0  0  0
   44.0699   37.1602   44.7318 H   0  0  0  0  0  0  0  0  0  0  0  0
   46.5366   32.4593   40.6673 H   0  0  0  0  0  0  0  0  0  0  0  0
   52.5718   31.0293   40.3451 H   0  0  0  0  0  0  0  0  0  0  0  0
   53.5047   31.0408   38.0377 H   0  0  0  0  0  0  0  0  0  0  0  0
   47.8994   32.8149   37.5454 H   0  0  0  0  0  0  0  0  0  0  0  0
   48.5005   33.9131   36.2835 H   0  0  0  0  0  0  0  0  0  0  0  0
   47.0533   31.2641   35.7168 H   0  0  0  0  0  0  0  0  0  0  0  0
   46.2326   32.8507   35.7589 H   0  0  0  0  0  0  0  0  0  0  0  0
   47.0302   32.0374   33.5867 H   0  0  0  0  0  0  0  0  0  0  0  0
   49.0336   31.7165   33.0038 H   0  0  0  0  0  0  0  0  0  0  0  0
   49.5377   33.2264   33.9078 H   0  0  0  0  0  0  0  0  0  0  0  0
   49.2221   30.4277   34.9909 H   0  0  0  0  0  0  0  0  0  0  0  0
   50.7253   31.4207   34.8292 H   0  0  0  0  0  0  0  0  0  0  0  0
  1  6  2  0
  1  2  1  0
  2  3  2  0
  3  4  1  0
  5  4  2  0
  6  5  1  0
  7  2  1  0
  7  8  1  0
  8 13  1  0
  8  9  2  0
  9 10  1  0
 10 11  2  0
 12 11  1  0
 13 12  2  0
 14  1  1  0
 15  6  1  0
 16 15  1  0
 17 16  2  0
 18 17  1  0
 19 20  1  0
 19 18  2  0
 20 21  2  0
 21 16  1  0
 22 23  1  0
 22 20  1  0
 24 23  1  0
 25 24  1  0
 26 25  1  0
 26 27  1  0
 27 22  1  0
  3 28  1  0
  4 29  1  0
  5 30  1  0
  7 31  1  0
  7 32  1  0
  9 33  1  0
 10 34  1  0
 12 35  1  0
 14 36  1  0
 17 37  1  0
 18 38  1  0
 23 39  1  0
 23 40  1  0
 24 41  1  0
 24 42  1  0
 25 43  1  0
 26 44  1  0
 26 45  1  0
 27 46  1  0
 27 47  1  0
M  ISO  8  28  14  29  14  30  14  31   8  32   8  33  14  34  14  35  14
M  ISO  8  36   3  37  14  38  14  39  13  40  13  41  13  42  13  43   5
M  ISO  4  44  13  45  13  46  13  47  13
M  END
>  <minimizedAffinity>  (1) 
-6.51968527

>  <minimizedRMSD>  (1) 
1.01746094

$$$$
