
     RDKit          3D

 34 36  0  0  1  0  0  0  0  0999 V2000
   46.4670   35.0490   42.0420 C   0  0  1  0  0  0  0  0  0  0  0  0
   48.0040   35.2830   41.9560 C   0  0  0  0  0  0  0  0  0  0  0  0
   47.2210   34.1070   41.3190 C   0  0  2  0  0  0  0  0  0  0  0  0
   44.7680   35.1380   45.3830 C   0  0  0  0  0  0  0  0  0  0  0  0
   45.1230   35.5390   44.0640 C   0  0  0  0  0  0  0  0  0  0  0  0
   46.0540   34.7580   43.4650 C   0  0  0  0  0  0  0  0  0  0  0  0
   46.6100   33.6610   44.0970 N   0  0  0  0  0  0  0  0  0  0  0  0
   46.2360   33.3240   45.3520 C   0  0  0  0  0  0  0  0  0  0  0  0
   45.3090   34.0690   45.9960 N   0  0  0  0  0  0  0  0  0  0  0  0
   44.5730   36.6710   43.4320 N   0  0  0  0  0  0  0  0  0  0  0  0
   47.1280   34.0250   39.8180 C   0  0  0  0  0  0  0  0  0  0  0  0
   48.1560   33.4980   37.7800 C   0  0  0  0  0  0  0  0  0  0  0  0
   48.1650   33.2380   39.1570 C   0  0  0  0  0  0  0  0  0  0  0  0
   49.1030   32.3370   39.6090 C   0  0  0  0  0  0  0  0  0  0  0  0
   49.9950   31.7140   38.7690 C   0  0  0  0  0  0  0  0  0  0  0  0
   49.9760   31.9810   37.4020 C   0  0  0  0  0  0  0  0  0  0  0  0
   49.0510   32.8740   36.9280 C   0  0  0  0  0  0  0  0  0  0  0  0
   47.3040   34.3690   37.0930 O   0  0  0  0  0  0  0  0  0  0  0  0
   49.1160   33.0710   35.5560 O   0  0  0  0  0  0  0  0  0  0  0  0
   45.5419   35.5762   41.7658 H   0  0  0  0  0  0  0  0  0  0  0  0
   48.4201   36.0891   41.3339 H   0  0  0  0  0  0  0  0  0  0  0  0
   48.8454   35.4161   42.6519 H   0  0  0  0  0  0  0  0  0  0  0  0
   47.2948   33.0110   41.3761 H   0  0  0  0  0  0  0  0  0  0  0  0
   44.0165   35.7295   45.9265 H   0  0  0  0  0  0  0  0  0  0  0  0
   46.6832   32.4489   45.8463 H   0  0  0  0  0  0  0  0  0  0  0  0
   44.8635   36.9188   42.4754 H   0  0  0  0  0  0  0  0  0  0  0  0
   43.8803   37.2512   43.9264 H   0  0  0  0  0  0  0  0  0  0  0  0
   46.1544   33.5803   39.5644 H   0  0  0  0  0  0  0  0  0  0  0  0
   47.2591   35.0550   39.4549 H   0  0  0  0  0  0  0  0  0  0  0  0
   49.1399   32.1068   40.6840 H   0  0  0  0  0  0  0  0  0  0  0  0
   50.7268   31.0017   39.1779 H   0  0  0  0  0  0  0  0  0  0  0  0
   50.6850   31.4879   36.7208 H   0  0  0  0  0  0  0  0  0  0  0  0
   47.3894   34.4739   36.1123 H   0  0  0  0  0  0  0  0  0  0  0  0
   48.4892   33.6982   35.1157 H   0  0  0  0  0  0  0  0  0  0  0  0
  1  6  1  0
  2  1  1  0
  3  2  1  0
  3  1  1  0
  4  9  2  0
  5  4  1  0
  6  5  2  0
  6  7  1  0
  7  8  2  0
  8  9  1  0
 10  5  1  0
 11  3  1  0
 12 13  2  0
 13 14  1  0
 13 11  1  0
 15 14  2  0
 16 15  1  0
 17 16  2  0
 17 12  1  0
 18 12  1  0
 19 17  1  0
  1 20  1  6
  2 21  1  0
  2 22  1  0
  3 23  1  1
  4 24  1  0
  8 25  1  0
 10 26  1  0
 10 27  1  0
 11 28  1  0
 11 29  1  0
 14 30  1  0
 15 31  1  0
 16 32  1  0
 18 33  1  0
 19 34  1  0
M  ISO  8  20  13  21  13  22  13  23  13  24  14  25  14  28   8  29   8
M  ISO  5  30  14  31  14  32  14  33   3  34   3
M  END
>  <minimizedAffinity>  (1) 
-5.91873455

>  <minimizedRMSD>  (1) 
1.00785923

$$$$
