
     RDKit          3D

 24 25  0  0  1  0  0  0  0  0999 V2000
   46.5500   35.0560   41.9260 C   0  0  1  0  0  0  0  0  0  0  0  0
   48.0860   35.2760   41.9270 C   0  0  0  0  0  0  0  0  0  0  0  0
   47.3240   34.0510   41.3270 C   0  0  2  0  0  0  0  0  0  0  0  0
   44.6300   35.4390   45.1250 C   0  0  0  0  0  0  0  0  0  0  0  0
   45.1100   35.7250   43.8200 C   0  0  0  0  0  0  0  0  0  0  0  0
   46.0510   34.8750   43.3410 C   0  0  0  0  0  0  0  0  0  0  0  0
   46.5120   33.8100   44.0740 N   0  0  0  0  0  0  0  0  0  0  0  0
   46.0320   33.5710   45.3130 C   0  0  0  0  0  0  0  0  0  0  0  0
   45.0890   34.3880   45.8370 N   0  0  0  0  0  0  0  0  0  0  0  0
   44.6730   36.8490   43.1010 N   0  0  0  0  0  0  0  0  0  0  0  0
   47.3540   33.8630   39.8280 C   0  0  0  0  0  0  0  0  0  0  0  0
   45.9640   33.7680   39.4110 N   0  0  0  0  0  0  0  0  0  0  0  0
   45.6536   35.5698   41.5487 H   0  0  0  0  0  0  0  0  0  0  0  0
   48.5513   36.0294   41.2744 H   0  0  0  0  0  0  0  0  0  0  0  0
   48.8815   35.4577   42.6647 H   0  0  0  0  0  0  0  0  0  0  0  0
   47.3590   32.9609   41.4704 H   0  0  0  0  0  0  0  0  0  0  0  0
   43.8632   36.0915   45.5680 H   0  0  0  0  0  0  0  0  0  0  0  0
   46.4060   32.7154   45.8944 H   0  0  0  0  0  0  0  0  0  0  0  0
   45.0396   37.0301   42.1557 H   0  0  0  0  0  0  0  0  0  0  0  0
   43.9858   37.4924   43.5189 H   0  0  0  0  0  0  0  0  0  0  0  0
   47.8409   34.7226   39.3441 H   0  0  0  0  0  0  0  0  0  0  0  0
   47.9232   32.9654   39.5446 H   0  0  0  0  0  0  0  0  0  0  0  0
   45.3581   33.7266   40.2429 H   0  0  0  0  0  0  0  0  0  0  0  0
   45.7174   34.5941   38.8474 H   0  0  0  0  0  0  0  0  0  0  0  0
  1  2  1  0
  1  6  1  0
  3  1  1  0
  3  2  1  0
  4  9  2  0
  5  4  1  0
  6  5  2  0
  6  7  1  0
  7  8  2  0
  8  9  1  0
 10  5  1  0
 11  3  1  0
 12 11  1  0
  1 13  1  6
  2 14  1  0
  2 15  1  0
  3 16  1  1
  4 17  1  0
  8 18  1  0
 10 19  1  0
 10 20  1  0
 11 21  1  0
 11 22  1  0
 12 23  1  0
 12 24  1  0
M  ISO  8  13  13  14  13  15  13  16  13  17  14  18  14  21   8  22   8
M  ISO  2  23   5  24   5
M  END
>  <minimizedAffinity>  (1) 
-4.38530827

>  <minimizedRMSD>  (1) 
0.0750215501

$$$$
