
     RDKit          3D

 48 51  0  0  0  0  0  0  0  0999 V2000
   48.4100   33.1060   41.5050 C   0  0  0  0  0  0  0  0  0  0  0  0
   47.9540   34.3250   41.9460 C   0  0  0  0  0  0  0  0  0  0  0  0
   48.8260   35.1980   42.5270 C   0  0  0  0  0  0  0  0  0  0  0  0
   50.1680   34.8330   42.6620 C   0  0  0  0  0  0  0  0  0  0  0  0
   50.5920   33.6060   42.2120 C   0  0  0  0  0  0  0  0  0  0  0  0
   49.7040   32.7170   41.6200 C   0  0  0  0  0  0  0  0  0  0  0  0
   46.5130   34.6080   41.7490 C   0  0  0  0  0  0  0  0  0  0  0  0
   45.8540   34.8480   43.0930 C   0  0  0  0  0  0  0  0  0  0  0  0
   45.9660   33.8490   44.0570 C   0  0  0  0  0  0  0  0  0  0  0  0
   45.3600   34.0990   45.2700 C   0  0  0  0  0  0  0  0  0  0  0  0
   44.7030   35.2650   45.4680 N   0  0  0  0  0  0  0  0  0  0  0  0
   44.6210   36.2210   44.4820 C   0  0  0  0  0  0  0  0  0  0  0  0
   45.1930   36.0100   43.3060 N   0  0  0  0  0  0  0  0  0  0  0  0
   47.5870   32.1480   40.8970 O   0  0  0  0  0  0  0  0  0  0  0  0
   50.2460   31.4920   41.1950 O   0  0  0  0  0  0  0  0  0  0  0  0
   50.7350   31.5030   39.8910 C   0  0  0  0  0  0  0  0  0  0  0  0
   52.1000   31.3590   39.7120 C   0  0  0  0  0  0  0  0  0  0  0  0
   52.6840   31.3570   38.4520 C   0  0  0  0  0  0  0  0  0  0  0  0
   51.8980   31.4990   37.3740 N   0  0  0  0  0  0  0  0  0  0  0  0
   50.5800   31.6380   37.5600 C   0  0  0  0  0  0  0  0  0  0  0  0
   50.0020   31.6420   38.7640 N   0  0  0  0  0  0  0  0  0  0  0  0
   49.7810   31.7860   36.3880 N   0  0  0  0  0  0  0  0  0  0  0  0
   50.0190   30.9100   35.2410 C   0  0  0  0  0  0  0  0  0  0  0  0
   48.7970   30.0550   35.0650 C   0  0  0  0  0  0  0  0  0  0  0  0
   47.5410   30.8610   35.2990 C   0  0  0  0  0  0  0  0  0  0  0  0
   47.8360   32.3190   35.1130 C   0  0  0  0  0  0  0  0  0  0  0  0
   48.7230   32.7830   36.2680 C   0  0  0  0  0  0  0  0  0  0  0  0
   48.4770   36.1778   42.8851 H   0  0  0  0  0  0  0  0  0  0  0  0
   50.8836   35.5266   43.1276 H   0  0  0  0  0  0  0  0  0  0  0  0
   51.6495   33.3238   42.3221 H   0  0  0  0  0  0  0  0  0  0  0  0
   46.3983   35.5030   41.1199 H   0  0  0  0  0  0  0  0  0  0  0  0
   46.0357   33.7482   41.2562 H   0  0  0  0  0  0  0  0  0  0  0  0
   46.5081   32.9121   43.8614 H   0  0  0  0  0  0  0  0  0  0  0  0
   45.4106   33.3516   46.0755 H   0  0  0  0  0  0  0  0  0  0  0  0
   44.0805   37.1604   44.6702 H   0  0  0  0  0  0  0  0  0  0  0  0
   46.6237   32.3347   40.7657 H   0  0  0  0  0  0  0  0  0  0  0  0
   52.7432   31.2423   40.5967 H   0  0  0  0  0  0  0  0  0  0  0  0
   53.7721   31.2410   38.3398 H   0  0  0  0  0  0  0  0  0  0  0  0
   50.1890   31.5129   34.3368 H   0  0  0  0  0  0  0  0  0  0  0  0
   50.9084   30.2849   35.4088 H   0  0  0  0  0  0  0  0  0  0  0  0
   48.7823   29.6532   34.0411 H   0  0  0  0  0  0  0  0  0  0  0  0
   48.8316   29.2349   35.7973 H   0  0  0  0  0  0  0  0  0  0  0  0
   46.7675   30.5497   34.5815 H   0  0  0  0  0  0  0  0  0  0  0  0
   47.1829   30.6891   36.3248 H   0  0  0  0  0  0  0  0  0  0  0  0
   48.3591   32.4733   34.1577 H   0  0  0  0  0  0  0  0  0  0  0  0
   46.8993   32.8955   35.1007 H   0  0  0  0  0  0  0  0  0  0  0  0
   49.1524   33.7713   36.0470 H   0  0  0  0  0  0  0  0  0  0  0  0
   48.1507   32.8777   37.2026 H   0  0  0  0  0  0  0  0  0  0  0  0
  1  6  2  0
  1  2  1  0
  2  3  2  0
  3  4  1  0
  5  4  2  0
  6  5  1  0
  7  2  1  0
  7  8  1  0
  8 13  1  0
  8  9  2  0
  9 10  1  0
 10 11  2  0
 12 11  1  0
 13 12  2  0
 14  1  1  0
 15  6  1  0
 16 15  1  0
 17 16  2  0
 18 17  1  0
 19 20  1  0
 19 18  2  0
 20 21  2  0
 21 16  1  0
 22 20  1  0
 23 22  1  0
 24 23  1  0
 24 25  1  0
 26 25  1  0
 26 27  1  0
 27 22  1  0
  3 28  1  0
  4 29  1  0
  5 30  1  0
  7 31  1  0
  7 32  1  0
  9 33  1  0
 10 34  1  0
 12 35  1  0
 14 36  1  0
 17 37  1  0
 18 38  1  0
 23 39  1  0
 23 40  1  0
 24 41  1  0
 24 42  1  0
 25 43  1  0
 25 44  1  0
 26 45  1  0
 26 46  1  0
 27 47  1  0
 27 48  1  0
M  ISO  8  28  14  29  14  30  14  31   8  32   8  33  14  34  14  35  14
M  ISO  8  36   3  37  14  38  14  39  13  40  13  41  13  42  13  43  13
M  ISO  5  44  13  45  13  46  13  47  13  48  13
M  END
>  <minimizedAffinity>  (1) 
-6.1864109

>  <minimizedRMSD>  (1) 
0.80628711

$$$$
