
     RDKit          3D

 25 26  0  0  1  0  0  0  0  0999 V2000
   47.3480   34.0110   42.5060 C   0  0  0  0  0  0  0  0  0  0  0  0
   44.7090   36.0210   44.1720 C   0  0  0  0  0  0  0  0  0  0  0  0
   45.6350   35.5910   43.2010 C   0  0  0  0  0  0  0  0  0  0  0  0
   46.3870   34.4610   43.5070 C   0  0  0  0  0  0  0  0  0  0  0  0
   46.1990   33.8330   44.7060 N   0  0  0  0  0  0  0  0  0  0  0  0
   45.2830   34.3020   45.6070 C   0  0  0  0  0  0  0  0  0  0  0  0
   44.5490   35.3860   45.3350 N   0  0  0  0  0  0  0  0  0  0  0  0
   46.8500   33.2390   39.0120 C   0  0  2  0  0  0  0  0  0  0  0  0
   46.2320   33.2460   40.3860 C   0  0  0  0  0  0  0  0  0  0  0  0
   46.9060   34.3700   41.0880 C   0  0  2  0  0  0  0  0  0  0  0  0
   47.9480   34.8320   40.3390 O   0  0  0  0  0  0  0  0  0  0  0  0
   48.0940   34.0630   39.2150 C   0  0  0  0  0  0  0  0  0  0  0  0
   46.0210   33.7890   38.0410 O   0  0  0  0  0  0  0  0  0  0  0  0
   48.3193   34.4868   42.7067 H   0  0  0  0  0  0  0  0  0  0  0  0
   47.4210   32.9155   42.5726 H   0  0  0  0  0  0  0  0  0  0  0  0
   44.0967   36.9109   43.9644 H   0  0  0  0  0  0  0  0  0  0  0  0
   45.7576   36.1234   42.2463 H   0  0  0  0  0  0  0  0  0  0  0  0
   45.1486   33.7813   46.5666 H   0  0  0  0  0  0  0  0  0  0  0  0
   47.0436   32.2227   38.6384 H   0  0  0  0  0  0  0  0  0  0  0  0
   45.1476   33.4197   40.3243 H   0  0  0  0  0  0  0  0  0  0  0  0
   46.3610   32.2869   40.9090 H   0  0  0  0  0  0  0  0  0  0  0  0
   46.1654   35.1751   41.2032 H   0  0  0  0  0  0  0  0  0  0  0  0
   48.9608   33.3966   39.3355 H   0  0  0  0  0  0  0  0  0  0  0  0
   48.2529   34.7126   38.3416 H   0  0  0  0  0  0  0  0  0  0  0  0
   45.2810   34.2800   38.4785 H   0  0  0  0  0  0  0  0  0  0  0  0
  1  4  1  0
  2  7  2  0
  3  4  2  0
  3  2  1  0
  4  5  1  0
  5  6  2  0
  7  6  1  0
  8 13  1  0
  8 12  1  0
  8  9  1  0
  9 10  1  0
 10  1  1  0
 11 10  1  0
 12 11  1  0
  1 14  1  0
  1 15  1  0
  2 16  1  0
  3 17  1  0
  6 18  1  0
  8 19  1  6
  9 20  1  0
  9 21  1  0
 10 22  1  1
 12 23  1  0
 12 24  1  0
 13 25  1  0
M  ISO  8  14   8  15   8  16  14  17  14  18  14  19  13  20  13  21  13
M  ISO  4  22  13  23  13  24  13  25   3
M  END
>  <minimizedAffinity>  (1) 
-4.14679813

>  <minimizedRMSD>  (1) 
1.41062951

$$$$
