
     RDKit          3D

 19 19  0  0  0  0  0  0  0  0999 V2000
   47.1620   33.9770   42.4740 C   0  0  0  0  0  0  0  0  0  0  0  0
   45.2950   34.2310   45.6970 C   0  0  0  0  0  0  0  0  0  0  0  0
   46.1680   33.7460   44.7070 C   0  0  0  0  0  0  0  0  0  0  0  0
   46.2620   34.4570   43.5210 C   0  0  0  0  0  0  0  0  0  0  0  0
   45.5040   35.5950   43.3680 N   0  0  0  0  0  0  0  0  0  0  0  0
   44.6730   36.0290   44.3480 C   0  0  0  0  0  0  0  0  0  0  0  0
   44.5740   35.3500   45.4940 N   0  0  0  0  0  0  0  0  0  0  0  0
   48.3180   33.4170   43.0170 O   0  0  0  0  0  0  0  0  0  0  0  0
   50.6600   33.1080   41.9010 O   0  0  0  0  0  0  0  0  0  0  0  0
   49.6270   34.1480   42.2310 P   0  0  0  0  0  0  0  0  0  0  0  0
   50.2120   35.3610   43.2480 O   0  0  0  0  0  0  0  0  0  0  0  0
   49.0660   34.8070   40.7810 O   0  0  0  0  0  0  0  0  0  0  0  0
   47.4425   34.8217   41.8277 H   0  0  0  0  0  0  0  0  0  0  0  0
   46.6391   33.2012   41.8955 H   0  0  0  0  0  0  0  0  0  0  0  0
   45.1999   33.6892   46.6496 H   0  0  0  0  0  0  0  0  0  0  0  0
   46.7575   32.8315   44.8687 H   0  0  0  0  0  0  0  0  0  0  0  0
   44.0789   36.9427   44.1987 H   0  0  0  0  0  0  0  0  0  0  0  0
   50.0820   35.0915   44.1917 H   0  0  0  0  0  0  0  0  0  0  0  0
   48.4368   35.5461   40.9760 H   0  0  0  0  0  0  0  0  0  0  0  0
  1  8  1  0
  1  4  1  0
  3  2  2  0
  4  3  1  0
  5  4  2  0
  5  6  1  0
  6  7  2  0
  7  2  1  0
  9 10  2  0
 10  8  1  0
 10 11  1  0
 12 10  1  0
  1 13  1  0
  1 14  1  0
  2 15  1  0
  3 16  1  0
  6 17  1  0
 11 18  1  0
 12 19  1  0
M  ISO  7  13   8  14   8  15  14  16  14  17  14  18   3  19   3
M  END
>  <minimizedAffinity>  (1) 
-4.5224967

>  <minimizedRMSD>  (1) 
2.87764859

$$$$
