
     RDKit          3D

 29 30  0  0  0  0  0  0  0  0999 V2000
   44.4810   36.1160   44.5480 C   0  0  0  0  0  0  0  0  0  0  0  0
   45.2380   35.9650   43.3600 C   0  0  0  0  0  0  0  0  0  0  0  0
   46.0910   34.8680   43.2820 C   0  0  0  0  0  0  0  0  0  0  0  0
   46.1660   33.9990   44.3300 N   0  0  0  0  0  0  0  0  0  0  0  0
   45.4160   34.1880   45.4550 C   0  0  0  0  0  0  0  0  0  0  0  0
   44.5810   35.2390   45.5590 N   0  0  0  0  0  0  0  0  0  0  0  0
   46.8680   34.7170   42.0540 C   0  0  0  0  0  0  0  0  0  0  0  0
   48.2000   34.0500   42.2620 C   0  0  0  0  0  0  0  0  0  0  0  0
   48.4110   32.8070   41.4530 C   0  0  0  0  0  0  0  0  0  0  0  0
   49.5870   32.0820   42.1090 C   0  0  0  0  0  0  0  0  0  0  0  0
   50.7920   32.9670   41.9440 C   0  0  0  0  0  0  0  0  0  0  0  0
   50.5760   34.2970   42.6260 C   0  0  0  0  0  0  0  0  0  0  0  0
   49.3640   34.9800   41.9810 C   0  0  0  0  0  0  0  0  0  0  0  0
   43.7959   36.9712   44.6439 H   0  0  0  0  0  0  0  0  0  0  0  0
   45.1550   36.6854   42.5329 H   0  0  0  0  0  0  0  0  0  0  0  0
   45.4949   33.4726   46.2869 H   0  0  0  0  0  0  0  0  0  0  0  0
   47.0422   35.7160   41.6277 H   0  0  0  0  0  0  0  0  0  0  0  0
   46.2853   34.0706   41.3812 H   0  0  0  0  0  0  0  0  0  0  0  0
   48.1717   33.7704   43.3255 H   0  0  0  0  0  0  0  0  0  0  0  0
   48.6517   33.0638   40.4108 H   0  0  0  0  0  0  0  0  0  0  0  0
   47.5082   32.1790   41.4300 H   0  0  0  0  0  0  0  0  0  0  0  0
   49.3818   31.9174   43.1771 H   0  0  0  0  0  0  0  0  0  0  0  0
   49.7532   31.0993   41.6435 H   0  0  0  0  0  0  0  0  0  0  0  0
   51.6675   32.4713   42.3887 H   0  0  0  0  0  0  0  0  0  0  0  0
   50.9568   33.1430   40.8707 H   0  0  0  0  0  0  0  0  0  0  0  0
   50.3864   34.1385   43.6979 H   0  0  0  0  0  0  0  0  0  0  0  0
   51.4697   34.9286   42.5146 H   0  0  0  0  0  0  0  0  0  0  0  0
   49.5152   35.0950   40.8975 H   0  0  0  0  0  0  0  0  0  0  0  0
   49.1945   35.9901   42.3822 H   0  0  0  0  0  0  0  0  0  0  0  0
  1  6  2  0
  2  1  1  0
  3  2  2  0
  3  4  1  0
  4  5  2  0
  5  6  1  0
  7  8  1  0
  7  3  1  0
  9 10  1  0
  9  8  1  0
 11 10  1  0
 11 12  1  0
 13  8  1  0
 13 12  1  0
  1 14  1  0
  2 15  1  0
  5 16  1  0
  7 17  1  0
  7 18  1  0
  8 19  1  0
  9 20  1  0
  9 21  1  0
 10 22  1  0
 10 23  1  0
 11 24  1  0
 11 25  1  0
 12 26  1  0
 12 27  1  0
 13 28  1  0
 13 29  1  0
M  ISO  8  14  14  15  14  16  14  17   8  18   8  19  13  20  13  21  13
M  ISO  8  22  13  23  13  24  13  25  13  26  13  27  13  28  13  29  13
M  END
>  <minimizedAffinity>  (1) 
-4.56875563

>  <minimizedRMSD>  (1) 
1.95914257

$$$$
