
     RDKit          3D

 15 15  0  0  0  0  0  0  0  0999 V2000
   44.5280   36.0290   44.5430 C   0  0  0  0  0  0  0  0  0  0  0  0
   45.2100   35.9260   43.3180 C   0  0  0  0  0  0  0  0  0  0  0  0
   46.0800   34.8630   43.1350 C   0  0  0  0  0  0  0  0  0  0  0  0
   46.2450   33.9650   44.1370 N   0  0  0  0  0  0  0  0  0  0  0  0
   45.5660   34.0960   45.3160 C   0  0  0  0  0  0  0  0  0  0  0  0
   44.7210   35.1140   45.5100 N   0  0  0  0  0  0  0  0  0  0  0  0
   46.7820   34.7730   41.8510 C   0  0  0  0  0  0  0  0  0  0  0  0
   48.0960   35.3500   41.8430 N   0  0  0  0  0  0  0  0  0  0  0  0
   43.8317   36.8636   44.7119 H   0  0  0  0  0  0  0  0  0  0  0  0
   45.0567   36.6714   42.5237 H   0  0  0  0  0  0  0  0  0  0  0  0
   45.7165   33.3550   46.1149 H   0  0  0  0  0  0  0  0  0  0  0  0
   46.8733   33.7097   41.5845 H   0  0  0  0  0  0  0  0  0  0  0  0
   46.1851   35.3508   41.1300 H   0  0  0  0  0  0  0  0  0  0  0  0
   48.4153   35.4902   42.8122 H   0  0  0  0  0  0  0  0  0  0  0  0
   48.7460   34.7169   41.3555 H   0  0  0  0  0  0  0  0  0  0  0  0
  1  6  2  0
  2  1  1  0
  3  2  2  0
  3  4  1  0
  4  5  2  0
  5  6  1  0
  7  3  1  0
  8  7  1  0
  1  9  1  0
  2 10  1  0
  5 11  1  0
  7 12  1  0
  7 13  1  0
  8 14  1  0
  8 15  1  0
M  ISO  7   9  14  10  14  11  14  12   8  13   8  14   5  15   5
M  END
>  <minimizedAffinity>  (1) 
-3.12223411

>  <minimizedRMSD>  (1) 
0.118931442

$$$$
