
     RDKit          3D

 14 14  0  0  0  0  0  0  0  0999 V2000
   44.5420   36.0110   44.5220 C   0  0  0  0  0  0  0  0  0  0  0  0
   45.2640   35.9200   43.3160 C   0  0  0  0  0  0  0  0  0  0  0  0
   46.1410   34.8550   43.1980 C   0  0  0  0  0  0  0  0  0  0  0  0
   46.2780   33.9560   44.2160 N   0  0  0  0  0  0  0  0  0  0  0  0
   45.5510   34.0920   45.3680 C   0  0  0  0  0  0  0  0  0  0  0  0
   44.6990   35.1130   45.5000 N   0  0  0  0  0  0  0  0  0  0  0  0
   46.8910   34.7590   41.9470 C   0  0  0  0  0  0  0  0  0  0  0  0
   45.9020   33.8550   40.7080 S   0  0  0  0  0  0  0  0  0  0  0  0
   43.8327   36.8399   44.6624 H   0  0  0  0  0  0  0  0  0  0  0  0
   45.1376   36.6571   42.5094 H   0  0  0  0  0  0  0  0  0  0  0  0
   45.6679   33.3626   46.1830 H   0  0  0  0  0  0  0  0  0  0  0  0
   47.1105   35.7700   41.5733 H   0  0  0  0  0  0  0  0  0  0  0  0
   47.8330   34.2200   42.1263 H   0  0  0  0  0  0  0  0  0  0  0  0
   45.0072   33.0371   41.3463 H   0  0  0  0  0  0  0  0  0  0  0  0
  1  6  2  0
  2  1  1  0
  3  2  2  0
  3  4  1  0
  4  5  2  0
  5  6  1  0
  7  3  1  0
  8  7  1  0
  1  9  1  0
  2 10  1  0
  5 11  1  0
  7 12  1  0
  7 13  1  0
  8 14  1  0
M  ISO  6   9  14  10  14  11  14  12   8  13   8  14  11
M  END
>  <minimizedAffinity>  (1) 
-3.03588986

>  <minimizedRMSD>  (1) 
0.0681697428

$$$$
