
     RDKit          3D

 43 46  0  0  0  0  0  0  0  0999 V2000
   48.4020   33.0990   41.4650 C   0  0  0  0  0  0  0  0  0  0  0  0
   47.9620   34.3120   41.9230 C   0  0  0  0  0  0  0  0  0  0  0  0
   48.8540   35.1580   42.5210 C   0  0  0  0  0  0  0  0  0  0  0  0
   50.1860   34.7720   42.6500 C   0  0  0  0  0  0  0  0  0  0  0  0
   50.5890   33.5500   42.1800 C   0  0  0  0  0  0  0  0  0  0  0  0
   49.6860   32.6750   41.5670 C   0  0  0  0  0  0  0  0  0  0  0  0
   46.5400   34.6260   41.7400 C   0  0  0  0  0  0  0  0  0  0  0  0
   45.8730   34.8620   43.0810 C   0  0  0  0  0  0  0  0  0  0  0  0
   45.9840   33.8500   44.0480 C   0  0  0  0  0  0  0  0  0  0  0  0
   45.3690   34.0910   45.2560 C   0  0  0  0  0  0  0  0  0  0  0  0
   44.7150   35.2500   45.4430 N   0  0  0  0  0  0  0  0  0  0  0  0
   44.6270   36.2070   44.4870 C   0  0  0  0  0  0  0  0  0  0  0  0
   45.2110   35.9940   43.3160 N   0  0  0  0  0  0  0  0  0  0  0  0
   47.5670   32.1610   40.8380 O   0  0  0  0  0  0  0  0  0  0  0  0
   50.2080   31.4490   41.1210 O   0  0  0  0  0  0  0  0  0  0  0  0
   50.6660   31.4770   39.8020 C   0  0  0  0  0  0  0  0  0  0  0  0
   52.0300   31.3870   39.5980 C   0  0  0  0  0  0  0  0  0  0  0  0
   52.5940   31.4050   38.3180 C   0  0  0  0  0  0  0  0  0  0  0  0
   51.7760   31.5140   37.2600 N   0  0  0  0  0  0  0  0  0  0  0  0
   50.4400   31.6020   37.4690 C   0  0  0  0  0  0  0  0  0  0  0  0
   49.9170   31.5830   38.7000 N   0  0  0  0  0  0  0  0  0  0  0  0
   51.1630   30.8870   34.8450 F   0  0  0  0  0  0  0  0  0  0  0  0
   49.9070   31.3630   35.0640 C   0  0  0  0  0  0  0  0  0  0  0  0
   49.5230   31.7220   36.3400 C   0  0  0  0  0  0  0  0  0  0  0  0
   48.2350   32.1970   36.4860 C   0  0  0  0  0  0  0  0  0  0  0  0
   47.3280   32.3300   35.4540 C   0  0  0  0  0  0  0  0  0  0  0  0
   47.7940   31.9450   34.1980 C   0  0  0  0  0  0  0  0  0  0  0  0
   49.0720   31.4610   33.9710 C   0  0  0  0  0  0  0  0  0  0  0  0
   48.5220   36.1367   42.8977 H   0  0  0  0  0  0  0  0  0  0  0  0
   50.9121   35.4462   43.1278 H   0  0  0  0  0  0  0  0  0  0  0  0
   51.6423   33.2513   42.2866 H   0  0  0  0  0  0  0  0  0  0  0  0
   46.4455   35.5324   41.1239 H   0  0  0  0  0  0  0  0  0  0  0  0
   46.0488   33.7770   41.2421 H   0  0  0  0  0  0  0  0  0  0  0  0
   46.5318   32.9166   43.8514 H   0  0  0  0  0  0  0  0  0  0  0  0
   45.4126   33.3420   46.0604 H   0  0  0  0  0  0  0  0  0  0  0  0
   44.0814   37.1426   44.6792 H   0  0  0  0  0  0  0  0  0  0  0  0
   46.6064   32.3622   40.7081 H   0  0  0  0  0  0  0  0  0  0  0  0
   52.6938   31.2983   40.4707 H   0  0  0  0  0  0  0  0  0  0  0  0
   53.6831   31.3315   38.1820 H   0  0  0  0  0  0  0  0  0  0  0  0
   47.9088   32.4899   37.4949 H   0  0  0  0  0  0  0  0  0  0  0  0
   46.3089   32.7130   35.6117 H   0  0  0  0  0  0  0  0  0  0  0  0
   47.1100   32.0301   33.3407 H   0  0  0  0  0  0  0  0  0  0  0  0
   49.4056   31.1681   32.9645 H   0  0  0  0  0  0  0  0  0  0  0  0
  1  6  2  0
  1  2  1  0
  2  3  2  0
  3  4  1  0
  5  4  2  0
  6  5  1  0
  7  2  1  0
  7  8  1  0
  8 13  1  0
  8  9  2  0
  9 10  1  0
 10 11  2  0
 12 11  1  0
 13 12  2  0
 14  1  1  0
 15  6  1  0
 16 15  1  0
 17 16  2  0
 18 17  1  0
 19 20  1  0
 19 18  2  0
 20 21  2  0
 21 16  1  0
 22 23  1  0
 23 24  2  0
 24 25  1  0
 24 20  1  0
 26 25  2  0
 27 26  1  0
 28 27  2  0
 28 23  1  0
  3 29  1  0
  4 30  1  0
  5 31  1  0
  7 32  1  0
  7 33  1  0
  9 34  1  0
 10 35  1  0
 12 36  1  0
 14 37  1  0
 17 38  1  0
 18 39  1  0
 25 40  1  0
 26 41  1  0
 27 42  1  0
 28 43  1  0
M  ISO  8  29  14  30  14  31  14  32   8  33   8  34  14  35  14  36  14
M  ISO  7  37   3  38  14  39  14  40  14  41  14  42  14  43  14
M  END
>  <minimizedAffinity>  (1) 
-6.09960318

>  <minimizedRMSD>  (1) 
1.02776599

$$$$
