
     RDKit          3D

 27 28  0  0  0  0  0  0  0  0999 V2000
   48.2870   33.3390   43.5100 O   0  0  0  0  0  0  0  0  0  0  0  0
   46.9520   33.2750   43.1000 C   0  0  0  0  0  0  0  0  0  0  0  0
   45.0350   34.3290   46.1360 C   0  0  0  0  0  0  0  0  0  0  0  0
   45.8680   33.5780   45.2920 C   0  0  0  0  0  0  0  0  0  0  0  0
   46.0850   34.0400   44.0030 C   0  0  0  0  0  0  0  0  0  0  0  0
   45.4780   35.1980   43.6170 N   0  0  0  0  0  0  0  0  0  0  0  0
   44.6720   35.9090   44.4580 C   0  0  0  0  0  0  0  0  0  0  0  0
   44.4630   35.4640   45.7020 N   0  0  0  0  0  0  0  0  0  0  0  0
   49.8390   33.0800   41.4210 O   0  0  0  0  0  0  0  0  0  0  0  0
   49.1340   34.1080   42.2740 P   0  0  2  0  0  0  0  0  0  0  0  0
   50.2060   35.1990   42.9730 O   0  0  0  0  0  0  0  0  0  0  0  0
   48.0250   34.9020   41.2900 O   0  0  0  0  0  0  0  0  0  0  0  0
   47.8570   34.4860   39.9770 C   0  0  0  0  0  0  0  0  0  0  0  0
   46.8230   33.5750   39.7400 C   0  0  0  0  0  0  0  0  0  0  0  0
   46.5790   33.1010   38.4570 C   0  0  0  0  0  0  0  0  0  0  0  0
   47.3770   33.5570   37.4660 N   0  0  0  0  0  0  0  0  0  0  0  0
   48.3630   34.4320   37.7290 C   0  0  0  0  0  0  0  0  0  0  0  0
   48.6080   34.8930   38.9470 N   0  0  0  0  0  0  0  0  0  0  0  0
   46.8678   33.6893   42.0845 H   0  0  0  0  0  0  0  0  0  0  0  0
   46.6316   32.2228   43.1161 H   0  0  0  0  0  0  0  0  0  0  0  0
   44.8487   33.9843   47.1638 H   0  0  0  0  0  0  0  0  0  0  0  0
   46.3364   32.6471   45.6442 H   0  0  0  0  0  0  0  0  0  0  0  0
   44.1980   36.8407   44.1156 H   0  0  0  0  0  0  0  0  0  0  0  0
   50.1444   35.1364   43.9591 H   0  0  0  0  0  0  0  0  0  0  0  0
   46.1973   33.2306   40.5766 H   0  0  0  0  0  0  0  0  0  0  0  0
   45.7695   32.3839   38.2559 H   0  0  0  0  0  0  0  0  0  0  0  0
   48.9935   34.7803   36.8976 H   0  0  0  0  0  0  0  0  0  0  0  0
  2  1  1  0
  2  5  1  0
  4  3  2  0
  5  4  1  0
  6  5  2  0
  6  7  1  0
  7  8  2  0
  8  3  1  0
 10  9  2  0
 10 11  1  0
 10  1  1  0
 12 10  1  0
 13 12  1  0
 14 13  2  0
 15 14  1  0
 16 17  1  0
 16 15  2  0
 17 18  2  0
 18 13  1  0
  2 19  1  0
  2 20  1  0
  3 21  1  0
  4 22  1  0
  7 23  1  0
 11 24  1  0
 14 25  1  0
 15 26  1  0
 17 27  1  0
M  ISO  8  19   8  20   8  21  14  22  14  23  14  24   3  25  14  26  14
M  ISO  1  27  14
M  END
>  <minimizedAffinity>  (1) 
-4.9479332

>  <minimizedRMSD>  (1) 
0.916715562

$$$$
