
     RDKit          3D

 43 46  0  0  0  0  0  0  0  0999 V2000
   48.5060   33.1070   41.4380 C   0  0  0  0  0  0  0  0  0  0  0  0
   48.0680   34.3340   41.8620 C   0  0  0  0  0  0  0  0  0  0  0  0
   48.9480   35.1790   42.4740 C   0  0  0  0  0  0  0  0  0  0  0  0
   50.2700   34.7920   42.6620 C   0  0  0  0  0  0  0  0  0  0  0  0
   50.6760   33.5470   42.2210 C   0  0  0  0  0  0  0  0  0  0  0  0
   49.7840   32.6810   41.5960 C   0  0  0  0  0  0  0  0  0  0  0  0
   46.6560   34.6630   41.6260 C   0  0  0  0  0  0  0  0  0  0  0  0
   45.9440   34.9110   42.9410 C   0  0  0  0  0  0  0  0  0  0  0  0
   45.9910   33.8990   43.8980 C   0  0  0  0  0  0  0  0  0  0  0  0
   45.3400   34.1320   45.0930 C   0  0  0  0  0  0  0  0  0  0  0  0
   44.7050   35.3100   45.2640 N   0  0  0  0  0  0  0  0  0  0  0  0
   44.6790   36.2740   44.3110 C   0  0  0  0  0  0  0  0  0  0  0  0
   45.2990   36.0630   43.1600 N   0  0  0  0  0  0  0  0  0  0  0  0
   47.6810   32.1690   40.7980 O   0  0  0  0  0  0  0  0  0  0  0  0
   50.3130   31.4450   41.1920 O   0  0  0  0  0  0  0  0  0  0  0  0
   50.8530   31.4460   39.9110 C   0  0  0  0  0  0  0  0  0  0  0  0
   52.2250   31.3400   39.7830 C   0  0  0  0  0  0  0  0  0  0  0  0
   52.8600   31.3330   38.5350 C   0  0  0  0  0  0  0  0  0  0  0  0
   52.1080   31.4330   37.4270 N   0  0  0  0  0  0  0  0  0  0  0  0
   50.7810   31.5360   37.5560 C   0  0  0  0  0  0  0  0  0  0  0  0
   50.1750   31.5420   38.7620 N   0  0  0  0  0  0  0  0  0  0  0  0
   49.9500   31.6460   36.3570 C   0  0  0  0  0  0  0  0  0  0  0  0
   50.2450   30.9270   35.2170 C   0  0  0  0  0  0  0  0  0  0  0  0
   49.4590   31.0290   34.0790 C   0  0  0  0  0  0  0  0  0  0  0  0
   48.3440   31.8640   34.0520 C   0  0  0  0  0  0  0  0  0  0  0  0
   48.1210   32.5430   35.2310 C   0  0  0  0  0  0  0  0  0  0  0  0
   48.8440   32.4970   36.3860 C   0  0  0  0  0  0  0  0  0  0  0  0
   48.6107   36.1676   42.8189 H   0  0  0  0  0  0  0  0  0  0  0  0
   50.9836   35.4682   43.1555 H   0  0  0  0  0  0  0  0  0  0  0  0
   51.7209   33.2355   42.3663 H   0  0  0  0  0  0  0  0  0  0  0  0
   46.5939   35.5681   41.0039 H   0  0  0  0  0  0  0  0  0  0  0  0
   46.1737   33.8178   41.1131 H   0  0  0  0  0  0  0  0  0  0  0  0
   46.5238   32.9553   43.7094 H   0  0  0  0  0  0  0  0  0  0  0  0
   45.3391   33.3729   45.8891 H   0  0  0  0  0  0  0  0  0  0  0  0
   44.1489   37.2207   44.4918 H   0  0  0  0  0  0  0  0  0  0  0  0
   46.7279   32.3795   40.6326 H   0  0  0  0  0  0  0  0  0  0  0  0
   52.8389   31.2584   40.6921 H   0  0  0  0  0  0  0  0  0  0  0  0
   53.9543   31.2472   38.4636 H   0  0  0  0  0  0  0  0  0  0  0  0
   51.1200   30.2604   35.2106 H   0  0  0  0  0  0  0  0  0  0  0  0
   49.7194   30.4427   33.1855 H   0  0  0  0  0  0  0  0  0  0  0  0
   47.6985   31.9720   33.1679 H   0  0  0  0  0  0  0  0  0  0  0  0
   47.2454   33.2088   35.2411 H   0  0  0  0  0  0  0  0  0  0  0  0
   48.5756   33.0868   37.2749 H   0  0  0  0  0  0  0  0  0  0  0  0
  1  6  2  0
  1  2  1  0
  2  3  2  0
  3  4  1  0
  5  4  2  0
  6  5  1  0
  7  2  1  0
  7  8  1  0
  8 13  1  0
  8  9  2  0
  9 10  1  0
 10 11  2  0
 12 11  1  0
 13 12  2  0
 14  1  1  0
 15  6  1  0
 16 15  1  0
 17 16  2  0
 18 17  1  0
 19 20  1  0
 19 18  2  0
 20 21  2  0
 21 16  1  0
 22 27  1  0
 22 20  1  0
 23 22  2  0
 24 23  1  0
 25 24  2  0
 25 26  1  0
 26 27  2  0
  3 28  1  0
  4 29  1  0
  5 30  1  0
  7 31  1  0
  7 32  1  0
  9 33  1  0
 10 34  1  0
 12 35  1  0
 14 36  1  0
 17 37  1  0
 18 38  1  0
 23 39  1  0
 24 40  1  0
 25 41  1  0
 26 42  1  0
 27 43  1  0
M  ISO  8  28  14  29  14  30  14  31   8  32   8  33  14  34  14  35  14
M  ISO  8  36   3  37  14  38  14  39  14  40  14  41  14  42  14  43  14
M  END
>  <minimizedAffinity>  (1) 
-6.00638962

>  <minimizedRMSD>  (1) 
0.678275883

$$$$
