
     RDKit          3D

 26 27  0  0  0  0  0  0  0  0999 V2000
   45.8670   32.6770   45.0930 C   0  0  0  0  0  0  0  0  0  0  0  0
   47.4960   30.9380   47.9730 C   0  0  0  0  0  0  0  0  0  0  0  0
   47.2170   31.3410   46.6620 C   0  0  0  0  0  0  0  0  0  0  0  0
   46.1770   32.2410   46.4510 C   0  0  0  0  0  0  0  0  0  0  0  0
   45.4650   32.6970   47.5400 N   0  0  0  0  0  0  0  0  0  0  0  0
   45.7670   32.2830   48.7920 C   0  0  0  0  0  0  0  0  0  0  0  0
   46.7630   31.4180   49.0090 N   0  0  0  0  0  0  0  0  0  0  0  0
   46.4730   33.9020   44.8130 O   0  0  0  0  0  0  0  0  0  0  0  0
   44.7980   35.9010   44.5710 O   0  0  0  0  0  0  0  0  0  0  0  0
   45.4200   34.7570   43.7990 P   0  0  2  0  0  0  0  0  0  0  0  0
   44.2880   33.6710   43.2060 O   0  0  0  0  0  0  0  0  0  0  0  0
   46.3320   35.4180   42.5470 O   0  0  0  0  0  0  0  0  0  0  0  0
   47.4980   34.7410   42.2930 C   0  0  0  0  0  0  0  0  0  0  0  0
   48.6050   35.5670   41.6860 C   0  0  0  0  0  0  0  0  0  0  0  0
   47.8260   34.6590   40.8030 C   0  0  0  0  0  0  0  0  0  0  0  0
   46.2327   31.9231   44.3804 H   0  0  0  0  0  0  0  0  0  0  0  0
   44.7772   32.7950   45.0019 H   0  0  0  0  0  0  0  0  0  0  0  0
   48.3142   30.2281   48.1645 H   0  0  0  0  0  0  0  0  0  0  0  0
   47.8066   30.9549   45.8174 H   0  0  0  0  0  0  0  0  0  0  0  0
   45.1845   32.6637   49.6440 H   0  0  0  0  0  0  0  0  0  0  0  0
   43.8271   33.2288   43.9624 H   0  0  0  0  0  0  0  0  0  0  0  0
   47.4281   34.0409   43.1386 H   0  0  0  0  0  0  0  0  0  0  0  0
   48.4850   36.6564   41.5916 H   0  0  0  0  0  0  0  0  0  0  0  0
   49.6753   35.6984   41.9031 H   0  0  0  0  0  0  0  0  0  0  0  0
   47.1283   35.0772   40.0625 H   0  0  0  0  0  0  0  0  0  0  0  0
   48.0789   33.8464   40.1060 H   0  0  0  0  0  0  0  0  0  0  0  0
  1  4  1  0
  2  7  2  0
  3  2  1  0
  4  3  2  0
  4  5  1  0
  5  6  2  0
  6  7  1  0
  8  1  1  0
 10  9  2  0
 10  8  1  0
 11 10  1  0
 12 10  1  0
 13 12  1  0
 14 13  1  0
 15 14  1  0
 15 13  1  0
  1 16  1  0
  1 17  1  0
  2 18  1  0
  3 19  1  0
  6 20  1  0
 11 21  1  0
 13 22  1  0
 14 23  1  0
 14 24  1  0
 15 25  1  0
 15 26  1  0
M  ISO  8  16   8  17   8  18  14  19  14  20  14  21   3  22  13  23  13
M  ISO  3  24  13  25  13  26  13
M  END
>  <minimizedAffinity>  (1) 
-4.41342545

>  <minimizedRMSD>  (1) 
4.45178747

$$$$
