
     RDKit          3D

 32 33  0  0  0  0  0  0  0  0999 V2000
   46.1690   32.0860   45.4330 C   0  0  0  0  0  0  0  0  0  0  0  0
   45.7690   32.0290   49.1330 C   0  0  0  0  0  0  0  0  0  0  0  0
   46.0530   32.4970   47.8450 C   0  0  0  0  0  0  0  0  0  0  0  0
   45.8750   31.6070   46.7860 C   0  0  0  0  0  0  0  0  0  0  0  0
   45.4350   30.3360   47.0540 N   0  0  0  0  0  0  0  0  0  0  0  0
   45.1730   29.9270   48.3170 C   0  0  0  0  0  0  0  0  0  0  0  0
   45.3410   30.7720   49.3370 N   0  0  0  0  0  0  0  0  0  0  0  0
   46.5640   33.4130   45.4200 O   0  0  0  0  0  0  0  0  0  0  0  0
   44.6390   35.1770   45.2550 O   0  0  0  0  0  0  0  0  0  0  0  0
   45.4610   34.2390   44.4290 P   0  0  2  0  0  0  0  0  0  0  0  0
   44.5190   33.0520   43.6760 O   0  0  0  0  0  0  0  0  0  0  0  0
   46.3290   35.1180   43.2870 O   0  0  0  0  0  0  0  0  0  0  0  0
   47.1070   34.2480   42.5350 C   0  0  0  0  0  0  0  0  0  0  0  0
   46.9630   34.4860   41.0450 C   0  0  0  0  0  0  0  0  0  0  0  0
   48.1150   33.6660   40.5060 C   0  0  0  0  0  0  0  0  0  0  0  0
   49.1670   33.6580   41.5950 C   0  0  0  0  0  0  0  0  0  0  0  0
   48.5940   34.5430   42.7100 C   0  0  0  0  0  0  0  0  0  0  0  0
   46.9769   31.4722   45.0081 H   0  0  0  0  0  0  0  0  0  0  0  0
   45.2470   32.0033   44.8388 H   0  0  0  0  0  0  0  0  0  0  0  0
   45.8985   32.7021   49.9933 H   0  0  0  0  0  0  0  0  0  0  0  0
   46.4027   33.5259   47.6746 H   0  0  0  0  0  0  0  0  0  0  0  0
   44.8225   28.9010   48.5029 H   0  0  0  0  0  0  0  0  0  0  0  0
   44.0771   32.4952   44.3650 H   0  0  0  0  0  0  0  0  0  0  0  0
   46.7816   33.2515   42.8683 H   0  0  0  0  0  0  0  0  0  0  0  0
   45.9963   34.1194   40.6694 H   0  0  0  0  0  0  0  0  0  0  0  0
   46.9862   35.5460   40.7519 H   0  0  0  0  0  0  0  0  0  0  0  0
   47.7842   32.6401   40.2866 H   0  0  0  0  0  0  0  0  0  0  0  0
   48.5075   34.0893   39.5697 H   0  0  0  0  0  0  0  0  0  0  0  0
   49.3353   32.6348   41.9620 H   0  0  0  0  0  0  0  0  0  0  0  0
   50.1379   34.0274   41.2332 H   0  0  0  0  0  0  0  0  0  0  0  0
   48.8224   35.6066   42.5466 H   0  0  0  0  0  0  0  0  0  0  0  0
   48.9935   34.3431   43.7152 H   0  0  0  0  0  0  0  0  0  0  0  0
  1  4  1  0
  2  7  2  0
  3  2  1  0
  4  5  1  0
  4  3  2  0
  5  6  2  0
  6  7  1  0
  8  1  1  0
 10  9  2  0
 10  8  1  0
 11 10  1  0
 12 10  1  0
 13 17  1  0
 13 12  1  0
 14 13  1  0
 15 14  1  0
 15 16  1  0
 16 17  1  0
  1 18  1  0
  1 19  1  0
  2 20  1  0
  3 21  1  0
  6 22  1  0
 11 23  1  0
 13 24  1  0
 14 25  1  0
 14 26  1  0
 15 27  1  0
 15 28  1  0
 16 29  1  0
 16 30  1  0
 17 31  1  0
 17 32  1  0
M  ISO  8  18   8  19   8  20  14  21  14  22  14  23   3  24  13  25  13
M  ISO  7  26  13  27  13  28  13  29  13  30  13  31  13  32  13
M  END
>  <minimizedAffinity>  (1) 
-4.72201681

>  <minimizedRMSD>  (1) 
4.91398382

$$$$
