
     RDKit          3D

 40 43  0  0  0  0  0  0  0  0999 V2000
   48.4770   33.1300   41.4670 C   0  0  0  0  0  0  0  0  0  0  0  0
   48.0420   34.3480   41.9060 C   0  0  0  0  0  0  0  0  0  0  0  0
   48.9250   35.1950   42.5160 C   0  0  0  0  0  0  0  0  0  0  0  0
   50.2560   34.8010   42.6770 C   0  0  0  0  0  0  0  0  0  0  0  0
   50.6580   33.5710   42.2230 C   0  0  0  0  0  0  0  0  0  0  0  0
   49.7620   32.7070   41.6040 C   0  0  0  0  0  0  0  0  0  0  0  0
   46.6280   34.6790   41.6960 C   0  0  0  0  0  0  0  0  0  0  0  0
   45.9280   34.9000   43.0220 C   0  0  0  0  0  0  0  0  0  0  0  0
   46.0070   33.8780   43.9660 C   0  0  0  0  0  0  0  0  0  0  0  0
   45.3640   34.0970   45.1710 C   0  0  0  0  0  0  0  0  0  0  0  0
   44.7140   35.2510   45.3640 N   0  0  0  0  0  0  0  0  0  0  0  0
   44.6550   36.2360   44.4150 C   0  0  0  0  0  0  0  0  0  0  0  0
   45.2650   36.0430   43.2570 N   0  0  0  0  0  0  0  0  0  0  0  0
   47.6440   32.1960   40.8310 O   0  0  0  0  0  0  0  0  0  0  0  0
   50.2800   31.4740   41.1780 O   0  0  0  0  0  0  0  0  0  0  0  0
   50.7890   31.4790   39.8830 C   0  0  0  0  0  0  0  0  0  0  0  0
   52.1360   31.2920   39.7040 C   0  0  0  0  0  0  0  0  0  0  0  0
   52.7310   31.2820   38.4510 C   0  0  0  0  0  0  0  0  0  0  0  0
   51.9600   31.4620   37.3690 N   0  0  0  0  0  0  0  0  0  0  0  0
   50.6310   31.6480   37.5320 C   0  0  0  0  0  0  0  0  0  0  0  0
   50.0820   31.6520   38.7620 N   0  0  0  0  0  0  0  0  0  0  0  0
   49.6860   31.8520   36.4710 C   0  0  0  0  0  0  0  0  0  0  0  0
   49.8060   31.1750   35.3220 C   0  0  0  0  0  0  0  0  0  0  0  0
   49.0240   31.2350   34.2290 C   0  0  0  0  0  0  0  0  0  0  0  0
   47.9610   32.1900   34.4590 C   0  0  0  0  0  0  0  0  0  0  0  0
   48.2490   32.8390   36.1840 S   0  0  0  0  0  0  0  0  0  0  0  0
   48.5904   36.1787   42.8771 H   0  0  0  0  0  0  0  0  0  0  0  0
   50.9769   35.4734   43.1650 H   0  0  0  0  0  0  0  0  0  0  0  0
   51.7063   33.2631   42.3507 H   0  0  0  0  0  0  0  0  0  0  0  0
   46.5574   35.5962   41.0929 H   0  0  0  0  0  0  0  0  0  0  0  0
   46.1419   33.8414   41.1743 H   0  0  0  0  0  0  0  0  0  0  0  0
   46.5528   32.9447   43.7633 H   0  0  0  0  0  0  0  0  0  0  0  0
   45.3866   33.3320   45.9611 H   0  0  0  0  0  0  0  0  0  0  0  0
   44.1102   37.1711   44.6118 H   0  0  0  0  0  0  0  0  0  0  0  0
   46.6881   32.4061   40.6818 H   0  0  0  0  0  0  0  0  0  0  0  0
   52.7704   31.1439   40.5904 H   0  0  0  0  0  0  0  0  0  0  0  0
   53.8154   31.1292   38.3470 H   0  0  0  0  0  0  0  0  0  0  0  0
   50.6554   30.4784   35.2642 H   0  0  0  0  0  0  0  0  0  0  0  0
   49.1692   30.6516   33.3078 H   0  0  0  0  0  0  0  0  0  0  0  0
   47.1556   32.4726   33.7651 H   0  0  0  0  0  0  0  0  0  0  0  0
  1  6  2  0
  1  2  1  0
  2  3  2  0
  3  4  1  0
  5  4  2  0
  6  5  1  0
  7  2  1  0
  7  8  1  0
  8 13  1  0
  8  9  2  0
  9 10  1  0
 10 11  2  0
 12 11  1  0
 13 12  2  0
 14  1  1  0
 15  6  1  0
 16 15  1  0
 17 16  2  0
 18 17  1  0
 19 20  1  0
 19 18  2  0
 20 21  2  0
 21 16  1  0
 22 20  1  0
 23 22  2  0
 24 25  2  0
 24 23  1  0
 25 26  1  0
 26 22  1  0
  3 27  1  0
  4 28  1  0
  5 29  1  0
  7 30  1  0
  7 31  1  0
  9 32  1  0
 10 33  1  0
 12 34  1  0
 14 35  1  0
 17 36  1  0
 18 37  1  0
 23 38  1  0
 24 39  1  0
 25 40  1  0
M  ISO  8  27  14  28  14  29  14  30   8  31   8  32  14  33  14  34  14
M  ISO  6  35   3  36  14  37  14  38  14  39  14  40  14
M  END
>  <minimizedAffinity>  (1) 
-5.88981438

>  <minimizedRMSD>  (1) 
0.81754452

$$$$
