
     RDKit          3D

 40 43  0  0  0  0  0  0  0  0999 V2000
   48.4970   33.1180   41.4350 C   0  0  0  0  0  0  0  0  0  0  0  0
   48.0620   34.3440   41.8660 C   0  0  0  0  0  0  0  0  0  0  0  0
   48.9420   35.1850   42.4830 C   0  0  0  0  0  0  0  0  0  0  0  0
   50.2660   34.7830   42.6620 C   0  0  0  0  0  0  0  0  0  0  0  0
   50.6700   33.5460   42.2170 C   0  0  0  0  0  0  0  0  0  0  0  0
   49.7770   32.6810   41.5870 C   0  0  0  0  0  0  0  0  0  0  0  0
   46.6480   34.6810   41.6340 C   0  0  0  0  0  0  0  0  0  0  0  0
   45.9410   34.9080   42.9580 C   0  0  0  0  0  0  0  0  0  0  0  0
   45.9960   33.8880   43.9100 C   0  0  0  0  0  0  0  0  0  0  0  0
   45.3460   34.1220   45.1010 C   0  0  0  0  0  0  0  0  0  0  0  0
   44.7070   35.2900   45.2850 N   0  0  0  0  0  0  0  0  0  0  0  0
   44.6730   36.2660   44.3340 C   0  0  0  0  0  0  0  0  0  0  0  0
   45.2920   36.0600   43.1800 N   0  0  0  0  0  0  0  0  0  0  0  0
   47.6620   32.1880   40.7910 O   0  0  0  0  0  0  0  0  0  0  0  0
   50.2910   31.4460   41.1730 O   0  0  0  0  0  0  0  0  0  0  0  0
   50.8280   31.4530   39.8850 C   0  0  0  0  0  0  0  0  0  0  0  0
   52.1980   31.3110   39.7630 C   0  0  0  0  0  0  0  0  0  0  0  0
   52.8320   31.3050   38.5230 C   0  0  0  0  0  0  0  0  0  0  0  0
   52.0850   31.4410   37.4140 N   0  0  0  0  0  0  0  0  0  0  0  0
   50.7430   31.5790   37.5390 C   0  0  0  0  0  0  0  0  0  0  0  0
   50.1460   31.5830   38.7420 N   0  0  0  0  0  0  0  0  0  0  0  0
   49.9570   31.7240   36.3190 C   0  0  0  0  0  0  0  0  0  0  0  0
   50.0080   31.0180   35.1230 C   0  0  0  0  0  0  0  0  0  0  0  0
   49.0380   31.5520   34.2670 C   0  0  0  0  0  0  0  0  0  0  0  0
   48.4500   32.5710   35.0190 C   0  0  0  0  0  0  0  0  0  0  0  0
   49.0210   32.6250   36.1940 O   0  0  0  0  0  0  0  0  0  0  0  0
   48.6100   36.1723   42.8365 H   0  0  0  0  0  0  0  0  0  0  0  0
   50.9841   35.4531   43.1573 H   0  0  0  0  0  0  0  0  0  0  0  0
   51.7151   33.2342   42.3606 H   0  0  0  0  0  0  0  0  0  0  0  0
   46.5871   35.5967   41.0275 H   0  0  0  0  0  0  0  0  0  0  0  0
   46.1619   33.8481   41.1048 H   0  0  0  0  0  0  0  0  0  0  0  0
   46.5310   32.9462   43.7184 H   0  0  0  0  0  0  0  0  0  0  0  0
   45.3496   33.3602   45.8945 H   0  0  0  0  0  0  0  0  0  0  0  0
   44.1402   37.2099   44.5213 H   0  0  0  0  0  0  0  0  0  0  0  0
   46.7098   32.4061   40.6299 H   0  0  0  0  0  0  0  0  0  0  0  0
   52.8057   31.1994   40.6731 H   0  0  0  0  0  0  0  0  0  0  0  0
   53.9238   31.1911   38.4526 H   0  0  0  0  0  0  0  0  0  0  0  0
   50.6899   30.1868   34.8904 H   0  0  0  0  0  0  0  0  0  0  0  0
   48.7952   31.2411   33.2402 H   0  0  0  0  0  0  0  0  0  0  0  0
   47.6347   33.2254   34.6768 H   0  0  0  0  0  0  0  0  0  0  0  0
  1  6  2  0
  1  2  1  0
  2  3  2  0
  3  4  1  0
  5  4  2  0
  6  5  1  0
  7  2  1  0
  7  8  1  0
  8 13  1  0
  8  9  2  0
  9 10  1  0
 10 11  2  0
 12 11  1  0
 13 12  2  0
 14  1  1  0
 15  6  1  0
 16 15  1  0
 17 16  2  0
 18 17  1  0
 19 20  1  0
 19 18  2  0
 20 21  2  0
 21 16  1  0
 22 20  1  0
 23 22  2  0
 24 25  2  0
 24 23  1  0
 25 26  1  0
 26 22  1  0
  3 27  1  0
  4 28  1  0
  5 29  1  0
  7 30  1  0
  7 31  1  0
  9 32  1  0
 10 33  1  0
 12 34  1  0
 14 35  1  0
 17 36  1  0
 18 37  1  0
 23 38  1  0
 24 39  1  0
 25 40  1  0
M  ISO  8  27  14  28  14  29  14  30   8  31   8  32  14  33  14  34  14
M  ISO  6  35   3  36  14  37  14  38  14  39  14  40  14
M  END
>  <minimizedAffinity>  (1) 
-5.87618971

>  <minimizedRMSD>  (1) 
0.641194284

$$$$
