
     RDKit          3D

 35 36  0  0  1  0  0  0  0  0999 V2000
   44.6730   35.2870   45.0710 O   0  0  0  0  0  0  0  0  0  0  0  0
   45.4760   34.2580   44.3290 P   0  0  2  0  0  0  0  0  0  0  0  0
   44.5310   33.0550   43.6410 O   0  0  0  0  0  0  0  0  0  0  0  0
   46.5210   33.4640   45.4090 O   0  0  0  0  0  0  0  0  0  0  0  0
   46.1940   32.1430   45.4220 C   0  0  0  0  0  0  0  0  0  0  0  0
   45.7540   32.0370   49.1160 C   0  0  0  0  0  0  0  0  0  0  0  0
   46.0460   32.5200   47.8320 C   0  0  0  0  0  0  0  0  0  0  0  0
   45.8890   31.6440   46.7720 C   0  0  0  0  0  0  0  0  0  0  0  0
   45.4610   30.3760   47.0290 N   0  0  0  0  0  0  0  0  0  0  0  0
   45.1870   29.9380   48.2700 C   0  0  0  0  0  0  0  0  0  0  0  0
   45.3350   30.7700   49.3010 N   0  0  0  0  0  0  0  0  0  0  0  0
   46.4360   35.0340   43.1810 O   0  0  0  0  0  0  0  0  0  0  0  0
   46.9210   34.0840   42.2810 C   0  0  1  0  0  0  0  0  0  0  0  0
   46.3980   34.2680   40.8810 C   0  0  0  0  0  0  0  0  0  0  0  0
   47.3380   33.3650   40.0990 C   0  0  0  0  0  0  0  0  0  0  0  0
   48.6330   33.3450   40.8680 C   0  0  0  0  0  0  0  0  0  0  0  0
   48.4170   34.2990   42.0450 C   0  0  1  0  0  0  0  0  0  0  0  0
   48.7640   35.7160   41.7080 C   0  0  0  0  0  0  0  0  0  0  0  0
   44.1086   32.5173   44.3569 H   0  0  0  0  0  0  0  0  0  0  0  0
   45.3104   31.9935   44.7842 H   0  0  0  0  0  0  0  0  0  0  0  0
   47.0649   31.5828   45.0510 H   0  0  0  0  0  0  0  0  0  0  0  0
   45.8688   32.7023   49.9845 H   0  0  0  0  0  0  0  0  0  0  0  0
   46.3863   33.5540   47.6737 H   0  0  0  0  0  0  0  0  0  0  0  0
   44.8447   28.9054   48.4328 H   0  0  0  0  0  0  0  0  0  0  0  0
   46.6322   33.1217   42.7289 H   0  0  0  0  0  0  0  0  0  0  0  0
   45.3530   33.9360   40.7933 H   0  0  0  0  0  0  0  0  0  0  0  0
   46.3819   35.3126   40.5367 H   0  0  0  0  0  0  0  0  0  0  0  0
   47.5004   33.7668   39.0880 H   0  0  0  0  0  0  0  0  0  0  0  0
   46.9219   32.3530   39.9857 H   0  0  0  0  0  0  0  0  0  0  0  0
   48.8508   32.3293   41.2299 H   0  0  0  0  0  0  0  0  0  0  0  0
   49.4860   33.6496   40.2438 H   0  0  0  0  0  0  0  0  0  0  0  0
   49.0502   34.1081   42.9239 H   0  0  0  0  0  0  0  0  0  0  0  0
   48.9045   36.2897   42.6360 H   0  0  0  0  0  0  0  0  0  0  0  0
   49.6936   35.7360   41.1202 H   0  0  0  0  0  0  0  0  0  0  0  0
   47.9488   36.1633   41.1202 H   0  0  0  0  0  0  0  0  0  0  0  0
  2  1  2  0
  2  4  1  0
  3  2  1  0
  4  5  1  0
  5  8  1  0
  6 11  2  0
  7  6  1  0
  8  9  1  0
  8  7  2  0
  9 10  2  0
 10 11  1  0
 12  2  1  0
 13 12  1  0
 14 13  1  0
 15 16  1  0
 15 14  1  0
 16 17  1  0
 17 13  1  0
 18 17  1  0
  3 19  1  0
  5 20  1  0
  5 21  1  0
  6 22  1  0
  7 23  1  0
 10 24  1  0
 13 25  1  1
 14 26  1  0
 14 27  1  0
 15 28  1  0
 15 29  1  0
 16 30  1  0
 16 31  1  0
 17 32  1  1
 18 33  1  0
 18 34  1  0
 18 35  1  0
M  ISO  8  19   3  20   8  21   8  22  14  23  14  24  14  25  13  26  13
M  ISO  8  27  13  28  13  29  13  30  13  31  13  32  13  33   8  34   8
M  ISO  1  35   8
M  END
>  <minimizedAffinity>  (1) 
-5.07517672

>  <minimizedRMSD>  (1) 
0.453480631

$$$$
