
     RDKit          3D

 34 36  0  0  0  0  0  0  0  0999 V2000
   48.5210   33.0180   41.4170 C   0  0  0  0  0  0  0  0  0  0  0  0
   48.0640   34.2480   41.8230 C   0  0  0  0  0  0  0  0  0  0  0  0
   48.9370   35.1110   42.4220 C   0  0  0  0  0  0  0  0  0  0  0  0
   50.2600   34.7460   42.6160 C   0  0  0  0  0  0  0  0  0  0  0  0
   50.6880   33.5020   42.1960 C   0  0  0  0  0  0  0  0  0  0  0  0
   49.8050   32.6090   41.5800 C   0  0  0  0  0  0  0  0  0  0  0  0
   46.6450   34.5520   41.5770 C   0  0  0  0  0  0  0  0  0  0  0  0
   45.9430   34.8470   42.8860 C   0  0  0  0  0  0  0  0  0  0  0  0
   45.9820   33.8630   43.8730 C   0  0  0  0  0  0  0  0  0  0  0  0
   45.3400   34.1520   45.0640 C   0  0  0  0  0  0  0  0  0  0  0  0
   44.7270   35.3350   45.1990 N   0  0  0  0  0  0  0  0  0  0  0  0
   44.7030   36.2770   44.2220 C   0  0  0  0  0  0  0  0  0  0  0  0
   45.3160   36.0170   43.0720 N   0  0  0  0  0  0  0  0  0  0  0  0
   47.7120   32.0580   40.7920 O   0  0  0  0  0  0  0  0  0  0  0  0
   50.3520   31.3790   41.1980 O   0  0  0  0  0  0  0  0  0  0  0  0
   51.1310   31.4320   40.0410 C   0  0  0  0  0  0  0  0  0  0  0  0
   52.4950   31.2610   40.1650 C   0  0  0  0  0  0  0  0  0  0  0  0
   53.3530   31.2980   39.0650 C   0  0  0  0  0  0  0  0  0  0  0  0
   52.8400   31.5060   37.8540 N   0  0  0  0  0  0  0  0  0  0  0  0
   51.5040   31.6740   37.7270 C   0  0  0  0  0  0  0  0  0  0  0  0
   50.6760   31.6380   38.7900 N   0  0  0  0  0  0  0  0  0  0  0  0
   50.7760   31.9020   36.5470 O   0  0  0  0  0  0  0  0  0  0  0  0
   48.5883   36.1007   42.7521 H   0  0  0  0  0  0  0  0  0  0  0  0
   50.9624   35.4406   43.0999 H   0  0  0  0  0  0  0  0  0  0  0  0
   51.7374   33.2094   42.3479 H   0  0  0  0  0  0  0  0  0  0  0  0
   46.5696   35.4292   40.9176 H   0  0  0  0  0  0  0  0  0  0  0  0
   46.1676   33.6836   41.0995 H   0  0  0  0  0  0  0  0  0  0  0  0
   46.4975   32.9046   43.7127 H   0  0  0  0  0  0  0  0  0  0  0  0
   45.3332   33.4219   45.8867 H   0  0  0  0  0  0  0  0  0  0  0  0
   44.1869   37.2356   44.3789 H   0  0  0  0  0  0  0  0  0  0  0  0
   46.7558   32.2509   40.6227 H   0  0  0  0  0  0  0  0  0  0  0  0
   52.9202   31.0897   41.1649 H   0  0  0  0  0  0  0  0  0  0  0  0
   54.4361   31.1575   39.1963 H   0  0  0  0  0  0  0  0  0  0  0  0
   49.7926   32.0095   36.5850 H   0  0  0  0  0  0  0  0  0  0  0  0
  1  6  2  0
  1  2  1  0
  2  3  2  0
  3  4  1  0
  5  4  2  0
  6  5  1  0
  7  2  1  0
  7  8  1  0
  8 13  1  0
  8  9  2  0
  9 10  1  0
 10 11  2  0
 12 11  1  0
 13 12  2  0
 14  1  1  0
 15  6  1  0
 16 17  2  0
 16 15  1  0
 18 17  1  0
 19 18  2  0
 20 19  1  0
 20 21  2  0
 21 16  1  0
 22 20  1  0
  3 23  1  0
  4 24  1  0
  5 25  1  0
  7 26  1  0
  7 27  1  0
  9 28  1  0
 10 29  1  0
 12 30  1  0
 14 31  1  0
 17 32  1  0
 18 33  1  0
 22 34  1  0
M  ISO  8  23  14  24  14  25  14  26   8  27   8  28  14  29  14  30  14
M  ISO  4  31   3  32  14  33  14  34   3
M  END
>  <minimizedAffinity>  (1) 
-5.80480528

>  <minimizedRMSD>  (1) 
0.0149160791

$$$$
