
     RDKit          3D

 35 37  0  0  0  0  0  0  0  0999 V2000
   48.5310   33.0200   41.4460 C   0  0  0  0  0  0  0  0  0  0  0  0
   48.0660   34.2500   41.8380 C   0  0  0  0  0  0  0  0  0  0  0  0
   48.9290   35.1320   42.4230 C   0  0  0  0  0  0  0  0  0  0  0  0
   50.2570   34.7730   42.6150 C   0  0  0  0  0  0  0  0  0  0  0  0
   50.6950   33.5320   42.2120 C   0  0  0  0  0  0  0  0  0  0  0  0
   49.8230   32.6230   41.6120 C   0  0  0  0  0  0  0  0  0  0  0  0
   46.6480   34.5450   41.5980 C   0  0  0  0  0  0  0  0  0  0  0  0
   45.9430   34.8420   42.9070 C   0  0  0  0  0  0  0  0  0  0  0  0
   45.9820   33.8620   43.8960 C   0  0  0  0  0  0  0  0  0  0  0  0
   45.3330   34.1550   45.0850 C   0  0  0  0  0  0  0  0  0  0  0  0
   44.7140   35.3480   45.2110 N   0  0  0  0  0  0  0  0  0  0  0  0
   44.6970   36.2790   44.2250 C   0  0  0  0  0  0  0  0  0  0  0  0
   45.3130   36.0110   43.0850 N   0  0  0  0  0  0  0  0  0  0  0  0
   47.7230   32.0470   40.8360 O   0  0  0  0  0  0  0  0  0  0  0  0
   50.3690   31.3870   41.2390 O   0  0  0  0  0  0  0  0  0  0  0  0
   51.1270   31.4320   40.0720 C   0  0  0  0  0  0  0  0  0  0  0  0
   52.4980   31.2790   40.1750 C   0  0  0  0  0  0  0  0  0  0  0  0
   53.3380   31.3090   39.0580 C   0  0  0  0  0  0  0  0  0  0  0  0
   52.7990   31.4890   37.8550 N   0  0  0  0  0  0  0  0  0  0  0  0
   51.4600   31.6380   37.7550 C   0  0  0  0  0  0  0  0  0  0  0  0
   50.6490   31.6110   38.8180 N   0  0  0  0  0  0  0  0  0  0  0  0
   50.7190   31.8390   36.5480 N   0  0  0  0  0  0  0  0  0  0  0  0
   48.5737   36.1233   42.7410 H   0  0  0  0  0  0  0  0  0  0  0  0
   50.9564   35.4783   43.0876 H   0  0  0  0  0  0  0  0  0  0  0  0
   51.7479   33.2528   42.3652 H   0  0  0  0  0  0  0  0  0  0  0  0
   46.5664   35.4193   40.9355 H   0  0  0  0  0  0  0  0  0  0  0  0
   46.1753   33.6701   41.1277 H   0  0  0  0  0  0  0  0  0  0  0  0
   46.5012   32.9047   43.7413 H   0  0  0  0  0  0  0  0  0  0  0  0
   45.3225   33.4286   45.9110 H   0  0  0  0  0  0  0  0  0  0  0  0
   44.1806   37.2393   44.3703 H   0  0  0  0  0  0  0  0  0  0  0  0
   46.7653   32.2332   40.6681 H   0  0  0  0  0  0  0  0  0  0  0  0
   52.9424   31.1286   41.1699 H   0  0  0  0  0  0  0  0  0  0  0  0
   54.4252   31.1860   39.1716 H   0  0  0  0  0  0  0  0  0  0  0  0
   49.6947   31.9414   36.5835 H   0  0  0  0  0  0  0  0  0  0  0  0
   51.2097   31.8813   35.6434 H   0  0  0  0  0  0  0  0  0  0  0  0
  1  6  2  0
  1  2  1  0
  2  3  2  0
  3  4  1  0
  5  4  2  0
  6  5  1  0
  7  2  1  0
  7  8  1  0
  8 13  1  0
  8  9  2  0
  9 10  1  0
 10 11  2  0
 12 11  1  0
 13 12  2  0
 14  1  1  0
 15  6  1  0
 16 17  2  0
 16 15  1  0
 18 17  1  0
 19 18  2  0
 20 19  1  0
 20 21  2  0
 21 16  1  0
 22 20  1  0
  3 23  1  0
  4 24  1  0
  5 25  1  0
  7 26  1  0
  7 27  1  0
  9 28  1  0
 10 29  1  0
 12 30  1  0
 14 31  1  0
 17 32  1  0
 18 33  1  0
 22 34  1  0
 22 35  1  0
M  ISO  8  23  14  24  14  25  14  26   8  27   8  28  14  29  14  30  14
M  ISO  3  31   3  32  14  33  14
M  END
>  <minimizedAffinity>  (1) 
-5.79035759

>  <minimizedRMSD>  (1) 
0.0444488525

$$$$
