
     RDKit          3D

 39 41  0  0  0  0  0  0  0  0999 V2000
   48.4550   33.1120   41.3810 C   0  0  0  0  0  0  0  0  0  0  0  0
   48.0420   34.3350   41.8360 C   0  0  0  0  0  0  0  0  0  0  0  0
   48.9340   35.1540   42.4610 C   0  0  0  0  0  0  0  0  0  0  0  0
   50.2540   34.7380   42.6290 C   0  0  0  0  0  0  0  0  0  0  0  0
   50.6390   33.4980   42.1590 C   0  0  0  0  0  0  0  0  0  0  0  0
   49.7280   32.6560   41.5190 C   0  0  0  0  0  0  0  0  0  0  0  0
   46.6310   34.6960   41.6180 C   0  0  0  0  0  0  0  0  0  0  0  0
   45.9330   34.9120   42.9490 C   0  0  0  0  0  0  0  0  0  0  0  0
   45.9950   33.8880   43.8910 C   0  0  0  0  0  0  0  0  0  0  0  0
   45.3560   34.1150   45.0880 C   0  0  0  0  0  0  0  0  0  0  0  0
   44.7190   35.2810   45.2860 N   0  0  0  0  0  0  0  0  0  0  0  0
   44.6770   36.2640   44.3430 C   0  0  0  0  0  0  0  0  0  0  0  0
   45.2880   36.0610   43.1860 N   0  0  0  0  0  0  0  0  0  0  0  0
   47.6060   32.2020   40.7270 O   0  0  0  0  0  0  0  0  0  0  0  0
   50.2270   31.4240   41.0830 O   0  0  0  0  0  0  0  0  0  0  0  0
   50.6990   31.4280   39.7750 C   0  0  0  0  0  0  0  0  0  0  0  0
   52.0630   31.3610   39.5880 C   0  0  0  0  0  0  0  0  0  0  0  0
   52.6310   31.3590   38.3030 C   0  0  0  0  0  0  0  0  0  0  0  0
   51.8240   31.4230   37.2360 N   0  0  0  0  0  0  0  0  0  0  0  0
   50.4890   31.4880   37.4300 C   0  0  0  0  0  0  0  0  0  0  0  0
   49.9420   31.4900   38.6570 N   0  0  0  0  0  0  0  0  0  0  0  0
   49.6190   31.5580   36.2280 C   0  0  0  0  0  0  0  0  0  0  0  0
   48.7200   32.7790   36.2590 C   0  0  0  0  0  0  0  0  0  0  0  0
   48.6139   36.1391   42.8314 H   0  0  0  0  0  0  0  0  0  0  0  0
   50.9822   35.3917   43.1314 H   0  0  0  0  0  0  0  0  0  0  0  0
   51.6801   33.1685   42.2910 H   0  0  0  0  0  0  0  0  0  0  0  0
   46.5801   35.6221   41.0266 H   0  0  0  0  0  0  0  0  0  0  0  0
   46.1305   33.8781   41.0790 H   0  0  0  0  0  0  0  0  0  0  0  0
   46.5271   32.9468   43.6885 H   0  0  0  0  0  0  0  0  0  0  0  0
   45.3666   33.3480   45.8764 H   0  0  0  0  0  0  0  0  0  0  0  0
   44.1461   37.2072   44.5391 H   0  0  0  0  0  0  0  0  0  0  0  0
   46.6558   32.4339   40.5738 H   0  0  0  0  0  0  0  0  0  0  0  0
   52.7230   31.3078   40.4664 H   0  0  0  0  0  0  0  0  0  0  0  0
   53.7222   31.3057   38.1751 H   0  0  0  0  0  0  0  0  0  0  0  0
   48.9927   30.6546   36.1877 H   0  0  0  0  0  0  0  0  0  0  0  0
   50.2645   31.6288   35.3401 H   0  0  0  0  0  0  0  0  0  0  0  0
   48.5152   33.0571   37.3034 H   0  0  0  0  0  0  0  0  0  0  0  0
   49.2196   33.6153   35.7481 H   0  0  0  0  0  0  0  0  0  0  0  0
   47.7731   32.5502   35.7481 H   0  0  0  0  0  0  0  0  0  0  0  0
  1  6  2  0
  1  2  1  0
  2  3  2  0
  3  4  1  0
  5  4  2  0
  6  5  1  0
  7  2  1  0
  7  8  1  0
  8 13  1  0
  8  9  2  0
  9 10  1  0
 10 11  2  0
 12 11  1  0
 13 12  2  0
 14  1  1  0
 15  6  1  0
 16 15  1  0
 17 16  2  0
 18 17  1  0
 19 20  1  0
 19 18  2  0
 20 21  2  0
 21 16  1  0
 22 23  1  0
 22 20  1  0
  3 24  1  0
  4 25  1  0
  5 26  1  0
  7 27  1  0
  7 28  1  0
  9 29  1  0
 10 30  1  0
 12 31  1  0
 14 32  1  0
 17 33  1  0
 18 34  1  0
 22 35  1  0
 22 36  1  0
 23 37  1  0
 23 38  1  0
 23 39  1  0
M  ISO  8  24  14  25  14  26  14  27   8  28   8  29  14  30  14  31  14
M  ISO  8  32   3  33  14  34  14  35   8  36   8  37   8  38   8  39   8
M  END
>  <minimizedAffinity>  (1) 
-5.42127895

>  <minimizedRMSD>  (1) 
0.734823942

$$$$
