
     RDKit          3D

 19 20  0  0  0  0  0  0  0  0999 V2000
   44.9920   34.8320   44.7600 C   0  0  0  0  0  0  0  0  0  0  0  0
   45.8870   34.5790   43.6940 C   0  0  0  0  0  0  0  0  0  0  0  0
   46.9220   33.6450   43.8950 C   0  0  0  0  0  0  0  0  0  0  0  0
   46.9950   33.0420   45.1090 N   0  0  0  0  0  0  0  0  0  0  0  0
   46.1240   33.3070   46.1030 C   0  0  0  0  0  0  0  0  0  0  0  0
   45.1350   34.1940   45.9210 N   0  0  0  0  0  0  0  0  0  0  0  0
   43.9400   35.7710   44.5780 N   0  0  0  0  0  0  0  0  0  0  0  0
   46.2960   32.5990   47.3710 C   0  0  0  0  0  0  0  0  0  0  0  0
   45.1560   32.2070   48.0700 C   0  0  0  0  0  0  0  0  0  0  0  0
   45.6050   31.5660   49.2180 C   0  0  0  0  0  0  0  0  0  0  0  0
   46.9690   31.5850   49.1870 N   0  0  0  0  0  0  0  0  0  0  0  0
   47.3730   32.2060   48.0780 N   0  0  0  0  0  0  0  0  0  0  0  0
   45.7772   35.0993   42.7311 H   0  0  0  0  0  0  0  0  0  0  0  0
   47.6440   33.4129   43.0982 H   0  0  0  0  0  0  0  0  0  0  0  0
   43.8363   36.2600   43.6774 H   0  0  0  0  0  0  0  0  0  0  0  0
   43.2816   35.9622   45.3467 H   0  0  0  0  0  0  0  0  0  0  0  0
   44.1100   32.3720   47.7724 H   0  0  0  0  0  0  0  0  0  0  0  0
   44.9771   31.1248   50.0061 H   0  0  0  0  0  0  0  0  0  0  0  0
   47.5881   31.1836   49.9057 H   0  0  0  0  0  0  0  0  0  0  0  0
  1  6  2  0
  2  3  2  0
  2  1  1  0
  3  4  1  0
  4  5  2  0
  5  8  1  0
  6  5  1  0
  7  1  1  0
  8  9  1  0
  8 12  2  0
  9 10  2  0
 11 10  1  0
 12 11  1  0
  2 13  1  0
  3 14  1  0
  7 15  1  0
  7 16  1  0
  9 17  1  0
 10 18  1  0
 11 19  1  0
M  ISO  5  13  14  14  14  17  14  18  14  19   9
M  END
>  <minimizedAffinity>  (1) 
-4.9106679

>  <minimizedRMSD>  (1) 
1.22138572

$$$$
