
     RDKit          3D

 24 25  0  0  0  0  0  0  0  0999 V2000
   44.9880   34.8780   44.7300 C   0  0  0  0  0  0  0  0  0  0  0  0
   45.8750   34.6150   43.6730 C   0  0  0  0  0  0  0  0  0  0  0  0
   46.8940   33.6420   43.8710 C   0  0  0  0  0  0  0  0  0  0  0  0
   46.9310   33.0280   45.0950 N   0  0  0  0  0  0  0  0  0  0  0  0
   46.0570   33.3130   46.0810 C   0  0  0  0  0  0  0  0  0  0  0  0
   45.1040   34.2290   45.8850 N   0  0  0  0  0  0  0  0  0  0  0  0
   43.9690   35.8540   44.5270 N   0  0  0  0  0  0  0  0  0  0  0  0
   46.1840   32.6270   47.2950 N   0  0  0  0  0  0  0  0  0  0  0  0
   47.4100   32.3690   48.0320 C   0  0  0  0  0  0  0  0  0  0  0  0
   47.2070   31.1260   48.8450 C   0  0  0  0  0  0  0  0  0  0  0  0
   45.8390   30.6600   48.3870 C   0  0  0  0  0  0  0  0  0  0  0  0
   45.1680   32.0010   48.1300 C   0  0  0  0  0  0  0  0  0  0  0  0
   45.7840   35.1484   42.7153 H   0  0  0  0  0  0  0  0  0  0  0  0
   47.6170   33.3948   43.0797 H   0  0  0  0  0  0  0  0  0  0  0  0
   43.8981   36.3443   43.6240 H   0  0  0  0  0  0  0  0  0  0  0  0
   43.3037   36.0689   45.2833 H   0  0  0  0  0  0  0  0  0  0  0  0
   48.2444   32.2241   47.3300 H   0  0  0  0  0  0  0  0  0  0  0  0
   47.6493   33.2199   48.6868 H   0  0  0  0  0  0  0  0  0  0  0  0
   47.9788   30.3743   48.6230 H   0  0  0  0  0  0  0  0  0  0  0  0
   47.2747   31.2935   49.9301 H   0  0  0  0  0  0  0  0  0  0  0  0
   45.9009   30.0536   47.4713 H   0  0  0  0  0  0  0  0  0  0  0  0
   45.3111   30.0098   49.1001 H   0  0  0  0  0  0  0  0  0  0  0  0
   45.0017   32.5611   49.0620 H   0  0  0  0  0  0  0  0  0  0  0  0
   44.1658   31.9426   47.6804 H   0  0  0  0  0  0  0  0  0  0  0  0
  1  6  2  0
  2  3  2  0
  2  1  1  0
  3  4  1  0
  4  5  2  0
  5  8  1  0
  6  5  1  0
  7  1  1  0
  8  9  1  0
  8 12  1  0
  9 10  1  0
 11 10  1  0
 12 11  1  0
  2 13  1  0
  3 14  1  0
  7 15  1  0
  7 16  1  0
  9 17  1  0
  9 18  1  0
 10 19  1  0
 10 20  1  0
 11 21  1  0
 11 22  1  0
 12 23  1  0
 12 24  1  0
M  ISO  8  13  14  14  14  17  13  18  13  19  13  20  13  21  13  22  13
M  ISO  2  23  13  24  13
M  END
>  <minimizedAffinity>  (1) 
-4.84720755

>  <minimizedRMSD>  (1) 
1.13000989

$$$$
