
     RDKit          3D

 18 19  0  0  0  0  0  0  0  0999 V2000
   44.9170   35.0320   44.4660 C   0  0  0  0  0  0  0  0  0  0  0  0
   45.8370   34.8790   43.4020 C   0  0  0  0  0  0  0  0  0  0  0  0
   46.9370   33.9960   43.5620 C   0  0  0  0  0  0  0  0  0  0  0  0
   47.0240   33.3510   44.7500 N   0  0  0  0  0  0  0  0  0  0  0  0
   46.1390   33.5130   45.7420 C   0  0  0  0  0  0  0  0  0  0  0  0
   45.0980   34.3430   45.6040 N   0  0  0  0  0  0  0  0  0  0  0  0
   43.8220   35.9150   44.3010 N   0  0  0  0  0  0  0  0  0  0  0  0
   46.3000   32.7730   47.0140 C   0  0  0  0  0  0  0  0  0  0  0  0
   45.1590   32.5550   47.7740 C   0  0  0  0  0  0  0  0  0  0  0  0
   45.8230   31.6240   49.2250 S   0  0  0  0  0  0  0  0  0  0  0  0
   47.5810   31.7120   48.5000 C   0  0  0  0  0  0  0  0  0  0  0  0
   47.4050   32.2780   47.5450 N   0  0  0  0  0  0  0  0  0  0  0  0
   45.7017   35.4367   42.4635 H   0  0  0  0  0  0  0  0  0  0  0  0
   47.6788   33.8438   42.7642 H   0  0  0  0  0  0  0  0  0  0  0  0
   43.7058   36.4320   43.4177 H   0  0  0  0  0  0  0  0  0  0  0  0
   43.1418   36.0402   45.0643 H   0  0  0  0  0  0  0  0  0  0  0  0
   44.1227   32.8593   47.5653 H   0  0  0  0  0  0  0  0  0  0  0  0
   48.5216   31.3137   48.9083 H   0  0  0  0  0  0  0  0  0  0  0  0
  1  6  2  0
  2  3  2  0
  2  1  1  0
  3  4  1  0
  4  5  2  0
  5  8  1  0
  6  5  1  0
  7  1  1  0
  8 12  1  0
  8  9  2  0
  9 10  1  0
 11 10  1  0
 12 11  2  0
  2 13  1  0
  3 14  1  0
  7 15  1  0
  7 16  1  0
  9 17  1  0
 11 18  1  0
M  ISO  4  13  14  14  14  17  14  18  14
M  END
>  <minimizedAffinity>  (1) 
-4.6489315

>  <minimizedRMSD>  (1) 
1.2040422

$$$$
