
     RDKit          3D

 20 21  0  0  0  0  0  0  0  0999 V2000
   44.9470   34.9200   45.2740 C   0  0  0  0  0  0  0  0  0  0  0  0
   44.3890   35.9190   44.4590 C   0  0  0  0  0  0  0  0  0  0  0  0
   44.9510   36.1620   43.1890 C   0  0  0  0  0  0  0  0  0  0  0  0
   46.0160   35.4010   42.8270 N   0  0  0  0  0  0  0  0  0  0  0  0
   46.5280   34.4470   43.6360 C   0  0  0  0  0  0  0  0  0  0  0  0
   45.9950   34.2080   44.8520 N   0  0  0  0  0  0  0  0  0  0  0  0
   44.3750   34.6780   46.5540 N   0  0  0  0  0  0  0  0  0  0  0  0
   47.6730   33.6350   43.2330 C   0  0  0  0  0  0  0  0  0  0  0  0
   48.8200   34.2630   42.7370 C   0  0  0  0  0  0  0  0  0  0  0  0
   49.8450   33.4150   42.3840 C   0  0  0  0  0  0  0  0  0  0  0  0
   49.8160   32.0720   42.4820 N   0  0  0  0  0  0  0  0  0  0  0  0
   48.6860   31.4970   42.9670 C   0  0  0  0  0  0  0  0  0  0  0  0
   47.6820   32.2910   43.3150 N   0  0  0  0  0  0  0  0  0  0  0  0
   43.5249   36.5040   44.8071 H   0  0  0  0  0  0  0  0  0  0  0  0
   44.5443   36.9348   42.5201 H   0  0  0  0  0  0  0  0  0  0  0  0
   44.7706   33.9496   47.1655 H   0  0  0  0  0  0  0  0  0  0  0  0
   43.5653   35.2312   46.8692 H   0  0  0  0  0  0  0  0  0  0  0  0
   48.8973   35.3556   42.6363 H   0  0  0  0  0  0  0  0  0  0  0  0
   50.7643   33.8721   41.9890 H   0  0  0  0  0  0  0  0  0  0  0  0
   48.6053   30.4047   43.0684 H   0  0  0  0  0  0  0  0  0  0  0  0
  1  7  1  0
  2  1  2  0
  3  2  1  0
  4  3  2  0
  4  5  1  0
  5  6  2  0
  6  1  1  0
  8 13  1  0
  8  5  1  0
  9  8  2  0
 10 11  2  0
 10  9  1  0
 11 12  1  0
 12 13  2  0
  2 14  1  0
  3 15  1  0
  7 16  1  0
  7 17  1  0
  9 18  1  0
 10 19  1  0
 12 20  1  0
M  ISO  5  14  14  15  14  18  14  19  14  20  14
M  END
>  <minimizedAffinity>  (1) 
-4.52199841

>  <minimizedRMSD>  (1) 
5.14609146

$$$$
