
     RDKit          3D

 16 16  0  0  0  0  0  0  0  0999 V2000
   45.0920   35.4040   44.0840 C   0  0  0  0  0  0  0  0  0  0  0  0
   46.1400   34.7820   43.3550 C   0  0  0  0  0  0  0  0  0  0  0  0
   46.8440   33.7060   43.9590 C   0  0  0  0  0  0  0  0  0  0  0  0
   46.4620   33.3410   45.2090 N   0  0  0  0  0  0  0  0  0  0  0  0
   45.4640   33.9560   45.8680 C   0  0  0  0  0  0  0  0  0  0  0  0
   44.7990   34.9660   45.3070 N   0  0  0  0  0  0  0  0  0  0  0  0
   44.3940   36.4750   43.4790 N   0  0  0  0  0  0  0  0  0  0  0  0
   45.2860   32.4440   47.9840 C   0  0  0  0  0  0  0  0  0  0  0  0
   46.0250   31.6220   47.3580 O   0  0  0  0  0  0  0  0  0  0  0  0
   45.0420   33.5960   47.1790 N   0  0  0  0  0  0  0  0  0  0  0  0
   46.4013   35.1263   42.3435 H   0  0  0  0  0  0  0  0  0  0  0  0
   47.6633   33.1910   43.4361 H   0  0  0  0  0  0  0  0  0  0  0  0
   44.6494   36.7859   42.5308 H   0  0  0  0  0  0  0  0  0  0  0  0
   43.6303   36.9440   43.9865 H   0  0  0  0  0  0  0  0  0  0  0  0
   44.8916   32.2898   48.9992 H   0  0  0  0  0  0  0  0  0  0  0  0
   44.4463   34.3028   47.6334 H   0  0  0  0  0  0  0  0  0  0  0  0
  1  6  2  0
  2  3  2  0
  2  1  1  0
  3  4  1  0
  4  5  2  0
  5 10  1  0
  6  5  1  0
  7  1  1  0
  9  8  2  0
 10  8  1  0
  2 11  1  0
  3 12  1  0
  7 13  1  0
  7 14  1  0
  8 15  1  0
 10 16  1  0
M  ISO  3  11  14  12  14  15   6
M  END
>  <minimizedAffinity>  (1) 
-4.38721752

>  <minimizedRMSD>  (1) 
0.166180477

$$$$
