
     RDKit          3D

 13 13  0  0  0  0  0  0  0  0999 V2000
   44.9930   35.7840   43.9420 C   0  0  0  0  0  0  0  0  0  0  0  0
   45.8980   34.7960   43.5000 C   0  0  0  0  0  0  0  0  0  0  0  0
   46.2220   33.7490   44.4010 C   0  0  0  0  0  0  0  0  0  0  0  0
   45.6390   33.7740   45.6200 N   0  0  0  0  0  0  0  0  0  0  0  0
   44.7840   34.7290   46.0030 C   0  0  0  0  0  0  0  0  0  0  0  0
   44.4670   35.7240   45.1680 N   0  0  0  0  0  0  0  0  0  0  0  0
   44.6610   36.8360   43.0470 N   0  0  0  0  0  0  0  0  0  0  0  0
   44.2720   34.6110   47.2920 O   0  0  0  0  0  0  0  0  0  0  0  0
   46.3370   34.8360   42.4922 H   0  0  0  0  0  0  0  0  0  0  0  0
   46.9207   32.9478   44.1183 H   0  0  0  0  0  0  0  0  0  0  0  0
   45.0787   36.8625   42.1059 H   0  0  0  0  0  0  0  0  0  0  0  0
   44.0026   37.5722   43.3392 H   0  0  0  0  0  0  0  0  0  0  0  0
   43.6342   35.2860   47.6350 H   0  0  0  0  0  0  0  0  0  0  0  0
  1  6  2  0
  2  1  1  0
  2  3  2  0
  3  4  1  0
  4  5  2  0
  5  8  1  0
  6  5  1  0
  7  1  1  0
  2  9  1  0
  3 10  1  0
  7 11  1  0
  7 12  1  0
  8 13  1  0
M  ISO  3   9  14  10  14  13   3
M  END
>  <minimizedAffinity>  (1) 
-4.11062527

>  <minimizedRMSD>  (1) 
0.996809542

$$$$
