
     RDKit          3D

 14 14  0  0  0  0  0  0  0  0999 V2000
   45.0260   35.5120   44.2780 C   0  0  0  0  0  0  0  0  0  0  0  0
   45.9930   34.7200   43.6350 C   0  0  0  0  0  0  0  0  0  0  0  0
   46.5300   33.6100   44.3110 C   0  0  0  0  0  0  0  0  0  0  0  0
   46.0610   33.3760   45.5780 N   0  0  0  0  0  0  0  0  0  0  0  0
   45.1370   34.1530   46.1660 C   0  0  0  0  0  0  0  0  0  0  0  0
   44.6300   35.2100   45.5100 N   0  0  0  0  0  0  0  0  0  0  0  0
   44.4990   36.6240   43.5820 N   0  0  0  0  0  0  0  0  0  0  0  0
   44.7100   33.8250   47.4930 N   0  0  0  0  0  0  0  0  0  0  0  0
   46.3256   34.9655   42.6156 H   0  0  0  0  0  0  0  0  0  0  0  0
   47.2881   32.9621   43.8467 H   0  0  0  0  0  0  0  0  0  0  0  0
   44.8238   36.8353   42.6277 H   0  0  0  0  0  0  0  0  0  0  0  0
   43.7903   37.2228   44.0293 H   0  0  0  0  0  0  0  0  0  0  0  0
   44.0024   34.4061   47.9647 H   0  0  0  0  0  0  0  0  0  0  0  0
   45.1105   33.0080   47.9757 H   0  0  0  0  0  0  0  0  0  0  0  0
  1  6  2  0
  2  1  1  0
  2  3  2  0
  3  4  1  0
  4  5  2  0
  5  8  1  0
  6  5  1  0
  7  1  1  0
  2  9  1  0
  3 10  1  0
  7 11  1  0
  7 12  1  0
  8 13  1  0
  8 14  1  0
M  ISO  2   9  14  10  14
M  END
>  <minimizedAffinity>  (1) 
-3.87017608

>  <minimizedRMSD>  (1) 
0.502001941

$$$$
