
     RDKit          3D

 13 13  0  0  0  0  0  0  0  0999 V2000
   45.0890   35.2280   44.1110 C   0  0  0  0  0  0  0  0  0  0  0  0
   46.0770   34.9930   43.1380 C   0  0  0  0  0  0  0  0  0  0  0  0
   47.0410   33.9960   43.3930 C   0  0  0  0  0  0  0  0  0  0  0  0
   46.9500   33.3150   44.5790 N   0  0  0  0  0  0  0  0  0  0  0  0
   45.9950   33.5670   45.4800 C   0  0  0  0  0  0  0  0  0  0  0  0
   45.0670   34.5200   45.2490 N   0  0  0  0  0  0  0  0  0  0  0  0
   44.1050   36.2290   43.8810 N   0  0  0  0  0  0  0  0  0  0  0  0
   45.8940   32.6710   47.0210 S   0  0  0  0  0  0  0  0  0  0  0  0
   46.0972   35.5717   42.2027 H   0  0  0  0  0  0  0  0  0  0  0  0
   47.8367   33.7730   42.6669 H   0  0  0  0  0  0  0  0  0  0  0  0
   44.1196   36.7745   43.0074 H   0  0  0  0  0  0  0  0  0  0  0  0
   43.3778   36.4084   44.5880 H   0  0  0  0  0  0  0  0  0  0  0  0
   45.9930   33.5496   48.0675 H   0  0  0  0  0  0  0  0  0  0  0  0
  1  6  2  0
  2  3  2  0
  2  1  1  0
  3  4  1  0
  4  5  2  0
  5  8  1  0
  6  5  1  0
  7  1  1  0
  2  9  1  0
  3 10  1  0
  7 11  1  0
  7 12  1  0
  8 13  1  0
M  ISO  3   9  14  10  14  13  11
M  END
>  <minimizedAffinity>  (1) 
-3.22495604

>  <minimizedRMSD>  (1) 
0.616872728

$$$$
