
     RDKit          3D

 14 14  0  0  0  0  0  0  0  0999 V2000
   44.8940   35.0630   44.3450 C   0  0  0  0  0  0  0  0  0  0  0  0
   45.8050   35.0210   43.2750 C   0  0  0  0  0  0  0  0  0  0  0  0
   46.9300   34.1770   43.3750 C   0  0  0  0  0  0  0  0  0  0  0  0
   47.0620   33.4520   44.5140 N   0  0  0  0  0  0  0  0  0  0  0  0
   46.1800   33.5130   45.5160 C   0  0  0  0  0  0  0  0  0  0  0  0
   45.1010   34.3160   45.4320 N   0  0  0  0  0  0  0  0  0  0  0  0
   43.7600   35.9170   44.2390 N   0  0  0  0  0  0  0  0  0  0  0  0
   46.3180   32.7370   46.7430 C   0  0  0  0  0  0  0  0  0  0  0  0
   45.4250   32.6520   47.6240 O   0  0  0  0  0  0  0  0  0  0  0  0
   45.6431   35.6350   42.3768 H   0  0  0  0  0  0  0  0  0  0  0  0
   47.6696   34.1093   42.5636 H   0  0  0  0  0  0  0  0  0  0  0  0
   43.6202   36.4846   43.3909 H   0  0  0  0  0  0  0  0  0  0  0  0
   43.0793   35.9673   45.0104 H   0  0  0  0  0  0  0  0  0  0  0  0
   47.2600   32.1934   46.9076 H   0  0  0  0  0  0  0  0  0  0  0  0
  1  6  2  0
  2  3  2  0
  2  1  1  0
  3  4  1  0
  4  5  2  0
  5  8  1  0
  6  5  1  0
  7  1  1  0
  8  9  2  0
  2 10  1  0
  3 11  1  0
  7 12  1  0
  7 13  1  0
  8 14  1  0
M  ISO  3  10  14  11  14  14   6
M  END
>  <minimizedAffinity>  (1) 
-3.62633014

>  <minimizedRMSD>  (1) 
0.930115938

$$$$
