
     RDKit          3D

 33 36  0  0  1  0  0  0  0  0999 V2000
   45.9000   32.7860   46.7700 C   0  0  0  0  0  0  0  0  0  0  0  0
   45.1150   33.0820   47.7030 O   0  0  0  0  0  0  0  0  0  0  0  0
   44.9450   35.1310   44.1630 C   0  0  0  0  0  0  0  0  0  0  0  0
   45.9850   34.9790   43.2240 C   0  0  0  0  0  0  0  0  0  0  0  0
   47.0250   34.0650   43.4820 C   0  0  0  0  0  0  0  0  0  0  0  0
   46.9620   33.3730   44.6410 N   0  0  0  0  0  0  0  0  0  0  0  0
   45.9580   33.5360   45.5240 C   0  0  0  0  0  0  0  0  0  0  0  0
   44.9690   34.4080   45.2750 N   0  0  0  0  0  0  0  0  0  0  0  0
   43.9070   36.0530   43.8910 N   0  0  0  0  0  0  0  0  0  0  0  0
   48.1720   28.4930   46.1840 C   0  0  0  0  0  0  0  0  0  0  0  0
   47.3380   28.4660   47.4180 C   0  0  0  0  0  0  0  0  0  0  0  0
   46.8130   29.7380   47.6880 N   0  0  0  0  0  0  0  0  0  0  0  0
   46.3860   30.9600   48.2850 C   0  0  1  0  0  0  0  0  0  0  0  0
   45.9020   31.1820   49.4330 O   0  0  0  0  0  0  0  0  0  0  0  0
   46.7870   31.6090   47.0030 C   0  0  1  0  0  0  0  0  0  0  0  0
   46.2670   30.3050   46.4720 C   0  0  2  0  0  0  0  0  0  0  0  0
   47.1480   29.5710   45.1110 S   0  0  0  0  0  0  0  0  0  0  0  0
   48.4090   27.1590   45.5700 C   0  0  0  0  0  0  0  0  0  0  0  0
   49.4980   29.1980   46.3750 C   0  0  0  0  0  0  0  0  0  0  0  0
   45.9844   35.5700   42.2963 H   0  0  0  0  0  0  0  0  0  0  0  0
   47.8522   33.9208   42.7714 H   0  0  0  0  0  0  0  0  0  0  0  0
   43.9188   36.5988   43.0176 H   0  0  0  0  0  0  0  0  0  0  0  0
   43.1395   36.1785   44.5664 H   0  0  0  0  0  0  0  0  0  0  0  0
   46.5099   27.7554   47.2790 H   0  0  0  0  0  0  0  0  0  0  0  0
   47.9681   28.1559   48.2646 H   0  0  0  0  0  0  0  0  0  0  0  0
   46.5454   30.8869   50.1251 H   0  0  0  0  0  0  0  0  0  0  0  0
   47.7651   32.0254   46.7205 H   0  0  0  0  0  0  0  0  0  0  0  0
   48.5423   26.4087   46.3633 H   0  0  0  0  0  0  0  0  0  0  0  0
   47.5457   26.8838   44.9463 H   0  0  0  0  0  0  0  0  0  0  0  0
   49.3143   27.1980   44.9463 H   0  0  0  0  0  0  0  0  0  0  0  0
   49.7036   29.3073   47.4501 H   0  0  0  0  0  0  0  0  0  0  0  0
   50.2986   28.6064   45.9069 H   0  0  0  0  0  0  0  0  0  0  0  0
   49.4553   30.1925   45.9069 H   0  0  0  0  0  0  0  0  0  0  0  0
  1  2  2  0
  3  8  2  0
  4  5  2  0
  4  3  1  0
  5  6  1  0
  6  7  2  0
  7  1  1  0
  8  7  1  0
  9  3  1  0
 10 19  1  0
 10 11  1  0
 12 11  1  0
 12 13  1  0
 13 14  1  1
 15  1  1  0
 15 13  1  0
 16 17  1  6
 16 15  1  0
 16 12  1  0
 16 13  1  0
 17 10  1  0
 18 10  1  0
  4 20  1  0
  5 21  1  0
  9 22  1  0
  9 23  1  0
 11 24  1  0
 11 25  1  0
 14 26  1  0
 15 27  1  1
 18 28  1  0
 18 29  1  0
 18 30  1  0
 19 31  1  0
 19 32  1  0
 19 33  1  0
M  ISO  8  20  14  21  14  24  13  25  13  26   3  27  13  28   8  29   8
M  ISO  4  30   8  31   8  32   8  33   8
M  END
>  <minimizedAffinity>  (1) 
-5.07724905

>  <minimizedRMSD>  (1) 
1.21635926

$$$$
