
     RDKit          3D

 24 25  0  0  0  0  0  0  0  0999 V2000
   45.0860   34.9200   44.4300 C   0  0  0  0  0  0  0  0  0  0  0  0
   46.1160   34.6280   43.5340 C   0  0  0  0  0  0  0  0  0  0  0  0
   47.0670   33.6390   43.9010 C   0  0  0  0  0  0  0  0  0  0  0  0
   46.8860   33.0610   45.1050 N   0  0  0  0  0  0  0  0  0  0  0  0
   45.8930   33.3570   45.9450 C   0  0  0  0  0  0  0  0  0  0  0  0
   44.9880   34.2970   45.5960 N   0  0  0  0  0  0  0  0  0  0  0  0
   44.1380   35.9090   44.0560 N   0  0  0  0  0  0  0  0  0  0  0  0
   45.7120   32.7230   47.2410 C   0  0  0  0  0  0  0  0  0  0  0  0
   44.7460   32.9660   48.0190 O   0  0  0  0  0  0  0  0  0  0  0  0
   45.3510   29.8460   46.2830 Cl  0  0  0  0  0  0  0  0  0  0  0  0
   46.6840   30.4110   47.2490 C   0  0  0  0  0  0  0  0  0  0  0  0
   46.7470   31.7420   47.6280 C   0  0  0  0  0  0  0  0  0  0  0  0
   47.7940   32.2160   48.3930 C   0  0  0  0  0  0  0  0  0  0  0  0
   48.8180   31.4110   48.8180 C   0  0  0  0  0  0  0  0  0  0  0  0
   48.7780   30.0720   48.4510 C   0  0  0  0  0  0  0  0  0  0  0  0
   47.7250   29.6180   47.6870 C   0  0  0  0  0  0  0  0  0  0  0  0
   46.1891   35.1504   42.5687 H   0  0  0  0  0  0  0  0  0  0  0  0
   47.9022   33.3611   43.2413 H   0  0  0  0  0  0  0  0  0  0  0  0
   44.2235   36.3870   43.1476 H   0  0  0  0  0  0  0  0  0  0  0  0
   43.3649   36.1484   44.6931 H   0  0  0  0  0  0  0  0  0  0  0  0
   47.8065   33.2800   48.6718 H   0  0  0  0  0  0  0  0  0  0  0  0
   49.6418   31.8106   49.4277 H   0  0  0  0  0  0  0  0  0  0  0  0
   49.5760   29.3835   48.7659 H   0  0  0  0  0  0  0  0  0  0  0  0
   47.7134   28.5540   47.4080 H   0  0  0  0  0  0  0  0  0  0  0  0
  1  6  2  0
  2  3  2  0
  2  1  1  0
  3  4  1  0
  4  5  2  0
  5  8  1  0
  6  5  1  0
  7  1  1  0
  8 12  1  0
  8  9  2  0
 10 11  1  0
 11 12  2  0
 11 16  1  0
 12 13  1  0
 13 14  2  0
 15 14  1  0
 16 15  2  0
  2 17  1  0
  3 18  1  0
  7 19  1  0
  7 20  1  0
 13 21  1  0
 14 22  1  0
 15 23  1  0
 16 24  1  0
M  ISO  6  17  14  18  14  21  14  22  14  23  14  24  14
M  END
>  <minimizedAffinity>  (1) 
-4.97138548

>  <minimizedRMSD>  (1) 
1.14139545

$$$$
