
     RDKit          3D

 23 24  0  0  0  0  0  0  0  0999 V2000
   45.0160   35.0430   44.2650 C   0  0  0  0  0  0  0  0  0  0  0  0
   46.0580   34.8110   43.3640 C   0  0  0  0  0  0  0  0  0  0  0  0
   47.0650   33.8910   43.6830 C   0  0  0  0  0  0  0  0  0  0  0  0
   46.9700   33.2640   44.8730 N   0  0  0  0  0  0  0  0  0  0  0  0
   45.9610   33.4970   45.7320 C   0  0  0  0  0  0  0  0  0  0  0  0
   45.0060   34.3780   45.4130 N   0  0  0  0  0  0  0  0  0  0  0  0
   44.0160   35.9770   43.9120 N   0  0  0  0  0  0  0  0  0  0  0  0
   45.8540   32.8250   47.0120 C   0  0  0  0  0  0  0  0  0  0  0  0
   44.8990   33.0060   47.8050 O   0  0  0  0  0  0  0  0  0  0  0  0
   46.8920   31.8870   47.4330 C   0  0  0  0  0  0  0  0  0  0  0  0
   47.7900   32.2210   48.4230 C   0  0  0  0  0  0  0  0  0  0  0  0
   48.8100   31.4290   48.9070 C   0  0  0  0  0  0  0  0  0  0  0  0
   48.8960   30.1720   48.2990 C   0  0  0  0  0  0  0  0  0  0  0  0
   48.0080   29.8010   47.2990 C   0  0  0  0  0  0  0  0  0  0  0  0
   47.0390   30.6600   46.8960 N   0  0  0  0  0  0  0  0  0  0  0  0
   46.0877   35.3499   42.4055 H   0  0  0  0  0  0  0  0  0  0  0  0
   47.8972   33.6888   42.9927 H   0  0  0  0  0  0  0  0  0  0  0  0
   44.0668   36.4691   43.0086 H   0  0  0  0  0  0  0  0  0  0  0  0
   43.2364   36.1657   44.5581 H   0  0  0  0  0  0  0  0  0  0  0  0
   47.6827   33.2193   48.8724 H   0  0  0  0  0  0  0  0  0  0  0  0
   49.4961   31.7570   49.7018 H   0  0  0  0  0  0  0  0  0  0  0  0
   49.6785   29.4677   48.6180 H   0  0  0  0  0  0  0  0  0  0  0  0
   48.0903   28.8083   46.8324 H   0  0  0  0  0  0  0  0  0  0  0  0
  1  6  2  0
  2  3  2  0
  2  1  1  0
  3  4  1  0
  4  5  2  0
  5  8  1  0
  6  5  1  0
  7  1  1  0
  8 10  1  0
  8  9  2  0
 10 11  2  0
 11 12  1  0
 13 12  2  0
 14 13  1  0
 15 14  2  0
 15 10  1  0
  2 16  1  0
  3 17  1  0
  7 18  1  0
  7 19  1  0
 11 20  1  0
 12 21  1  0
 13 22  1  0
 14 23  1  0
M  ISO  6  16  14  17  14  20  14  21  14  22  14  23  14
M  END
>  <minimizedAffinity>  (1) 
-4.89068794

>  <minimizedRMSD>  (1) 
0.956103206

$$$$
