
     RDKit          3D

 21 22  0  0  0  0  0  0  0  0999 V2000
   45.0870   34.8700   44.6620 C   0  0  0  0  0  0  0  0  0  0  0  0
   46.0910   34.4990   43.7600 C   0  0  0  0  0  0  0  0  0  0  0  0
   46.9840   33.4780   44.1230 C   0  0  0  0  0  0  0  0  0  0  0  0
   46.8010   32.9200   45.3430 N   0  0  0  0  0  0  0  0  0  0  0  0
   45.8450   33.2760   46.1940 C   0  0  0  0  0  0  0  0  0  0  0  0
   44.9780   34.2590   45.8560 N   0  0  0  0  0  0  0  0  0  0  0  0
   44.1860   35.9050   44.2850 N   0  0  0  0  0  0  0  0  0  0  0  0
   45.6570   32.6710   47.5010 C   0  0  0  0  0  0  0  0  0  0  0  0
   44.5330   32.6450   48.0850 O   0  0  0  0  0  0  0  0  0  0  0  0
   46.7670   32.0540   48.2190 C   0  0  0  0  0  0  0  0  0  0  0  0
   46.6350   30.9250   49.0150 C   0  0  0  0  0  0  0  0  0  0  0  0
   47.8520   30.6080   49.5370 N   0  0  0  0  0  0  0  0  0  0  0  0
   48.7280   31.5120   49.0830 C   0  0  0  0  0  0  0  0  0  0  0  0
   48.0680   32.3930   48.2790 N   0  0  0  0  0  0  0  0  0  0  0  0
   46.1789   34.9985   42.7839 H   0  0  0  0  0  0  0  0  0  0  0  0
   47.7903   33.1486   43.4512 H   0  0  0  0  0  0  0  0  0  0  0  0
   44.2826   36.3630   43.3675 H   0  0  0  0  0  0  0  0  0  0  0  0
   43.4373   36.1961   44.9296 H   0  0  0  0  0  0  0  0  0  0  0  0
   45.6993   30.3755   49.1950 H   0  0  0  0  0  0  0  0  0  0  0  0
   48.0599   29.8185   50.1650 H   0  0  0  0  0  0  0  0  0  0  0  0
   49.8020   31.5396   49.3193 H   0  0  0  0  0  0  0  0  0  0  0  0
  1  6  2  0
  2  3  2  0
  2  1  1  0
  3  4  1  0
  4  5  2  0
  5  8  1  0
  6  5  1  0
  7  1  1  0
  8  9  2  0
  8 10  1  0
 10 14  1  0
 10 11  2  0
 11 12  1  0
 13 12  1  0
 14 13  2  0
  2 15  1  0
  3 16  1  0
  7 17  1  0
  7 18  1  0
 11 19  1  0
 12 20  1  0
 13 21  1  0
M  ISO  5  15  14  16  14  19  14  20   9  21  14
M  END
>  <minimizedAffinity>  (1) 
-4.82997465

>  <minimizedRMSD>  (1) 
1.217502

$$$$
