
     RDKit          3D

 21 22  0  0  0  0  0  0  0  0999 V2000
   45.0330   35.0390   44.2710 C   0  0  0  0  0  0  0  0  0  0  0  0
   46.0780   34.7890   43.3700 C   0  0  0  0  0  0  0  0  0  0  0  0
   47.0680   33.8600   43.7100 C   0  0  0  0  0  0  0  0  0  0  0  0
   46.9460   33.2540   44.9050 N   0  0  0  0  0  0  0  0  0  0  0  0
   45.9420   33.5030   45.7540 C   0  0  0  0  0  0  0  0  0  0  0  0
   44.9680   34.3980   45.4520 N   0  0  0  0  0  0  0  0  0  0  0  0
   44.0290   35.9850   43.9180 N   0  0  0  0  0  0  0  0  0  0  0  0
   45.8210   32.8400   47.0460 C   0  0  0  0  0  0  0  0  0  0  0  0
   44.8790   33.0470   47.8470 O   0  0  0  0  0  0  0  0  0  0  0  0
   46.8670   31.8740   47.4280 C   0  0  0  0  0  0  0  0  0  0  0  0
   47.8460   32.0610   48.3910 C   0  0  0  0  0  0  0  0  0  0  0  0
   48.5970   30.9090   48.4090 C   0  0  0  0  0  0  0  0  0  0  0  0
   48.0650   30.0610   47.4720 C   0  0  0  0  0  0  0  0  0  0  0  0
   47.0660   30.6790   46.9390 O   0  0  0  0  0  0  0  0  0  0  0  0
   46.1192   35.3175   42.4061 H   0  0  0  0  0  0  0  0  0  0  0  0
   47.9055   33.6361   43.0329 H   0  0  0  0  0  0  0  0  0  0  0  0
   44.0789   36.4757   43.0138 H   0  0  0  0  0  0  0  0  0  0  0  0
   43.2529   36.1786   44.5669 H   0  0  0  0  0  0  0  0  0  0  0  0
   47.9931   32.9536   49.0167 H   0  0  0  0  0  0  0  0  0  0  0  0
   49.4636   30.7056   49.0552 H   0  0  0  0  0  0  0  0  0  0  0  0
   48.4209   29.0503   47.2232 H   0  0  0  0  0  0  0  0  0  0  0  0
  1  6  2  0
  2  3  2  0
  2  1  1  0
  3  4  1  0
  4  5  2  0
  5  8  1  0
  6  5  1  0
  7  1  1  0
  8 10  1  0
  8  9  2  0
 10 11  2  0
 11 12  1  0
 13 12  2  0
 14 10  1  0
 14 13  1  0
  2 15  1  0
  3 16  1  0
  7 17  1  0
  7 18  1  0
 11 19  1  0
 12 20  1  0
 13 21  1  0
M  ISO  5  15  14  16  14  19  14  20  14  21  14
M  END
>  <minimizedAffinity>  (1) 
-4.56434727

>  <minimizedRMSD>  (1) 
1.04683983

$$$$
