
     RDKit          3D

 40 42  0  0  1  0  0  0  0  0999 V2000
   47.2990   31.8350   47.2730 C   0  0  1  0  0  0  0  0  0  0  0  0
   47.7770   32.2680   48.6630 C   0  0  0  0  0  0  0  0  0  0  0  0
   49.0100   31.5070   49.0470 C   0  0  0  0  0  0  0  0  0  0  0  0
   48.8100   30.0420   48.8870 C   0  0  0  0  0  0  0  0  0  0  0  0
   48.2790   29.6340   47.5490 C   0  0  0  0  0  0  0  0  0  0  0  0
   46.9700   30.3600   47.3330 C   0  0  2  0  0  0  0  0  0  0  0  0
   47.7610   30.1480   44.3670 Cl  0  0  0  0  0  0  0  0  0  0  0  0
   46.2310   29.6240   45.0410 C   0  0  0  0  0  0  0  0  0  0  0  0
   46.0500   29.7760   46.4220 C   0  0  0  0  0  0  0  0  0  0  0  0
   44.7930   29.2860   46.8090 C   0  0  0  0  0  0  0  0  0  0  0  0
   43.8170   28.7230   46.0140 C   0  0  0  0  0  0  0  0  0  0  0  0
   44.1230   28.6330   44.6740 C   0  0  0  0  0  0  0  0  0  0  0  0
   45.3240   29.0760   44.1590 C   0  0  0  0  0  0  0  0  0  0  0  0
   46.1580   32.6740   46.8820 C   0  0  0  0  0  0  0  0  0  0  0  0
   45.2540   32.6270   47.7580 O   0  0  0  0  0  0  0  0  0  0  0  0
   44.9240   35.0260   44.4340 C   0  0  0  0  0  0  0  0  0  0  0  0
   45.8450   34.9420   43.3880 C   0  0  0  0  0  0  0  0  0  0  0  0
   46.9280   34.0570   43.5250 C   0  0  0  0  0  0  0  0  0  0  0  0
   46.9700   33.3600   44.6800 N   0  0  0  0  0  0  0  0  0  0  0  0
   46.1010   33.4380   45.6660 C   0  0  0  0  0  0  0  0  0  0  0  0
   45.0570   34.2880   45.5420 N   0  0  0  0  0  0  0  0  0  0  0  0
   43.8270   35.9200   44.3000 N   0  0  0  0  0  0  0  0  0  0  0  0
   48.0716   31.9727   46.5022 H   0  0  0  0  0  0  0  0  0  0  0  0
   48.0036   33.3443   48.6503 H   0  0  0  0  0  0  0  0  0  0  0  0
   46.9839   32.0597   49.3962 H   0  0  0  0  0  0  0  0  0  0  0  0
   49.8438   31.8274   48.4050 H   0  0  0  0  0  0  0  0  0  0  0  0
   49.2321   31.7146   50.1041 H   0  0  0  0  0  0  0  0  0  0  0  0
   49.7787   29.5437   49.0394 H   0  0  0  0  0  0  0  0  0  0  0  0
   48.0541   29.7451   49.6290 H   0  0  0  0  0  0  0  0  0  0  0  0
   48.9953   29.9107   46.7614 H   0  0  0  0  0  0  0  0  0  0  0  0
   48.1266   28.5453   47.5106 H   0  0  0  0  0  0  0  0  0  0  0  0
   46.2833   30.2274   48.1820 H   0  0  0  0  0  0  0  0  0  0  0  0
   44.5568   29.3604   47.8808 H   0  0  0  0  0  0  0  0  0  0  0  0
   42.8587   28.3696   46.4224 H   0  0  0  0  0  0  0  0  0  0  0  0
   43.3832   28.1920   43.9897 H   0  0  0  0  0  0  0  0  0  0  0  0
   45.5493   28.9950   43.0854 H   0  0  0  0  0  0  0  0  0  0  0  0
   45.7260   35.5524   42.4807 H   0  0  0  0  0  0  0  0  0  0  0  0
   47.6917   33.9400   42.7420 H   0  0  0  0  0  0  0  0  0  0  0  0
   43.7263   36.4873   43.4462 H   0  0  0  0  0  0  0  0  0  0  0  0
   43.1328   36.0005   45.0567 H   0  0  0  0  0  0  0  0  0  0  0  0
  1  6  1  0
  1  2  1  0
  2  3  1  0
  4  3  1  0
  5  4  1  0
  6  5  1  0
  7  8  1  0
  8  9  2  0
  9 10  1  0
  9  6  1  0
 11 10  2  0
 12 11  1  0
 13 12  2  0
 13  8  1  0
 14  1  1  0
 14 15  2  0
 16 21  2  0
 17 18  2  0
 17 16  1  0
 18 19  1  0
 19 20  2  0
 20 14  1  0
 21 20  1  0
 22 16  1  0
  1 23  1  6
  2 24  1  0
  2 25  1  0
  3 26  1  0
  3 27  1  0
  4 28  1  0
  4 29  1  0
  5 30  1  0
  5 31  1  0
  6 32  1  1
 10 33  1  0
 11 34  1  0
 12 35  1  0
 13 36  1  0
 17 37  1  0
 18 38  1  0
 22 39  1  0
 22 40  1  0
M  ISO  8  23  13  24  13  25  13  26  13  27  13  28  13  29  13  30  13
M  ISO  8  31  13  32  13  33  14  34  14  35  14  36  14  37  14  38  14
M  END
>  <minimizedAffinity>  (1) 
-5.86021852

>  <minimizedRMSD>  (1) 
1.02751637

$$$$
