
     RDKit          3D

 45 47  0  0  1  0  0  0  0  0999 V2000
   47.2420   31.8580   47.3410 C   0  0  1  0  0  0  0  0  0  0  0  0
   47.8260   32.2970   48.6690 C   0  0  0  0  0  0  0  0  0  0  0  0
   49.0350   31.4850   49.0180 C   0  0  0  0  0  0  0  0  0  0  0  0
   48.7140   30.0350   48.9450 C   0  0  0  0  0  0  0  0  0  0  0  0
   48.1740   29.6380   47.6040 C   0  0  0  0  0  0  0  0  0  0  0  0
   46.8380   30.3860   47.4310 C   0  0  2  0  0  0  0  0  0  0  0  0
   46.0040   29.8620   46.4650 N   0  0  0  0  0  0  0  0  0  0  0  0
   44.7280   29.4470   46.9110 C   0  0  0  0  0  0  0  0  0  0  0  0
   44.4810   27.9570   46.6350 C   0  0  0  0  0  0  0  0  0  0  0  0
   45.7540   27.1810   46.7000 C   0  0  0  0  0  0  0  0  0  0  0  0
   46.7130   27.6630   45.6110 C   0  0  0  0  0  0  0  0  0  0  0  0
   46.5380   29.1410   45.3630 C   0  0  0  0  0  0  0  0  0  0  0  0
   46.1420   32.7500   46.9560 C   0  0  0  0  0  0  0  0  0  0  0  0
   45.2920   32.7750   47.8550 O   0  0  0  0  0  0  0  0  0  0  0  0
   44.9100   35.0410   44.4450 C   0  0  0  0  0  0  0  0  0  0  0  0
   45.8120   34.9050   43.3840 C   0  0  0  0  0  0  0  0  0  0  0  0
   46.8810   34.0140   43.5300 C   0  0  0  0  0  0  0  0  0  0  0  0
   46.9610   33.3430   44.6990 N   0  0  0  0  0  0  0  0  0  0  0  0
   46.0930   33.4800   45.7090 C   0  0  0  0  0  0  0  0  0  0  0  0
   45.0580   34.3400   45.5770 N   0  0  0  0  0  0  0  0  0  0  0  0
   43.8320   35.9320   44.2930 N   0  0  0  0  0  0  0  0  0  0  0  0
   47.9910   31.9358   46.5392 H   0  0  0  0  0  0  0  0  0  0  0  0
   48.1114   33.3573   48.6036 H   0  0  0  0  0  0  0  0  0  0  0  0
   47.0670   32.1499   49.4515 H   0  0  0  0  0  0  0  0  0  0  0  0
   49.8446   31.7147   48.3097 H   0  0  0  0  0  0  0  0  0  0  0  0
   49.3524   31.7328   50.0416 H   0  0  0  0  0  0  0  0  0  0  0  0
   49.6306   29.4596   49.1416 H   0  0  0  0  0  0  0  0  0  0  0  0
   47.9382   29.8242   49.6957 H   0  0  0  0  0  0  0  0  0  0  0  0
   48.8776   29.9284   46.8099 H   0  0  0  0  0  0  0  0  0  0  0  0
   48.0314   28.5492   47.5392 H   0  0  0  0  0  0  0  0  0  0  0  0
   46.1481   30.2584   48.2782 H   0  0  0  0  0  0  0  0  0  0  0  0
   44.6548   29.6248   47.9941 H   0  0  0  0  0  0  0  0  0  0  0  0
   43.9705   30.0253   46.3617 H   0  0  0  0  0  0  0  0  0  0  0  0
   44.0427   27.8451   45.6323 H   0  0  0  0  0  0  0  0  0  0  0  0
   43.7950   27.5683   47.4021 H   0  0  0  0  0  0  0  0  0  0  0  0
   46.2195   27.3256   47.6861 H   0  0  0  0  0  0  0  0  0  0  0  0
   45.5362   26.1140   46.5447 H   0  0  0  0  0  0  0  0  0  0  0  0
   47.7480   27.4703   45.9300 H   0  0  0  0  0  0  0  0  0  0  0  0
   46.4934   27.1195   44.6802 H   0  0  0  0  0  0  0  0  0  0  0  0
   47.5217   29.5674   45.1171 H   0  0  0  0  0  0  0  0  0  0  0  0
   45.8114   29.2378   44.5428 H   0  0  0  0  0  0  0  0  0  0  0  0
   45.6839   35.4844   42.4578 H   0  0  0  0  0  0  0  0  0  0  0  0
   47.6215   33.8671   42.7299 H   0  0  0  0  0  0  0  0  0  0  0  0
   43.7255   36.4672   43.4194 H   0  0  0  0  0  0  0  0  0  0  0  0
   43.1493   36.0492   45.0553 H   0  0  0  0  0  0  0  0  0  0  0  0
  1  6  1  0
  1  2  1  0
  2  3  1  0
  4  3  1  0
  5  4  1  0
  6  5  1  0
  7  8  1  0
  7  6  1  0
  9 10  1  0
  9  8  1  0
 11 10  1  0
 12 11  1  0
 12  7  1  0
 13  1  1  0
 13 14  2  0
 15 20  2  0
 16 17  2  0
 16 15  1  0
 17 18  1  0
 18 19  2  0
 19 13  1  0
 20 19  1  0
 21 15  1  0
  1 22  1  6
  2 23  1  0
  2 24  1  0
  3 25  1  0
  3 26  1  0
  4 27  1  0
  4 28  1  0
  5 29  1  0
  5 30  1  0
  6 31  1  1
  8 32  1  0
  8 33  1  0
  9 34  1  0
  9 35  1  0
 10 36  1  0
 10 37  1  0
 11 38  1  0
 11 39  1  0
 12 40  1  0
 12 41  1  0
 16 42  1  0
 17 43  1  0
 21 44  1  0
 21 45  1  0
M  ISO  8  22  13  23  13  24  13  25  13  26  13  27  13  28  13  29  13
M  ISO  8  30  13  31  13  32  13  33  13  34  13  35  13  36  13  37  13
M  ISO  6  38  13  39  13  40  13  41  13  42  14  43  14
M  END
>  <minimizedAffinity>  (1) 
-5.62329912

>  <minimizedRMSD>  (1) 
1.21207476

$$$$
