
     RDKit          3D

 37 39  0  0  1  0  0  0  0  0999 V2000
   47.2800   31.8360   47.2990 C   0  0  1  0  0  0  0  0  0  0  0  0
   47.8220   32.3470   48.6460 C   0  0  0  0  0  0  0  0  0  0  0  0
   49.0180   31.5490   49.0390 C   0  0  0  0  0  0  0  0  0  0  0  0
   48.7030   30.1030   49.0250 C   0  0  0  0  0  0  0  0  0  0  0  0
   48.1370   29.6390   47.7020 C   0  0  0  0  0  0  0  0  0  0  0  0
   46.8000   30.3950   47.5180 C   0  0  2  0  0  0  0  0  0  0  0  0
   45.9620   29.7960   46.4840 C   0  0  0  0  0  0  0  0  0  0  0  0
   45.7080   28.3500   46.2960 C   0  0  0  0  0  0  0  0  0  0  0  0
   44.6200   29.2530   46.7970 C   0  0  0  0  0  0  0  0  0  0  0  0
   46.1440   32.7230   46.9320 C   0  0  0  0  0  0  0  0  0  0  0  0
   45.2440   32.7450   47.8200 O   0  0  0  0  0  0  0  0  0  0  0  0
   44.9210   35.0360   44.4200 C   0  0  0  0  0  0  0  0  0  0  0  0
   45.8380   34.9080   43.3760 C   0  0  0  0  0  0  0  0  0  0  0  0
   46.9040   34.0170   43.5400 C   0  0  0  0  0  0  0  0  0  0  0  0
   46.9400   33.3610   44.7130 N   0  0  0  0  0  0  0  0  0  0  0  0
   46.0800   33.4730   45.7020 C   0  0  0  0  0  0  0  0  0  0  0  0
   45.0460   34.3270   45.5640 N   0  0  0  0  0  0  0  0  0  0  0  0
   43.8290   35.9400   44.2790 N   0  0  0  0  0  0  0  0  0  0  0  0
   48.0332   31.8471   46.4974 H   0  0  0  0  0  0  0  0  0  0  0  0
   48.1041   33.4058   48.5491 H   0  0  0  0  0  0  0  0  0  0  0  0
   47.0438   32.2422   49.4163 H   0  0  0  0  0  0  0  0  0  0  0  0
   49.8352   31.7484   48.3303 H   0  0  0  0  0  0  0  0  0  0  0  0
   49.3200   31.8378   50.0566 H   0  0  0  0  0  0  0  0  0  0  0  0
   49.6259   29.5403   49.2290 H   0  0  0  0  0  0  0  0  0  0  0  0
   47.9370   29.9236   49.7939 H   0  0  0  0  0  0  0  0  0  0  0  0
   48.8298   29.8840   46.8835 H   0  0  0  0  0  0  0  0  0  0  0  0
   47.9873   28.5493   47.6892 H   0  0  0  0  0  0  0  0  0  0  0  0
   46.1014   30.3487   48.3664 H   0  0  0  0  0  0  0  0  0  0  0  0
   46.3803   30.5713   45.8253 H   0  0  0  0  0  0  0  0  0  0  0  0
   45.6505   27.9278   45.2819 H   0  0  0  0  0  0  0  0  0  0  0  0
   46.1784   27.4223   46.6538 H   0  0  0  0  0  0  0  0  0  0  0  0
   44.2834   29.1835   47.8419 H   0  0  0  0  0  0  0  0  0  0  0  0
   43.5915   29.4847   46.4830 H   0  0  0  0  0  0  0  0  0  0  0  0
   45.7258   35.4913   42.4501 H   0  0  0  0  0  0  0  0  0  0  0  0
   47.6637   33.8631   42.7596 H   0  0  0  0  0  0  0  0  0  0  0  0
   43.7215   36.4866   43.4127 H   0  0  0  0  0  0  0  0  0  0  0  0
   43.1470   36.0470   45.0434 H   0  0  0  0  0  0  0  0  0  0  0  0
  1  6  1  0
  1  2  1  0
  2  3  1  0
  4  3  1  0
  5  4  1  0
  6  5  1  0
  7  9  1  0
  7  6  1  0
  8  7  1  0
  8  9  1  0
 10  1  1  0
 10 11  2  0
 12 17  2  0
 13 14  2  0
 13 12  1  0
 14 15  1  0
 15 16  2  0
 16 10  1  0
 17 16  1  0
 18 12  1  0
  1 19  1  6
  2 20  1  0
  2 21  1  0
  3 22  1  0
  3 23  1  0
  4 24  1  0
  4 25  1  0
  5 26  1  0
  5 27  1  0
  6 28  1  1
  7 29  1  0
  8 30  1  0
  8 31  1  0
  9 32  1  0
  9 33  1  0
 13 34  1  0
 14 35  1  0
 18 36  1  0
 18 37  1  0
M  ISO  8  19  13  20  13  21  13  22  13  23  13  24  13  25  13  26  13
M  ISO  8  27  13  28  13  29  13  30  13  31  13  32  13  33  13  34  14
M  ISO  1  35  14
M  END
>  <minimizedAffinity>  (1) 
-5.35360193

>  <minimizedRMSD>  (1) 
1.20789945

$$$$
