
     RDKit          3D

 31 32  0  0  1  0  0  0  0  0999 V2000
   47.3090   31.9790   47.1460 C   0  0  1  0  0  0  0  0  0  0  0  0
   47.4860   32.0160   48.6410 C   0  0  0  0  0  0  0  0  0  0  0  0
   48.7100   31.2370   49.0270 C   0  0  0  0  0  0  0  0  0  0  0  0
   48.6320   29.8460   48.4810 C   0  0  0  0  0  0  0  0  0  0  0  0
   48.4080   29.8150   46.9930 C   0  0  0  0  0  0  0  0  0  0  0  0
   47.0540   30.4970   46.7270 C   0  0  1  0  0  0  0  0  0  0  0  0
   46.1480   32.8230   46.7660 C   0  0  0  0  0  0  0  0  0  0  0  0
   45.2670   32.7840   47.6670 O   0  0  0  0  0  0  0  0  0  0  0  0
   44.8320   35.1310   44.3170 C   0  0  0  0  0  0  0  0  0  0  0  0
   45.7410   35.0630   43.2710 C   0  0  0  0  0  0  0  0  0  0  0  0
   46.8440   34.2070   43.3980 C   0  0  0  0  0  0  0  0  0  0  0  0
   46.9400   33.5040   44.5420 N   0  0  0  0  0  0  0  0  0  0  0  0
   46.0640   33.5750   45.5410 C   0  0  0  0  0  0  0  0  0  0  0  0
   44.9930   34.4000   45.4290 N   0  0  0  0  0  0  0  0  0  0  0  0
   43.7240   35.9910   44.1800 N   0  0  0  0  0  0  0  0  0  0  0  0
   46.1030   30.0460   47.6410 O   0  0  0  0  0  0  0  0  0  0  0  0
   48.2055   32.3650   46.6387 H   0  0  0  0  0  0  0  0  0  0  0  0
   47.5985   33.0597   48.9698 H   0  0  0  0  0  0  0  0  0  0  0  0
   46.6038   31.5690   49.1226 H   0  0  0  0  0  0  0  0  0  0  0  0
   49.6017   31.7370   48.6210 H   0  0  0  0  0  0  0  0  0  0  0  0
   48.7728   31.1885   50.1241 H   0  0  0  0  0  0  0  0  0  0  0  0
   49.5756   29.3270   48.7052 H   0  0  0  0  0  0  0  0  0  0  0  0
   47.7716   29.3517   48.9557 H   0  0  0  0  0  0  0  0  0  0  0  0
   49.2130   30.3601   46.4784 H   0  0  0  0  0  0  0  0  0  0  0  0
   48.4069   28.7810   46.6178 H   0  0  0  0  0  0  0  0  0  0  0  0
   46.7145   30.3251   45.6949 H   0  0  0  0  0  0  0  0  0  0  0  0
   45.5994   35.6670   42.3626 H   0  0  0  0  0  0  0  0  0  0  0  0
   47.5957   34.1142   42.6003 H   0  0  0  0  0  0  0  0  0  0  0  0
   43.6082   36.5490   43.3221 H   0  0  0  0  0  0  0  0  0  0  0  0
   43.0300   36.0615   44.9378 H   0  0  0  0  0  0  0  0  0  0  0  0
   46.4308   30.2015   48.5621 H   0  0  0  0  0  0  0  0  0  0  0  0
  1  2  1  0
  2  3  1  0
  4  3  1  0
  5  4  1  0
  6  5  1  0
  6  1  1  0
  6 16  1  0
  7  1  1  0
  7  8  2  0
  9 14  2  0
 10 11  2  0
 10  9  1  0
 11 12  1  0
 12 13  2  0
 13  7  1  0
 14 13  1  0
 15  9  1  0
  1 17  1  6
  2 18  1  0
  2 19  1  0
  3 20  1  0
  3 21  1  0
  4 22  1  0
  4 23  1  0
  5 24  1  0
  5 25  1  0
  6 26  1  6
 10 27  1  0
 11 28  1  0
 15 29  1  0
 15 30  1  0
 16 31  1  0
M  ISO  8  17  13  18  13  19  13  20  13  21  13  22  13  23  13  24  13
M  ISO  5  25  13  26  13  27  14  28  14  31   3
M  END
>  <minimizedAffinity>  (1) 
-5.22519159

>  <minimizedRMSD>  (1) 
0.0994620994

$$$$
