
     RDKit          3D

 31 32  0  0  1  0  0  0  0  0999 V2000
   47.2610   31.8900   47.1690 C   0  0  1  0  0  0  0  0  0  0  0  0
   47.7520   32.2820   48.5370 C   0  0  0  0  0  0  0  0  0  0  0  0
   48.9470   31.4600   48.9120 C   0  0  0  0  0  0  0  0  0  0  0  0
   48.6490   30.0020   48.7740 C   0  0  0  0  0  0  0  0  0  0  0  0
   48.1090   29.6260   47.4260 C   0  0  0  0  0  0  0  0  0  0  0  0
   46.7980   30.4010   47.2250 C   0  0  2  0  0  0  0  0  0  0  0  0
   46.1250   32.7660   46.7830 C   0  0  0  0  0  0  0  0  0  0  0  0
   45.2340   32.7400   47.6740 O   0  0  0  0  0  0  0  0  0  0  0  0
   44.8610   35.1040   44.3410 C   0  0  0  0  0  0  0  0  0  0  0  0
   45.8020   35.0410   43.2990 C   0  0  0  0  0  0  0  0  0  0  0  0
   46.9000   34.1770   43.4400 C   0  0  0  0  0  0  0  0  0  0  0  0
   46.9630   33.4670   44.5830 N   0  0  0  0  0  0  0  0  0  0  0  0
   46.0640   33.5340   45.5690 C   0  0  0  0  0  0  0  0  0  0  0  0
   45.0130   34.3600   45.4340 N   0  0  0  0  0  0  0  0  0  0  0  0
   43.7550   35.9740   44.2000 N   0  0  0  0  0  0  0  0  0  0  0  0
   46.0660   29.9440   45.6510 S   0  0  0  0  0  0  0  0  0  0  0  0
   48.0617   32.0035   46.4233 H   0  0  0  0  0  0  0  0  0  0  0  0
   48.0299   33.3463   48.5323 H   0  0  0  0  0  0  0  0  0  0  0  0
   46.9509   32.1067   49.2701 H   0  0  0  0  0  0  0  0  0  0  0  0
   49.7868   31.7211   48.2513 H   0  0  0  0  0  0  0  0  0  0  0  0
   49.2066   31.6705   49.9600 H   0  0  0  0  0  0  0  0  0  0  0  0
   49.5782   29.4390   48.9461 H   0  0  0  0  0  0  0  0  0  0  0  0
   47.8710   29.7597   49.5130 H   0  0  0  0  0  0  0  0  0  0  0  0
   48.8310   29.8985   46.6422 H   0  0  0  0  0  0  0  0  0  0  0  0
   47.9328   28.5418   47.3663 H   0  0  0  0  0  0  0  0  0  0  0  0
   46.0527   30.2051   48.0100 H   0  0  0  0  0  0  0  0  0  0  0  0
   45.6812   35.6543   42.3939 H   0  0  0  0  0  0  0  0  0  0  0  0
   47.6683   34.0848   42.6582 H   0  0  0  0  0  0  0  0  0  0  0  0
   43.6526   36.5428   43.3474 H   0  0  0  0  0  0  0  0  0  0  0  0
   43.0519   36.0388   44.9499 H   0  0  0  0  0  0  0  0  0  0  0  0
   44.9190   29.2279   45.8715 H   0  0  0  0  0  0  0  0  0  0  0  0
  1  6  1  0
  1  2  1  0
  2  3  1  0
  4  3  1  0
  5  4  1  0
  6  5  1  0
  7  1  1  0
  7  8  2  0
  9 14  2  0
 10 11  2  0
 10  9  1  0
 11 12  1  0
 12 13  2  0
 13  7  1  0
 14 13  1  0
 15  9  1  0
 16  6  1  0
  1 17  1  6
  2 18  1  0
  2 19  1  0
  3 20  1  0
  3 21  1  0
  4 22  1  0
  4 23  1  0
  5 24  1  0
  5 25  1  0
  6 26  1  1
 10 27  1  0
 11 28  1  0
 15 29  1  0
 15 30  1  0
 16 31  1  0
M  ISO  8  17  13  18  13  19  13  20  13  21  13  22  13  23  13  24  13
M  ISO  5  25  13  26  13  27  14  28  14  31  11
M  END
>  <minimizedAffinity>  (1) 
-5.13410473

>  <minimizedRMSD>  (1) 
0.45531407

$$$$
