
     RDKit          3D

 32 33  0  0  1  0  0  0  0  0999 V2000
   47.2170   31.8730   47.3110 C   0  0  1  0  0  0  0  0  0  0  0  0
   47.8300   32.3780   48.5940 C   0  0  0  0  0  0  0  0  0  0  0  0
   49.0200   31.5310   48.9490 C   0  0  0  0  0  0  0  0  0  0  0  0
   48.6120   30.0870   49.0280 C   0  0  0  0  0  0  0  0  0  0  0  0
   47.9580   29.6000   47.7590 C   0  0  0  0  0  0  0  0  0  0  0  0
   46.6880   30.4320   47.5700 C   0  0  2  0  0  0  0  0  0  0  0  0
   45.8240   29.9590   46.4920 C   0  0  0  0  0  0  0  0  0  0  0  0
   44.7200   29.5230   46.7290 O   0  0  0  0  0  0  0  0  0  0  0  0
   46.1050   32.7740   46.9130 C   0  0  0  0  0  0  0  0  0  0  0  0
   45.2250   32.8080   47.8140 O   0  0  0  0  0  0  0  0  0  0  0  0
   44.8940   35.0610   44.3890 C   0  0  0  0  0  0  0  0  0  0  0  0
   45.8260   34.9330   43.3500 C   0  0  0  0  0  0  0  0  0  0  0  0
   46.8870   34.0530   43.5210 C   0  0  0  0  0  0  0  0  0  0  0  0
   46.9450   33.3780   44.6850 N   0  0  0  0  0  0  0  0  0  0  0  0
   46.0540   33.5020   45.6750 C   0  0  0  0  0  0  0  0  0  0  0  0
   45.0250   34.3500   45.5190 N   0  0  0  0  0  0  0  0  0  0  0  0
   43.8060   35.9580   44.2410 N   0  0  0  0  0  0  0  0  0  0  0  0
   47.9577   31.8561   46.4980 H   0  0  0  0  0  0  0  0  0  0  0  0
   48.1497   33.4221   48.4613 H   0  0  0  0  0  0  0  0  0  0  0  0
   47.0861   32.3218   49.4024 H   0  0  0  0  0  0  0  0  0  0  0  0
   49.7956   31.6496   48.1781 H   0  0  0  0  0  0  0  0  0  0  0  0
   49.4150   31.8506   49.9246 H   0  0  0  0  0  0  0  0  0  0  0  0
   49.5075   29.4776   49.2194 H   0  0  0  0  0  0  0  0  0  0  0  0
   47.8763   29.9921   49.8402 H   0  0  0  0  0  0  0  0  0  0  0  0
   48.6356   29.7435   46.9044 H   0  0  0  0  0  0  0  0  0  0  0  0
   47.7219   28.5275   47.8226 H   0  0  0  0  0  0  0  0  0  0  0  0
   46.0347   30.3665   48.4525 H   0  0  0  0  0  0  0  0  0  0  0  0
   46.1807   29.9994   45.4522 H   0  0  0  0  0  0  0  0  0  0  0  0
   45.7199   35.5148   42.4225 H   0  0  0  0  0  0  0  0  0  0  0  0
   47.6477   33.9133   42.7388 H   0  0  0  0  0  0  0  0  0  0  0  0
   43.7036   36.5048   43.3742 H   0  0  0  0  0  0  0  0  0  0  0  0
   43.1180   36.0628   45.0003 H   0  0  0  0  0  0  0  0  0  0  0  0
  1  6  1  0
  1  2  1  0
  2  3  1  0
  3  4  1  0
  5  4  1  0
  6  5  1  0
  7  8  2  0
  7  6  1  0
  9  1  1  0
  9 10  2  0
 11 16  2  0
 12 13  2  0
 12 11  1  0
 13 14  1  0
 14 15  2  0
 15  9  1  0
 16 15  1  0
 17 11  1  0
  1 18  1  6
  2 19  1  0
  2 20  1  0
  3 21  1  0
  3 22  1  0
  4 23  1  0
  4 24  1  0
  5 25  1  0
  5 26  1  0
  6 27  1  1
  7 28  1  0
 12 29  1  0
 13 30  1  0
 17 31  1  0
 17 32  1  0
M  ISO  8  18  13  19  13  20  13  21  13  22  13  23  13  24  13  25  13
M  ISO  5  26  13  27  13  28   6  29  14  30  14
M  END
>  <minimizedAffinity>  (1) 
-5.11489725

>  <minimizedRMSD>  (1) 
0.87751919

$$$$
