
     RDKit          3D

 26 27  0  0  0  0  0  0  0  0999 V2000
   47.1990   34.9370   41.9530 C   0  0  0  0  0  0  0  0  0  0  0  0
   48.2990   35.5190   41.7860 O   0  0  0  0  0  0  0  0  0  0  0  0
   47.0060   34.3100   40.6870 N   0  0  0  0  0  0  0  0  0  0  0  0
   48.1420   34.2230   39.8190 C   0  0  0  0  0  0  0  0  0  0  0  0
   47.7750   34.1520   38.3590 C   0  0  0  0  0  0  0  0  0  0  0  0
   46.6200   33.3740   38.0770 N   0  0  0  0  0  0  0  0  0  0  0  0
   46.1070   32.6870   39.2290 C   0  0  0  0  0  0  0  0  0  0  0  0
   45.7380   33.7620   40.2330 C   0  0  0  0  0  0  0  0  0  0  0  0
   46.3680   34.9190   43.1160 C   0  0  0  0  0  0  0  0  0  0  0  0
   45.4720   35.9900   43.1710 C   0  0  0  0  0  0  0  0  0  0  0  0
   44.6190   36.0400   44.2920 C   0  0  0  0  0  0  0  0  0  0  0  0
   44.7210   35.0630   45.2290 N   0  0  0  0  0  0  0  0  0  0  0  0
   45.6160   34.0490   45.1140 C   0  0  0  0  0  0  0  0  0  0  0  0
   46.4360   33.9820   44.0580 N   0  0  0  0  0  0  0  0  0  0  0  0
   48.7710   35.1113   39.9777 H   0  0  0  0  0  0  0  0  0  0  0  0
   48.6699   33.2904   40.0671 H   0  0  0  0  0  0  0  0  0  0  0  0
   47.5949   35.1761   38.0002 H   0  0  0  0  0  0  0  0  0  0  0  0
   48.6157   33.6582   37.8497 H   0  0  0  0  0  0  0  0  0  0  0  0
   45.8855   33.9979   37.7136 H   0  0  0  0  0  0  0  0  0  0  0  0
   45.2187   32.0978   38.9574 H   0  0  0  0  0  0  0  0  0  0  0  0
   46.8497   31.9893   39.6434 H   0  0  0  0  0  0  0  0  0  0  0  0
   45.1288   34.5435   39.7552 H   0  0  0  0  0  0  0  0  0  0  0  0
   45.1418   33.3602   41.0655 H   0  0  0  0  0  0  0  0  0  0  0  0
   45.4344   36.7542   42.3807 H   0  0  0  0  0  0  0  0  0  0  0  0
   43.8866   36.8529   44.4051 H   0  0  0  0  0  0  0  0  0  0  0  0
   45.6679   33.2760   45.8949 H   0  0  0  0  0  0  0  0  0  0  0  0
  1  9  1  0
  2  1  2  0
  3  1  1  0
  4  3  1  0
  5  4  1  0
  6  5  1  0
  6  7  1  0
  7  8  1  0
  8  3  1  0
  9 10  2  0
  9 14  1  0
 10 11  1  0
 11 12  2  0
 13 12  1  0
 14 13  2  0
  4 15  1  0
  4 16  1  0
  5 17  1  0
  5 18  1  0
  6 19  1  0
  7 20  1  0
  7 21  1  0
  8 22  1  0
  8 23  1  0
 10 24  1  0
 11 25  1  0
 13 26  1  0
M  ISO  8  15  13  16  13  17  13  18  13  19   5  20  13  21  13  22  13
M  ISO  4  23  13  24  14  25  14  26  14
M  END
>  <minimizedAffinity>  (1) 
-4.50494099

>  <minimizedRMSD>  (1) 
0.361010045

$$$$
