
     RDKit          3D

 28 29  0  0  0  0  0  0  0  0999 V2000
   46.4490   34.9300   43.0880 C   0  0  0  0  0  0  0  0  0  0  0  0
   45.5320   36.0010   43.1680 C   0  0  0  0  0  0  0  0  0  0  0  0
   44.6710   35.9990   44.2590 C   0  0  0  0  0  0  0  0  0  0  0  0
   44.7450   35.0000   45.1740 N   0  0  0  0  0  0  0  0  0  0  0  0
   45.6450   33.9930   45.0510 C   0  0  0  0  0  0  0  0  0  0  0  0
   46.4810   33.9660   44.0200 N   0  0  0  0  0  0  0  0  0  0  0  0
   47.3370   34.9310   41.9650 C   0  0  0  0  0  0  0  0  0  0  0  0
   48.2920   35.7360   41.7760 O   0  0  0  0  0  0  0  0  0  0  0  0
   47.1380   33.9010   40.9100 C   0  0  0  0  0  0  0  0  0  0  0  0
   48.2270   33.8880   39.8740 C   0  0  0  0  0  0  0  0  0  0  0  0
   47.7060   33.9310   38.4630 C   0  0  0  0  0  0  0  0  0  0  0  0
   46.5170   33.0850   38.1840 C   0  0  0  0  0  0  0  0  0  0  0  0
   45.7090   32.7190   39.3830 C   0  0  0  0  0  0  0  0  0  0  0  0
   45.7490   33.9200   40.3300 C   0  0  0  0  0  0  0  0  0  0  0  0
   45.5008   36.7948   42.4071 H   0  0  0  0  0  0  0  0  0  0  0  0
   43.9320   36.8047   44.3802 H   0  0  0  0  0  0  0  0  0  0  0  0
   45.6825   33.1958   45.8081 H   0  0  0  0  0  0  0  0  0  0  0  0
   47.2279   32.9302   41.4195 H   0  0  0  0  0  0  0  0  0  0  0  0
   48.8725   34.7641   40.0348 H   0  0  0  0  0  0  0  0  0  0  0  0
   48.7762   32.9420   39.9901 H   0  0  0  0  0  0  0  0  0  0  0  0
   47.4392   34.9733   38.2339 H   0  0  0  0  0  0  0  0  0  0  0  0
   48.5133   33.5259   37.8352 H   0  0  0  0  0  0  0  0  0  0  0  0
   45.8650   33.6318   37.4870 H   0  0  0  0  0  0  0  0  0  0  0  0
   46.9015   32.1403   37.7721 H   0  0  0  0  0  0  0  0  0  0  0  0
   44.6712   32.5041   39.0884 H   0  0  0  0  0  0  0  0  0  0  0  0
   46.1135   31.8197   39.8706 H   0  0  0  0  0  0  0  0  0  0  0  0
   45.5713   34.8551   39.7787 H   0  0  0  0  0  0  0  0  0  0  0  0
   44.9721   33.8645   41.1067 H   0  0  0  0  0  0  0  0  0  0  0  0
  1  2  2  0
  1  6  1  0
  2  3  1  0
  3  4  2  0
  5  4  1  0
  6  5  2  0
  7  1  1  0
  8  7  2  0
  9  7  1  0
 10  9  1  0
 11 10  1  0
 12 11  1  0
 12 13  1  0
 13 14  1  0
 14  9  1  0
  2 15  1  0
  3 16  1  0
  5 17  1  0
  9 18  1  0
 10 19  1  0
 10 20  1  0
 11 21  1  0
 11 22  1  0
 12 23  1  0
 12 24  1  0
 13 25  1  0
 13 26  1  0
 14 27  1  0
 14 28  1  0
M  ISO  8  15  14  16  14  17  14  18  13  19  13  20  13  21  13  22  13
M  ISO  6  23  13  24  13  25  13  26  13  27  13  28  13
M  END
>  <minimizedAffinity>  (1) 
-4.22249079

>  <minimizedRMSD>  (1) 
0.802997172

$$$$
