
     RDKit          3D

 19 20  0  0  0  0  0  0  0  0999 V2000
   47.0340   34.9300   41.9880 C   0  0  0  0  0  0  0  0  0  0  0  0
   48.1630   35.4460   41.7890 O   0  0  0  0  0  0  0  0  0  0  0  0
   46.2560   34.9230   43.1860 C   0  0  0  0  0  0  0  0  0  0  0  0
   45.3660   35.9850   43.3180 C   0  0  0  0  0  0  0  0  0  0  0  0
   44.5940   35.9840   44.4990 C   0  0  0  0  0  0  0  0  0  0  0  0
   44.7600   34.9790   45.4070 N   0  0  0  0  0  0  0  0  0  0  0  0
   45.6500   33.9760   45.2050 C   0  0  0  0  0  0  0  0  0  0  0  0
   46.3990   33.9550   44.0870 N   0  0  0  0  0  0  0  0  0  0  0  0
   46.4920   34.2620   40.7970 C   0  0  0  0  0  0  0  0  0  0  0  0
   47.1940   33.6970   39.7290 C   0  0  0  0  0  0  0  0  0  0  0  0
   46.3090   33.1700   38.8140 C   0  0  0  0  0  0  0  0  0  0  0  0
   45.1030   33.4140   39.3240 N   0  0  0  0  0  0  0  0  0  0  0  0
   45.1830   34.0510   40.4800 N   0  0  0  0  0  0  0  0  0  0  0  0
   45.2711   36.7709   42.5542 H   0  0  0  0  0  0  0  0  0  0  0  0
   43.8649   36.7861   44.6861 H   0  0  0  0  0  0  0  0  0  0  0  0
   45.7598   33.1791   45.9553 H   0  0  0  0  0  0  0  0  0  0  0  0
   48.2896   33.6761   39.6331 H   0  0  0  0  0  0  0  0  0  0  0  0
   46.5464   32.6594   37.8690 H   0  0  0  0  0  0  0  0  0  0  0  0
   44.2179   33.1404   38.8738 H   0  0  0  0  0  0  0  0  0  0  0  0
  1  3  1  0
  2  1  2  0
  3  4  2  0
  3  8  1  0
  4  5  1  0
  5  6  2  0
  7  6  1  0
  8  7  2  0
  9  1  1  0
 10  9  1  0
 11 12  1  0
 11 10  2  0
 12 13  1  0
 13  9  2  0
  4 14  1  0
  5 15  1  0
  7 16  1  0
 10 17  1  0
 11 18  1  0
 12 19  1  0
M  ISO  6  14  14  15  14  16  14  17  14  18  14  19   9
M  END
>  <minimizedAffinity>  (1) 
-4.15329838

>  <minimizedRMSD>  (1) 
0.42741546

$$$$
