
     RDKit          3D

 18 18  0  0  0  0  0  0  0  0999 V2000
   46.4900   34.8810   43.0620 C   0  0  0  0  0  0  0  0  0  0  0  0
   45.4900   35.8470   43.1220 C   0  0  0  0  0  0  0  0  0  0  0  0
   44.6240   35.8280   44.2320 C   0  0  0  0  0  0  0  0  0  0  0  0
   44.8260   34.8550   45.1800 N   0  0  0  0  0  0  0  0  0  0  0  0
   45.8190   33.9410   45.0660 C   0  0  0  0  0  0  0  0  0  0  0  0
   46.6490   33.9570   44.0050 N   0  0  0  0  0  0  0  0  0  0  0  0
   47.3160   34.9740   41.9060 C   0  0  0  0  0  0  0  0  0  0  0  0
   48.3570   35.6550   41.7560 O   0  0  0  0  0  0  0  0  0  0  0  0
   46.9190   34.2080   40.7930 O   0  0  0  0  0  0  0  0  0  0  0  0
   47.4340   32.5820   38.8370 O   0  0  0  0  0  0  0  0  0  0  0  0
   48.1210   33.6030   39.7060 P   0  0  0  0  0  0  0  0  0  0  0  0
   48.5940   34.8810   38.7250 O   0  0  0  0  0  0  0  0  0  0  0  0
   49.4470   33.0070   40.5190 O   0  0  0  0  0  0  0  0  0  0  0  0
   45.3798   36.6006   42.3283 H   0  0  0  0  0  0  0  0  0  0  0  0
   43.8148   36.5658   44.3362 H   0  0  0  0  0  0  0  0  0  0  0  0
   45.9491   33.1780   45.8476 H   0  0  0  0  0  0  0  0  0  0  0  0
   48.8762   35.6436   39.2897 H   0  0  0  0  0  0  0  0  0  0  0  0
   49.2942   33.0757   41.4947 H   0  0  0  0  0  0  0  0  0  0  0  0
  1  2  2  0
  1  6  1  0
  2  3  1  0
  3  4  2  0
  5  4  1  0
  6  5  2  0
  7  1  1  0
  8  7  2  0
  9  7  1  0
 10 11  2  0
 11 13  1  0
 11  9  1  0
 12 11  1  0
  2 14  1  0
  3 15  1  0
  5 16  1  0
 12 17  1  0
 13 18  1  0
M  ISO  5  14  14  15  14  16  14  17   3  18   3
M  END
>  <minimizedAffinity>  (1) 
-4.12932158

>  <minimizedRMSD>  (1) 
0.729662061

$$$$
