
     RDKit          3D

 24 25  0  0  0  0  0  0  0  0999 V2000
   46.2060   34.8880   43.1940 C   0  0  0  0  0  0  0  0  0  0  0  0
   45.3370   35.9750   43.3540 C   0  0  0  0  0  0  0  0  0  0  0  0
   44.5760   36.0410   44.5380 C   0  0  0  0  0  0  0  0  0  0  0  0
   44.7410   35.0350   45.4530 N   0  0  0  0  0  0  0  0  0  0  0  0
   45.5970   34.0170   45.2360 C   0  0  0  0  0  0  0  0  0  0  0  0
   46.3210   33.9420   44.1240 N   0  0  0  0  0  0  0  0  0  0  0  0
   46.9240   34.9230   41.9620 C   0  0  0  0  0  0  0  0  0  0  0  0
   48.0420   35.4600   41.7510 O   0  0  0  0  0  0  0  0  0  0  0  0
   46.2020   34.2400   40.9130 N   0  0  0  0  0  0  0  0  0  0  0  0
   44.8310   33.9260   40.4860 C   0  0  0  0  0  0  0  0  0  0  0  0
   44.8830   32.3960   40.5230 C   0  0  0  0  0  0  0  0  0  0  0  0
   46.2250   32.1750   39.8220 C   0  0  0  0  0  0  0  0  0  0  0  0
   46.8700   33.5590   39.7930 C   0  0  0  0  0  0  0  0  0  0  0  0
   45.2515   36.7521   42.5802 H   0  0  0  0  0  0  0  0  0  0  0  0
   43.8756   36.8693   44.7207 H   0  0  0  0  0  0  0  0  0  0  0  0
   45.6989   33.2295   45.9972 H   0  0  0  0  0  0  0  0  0  0  0  0
   44.6226   34.3027   39.4738 H   0  0  0  0  0  0  0  0  0  0  0  0
   44.0396   34.3771   41.1026 H   0  0  0  0  0  0  0  0  0  0  0  0
   44.8890   32.0099   41.5530 H   0  0  0  0  0  0  0  0  0  0  0  0
   44.0237   31.8859   40.0632 H   0  0  0  0  0  0  0  0  0  0  0  0
   46.8480   31.4669   40.3880 H   0  0  0  0  0  0  0  0  0  0  0  0
   46.1072   31.7458   38.8161 H   0  0  0  0  0  0  0  0  0  0  0  0
   47.9560   33.4958   39.9559 H   0  0  0  0  0  0  0  0  0  0  0  0
   46.7550   34.0784   38.8302 H   0  0  0  0  0  0  0  0  0  0  0  0
  1  2  2  0
  1  6  1  0
  2  3  1  0
  3  4  2  0
  5  4  1  0
  6  5  2  0
  7  1  1  0
  8  7  2  0
  9  7  1  0
 10 11  1  0
 10  9  1  0
 12 11  1  0
 13 12  1  0
 13  9  1  0
  2 14  1  0
  3 15  1  0
  5 16  1  0
 10 17  1  0
 10 18  1  0
 11 19  1  0
 11 20  1  0
 12 21  1  0
 12 22  1  0
 13 23  1  0
 13 24  1  0
M  ISO  8  14  14  15  14  16  14  17  13  18  13  19  13  20  13  21  13
M  ISO  3  22  13  23  13  24  13
M  END
>  <minimizedAffinity>  (1) 
-4.02978468

>  <minimizedRMSD>  (1) 
0.223840341

$$$$
