
     RDKit          3D

 36 39  0  0  0  0  0  0  0  0999 V2000
   47.5740   35.1000   42.0310 C   0  0  0  0  0  0  0  0  0  0  0  0
   48.6590   35.7410   42.0780 O   0  0  0  0  0  0  0  0  0  0  0  0
   46.2040   33.7100   40.4360 C   0  0  0  0  0  0  0  0  0  0  0  0
   47.3470   34.4680   40.7240 C   0  0  0  0  0  0  0  0  0  0  0  0
   48.2840   34.6220   39.7360 C   0  0  0  0  0  0  0  0  0  0  0  0
   48.1900   34.0860   38.4680 C   0  0  0  0  0  0  0  0  0  0  0  0
   48.9660   34.1090   37.3690 N   0  0  0  0  0  0  0  0  0  0  0  0
   48.3870   33.4130   36.3950 C   0  0  0  0  0  0  0  0  0  0  0  0
   47.1750   32.9110   36.8850 C   0  0  0  0  0  0  0  0  0  0  0  0
   47.0500   33.3370   38.1980 C   0  0  0  0  0  0  0  0  0  0  0  0
   46.0860   33.1580   39.1610 C   0  0  0  0  0  0  0  0  0  0  0  0
   46.6250   34.9630   43.0890 C   0  0  0  0  0  0  0  0  0  0  0  0
   45.5410   35.8520   43.0360 C   0  0  0  0  0  0  0  0  0  0  0  0
   44.5950   35.7290   44.0720 C   0  0  0  0  0  0  0  0  0  0  0  0
   44.7930   34.7690   45.0420 N   0  0  0  0  0  0  0  0  0  0  0  0
   45.8590   33.9550   45.0210 C   0  0  0  0  0  0  0  0  0  0  0  0
   46.7770   34.0570   44.0380 N   0  0  0  0  0  0  0  0  0  0  0  0
   44.4750   34.1220   47.3760 F   0  0  0  0  0  0  0  0  0  0  0  0
   45.3110   33.0600   47.2530 C   0  0  0  0  0  0  0  0  0  0  0  0
   46.0200   32.9560   46.0740 C   0  0  0  0  0  0  0  0  0  0  0  0
   46.8960   31.9060   45.8620 C   0  0  0  0  0  0  0  0  0  0  0  0
   47.0580   30.9490   46.8520 C   0  0  0  0  0  0  0  0  0  0  0  0
   46.3200   31.1050   48.0170 C   0  0  0  0  0  0  0  0  0  0  0  0
   45.4500   32.1280   48.2570 C   0  0  0  0  0  0  0  0  0  0  0  0
   45.4222   33.5549   41.1941 H   0  0  0  0  0  0  0  0  0  0  0  0
   49.1783   35.2177   39.9714 H   0  0  0  0  0  0  0  0  0  0  0  0
   49.8721   34.5929   37.2935 H   0  0  0  0  0  0  0  0  0  0  0  0
   48.7892   33.2588   35.3828 H   0  0  0  0  0  0  0  0  0  0  0  0
   46.4546   32.2923   36.3299 H   0  0  0  0  0  0  0  0  0  0  0  0
   45.1943   32.5612   38.9186 H   0  0  0  0  0  0  0  0  0  0  0  0
   45.4365   36.5987   42.2350 H   0  0  0  0  0  0  0  0  0  0  0  0
   43.7141   36.3868   44.1068 H   0  0  0  0  0  0  0  0  0  0  0  0
   47.4573   31.8315   44.9189 H   0  0  0  0  0  0  0  0  0  0  0  0
   47.7443   30.0997   46.7194 H   0  0  0  0  0  0  0  0  0  0  0  0
   46.4459   30.3479   48.8050 H   0  0  0  0  0  0  0  0  0  0  0  0
   44.8902   32.2042   49.2008 H   0  0  0  0  0  0  0  0  0  0  0  0
  1  2  2  0
  1 12  1  0
  3  4  2  0
  4  1  1  0
  5  4  1  0
  6  5  2  0
  7  6  1  0
  8  9  2  0
  8  7  1  0
  9 10  1  0
 10  6  1  0
 10 11  2  0
 11  3  1  0
 12 17  1  0
 13 12  2  0
 13 14  1  0
 14 15  2  0
 16 15  1  0
 16 20  1  0
 17 16  2  0
 19 18  1  0
 19 24  2  0
 20 19  1  0
 21 20  2  0
 21 22  1  0
 22 23  2  0
 23 24  1  0
  3 25  1  0
  5 26  1  0
  7 27  1  0
  8 28  1  0
  9 29  1  0
 11 30  1  0
 13 31  1  0
 14 32  1  0
 21 33  1  0
 22 34  1  0
 23 35  1  0
 24 36  1  0
M  ISO  8  25  14  26  14  27   9  28  14  29  14  30  14  31  14  32  14
M  ISO  4  33  14  34  14  35  14  36  14
M  END
>  <minimizedAffinity>  (1) 
-7.07792568

>  <minimizedRMSD>  (1) 
0.512067676

$$$$
