
     RDKit          3D

 33 35  0  0  0  0  0  0  0  0999 V2000
   46.3240   33.6870   40.1800 C   0  0  0  0  0  0  0  0  0  0  0  0
   47.4770   34.4260   40.4760 C   0  0  0  0  0  0  0  0  0  0  0  0
   48.4330   34.5430   39.5020 C   0  0  0  0  0  0  0  0  0  0  0  0
   48.3470   33.9850   38.2430 C   0  0  0  0  0  0  0  0  0  0  0  0
   49.1460   33.9740   37.1540 N   0  0  0  0  0  0  0  0  0  0  0  0
   48.5670   33.2710   36.1830 C   0  0  0  0  0  0  0  0  0  0  0  0
   47.3440   32.8080   36.6580 C   0  0  0  0  0  0  0  0  0  0  0  0
   47.1960   33.2540   37.9610 C   0  0  0  0  0  0  0  0  0  0  0  0
   46.2150   33.1140   38.9110 C   0  0  0  0  0  0  0  0  0  0  0  0
   47.6940   35.0760   41.7730 C   0  0  0  0  0  0  0  0  0  0  0  0
   48.6590   35.8960   41.7510 O   0  0  0  0  0  0  0  0  0  0  0  0
   46.8640   34.7690   42.8980 C   0  0  0  0  0  0  0  0  0  0  0  0
   45.7120   35.5580   43.0260 C   0  0  0  0  0  0  0  0  0  0  0  0
   44.9030   35.2450   44.1430 C   0  0  0  0  0  0  0  0  0  0  0  0
   45.2700   34.2470   44.9860 N   0  0  0  0  0  0  0  0  0  0  0  0
   46.3910   33.5380   44.7920 C   0  0  0  0  0  0  0  0  0  0  0  0
   47.1910   33.8040   43.7390 N   0  0  0  0  0  0  0  0  0  0  0  0
   46.7570   32.4740   45.7140 C   0  0  0  0  0  0  0  0  0  0  0  0
   46.8470   32.7020   47.0140 C   0  0  0  0  0  0  0  0  0  0  0  0
   47.2010   31.7350   48.0570 C   0  0  0  0  0  0  0  0  0  0  0  0
   45.5262   33.5615   40.9269 H   0  0  0  0  0  0  0  0  0  0  0  0
   49.3356   35.1245   39.7411 H   0  0  0  0  0  0  0  0  0  0  0  0
   50.0628   34.4384   37.0853 H   0  0  0  0  0  0  0  0  0  0  0  0
   48.9826   33.0883   35.1810 H   0  0  0  0  0  0  0  0  0  0  0  0
   46.6220   32.1958   36.0977 H   0  0  0  0  0  0  0  0  0  0  0  0
   45.3145   32.5321   38.6650 H   0  0  0  0  0  0  0  0  0  0  0  0
   45.4576   36.3571   42.3141 H   0  0  0  0  0  0  0  0  0  0  0  0
   43.9774   35.8098   44.3282 H   0  0  0  0  0  0  0  0  0  0  0  0
   46.9618   31.4657   45.3248 H   0  0  0  0  0  0  0  0  0  0  0  0
   46.6331   33.7279   47.3482 H   0  0  0  0  0  0  0  0  0  0  0  0
   47.0359   32.1861   49.0466 H   0  0  0  0  0  0  0  0  0  0  0  0
   46.5730   30.8378   47.9536 H   0  0  0  0  0  0  0  0  0  0  0  0
   48.2598   31.4553   47.9536 H   0  0  0  0  0  0  0  0  0  0  0  0
  1  2  2  0
  2 10  1  0
  3  2  1  0
  4  3  2  0
  5  4  1  0
  6  7  2  0
  6  5  1  0
  7  8  1  0
  8  4  1  0
  8  9  2  0
  9  1  1  0
 10 12  1  0
 11 10  2  0
 12 13  2  0
 12 17  1  0
 13 14  1  0
 14 15  2  0
 16 15  1  0
 16 18  1  0
 17 16  2  0
 18 19  2  0
 19 20  1  0
  1 21  1  0
  3 22  1  0
  5 23  1  0
  6 24  1  0
  7 25  1  0
  9 26  1  0
 13 27  1  0
 14 28  1  0
 18 29  1  0
 19 30  1  0
 20 31  1  0
 20 32  1  0
 20 33  1  0
M  ISO  8  21  14  22  14  23   9  24  14  25  14  26  14  27  14  28  14
M  ISO  3  31   8  32   8  33   8
M  END
>  <minimizedAffinity>  (1) 
-5.95127916

>  <minimizedRMSD>  (1) 
0.157602936

$$$$
