
     RDKit          3D

 32 34  0  0  0  0  0  0  0  0999 V2000
   46.3270   33.6900   40.1900 C   0  0  0  0  0  0  0  0  0  0  0  0
   47.4740   34.4310   40.4880 C   0  0  0  0  0  0  0  0  0  0  0  0
   48.4310   34.5510   39.5140 C   0  0  0  0  0  0  0  0  0  0  0  0
   48.3420   33.9850   38.2450 C   0  0  0  0  0  0  0  0  0  0  0  0
   49.1470   33.9830   37.1660 N   0  0  0  0  0  0  0  0  0  0  0  0
   48.5650   33.2730   36.1960 C   0  0  0  0  0  0  0  0  0  0  0  0
   47.3510   32.8090   36.6720 C   0  0  0  0  0  0  0  0  0  0  0  0
   47.1950   33.2550   37.9770 C   0  0  0  0  0  0  0  0  0  0  0  0
   46.2180   33.1140   38.9240 C   0  0  0  0  0  0  0  0  0  0  0  0
   47.6920   35.0860   41.7810 C   0  0  0  0  0  0  0  0  0  0  0  0
   48.6850   35.8710   41.7720 O   0  0  0  0  0  0  0  0  0  0  0  0
   46.8290   34.8150   42.8950 C   0  0  0  0  0  0  0  0  0  0  0  0
   45.6930   35.6290   42.9910 C   0  0  0  0  0  0  0  0  0  0  0  0
   44.8430   35.3620   44.0900 C   0  0  0  0  0  0  0  0  0  0  0  0
   45.1750   34.3660   44.9510 N   0  0  0  0  0  0  0  0  0  0  0  0
   46.2890   33.6200   44.7970 C   0  0  0  0  0  0  0  0  0  0  0  0
   47.1160   33.8550   43.7560 N   0  0  0  0  0  0  0  0  0  0  0  0
   46.5390   32.5580   45.8130 C   0  0  0  0  0  0  0  0  0  0  0  0
   45.7280   32.7740   47.0660 C   0  0  0  0  0  0  0  0  0  0  0  0
   45.5288   33.5639   40.9363 H   0  0  0  0  0  0  0  0  0  0  0  0
   49.3322   35.1353   39.7515 H   0  0  0  0  0  0  0  0  0  0  0  0
   50.0616   34.4520   37.0994 H   0  0  0  0  0  0  0  0  0  0  0  0
   48.9785   33.0890   35.1934 H   0  0  0  0  0  0  0  0  0  0  0  0
   46.6327   32.1923   36.1119 H   0  0  0  0  0  0  0  0  0  0  0  0
   45.3192   32.5287   38.6799 H   0  0  0  0  0  0  0  0  0  0  0  0
   45.4763   36.4226   42.2608 H   0  0  0  0  0  0  0  0  0  0  0  0
   43.9276   35.9520   44.2445 H   0  0  0  0  0  0  0  0  0  0  0  0
   46.2717   31.5825   45.3805 H   0  0  0  0  0  0  0  0  0  0  0  0
   47.6038   32.5930   46.0867 H   0  0  0  0  0  0  0  0  0  0  0  0
   46.3635   32.6048   47.9478 H   0  0  0  0  0  0  0  0  0  0  0  0
   45.3457   33.8053   47.0821 H   0  0  0  0  0  0  0  0  0  0  0  0
   44.8834   32.0695   47.0821 H   0  0  0  0  0  0  0  0  0  0  0  0
  1  2  2  0
  2 10  1  0
  3  2  1  0
  4  3  2  0
  5  4  1  0
  6  7  2  0
  6  5  1  0
  7  8  1  0
  8  4  1  0
  8  9  2  0
  9  1  1  0
 10 12  1  0
 11 10  2  0
 12 13  2  0
 12 17  1  0
 13 14  1  0
 14 15  2  0
 16 15  1  0
 16 18  1  0
 17 16  2  0
 18 19  1  0
  1 20  1  0
  3 21  1  0
  5 22  1  0
  6 23  1  0
  7 24  1  0
  9 25  1  0
 13 26  1  0
 14 27  1  0
 18 28  1  0
 18 29  1  0
 19 30  1  0
 19 31  1  0
 19 32  1  0
M  ISO  8  20  14  21  14  22   9  23  14  24  14  25  14  26  14  27  14
M  ISO  5  28   8  29   8  30   8  31   8  32   8
M  END
>  <minimizedAffinity>  (1) 
-5.63145161

>  <minimizedRMSD>  (1) 
0.19799535

$$$$
