
     RDKit          3D

 29 31  0  0  0  0  0  0  0  0999 V2000
   46.3370   33.6910   40.1930 C   0  0  0  0  0  0  0  0  0  0  0  0
   47.4800   34.4390   40.4820 C   0  0  0  0  0  0  0  0  0  0  0  0
   48.4350   34.5580   39.5020 C   0  0  0  0  0  0  0  0  0  0  0  0
   48.3390   33.9860   38.2410 C   0  0  0  0  0  0  0  0  0  0  0  0
   49.1390   33.9820   37.1720 N   0  0  0  0  0  0  0  0  0  0  0  0
   48.5710   33.2680   36.1940 C   0  0  0  0  0  0  0  0  0  0  0  0
   47.3590   32.8020   36.6730 C   0  0  0  0  0  0  0  0  0  0  0  0
   47.2040   33.2540   37.9750 C   0  0  0  0  0  0  0  0  0  0  0  0
   46.2230   33.1090   38.9310 C   0  0  0  0  0  0  0  0  0  0  0  0
   47.6920   35.1030   41.7720 C   0  0  0  0  0  0  0  0  0  0  0  0
   48.7020   35.8700   41.7760 O   0  0  0  0  0  0  0  0  0  0  0  0
   46.8030   34.8620   42.8750 C   0  0  0  0  0  0  0  0  0  0  0  0
   45.6610   35.6770   42.9290 C   0  0  0  0  0  0  0  0  0  0  0  0
   44.7980   35.4290   44.0220 C   0  0  0  0  0  0  0  0  0  0  0  0
   45.1210   34.4480   44.9180 N   0  0  0  0  0  0  0  0  0  0  0  0
   46.2410   33.7070   44.7940 C   0  0  0  0  0  0  0  0  0  0  0  0
   47.0800   33.9230   43.7620 N   0  0  0  0  0  0  0  0  0  0  0  0
   46.4830   32.6710   45.8320 C   0  0  0  0  0  0  0  0  0  0  0  0
   45.5438   33.5636   40.9444 H   0  0  0  0  0  0  0  0  0  0  0  0
   49.3359   35.1458   39.7318 H   0  0  0  0  0  0  0  0  0  0  0  0
   50.0517   34.4552   37.1101 H   0  0  0  0  0  0  0  0  0  0  0  0
   48.9899   33.0849   35.1935 H   0  0  0  0  0  0  0  0  0  0  0  0
   46.6421   32.1802   36.1168 H   0  0  0  0  0  0  0  0  0  0  0  0
   45.3260   32.5185   38.6926 H   0  0  0  0  0  0  0  0  0  0  0  0
   45.4526   36.4517   42.1764 H   0  0  0  0  0  0  0  0  0  0  0  0
   43.8780   36.0183   44.1496 H   0  0  0  0  0  0  0  0  0  0  0  0
   46.3780   33.1207   46.8304 H   0  0  0  0  0  0  0  0  0  0  0  0
   45.7505   31.8585   45.7169 H   0  0  0  0  0  0  0  0  0  0  0  0
   47.4997   32.2671   45.7169 H   0  0  0  0  0  0  0  0  0  0  0  0
  1  2  2  0
  2 10  1  0
  3  2  1  0
  4  3  2  0
  5  4  1  0
  6  7  2  0
  6  5  1  0
  7  8  1  0
  8  4  1  0
  8  9  2  0
  9  1  1  0
 10 11  2  0
 10 12  1  0
 12 13  2  0
 12 17  1  0
 13 14  1  0
 14 15  2  0
 16 15  1  0
 16 18  1  0
 17 16  2  0
  1 19  1  0
  3 20  1  0
  5 21  1  0
  6 22  1  0
  7 23  1  0
  9 24  1  0
 13 25  1  0
 14 26  1  0
 18 27  1  0
 18 28  1  0
 18 29  1  0
M  ISO  8  19  14  20  14  21   9  22  14  23  14  24  14  25  14  26  14
M  ISO  3  27   8  28   8  29   8
M  END
>  <minimizedAffinity>  (1) 
-5.59615374

>  <minimizedRMSD>  (1) 
0.0325002372

$$$$
