
     RDKit          3D

 28 30  0  0  0  0  0  0  0  0999 V2000
   46.1770   33.7260   40.3990 C   0  0  0  0  0  0  0  0  0  0  0  0
   47.3230   34.4800   40.6860 C   0  0  0  0  0  0  0  0  0  0  0  0
   48.2720   34.6170   39.7050 C   0  0  0  0  0  0  0  0  0  0  0  0
   48.1860   34.0640   38.4420 C   0  0  0  0  0  0  0  0  0  0  0  0
   48.9700   34.0670   37.3510 N   0  0  0  0  0  0  0  0  0  0  0  0
   48.3960   33.3610   36.3800 C   0  0  0  0  0  0  0  0  0  0  0  0
   47.1840   32.8770   36.8640 C   0  0  0  0  0  0  0  0  0  0  0  0
   47.0380   33.3160   38.1730 C   0  0  0  0  0  0  0  0  0  0  0  0
   46.0690   33.1590   39.1310 C   0  0  0  0  0  0  0  0  0  0  0  0
   47.5500   35.1330   41.9840 C   0  0  0  0  0  0  0  0  0  0  0  0
   48.6090   35.8200   42.0090 O   0  0  0  0  0  0  0  0  0  0  0  0
   46.6200   34.9600   43.0610 C   0  0  0  0  0  0  0  0  0  0  0  0
   45.5740   35.8910   43.1040 C   0  0  0  0  0  0  0  0  0  0  0  0
   44.6580   35.7200   44.1670 C   0  0  0  0  0  0  0  0  0  0  0  0
   44.8450   34.7000   45.0490 N   0  0  0  0  0  0  0  0  0  0  0  0
   45.8820   33.8400   44.9430 C   0  0  0  0  0  0  0  0  0  0  0  0
   46.7700   33.9820   43.9360 N   0  0  0  0  0  0  0  0  0  0  0  0
   46.0120   32.7730   45.9290 C   0  0  0  0  0  0  0  0  0  0  0  0
   46.9230   32.9170   46.8030 O   0  0  0  0  0  0  0  0  0  0  0  0
   45.3871   33.5862   41.1517 H   0  0  0  0  0  0  0  0  0  0  0  0
   49.1673   35.2108   39.9414 H   0  0  0  0  0  0  0  0  0  0  0  0
   49.8796   34.5445   37.2772 H   0  0  0  0  0  0  0  0  0  0  0  0
   48.8063   33.1903   35.3738 H   0  0  0  0  0  0  0  0  0  0  0  0
   46.4674   32.2556   36.3070 H   0  0  0  0  0  0  0  0  0  0  0  0
   45.1754   32.5646   38.8897 H   0  0  0  0  0  0  0  0  0  0  0  0
   45.4727   36.6978   42.3632 H   0  0  0  0  0  0  0  0  0  0  0  0
   43.8036   36.4035   44.2802 H   0  0  0  0  0  0  0  0  0  0  0  0
   45.3559   31.8902   45.9166 H   0  0  0  0  0  0  0  0  0  0  0  0
  1  2  2  0
  2 10  1  0
  3  2  1  0
  4  3  2  0
  5  4  1  0
  6  7  2  0
  6  5  1  0
  7  8  1  0
  8  4  1  0
  8  9  2  0
  9  1  1  0
 10 11  2  0
 10 12  1  0
 12 13  2  0
 12 17  1  0
 13 14  1  0
 14 15  2  0
 16 15  1  0
 16 18  1  0
 17 16  2  0
 18 19  2  0
  1 20  1  0
  3 21  1  0
  5 22  1  0
  6 23  1  0
  7 24  1  0
  9 25  1  0
 13 26  1  0
 14 27  1  0
 18 28  1  0
M  ISO  8  20  14  21  14  22   9  23  14  24  14  25  14  26  14  27  14
M  ISO  1  28   6
M  END
>  <minimizedAffinity>  (1) 
-5.58998156

>  <minimizedRMSD>  (1) 
0.419226676

$$$$
