
     RDKit          3D

 14 14  0  0  0  0  0  0  0  0999 V2000
   47.3160   34.2310   43.2800 C   0  0  0  0  0  0  0  0  0  0  0  0
   46.7050   33.6280   44.4120 C   0  0  0  0  0  0  0  0  0  0  0  0
   45.4210   34.0950   44.7900 C   0  0  0  0  0  0  0  0  0  0  0  0
   44.8600   35.0880   44.0450 N   0  0  0  0  0  0  0  0  0  0  0  0
   45.4850   35.6200   42.9850 C   0  0  0  0  0  0  0  0  0  0  0  0
   46.6910   35.1970   42.6120 N   0  0  0  0  0  0  0  0  0  0  0  0
   48.5550   33.7640   42.9340 O   0  0  0  0  0  0  0  0  0  0  0  0
   49.5780   34.6780   42.6040 C   0  0  0  0  0  0  0  0  0  0  0  0
   47.2095   32.8284   44.9743 H   0  0  0  0  0  0  0  0  0  0  0  0
   44.8946   33.6693   45.6570 H   0  0  0  0  0  0  0  0  0  0  0  0
   44.9926   36.4203   42.4132 H   0  0  0  0  0  0  0  0  0  0  0  0
   50.0247   35.0771   43.5266 H   0  0  0  0  0  0  0  0  0  0  0  0
   50.3518   34.1650   42.0141 H   0  0  0  0  0  0  0  0  0  0  0  0
   49.1550   35.5045   42.0141 H   0  0  0  0  0  0  0  0  0  0  0  0
  1  2  2  0
  2  3  1  0
  4  3  2  0
  5  4  1  0
  6  5  2  0
  6  1  1  0
  7  1  1  0
  8  7  1  0
  2  9  1  0
  3 10  1  0
  5 11  1  0
  8 12  1  0
  8 13  1  0
  8 14  1  0
M  ISO  6   9  14  10  14  11  14  12   8  13   8  14   8
M  END
>  <minimizedAffinity>  (1) 
-2.75011826

>  <minimizedRMSD>  (1) 
3.85355639

$$$$
