
     RDKit          3D

 21 22  0  0  0  0  0  0  0  0999 V2000
   45.5430   33.9790   45.5200 C   0  0  0  0  0  0  0  0  0  0  0  0
   45.9060   33.6310   44.2090 C   0  0  0  0  0  0  0  0  0  0  0  0
   46.7780   32.5480   44.1010 C   0  0  0  0  0  0  0  0  0  0  0  0
   47.2160   31.9110   45.2140 N   0  0  0  0  0  0  0  0  0  0  0  0
   46.8250   32.2990   46.4490 C   0  0  0  0  0  0  0  0  0  0  0  0
   45.9850   33.3370   46.6130 N   0  0  0  0  0  0  0  0  0  0  0  0
   47.3950   31.4990   47.5260 C   0  0  0  0  0  0  0  0  0  0  0  0
   48.3030   30.5180   47.5050 N   0  0  0  0  0  0  0  0  0  0  0  0
   48.5020   30.0890   48.7700 C   0  0  0  0  0  0  0  0  0  0  0  0
   47.7120   30.8050   49.5950 N   0  0  0  0  0  0  0  0  0  0  0  0
   47.0580   31.6450   48.8260 N   0  0  0  0  0  0  0  0  0  0  0  0
   44.6860   35.0400   45.6650 O   0  0  0  0  0  0  0  0  0  0  0  0
   44.3790   35.9230   44.6250 C   0  0  0  0  0  0  0  0  0  0  0  0
   45.0230   36.9700   44.3060 O   0  0  0  0  0  0  0  0  0  0  0  0
   43.2690   35.7590   43.7600 N   0  0  0  0  0  0  0  0  0  0  0  0
   45.5293   34.1740   43.3296 H   0  0  0  0  0  0  0  0  0  0  0  0
   47.1114   32.2097   43.1089 H   0  0  0  0  0  0  0  0  0  0  0  0
   49.1928   29.2895   49.0759 H   0  0  0  0  0  0  0  0  0  0  0  0
   47.6368   30.7123   50.6181 H   0  0  0  0  0  0  0  0  0  0  0  0
   43.0943   36.4439   43.0108 H   0  0  0  0  0  0  0  0  0  0  0  0
   42.6367   34.9549   43.8803 H   0  0  0  0  0  0  0  0  0  0  0  0
  1 12  1  0
  1  6  2  0
  2  1  1  0
  3  2  2  0
  3  4  1  0
  4  5  2  0
  5  6  1  0
  5  7  1  0
  7 11  2  0
  8  7  1  0
  8  9  2  0
  9 10  1  0
 11 10  1  0
 13 12  1  0
 14 13  2  0
 15 13  1  0
  2 16  1  0
  3 17  1  0
  9 18  1  0
 10 19  1  0
 15 20  1  0
 15 21  1  0
M  ISO  4  16  14  17  14  18  14  19   9
M  END
>  <minimizedAffinity>  (1) 
-4.9018054

>  <minimizedRMSD>  (1) 
0.900649428

$$$$
