
     RDKit          3D

 22 23  0  0  0  0  0  0  0  0999 V2000
   45.4570   34.0240   45.7380 C   0  0  0  0  0  0  0  0  0  0  0  0
   46.2250   33.7780   44.5880 C   0  0  0  0  0  0  0  0  0  0  0  0
   47.0440   32.6560   44.6430 C   0  0  0  0  0  0  0  0  0  0  0  0
   47.0630   31.8810   45.7570 N   0  0  0  0  0  0  0  0  0  0  0  0
   46.2970   32.1750   46.8310 C   0  0  0  0  0  0  0  0  0  0  0  0
   45.4850   33.2470   46.8390 N   0  0  0  0  0  0  0  0  0  0  0  0
   46.3240   31.3220   48.0470 C   0  0  0  0  0  0  0  0  0  0  0  0
   45.2850   31.5910   49.1040 C   0  0  0  0  0  0  0  0  0  0  0  0
   45.1670   30.3550   48.2350 C   0  0  0  0  0  0  0  0  0  0  0  0
   44.6380   35.1250   45.7160 O   0  0  0  0  0  0  0  0  0  0  0  0
   44.4210   35.8980   44.5710 C   0  0  0  0  0  0  0  0  0  0  0  0
   45.0230   36.9990   44.2820 O   0  0  0  0  0  0  0  0  0  0  0  0
   43.4830   35.5400   43.5740 N   0  0  0  0  0  0  0  0  0  0  0  0
   46.1813   34.4297   43.7029 H   0  0  0  0  0  0  0  0  0  0  0  0
   47.6776   32.3959   43.7823 H   0  0  0  0  0  0  0  0  0  0  0  0
   47.4206   31.2351   48.0419 H   0  0  0  0  0  0  0  0  0  0  0  0
   45.5457   31.4911   50.1680 H   0  0  0  0  0  0  0  0  0  0  0  0
   44.6235   32.4365   49.3439 H   0  0  0  0  0  0  0  0  0  0  0  0
   44.3745   30.2890   47.4750 H   0  0  0  0  0  0  0  0  0  0  0  0
   45.0748   29.2750   48.4222 H   0  0  0  0  0  0  0  0  0  0  0  0
   43.3565   36.1403   42.7466 H   0  0  0  0  0  0  0  0  0  0  0  0
   42.9267   34.6791   43.6756 H   0  0  0  0  0  0  0  0  0  0  0  0
  1  6  2  0
  2  3  2  0
  2  1  1  0
  3  4  1  0
  4  5  2  0
  5  6  1  0
  5  7  1  0
  7  9  1  0
  7  8  1  0
  9  8  1  0
 10  1  1  0
 11 10  1  0
 12 11  2  0
 13 11  1  0
  2 14  1  0
  3 15  1  0
  7 16  1  0
  8 17  1  0
  8 18  1  0
  9 19  1  0
  9 20  1  0
 13 21  1  0
 13 22  1  0
M  ISO  7  14  14  15  14  16  13  17  13  18  13  19  13  20  13
M  END
>  <minimizedAffinity>  (1) 
-4.62235451

>  <minimizedRMSD>  (1) 
0.774707973

$$$$
