
     RDKit          3D

 21 22  0  0  0  0  0  0  0  0999 V2000
   45.6380   33.9950   45.3180 C   0  0  0  0  0  0  0  0  0  0  0  0
   46.0020   33.7730   43.9810 C   0  0  0  0  0  0  0  0  0  0  0  0
   46.8740   32.7060   43.7270 C   0  0  0  0  0  0  0  0  0  0  0  0
   47.3120   31.9560   44.7780 N   0  0  0  0  0  0  0  0  0  0  0  0
   46.9280   32.2190   46.0320 C   0  0  0  0  0  0  0  0  0  0  0  0
   46.0940   33.2310   46.3260 N   0  0  0  0  0  0  0  0  0  0  0  0
   47.5030   31.3060   47.0130 C   0  0  0  0  0  0  0  0  0  0  0  0
   47.7910   32.0520   48.2030 C   0  0  0  0  0  0  0  0  0  0  0  0
   48.5250   30.7620   49.3840 S   0  0  0  0  0  0  0  0  0  0  0  0
   48.2870   29.4550   48.0020 C   0  0  0  0  0  0  0  0  0  0  0  0
   47.8330   30.0430   47.1500 N   0  0  0  0  0  0  0  0  0  0  0  0
   44.7880   35.0360   45.5700 O   0  0  0  0  0  0  0  0  0  0  0  0
   44.3950   35.9480   44.5880 C   0  0  0  0  0  0  0  0  0  0  0  0
   44.9800   37.0520   44.2860 O   0  0  0  0  0  0  0  0  0  0  0  0
   43.2570   35.7740   43.7610 N   0  0  0  0  0  0  0  0  0  0  0  0
   45.6198   34.4084   43.1685 H   0  0  0  0  0  0  0  0  0  0  0  0
   47.1985   32.4782   42.7009 H   0  0  0  0  0  0  0  0  0  0  0  0
   47.6249   33.1235   48.3881 H   0  0  0  0  0  0  0  0  0  0  0  0
   48.5343   28.3836   48.0312 H   0  0  0  0  0  0  0  0  0  0  0  0
   43.0206   36.4848   43.0541 H   0  0  0  0  0  0  0  0  0  0  0  0
   42.6665   34.9368   43.8670 H   0  0  0  0  0  0  0  0  0  0  0  0
  1 12  1  0
  1  6  2  0
  2  1  1  0
  3  2  2  0
  3  4  1  0
  4  5  2  0
  5  6  1  0
  5  7  1  0
  7 11  1  0
  7  8  2  0
  8  9  1  0
 10  9  1  0
 11 10  2  0
 13 12  1  0
 14 13  2  0
 15 13  1  0
  2 16  1  0
  3 17  1  0
  8 18  1  0
 10 19  1  0
 15 20  1  0
 15 21  1  0
M  ISO  4  16  14  17  14  18  14  19  14
M  END
>  <minimizedAffinity>  (1) 
-4.4905448

>  <minimizedRMSD>  (1) 
0.7735672

$$$$
