
     RDKit          3D

 21 21  0  0  0  0  0  0  0  0999 V2000
   45.4380   34.0290   45.7710 C   0  0  0  0  0  0  0  0  0  0  0  0
   46.2320   33.7900   44.6390 C   0  0  0  0  0  0  0  0  0  0  0  0
   47.0750   32.6580   44.6290 C   0  0  0  0  0  0  0  0  0  0  0  0
   47.0640   31.8590   45.7310 N   0  0  0  0  0  0  0  0  0  0  0  0
   46.2770   32.1380   46.7920 C   0  0  0  0  0  0  0  0  0  0  0  0
   45.4790   33.1970   46.8210 N   0  0  0  0  0  0  0  0  0  0  0  0
   44.6560   35.1290   45.7130 O   0  0  0  0  0  0  0  0  0  0  0  0
   44.4120   35.8750   44.5800 C   0  0  0  0  0  0  0  0  0  0  0  0
   45.0020   36.9770   44.2920 O   0  0  0  0  0  0  0  0  0  0  0  0
   43.4790   35.5480   43.5640 N   0  0  0  0  0  0  0  0  0  0  0  0
   46.3000   31.2330   47.9750 C   0  0  0  0  0  0  0  0  0  0  0  0
   45.5930   31.8740   49.1640 C   0  0  0  0  0  0  0  0  0  0  0  0
   46.1981   34.4715   43.7762 H   0  0  0  0  0  0  0  0  0  0  0  0
   47.7159   32.4303   43.7644 H   0  0  0  0  0  0  0  0  0  0  0  0
   43.3649   36.1691   42.7503 H   0  0  0  0  0  0  0  0  0  0  0  0
   42.9152   34.6893   43.6395 H   0  0  0  0  0  0  0  0  0  0  0  0
   45.7918   30.2918   47.7184 H   0  0  0  0  0  0  0  0  0  0  0  0
   47.3475   31.0412   48.2505 H   0  0  0  0  0  0  0  0  0  0  0  0
   46.0222   31.4849   50.0991 H   0  0  0  0  0  0  0  0  0  0  0  0
   45.7266   32.9652   49.1254 H   0  0  0  0  0  0  0  0  0  0  0  0
   44.5201   31.6344   49.1254 H   0  0  0  0  0  0  0  0  0  0  0  0
  1  6  2  0
  2  1  1  0
  3  2  2  0
  3  4  1  0
  4  5  2  0
  5  6  1  0
  5 11  1  0
  7  1  1  0
  8  7  1  0
  9  8  2  0
 10  8  1  0
 11 12  1  0
  2 13  1  0
  3 14  1  0
 10 15  1  0
 10 16  1  0
 11 17  1  0
 11 18  1  0
 12 19  1  0
 12 20  1  0
 12 21  1  0
M  ISO  7  13  14  14  14  17   8  18   8  19   8  20   8  21   8
M  END
>  <minimizedAffinity>  (1) 
-4.26279402

>  <minimizedRMSD>  (1) 
0.367931902

$$$$
