
     RDKit          3D

 16 16  0  0  0  0  0  0  0  0999 V2000
   45.5220   34.0240   45.6100 C   0  0  0  0  0  0  0  0  0  0  0  0
   46.2280   33.8810   44.4060 C   0  0  0  0  0  0  0  0  0  0  0  0
   47.0820   32.7730   44.2580 C   0  0  0  0  0  0  0  0  0  0  0  0
   47.1740   31.9020   45.2960 N   0  0  0  0  0  0  0  0  0  0  0  0
   46.4710   32.0870   46.4350 C   0  0  0  0  0  0  0  0  0  0  0  0
   45.6640   33.1280   46.5850 N   0  0  0  0  0  0  0  0  0  0  0  0
   46.5590   30.9660   47.8300 S   0  0  0  0  0  0  0  0  0  0  0  0
   44.7140   35.1050   45.7040 O   0  0  0  0  0  0  0  0  0  0  0  0
   44.3920   35.9420   44.6450 C   0  0  0  0  0  0  0  0  0  0  0  0
   45.0190   37.0040   44.3110 O   0  0  0  0  0  0  0  0  0  0  0  0
   43.2970   35.7390   43.7580 N   0  0  0  0  0  0  0  0  0  0  0  0
   46.1164   34.6178   43.5969 H   0  0  0  0  0  0  0  0  0  0  0  0
   47.6560   32.6173   43.3326 H   0  0  0  0  0  0  0  0  0  0  0  0
   46.5027   31.6828   48.9961 H   0  0  0  0  0  0  0  0  0  0  0  0
   43.1228   36.4070   42.9936 H   0  0  0  0  0  0  0  0  0  0  0  0
   42.6790   34.9242   43.8807 H   0  0  0  0  0  0  0  0  0  0  0  0
  1  8  1  0
  1  6  2  0
  2  1  1  0
  3  2  2  0
  3  4  1  0
  4  5  2  0
  5  6  1  0
  5  7  1  0
  9  8  1  0
 10  9  2  0
 11  9  1  0
  2 12  1  0
  3 13  1  0
  7 14  1  0
 11 15  1  0
 11 16  1  0
M  ISO  3  12  14  13  14  14  11
M  END
>  <minimizedAffinity>  (1) 
-3.89496613

>  <minimizedRMSD>  (1) 
0.030499747

$$$$
