
     RDKit          3D

 43 46  0  0  1  0  0  0  0  0999 V2000
   45.5560   34.3080   45.0890 C   0  0  0  0  0  0  0  0  0  0  0  0
   46.4340   34.0440   44.0210 C   0  0  0  0  0  0  0  0  0  0  0  0
   47.3050   32.9510   44.1490 C   0  0  0  0  0  0  0  0  0  0  0  0
   47.2410   32.2140   45.3040 N   0  0  0  0  0  0  0  0  0  0  0  0
   46.3920   32.5090   46.2780 C   0  0  0  0  0  0  0  0  0  0  0  0
   45.5440   33.5540   46.1830 N   0  0  0  0  0  0  0  0  0  0  0  0
   46.3940   31.6600   47.4610 N   0  0  0  0  0  0  0  0  0  0  0  0
   46.0180   32.2510   48.7170 C   0  0  0  0  0  0  0  0  0  0  0  0
   45.2820   31.2950   49.5530 C   0  0  0  0  0  0  0  0  0  0  0  0
   44.8660   29.9950   48.9410 C   0  0  0  0  0  0  0  0  0  0  0  0
   45.8520   29.3800   48.0310 C   0  0  0  0  0  0  0  0  0  0  0  0
   46.7670   30.2810   47.2820 C   0  0  2  0  0  0  0  0  0  0  0  0
   48.9820   29.2870   46.5700 C   0  0  0  0  0  0  0  0  0  0  0  0
   48.2110   30.0140   47.4900 C   0  0  0  0  0  0  0  0  0  0  0  0
   48.9620   30.4260   48.5700 C   0  0  0  0  0  0  0  0  0  0  0  0
   50.2960   30.1530   48.7210 C   0  0  0  0  0  0  0  0  0  0  0  0
   50.9700   29.4400   47.7820 C   0  0  0  0  0  0  0  0  0  0  0  0
   50.3030   28.9940   46.6820 C   0  0  0  0  0  0  0  0  0  0  0  0
   52.2900   29.3290   48.2130 O   0  0  0  0  0  0  0  0  0  0  0  0
   52.3240   29.5690   49.6240 C   0  0  0  0  0  0  0  0  0  0  0  0
   51.2200   30.4770   49.7290 O   0  0  0  0  0  0  0  0  0  0  0  0
   44.7410   35.3800   44.8980 O   0  0  0  0  0  0  0  0  0  0  0  0
   44.4540   35.9780   43.6880 C   0  0  0  0  0  0  0  0  0  0  0  0
   45.1100   36.9230   43.1670 O   0  0  0  0  0  0  0  0  0  0  0  0
   43.3710   35.5980   42.8700 N   0  0  0  0  0  0  0  0  0  0  0  0
   46.4374   34.6721   43.1180 H   0  0  0  0  0  0  0  0  0  0  0  0
   48.0155   32.6939   43.3495 H   0  0  0  0  0  0  0  0  0  0  0  0
   46.9260   32.5694   49.2501 H   0  0  0  0  0  0  0  0  0  0  0  0
   45.3650   33.1129   48.5153 H   0  0  0  0  0  0  0  0  0  0  0  0
   45.9199   31.0592   50.4176 H   0  0  0  0  0  0  0  0  0  0  0  0
   44.3342   31.8049   49.7804 H   0  0  0  0  0  0  0  0  0  0  0  0
   44.6671   29.2841   49.7565 H   0  0  0  0  0  0  0  0  0  0  0  0
   43.9827   30.2187   48.3247 H   0  0  0  0  0  0  0  0  0  0  0  0
   46.4780   28.7059   48.6342 H   0  0  0  0  0  0  0  0  0  0  0  0
   45.2435   28.8970   47.2522 H   0  0  0  0  0  0  0  0  0  0  0  0
   46.6297   30.0430   46.2169 H   0  0  0  0  0  0  0  0  0  0  0  0
   48.4661   28.9188   45.6710 H   0  0  0  0  0  0  0  0  0  0  0  0
   48.4606   31.0084   49.3571 H   0  0  0  0  0  0  0  0  0  0  0  0
   50.8204   28.4120   45.9051 H   0  0  0  0  0  0  0  0  0  0  0  0
   52.1561   28.6484   50.2022 H   0  0  0  0  0  0  0  0  0  0  0  0
   53.2813   29.9442   50.0150 H   0  0  0  0  0  0  0  0  0  0  0  0
   43.2064   36.0819   41.9758 H   0  0  0  0  0  0  0  0  0  0  0  0
   42.7441   34.8364   43.1664 H   0  0  0  0  0  0  0  0  0  0  0  0
  1  6  2  0
  2  3  2  0
  2  1  1  0
  3  4  1  0
  4  5  2  0
  5  7  1  0
  6  5  1  0
  7  8  1  0
  8  9  1  0
 10  9  1  0
 11 10  1  0
 12  7  1  0
 12 14  1  0
 12 11  1  0
 13 18  2  0
 13 14  1  0
 14 15  2  0
 15 16  1  0
 16 21  1  0
 17 19  1  0
 17 16  2  0
 18 17  1  0
 19 20  1  0
 20 21  1  0
 22  1  1  0
 23 22  1  0
 24 23  2  0
 25 23  1  0
  2 26  1  0
  3 27  1  0
  8 28  1  0
  8 29  1  0
  9 30  1  0
  9 31  1  0
 10 32  1  0
 10 33  1  0
 11 34  1  0
 11 35  1  0
 12 36  1  6
 13 37  1  0
 15 38  1  0
 18 39  1  0
 20 40  1  0
 20 41  1  0
 25 42  1  0
 25 43  1  0
M  ISO  8  26  14  27  14  28  13  29  13  30  13  31  13  32  13  33  13
M  ISO  8  34  13  35  13  36  13  37  14  38  14  39  14  40  13  41  13
M  END
>  <minimizedAffinity>  (1) 
-6.35044384

>  <minimizedRMSD>  (1) 
0.686651289

$$$$
