
     RDKit          3D

 40 42  0  0  1  0  0  0  0  0999 V2000
   45.6350   34.3440   44.9790 C   0  0  0  0  0  0  0  0  0  0  0  0
   46.3960   34.0570   43.8350 C   0  0  0  0  0  0  0  0  0  0  0  0
   47.2040   32.9200   43.8770 C   0  0  0  0  0  0  0  0  0  0  0  0
   47.2020   32.1630   45.0230 N   0  0  0  0  0  0  0  0  0  0  0  0
   46.4570   32.4920   46.0740 C   0  0  0  0  0  0  0  0  0  0  0  0
   45.6600   33.5820   46.0770 N   0  0  0  0  0  0  0  0  0  0  0  0
   46.5280   31.6040   47.2240 N   0  0  0  0  0  0  0  0  0  0  0  0
   46.3250   32.1930   48.5220 C   0  0  0  0  0  0  0  0  0  0  0  0
   45.6130   31.2730   49.4160 C   0  0  0  0  0  0  0  0  0  0  0  0
   45.0370   30.0240   48.8330 C   0  0  0  0  0  0  0  0  0  0  0  0
   45.8920   29.3560   47.8190 C   0  0  0  0  0  0  0  0  0  0  0  0
   46.7760   30.2040   46.9930 C   0  0  2  0  0  0  0  0  0  0  0  0
   48.2370   30.6440   49.5460 Cl  0  0  0  0  0  0  0  0  0  0  0  0
   49.0190   29.9670   48.1050 C   0  0  0  0  0  0  0  0  0  0  0  0
   48.2000   29.8140   46.9740 C   0  0  0  0  0  0  0  0  0  0  0  0
   48.8990   29.2830   45.9120 C   0  0  0  0  0  0  0  0  0  0  0  0
   50.2280   28.9340   45.9220 C   0  0  0  0  0  0  0  0  0  0  0  0
   50.9550   29.1190   47.0780 C   0  0  0  0  0  0  0  0  0  0  0  0
   52.6490   28.7170   47.2160 Cl  0  0  0  0  0  0  0  0  0  0  0  0
   50.3560   29.6460   48.2040 C   0  0  0  0  0  0  0  0  0  0  0  0
   44.8600   35.4660   44.8890 O   0  0  0  0  0  0  0  0  0  0  0  0
   44.4660   36.0770   43.7080 C   0  0  0  0  0  0  0  0  0  0  0  0
   45.0980   37.0170   43.1540 O   0  0  0  0  0  0  0  0  0  0  0  0
   43.3150   35.7340   42.9680 N   0  0  0  0  0  0  0  0  0  0  0  0
   46.3571   34.7006   42.9438 H   0  0  0  0  0  0  0  0  0  0  0  0
   47.8261   32.6375   43.0150 H   0  0  0  0  0  0  0  0  0  0  0  0
   47.3031   32.4366   48.9626 H   0  0  0  0  0  0  0  0  0  0  0  0
   45.7172   33.1018   48.4012 H   0  0  0  0  0  0  0  0  0  0  0  0
   46.3203   30.9697   50.2019 H   0  0  0  0  0  0  0  0  0  0  0  0
   44.7360   31.8454   49.7527 H   0  0  0  0  0  0  0  0  0  0  0  0
   44.8612   29.3131   49.6538 H   0  0  0  0  0  0  0  0  0  0  0  0
   44.1157   30.3229   48.3116 H   0  0  0  0  0  0  0  0  0  0  0  0
   46.5320   28.6376   48.3522 H   0  0  0  0  0  0  0  0  0  0  0  0
   45.1804   28.9196   47.1026 H   0  0  0  0  0  0  0  0  0  0  0  0
   46.4896   30.0063   45.9495 H   0  0  0  0  0  0  0  0  0  0  0  0
   48.3451   29.1247   44.9749 H   0  0  0  0  0  0  0  0  0  0  0  0
   50.7032   28.5143   45.0231 H   0  0  0  0  0  0  0  0  0  0  0  0
   50.9186   29.8025   49.1362 H   0  0  0  0  0  0  0  0  0  0  0  0
   43.0927   36.2386   42.0980 H   0  0  0  0  0  0  0  0  0  0  0  0
   42.6969   34.9789   43.2977 H   0  0  0  0  0  0  0  0  0  0  0  0
  1  6  2  0
  2  3  2  0
  2  1  1  0
  3  4  1  0
  4  5  2  0
  5  6  1  0
  5  7  1  0
  7  8  1  0
  8  9  1  0
 10  9  1  0
 11 10  1  0
 12  7  1  0
 12 11  1  0
 14 20  2  0
 14 13  1  0
 15 12  1  0
 15 14  1  0
 16 17  1  0
 16 15  2  0
 17 18  2  0
 18 19  1  0
 18 20  1  0
 21  1  1  0
 22 21  1  0
 23 22  2  0
 24 22  1  0
  2 25  1  0
  3 26  1  0
  8 27  1  0
  8 28  1  0
  9 29  1  0
  9 30  1  0
 10 31  1  0
 10 32  1  0
 11 33  1  0
 11 34  1  0
 12 35  1  6
 16 36  1  0
 17 37  1  0
 20 38  1  0
 24 39  1  0
 24 40  1  0
M  ISO  8  25  14  26  14  27  13  28  13  29  13  30  13  31  13  32  13
M  ISO  6  33  13  34  13  35  13  36  14  37  14  38  14
M  END
>  <minimizedAffinity>  (1) 
-6.26695681

>  <minimizedRMSD>  (1) 
0.730799496

$$$$
