
     RDKit          3D

 38 40  0  0  1  0  0  0  0  0999 V2000
   45.6150   34.3370   45.0390 C   0  0  0  0  0  0  0  0  0  0  0  0
   46.4540   34.0690   43.9470 C   0  0  0  0  0  0  0  0  0  0  0  0
   47.2910   32.9590   44.0570 C   0  0  0  0  0  0  0  0  0  0  0  0
   47.2390   32.2110   45.2100 N   0  0  0  0  0  0  0  0  0  0  0  0
   46.4200   32.5220   46.2050 C   0  0  0  0  0  0  0  0  0  0  0  0
   45.6070   33.5750   46.1340 N   0  0  0  0  0  0  0  0  0  0  0  0
   46.4430   31.6550   47.3730 N   0  0  0  0  0  0  0  0  0  0  0  0
   46.1330   32.2510   48.6470 C   0  0  0  0  0  0  0  0  0  0  0  0
   45.4060   31.3140   49.5070 C   0  0  0  0  0  0  0  0  0  0  0  0
   44.9160   30.0360   48.9070 C   0  0  0  0  0  0  0  0  0  0  0  0
   45.8370   29.3920   47.9490 C   0  0  0  0  0  0  0  0  0  0  0  0
   46.7580   30.2590   47.1750 C   0  0  2  0  0  0  0  0  0  0  0  0
   48.1980   29.9480   47.3350 C   0  0  0  0  0  0  0  0  0  0  0  0
   48.9770   30.2420   48.4320 C   0  0  0  0  0  0  0  0  0  0  0  0
   50.3170   29.9360   48.5370 C   0  0  0  0  0  0  0  0  0  0  0  0
   50.9360   29.3100   47.5190 N   0  0  0  0  0  0  0  0  0  0  0  0
   50.2050   29.0130   46.4440 C   0  0  0  0  0  0  0  0  0  0  0  0
   48.8990   29.3130   46.3470 N   0  0  0  0  0  0  0  0  0  0  0  0
   44.8090   35.4370   44.8890 O   0  0  0  0  0  0  0  0  0  0  0  0
   44.4670   36.0150   43.6730 C   0  0  0  0  0  0  0  0  0  0  0  0
   45.0990   36.9660   43.1420 O   0  0  0  0  0  0  0  0  0  0  0  0
   43.3780   35.6250   42.8680 N   0  0  0  0  0  0  0  0  0  0  0  0
   46.4517   34.7032   43.0482 H   0  0  0  0  0  0  0  0  0  0  0  0
   47.9768   32.6880   43.2407 H   0  0  0  0  0  0  0  0  0  0  0  0
   47.0699   32.5419   49.1446 H   0  0  0  0  0  0  0  0  0  0  0  0
   45.4963   33.1312   48.4742 H   0  0  0  0  0  0  0  0  0  0  0  0
   46.0757   31.0479   50.3381 H   0  0  0  0  0  0  0  0  0  0  0  0
   44.4882   31.8542   49.7822 H   0  0  0  0  0  0  0  0  0  0  0  0
   44.7280   29.3265   49.7264 H   0  0  0  0  0  0  0  0  0  0  0  0
   44.0149   30.2968   48.3326 H   0  0  0  0  0  0  0  0  0  0  0  0
   46.4565   28.6830   48.5177 H   0  0  0  0  0  0  0  0  0  0  0  0
   45.1760   28.9484   47.1899 H   0  0  0  0  0  0  0  0  0  0  0  0
   46.5750   30.0220   46.1165 H   0  0  0  0  0  0  0  0  0  0  0  0
   48.4987   30.7544   49.2797 H   0  0  0  0  0  0  0  0  0  0  0  0
   50.8763   30.2015   49.4462 H   0  0  0  0  0  0  0  0  0  0  0  0
   50.6918   28.5007   45.6010 H   0  0  0  0  0  0  0  0  0  0  0  0
   43.1962   36.1097   41.9776 H   0  0  0  0  0  0  0  0  0  0  0  0
   42.7639   34.8552   43.1701 H   0  0  0  0  0  0  0  0  0  0  0  0
  1  6  2  0
  2  3  2  0
  2  1  1  0
  3  4  1  0
  4  5  2  0
  5  7  1  0
  6  5  1  0
  7  8  1  0
  8  9  1  0
 10  9  1  0
 11 10  1  0
 12 13  1  0
 12  7  1  0
 12 11  1  0
 13 14  2  0
 14 15  1  0
 16 15  2  0
 17 16  1  0
 18 17  2  0
 18 13  1  0
 19  1  1  0
 20 19  1  0
 21 20  2  0
 22 20  1  0
  2 23  1  0
  3 24  1  0
  8 25  1  0
  8 26  1  0
  9 27  1  0
  9 28  1  0
 10 29  1  0
 10 30  1  0
 11 31  1  0
 11 32  1  0
 12 33  1  6
 14 34  1  0
 15 35  1  0
 17 36  1  0
 22 37  1  0
 22 38  1  0
M  ISO  8  23  14  24  14  25  13  26  13  27  13  28  13  29  13  30  13
M  ISO  6  31  13  32  13  33  13  34  14  35  14  36  14
M  END
>  <minimizedAffinity>  (1) 
-5.896595

>  <minimizedRMSD>  (1) 
0.169533521

$$$$
