
     RDKit          3D

 37 39  0  0  1  0  0  0  0  0999 V2000
   45.6260   34.3450   45.0390 C   0  0  0  0  0  0  0  0  0  0  0  0
   46.4290   34.0550   43.9160 C   0  0  0  0  0  0  0  0  0  0  0  0
   47.2430   32.9170   43.9890 C   0  0  0  0  0  0  0  0  0  0  0  0
   47.2070   32.1650   45.1390 N   0  0  0  0  0  0  0  0  0  0  0  0
   46.4210   32.4980   46.1670 C   0  0  0  0  0  0  0  0  0  0  0  0
   45.6310   33.5770   46.1320 N   0  0  0  0  0  0  0  0  0  0  0  0
   46.4720   31.6300   47.3170 N   0  0  0  0  0  0  0  0  0  0  0  0
   46.2260   32.1940   48.6170 C   0  0  0  0  0  0  0  0  0  0  0  0
   45.4370   31.2840   49.4730 C   0  0  0  0  0  0  0  0  0  0  0  0
   44.9400   30.0140   48.8750 C   0  0  0  0  0  0  0  0  0  0  0  0
   45.8270   29.3610   47.8850 C   0  0  0  0  0  0  0  0  0  0  0  0
   46.7640   30.2340   47.1500 C   0  0  2  0  0  0  0  0  0  0  0  0
   48.2200   30.0020   47.5110 C   0  0  0  0  0  0  0  0  0  0  0  0
   48.7510   28.6480   47.7560 C   0  0  0  0  0  0  0  0  0  0  0  0
   49.1010   29.2720   46.4770 C   0  0  0  0  0  0  0  0  0  0  0  0
   44.8510   35.4590   44.9270 O   0  0  0  0  0  0  0  0  0  0  0  0
   44.4800   36.0610   43.7450 C   0  0  0  0  0  0  0  0  0  0  0  0
   45.1130   36.9890   43.1710 O   0  0  0  0  0  0  0  0  0  0  0  0
   43.3190   35.7140   43.0050 N   0  0  0  0  0  0  0  0  0  0  0  0
   46.4166   34.6949   43.0214 H   0  0  0  0  0  0  0  0  0  0  0  0
   47.8934   32.6330   43.1486 H   0  0  0  0  0  0  0  0  0  0  0  0
   47.1908   32.3945   49.1058 H   0  0  0  0  0  0  0  0  0  0  0  0
   45.6489   33.1208   48.4825 H   0  0  0  0  0  0  0  0  0  0  0  0
   46.0681   31.0152   50.3329 H   0  0  0  0  0  0  0  0  0  0  0  0
   44.5245   31.8516   49.7078 H   0  0  0  0  0  0  0  0  0  0  0  0
   44.7721   29.3009   49.6956 H   0  0  0  0  0  0  0  0  0  0  0  0
   44.0324   30.2890   48.3176 H   0  0  0  0  0  0  0  0  0  0  0  0
   46.4243   28.6078   48.4197 H   0  0  0  0  0  0  0  0  0  0  0  0
   45.1511   28.9552   47.1179 H   0  0  0  0  0  0  0  0  0  0  0  0
   46.6141   29.9521   46.0973 H   0  0  0  0  0  0  0  0  0  0  0  0
   48.2413   30.9454   48.0763 H   0  0  0  0  0  0  0  0  0  0  0  0
   49.5308   28.5027   48.5181 H   0  0  0  0  0  0  0  0  0  0  0  0
   48.2861   27.6894   48.0297 H   0  0  0  0  0  0  0  0  0  0  0  0
   48.6615   28.8988   45.5402 H   0  0  0  0  0  0  0  0  0  0  0  0
   50.0357   29.4974   45.9426 H   0  0  0  0  0  0  0  0  0  0  0  0
   43.1016   36.2066   42.1269 H   0  0  0  0  0  0  0  0  0  0  0  0
   42.6941   34.9697   43.3462 H   0  0  0  0  0  0  0  0  0  0  0  0
  1  6  2  0
  2  3  2  0
  2  1  1  0
  3  4  1  0
  4  5  2  0
  5  7  1  0
  6  5  1  0
  7  8  1  0
  8  9  1  0
 10  9  1  0
 11 10  1  0
 12  7  1  0
 12 13  1  0
 12 11  1  0
 13 14  1  0
 15 13  1  0
 15 14  1  0
 16  1  1  0
 17 16  1  0
 18 17  2  0
 19 17  1  0
  2 20  1  0
  3 21  1  0
  8 22  1  0
  8 23  1  0
  9 24  1  0
  9 25  1  0
 10 26  1  0
 10 27  1  0
 11 28  1  0
 11 29  1  0
 12 30  1  6
 13 31  1  0
 14 32  1  0
 14 33  1  0
 15 34  1  0
 15 35  1  0
 19 36  1  0
 19 37  1  0
M  ISO  8  20  14  21  14  22  13  23  13  24  13  25  13  26  13  27  13
M  ISO  8  28  13  29  13  30  13  31  13  32  13  33  13  34  13  35  13
M  END
>  <minimizedAffinity>  (1) 
-5.52750683

>  <minimizedRMSD>  (1) 
0.526631236

$$$$
