
     RDKit          3D

 31 32  0  0  1  0  0  0  0  0999 V2000
   45.6370   34.3430   45.0240 C   0  0  0  0  0  0  0  0  0  0  0  0
   46.4440   34.0670   43.9090 C   0  0  0  0  0  0  0  0  0  0  0  0
   47.2640   32.9420   43.9720 C   0  0  0  0  0  0  0  0  0  0  0  0
   47.2300   32.1770   45.1160 N   0  0  0  0  0  0  0  0  0  0  0  0
   46.4460   32.4830   46.1460 C   0  0  0  0  0  0  0  0  0  0  0  0
   45.6420   33.5650   46.1140 N   0  0  0  0  0  0  0  0  0  0  0  0
   46.4900   31.6180   47.2870 N   0  0  0  0  0  0  0  0  0  0  0  0
   46.2550   32.1770   48.5880 C   0  0  0  0  0  0  0  0  0  0  0  0
   45.4940   31.2640   49.4500 C   0  0  0  0  0  0  0  0  0  0  0  0
   44.9880   30.0040   48.8730 C   0  0  0  0  0  0  0  0  0  0  0  0
   45.8250   29.3540   47.8400 C   0  0  0  0  0  0  0  0  0  0  0  0
   46.7670   30.2130   47.1060 C   0  0  1  0  0  0  0  0  0  0  0  0
   46.8040   29.8990   45.7450 O   0  0  0  0  0  0  0  0  0  0  0  0
   44.8380   35.4580   44.9360 O   0  0  0  0  0  0  0  0  0  0  0  0
   44.4870   36.0730   43.7520 C   0  0  0  0  0  0  0  0  0  0  0  0
   45.1210   37.0070   43.1750 O   0  0  0  0  0  0  0  0  0  0  0  0
   43.3200   35.7110   43.0180 N   0  0  0  0  0  0  0  0  0  0  0  0
   46.4296   34.7140   43.0195 H   0  0  0  0  0  0  0  0  0  0  0  0
   47.9201   32.6728   43.1311 H   0  0  0  0  0  0  0  0  0  0  0  0
   47.2239   32.3894   49.0635 H   0  0  0  0  0  0  0  0  0  0  0  0
   45.6639   33.0960   48.4611 H   0  0  0  0  0  0  0  0  0  0  0  0
   46.1469   30.9950   50.2935 H   0  0  0  0  0  0  0  0  0  0  0  0
   44.5837   31.8285   49.7003 H   0  0  0  0  0  0  0  0  0  0  0  0
   44.8636   29.2875   49.6983 H   0  0  0  0  0  0  0  0  0  0  0  0
   44.0580   30.2805   48.3546 H   0  0  0  0  0  0  0  0  0  0  0  0
   46.4113   28.5661   48.3354 H   0  0  0  0  0  0  0  0  0  0  0  0
   45.1145   28.9952   47.0808 H   0  0  0  0  0  0  0  0  0  0  0  0
   47.7588   30.0103   47.5364 H   0  0  0  0  0  0  0  0  0  0  0  0
   46.9191   28.9219   45.6348 H   0  0  0  0  0  0  0  0  0  0  0  0
   43.0943   36.1958   42.1377 H   0  0  0  0  0  0  0  0  0  0  0  0
   42.7024   34.9646   43.3679 H   0  0  0  0  0  0  0  0  0  0  0  0
  1  6  2  0
  2  3  2  0
  2  1  1  0
  3  4  1  0
  4  5  2  0
  5  7  1  0
  6  5  1  0
  7  8  1  0
  8  9  1  0
 10  9  1  0
 11 10  1  0
 12  7  1  0
 12 11  1  0
 13 12  1  0
 14  1  1  0
 15 14  1  0
 16 15  2  0
 17 15  1  0
  2 18  1  0
  3 19  1  0
  8 20  1  0
  8 21  1  0
  9 22  1  0
  9 23  1  0
 10 24  1  0
 10 25  1  0
 11 26  1  0
 11 27  1  0
 12 28  1  1
 13 29  1  0
 17 30  1  0
 17 31  1  0
M  ISO  8  18  14  19  14  20  13  21  13  22  13  23  13  24  13  25  13
M  ISO  4  26  13  27  13  28  13  29   3
M  END
>  <minimizedAffinity>  (1) 
-5.41721106

>  <minimizedRMSD>  (1) 
0.0120116379

$$$$
