
     RDKit          3D

 36 37  0  0  1  0  0  0  0  0999 V2000
   45.6320   34.3330   45.0470 C   0  0  0  0  0  0  0  0  0  0  0  0
   46.4330   34.0450   43.9120 C   0  0  0  0  0  0  0  0  0  0  0  0
   47.2370   32.9110   43.9850 C   0  0  0  0  0  0  0  0  0  0  0  0
   47.2080   32.1550   45.1260 N   0  0  0  0  0  0  0  0  0  0  0  0
   46.4330   32.4790   46.1600 C   0  0  0  0  0  0  0  0  0  0  0  0
   45.6360   33.5690   46.1380 N   0  0  0  0  0  0  0  0  0  0  0  0
   46.4750   31.6190   47.3160 N   0  0  0  0  0  0  0  0  0  0  0  0
   46.2350   32.1720   48.6100 C   0  0  0  0  0  0  0  0  0  0  0  0
   45.4800   31.2450   49.4720 C   0  0  0  0  0  0  0  0  0  0  0  0
   44.9530   29.9950   48.8850 C   0  0  0  0  0  0  0  0  0  0  0  0
   45.7660   29.3540   47.8290 C   0  0  0  0  0  0  0  0  0  0  0  0
   46.7580   30.2080   47.1400 C   0  0  2  0  0  0  0  0  0  0  0  0
   44.8560   35.4570   44.9310 O   0  0  0  0  0  0  0  0  0  0  0  0
   44.4830   36.0570   43.7570 C   0  0  0  0  0  0  0  0  0  0  0  0
   45.1210   36.9940   43.1750 O   0  0  0  0  0  0  0  0  0  0  0  0
   43.3230   35.7080   43.0310 N   0  0  0  0  0  0  0  0  0  0  0  0
   48.0930   29.9810   47.8460 C   0  0  0  0  0  0  0  0  0  0  0  0
   49.1260   29.3740   46.9490 C   0  0  0  0  0  0  0  0  0  0  0  0
   46.4194   34.6862   43.0183 H   0  0  0  0  0  0  0  0  0  0  0  0
   47.8837   32.6276   43.1415 H   0  0  0  0  0  0  0  0  0  0  0  0
   47.2012   32.3940   49.0867 H   0  0  0  0  0  0  0  0  0  0  0  0
   45.6357   33.0858   48.4846 H   0  0  0  0  0  0  0  0  0  0  0  0
   46.1460   30.9579   50.2991 H   0  0  0  0  0  0  0  0  0  0  0  0
   44.5774   31.8115   49.7448 H   0  0  0  0  0  0  0  0  0  0  0  0
   44.8374   29.2677   49.7021 H   0  0  0  0  0  0  0  0  0  0  0  0
   44.0163   30.2861   48.3871 H   0  0  0  0  0  0  0  0  0  0  0  0
   46.3108   28.5172   48.2904 H   0  0  0  0  0  0  0  0  0  0  0  0
   45.0468   29.0622   47.0495 H   0  0  0  0  0  0  0  0  0  0  0  0
   46.7495   29.9558   46.0693 H   0  0  0  0  0  0  0  0  0  0  0  0
   43.0978   36.1980   42.1535 H   0  0  0  0  0  0  0  0  0  0  0  0
   42.7022   34.9634   43.3790 H   0  0  0  0  0  0  0  0  0  0  0  0
   48.4678   30.9492   48.2093 H   0  0  0  0  0  0  0  0  0  0  0  0
   47.9159   29.2768   48.6723 H   0  0  0  0  0  0  0  0  0  0  0  0
   49.9149   28.9104   47.5595 H   0  0  0  0  0  0  0  0  0  0  0  0
   48.6561   28.6084   46.3141 H   0  0  0  0  0  0  0  0  0  0  0  0
   49.5661   30.1571   46.3141 H   0  0  0  0  0  0  0  0  0  0  0  0
  1  6  2  0
  2  3  2  0
  2  1  1  0
  3  4  1  0
  4  5  2  0
  5  7  1  0
  6  5  1  0
  7  8  1  0
  8  9  1  0
 10  9  1  0
 11 10  1  0
 12  7  1  0
 12 11  1  0
 12 17  1  0
 13  1  1  0
 14 13  1  0
 15 14  2  0
 16 14  1  0
 18 17  1  0
  2 19  1  0
  3 20  1  0
  8 21  1  0
  8 22  1  0
  9 23  1  0
  9 24  1  0
 10 25  1  0
 10 26  1  0
 11 27  1  0
 11 28  1  0
 12 29  1  6
 16 30  1  0
 16 31  1  0
 17 32  1  0
 17 33  1  0
 18 34  1  0
 18 35  1  0
 18 36  1  0
M  ISO  8  19  14  20  14  21  13  22  13  23  13  24  13  25  13  26  13
M  ISO  8  27  13  28  13  29  13  32   8  33   8  34   8  35   8  36   8
M  END
>  <minimizedAffinity>  (1) 
-5.41669559

>  <minimizedRMSD>  (1) 
0.356644988

$$$$
