
     RDKit          3D

 32 33  0  0  1  0  0  0  0  0999 V2000
   45.6430   34.3330   45.0300 C   0  0  0  0  0  0  0  0  0  0  0  0
   46.4410   34.0690   43.9070 C   0  0  0  0  0  0  0  0  0  0  0  0
   47.2640   32.9450   43.9720 C   0  0  0  0  0  0  0  0  0  0  0  0
   47.2400   32.1830   45.1140 N   0  0  0  0  0  0  0  0  0  0  0  0
   46.4550   32.4880   46.1540 C   0  0  0  0  0  0  0  0  0  0  0  0
   45.6630   33.5560   46.1070 N   0  0  0  0  0  0  0  0  0  0  0  0
   46.5080   31.6220   47.2990 N   0  0  0  0  0  0  0  0  0  0  0  0
   46.2490   32.1680   48.5880 C   0  0  0  0  0  0  0  0  0  0  0  0
   45.4780   31.2540   49.4520 C   0  0  0  0  0  0  0  0  0  0  0  0
   44.9950   29.9810   48.8500 C   0  0  0  0  0  0  0  0  0  0  0  0
   45.8740   29.3440   47.8340 C   0  0  0  0  0  0  0  0  0  0  0  0
   46.8210   30.2240   47.1170 C   0  0  1  0  0  0  0  0  0  0  0  0
   46.9210   29.8520   45.7350 N   0  0  0  0  0  0  0  0  0  0  0  0
   44.8450   35.4490   44.9290 O   0  0  0  0  0  0  0  0  0  0  0  0
   44.4870   36.0710   43.7460 C   0  0  0  0  0  0  0  0  0  0  0  0
   45.1160   36.9990   43.1770 O   0  0  0  0  0  0  0  0  0  0  0  0
   43.3280   35.7160   43.0200 N   0  0  0  0  0  0  0  0  0  0  0  0
   46.4187   34.7170   43.0184 H   0  0  0  0  0  0  0  0  0  0  0  0
   47.9167   32.6754   43.1286 H   0  0  0  0  0  0  0  0  0  0  0  0
   47.2100   32.3864   49.0767 H   0  0  0  0  0  0  0  0  0  0  0  0
   45.6465   33.0775   48.4473 H   0  0  0  0  0  0  0  0  0  0  0  0
   46.1177   30.9917   50.3075 H   0  0  0  0  0  0  0  0  0  0  0  0
   44.5625   31.8105   49.7012 H   0  0  0  0  0  0  0  0  0  0  0  0
   44.8537   29.2588   49.6676 H   0  0  0  0  0  0  0  0  0  0  0  0
   44.0761   30.2493   48.3080 H   0  0  0  0  0  0  0  0  0  0  0  0
   46.4638   28.5689   48.3452 H   0  0  0  0  0  0  0  0  0  0  0  0
   45.1890   28.9708   47.0585 H   0  0  0  0  0  0  0  0  0  0  0  0
   47.8166   30.0806   47.5622 H   0  0  0  0  0  0  0  0  0  0  0  0
   47.1878   28.8596   45.6650 H   0  0  0  0  0  0  0  0  0  0  0  0
   46.0114   29.9963   45.2739 H   0  0  0  0  0  0  0  0  0  0  0  0
   43.0994   36.2058   42.1432 H   0  0  0  0  0  0  0  0  0  0  0  0
   42.7117   34.9674   43.3675 H   0  0  0  0  0  0  0  0  0  0  0  0
  1  6  2  0
  2  3  2  0
  2  1  1  0
  3  4  1  0
  4  5  2  0
  5  7  1  0
  6  5  1  0
  7  8  1  0
  8  9  1  0
 10  9  1  0
 11 10  1  0
 12  7  1  0
 12 11  1  0
 13 12  1  0
 14  1  1  0
 15 14  1  0
 16 15  2  0
 17 15  1  0
  2 18  1  0
  3 19  1  0
  8 20  1  0
  8 21  1  0
  9 22  1  0
  9 23  1  0
 10 24  1  0
 10 25  1  0
 11 26  1  0
 11 27  1  0
 12 28  1  1
 13 29  1  0
 13 30  1  0
 17 31  1  0
 17 32  1  0
M  ISO  8  18  14  19  14  20  13  21  13  22  13  23  13  24  13  25  13
M  ISO  5  26  13  27  13  28  13  29   5  30   5
M  END
>  <minimizedAffinity>  (1) 
-5.40734053

>  <minimizedRMSD>  (1) 
0.0104065333

$$$$
