
     RDKit          3D

 34 35  0  0  1  0  0  0  0  0999 V2000
   45.4850   34.3620   44.9230 C   0  0  0  0  0  0  0  0  0  0  0  0
   46.2960   34.1040   43.8040 C   0  0  0  0  0  0  0  0  0  0  0  0
   47.1980   33.0340   43.8880 C   0  0  0  0  0  0  0  0  0  0  0  0
   47.2220   32.3150   45.0630 N   0  0  0  0  0  0  0  0  0  0  0  0
   46.4220   32.6140   46.0890 C   0  0  0  0  0  0  0  0  0  0  0  0
   45.5500   33.6350   46.0300 N   0  0  0  0  0  0  0  0  0  0  0  0
   46.5340   31.7900   47.2700 N   0  0  0  0  0  0  0  0  0  0  0  0
   46.2370   32.3670   48.5460 C   0  0  0  0  0  0  0  0  0  0  0  0
   45.5350   31.4150   49.4330 C   0  0  0  0  0  0  0  0  0  0  0  0
   45.1190   30.1060   48.8630 C   0  0  0  0  0  0  0  0  0  0  0  0
   46.0770   29.5020   47.9010 C   0  0  0  0  0  0  0  0  0  0  0  0
   46.9390   30.4210   47.1290 C   0  0  2  0  0  0  0  0  0  0  0  0
   48.9120   30.3020   48.7500 C   0  0  0  0  0  0  0  0  0  0  0  0
   48.1840   30.3400   49.7730 O   0  0  0  0  0  0  0  0  0  0  0  0
   48.3530   30.3390   47.4520 N   0  0  0  0  0  0  0  0  0  0  0  0
   44.6330   35.4180   44.7680 O   0  0  0  0  0  0  0  0  0  0  0  0
   44.3730   36.0770   43.5830 C   0  0  0  0  0  0  0  0  0  0  0  0
   45.0680   37.0370   43.1240 O   0  0  0  0  0  0  0  0  0  0  0  0
   43.2930   35.7670   42.7250 N   0  0  0  0  0  0  0  0  0  0  0  0
   46.2254   34.7196   42.8951 H   0  0  0  0  0  0  0  0  0  0  0  0
   47.8609   32.7784   43.0482 H   0  0  0  0  0  0  0  0  0  0  0  0
   47.1786   32.6718   49.0260 H   0  0  0  0  0  0  0  0  0  0  0  0
   45.5762   33.2312   48.3832 H   0  0  0  0  0  0  0  0  0  0  0  0
   46.2030   31.2048   50.2813 H   0  0  0  0  0  0  0  0  0  0  0  0
   44.5895   31.9186   49.6829 H   0  0  0  0  0  0  0  0  0  0  0  0
   44.9822   29.4003   49.6956 H   0  0  0  0  0  0  0  0  0  0  0  0
   44.1970   30.2994   48.2951 H   0  0  0  0  0  0  0  0  0  0  0  0
   46.7372   28.8313   48.4705 H   0  0  0  0  0  0  0  0  0  0  0  0
   45.4447   29.0107   47.1468 H   0  0  0  0  0  0  0  0  0  0  0  0
   46.8064   30.0813   46.0912 H   0  0  0  0  0  0  0  0  0  0  0  0
   50.0040   30.2388   48.8662 H   0  0  0  0  0  0  0  0  0  0  0  0
   49.0107   30.3045   46.6601 H   0  0  0  0  0  0  0  0  0  0  0  0
   43.1575   36.3003   41.8543 H   0  0  0  0  0  0  0  0  0  0  0  0
   42.6416   35.0079   42.9706 H   0  0  0  0  0  0  0  0  0  0  0  0
  1  6  2  0
  2  3  2  0
  2  1  1  0
  3  4  1  0
  4  5  2  0
  5  7  1  0
  6  5  1  0
  7  8  1  0
  8  9  1  0
 10  9  1  0
 11 10  1  0
 12  7  1  0
 12 15  1  0
 12 11  1  0
 13 14  2  0
 15 13  1  0
 16  1  1  0
 17 16  1  0
 18 17  2  0
 19 17  1  0
  2 20  1  0
  3 21  1  0
  8 22  1  0
  8 23  1  0
  9 24  1  0
  9 25  1  0
 10 26  1  0
 10 27  1  0
 11 28  1  0
 11 29  1  0
 12 30  1  6
 13 31  1  0
 15 32  1  0
 19 33  1  0
 19 34  1  0
M  ISO  8  20  14  21  14  22  13  23  13  24  13  25  13  26  13  27  13
M  ISO  4  28  13  29  13  30  13  31   6
M  END
>  <minimizedAffinity>  (1) 
-5.38510084

>  <minimizedRMSD>  (1) 
0.214316621

$$$$
