
     RDKit          3D

 38 41  0  0  1  0  0  0  0  0999 V2000
   47.2520   34.4300   42.7100 N   0  0  0  0  0  0  0  0  0  0  0  0
   48.6590   34.0310   42.6880 C   0  0  0  0  0  0  0  0  0  0  0  0
   49.1550   35.1110   41.7420 C   0  0  0  0  0  0  0  0  0  0  0  0
   48.1640   34.9110   40.5950 C   0  0  0  0  0  0  0  0  0  0  0  0
   46.8540   34.7290   41.3340 C   0  0  1  0  0  0  0  0  0  0  0  0
   46.0970   33.6250   40.7370 C   0  0  0  0  0  0  0  0  0  0  0  0
   46.5990   32.3990   40.3810 C   0  0  0  0  0  0  0  0  0  0  0  0
   45.8690   31.3700   39.8270 C   0  0  0  0  0  0  0  0  0  0  0  0
   44.5220   31.5530   39.5980 C   0  0  0  0  0  0  0  0  0  0  0  0
   43.9610   32.7560   39.9320 C   0  0  0  0  0  0  0  0  0  0  0  0
   42.6170   32.8860   39.6820 C   0  0  0  0  0  0  0  0  0  0  0  0
   41.9790   34.0560   39.9850 C   0  0  0  0  0  0  0  0  0  0  0  0
   42.6960   35.0950   40.5390 C   0  0  0  0  0  0  0  0  0  0  0  0
   44.0370   34.9310   40.7750 C   0  0  0  0  0  0  0  0  0  0  0  0
   44.7330   33.7760   40.4920 C   0  0  0  0  0  0  0  0  0  0  0  0
   45.4970   33.8140   45.9320 C   0  0  0  0  0  0  0  0  0  0  0  0
   46.4150   33.6250   44.8900 C   0  0  0  0  0  0  0  0  0  0  0  0
   46.3720   34.5360   43.8080 C   0  0  0  0  0  0  0  0  0  0  0  0
   45.4540   35.5350   43.8390 N   0  0  0  0  0  0  0  0  0  0  0  0
   44.5830   35.6910   44.8580 C   0  0  0  0  0  0  0  0  0  0  0  0
   44.5970   34.8360   45.9090 N   0  0  0  0  0  0  0  0  0  0  0  0
   49.1284   34.0957   43.6807 H   0  0  0  0  0  0  0  0  0  0  0  0
   48.8670   32.9916   42.3942 H   0  0  0  0  0  0  0  0  0  0  0  0
   49.0736   36.1145   42.1851 H   0  0  0  0  0  0  0  0  0  0  0  0
   50.2167   35.0397   41.4631 H   0  0  0  0  0  0  0  0  0  0  0  0
   48.4148   34.0193   40.0018 H   0  0  0  0  0  0  0  0  0  0  0  0
   48.1521   35.7395   39.8715 H   0  0  0  0  0  0  0  0  0  0  0  0
   46.2000   35.6122   41.2863 H   0  0  0  0  0  0  0  0  0  0  0  0
   47.6713   32.2231   40.5516 H   0  0  0  0  0  0  0  0  0  0  0  0
   46.3540   30.4164   39.5712 H   0  0  0  0  0  0  0  0  0  0  0  0
   43.9121   30.7508   39.1570 H   0  0  0  0  0  0  0  0  0  0  0  0
   42.0553   32.0504   39.2389 H   0  0  0  0  0  0  0  0  0  0  0  0
   40.9025   34.1677   39.7885 H   0  0  0  0  0  0  0  0  0  0  0  0
   42.1987   36.0439   40.7887 H   0  0  0  0  0  0  0  0  0  0  0  0
   44.5905   35.7726   41.2170 H   0  0  0  0  0  0  0  0  0  0  0  0
   45.5035   33.1219   46.7870 H   0  0  0  0  0  0  0  0  0  0  0  0
   47.1417   32.7995   44.9124 H   0  0  0  0  0  0  0  0  0  0  0  0
   43.8573   36.5173   44.8352 H   0  0  0  0  0  0  0  0  0  0  0  0
  1 18  1  0
  2  1  1  0
  3  2  1  0
  4  5  1  0
  4  3  1  0
  5  1  1  0
  6  5  1  0
  7  6  2  0
  8  7  1  0
  9  8  2  0
  9 10  1  0
 10 15  2  0
 11 10  1  0
 11 12  2  0
 12 13  1  0
 13 14  2  0
 15  6  1  0
 15 14  1  0
 17 16  2  0
 18 19  2  0
 18 17  1  0
 19 20  1  0
 20 21  2  0
 21 16  1  0
  2 22  1  0
  2 23  1  0
  3 24  1  0
  3 25  1  0
  4 26  1  0
  4 27  1  0
  5 28  1  1
  7 29  1  0
  8 30  1  0
  9 31  1  0
 11 32  1  0
 12 33  1  0
 13 34  1  0
 14 35  1  0
 16 36  1  0
 17 37  1  0
 20 38  1  0
M  ISO  8  22  13  23  13  24  13  25  13  26  13  27  13  28  13  29  14
M  ISO  8  30  14  31  14  32  14  33  14  34  14  35  14  36  14  37  14
M  ISO  1  38  14
M  END
>  <minimizedAffinity>  (1) 
-5.64547491

>  <minimizedRMSD>  (1) 
3.05998492

$$$$
