
     RDKit          3D

 32 34  0  0  1  0  0  0  0  0999 V2000
   47.2160   34.6540   42.3090 N   0  0  0  0  0  0  0  0  0  0  0  0
   48.6800   34.6760   42.3220 C   0  0  0  0  0  0  0  0  0  0  0  0
   48.8880   35.5420   41.0960 C   0  0  0  0  0  0  0  0  0  0  0  0
   48.0680   34.7040   40.1090 C   0  0  0  0  0  0  0  0  0  0  0  0
   46.8440   34.3940   40.9500 C   0  0  1  0  0  0  0  0  0  0  0  0
   44.5280   35.9920   44.4940 C   0  0  0  0  0  0  0  0  0  0  0  0
   45.3850   35.8970   43.3870 C   0  0  0  0  0  0  0  0  0  0  0  0
   46.3160   34.8400   43.3590 C   0  0  0  0  0  0  0  0  0  0  0  0
   46.3050   33.9910   44.4160 N   0  0  0  0  0  0  0  0  0  0  0  0
   45.4850   34.0860   45.4690 C   0  0  0  0  0  0  0  0  0  0  0  0
   44.5930   35.0870   45.5120 N   0  0  0  0  0  0  0  0  0  0  0  0
   43.9400   34.4510   40.4450 Cl  0  0  0  0  0  0  0  0  0  0  0  0
   44.8920   32.9630   40.4290 C   0  0  0  0  0  0  0  0  0  0  0  0
   46.2620   33.0790   40.6840 C   0  0  0  0  0  0  0  0  0  0  0  0
   46.9410   31.8740   40.6550 C   0  0  0  0  0  0  0  0  0  0  0  0
   46.3250   30.6750   40.3980 C   0  0  0  0  0  0  0  0  0  0  0  0
   44.9740   30.6180   40.1520 C   0  0  0  0  0  0  0  0  0  0  0  0
   44.2450   31.7870   40.1690 C   0  0  0  0  0  0  0  0  0  0  0  0
   49.0818   35.1415   43.2341 H   0  0  0  0  0  0  0  0  0  0  0  0
   49.1779   33.6952   42.3107 H   0  0  0  0  0  0  0  0  0  0  0  0
   48.4780   36.5545   41.2254 H   0  0  0  0  0  0  0  0  0  0  0  0
   49.9325   35.7397   40.8134 H   0  0  0  0  0  0  0  0  0  0  0  0
   48.6007   33.7874   39.8157 H   0  0  0  0  0  0  0  0  0  0  0  0
   47.8504   35.2066   39.1550 H   0  0  0  0  0  0  0  0  0  0  0  0
   45.9980   35.0437   40.6814 H   0  0  0  0  0  0  0  0  0  0  0  0
   43.7927   36.8088   44.5414 H   0  0  0  0  0  0  0  0  0  0  0  0
   45.3315   36.6263   42.5653 H   0  0  0  0  0  0  0  0  0  0  0  0
   45.5415   33.3537   46.2878 H   0  0  0  0  0  0  0  0  0  0  0  0
   48.0242   31.8771   40.8467 H   0  0  0  0  0  0  0  0  0  0  0  0
   46.9191   29.7493   40.3888 H   0  0  0  0  0  0  0  0  0  0  0  0
   44.4832   29.6556   39.9451 H   0  0  0  0  0  0  0  0  0  0  0  0
   43.1620   31.7744   39.9769 H   0  0  0  0  0  0  0  0  0  0  0  0
  1  2  1  0
  1  8  1  0
  3  2  1  0
  4  5  1  0
  4  3  1  0
  5  1  1  0
  6 11  2  0
  7  6  1  0
  8  7  2  0
  8  9  1  0
  9 10  2  0
 10 11  1  0
 13 12  1  0
 13 14  2  0
 14  5  1  0
 15 14  1  0
 16 15  2  0
 17 18  2  0
 17 16  1  0
 18 13  1  0
  2 19  1  0
  2 20  1  0
  3 21  1  0
  3 22  1  0
  4 23  1  0
  4 24  1  0
  5 25  1  6
  6 26  1  0
  7 27  1  0
 10 28  1  0
 15 29  1  0
 16 30  1  0
 17 31  1  0
 18 32  1  0
M  ISO  8  19  13  20  13  21  13  22  13  23  13  24  13  25  13  26  14
M  ISO  6  27  14  28  14  29  14  30  14  31  14  32  14
M  END
>  <minimizedAffinity>  (1) 
-4.98596573

>  <minimizedRMSD>  (1) 
0.588816047

$$$$
