
     RDKit          3D

 28 29  0  0  1  0  0  0  0  0999 V2000
   47.0730   34.4280   42.5680 N   0  0  0  0  0  0  0  0  0  0  0  0
   48.5050   34.5750   42.4140 C   0  0  0  0  0  0  0  0  0  0  0  0
   48.5300   35.3250   41.1030 C   0  0  0  0  0  0  0  0  0  0  0  0
   47.7000   34.3570   40.2860 C   0  0  0  0  0  0  0  0  0  0  0  0
   46.6090   33.9810   41.2790 C   0  0  2  0  0  0  0  0  0  0  0  0
   44.5290   35.8040   44.9080 C   0  0  0  0  0  0  0  0  0  0  0  0
   45.3230   35.7040   43.7520 C   0  0  0  0  0  0  0  0  0  0  0  0
   46.2230   34.6410   43.6700 C   0  0  0  0  0  0  0  0  0  0  0  0
   46.2870   33.7550   44.7180 N   0  0  0  0  0  0  0  0  0  0  0  0
   45.5130   33.8750   45.8170 C   0  0  0  0  0  0  0  0  0  0  0  0
   44.6320   34.9080   45.9050 N   0  0  0  0  0  0  0  0  0  0  0  0
   45.4940   34.7490   40.9410 O   0  0  0  0  0  0  0  0  0  0  0  0
   44.6680   32.3790   40.2490 O   0  0  0  0  0  0  0  0  0  0  0  0
   44.1680   33.7870   40.5460 P   0  0  0  0  0  0  0  0  0  0  0  0
   43.3810   34.3850   39.1510 O   0  0  0  0  0  0  0  0  0  0  0  0
   43.0650   33.7610   41.8210 O   0  0  0  0  0  0  0  0  0  0  0  0
   48.9492   35.1609   43.2322 H   0  0  0  0  0  0  0  0  0  0  0  0
   49.0799   33.6374   42.4319 H   0  0  0  0  0  0  0  0  0  0  0  0
   48.0573   36.3152   41.1811 H   0  0  0  0  0  0  0  0  0  0  0  0
   49.5269   35.5611   40.7025 H   0  0  0  0  0  0  0  0  0  0  0  0
   47.2804   34.8421   39.3924 H   0  0  0  0  0  0  0  0  0  0  0  0
   48.2665   33.4988   39.8953 H   0  0  0  0  0  0  0  0  0  0  0  0
   46.3764   32.9059   41.2790 H   0  0  0  0  0  0  0  0  0  0  0  0
   43.8097   36.6313   44.9984 H   0  0  0  0  0  0  0  0  0  0  0  0
   45.2374   36.4398   42.9388 H   0  0  0  0  0  0  0  0  0  0  0  0
   45.5937   33.1437   46.6348 H   0  0  0  0  0  0  0  0  0  0  0  0
   42.6227   34.9612   39.4214 H   0  0  0  0  0  0  0  0  0  0  0  0
   43.5547   33.7725   42.6813 H   0  0  0  0  0  0  0  0  0  0  0  0
  1  8  1  0
  2  1  1  0
  3  2  1  0
  4  3  1  0
  4  5  1  0
  5  1  1  0
  6 11  2  0
  7  6  1  0
  8  7  2  0
  8  9  1  0
  9 10  2  0
 10 11  1  0
 12  5  1  0
 13 14  2  0
 14 12  1  0
 14 16  1  0
 15 14  1  0
  2 17  1  0
  2 18  1  0
  3 19  1  0
  3 20  1  0
  4 21  1  0
  4 22  1  0
  5 23  1  1
  6 24  1  0
  7 25  1  0
 10 26  1  0
 15 27  1  0
 16 28  1  0
M  ISO  8  17  13  18  13  19  13  20  13  21  13  22  13  23  13  24  14
M  ISO  4  25  14  26  14  27   3  28   3
M  END
>  <minimizedAffinity>  (1) 
-4.85909939

>  <minimizedRMSD>  (1) 
0.694413185

$$$$
