
     RDKit          3D

 38 40  0  0  1  0  0  0  0  0999 V2000
   47.2330   34.5350   42.5670 N   0  0  0  0  0  0  0  0  0  0  0  0
   48.6370   34.1750   42.5730 C   0  0  0  0  0  0  0  0  0  0  0  0
   49.1550   35.1960   41.5910 C   0  0  0  0  0  0  0  0  0  0  0  0
   48.2260   34.8800   40.4410 C   0  0  0  0  0  0  0  0  0  0  0  0
   46.9120   34.6800   41.1720 C   0  0  1  0  0  0  0  0  0  0  0  0
   44.4970   35.8250   44.7090 C   0  0  0  0  0  0  0  0  0  0  0  0
   45.3510   35.7470   43.6120 C   0  0  0  0  0  0  0  0  0  0  0  0
   46.3230   34.7200   43.6080 C   0  0  0  0  0  0  0  0  0  0  0  0
   46.3550   33.8830   44.6740 N   0  0  0  0  0  0  0  0  0  0  0  0
   45.5200   33.9730   45.7290 C   0  0  0  0  0  0  0  0  0  0  0  0
   44.5840   34.9500   45.7490 N   0  0  0  0  0  0  0  0  0  0  0  0
   46.1310   33.5180   40.5960 C   0  0  0  0  0  0  0  0  0  0  0  0
   44.7150   33.9080   40.4700 C   0  0  0  0  0  0  0  0  0  0  0  0
   44.0450   33.4020   39.2110 C   0  0  0  0  0  0  0  0  0  0  0  0
   44.5350   32.0150   38.9580 C   0  0  0  0  0  0  0  0  0  0  0  0
   45.9660   32.1400   38.4910 C   0  0  0  0  0  0  0  0  0  0  0  0
   46.7990   33.0200   39.3680 C   0  0  0  0  0  0  0  0  0  0  0  0
   49.0883   34.2964   43.5688 H   0  0  0  0  0  0  0  0  0  0  0  0
   48.8545   33.1268   42.3199 H   0  0  0  0  0  0  0  0  0  0  0  0
   49.0289   36.2258   41.9565 H   0  0  0  0  0  0  0  0  0  0  0  0
   50.2309   35.1456   41.3677 H   0  0  0  0  0  0  0  0  0  0  0  0
   48.5359   33.9671   39.9113 H   0  0  0  0  0  0  0  0  0  0  0  0
   48.1952   35.6532   39.6592 H   0  0  0  0  0  0  0  0  0  0  0  0
   46.2406   35.5422   41.0465 H   0  0  0  0  0  0  0  0  0  0  0  0
   43.7316   36.6145   44.7364 H   0  0  0  0  0  0  0  0  0  0  0  0
   45.2723   36.4594   42.7776 H   0  0  0  0  0  0  0  0  0  0  0  0
   45.5988   33.2606   46.5635 H   0  0  0  0  0  0  0  0  0  0  0  0
   46.1242   32.6441   41.2641 H   0  0  0  0  0  0  0  0  0  0  0  0
   44.1681   33.5086   41.3369 H   0  0  0  0  0  0  0  0  0  0  0  0
   44.6914   35.0067   40.4225 H   0  0  0  0  0  0  0  0  0  0  0  0
   42.9533   33.3943   39.3455 H   0  0  0  0  0  0  0  0  0  0  0  0
   44.2853   34.0553   38.3593 H   0  0  0  0  0  0  0  0  0  0  0  0
   44.4883   31.4216   39.8830 H   0  0  0  0  0  0  0  0  0  0  0  0
   43.9152   31.5072   38.2043 H   0  0  0  0  0  0  0  0  0  0  0  0
   46.4167   31.1367   38.4738 H   0  0  0  0  0  0  0  0  0  0  0  0
   45.9442   32.6013   37.4926 H   0  0  0  0  0  0  0  0  0  0  0  0
   47.6879   32.4489   39.6741 H   0  0  0  0  0  0  0  0  0  0  0  0
   47.0290   33.9124   38.7674 H   0  0  0  0  0  0  0  0  0  0  0  0
  1  2  1  0
  1  8  1  0
  3  2  1  0
  4  5  1  0
  4  3  1  0
  5  1  1  0
  6 11  2  0
  7  6  1  0
  8  7  2  0
  8  9  1  0
  9 10  2  0
 10 11  1  0
 12  5  1  0
 13 12  1  0
 14 13  1  0
 15 14  1  0
 16 15  1  0
 16 17  1  0
 17 12  1  0
  2 18  1  0
  2 19  1  0
  3 20  1  0
  3 21  1  0
  4 22  1  0
  4 23  1  0
  5 24  1  1
  6 25  1  0
  7 26  1  0
 10 27  1  0
 12 28  1  0
 13 29  1  0
 13 30  1  0
 14 31  1  0
 14 32  1  0
 15 33  1  0
 15 34  1  0
 16 35  1  0
 16 36  1  0
 17 37  1  0
 17 38  1  0
M  ISO  8  18  13  19  13  20  13  21  13  22  13  23  13  24  13  25  14
M  ISO  8  26  14  27  14  28  13  29  13  30  13  31  13  32  13  33  13
M  ISO  5  34  13  35  13  36  13  37  13  38  13
M  END
>  <minimizedAffinity>  (1) 
-4.82541132

>  <minimizedRMSD>  (1) 
1.73438704

$$$$
