
     RDKit          3D

 23 24  0  0  1  0  0  0  0  0999 V2000
   47.3050   34.6600   42.1340 N   0  0  0  0  0  0  0  0  0  0  0  0
   48.7430   34.9120   42.0790 C   0  0  0  0  0  0  0  0  0  0  0  0
   48.8040   35.5620   40.7190 C   0  0  0  0  0  0  0  0  0  0  0  0
   48.0640   34.5210   39.8920 C   0  0  0  0  0  0  0  0  0  0  0  0
   46.9720   34.0890   40.8460 C   0  0  2  0  0  0  0  0  0  0  0  0
   44.6320   36.1220   44.2700 C   0  0  0  0  0  0  0  0  0  0  0  0
   45.5130   36.0040   43.1850 C   0  0  0  0  0  0  0  0  0  0  0  0
   46.3750   34.8920   43.1660 C   0  0  0  0  0  0  0  0  0  0  0  0
   46.3110   33.9990   44.1860 N   0  0  0  0  0  0  0  0  0  0  0  0
   45.4490   34.1400   45.2190 C   0  0  0  0  0  0  0  0  0  0  0  0
   44.6110   35.1920   45.2680 N   0  0  0  0  0  0  0  0  0  0  0  0
   45.6990   34.3770   40.4220 O   0  0  0  0  0  0  0  0  0  0  0  0
   49.0757   35.5908   42.8781 H   0  0  0  0  0  0  0  0  0  0  0  0
   49.3880   34.0317   42.2172 H   0  0  0  0  0  0  0  0  0  0  0  0
   48.2882   36.5335   40.7079 H   0  0  0  0  0  0  0  0  0  0  0  0
   49.8182   35.7982   40.3646 H   0  0  0  0  0  0  0  0  0  0  0  0
   47.6444   34.9616   38.9756 H   0  0  0  0  0  0  0  0  0  0  0  0
   48.7008   33.6960   39.5400 H   0  0  0  0  0  0  0  0  0  0  0  0
   46.9422   32.9911   40.9075 H   0  0  0  0  0  0  0  0  0  0  0  0
   43.9454   36.9801   44.3171 H   0  0  0  0  0  0  0  0  0  0  0  0
   45.5294   36.7526   42.3792 H   0  0  0  0  0  0  0  0  0  0  0  0
   45.4329   33.3903   46.0238 H   0  0  0  0  0  0  0  0  0  0  0  0
   45.1116   34.5099   41.2078 H   0  0  0  0  0  0  0  0  0  0  0  0
  1  8  1  0
  2  1  1  0
  3  2  1  0
  4  3  1  0
  4  5  1  0
  5  1  1  0
  6 11  2  0
  7  6  1  0
  8  7  2  0
  8  9  1  0
  9 10  2  0
 10 11  1  0
 12  5  1  0
  2 13  1  0
  2 14  1  0
  3 15  1  0
  3 16  1  0
  4 17  1  0
  4 18  1  0
  5 19  1  1
  6 20  1  0
  7 21  1  0
 10 22  1  0
 12 23  1  0
M  ISO  8  13  13  14  13  15  13  16  13  17  13  18  13  19  13  20  14
M  ISO  3  21  14  22  14  23   3
M  END
>  <minimizedAffinity>  (1) 
-4.71176291

>  <minimizedRMSD>  (1) 
0.260465682

$$$$
