
     RDKit          3D

 37 39  0  0  1  0  0  0  0  0999 V2000
   47.2630   34.6610   42.3090 N   0  0  0  0  0  0  0  0  0  0  0  0
   48.7010   34.7440   42.2830 C   0  0  0  0  0  0  0  0  0  0  0  0
   48.8630   35.5460   41.0120 C   0  0  0  0  0  0  0  0  0  0  0  0
   48.0730   34.6440   40.0880 C   0  0  0  0  0  0  0  0  0  0  0  0
   46.8690   34.3250   40.9530 C   0  0  1  0  0  0  0  0  0  0  0  0
   44.5150   35.9510   44.4440 C   0  0  0  0  0  0  0  0  0  0  0  0
   45.3890   35.8620   43.3640 C   0  0  0  0  0  0  0  0  0  0  0  0
   46.3450   34.8430   43.3490 C   0  0  0  0  0  0  0  0  0  0  0  0
   46.3500   34.0010   44.4100 N   0  0  0  0  0  0  0  0  0  0  0  0
   45.5140   34.0770   45.4540 C   0  0  0  0  0  0  0  0  0  0  0  0
   44.5860   35.0620   45.4720 N   0  0  0  0  0  0  0  0  0  0  0  0
   46.3340   33.0420   40.7680 N   0  0  0  0  0  0  0  0  0  0  0  0
   44.9410   32.9280   40.5670 C   0  0  0  0  0  0  0  0  0  0  0  0
   44.5380   31.7900   39.6570 C   0  0  0  0  0  0  0  0  0  0  0  0
   45.5260   30.6460   39.7270 C   0  0  0  0  0  0  0  0  0  0  0  0
   46.1800   30.6860   41.0890 C   0  0  0  0  0  0  0  0  0  0  0  0
   47.0750   31.9070   41.1210 C   0  0  0  0  0  0  0  0  0  0  0  0
   49.1004   35.2743   43.1601 H   0  0  0  0  0  0  0  0  0  0  0  0
   49.2330   33.7816   42.3086 H   0  0  0  0  0  0  0  0  0  0  0  0
   48.4195   36.5493   41.0936 H   0  0  0  0  0  0  0  0  0  0  0  0
   49.8977   35.7608   40.7067 H   0  0  0  0  0  0  0  0  0  0  0  0
   48.6374   33.7356   39.8307 H   0  0  0  0  0  0  0  0  0  0  0  0
   47.8256   35.0959   39.1161 H   0  0  0  0  0  0  0  0  0  0  0  0
   45.9976   34.9278   40.6576 H   0  0  0  0  0  0  0  0  0  0  0  0
   43.7583   36.7491   44.4667 H   0  0  0  0  0  0  0  0  0  0  0  0
   45.3279   36.5827   42.5353 H   0  0  0  0  0  0  0  0  0  0  0  0
   45.5804   33.3535   46.2799 H   0  0  0  0  0  0  0  0  0  0  0  0
   44.4626   32.7735   41.5454 H   0  0  0  0  0  0  0  0  0  0  0  0
   44.6152   33.8567   40.0756 H   0  0  0  0  0  0  0  0  0  0  0  0
   44.4920   32.1594   38.6219 H   0  0  0  0  0  0  0  0  0  0  0  0
   43.5561   31.4179   39.9846 H   0  0  0  0  0  0  0  0  0  0  0  0
   45.0011   29.6889   39.5915 H   0  0  0  0  0  0  0  0  0  0  0  0
   46.2821   30.7410   38.9337 H   0  0  0  0  0  0  0  0  0  0  0  0
   45.4125   30.7608   41.8734 H   0  0  0  0  0  0  0  0  0  0  0  0
   46.7624   29.7704   41.2692 H   0  0  0  0  0  0  0  0  0  0  0  0
   47.9021   31.7735   40.4082 H   0  0  0  0  0  0  0  0  0  0  0  0
   47.4804   32.0363   42.1353 H   0  0  0  0  0  0  0  0  0  0  0  0
  1  8  1  0
  2  1  1  0
  3  2  1  0
  4  5  1  0
  4  3  1  0
  5  1  1  0
  6 11  2  0
  7  6  1  0
  8  7  2  0
  8  9  1  0
  9 10  2  0
 10 11  1  0
 12  5  1  0
 12 17  1  0
 13 12  1  0
 14 15  1  0
 14 13  1  0
 15 16  1  0
 16 17  1  0
  2 18  1  0
  2 19  1  0
  3 20  1  0
  3 21  1  0
  4 22  1  0
  4 23  1  0
  5 24  1  6
  6 25  1  0
  7 26  1  0
 10 27  1  0
 13 28  1  0
 13 29  1  0
 14 30  1  0
 14 31  1  0
 15 32  1  0
 15 33  1  0
 16 34  1  0
 16 35  1  0
 17 36  1  0
 17 37  1  0
M  ISO  8  18  13  19  13  20  13  21  13  22  13  23  13  24  13  25  14
M  ISO  8  26  14  27  14  28  13  29  13  30  13  31  13  32  13  33  13
M  ISO  4  34  13  35  13  36  13  37  13
M  END
>  <minimizedAffinity>  (1) 
-4.66326761

>  <minimizedRMSD>  (1) 
0.205520034

$$$$
