
     RDKit          3D

 25 26  0  0  1  0  0  0  0  0999 V2000
   47.2670   34.6680   42.3360 N   0  0  0  0  0  0  0  0  0  0  0  0
   48.7250   34.7850   42.3210 C   0  0  0  0  0  0  0  0  0  0  0  0
   48.8820   35.5560   41.0440 C   0  0  0  0  0  0  0  0  0  0  0  0
   48.0590   34.6760   40.1090 C   0  0  0  0  0  0  0  0  0  0  0  0
   46.9060   34.2780   40.9820 C   0  0  1  0  0  0  0  0  0  0  0  0
   44.5070   35.9520   44.4530 C   0  0  0  0  0  0  0  0  0  0  0  0
   45.3750   35.8900   43.3510 C   0  0  0  0  0  0  0  0  0  0  0  0
   46.3250   34.8660   43.3670 C   0  0  0  0  0  0  0  0  0  0  0  0
   46.3590   33.9990   44.4310 N   0  0  0  0  0  0  0  0  0  0  0  0
   45.5000   34.1050   45.4670 C   0  0  0  0  0  0  0  0  0  0  0  0
   44.5700   35.0860   45.4790 N   0  0  0  0  0  0  0  0  0  0  0  0
   46.7980   32.7600   40.9740 C   0  0  0  0  0  0  0  0  0  0  0  0
   47.6090   32.1840   41.9540 F   0  0  0  0  0  0  0  0  0  0  0  0
   45.4950   32.3300   41.1090 F   0  0  0  0  0  0  0  0  0  0  0  0
   47.2530   32.2450   39.7630 F   0  0  0  0  0  0  0  0  0  0  0  0
   49.1035   35.3435   43.1898 H   0  0  0  0  0  0  0  0  0  0  0  0
   49.2776   33.8353   42.3727 H   0  0  0  0  0  0  0  0  0  0  0  0
   48.4646   36.5705   41.1243 H   0  0  0  0  0  0  0  0  0  0  0  0
   49.9216   35.7273   40.7279 H   0  0  0  0  0  0  0  0  0  0  0  0
   48.6328   33.7968   39.7807 H   0  0  0  0  0  0  0  0  0  0  0  0
   47.7558   35.1811   39.1801 H   0  0  0  0  0  0  0  0  0  0  0  0
   45.9671   34.7386   40.6409 H   0  0  0  0  0  0  0  0  0  0  0  0
   43.7429   36.7430   44.4777 H   0  0  0  0  0  0  0  0  0  0  0  0
   45.3104   36.6085   42.5206 H   0  0  0  0  0  0  0  0  0  0  0  0
   45.5569   33.3920   46.3027 H   0  0  0  0  0  0  0  0  0  0  0  0
  1  8  1  0
  2  1  1  0
  3  2  1  0
  4  5  1  0
  4  3  1  0
  5  1  1  0
  6 11  2  0
  7  8  2  0
  7  6  1  0
  8  9  1  0
  9 10  2  0
 10 11  1  0
 12  5  1  0
 12 14  1  0
 12 13  1  0
 15 12  1  0
  2 16  1  0
  2 17  1  0
  3 18  1  0
  3 19  1  0
  4 20  1  0
  4 21  1  0
  5 22  1  6
  6 23  1  0
  7 24  1  0
 10 25  1  0
M  ISO  8  16  13  17  13  18  13  19  13  20  13  21  13  22  13  23  14
M  ISO  2  24  14  25  14
M  END
>  <minimizedAffinity>  (1) 
-4.60313416

>  <minimizedRMSD>  (1) 
0.3391909

$$$$
