
     RDKit          3D

 44 48  0  0  1  0  0  0  0  0999 V2000
   47.8480   33.8040   43.7180 N   0  0  0  0  0  0  0  0  0  0  0  0
   48.7750   33.2910   42.8270 C   0  0  0  0  0  0  0  0  0  0  0  0
   49.7200   32.4750   43.0030 O   0  0  0  0  0  0  0  0  0  0  0  0
   45.6740   32.9960   44.5960 C   0  0  1  0  0  0  0  0  0  0  0  0
   46.3380   31.8510   44.0910 C   0  0  0  0  0  0  0  0  0  0  0  0
   47.1650   33.0030   44.6860 C   0  0  1  0  0  0  0  0  0  0  0  0
   44.2820   33.5320   42.4840 C   0  0  0  0  0  0  0  0  0  0  0  0
   45.0490   33.9660   43.5930 C   0  0  0  0  0  0  0  0  0  0  0  0
   45.2410   35.3180   43.7500 C   0  0  0  0  0  0  0  0  0  0  0  0
   44.6950   36.1650   42.8440 N   0  0  0  0  0  0  0  0  0  0  0  0
   43.9670   35.7460   41.7910 C   0  0  0  0  0  0  0  0  0  0  0  0
   43.7530   34.3770   41.6040 N   0  0  0  0  0  0  0  0  0  0  0  0
   48.7270   33.7100   41.3680 C   0  0  2  0  0  0  0  0  0  0  0  0
   48.3690   35.1980   41.0760 C   0  0  0  0  0  0  0  0  0  0  0  0
   47.4740   34.0270   40.6940 C   0  0  1  0  0  0  0  0  0  0  0  0
   47.4080   33.7880   39.2040 C   0  0  0  0  0  0  0  0  0  0  0  0
   48.4340   34.4690   38.5670 C   0  0  0  0  0  0  0  0  0  0  0  0
   48.4970   34.4040   37.1700 C   0  0  0  0  0  0  0  0  0  0  0  0
   47.5530   33.6790   36.4760 C   0  0  0  0  0  0  0  0  0  0  0  0
   46.5400   33.0080   37.1370 C   0  0  0  0  0  0  0  0  0  0  0  0
   45.5580   32.2430   36.5020 C   0  0  0  0  0  0  0  0  0  0  0  0
   44.5960   31.6000   37.2630 C   0  0  0  0  0  0  0  0  0  0  0  0
   44.5580   31.6790   38.6510 C   0  0  0  0  0  0  0  0  0  0  0  0
   45.5190   32.4280   39.2750 C   0  0  0  0  0  0  0  0  0  0  0  0
   46.4710   33.0650   38.5110 C   0  0  0  0  0  0  0  0  0  0  0  0
   47.6400   34.8121   43.6820 H   0  0  0  0  0  0  0  0  0  0  0  0
   44.8621   33.1258   45.3267 H   0  0  0  0  0  0  0  0  0  0  0  0
   46.2655   30.8937   44.6279 H   0  0  0  0  0  0  0  0  0  0  0  0
   46.3355   31.3151   43.1304 H   0  0  0  0  0  0  0  0  0  0  0  0
   47.9132   33.1399   45.4806 H   0  0  0  0  0  0  0  0  0  0  0  0
   44.1175   32.4533   42.3453 H   0  0  0  0  0  0  0  0  0  0  0  0
   45.8275   35.7055   44.5961 H   0  0  0  0  0  0  0  0  0  0  0  0
   43.5443   36.4749   41.0839 H   0  0  0  0  0  0  0  0  0  0  0  0
   49.5458   33.0160   41.1274 H   0  0  0  0  0  0  0  0  0  0  0  0
   48.0846   35.8760   41.8942 H   0  0  0  0  0  0  0  0  0  0  0  0
   48.8404   36.0449   40.5559 H   0  0  0  0  0  0  0  0  0  0  0  0
   46.4329   33.7352   40.8966 H   0  0  0  0  0  0  0  0  0  0  0  0
   49.1759   35.0429   39.1417 H   0  0  0  0  0  0  0  0  0  0  0  0
   49.2972   34.9298   36.6284 H   0  0  0  0  0  0  0  0  0  0  0  0
   47.6058   33.6330   35.3782 H   0  0  0  0  0  0  0  0  0  0  0  0
   45.5492   32.1522   35.4058 H   0  0  0  0  0  0  0  0  0  0  0  0
   43.8299   31.0017   36.7481 H   0  0  0  0  0  0  0  0  0  0  0  0
   43.7811   31.1567   39.2285 H   0  0  0  0  0  0  0  0  0  0  0  0
   45.5305   32.5196   40.3711 H   0  0  0  0  0  0  0  0  0  0  0  0
  1  6  1  0
  2  3  2  0
  2  1  1  0
  4  6  1  0
  5  4  1  0
  5  6  1  0
  7  8  2  0
  8  9  1  0
  8  4  1  0
 10  9  2  0
 11 10  1  0
 12 11  2  0
 12  7  1  0
 13  2  1  0
 14 13  1  0
 15 14  1  0
 15 13  1  0
 16 15  1  0
 17 16  2  0
 18 17  1  0
 19 20  1  0
 19 18  2  0
 20 25  2  0
 21 20  1  0
 21 22  2  0
 22 23  1  0
 23 24  2  0
 25 16  1  0
 25 24  1  0
  1 26  1  0
  4 27  1  1
  5 28  1  0
  5 29  1  0
  6 30  1  1
  7 31  1  0
  9 32  1  0
 11 33  1  0
 13 34  1  6
 14 35  1  0
 14 36  1  0
 15 37  1  1
 17 38  1  0
 18 39  1  0
 19 40  1  0
 21 41  1  0
 22 42  1  0
 23 43  1  0
 24 44  1  0
M  ISO  8  27  13  28  13  29  13  30  13  31  14  32  14  33  14  34  13
M  ISO  8  35  13  36  13  37  13  38  14  39  14  40  14  41  14  42  14
M  ISO  2  43  14  44  14
M  END
>  <minimizedAffinity>  (1) 
-5.41991854

>  <minimizedRMSD>  (1) 
3.43606353

$$$$
