
     RDKit          3D

 23 24  0  0  1  0  0  0  0  0999 V2000
   47.2640   34.6320   42.3260 N   0  0  0  0  0  0  0  0  0  0  0  0
   48.7030   34.7200   42.2790 C   0  0  0  0  0  0  0  0  0  0  0  0
   48.8510   35.4970   40.9920 C   0  0  0  0  0  0  0  0  0  0  0  0
   48.0150   34.6360   40.0730 C   0  0  0  0  0  0  0  0  0  0  0  0
   46.8620   34.2580   40.9720 C   0  0  1  0  0  0  0  0  0  0  0  0
   44.5080   35.9490   44.4570 C   0  0  0  0  0  0  0  0  0  0  0  0
   45.3750   35.8660   43.3590 C   0  0  0  0  0  0  0  0  0  0  0  0
   46.3350   34.8330   43.3600 C   0  0  0  0  0  0  0  0  0  0  0  0
   46.3810   33.9620   44.4260 N   0  0  0  0  0  0  0  0  0  0  0  0
   45.5170   34.0860   45.4660 C   0  0  0  0  0  0  0  0  0  0  0  0
   44.5860   35.0780   45.4770 N   0  0  0  0  0  0  0  0  0  0  0  0
   46.7830   32.4250   40.9620 S   0  0  0  0  0  0  0  0  0  0  0  0
   49.1110   35.2683   43.1409 H   0  0  0  0  0  0  0  0  0  0  0  0
   49.2369   33.7589   42.3151 H   0  0  0  0  0  0  0  0  0  0  0  0
   48.4447   36.5154   41.0801 H   0  0  0  0  0  0  0  0  0  0  0  0
   49.8881   35.6577   40.6626 H   0  0  0  0  0  0  0  0  0  0  0  0
   48.5715   33.7476   39.7397 H   0  0  0  0  0  0  0  0  0  0  0  0
   47.7101   35.1399   39.1440 H   0  0  0  0  0  0  0  0  0  0  0  0
   45.9160   34.7262   40.6623 H   0  0  0  0  0  0  0  0  0  0  0  0
   43.7479   36.7437   44.4843 H   0  0  0  0  0  0  0  0  0  0  0  0
   45.3090   36.5813   42.5259 H   0  0  0  0  0  0  0  0  0  0  0  0
   45.5702   33.3785   46.3066 H   0  0  0  0  0  0  0  0  0  0  0  0
   46.7630   31.9617   42.2511 H   0  0  0  0  0  0  0  0  0  0  0  0
  1  8  1  0
  2  1  1  0
  3  2  1  0
  4  5  1  0
  4  3  1  0
  5  1  1  0
  6 11  2  0
  7  8  2  0
  7  6  1  0
  8  9  1  0
  9 10  2  0
 10 11  1  0
 12  5  1  0
  2 13  1  0
  2 14  1  0
  3 15  1  0
  3 16  1  0
  4 17  1  0
  4 18  1  0
  5 19  1  6
  6 20  1  0
  7 21  1  0
 10 22  1  0
 12 23  1  0
M  ISO  8  13  13  14  13  15  13  16  13  17  13  18  13  19  13  20  14
M  ISO  3  21  14  22  14  23  11
M  END
>  <minimizedAffinity>  (1) 
-4.47181225

>  <minimizedRMSD>  (1) 
0.0190610029

$$$$
