
     RDKit          3D

 24 25  0  0  1  0  0  0  0  0999 V2000
   47.2680   34.6420   42.3190 N   0  0  0  0  0  0  0  0  0  0  0  0
   48.7090   34.7440   42.3110 C   0  0  0  0  0  0  0  0  0  0  0  0
   48.8580   35.5400   41.0230 C   0  0  0  0  0  0  0  0  0  0  0  0
   48.0650   34.6360   40.0980 C   0  0  0  0  0  0  0  0  0  0  0  0
   46.8650   34.2900   40.9590 C   0  0  1  0  0  0  0  0  0  0  0  0
   44.5080   35.9550   44.4550 C   0  0  0  0  0  0  0  0  0  0  0  0
   45.3850   35.8580   43.3660 C   0  0  0  0  0  0  0  0  0  0  0  0
   46.3440   34.8240   43.3640 C   0  0  0  0  0  0  0  0  0  0  0  0
   46.3570   33.9810   44.4260 N   0  0  0  0  0  0  0  0  0  0  0  0
   45.4970   34.1010   45.4620 C   0  0  0  0  0  0  0  0  0  0  0  0
   44.5790   35.0820   45.4750 N   0  0  0  0  0  0  0  0  0  0  0  0
   46.5150   32.8630   40.9010 C   0  0  0  0  0  0  0  0  0  0  0  0
   47.3200   32.1870   40.2780 O   0  0  0  0  0  0  0  0  0  0  0  0
   49.0928   35.2903   43.1852 H   0  0  0  0  0  0  0  0  0  0  0  0
   49.2604   33.7933   42.3574 H   0  0  0  0  0  0  0  0  0  0  0  0
   48.4125   36.5426   41.1029 H   0  0  0  0  0  0  0  0  0  0  0  0
   49.8919   35.7493   40.7110 H   0  0  0  0  0  0  0  0  0  0  0  0
   48.6378   33.7364   39.8287 H   0  0  0  0  0  0  0  0  0  0  0  0
   47.8045   35.1005   39.1355 H   0  0  0  0  0  0  0  0  0  0  0  0
   45.9723   34.8301   40.6106 H   0  0  0  0  0  0  0  0  0  0  0  0
   43.7529   36.7546   44.4754 H   0  0  0  0  0  0  0  0  0  0  0  0
   45.3266   36.5724   42.5316 H   0  0  0  0  0  0  0  0  0  0  0  0
   45.5491   33.3906   46.3002 H   0  0  0  0  0  0  0  0  0  0  0  0
   45.6143   32.4440   41.3734 H   0  0  0  0  0  0  0  0  0  0  0  0
  1  8  1  0
  2  1  1  0
  3  2  1  0
  4  5  1  0
  4  3  1  0
  5  1  1  0
  6 11  2  0
  7  6  1  0
  8  7  2  0
  8  9  1  0
  9 10  2  0
 10 11  1  0
 12  5  1  0
 13 12  2  0
  2 14  1  0
  2 15  1  0
  3 16  1  0
  3 17  1  0
  4 18  1  0
  4 19  1  0
  5 20  1  6
  6 21  1  0
  7 22  1  0
 10 23  1  0
 12 24  1  0
M  ISO  8  14  13  15  13  16  13  17  13  18  13  19  13  20  13  21  14
M  ISO  3  22  14  23  14  24   6
M  END
>  <minimizedAffinity>  (1) 
-4.38461637

>  <minimizedRMSD>  (1) 
0.0327131599

$$$$
