
     RDKit          3D

 46 50  0  0  1  0  0  0  0  0999 V2000
   47.2290   34.3000   42.7980 N   0  0  0  0  0  0  0  0  0  0  0  0
   48.5880   33.7860   42.7230 C   0  0  0  0  0  0  0  0  0  0  0  0
   49.1600   34.8580   41.8220 C   0  0  0  0  0  0  0  0  0  0  0  0
   48.1550   34.8310   40.6900 C   0  0  0  0  0  0  0  0  0  0  0  0
   46.8320   34.6830   41.4170 C   0  0  1  0  0  0  0  0  0  0  0  0
   46.0260   33.5810   40.9300 C   0  0  0  0  0  0  0  0  0  0  0  0
   46.5530   32.3460   40.7430 N   0  0  0  0  0  0  0  0  0  0  0  0
   45.8730   31.2770   40.2900 C   0  0  0  0  0  0  0  0  0  0  0  0
   44.5690   31.4280   39.9960 N   0  0  0  0  0  0  0  0  0  0  0  0
   44.0000   32.6190   40.1610 C   0  0  0  0  0  0  0  0  0  0  0  0
   42.6520   32.7150   39.8440 C   0  0  0  0  0  0  0  0  0  0  0  0
   42.0650   33.9620   40.0200 C   0  0  0  0  0  0  0  0  0  0  0  0
   42.7140   35.1030   40.4810 C   0  0  0  0  0  0  0  0  0  0  0  0
   44.0500   34.9080   40.7690 C   0  0  0  0  0  0  0  0  0  0  0  0
   44.6960   33.7300   40.6280 C   0  0  0  0  0  0  0  0  0  0  0  0
   44.5260   35.4630   45.0870 C   0  0  0  0  0  0  0  0  0  0  0  0
   45.3360   35.4060   43.9530 C   0  0  0  0  0  0  0  0  0  0  0  0
   46.3480   34.4620   43.8930 C   0  0  0  0  0  0  0  0  0  0  0  0
   46.5060   33.6270   44.9570 N   0  0  0  0  0  0  0  0  0  0  0  0
   45.7160   33.6880   46.0540 C   0  0  0  0  0  0  0  0  0  0  0  0
   44.7250   34.6070   46.1190 N   0  0  0  0  0  0  0  0  0  0  0  0
   45.9640   32.7480   47.1440 C   0  0  0  0  0  0  0  0  0  0  0  0
   44.9490   32.3500   47.9770 C   0  0  0  0  0  0  0  0  0  0  0  0
   45.2050   31.4600   49.0020 C   0  0  0  0  0  0  0  0  0  0  0  0
   46.5190   31.0140   49.1240 C   0  0  0  0  0  0  0  0  0  0  0  0
   47.5850   31.3910   48.3010 C   0  0  0  0  0  0  0  0  0  0  0  0
   47.2540   32.2830   47.2980 C   0  0  0  0  0  0  0  0  0  0  0  0
   49.0800   33.7602   43.7065 H   0  0  0  0  0  0  0  0  0  0  0  0
   48.6965   32.7487   42.3734 H   0  0  0  0  0  0  0  0  0  0  0  0
   49.1836   35.8380   42.3210 H   0  0  0  0  0  0  0  0  0  0  0  0
   50.2025   34.6900   41.5139 H   0  0  0  0  0  0  0  0  0  0  0  0
   48.3362   33.9778   40.0198 H   0  0  0  0  0  0  0  0  0  0  0  0
   48.2005   35.7220   40.0466 H   0  0  0  0  0  0  0  0  0  0  0  0
   46.2464   35.6071   41.3031 H   0  0  0  0  0  0  0  0  0  0  0  0
   46.3707   30.3043   40.1633 H   0  0  0  0  0  0  0  0  0  0  0  0
   42.0800   31.8514   39.4738 H   0  0  0  0  0  0  0  0  0  0  0  0
   40.9969   34.0550   39.7741 H   0  0  0  0  0  0  0  0  0  0  0  0
   42.2087   36.0722   40.6047 H   0  0  0  0  0  0  0  0  0  0  0  0
   44.6268   35.7690   41.1378 H   0  0  0  0  0  0  0  0  0  0  0  0
   43.7192   36.2086   45.1443 H   0  0  0  0  0  0  0  0  0  0  0  0
   45.1733   36.1019   43.1168 H   0  0  0  0  0  0  0  0  0  0  0  0
   43.9311   32.7397   47.8286 H   0  0  0  0  0  0  0  0  0  0  0  0
   44.4128   31.1213   49.6859 H   0  0  0  0  0  0  0  0  0  0  0  0
   46.7366   30.3052   49.9366 H   0  0  0  0  0  0  0  0  0  0  0  0
   48.6066   31.0079   48.4408 H   0  0  0  0  0  0  0  0  0  0  0  0
   48.0366   32.6299   46.6072 H   0  0  0  0  0  0  0  0  0  0  0  0
  1 18  1  0
  2  1  1  0
  3  2  1  0
  4  5  1  0
  4  3  1  0
  5  1  1  0
  6  5  1  0
  7  6  2  0
  8  7  1  0
  9 10  1  0
  9  8  2  0
 10 15  2  0
 11 12  2  0
 11 10  1  0
 12 13  1  0
 13 14  2  0
 15 14  1  0
 15  6  1  0
 16 21  2  0
 17 16  1  0
 18 17  2  0
 18 19  1  0
 19 20  2  0
 20 21  1  0
 20 22  1  0
 22 27  1  0
 22 23  2  0
 23 24  1  0
 24 25  2  0
 26 25  1  0
 27 26  2  0
  2 28  1  0
  2 29  1  0
  3 30  1  0
  3 31  1  0
  4 32  1  0
  4 33  1  0
  5 34  1  1
  8 35  1  0
 11 36  1  0
 12 37  1  0
 13 38  1  0
 14 39  1  0
 16 40  1  0
 17 41  1  0
 23 42  1  0
 24 43  1  0
 25 44  1  0
 26 45  1  0
 27 46  1  0
M  ISO  8  28  13  29  13  30  13  31  13  32  13  33  13  34  13  35  14
M  ISO  8  36  14  37  14  38  14  39  14  40  14  41  14  42  14  43  14
M  ISO  3  44  14  45  14  46  14
M  END
>  <minimizedAffinity>  (1) 
-7.2699399

>  <minimizedRMSD>  (1) 
0.569697022

$$$$
