
     RDKit          3D

 46 50  0  0  1  0  0  0  0  0999 V2000
   47.3330   34.3980   42.8770 N   0  0  0  0  0  0  0  0  0  0  0  0
   48.7200   33.9200   42.8500 C   0  0  0  0  0  0  0  0  0  0  0  0
   49.3040   35.0410   42.0170 C   0  0  0  0  0  0  0  0  0  0  0  0
   48.3560   35.0310   40.8380 C   0  0  0  0  0  0  0  0  0  0  0  0
   47.0030   34.8220   41.4910 C   0  0  1  0  0  0  0  0  0  0  0  0
   46.2530   33.7200   40.9220 C   0  0  0  0  0  0  0  0  0  0  0  0
   46.8440   32.5370   40.6430 N   0  0  0  0  0  0  0  0  0  0  0  0
   46.2110   31.4650   40.1080 C   0  0  0  0  0  0  0  0  0  0  0  0
   44.9050   31.5760   39.8340 N   0  0  0  0  0  0  0  0  0  0  0  0
   44.2760   32.7200   40.0900 C   0  0  0  0  0  0  0  0  0  0  0  0
   42.9230   32.7750   39.7860 C   0  0  0  0  0  0  0  0  0  0  0  0
   42.2660   33.9690   40.0550 C   0  0  0  0  0  0  0  0  0  0  0  0
   42.8640   35.1010   40.6000 C   0  0  0  0  0  0  0  0  0  0  0  0
   44.2090   34.9540   40.8690 C   0  0  0  0  0  0  0  0  0  0  0  0
   44.9150   33.8260   40.6380 C   0  0  0  0  0  0  0  0  0  0  0  0
   44.5940   35.4790   45.1320 C   0  0  0  0  0  0  0  0  0  0  0  0
   45.4560   35.4850   44.0520 C   0  0  0  0  0  0  0  0  0  0  0  0
   46.4130   34.4870   43.9320 C   0  0  0  0  0  0  0  0  0  0  0  0
   46.4630   33.5300   44.8970 N   0  0  0  0  0  0  0  0  0  0  0  0
   45.6120   33.5280   45.9620 C   0  0  0  0  0  0  0  0  0  0  0  0
   44.6790   34.5110   46.0660 N   0  0  0  0  0  0  0  0  0  0  0  0
   45.9020   30.6960   44.6830 Br  0  0  0  0  0  0  0  0  0  0  0  0
   45.8540   31.1690   46.5240 C   0  0  0  0  0  0  0  0  0  0  0  0
   45.7200   32.4720   46.9630 C   0  0  0  0  0  0  0  0  0  0  0  0
   45.6800   32.8580   48.2870 C   0  0  0  0  0  0  0  0  0  0  0  0
   45.7820   31.8710   49.2520 C   0  0  0  0  0  0  0  0  0  0  0  0
   45.9170   30.5570   48.8470 C   0  0  0  0  0  0  0  0  0  0  0  0
   45.9550   30.1900   47.5160 C   0  0  0  0  0  0  0  0  0  0  0  0
   49.1647   33.8705   43.8549 H   0  0  0  0  0  0  0  0  0  0  0  0
   48.8750   32.8999   42.4688 H   0  0  0  0  0  0  0  0  0  0  0  0
   49.2763   36.0016   42.5523 H   0  0  0  0  0  0  0  0  0  0  0  0
   50.3642   34.9121   41.7538 H   0  0  0  0  0  0  0  0  0  0  0  0
   48.5929   34.2086   40.1470 H   0  0  0  0  0  0  0  0  0  0  0  0
   48.4081   35.9473   40.2316 H   0  0  0  0  0  0  0  0  0  0  0  0
   46.4019   35.7367   41.3809 H   0  0  0  0  0  0  0  0  0  0  0  0
   46.7544   30.5304   39.9046 H   0  0  0  0  0  0  0  0  0  0  0  0
   42.3952   31.9129   39.3521 H   0  0  0  0  0  0  0  0  0  0  0  0
   41.1929   34.0237   39.8196 H   0  0  0  0  0  0  0  0  0  0  0  0
   42.3125   36.0317   40.7990 H   0  0  0  0  0  0  0  0  0  0  0  0
   44.7426   35.8136   41.3008 H   0  0  0  0  0  0  0  0  0  0  0  0
   43.8343   36.2685   45.2300 H   0  0  0  0  0  0  0  0  0  0  0  0
   45.3841   36.2765   43.2915 H   0  0  0  0  0  0  0  0  0  0  0  0
   45.5706   33.9162   48.5667 H   0  0  0  0  0  0  0  0  0  0  0  0
   45.7561   32.1279   50.3213 H   0  0  0  0  0  0  0  0  0  0  0  0
   45.9973   29.7728   49.6142 H   0  0  0  0  0  0  0  0  0  0  0  0
   46.0643   29.1313   47.2380 H   0  0  0  0  0  0  0  0  0  0  0  0
  1 18  1  0
  2  1  1  0
  3  2  1  0
  4  5  1  0
  4  3  1  0
  5  1  1  0
  6  5  1  0
  7  6  2  0
  8  7  1  0
  9 10  1  0
  9  8  2  0
 10 15  2  0
 11 12  2  0
 11 10  1  0
 12 13  1  0
 13 14  2  0
 15 14  1  0
 15  6  1  0
 16 21  2  0
 17 16  1  0
 18 17  2  0
 18 19  1  0
 19 20  2  0
 20 21  1  0
 20 24  1  0
 22 23  1  0
 23 24  2  0
 23 28  1  0
 24 25  1  0
 25 26  2  0
 27 26  1  0
 28 27  2  0
  2 29  1  0
  2 30  1  0
  3 31  1  0
  3 32  1  0
  4 33  1  0
  4 34  1  0
  5 35  1  1
  8 36  1  0
 11 37  1  0
 12 38  1  0
 13 39  1  0
 14 40  1  0
 16 41  1  0
 17 42  1  0
 25 43  1  0
 26 44  1  0
 27 45  1  0
 28 46  1  0
M  ISO  8  29  13  30  13  31  13  32  13  33  13  34  13  35  13  36  14
M  ISO  8  37  14  38  14  39  14  40  14  41  14  42  14  43  14  44  14
M  ISO  2  45  14  46  14
M  END
>  <minimizedAffinity>  (1) 
-6.96590471

>  <minimizedRMSD>  (1) 
0.437719792

$$$$
