
     RDKit          3D

 43 47  0  0  1  0  0  0  0  0999 V2000
   47.1760   34.3380   42.6180 N   0  0  0  0  0  0  0  0  0  0  0  0
   48.5440   33.8090   42.5510 C   0  0  0  0  0  0  0  0  0  0  0  0
   49.1120   34.8500   41.6080 C   0  0  0  0  0  0  0  0  0  0  0  0
   48.1070   34.7860   40.4870 C   0  0  0  0  0  0  0  0  0  0  0  0
   46.7860   34.6740   41.2230 C   0  0  1  0  0  0  0  0  0  0  0  0
   45.9700   33.5610   40.7780 C   0  0  0  0  0  0  0  0  0  0  0  0
   46.4990   32.3260   40.5950 N   0  0  0  0  0  0  0  0  0  0  0  0
   45.8080   31.2460   40.1780 C   0  0  0  0  0  0  0  0  0  0  0  0
   44.4990   31.3890   39.9210 N   0  0  0  0  0  0  0  0  0  0  0  0
   43.9230   32.5810   40.0840 C   0  0  0  0  0  0  0  0  0  0  0  0
   42.5710   32.6650   39.8060 C   0  0  0  0  0  0  0  0  0  0  0  0
   41.9800   33.9120   39.9800 C   0  0  0  0  0  0  0  0  0  0  0  0
   42.6400   35.0610   40.4050 C   0  0  0  0  0  0  0  0  0  0  0  0
   43.9860   34.8770   40.6560 C   0  0  0  0  0  0  0  0  0  0  0  0
   44.6310   33.7000   40.5130 C   0  0  0  0  0  0  0  0  0  0  0  0
   44.5250   35.6160   44.8820 C   0  0  0  0  0  0  0  0  0  0  0  0
   45.3250   35.5040   43.7600 C   0  0  0  0  0  0  0  0  0  0  0  0
   46.3150   34.5340   43.7080 C   0  0  0  0  0  0  0  0  0  0  0  0
   46.4600   33.7160   44.7840 N   0  0  0  0  0  0  0  0  0  0  0  0
   45.6770   33.8220   45.8930 C   0  0  0  0  0  0  0  0  0  0  0  0
   44.7100   34.7770   45.9300 N   0  0  0  0  0  0  0  0  0  0  0  0
   45.9310   32.8840   46.9850 C   0  0  0  0  0  0  0  0  0  0  0  0
   47.0530   32.1490   47.3080 C   0  0  0  0  0  0  0  0  0  0  0  0
   46.6960   31.4380   48.4570 C   0  0  0  0  0  0  0  0  0  0  0  0
   45.3770   31.7890   48.7590 C   0  0  0  0  0  0  0  0  0  0  0  0
   44.9750   32.6450   47.8600 O   0  0  0  0  0  0  0  0  0  0  0  0
   49.0436   33.8145   43.5310 H   0  0  0  0  0  0  0  0  0  0  0  0
   48.6463   32.7595   42.2378 H   0  0  0  0  0  0  0  0  0  0  0  0
   49.1387   35.8467   42.0725 H   0  0  0  0  0  0  0  0  0  0  0  0
   50.1526   34.6694   41.3004 H   0  0  0  0  0  0  0  0  0  0  0  0
   48.2807   33.9066   39.8494 H   0  0  0  0  0  0  0  0  0  0  0  0
   48.1553   35.6517   39.8101 H   0  0  0  0  0  0  0  0  0  0  0  0
   46.2112   35.6003   41.0761 H   0  0  0  0  0  0  0  0  0  0  0  0
   46.3047   30.2727   40.0517 H   0  0  0  0  0  0  0  0  0  0  0  0
   41.9940   31.7926   39.4656 H   0  0  0  0  0  0  0  0  0  0  0  0
   40.9047   33.9967   39.7644 H   0  0  0  0  0  0  0  0  0  0  0  0
   42.1347   36.0300   40.5300 H   0  0  0  0  0  0  0  0  0  0  0  0
   44.5698   35.7458   40.9942 H   0  0  0  0  0  0  0  0  0  0  0  0
   43.7395   36.3850   44.9240 H   0  0  0  0  0  0  0  0  0  0  0  0
   45.1763   36.1843   42.9084 H   0  0  0  0  0  0  0  0  0  0  0  0
   48.0166   32.1274   46.7778 H   0  0  0  0  0  0  0  0  0  0  0  0
   47.3316   30.7362   49.0169 H   0  0  0  0  0  0  0  0  0  0  0  0
   44.7834   31.4108   49.6044 H   0  0  0  0  0  0  0  0  0  0  0  0
  1 18  1  0
  2  1  1  0
  3  2  1  0
  4  5  1  0
  4  3  1  0
  5  1  1  0
  6  5  1  0
  7  6  2  0
  8  7  1  0
  9 10  1  0
  9  8  2  0
 10 15  2  0
 11 12  2  0
 11 10  1  0
 12 13  1  0
 13 14  2  0
 15 14  1  0
 15  6  1  0
 16 21  2  0
 17 16  1  0
 18 17  2  0
 18 19  1  0
 19 20  2  0
 20 21  1  0
 20 22  1  0
 22 23  2  0
 22 26  1  0
 23 24  1  0
 24 25  2  0
 26 25  1  0
  2 27  1  0
  2 28  1  0
  3 29  1  0
  3 30  1  0
  4 31  1  0
  4 32  1  0
  5 33  1  1
  8 34  1  0
 11 35  1  0
 12 36  1  0
 13 37  1  0
 14 38  1  0
 16 39  1  0
 17 40  1  0
 23 41  1  0
 24 42  1  0
 25 43  1  0
M  ISO  8  27  13  28  13  29  13  30  13  31  13  32  13  33  13  34  14
M  ISO  8  35  14  36  14  37  14  38  14  39  14  40  14  41  14  42  14
M  ISO  1  43  14
M  END
>  <minimizedAffinity>  (1) 
-6.75709105

>  <minimizedRMSD>  (1) 
0.223859772

$$$$
