
     RDKit          3D

 38 41  0  0  1  0  0  0  0  0999 V2000
   47.1230   34.4300   42.6040 N   0  0  0  0  0  0  0  0  0  0  0  0
   48.4630   33.8800   42.6330 C   0  0  0  0  0  0  0  0  0  0  0  0
   49.0980   34.8290   41.6480 C   0  0  0  0  0  0  0  0  0  0  0  0
   48.1310   34.6970   40.4890 C   0  0  0  0  0  0  0  0  0  0  0  0
   46.7850   34.6740   41.1750 C   0  0  1  0  0  0  0  0  0  0  0  0
   45.9490   33.5600   40.7790 C   0  0  0  0  0  0  0  0  0  0  0  0
   46.4690   32.3140   40.6380 N   0  0  0  0  0  0  0  0  0  0  0  0
   45.7670   31.2280   40.2630 C   0  0  0  0  0  0  0  0  0  0  0  0
   44.4580   31.3750   40.0080 N   0  0  0  0  0  0  0  0  0  0  0  0
   43.9080   32.5690   40.1320 C   0  0  0  0  0  0  0  0  0  0  0  0
   42.5460   32.6540   39.8590 C   0  0  0  0  0  0  0  0  0  0  0  0
   41.9580   33.9150   39.9930 C   0  0  0  0  0  0  0  0  0  0  0  0
   42.6290   35.0740   40.3730 C   0  0  0  0  0  0  0  0  0  0  0  0
   43.9760   34.8880   40.6230 C   0  0  0  0  0  0  0  0  0  0  0  0
   44.6070   33.7050   40.5150 C   0  0  0  0  0  0  0  0  0  0  0  0
   44.4830   35.9880   44.7240 C   0  0  0  0  0  0  0  0  0  0  0  0
   45.3310   35.8060   43.6390 C   0  0  0  0  0  0  0  0  0  0  0  0
   46.2110   34.7320   43.6440 C   0  0  0  0  0  0  0  0  0  0  0  0
   46.1960   33.9070   44.7250 N   0  0  0  0  0  0  0  0  0  0  0  0
   45.3670   34.0950   45.7750 C   0  0  0  0  0  0  0  0  0  0  0  0
   44.5050   35.1460   45.7700 N   0  0  0  0  0  0  0  0  0  0  0  0
   45.4470   33.1620   46.8490 N   0  0  0  0  0  0  0  0  0  0  0  0
   48.9201   33.9476   43.6313 H   0  0  0  0  0  0  0  0  0  0  0  0
   48.5514   32.8089   42.3985 H   0  0  0  0  0  0  0  0  0  0  0  0
   49.1309   35.8577   42.0363 H   0  0  0  0  0  0  0  0  0  0  0  0
   50.1468   34.6061   41.4022 H   0  0  0  0  0  0  0  0  0  0  0  0
   48.3068   33.7657   39.9307 H   0  0  0  0  0  0  0  0  0  0  0  0
   48.2277   35.5041   39.7479 H   0  0  0  0  0  0  0  0  0  0  0  0
   46.2397   35.6001   40.9405 H   0  0  0  0  0  0  0  0  0  0  0  0
   46.2538   30.2462   40.1682 H   0  0  0  0  0  0  0  0  0  0  0  0
   41.9618   31.7735   39.5533 H   0  0  0  0  0  0  0  0  0  0  0  0
   40.8817   33.9980   39.7818 H   0  0  0  0  0  0  0  0  0  0  0  0
   42.1318   36.0508   40.4661 H   0  0  0  0  0  0  0  0  0  0  0  0
   44.5689   35.7624   40.9295 H   0  0  0  0  0  0  0  0  0  0  0  0
   43.7820   36.8357   44.7265 H   0  0  0  0  0  0  0  0  0  0  0  0
   45.3057   36.5027   42.7881 H   0  0  0  0  0  0  0  0  0  0  0  0
   44.8334   33.2674   47.6695 H   0  0  0  0  0  0  0  0  0  0  0  0
   46.1184   32.3822   46.8048 H   0  0  0  0  0  0  0  0  0  0  0  0
  1  2  1  0
  1 18  1  0
  3  2  1  0
  4  5  1  0
  4  3  1  0
  5  1  1  0
  6  5  1  0
  7  6  2  0
  8  7  1  0
  9 10  1  0
  9  8  2  0
 10 15  2  0
 11 12  2  0
 11 10  1  0
 12 13  1  0
 13 14  2  0
 15 14  1  0
 15  6  1  0
 16 21  2  0
 17 18  2  0
 17 16  1  0
 18 19  1  0
 19 20  2  0
 20 22  1  0
 21 20  1  0
  2 23  1  0
  2 24  1  0
  3 25  1  0
  3 26  1  0
  4 27  1  0
  4 28  1  0
  5 29  1  1
  8 30  1  0
 11 31  1  0
 12 32  1  0
 13 33  1  0
 14 34  1  0
 16 35  1  0
 17 36  1  0
 22 37  1  0
 22 38  1  0
M  ISO  8  23  13  24  13  25  13  26  13  27  13  28  13  29  13  30  14
M  ISO  6  31  14  32  14  33  14  34  14  35  14  36  14
M  END
>  <minimizedAffinity>  (1) 
-6.02616453

>  <minimizedRMSD>  (1) 
0.160756916

$$$$
