
     RDKit          3D

 37 40  0  0  1  0  0  0  0  0999 V2000
   47.1170   34.4260   42.6140 N   0  0  0  0  0  0  0  0  0  0  0  0
   48.4580   33.8620   42.6420 C   0  0  0  0  0  0  0  0  0  0  0  0
   49.0910   34.8180   41.6540 C   0  0  0  0  0  0  0  0  0  0  0  0
   48.1340   34.6970   40.5030 C   0  0  0  0  0  0  0  0  0  0  0  0
   46.7850   34.6700   41.1840 C   0  0  1  0  0  0  0  0  0  0  0  0
   45.9470   33.5560   40.7860 C   0  0  0  0  0  0  0  0  0  0  0  0
   46.4640   32.3080   40.6480 N   0  0  0  0  0  0  0  0  0  0  0  0
   45.7600   31.2260   40.2750 C   0  0  0  0  0  0  0  0  0  0  0  0
   44.4550   31.3740   40.0190 N   0  0  0  0  0  0  0  0  0  0  0  0
   43.9000   32.5690   40.1390 C   0  0  0  0  0  0  0  0  0  0  0  0
   42.5390   32.6640   39.8650 C   0  0  0  0  0  0  0  0  0  0  0  0
   41.9580   33.9180   39.9940 C   0  0  0  0  0  0  0  0  0  0  0  0
   42.6320   35.0760   40.3730 C   0  0  0  0  0  0  0  0  0  0  0  0
   43.9790   34.8910   40.6250 C   0  0  0  0  0  0  0  0  0  0  0  0
   44.6050   33.7050   40.5210 C   0  0  0  0  0  0  0  0  0  0  0  0
   44.4780   36.0050   44.7230 C   0  0  0  0  0  0  0  0  0  0  0  0
   45.3280   35.8140   43.6420 C   0  0  0  0  0  0  0  0  0  0  0  0
   46.2020   34.7380   43.6490 C   0  0  0  0  0  0  0  0  0  0  0  0
   46.1830   33.9140   44.7300 N   0  0  0  0  0  0  0  0  0  0  0  0
   45.3470   34.1100   45.7850 C   0  0  0  0  0  0  0  0  0  0  0  0
   44.4930   35.1700   45.7670 N   0  0  0  0  0  0  0  0  0  0  0  0
   45.3610   33.2410   46.8740 O   0  0  0  0  0  0  0  0  0  0  0  0
   48.9182   33.9239   43.6392 H   0  0  0  0  0  0  0  0  0  0  0  0
   48.5427   32.7904   42.4084 H   0  0  0  0  0  0  0  0  0  0  0  0
   49.1251   35.8447   42.0474 H   0  0  0  0  0  0  0  0  0  0  0  0
   50.1382   34.5920   41.4046 H   0  0  0  0  0  0  0  0  0  0  0  0
   48.3103   33.7698   39.9380 H   0  0  0  0  0  0  0  0  0  0  0  0
   48.2331   35.5107   39.7694 H   0  0  0  0  0  0  0  0  0  0  0  0
   46.2408   35.5957   40.9453 H   0  0  0  0  0  0  0  0  0  0  0  0
   46.2445   30.2428   40.1824 H   0  0  0  0  0  0  0  0  0  0  0  0
   41.9507   31.7859   39.5603 H   0  0  0  0  0  0  0  0  0  0  0  0
   40.8823   34.0035   39.7804 H   0  0  0  0  0  0  0  0  0  0  0  0
   42.1358   36.0535   40.4641 H   0  0  0  0  0  0  0  0  0  0  0  0
   44.5736   35.7653   40.9284 H   0  0  0  0  0  0  0  0  0  0  0  0
   43.7815   36.8564   44.7205 H   0  0  0  0  0  0  0  0  0  0  0  0
   45.3082   36.5088   42.7894 H   0  0  0  0  0  0  0  0  0  0  0  0
   44.7482   33.3931   47.6365 H   0  0  0  0  0  0  0  0  0  0  0  0
  1  2  1  0
  1 18  1  0
  3  2  1  0
  4  5  1  0
  4  3  1  0
  5  1  1  0
  6  5  1  0
  7  6  2  0
  8  7  1  0
  9 10  1  0
  9  8  2  0
 10 15  2  0
 11 12  2  0
 11 10  1  0
 12 13  1  0
 13 14  2  0
 15 14  1  0
 15  6  1  0
 16 21  2  0
 17 18  2  0
 17 16  1  0
 18 19  1  0
 19 20  2  0
 20 22  1  0
 21 20  1  0
  2 23  1  0
  2 24  1  0
  3 25  1  0
  3 26  1  0
  4 27  1  0
  4 28  1  0
  5 29  1  1
  8 30  1  0
 11 31  1  0
 12 32  1  0
 13 33  1  0
 14 34  1  0
 16 35  1  0
 17 36  1  0
 22 37  1  0
M  ISO  8  23  13  24  13  25  13  26  13  27  13  28  13  29  13  30  14
M  ISO  7  31  14  32  14  33  14  34  14  35  14  36  14  37   3
M  END
>  <minimizedAffinity>  (1) 
-5.94745302

>  <minimizedRMSD>  (1) 
0.170558572

$$$$
