
     RDKit          3D

 39 42  0  0  1  0  0  0  0  0999 V2000
   47.1670   34.3440   42.6480 N   0  0  0  0  0  0  0  0  0  0  0  0
   48.5250   33.8090   42.6060 C   0  0  0  0  0  0  0  0  0  0  0  0
   49.1200   34.8110   41.6640 C   0  0  0  0  0  0  0  0  0  0  0  0
   48.1150   34.7760   40.5270 C   0  0  0  0  0  0  0  0  0  0  0  0
   46.7890   34.6730   41.2500 C   0  0  1  0  0  0  0  0  0  0  0  0
   45.9670   33.5670   40.8020 C   0  0  0  0  0  0  0  0  0  0  0  0
   46.4930   32.3300   40.6210 N   0  0  0  0  0  0  0  0  0  0  0  0
   45.7970   31.2520   40.2020 C   0  0  0  0  0  0  0  0  0  0  0  0
   44.4860   31.4020   39.9420 N   0  0  0  0  0  0  0  0  0  0  0  0
   43.9260   32.5930   40.1040 C   0  0  0  0  0  0  0  0  0  0  0  0
   42.5680   32.6890   39.8240 C   0  0  0  0  0  0  0  0  0  0  0  0
   41.9800   33.9360   39.9950 C   0  0  0  0  0  0  0  0  0  0  0  0
   42.6450   35.0830   40.4210 C   0  0  0  0  0  0  0  0  0  0  0  0
   43.9900   34.8920   40.6760 C   0  0  0  0  0  0  0  0  0  0  0  0
   44.6290   33.7110   40.5340 C   0  0  0  0  0  0  0  0  0  0  0  0
   44.5310   35.6970   44.9000 C   0  0  0  0  0  0  0  0  0  0  0  0
   45.3500   35.5810   43.7870 C   0  0  0  0  0  0  0  0  0  0  0  0
   46.2860   34.5600   43.7310 C   0  0  0  0  0  0  0  0  0  0  0  0
   46.3620   33.7070   44.7850 N   0  0  0  0  0  0  0  0  0  0  0  0
   45.5620   33.8190   45.8750 C   0  0  0  0  0  0  0  0  0  0  0  0
   44.6440   34.8210   45.9270 N   0  0  0  0  0  0  0  0  0  0  0  0
   45.6930   32.8480   47.0070 C   0  0  0  0  0  0  0  0  0  0  0  0
   49.0099   33.8272   43.5932 H   0  0  0  0  0  0  0  0  0  0  0  0
   48.6174   32.7543   42.3076 H   0  0  0  0  0  0  0  0  0  0  0  0
   49.1776   35.8099   42.1210 H   0  0  0  0  0  0  0  0  0  0  0  0
   50.1538   34.5888   41.3610 H   0  0  0  0  0  0  0  0  0  0  0  0
   48.2811   33.9029   39.8789 H   0  0  0  0  0  0  0  0  0  0  0  0
   48.1805   35.6502   39.8626 H   0  0  0  0  0  0  0  0  0  0  0  0
   46.2191   35.6008   41.0936 H   0  0  0  0  0  0  0  0  0  0  0  0
   46.2892   30.2763   40.0765 H   0  0  0  0  0  0  0  0  0  0  0  0
   41.9868   31.8194   39.4834 H   0  0  0  0  0  0  0  0  0  0  0  0
   40.9055   34.0242   39.7769 H   0  0  0  0  0  0  0  0  0  0  0  0
   42.1443   36.0547   40.5437 H   0  0  0  0  0  0  0  0  0  0  0  0
   44.5774   35.7575   41.0164 H   0  0  0  0  0  0  0  0  0  0  0  0
   43.7857   36.5046   44.9491 H   0  0  0  0  0  0  0  0  0  0  0  0
   45.2576   36.2941   42.9545 H   0  0  0  0  0  0  0  0  0  0  0  0
   45.6202   33.3873   47.9630 H   0  0  0  0  0  0  0  0  0  0  0  0
   44.8874   32.1015   46.9449 H   0  0  0  0  0  0  0  0  0  0  0  0
   46.6676   32.3417   46.9449 H   0  0  0  0  0  0  0  0  0  0  0  0
  1 18  1  0
  2  1  1  0
  3  2  1  0
  4  5  1  0
  4  3  1  0
  5  1  1  0
  6  5  1  0
  7  6  2  0
  8  7  1  0
  9 10  1  0
  9  8  2  0
 10 15  2  0
 11 12  2  0
 11 10  1  0
 12 13  1  0
 13 14  2  0
 15 14  1  0
 15  6  1  0
 16 21  2  0
 17 16  1  0
 18 17  2  0
 18 19  1  0
 19 20  2  0
 20 21  1  0
 20 22  1  0
  2 23  1  0
  2 24  1  0
  3 25  1  0
  3 26  1  0
  4 27  1  0
  4 28  1  0
  5 29  1  1
  8 30  1  0
 11 31  1  0
 12 32  1  0
 13 33  1  0
 14 34  1  0
 16 35  1  0
 17 36  1  0
 22 37  1  0
 22 38  1  0
 22 39  1  0
M  ISO  8  23  13  24  13  25  13  26  13  27  13  28  13  29  13  30  14
M  ISO  8  31  14  32  14  33  14  34  14  35  14  36  14  37   8  38   8
M  ISO  1  39   8
M  END
>  <minimizedAffinity>  (1) 
-5.80049276

>  <minimizedRMSD>  (1) 
0.0349036716

$$$$
