
     RDKit          3D

 25 25  0  0  0  0  0  0  0  0999 V2000
   45.2870   40.2650   44.3850 C   0  0  0  0  0  0  0  0  0  0  0  0
   44.9040   37.8440   44.6530 C   0  0  0  0  0  0  0  0  0  0  0  0
   45.3210   38.8630   43.9060 C   0  0  0  0  0  0  0  0  0  0  0  0
   44.9740   36.5010   44.1020 C   0  0  0  0  0  0  0  0  0  0  0  0
   45.0260   36.3910   42.6920 C   0  0  0  0  0  0  0  0  0  0  0  0
   45.0930   35.1070   42.1150 C   0  0  0  0  0  0  0  0  0  0  0  0
   45.1060   34.0330   42.9630 N   0  0  0  0  0  0  0  0  0  0  0  0
   45.0550   34.1840   44.3120 C   0  0  0  0  0  0  0  0  0  0  0  0
   44.9900   35.4000   44.8530 N   0  0  0  0  0  0  0  0  0  0  0  0
   44.7890   40.3900   45.6460 O   0  0  0  0  0  0  0  0  0  0  0  0
   42.8220   42.0660   45.7080 O   0  0  0  0  0  0  0  0  0  0  0  0
   44.3050   41.9680   45.9960 P   0  0  1  0  0  0  0  0  0  0  0  0
   44.6020   42.3420   47.6020 O   0  0  0  0  0  0  0  0  0  0  0  0
   45.0920   43.1100   45.0430 O   0  0  0  0  0  0  0  0  0  0  0  0
   45.0330   44.4600   45.4200 C   0  0  0  0  0  0  0  0  0  0  0  0
   46.0400   45.0460   45.8960 O   0  0  0  0  0  0  0  0  0  0  0  0
   44.6574   40.8528   43.7008 H   0  0  0  0  0  0  0  0  0  0  0  0
   46.3252   40.6279   44.4066 H   0  0  0  0  0  0  0  0  0  0  0  0
   44.5141   38.0146   45.6673 H   0  0  0  0  0  0  0  0  0  0  0  0
   45.7050   38.6573   42.8959 H   0  0  0  0  0  0  0  0  0  0  0  0
   45.0143   37.2903   42.0587 H   0  0  0  0  0  0  0  0  0  0  0  0
   45.1333   34.9731   41.0239 H   0  0  0  0  0  0  0  0  0  0  0  0
   45.0674   33.2967   44.9620 H   0  0  0  0  0  0  0  0  0  0  0  0
   44.1041   41.7150   48.1844 H   0  0  0  0  0  0  0  0  0  0  0  0
   44.0914   45.0153   45.2976 H   0  0  0  0  0  0  0  0  0  0  0  0
  1 10  1  0
  3  1  1  0
  3  2  2  0
  4  2  1  0
  4  9  2  0
  5  4  1  0
  6  5  2  0
  6  7  1  0
  7  8  2  0
  8  9  1  0
 10 12  1  0
 12 11  2  0
 12 13  1  0
 14 15  1  0
 14 12  1  0
 15 16  2  0
  1 17  1  0
  1 18  1  0
  2 19  1  0
  3 20  1  0
  5 21  1  0
  6 22  1  0
  8 23  1  0
 13 24  1  0
 15 25  1  0
M  ISO  7  17   8  18   8  21  14  22  14  23  14  24   3  25   6
M  END
>  <minimizedAffinity>  (1) 
-2.32287383

>  <minimizedRMSD>  (1) 
0.660947919

$$$$
