
     RDKit          3D

 29 29  0  0  0  0  0  0  0  0999 V2000
   45.2950   40.2190   44.3890 C   0  0  0  0  0  0  0  0  0  0  0  0
   44.8970   37.8020   44.6610 C   0  0  0  0  0  0  0  0  0  0  0  0
   45.3180   38.8180   43.9250 C   0  0  0  0  0  0  0  0  0  0  0  0
   44.9720   36.4660   44.0880 C   0  0  0  0  0  0  0  0  0  0  0  0
   45.0200   36.3540   42.6860 C   0  0  0  0  0  0  0  0  0  0  0  0
   45.0930   35.0820   42.0990 C   0  0  0  0  0  0  0  0  0  0  0  0
   45.1130   34.0050   42.9330 N   0  0  0  0  0  0  0  0  0  0  0  0
   45.0650   34.1490   44.2830 C   0  0  0  0  0  0  0  0  0  0  0  0
   44.9950   35.3580   44.8420 N   0  0  0  0  0  0  0  0  0  0  0  0
   44.8130   40.3410   45.6730 O   0  0  0  0  0  0  0  0  0  0  0  0
   42.8560   42.0210   45.7250 O   0  0  0  0  0  0  0  0  0  0  0  0
   44.3280   41.9240   46.0280 P   0  0  1  0  0  0  0  0  0  0  0  0
   44.6350   42.2860   47.6410 O   0  0  0  0  0  0  0  0  0  0  0  0
   45.1360   43.0740   45.0840 O   0  0  0  0  0  0  0  0  0  0  0  0
   44.7020   44.3600   45.3200 C   0  0  0  0  0  0  0  0  0  0  0  0
   45.8730   45.1170   45.9450 C   0  0  0  0  0  0  0  0  0  0  0  0
   44.6528   40.8037   43.7140 H   0  0  0  0  0  0  0  0  0  0  0  0
   46.3305   40.5900   44.3839 H   0  0  0  0  0  0  0  0  0  0  0  0
   44.5023   37.9622   45.6752 H   0  0  0  0  0  0  0  0  0  0  0  0
   45.7045   38.6079   42.9168 H   0  0  0  0  0  0  0  0  0  0  0  0
   45.0005   37.2556   42.0562 H   0  0  0  0  0  0  0  0  0  0  0  0
   45.1326   34.9589   41.0066 H   0  0  0  0  0  0  0  0  0  0  0  0
   45.0841   33.2556   44.9244 H   0  0  0  0  0  0  0  0  0  0  0  0
   44.1161   41.6741   48.2211 H   0  0  0  0  0  0  0  0  0  0  0  0
   44.4040   44.8379   44.3751 H   0  0  0  0  0  0  0  0  0  0  0  0
   43.8290   44.3639   45.9892 H   0  0  0  0  0  0  0  0  0  0  0  0
   45.7978   45.0684   47.0413 H   0  0  0  0  0  0  0  0  0  0  0  0
   46.8197   44.6595   45.6218 H   0  0  0  0  0  0  0  0  0  0  0  0
   45.8445   46.1681   45.6218 H   0  0  0  0  0  0  0  0  0  0  0  0
  1 10  1  0
  3  1  1  0
  3  2  2  0
  4  2  1  0
  4  9  2  0
  5  4  1  0
  6  5  2  0
  6  7  1  0
  7  8  2  0
  8  9  1  0
 10 12  1  0
 12 11  2  0
 12 13  1  0
 14 15  1  0
 14 12  1  0
 15 16  1  0
  1 17  1  0
  1 18  1  0
  2 19  1  0
  3 20  1  0
  5 21  1  0
  6 22  1  0
  8 23  1  0
 13 24  1  0
 15 25  1  0
 15 26  1  0
 16 27  1  0
 16 28  1  0
 16 29  1  0
M  ISO  8  17   8  18   8  21  14  22  14  23  14  24   3  25   8  26   8
M  ISO  3  27   8  28   8  29   8
M  END
>  <minimizedAffinity>  (1) 
-2.23078918

>  <minimizedRMSD>  (1) 
0.829376578

$$$$
