
     RDKit          3D

 27 27  0  0  0  0  0  0  0  0999 V2000
   45.1800   40.5020   44.2410 C   0  0  0  0  0  0  0  0  0  0  0  0
   44.9600   38.0870   44.6260 C   0  0  0  0  0  0  0  0  0  0  0  0
   45.2350   39.0830   43.8040 C   0  0  0  0  0  0  0  0  0  0  0  0
   45.0250   36.7160   44.1240 C   0  0  0  0  0  0  0  0  0  0  0  0
   45.1810   36.5460   42.7390 C   0  0  0  0  0  0  0  0  0  0  0  0
   45.2370   35.2360   42.2300 C   0  0  0  0  0  0  0  0  0  0  0  0
   45.1350   34.2060   43.1290 N   0  0  0  0  0  0  0  0  0  0  0  0
   44.9840   34.4160   44.4540 C   0  0  0  0  0  0  0  0  0  0  0  0
   44.9330   35.6520   44.9200 N   0  0  0  0  0  0  0  0  0  0  0  0
   44.9870   40.6440   45.5880 O   0  0  0  0  0  0  0  0  0  0  0  0
   42.8800   42.1400   45.5360 O   0  0  0  0  0  0  0  0  0  0  0  0
   44.3250   42.1520   45.9920 P   0  0  1  0  0  0  0  0  0  0  0  0
   44.4380   42.4330   47.6370 O   0  0  0  0  0  0  0  0  0  0  0  0
   45.0870   43.4290   45.1890 O   0  0  0  0  0  0  0  0  0  0  0  0
   45.6450   44.5240   45.8180 C   0  0  0  0  0  0  0  0  0  0  0  0
   45.5120   44.8430   47.0240 O   0  0  0  0  0  0  0  0  0  0  0  0
   46.4600   45.4040   45.0570 N   0  0  0  0  0  0  0  0  0  0  0  0
   44.3510   40.9980   43.7148 H   0  0  0  0  0  0  0  0  0  0  0  0
   46.1526   40.9561   44.0005 H   0  0  0  0  0  0  0  0  0  0  0  0
   44.6862   38.2861   45.6726 H   0  0  0  0  0  0  0  0  0  0  0  0
   45.5132   38.8554   42.7644 H   0  0  0  0  0  0  0  0  0  0  0  0
   45.2575   37.4151   42.0691 H   0  0  0  0  0  0  0  0  0  0  0  0
   45.3578   35.0455   41.1534 H   0  0  0  0  0  0  0  0  0  0  0  0
   44.9037   33.5622   45.1429 H   0  0  0  0  0  0  0  0  0  0  0  0
   44.1178   41.6368   48.1306 H   0  0  0  0  0  0  0  0  0  0  0  0
   46.8868   46.2274   45.5050 H   0  0  0  0  0  0  0  0  0  0  0  0
   46.6241   45.2187   44.0572 H   0  0  0  0  0  0  0  0  0  0  0  0
  1 10  1  0
  3  1  1  0
  3  2  2  0
  4  2  1  0
  4  9  2  0
  5  4  1  0
  6  5  2  0
  6  7  1  0
  7  8  2  0
  8  9  1  0
 10 12  1  0
 12 11  2  0
 12 13  1  0
 14 15  1  0
 14 12  1  0
 15 16  2  0
 17 15  1  0
  1 18  1  0
  1 19  1  0
  2 20  1  0
  3 21  1  0
  5 22  1  0
  6 23  1  0
  8 24  1  0
 13 25  1  0
 17 26  1  0
 17 27  1  0
M  ISO  6  18   8  19   8  22  14  23  14  24  14  25   3
M  END
>  <minimizedAffinity>  (1) 
-1.97170103

>  <minimizedRMSD>  (1) 
0.502913833

$$$$
