
     RDKit          3D

 35 38  0  0  0  0  0  0  0  0999 V2000
   45.4140   33.4960   41.0770 F   0  0  0  0  0  0  0  0  0  0  0  0
   46.5850   34.1890   41.0510 C   0  0  0  0  0  0  0  0  0  0  0  0
   47.0640   34.8690   42.1430 C   0  0  0  0  0  0  0  0  0  0  0  0
   48.2530   35.5270   41.9920 C   0  0  0  0  0  0  0  0  0  0  0  0
   48.9850   35.5500   40.8370 C   0  0  0  0  0  0  0  0  0  0  0  0
   48.4570   34.8450   39.7600 C   0  0  0  0  0  0  0  0  0  0  0  0
   47.2580   34.1570   39.8470 C   0  0  0  0  0  0  0  0  0  0  0  0
   46.7910   33.4490   38.6600 C   0  0  0  0  0  0  0  0  0  0  0  0
   45.5600   32.8570   38.4650 C   0  0  0  0  0  0  0  0  0  0  0  0
   45.2430   32.2190   37.2960 C   0  0  0  0  0  0  0  0  0  0  0  0
   46.1620   32.1450   36.2500 C   0  0  0  0  0  0  0  0  0  0  0  0
   45.8120   31.5080   35.1170 N   0  0  0  0  0  0  0  0  0  0  0  0
   46.6820   31.4160   34.0800 C   0  0  0  0  0  0  0  0  0  0  0  0
   47.9400   31.9940   34.2140 C   0  0  0  0  0  0  0  0  0  0  0  0
   48.3010   32.6480   35.3800 C   0  0  0  0  0  0  0  0  0  0  0  0
   47.4040   32.7340   36.4300 C   0  0  0  0  0  0  0  0  0  0  0  0
   47.6960   33.3710   37.6180 C   0  0  0  0  0  0  0  0  0  0  0  0
   44.5110   35.7050   44.8150 C   0  0  0  0  0  0  0  0  0  0  0  0
   45.2620   35.7650   43.6310 C   0  0  0  0  0  0  0  0  0  0  0  0
   46.2730   34.8330   43.3560 C   0  0  0  0  0  0  0  0  0  0  0  0
   46.4560   33.8870   44.3160 N   0  0  0  0  0  0  0  0  0  0  0  0
   45.7310   33.8420   45.4420 C   0  0  0  0  0  0  0  0  0  0  0  0
   44.7620   34.7400   45.7000 N   0  0  0  0  0  0  0  0  0  0  0  0
   48.6481   36.0758   42.8595 H   0  0  0  0  0  0  0  0  0  0  0  0
   49.9376   36.0952   40.7636 H   0  0  0  0  0  0  0  0  0  0  0  0
   49.0095   34.8336   38.8089 H   0  0  0  0  0  0  0  0  0  0  0  0
   44.8127   32.8988   39.2711 H   0  0  0  0  0  0  0  0  0  0  0  0
   44.2506   31.7588   37.1804 H   0  0  0  0  0  0  0  0  0  0  0  0
   46.3986   30.8955   33.1533 H   0  0  0  0  0  0  0  0  0  0  0  0
   48.6576   31.9308   33.3827 H   0  0  0  0  0  0  0  0  0  0  0  0
   49.3002   33.0988   35.4714 H   0  0  0  0  0  0  0  0  0  0  0  0
   48.6861   33.8343   37.7409 H   0  0  0  0  0  0  0  0  0  0  0  0
   43.7229   36.4470   45.0110 H   0  0  0  0  0  0  0  0  0  0  0  0
   45.0527   36.5615   42.9018 H   0  0  0  0  0  0  0  0  0  0  0  0
   45.9335   33.0486   46.1765 H   0  0  0  0  0  0  0  0  0  0  0  0
  2  1  1  0
  2  3  2  0
  3 20  1  0
  4  3  1  0
  5  4  2  0
  6  7  2  0
  6  5  1  0
  7  2  1  0
  8  7  1  0
  9  8  2  0
 10  9  1  0
 11 16  1  0
 11 10  2  0
 12 11  1  0
 13 14  1  0
 13 12  2  0
 14 15  2  0
 15 16  1  0
 16 17  2  0
 17  8  1  0
 18 23  2  0
 19 18  1  0
 20 19  2  0
 20 21  1  0
 21 22  2  0
 22 23  1  0
  4 24  1  0
  5 25  1  0
  6 26  1  0
  9 27  1  0
 10 28  1  0
 13 29  1  0
 14 30  1  0
 15 31  1  0
 17 32  1  0
 18 33  1  0
 19 34  1  0
 22 35  1  0
M  ISO  8  24  14  25  14  26  14  27  14  28  14  29  14  30  14  31  14
M  ISO  4  32  14  33  14  34  14  35  14
M  END
>  <minimizedAffinity>  (1) 
-6.45428801

>  <minimizedRMSD>  (1) 
0.845552862

$$$$
