
     RDKit          3D

 30 32  0  0  0  0  0  0  0  0999 V2000
   45.1650   33.4540   41.1030 F   0  0  0  0  0  0  0  0  0  0  0  0
   46.3730   34.0690   41.0060 C   0  0  0  0  0  0  0  0  0  0  0  0
   46.8900   34.8040   42.0320 C   0  0  0  0  0  0  0  0  0  0  0  0
   48.1260   35.3900   41.8340 C   0  0  0  0  0  0  0  0  0  0  0  0
   48.8490   35.2710   40.6760 C   0  0  0  0  0  0  0  0  0  0  0  0
   48.2850   34.5160   39.6670 C   0  0  0  0  0  0  0  0  0  0  0  0
   47.0590   33.9160   39.8170 C   0  0  0  0  0  0  0  0  0  0  0  0
   44.4690   36.0690   44.6640 C   0  0  0  0  0  0  0  0  0  0  0  0
   45.2120   35.9780   43.4770 C   0  0  0  0  0  0  0  0  0  0  0  0
   46.1050   34.9200   43.2580 C   0  0  0  0  0  0  0  0  0  0  0  0
   46.1940   34.0120   44.2530 N   0  0  0  0  0  0  0  0  0  0  0  0
   45.4770   34.1030   45.3920 C   0  0  0  0  0  0  0  0  0  0  0  0
   44.6330   35.1070   45.5950 N   0  0  0  0  0  0  0  0  0  0  0  0
   48.1030   34.6050   37.1460 Cl  0  0  0  0  0  0  0  0  0  0  0  0
   46.9090   33.3820   37.4530 C   0  0  0  0  0  0  0  0  0  0  0  0
   46.4640   33.1090   38.7270 C   0  0  0  0  0  0  0  0  0  0  0  0
   45.5220   32.1630   39.0820 C   0  0  0  0  0  0  0  0  0  0  0  0
   44.9730   31.4150   38.0360 C   0  0  0  0  0  0  0  0  0  0  0  0
   45.3750   31.6360   36.7320 C   0  0  0  0  0  0  0  0  0  0  0  0
   46.3240   32.6030   36.4550 C   0  0  0  0  0  0  0  0  0  0  0  0
   48.5540   35.9863   42.6533 H   0  0  0  0  0  0  0  0  0  0  0  0
   49.8304   35.7532   40.5562 H   0  0  0  0  0  0  0  0  0  0  0  0
   48.8309   34.3921   38.7201 H   0  0  0  0  0  0  0  0  0  0  0  0
   43.7713   36.9029   44.8307 H   0  0  0  0  0  0  0  0  0  0  0  0
   45.0914   36.7513   42.7041 H   0  0  0  0  0  0  0  0  0  0  0  0
   45.5940   33.3309   46.1668 H   0  0  0  0  0  0  0  0  0  0  0  0
   45.2208   32.0070   40.1284 H   0  0  0  0  0  0  0  0  0  0  0  0
   44.2167   30.6461   38.2521 H   0  0  0  0  0  0  0  0  0  0  0  0
   44.9399   31.0425   35.9144 H   0  0  0  0  0  0  0  0  0  0  0  0
   46.6283   32.7635   35.4102 H   0  0  0  0  0  0  0  0  0  0  0  0
  2  1  1  0
  2  3  2  0
  3 10  1  0
  4  3  1  0
  5  4  2  0
  6  7  2  0
  6  5  1  0
  7  2  1  0
  8 13  2  0
  9  8  1  0
 10  9  2  0
 10 11  1  0
 11 12  2  0
 12 13  1  0
 14 15  1  0
 15 16  2  0
 16 17  1  0
 16  7  1  0
 18 17  2  0
 19 18  1  0
 20 19  2  0
 20 15  1  0
  4 21  1  0
  5 22  1  0
  6 23  1  0
  8 24  1  0
  9 25  1  0
 12 26  1  0
 17 27  1  0
 18 28  1  0
 19 29  1  0
 20 30  1  0
M  ISO  8  21  14  22  14  23  14  24  14  25  14  26  14  27  14  28  14
M  ISO  2  29  14  30  14
M  END
>  <minimizedAffinity>  (1) 
-6.13118696

>  <minimizedRMSD>  (1) 
0.213171884

$$$$
