
     RDKit          3D

 34 36  0  0  0  0  0  0  0  0999 V2000
   45.0540   33.4980   41.0830 F   0  0  0  0  0  0  0  0  0  0  0  0
   46.2840   34.0850   40.9680 C   0  0  0  0  0  0  0  0  0  0  0  0
   46.8390   34.7850   42.0040 C   0  0  0  0  0  0  0  0  0  0  0  0
   48.0800   35.3360   41.7860 C   0  0  0  0  0  0  0  0  0  0  0  0
   48.7720   35.2240   40.6100 C   0  0  0  0  0  0  0  0  0  0  0  0
   48.1630   34.5040   39.5930 C   0  0  0  0  0  0  0  0  0  0  0  0
   46.9190   33.9290   39.7580 C   0  0  0  0  0  0  0  0  0  0  0  0
   44.4780   35.9740   44.7230 C   0  0  0  0  0  0  0  0  0  0  0  0
   45.1790   35.9100   43.5130 C   0  0  0  0  0  0  0  0  0  0  0  0
   46.0830   34.8930   43.2500 C   0  0  0  0  0  0  0  0  0  0  0  0
   46.2260   33.9820   44.2460 N   0  0  0  0  0  0  0  0  0  0  0  0
   45.5590   34.0360   45.4050 C   0  0  0  0  0  0  0  0  0  0  0  0
   44.6930   35.0210   45.6430 N   0  0  0  0  0  0  0  0  0  0  0  0
   46.3790   33.2210   38.6800 N   0  0  0  0  0  0  0  0  0  0  0  0
   45.3750   32.1670   38.7610 C   0  0  0  0  0  0  0  0  0  0  0  0
   44.2460   32.6750   37.8700 C   0  0  0  0  0  0  0  0  0  0  0  0
   44.6980   32.4340   36.5000 N   0  0  0  0  0  0  0  0  0  0  0  0
   46.1340   32.5020   36.3630 C   0  0  0  0  0  0  0  0  0  0  0  0
   46.7950   33.4880   37.2950 C   0  0  0  0  0  0  0  0  0  0  0  0
   48.5452   35.9014   42.6069 H   0  0  0  0  0  0  0  0  0  0  0  0
   49.7630   35.6828   40.4781 H   0  0  0  0  0  0  0  0  0  0  0  0
   48.6842   34.3883   38.6312 H   0  0  0  0  0  0  0  0  0  0  0  0
   43.7651   36.7892   44.9158 H   0  0  0  0  0  0  0  0  0  0  0  0
   45.0081   36.6860   42.7523 H   0  0  0  0  0  0  0  0  0  0  0  0
   45.7268   33.2611   46.1675 H   0  0  0  0  0  0  0  0  0  0  0  0
   45.7747   31.2144   38.3831 H   0  0  0  0  0  0  0  0  0  0  0  0
   45.0479   31.9677   39.7922 H   0  0  0  0  0  0  0  0  0  0  0  0
   43.3169   32.1219   38.0722 H   0  0  0  0  0  0  0  0  0  0  0  0
   44.0286   33.7383   38.0493 H   0  0  0  0  0  0  0  0  0  0  0  0
   44.3840   31.4968   36.2102 H   0  0  0  0  0  0  0  0  0  0  0  0
   46.5482   31.5034   36.5660 H   0  0  0  0  0  0  0  0  0  0  0  0
   46.3394   32.8464   35.3387 H   0  0  0  0  0  0  0  0  0  0  0  0
   47.8877   33.3886   37.2164 H   0  0  0  0  0  0  0  0  0  0  0  0
   46.4944   34.5087   37.0161 H   0  0  0  0  0  0  0  0  0  0  0  0
  2  1  1  0
  2  3  2  0
  3 10  1  0
  4  3  1  0
  5  4  2  0
  6  7  2  0
  6  5  1  0
  7  2  1  0
  8 13  2  0
  9  8  1  0
 10  9  2  0
 10 11  1  0
 11 12  2  0
 12 13  1  0
 14 15  1  0
 14  7  1  0
 16 15  1  0
 17 16  1  0
 18 17  1  0
 18 19  1  0
 19 14  1  0
  4 20  1  0
  5 21  1  0
  6 22  1  0
  8 23  1  0
  9 24  1  0
 12 25  1  0
 15 26  1  0
 15 27  1  0
 16 28  1  0
 16 29  1  0
 17 30  1  0
 18 31  1  0
 18 32  1  0
 19 33  1  0
 19 34  1  0
M  ISO  8  20  14  21  14  22  14  23  14  24  14  25  14  26  13  27  13
M  ISO  7  28  13  29  13  30   5  31  13  32  13  33  13  34  13
M  END
>  <minimizedAffinity>  (1) 
-5.89328861

>  <minimizedRMSD>  (1) 
0.408672929

$$$$
