
     RDKit          3D

 35 37  0  0  0  0  0  0  0  0999 V2000
   45.3610   33.3770   41.1600 F   0  0  0  0  0  0  0  0  0  0  0  0
   46.5210   34.0840   41.0580 C   0  0  0  0  0  0  0  0  0  0  0  0
   46.9720   34.8640   42.1040 C   0  0  0  0  0  0  0  0  0  0  0  0
   48.1570   35.5420   41.9090 C   0  0  0  0  0  0  0  0  0  0  0  0
   48.8900   35.4810   40.7540 C   0  0  0  0  0  0  0  0  0  0  0  0
   48.3790   34.6760   39.7360 C   0  0  0  0  0  0  0  0  0  0  0  0
   47.2050   33.9780   39.8780 C   0  0  0  0  0  0  0  0  0  0  0  0
   44.4750   35.9170   44.7500 C   0  0  0  0  0  0  0  0  0  0  0  0
   45.2310   35.8940   43.5710 C   0  0  0  0  0  0  0  0  0  0  0  0
   46.1720   34.9110   43.3250 C   0  0  0  0  0  0  0  0  0  0  0  0
   46.3210   33.9660   44.3020 N   0  0  0  0  0  0  0  0  0  0  0  0
   45.5870   34.0030   45.4300 C   0  0  0  0  0  0  0  0  0  0  0  0
   44.6830   34.9530   45.6580 N   0  0  0  0  0  0  0  0  0  0  0  0
   46.7410   33.1740   38.7990 N   0  0  0  0  0  0  0  0  0  0  0  0
   47.5240   33.1010   37.6050 C   0  0  0  0  0  0  0  0  0  0  0  0
   46.8200   32.5960   36.3960 C   0  0  0  0  0  0  0  0  0  0  0  0
   45.3430   32.8610   36.3370 C   0  0  0  0  0  0  0  0  0  0  0  0
   44.6840   33.0210   37.6590 C   0  0  0  0  0  0  0  0  0  0  0  0
   45.5180   32.3850   38.7580 C   0  0  0  0  0  0  0  0  0  0  0  0
   48.5357   36.1688   42.7298 H   0  0  0  0  0  0  0  0  0  0  0  0
   49.8316   36.0372   40.6353 H   0  0  0  0  0  0  0  0  0  0  0  0
   48.9340   34.5978   38.7895 H   0  0  0  0  0  0  0  0  0  0  0  0
   43.7294   36.7063   44.9264 H   0  0  0  0  0  0  0  0  0  0  0  0
   45.0715   36.6808   42.8189 H   0  0  0  0  0  0  0  0  0  0  0  0
   45.7395   33.2216   46.1890 H   0  0  0  0  0  0  0  0  0  0  0  0
   47.8933   34.1128   37.3819 H   0  0  0  0  0  0  0  0  0  0  0  0
   48.3182   32.3692   37.8143 H   0  0  0  0  0  0  0  0  0  0  0  0
   47.2821   33.0670   35.5159 H   0  0  0  0  0  0  0  0  0  0  0  0
   46.9245   31.5014   36.4268 H   0  0  0  0  0  0  0  0  0  0  0  0
   45.1841   33.7850   35.7617 H   0  0  0  0  0  0  0  0  0  0  0  0
   44.8884   31.9747   35.8704 H   0  0  0  0  0  0  0  0  0  0  0  0
   44.5617   34.0929   37.8736 H   0  0  0  0  0  0  0  0  0  0  0  0
   43.7039   32.5227   37.6270 H   0  0  0  0  0  0  0  0  0  0  0  0
   44.9916   32.4354   39.7226 H   0  0  0  0  0  0  0  0  0  0  0  0
   45.7164   31.3202   38.5659 H   0  0  0  0  0  0  0  0  0  0  0  0
  2  1  1  0
  2  3  2  0
  3 10  1  0
  4  3  1  0
  5  4  2  0
  6  7  2  0
  6  5  1  0
  7  2  1  0
  8 13  2  0
  9  8  1  0
 10  9  2  0
 10 11  1  0
 11 12  2  0
 12 13  1  0
 14  7  1  0
 15 14  1  0
 16 15  1  0
 17 16  1  0
 17 18  1  0
 18 19  1  0
 19 14  1  0
  4 20  1  0
  5 21  1  0
  6 22  1  0
  8 23  1  0
  9 24  1  0
 12 25  1  0
 15 26  1  0
 15 27  1  0
 16 28  1  0
 16 29  1  0
 17 30  1  0
 17 31  1  0
 18 32  1  0
 18 33  1  0
 19 34  1  0
 19 35  1  0
M  ISO  8  20  14  21  14  22  14  23  14  24  14  25  14  26  13  27  13
M  ISO  8  28  13  29  13  30  13  31  13  32  13  33  13  34  13  35  13
M  END
>  <minimizedAffinity>  (1) 
-5.67235947

>  <minimizedRMSD>  (1) 
0.314638466

$$$$
