
     RDKit          3D

 27 29  0  0  0  0  0  0  0  0999 V2000
   45.1460   33.3320   41.1430 F   0  0  0  0  0  0  0  0  0  0  0  0
   46.3220   33.9800   40.9890 C   0  0  0  0  0  0  0  0  0  0  0  0
   46.8570   34.7540   41.9980 C   0  0  0  0  0  0  0  0  0  0  0  0
   48.0510   35.3710   41.7530 C   0  0  0  0  0  0  0  0  0  0  0  0
   48.7440   35.2650   40.5770 C   0  0  0  0  0  0  0  0  0  0  0  0
   48.1700   34.4750   39.5910 C   0  0  0  0  0  0  0  0  0  0  0  0
   46.9560   33.8270   39.7880 C   0  0  0  0  0  0  0  0  0  0  0  0
   44.4800   35.9640   44.6970 C   0  0  0  0  0  0  0  0  0  0  0  0
   45.1880   35.8860   43.4930 C   0  0  0  0  0  0  0  0  0  0  0  0
   46.1070   34.8590   43.2410 C   0  0  0  0  0  0  0  0  0  0  0  0
   46.2370   33.9760   44.2510 N   0  0  0  0  0  0  0  0  0  0  0  0
   45.5630   34.0450   45.4060 C   0  0  0  0  0  0  0  0  0  0  0  0
   44.6950   35.0250   45.6280 N   0  0  0  0  0  0  0  0  0  0  0  0
   46.4590   33.0290   38.6760 C   0  0  0  0  0  0  0  0  0  0  0  0
   45.9910   31.7350   38.6090 C   0  0  0  0  0  0  0  0  0  0  0  0
   45.6290   31.3970   37.3590 N   0  0  0  0  0  0  0  0  0  0  0  0
   45.8720   32.4950   36.6200 C   0  0  0  0  0  0  0  0  0  0  0  0
   46.3650   33.4620   37.4070 N   0  0  0  0  0  0  0  0  0  0  0  0
   48.4830   35.9924   42.5512 H   0  0  0  0  0  0  0  0  0  0  0  0
   49.7043   35.7785   40.4220 H   0  0  0  0  0  0  0  0  0  0  0  0
   48.6892   34.3585   38.6283 H   0  0  0  0  0  0  0  0  0  0  0  0
   43.7625   36.7785   44.8754 H   0  0  0  0  0  0  0  0  0  0  0  0
   45.0184   36.6525   42.7225 H   0  0  0  0  0  0  0  0  0  0  0  0
   45.7303   33.2812   46.1797 H   0  0  0  0  0  0  0  0  0  0  0  0
   45.9218   31.0594   39.4743 H   0  0  0  0  0  0  0  0  0  0  0  0
   45.2490   30.4953   37.0375 H   0  0  0  0  0  0  0  0  0  0  0  0
   45.6938   32.5852   35.5383 H   0  0  0  0  0  0  0  0  0  0  0  0
  2  1  1  0
  2  3  2  0
  3 10  1  0
  4  3  1  0
  5  4  2  0
  6  7  2  0
  6  5  1  0
  7  2  1  0
  8 13  2  0
  9  8  1  0
 10  9  2  0
 10 11  1  0
 11 12  2  0
 12 13  1  0
 14  7  1  0
 15 14  2  0
 16 15  1  0
 17 16  1  0
 17 18  2  0
 18 14  1  0
  4 19  1  0
  5 20  1  0
  6 21  1  0
  8 22  1  0
  9 23  1  0
 12 24  1  0
 15 25  1  0
 16 26  1  0
 17 27  1  0
M  ISO  8  19  14  20  14  21  14  22  14  23  14  24  14  25  14  26   9
M  ISO  1  27  14
M  END
>  <minimizedAffinity>  (1) 
-5.49666786

>  <minimizedRMSD>  (1) 
0.0665587708

$$$$
