
     RDKit          3D

 28 30  0  0  0  0  0  0  0  0999 V2000
   45.1940   33.2830   41.1340 F   0  0  0  0  0  0  0  0  0  0  0  0
   46.3620   33.9480   40.9670 C   0  0  0  0  0  0  0  0  0  0  0  0
   46.8720   34.7570   41.9610 C   0  0  0  0  0  0  0  0  0  0  0  0
   48.0700   35.4030   41.7130 C   0  0  0  0  0  0  0  0  0  0  0  0
   48.7650   35.2750   40.5390 C   0  0  0  0  0  0  0  0  0  0  0  0
   48.2190   34.4590   39.5780 C   0  0  0  0  0  0  0  0  0  0  0  0
   47.0330   33.7940   39.7700 C   0  0  0  0  0  0  0  0  0  0  0  0
   44.4830   36.0080   44.6380 C   0  0  0  0  0  0  0  0  0  0  0  0
   45.2070   35.9070   43.4410 C   0  0  0  0  0  0  0  0  0  0  0  0
   46.1120   34.8730   43.2000 C   0  0  0  0  0  0  0  0  0  0  0  0
   46.2440   33.9630   44.2140 N   0  0  0  0  0  0  0  0  0  0  0  0
   45.5480   34.0620   45.3600 C   0  0  0  0  0  0  0  0  0  0  0  0
   44.6910   35.0540   45.5720 N   0  0  0  0  0  0  0  0  0  0  0  0
   46.4420   32.9250   38.7590 C   0  0  0  0  0  0  0  0  0  0  0  0
   45.8360   33.3730   37.6090 C   0  0  0  0  0  0  0  0  0  0  0  0
   45.2780   32.5540   36.6520 C   0  0  0  0  0  0  0  0  0  0  0  0
   45.3270   31.2280   36.8520 N   0  0  0  0  0  0  0  0  0  0  0  0
   45.9200   30.7380   37.9800 C   0  0  0  0  0  0  0  0  0  0  0  0
   46.4500   31.5810   38.8850 N   0  0  0  0  0  0  0  0  0  0  0  0
   48.4856   36.0521   42.4978 H   0  0  0  0  0  0  0  0  0  0  0  0
   49.7165   35.8015   40.3736 H   0  0  0  0  0  0  0  0  0  0  0  0
   48.7497   34.3342   38.6226 H   0  0  0  0  0  0  0  0  0  0  0  0
   43.7739   36.8313   44.8096 H   0  0  0  0  0  0  0  0  0  0  0  0
   45.0557   36.6708   42.6640 H   0  0  0  0  0  0  0  0  0  0  0  0
   45.6921   33.3019   46.1420 H   0  0  0  0  0  0  0  0  0  0  0  0
   45.7938   34.4594   37.4417 H   0  0  0  0  0  0  0  0  0  0  0  0
   44.8066   32.9743   35.7513 H   0  0  0  0  0  0  0  0  0  0  0  0
   45.9646   29.6520   38.1493 H   0  0  0  0  0  0  0  0  0  0  0  0
  2  1  1  0
  2  3  2  0
  3 10  1  0
  4  3  1  0
  5  4  2  0
  6  7  2  0
  6  5  1  0
  7  2  1  0
  8 13  2  0
  9  8  1  0
 10  9  2  0
 10 11  1  0
 11 12  2  0
 12 13  1  0
 14 19  1  0
 14  7  1  0
 15 14  2  0
 16 17  2  0
 16 15  1  0
 17 18  1  0
 18 19  2  0
  4 20  1  0
  5 21  1  0
  6 22  1  0
  8 23  1  0
  9 24  1  0
 12 25  1  0
 15 26  1  0
 16 27  1  0
 18 28  1  0
M  ISO  8  20  14  21  14  22  14  23  14  24  14  25  14  26  14  27  14
M  ISO  1  28  14
M  END
>  <minimizedAffinity>  (1) 
-5.47333956

>  <minimizedRMSD>  (1) 
0.654820502

$$$$
