
     RDKit          3D

 24 25  0  0  0  0  0  0  0  0999 V2000
   45.1180   33.5730   41.1380 F   0  0  0  0  0  0  0  0  0  0  0  0
   46.3440   34.1720   41.0630 C   0  0  0  0  0  0  0  0  0  0  0  0
   46.8920   34.8450   42.1260 C   0  0  0  0  0  0  0  0  0  0  0  0
   48.1250   35.4070   41.9400 C   0  0  0  0  0  0  0  0  0  0  0  0
   48.8340   35.3380   40.7700 C   0  0  0  0  0  0  0  0  0  0  0  0
   48.2450   34.6530   39.7300 C   0  0  0  0  0  0  0  0  0  0  0  0
   47.0090   34.0670   39.8570 C   0  0  0  0  0  0  0  0  0  0  0  0
   44.4560   35.9390   44.8180 C   0  0  0  0  0  0  0  0  0  0  0  0
   45.1870   35.9090   43.6200 C   0  0  0  0  0  0  0  0  0  0  0  0
   46.1140   34.9040   43.3660 C   0  0  0  0  0  0  0  0  0  0  0  0
   46.2540   33.9760   44.3450 N   0  0  0  0  0  0  0  0  0  0  0  0
   45.5520   34.0120   45.4860 C   0  0  0  0  0  0  0  0  0  0  0  0
   44.6650   34.9740   45.7280 N   0  0  0  0  0  0  0  0  0  0  0  0
   46.8040   33.3970   37.4090 C   0  0  0  0  0  0  0  0  0  0  0  0
   47.7670   34.0850   36.9550 O   0  0  0  0  0  0  0  0  0  0  0  0
   46.4090   33.3570   38.7650 N   0  0  0  0  0  0  0  0  0  0  0  0
   48.5762   35.9492   42.7841 H   0  0  0  0  0  0  0  0  0  0  0  0
   49.8240   35.8061   40.6661 H   0  0  0  0  0  0  0  0  0  0  0  0
   48.7790   34.5731   38.7716 H   0  0  0  0  0  0  0  0  0  0  0  0
   43.7250   36.7388   45.0079 H   0  0  0  0  0  0  0  0  0  0  0  0
   45.0235   36.6951   42.8681 H   0  0  0  0  0  0  0  0  0  0  0  0
   45.7128   33.2277   46.2404 H   0  0  0  0  0  0  0  0  0  0  0  0
   46.2335   32.7857   36.6942 H   0  0  0  0  0  0  0  0  0  0  0  0
   45.6055   32.7544   38.9932 H   0  0  0  0  0  0  0  0  0  0  0  0
  2  1  1  0
  2  3  2  0
  3 10  1  0
  4  3  1  0
  5  4  2  0
  6  7  2  0
  6  5  1  0
  7  2  1  0
  8 13  2  0
  9  8  1  0
 10  9  2  0
 10 11  1  0
 11 12  2  0
 12 13  1  0
 14 16  1  0
 15 14  2  0
 16  7  1  0
  4 17  1  0
  5 18  1  0
  6 19  1  0
  8 20  1  0
  9 21  1  0
 12 22  1  0
 14 23  1  0
 16 24  1  0
M  ISO  7  17  14  18  14  19  14  20  14  21  14  22  14  23   6
M  END
>  <minimizedAffinity>  (1) 
-5.45749521

>  <minimizedRMSD>  (1) 
0.522578359

$$$$
