
     RDKit          3D

 27 29  0  0  0  0  0  0  0  0999 V2000
   45.1230   33.3140   41.1700 F   0  0  0  0  0  0  0  0  0  0  0  0
   46.3060   33.9720   41.0120 C   0  0  0  0  0  0  0  0  0  0  0  0
   46.8330   34.7420   42.0070 C   0  0  0  0  0  0  0  0  0  0  0  0
   48.0420   35.3730   41.7540 C   0  0  0  0  0  0  0  0  0  0  0  0
   48.7150   35.2560   40.5650 C   0  0  0  0  0  0  0  0  0  0  0  0
   48.1410   34.4670   39.5890 C   0  0  0  0  0  0  0  0  0  0  0  0
   46.9460   33.8270   39.8060 C   0  0  0  0  0  0  0  0  0  0  0  0
   44.4840   35.9440   44.7320 C   0  0  0  0  0  0  0  0  0  0  0  0
   45.1830   35.8620   43.5230 C   0  0  0  0  0  0  0  0  0  0  0  0
   46.0910   34.8470   43.2630 C   0  0  0  0  0  0  0  0  0  0  0  0
   46.2450   33.9520   44.2650 N   0  0  0  0  0  0  0  0  0  0  0  0
   45.5770   34.0260   45.4260 C   0  0  0  0  0  0  0  0  0  0  0  0
   44.7070   35.0050   45.6630 N   0  0  0  0  0  0  0  0  0  0  0  0
   46.3600   32.9980   38.7600 C   0  0  0  0  0  0  0  0  0  0  0  0
   46.8520   31.8070   38.2730 C   0  0  0  0  0  0  0  0  0  0  0  0
   45.9930   31.3330   37.2750 C   0  0  0  0  0  0  0  0  0  0  0  0
   44.9920   32.3090   37.2190 C   0  0  0  0  0  0  0  0  0  0  0  0
   45.2560   33.2380   38.0930 O   0  0  0  0  0  0  0  0  0  0  0  0
   48.4822   35.9974   42.5454 H   0  0  0  0  0  0  0  0  0  0  0  0
   49.6728   35.7698   40.3961 H   0  0  0  0  0  0  0  0  0  0  0  0
   48.6496   34.3489   38.6208 H   0  0  0  0  0  0  0  0  0  0  0  0
   43.7685   36.7593   44.9146 H   0  0  0  0  0  0  0  0  0  0  0  0
   45.0065   36.6279   42.7534 H   0  0  0  0  0  0  0  0  0  0  0  0
   45.7518   33.2620   46.1978 H   0  0  0  0  0  0  0  0  0  0  0  0
   47.7717   31.3089   38.6136 H   0  0  0  0  0  0  0  0  0  0  0  0
   46.0832   30.4136   36.6778 H   0  0  0  0  0  0  0  0  0  0  0  0
   44.1224   32.2942   36.5455 H   0  0  0  0  0  0  0  0  0  0  0  0
  2  1  1  0
  2  3  2  0
  3 10  1  0
  4  3  1  0
  5  4  2  0
  6  7  2  0
  6  5  1  0
  7  2  1  0
  8 13  2  0
  9  8  1  0
 10  9  2  0
 10 11  1  0
 11 12  2  0
 12 13  1  0
 14  7  1  0
 15 14  2  0
 16 15  1  0
 17 16  2  0
 17 18  1  0
 18 14  1  0
  4 19  1  0
  5 20  1  0
  6 21  1  0
  8 22  1  0
  9 23  1  0
 12 24  1  0
 15 25  1  0
 16 26  1  0
 17 27  1  0
M  ISO  8  19  14  20  14  21  14  22  14  23  14  24  14  25  14  26  14
M  ISO  1  27  14
M  END
>  <minimizedAffinity>  (1) 
-5.44663763

>  <minimizedRMSD>  (1) 
0.175617501

$$$$
