
     RDKit          3D

 21 22  0  0  0  0  0  0  0  0999 V2000
   45.1160   33.3450   41.1660 F   0  0  0  0  0  0  0  0  0  0  0  0
   46.3010   33.9930   41.0230 C   0  0  0  0  0  0  0  0  0  0  0  0
   46.8390   34.7580   42.0310 C   0  0  0  0  0  0  0  0  0  0  0  0
   48.0390   35.3660   41.7780 C   0  0  0  0  0  0  0  0  0  0  0  0
   48.7160   35.2520   40.5940 C   0  0  0  0  0  0  0  0  0  0  0  0
   48.1380   34.4720   39.6090 C   0  0  0  0  0  0  0  0  0  0  0  0
   46.9360   33.8400   39.8140 C   0  0  0  0  0  0  0  0  0  0  0  0
   44.4800   35.9530   44.7410 C   0  0  0  0  0  0  0  0  0  0  0  0
   45.1790   35.8780   43.5400 C   0  0  0  0  0  0  0  0  0  0  0  0
   46.0960   34.8610   43.2760 C   0  0  0  0  0  0  0  0  0  0  0  0
   46.2560   33.9490   44.2780 N   0  0  0  0  0  0  0  0  0  0  0  0
   45.5840   34.0170   45.4380 C   0  0  0  0  0  0  0  0  0  0  0  0
   44.7000   35.0060   45.6810 N   0  0  0  0  0  0  0  0  0  0  0  0
   46.2030   32.8280   38.5130 S   0  0  0  0  0  0  0  0  0  0  0  0
   48.4852   35.9821   42.5726 H   0  0  0  0  0  0  0  0  0  0  0  0
   49.6787   35.7591   40.4327 H   0  0  0  0  0  0  0  0  0  0  0  0
   48.6508   34.3556   38.6428 H   0  0  0  0  0  0  0  0  0  0  0  0
   43.7624   36.7668   44.9222 H   0  0  0  0  0  0  0  0  0  0  0  0
   45.0023   36.6466   42.7732 H   0  0  0  0  0  0  0  0  0  0  0  0
   45.7581   33.2497   46.2067 H   0  0  0  0  0  0  0  0  0  0  0  0
   45.4710   31.8174   39.0784 H   0  0  0  0  0  0  0  0  0  0  0  0
  2  1  1  0
  2  3  2  0
  3 10  1  0
  4  3  1  0
  5  4  2  0
  6  7  2  0
  6  5  1  0
  7  2  1  0
  8 13  2  0
  9  8  1  0
 10  9  2  0
 10 11  1  0
 11 12  2  0
 12 13  1  0
 14  7  1  0
  4 15  1  0
  5 16  1  0
  6 17  1  0
  8 18  1  0
  9 19  1  0
 12 20  1  0
 14 21  1  0
M  ISO  7  15  14  16  14  17  14  18  14  19  14  20  14  21  11
M  END
>  <minimizedAffinity>  (1) 
-5.14660168

>  <minimizedRMSD>  (1) 
0.0114346379

$$$$
