
     RDKit          3D

 41 44  0  0  1  0  0  0  0  0999 V2000
   46.2310   32.0950   44.6650 C   0  0  1  0  0  0  0  0  0  0  0  0
   46.3610   31.2610   43.5250 C   0  0  0  0  0  0  0  0  0  0  0  0
   47.5990   31.9940   44.0720 C   0  0  1  0  0  0  0  0  0  0  0  0
   45.0500   33.8970   43.2240 C   0  0  0  0  0  0  0  0  0  0  0  0
   45.5090   33.4340   44.4880 C   0  0  0  0  0  0  0  0  0  0  0  0
   45.3080   34.2410   45.5830 C   0  0  0  0  0  0  0  0  0  0  0  0
   44.6880   35.4330   45.4180 N   0  0  0  0  0  0  0  0  0  0  0  0
   44.2520   35.8690   44.2090 C   0  0  0  0  0  0  0  0  0  0  0  0
   44.4430   35.0690   43.0780 N   0  0  0  0  0  0  0  0  0  0  0  0
   48.0200   33.1000   43.2730 N   0  0  0  0  0  0  0  0  0  0  0  0
   49.1010   33.0540   42.4140 C   0  0  0  0  0  0  0  0  0  0  0  0
   50.2560   32.5710   42.5710 O   0  0  0  0  0  0  0  0  0  0  0  0
   48.9870   33.6510   41.0140 C   0  0  2  0  0  0  0  0  0  0  0  0
   48.5060   35.1340   40.9390 C   0  0  0  0  0  0  0  0  0  0  0  0
   47.6860   33.9620   40.4310 C   0  0  1  0  0  0  0  0  0  0  0  0
   47.4110   33.8630   38.9510 C   0  0  0  0  0  0  0  0  0  0  0  0
   48.4390   34.5750   38.1060 C   0  0  0  0  0  0  0  0  0  0  0  0
   48.8700   33.6110   37.0300 C   0  0  0  0  0  0  0  0  0  0  0  0
   48.5820   32.2630   37.6280 C   0  0  0  0  0  0  0  0  0  0  0  0
   47.2820   32.5260   38.3620 C   0  0  0  0  0  0  0  0  0  0  0  0
   45.8212   31.9276   45.6720 H   0  0  0  0  0  0  0  0  0  0  0  0
   45.9197   31.5702   42.5660 H   0  0  0  0  0  0  0  0  0  0  0  0
   46.1181   30.2118   43.3010 H   0  0  0  0  0  0  0  0  0  0  0  0
   48.6039   31.7359   44.4374 H   0  0  0  0  0  0  0  0  0  0  0  0
   45.2029   33.2633   42.3380 H   0  0  0  0  0  0  0  0  0  0  0  0
   45.6465   33.9222   46.5799 H   0  0  0  0  0  0  0  0  0  0  0  0
   43.7520   36.8447   44.1194 H   0  0  0  0  0  0  0  0  0  0  0  0
   47.4889   33.9799   43.3408 H   0  0  0  0  0  0  0  0  0  0  0  0
   49.8446   33.0625   40.6560 H   0  0  0  0  0  0  0  0  0  0  0  0
   48.2075   35.6719   41.8509 H   0  0  0  0  0  0  0  0  0  0  0  0
   48.8910   36.0772   40.5242 H   0  0  0  0  0  0  0  0  0  0  0  0
   46.6797   33.5647   40.6298 H   0  0  0  0  0  0  0  0  0  0  0  0
   46.4206   34.3409   38.9260 H   0  0  0  0  0  0  0  0  0  0  0  0
   47.9975   35.4746   37.6524 H   0  0  0  0  0  0  0  0  0  0  0  0
   49.2977   34.8912   38.7164 H   0  0  0  0  0  0  0  0  0  0  0  0
   49.9419   33.7220   36.8095 H   0  0  0  0  0  0  0  0  0  0  0  0
   48.3493   33.7753   36.0751 H   0  0  0  0  0  0  0  0  0  0  0  0
   48.4550   31.4971   36.8487 H   0  0  0  0  0  0  0  0  0  0  0  0
   49.3878   31.8769   38.2697 H   0  0  0  0  0  0  0  0  0  0  0  0
   46.4351   32.4979   37.6606 H   0  0  0  0  0  0  0  0  0  0  0  0
   47.0941   31.7638   39.1325 H   0  0  0  0  0  0  0  0  0  0  0  0
  2  3  1  0
  2  1  1  0
  3  1  1  0
  4  5  2  0
  5  1  1  0
  5  6  1  0
  7  6  2  0
  8  7  1  0
  9  4  1  0
  9  8  2  0
 10  3  1  0
 11 12  2  0
 11 10  1  0
 13 11  1  0
 14 13  1  0
 15 14  1  0
 15 13  1  0
 16 15  1  0
 17 16  1  0
 18 19  1  0
 18 17  1  0
 19 20  1  0
 20 16  1  0
  1 21  1  1
  2 22  1  0
  2 23  1  0
  3 24  1  1
  4 25  1  0
  6 26  1  0
  8 27  1  0
 10 28  1  0
 13 29  1  6
 14 30  1  0
 14 31  1  0
 15 32  1  1
 16 33  1  0
 17 34  1  0
 17 35  1  0
 18 36  1  0
 18 37  1  0
 19 38  1  0
 19 39  1  0
 20 40  1  0
 20 41  1  0
M  ISO  8  21  13  22  13  23  13  24  13  25  14  26  14  27  14  29  13
M  ISO  8  30  13  31  13  32  13  33  13  34  13  35  13  36  13  37  13
M  ISO  4  38  13  39  13  40  13  41  13
M  END
>  <minimizedAffinity>  (1) 
-4.78768492

>  <minimizedRMSD>  (1) 
1.13021135

$$$$
