
     RDKit          3D

 36 39  0  0  0  0  0  0  0  0999 V2000
   44.8300   32.6870   42.8520 F   0  0  0  0  0  0  0  0  0  0  0  0
   45.9670   33.3910   42.5920 C   0  0  0  0  0  0  0  0  0  0  0  0
   46.9470   33.5500   43.5530 C   0  0  0  0  0  0  0  0  0  0  0  0
   48.0510   34.2710   43.2080 C   0  0  0  0  0  0  0  0  0  0  0  0
   48.2420   34.8440   41.9720 C   0  0  0  0  0  0  0  0  0  0  0  0
   47.2490   34.6610   41.0540 C   0  0  0  0  0  0  0  0  0  0  0  0
   46.1140   33.9440   41.3450 C   0  0  0  0  0  0  0  0  0  0  0  0
   45.7460   32.8770   47.0990 C   0  0  0  0  0  0  0  0  0  0  0  0
   45.9300   33.5040   45.8550 C   0  0  0  0  0  0  0  0  0  0  0  0
   46.7260   32.9360   44.8620 C   0  0  0  0  0  0  0  0  0  0  0  0
   47.3110   31.7330   45.1850 N   0  0  0  0  0  0  0  0  0  0  0  0
   47.1140   31.1570   46.3930 C   0  0  0  0  0  0  0  0  0  0  0  0
   46.3490   31.7150   47.3280 N   0  0  0  0  0  0  0  0  0  0  0  0
   45.0530   33.7550   40.3500 C   0  0  0  0  0  0  0  0  0  0  0  0
   45.1550   33.1680   39.1220 C   0  0  0  0  0  0  0  0  0  0  0  0
   43.9200   33.1960   38.5030 C   0  0  0  0  0  0  0  0  0  0  0  0
   43.1000   33.7980   39.3670 N   0  0  0  0  0  0  0  0  0  0  0  0
   43.7580   34.1430   40.4850 N   0  0  0  0  0  0  0  0  0  0  0  0
   41.7110   34.1400   39.3530 C   0  0  0  0  0  0  0  0  0  0  0  0
   41.0620   34.9290   40.2880 C   0  0  0  0  0  0  0  0  0  0  0  0
   39.7110   35.1430   40.0960 C   0  0  0  0  0  0  0  0  0  0  0  0
   39.0430   34.5890   39.0120 C   0  0  0  0  0  0  0  0  0  0  0  0
   39.7340   33.8080   38.1050 C   0  0  0  0  0  0  0  0  0  0  0  0
   41.0700   33.5890   38.2840 N   0  0  0  0  0  0  0  0  0  0  0  0
   48.8382   34.4029   43.9649 H   0  0  0  0  0  0  0  0  0  0  0  0
   49.1487   35.4202   41.7358 H   0  0  0  0  0  0  0  0  0  0  0  0
   47.3607   35.1004   40.0518 H   0  0  0  0  0  0  0  0  0  0  0  0
   45.1134   33.3402   47.8705 H   0  0  0  0  0  0  0  0  0  0  0  0
   45.4339   34.4662   45.6603 H   0  0  0  0  0  0  0  0  0  0  0  0
   47.6024   30.1955   46.6096 H   0  0  0  0  0  0  0  0  0  0  0  0
   46.0737   32.7409   38.6935 H   0  0  0  0  0  0  0  0  0  0  0  0
   43.6659   32.8043   37.5070 H   0  0  0  0  0  0  0  0  0  0  0  0
   41.5977   35.3651   41.1440 H   0  0  0  0  0  0  0  0  0  0  0  0
   39.1546   35.7631   40.8143 H   0  0  0  0  0  0  0  0  0  0  0  0
   37.9668   34.7712   38.8756 H   0  0  0  0  0  0  0  0  0  0  0  0
   39.2111   33.3656   37.2443 H   0  0  0  0  0  0  0  0  0  0  0  0
  2  1  1  0
  2  3  2  0
  3 10  1  0
  4  3  1  0
  5  4  2  0
  6  7  2  0
  6  5  1  0
  7  2  1  0
  8 13  2  0
  9  8  1  0
 10 11  1  0
 10  9  2  0
 11 12  2  0
 12 13  1  0
 14 18  2  0
 14  7  1  0
 15 14  1  0
 16 15  2  0
 16 17  1  0
 17 18  1  0
 19 17  1  0
 19 20  2  0
 21 20  1  0
 22 21  2  0
 23 24  2  0
 23 22  1  0
 24 19  1  0
  4 25  1  0
  5 26  1  0
  6 27  1  0
  8 28  1  0
  9 29  1  0
 12 30  1  0
 15 31  1  0
 16 32  1  0
 20 33  1  0
 21 34  1  0
 22 35  1  0
 23 36  1  0
M  ISO  8  25  14  26  14  27  14  28  14  29  14  30  14  31  14  32  14
M  ISO  4  33  14  34  14  35  14  36  14
M  END
>  <minimizedAffinity>  (1) 
-6.13697815

>  <minimizedRMSD>  (1) 
3.46331716

$$$$
