
     RDKit          3D

 34 37  0  0  0  0  0  0  0  0999 V2000
   45.0640   33.5050   41.1560 F   0  0  0  0  0  0  0  0  0  0  0  0
   46.2870   34.1090   41.0440 C   0  0  0  0  0  0  0  0  0  0  0  0
   46.8400   34.8060   42.0820 C   0  0  0  0  0  0  0  0  0  0  0  0
   48.0710   35.3770   41.8760 C   0  0  0  0  0  0  0  0  0  0  0  0
   48.7690   35.2870   40.6940 C   0  0  0  0  0  0  0  0  0  0  0  0
   48.1730   34.5760   39.6800 C   0  0  0  0  0  0  0  0  0  0  0  0
   46.9370   33.9830   39.8350 C   0  0  0  0  0  0  0  0  0  0  0  0
   44.4720   35.9350   44.8240 C   0  0  0  0  0  0  0  0  0  0  0  0
   45.1700   35.8970   43.6110 C   0  0  0  0  0  0  0  0  0  0  0  0
   46.0820   34.8920   43.3330 C   0  0  0  0  0  0  0  0  0  0  0  0
   46.2410   33.9600   44.3230 N   0  0  0  0  0  0  0  0  0  0  0  0
   45.5680   33.9980   45.4870 C   0  0  0  0  0  0  0  0  0  0  0  0
   44.6880   34.9840   45.7300 N   0  0  0  0  0  0  0  0  0  0  0  0
   46.3200   33.2350   38.7520 C   0  0  0  0  0  0  0  0  0  0  0  0
   46.8790   32.8500   37.5650 C   0  0  0  0  0  0  0  0  0  0  0  0
   45.9320   32.1530   36.8240 C   0  0  0  0  0  0  0  0  0  0  0  0
   44.8280   32.1340   37.5760 N   0  0  0  0  0  0  0  0  0  0  0  0
   45.0380   32.7710   38.7250 N   0  0  0  0  0  0  0  0  0  0  0  0
   43.5450   31.5510   37.3110 C   0  0  0  0  0  0  0  0  0  0  0  0
   42.2900   31.6270   37.8790 C   0  0  0  0  0  0  0  0  0  0  0  0
   41.4800   30.7860   37.1080 C   0  0  0  0  0  0  0  0  0  0  0  0
   42.3110   30.2560   36.1170 C   0  0  0  0  0  0  0  0  0  0  0  0
   43.5250   30.7290   36.2670 O   0  0  0  0  0  0  0  0  0  0  0  0
   48.5261   35.9395   42.7045 H   0  0  0  0  0  0  0  0  0  0  0  0
   49.7540   35.7600   40.5669 H   0  0  0  0  0  0  0  0  0  0  0  0
   48.6963   34.4769   38.7175 H   0  0  0  0  0  0  0  0  0  0  0  0
   43.7527   36.7422   45.0262 H   0  0  0  0  0  0  0  0  0  0  0  0
   44.9903   36.6825   42.8622 H   0  0  0  0  0  0  0  0  0  0  0  0
   45.7388   33.2181   46.2437 H   0  0  0  0  0  0  0  0  0  0  0  0
   47.9115   33.0583   37.2478 H   0  0  0  0  0  0  0  0  0  0  0  0
   46.0640   31.7094   35.8261 H   0  0  0  0  0  0  0  0  0  0  0  0
   41.9896   32.2229   38.7534 H   0  0  0  0  0  0  0  0  0  0  0  0
   40.4085   30.5834   37.2523 H   0  0  0  0  0  0  0  0  0  0  0  0
   41.9958   29.5516   35.3331 H   0  0  0  0  0  0  0  0  0  0  0  0
  2  1  1  0
  2  3  2  0
  3 10  1  0
  4  3  1  0
  5  4  2  0
  6  7  2  0
  6  5  1  0
  7  2  1  0
  8 13  2  0
  9  8  1  0
 10  9  2  0
 10 11  1  0
 11 12  2  0
 12 13  1  0
 14  7  1  0
 15 14  1  0
 16 15  2  0
 16 17  1  0
 17 18  1  0
 18 14  2  0
 19 17  1  0
 19 20  2  0
 21 20  1  0
 22 23  1  0
 22 21  2  0
 23 19  1  0
  4 24  1  0
  5 25  1  0
  6 26  1  0
  8 27  1  0
  9 28  1  0
 12 29  1  0
 15 30  1  0
 16 31  1  0
 20 32  1  0
 21 33  1  0
 22 34  1  0
M  ISO  8  24  14  25  14  26  14  27  14  28  14  29  14  30  14  31  14
M  ISO  3  32  14  33  14  34  14
M  END
>  <minimizedAffinity>  (1) 
-5.95401478

>  <minimizedRMSD>  (1) 
1.20134795

$$$$
