
     RDKit          3D

 39 42  0  0  1  0  0  0  0  0999 V2000
   45.0500   33.4250   41.1110 F   0  0  0  0  0  0  0  0  0  0  0  0
   46.2660   34.0350   40.9680 C   0  0  0  0  0  0  0  0  0  0  0  0
   46.8360   34.7570   42.0010 C   0  0  0  0  0  0  0  0  0  0  0  0
   48.0550   35.3330   41.7690 C   0  0  0  0  0  0  0  0  0  0  0  0
   48.7300   35.2300   40.5760 C   0  0  0  0  0  0  0  0  0  0  0  0
   48.1260   34.5080   39.5890 C   0  0  0  0  0  0  0  0  0  0  0  0
   46.8950   33.9030   39.7630 C   0  0  0  0  0  0  0  0  0  0  0  0
   44.4900   35.9210   44.7500 C   0  0  0  0  0  0  0  0  0  0  0  0
   45.1850   35.8580   43.5340 C   0  0  0  0  0  0  0  0  0  0  0  0
   46.0990   34.8500   43.2530 C   0  0  0  0  0  0  0  0  0  0  0  0
   46.2610   33.9350   44.2540 N   0  0  0  0  0  0  0  0  0  0  0  0
   45.5930   33.9990   45.4180 C   0  0  0  0  0  0  0  0  0  0  0  0
   44.7260   34.9660   45.6680 N   0  0  0  0  0  0  0  0  0  0  0  0
   46.2720   33.1340   38.6870 C   0  0  0  0  0  0  0  0  0  0  0  0
   44.9490   33.1100   38.3480 C   0  0  0  0  0  0  0  0  0  0  0  0
   44.7870   32.2480   37.2660 C   0  0  0  0  0  0  0  0  0  0  0  0
   46.0230   31.7820   36.9950 N   0  0  0  0  0  0  0  0  0  0  0  0
   46.9110   32.3020   37.8320 N   0  0  0  0  0  0  0  0  0  0  0  0
   45.2990   30.2810   35.2410 N   0  0  0  0  0  0  0  0  0  0  0  0
   45.5270   30.4190   33.8370 C   0  0  0  0  0  0  0  0  0  0  0  0
   46.9290   30.9100   33.6150 C   0  0  0  0  0  0  0  0  0  0  0  0
   47.3240   31.4860   34.9360 C   0  0  0  0  0  0  0  0  0  0  0  0
   46.4010   30.8460   35.9520 C   0  0  1  0  0  0  0  0  0  0  0  0
   48.5204   35.9101   42.5816 H   0  0  0  0  0  0  0  0  0  0  0  0
   49.7097   35.7067   40.4247 H   0  0  0  0  0  0  0  0  0  0  0  0
   48.6363   34.4033   38.6202 H   0  0  0  0  0  0  0  0  0  0  0  0
   43.7710   36.7295   44.9483 H   0  0  0  0  0  0  0  0  0  0  0  0
   45.0002   36.6335   42.7761 H   0  0  0  0  0  0  0  0  0  0  0  0
   45.7716   33.2280   46.1820 H   0  0  0  0  0  0  0  0  0  0  0  0
   44.1473   33.6756   38.8453 H   0  0  0  0  0  0  0  0  0  0  0  0
   43.8509   32.0003   36.7441 H   0  0  0  0  0  0  0  0  0  0  0  0
   45.2102   29.2829   35.4794 H   0  0  0  0  0  0  0  0  0  0  0  0
   45.3953   29.4443   33.3445 H   0  0  0  0  0  0  0  0  0  0  0  0
   44.8102   31.1376   33.4130 H   0  0  0  0  0  0  0  0  0  0  0  0
   47.5944   30.0798   33.3358 H   0  0  0  0  0  0  0  0  0  0  0  0
   46.9965   31.6421   32.7968 H   0  0  0  0  0  0  0  0  0  0  0  0
   48.3725   31.2427   35.1629 H   0  0  0  0  0  0  0  0  0  0  0  0
   47.2394   32.5827   34.9434 H   0  0  0  0  0  0  0  0  0  0  0  0
   46.9106   30.0362   36.4947 H   0  0  0  0  0  0  0  0  0  0  0  0
  2  1  1  0
  2  3  2  0
  3 10  1  0
  4  3  1  0
  5  4  2  0
  6  7  2  0
  6  5  1  0
  7  2  1  0
  8 13  2  0
  9  8  1  0
 10  9  2  0
 10 11  1  0
 11 12  2  0
 12 13  1  0
 14  7  1  0
 15 14  1  0
 16 15  2  0
 17 16  1  0
 17 18  1  0
 18 14  2  0
 19 23  1  0
 20 19  1  0
 21 20  1  0
 21 22  1  0
 23 22  1  0
 23 17  1  0
  4 24  1  0
  5 25  1  0
  6 26  1  0
  8 27  1  0
  9 28  1  0
 12 29  1  0
 15 30  1  0
 16 31  1  0
 19 32  1  0
 20 33  1  0
 20 34  1  0
 21 35  1  0
 21 36  1  0
 22 37  1  0
 22 38  1  0
 23 39  1  1
M  ISO  8  24  14  25  14  26  14  27  14  28  14  29  14  30  14  31  14
M  ISO  8  32   5  33  13  34  13  35  13  36  13  37  13  38  13  39  13
M  END
>  <minimizedAffinity>  (1) 
-5.95294714

>  <minimizedRMSD>  (1) 
2.08180881

$$$$
