
     RDKit          3D

 33 36  0  0  0  0  0  0  0  0999 V2000
   45.0950   33.3050   41.1660 F   0  0  0  0  0  0  0  0  0  0  0  0
   46.2850   33.9530   40.9900 C   0  0  0  0  0  0  0  0  0  0  0  0
   46.8280   34.7310   41.9920 C   0  0  0  0  0  0  0  0  0  0  0  0
   48.0200   35.3440   41.7350 C   0  0  0  0  0  0  0  0  0  0  0  0
   48.6950   35.2260   40.5430 C   0  0  0  0  0  0  0  0  0  0  0  0
   48.1140   34.4390   39.5760 C   0  0  0  0  0  0  0  0  0  0  0  0
   46.9250   33.8050   39.7780 C   0  0  0  0  0  0  0  0  0  0  0  0
   44.4920   35.9280   44.7320 C   0  0  0  0  0  0  0  0  0  0  0  0
   45.1810   35.8500   43.5190 C   0  0  0  0  0  0  0  0  0  0  0  0
   46.0910   34.8410   43.2490 C   0  0  0  0  0  0  0  0  0  0  0  0
   46.2620   33.9270   44.2610 N   0  0  0  0  0  0  0  0  0  0  0  0
   45.5910   34.0120   45.4280 C   0  0  0  0  0  0  0  0  0  0  0  0
   44.7240   34.9870   45.6650 N   0  0  0  0  0  0  0  0  0  0  0  0
   46.3170   32.9780   38.7540 C   0  0  0  0  0  0  0  0  0  0  0  0
   45.1340   33.2250   38.0790 C   0  0  0  0  0  0  0  0  0  0  0  0
   44.9250   32.1740   37.1800 C   0  0  0  0  0  0  0  0  0  0  0  0
   45.9760   31.3310   37.3350 N   0  0  0  0  0  0  0  0  0  0  0  0
   46.8020   31.7990   38.2620 N   0  0  0  0  0  0  0  0  0  0  0  0
   46.1520   30.1020   36.5890 C   0  0  0  0  0  0  0  0  0  0  0  0
   45.8600   28.7020   37.0170 C   0  0  0  0  0  0  0  0  0  0  0  0
   46.3990   27.8440   35.4180 S   0  0  0  0  0  0  0  0  0  0  0  0
   46.8640   29.4090   34.5820 C   0  0  0  0  0  0  0  0  0  0  0  0
   46.6450   30.3940   35.3790 N   0  0  0  0  0  0  0  0  0  0  0  0
   48.4652   35.9667   42.5250 H   0  0  0  0  0  0  0  0  0  0  0  0
   49.6540   35.7366   40.3709 H   0  0  0  0  0  0  0  0  0  0  0  0
   48.6252   34.3177   38.6096 H   0  0  0  0  0  0  0  0  0  0  0  0
   43.7754   36.7411   44.9200 H   0  0  0  0  0  0  0  0  0  0  0  0
   44.9944   36.6161   42.7520 H   0  0  0  0  0  0  0  0  0  0  0  0
   45.7677   33.2524   46.2037 H   0  0  0  0  0  0  0  0  0  0  0  0
   44.4751   34.0938   38.2239 H   0  0  0  0  0  0  0  0  0  0  0  0
   44.0789   32.0552   36.4871 H   0  0  0  0  0  0  0  0  0  0  0  0
   45.4601   28.2985   37.9590 H   0  0  0  0  0  0  0  0  0  0  0  0
   47.2661   29.4917   33.5615 H   0  0  0  0  0  0  0  0  0  0  0  0
  2  1  1  0
  2  3  2  0
  3 10  1  0
  4  3  1  0
  5  4  2  0
  6  7  2  0
  6  5  1  0
  7  2  1  0
  8 13  2  0
  9  8  1  0
 10  9  2  0
 10 11  1  0
 11 12  2  0
 12 13  1  0
 14  7  1  0
 15 14  1  0
 16 17  1  0
 16 15  2  0
 17 18  1  0
 18 14  2  0
 19 20  2  0
 19 17  1  0
 21 20  1  0
 22 23  2  0
 22 21  1  0
 23 19  1  0
  4 24  1  0
  5 25  1  0
  6 26  1  0
  8 27  1  0
  9 28  1  0
 12 29  1  0
 15 30  1  0
 16 31  1  0
 20 32  1  0
 22 33  1  0
M  ISO  8  24  14  25  14  26  14  27  14  28  14  29  14  30  14  31  14
M  ISO  2  32  14  33  14
M  END
>  <minimizedAffinity>  (1) 
-5.50305748

>  <minimizedRMSD>  (1) 
2.41916752

$$$$
