
     RDKit          3D

 30 33  0  0  0  0  0  0  0  0999 V2000
   46.0890   31.4420   45.1170 C   0  0  0  0  0  0  0  0  0  0  0  0
   45.9010   32.7700   45.4880 C   0  0  0  0  0  0  0  0  0  0  0  0
   45.6270   33.1560   46.7820 C   0  0  0  0  0  0  0  0  0  0  0  0
   45.5300   32.1810   47.7820 C   0  0  0  0  0  0  0  0  0  0  0  0
   45.2760   32.2070   49.1270 N   0  0  0  0  0  0  0  0  0  0  0  0
   45.3070   30.9310   49.5720 C   0  0  0  0  0  0  0  0  0  0  0  0
   45.5760   30.1490   48.5080 N   0  0  0  0  0  0  0  0  0  0  0  0
   45.7200   30.8770   47.3940 C   0  0  0  0  0  0  0  0  0  0  0  0
   45.9940   30.4660   46.1140 C   0  0  0  0  0  0  0  0  0  0  0  0
   45.0750   35.6850   43.4080 C   0  0  0  0  0  0  0  0  0  0  0  0
   46.1760   35.7480   42.5240 C   0  0  0  0  0  0  0  0  0  0  0  0
   47.1910   34.7910   42.6510 C   0  0  0  0  0  0  0  0  0  0  0  0
   47.0310   33.8590   43.6360 N   0  0  0  0  0  0  0  0  0  0  0  0
   45.9880   33.8040   44.4680 C   0  0  0  0  0  0  0  0  0  0  0  0
   45.0020   34.7220   44.3550 N   0  0  0  0  0  0  0  0  0  0  0  0
   48.3910   34.7370   41.8020 C   0  0  0  0  0  0  0  0  0  0  0  0
   49.0870   35.9910   41.3920 C   0  0  0  0  0  0  0  0  0  0  0  0
   49.7510   35.0790   42.4310 C   0  0  0  0  0  0  0  0  0  0  0  0
   46.3053   31.1689   44.0736 H   0  0  0  0  0  0  0  0  0  0  0  0
   45.4859   34.2191   47.0268 H   0  0  0  0  0  0  0  0  0  0  0  0
   45.0944   33.0460   49.6962 H   0  0  0  0  0  0  0  0  0  0  0  0
   45.1436   30.5947   50.6065 H   0  0  0  0  0  0  0  0  0  0  0  0
   46.1347   29.4006   45.8790 H   0  0  0  0  0  0  0  0  0  0  0  0
   44.2680   36.4279   43.3249 H   0  0  0  0  0  0  0  0  0  0  0  0
   46.2345   36.5310   41.7536 H   0  0  0  0  0  0  0  0  0  0  0  0
   47.9747   33.8821   41.2490 H   0  0  0  0  0  0  0  0  0  0  0  0
   49.5162   36.0735   40.3826 H   0  0  0  0  0  0  0  0  0  0  0  0
   48.8082   37.0547   41.3649 H   0  0  0  0  0  0  0  0  0  0  0  0
   49.8129   35.3904   43.4842 H   0  0  0  0  0  0  0  0  0  0  0  0
   50.7232   34.5741   42.5306 H   0  0  0  0  0  0  0  0  0  0  0  0
  1  2  2  0
  1  9  1  0
  2  3  1  0
  3  4  2  0
  4  5  1  0
  5  6  1  0
  7  6  2  0
  8  4  1  0
  8  7  1  0
  9  8  2  0
 10 15  2  0
 11 12  2  0
 11 10  1  0
 12 13  1  0
 13 14  2  0
 14  2  1  0
 15 14  1  0
 16 18  1  0
 16 12  1  0
 17 16  1  0
 17 18  1  0
  1 19  1  0
  3 20  1  0
  5 21  1  0
  6 22  1  0
  9 23  1  0
 10 24  1  0
 11 25  1  0
 16 26  1  0
 17 27  1  0
 17 28  1  0
 18 29  1  0
 18 30  1  0
M  ISO  8  19  14  20  14  21   9  22  14  23  14  24  14  25  14  26  13
M  ISO  4  27  13  28  13  29  13  30  13
M  END
>  <minimizedAffinity>  (1) 
-6.05424738

>  <minimizedRMSD>  (1) 
1.38330257

$$$$
