
     RDKit          3D

 33 36  0  0  0  0  0  0  0  0999 V2000
   46.9210   35.0890   42.6370 C   0  0  0  0  0  0  0  0  0  0  0  0
   47.9070   34.5700   41.7990 C   0  0  0  0  0  0  0  0  0  0  0  0
   48.4260   33.3070   42.0900 C   0  0  0  0  0  0  0  0  0  0  0  0
   47.9170   32.6800   43.1840 N   0  0  0  0  0  0  0  0  0  0  0  0
   46.9720   33.1860   43.9810 C   0  0  0  0  0  0  0  0  0  0  0  0
   46.4750   34.3880   43.7090 N   0  0  0  0  0  0  0  0  0  0  0  0
   46.2470   31.0670   45.0000 C   0  0  0  0  0  0  0  0  0  0  0  0
   46.5140   32.4140   45.1200 C   0  0  0  0  0  0  0  0  0  0  0  0
   46.3560   33.0970   46.3310 C   0  0  0  0  0  0  0  0  0  0  0  0
   45.9190   32.4310   47.4690 C   0  0  0  0  0  0  0  0  0  0  0  0
   45.6590   32.7400   48.7560 N   0  0  0  0  0  0  0  0  0  0  0  0
   45.2450   31.6190   49.4070 C   0  0  0  0  0  0  0  0  0  0  0  0
   45.2560   30.6120   48.4920 N   0  0  0  0  0  0  0  0  0  0  0  0
   45.6620   31.0820   47.3050 C   0  0  0  0  0  0  0  0  0  0  0  0
   45.8060   30.3780   46.1320 C   0  0  0  0  0  0  0  0  0  0  0  0
   47.5400   32.3340   39.3370 Cl  0  0  0  0  0  0  0  0  0  0  0  0
   49.1370   32.2030   40.0390 C   0  0  0  0  0  0  0  0  0  0  0  0
   49.4540   32.6680   41.2880 C   0  0  0  0  0  0  0  0  0  0  0  0
   50.7490   32.4960   41.7110 C   0  0  0  0  0  0  0  0  0  0  0  0
   51.7350   31.8950   40.9690 C   0  0  0  0  0  0  0  0  0  0  0  0
   51.3840   31.4330   39.7060 C   0  0  0  0  0  0  0  0  0  0  0  0
   50.0940   31.5820   39.2340 C   0  0  0  0  0  0  0  0  0  0  0  0
   46.4983   36.0823   42.4255 H   0  0  0  0  0  0  0  0  0  0  0  0
   48.2669   35.1412   40.9305 H   0  0  0  0  0  0  0  0  0  0  0  0
   46.3777   30.5487   44.0386 H   0  0  0  0  0  0  0  0  0  0  0  0
   46.5802   34.1727   46.3824 H   0  0  0  0  0  0  0  0  0  0  0  0
   45.7579   33.6743   49.1782 H   0  0  0  0  0  0  0  0  0  0  0  0
   44.9576   31.5420   50.4660 H   0  0  0  0  0  0  0  0  0  0  0  0
   45.5801   29.3024   46.0868 H   0  0  0  0  0  0  0  0  0  0  0  0
   51.0143   32.8650   42.7127 H   0  0  0  0  0  0  0  0  0  0  0  0
   52.7583   31.7838   41.3570 H   0  0  0  0  0  0  0  0  0  0  0  0
   52.1411   30.9436   39.0756 H   0  0  0  0  0  0  0  0  0  0  0  0
   49.8234   31.2147   38.2331 H   0  0  0  0  0  0  0  0  0  0  0  0
  1  6  2  0
  2  3  2  0
  2  1  1  0
  3  4  1  0
  4  5  2  0
  5  8  1  0
  6  5  1  0
  7  8  2  0
  7 15  1  0
  8  9  1  0
  9 10  2  0
 10 11  1  0
 11 12  1  0
 13 12  2  0
 14 10  1  0
 14 13  1  0
 15 14  2  0
 16 17  1  0
 17 18  2  0
 18 19  1  0
 18  3  1  0
 20 19  2  0
 21 20  1  0
 22 21  2  0
 22 17  1  0
  1 23  1  0
  2 24  1  0
  7 25  1  0
  9 26  1  0
 11 27  1  0
 12 28  1  0
 15 29  1  0
 19 30  1  0
 20 31  1  0
 21 32  1  0
 22 33  1  0
M  ISO  8  23  14  24  14  25  14  26  14  27   9  28  14  29  14  30  14
M  ISO  3  31  14  32  14  33  14
M  END
>  <minimizedAffinity>  (1) 
-5.86771917

>  <minimizedRMSD>  (1) 
1.21059251

$$$$
