
     RDKit          3D

 32 35  0  0  0  0  0  0  0  0999 V2000
   47.0160   34.9760   42.5670 C   0  0  0  0  0  0  0  0  0  0  0  0
   48.0100   34.4420   41.7460 C   0  0  0  0  0  0  0  0  0  0  0  0
   48.5140   33.1800   42.0840 C   0  0  0  0  0  0  0  0  0  0  0  0
   48.0190   32.5340   43.1890 N   0  0  0  0  0  0  0  0  0  0  0  0
   47.0520   33.0920   43.9570 C   0  0  0  0  0  0  0  0  0  0  0  0
   46.5600   34.2980   43.6470 N   0  0  0  0  0  0  0  0  0  0  0  0
   46.2990   31.0040   45.0120 C   0  0  0  0  0  0  0  0  0  0  0  0
   46.5730   32.3480   45.1160 C   0  0  0  0  0  0  0  0  0  0  0  0
   46.4160   33.0770   46.3010 C   0  0  0  0  0  0  0  0  0  0  0  0
   45.9590   32.4180   47.4470 C   0  0  0  0  0  0  0  0  0  0  0  0
   45.6900   32.7620   48.7270 N   0  0  0  0  0  0  0  0  0  0  0  0
   45.2620   31.6660   49.3980 C   0  0  0  0  0  0  0  0  0  0  0  0
   45.2720   30.6340   48.5090 N   0  0  0  0  0  0  0  0  0  0  0  0
   45.6930   31.0770   47.3170 C   0  0  0  0  0  0  0  0  0  0  0  0
   45.8400   30.3400   46.1590 C   0  0  0  0  0  0  0  0  0  0  0  0
   49.5550   32.5810   41.2550 C   0  0  0  0  0  0  0  0  0  0  0  0
   50.8100   32.4060   41.7900 C   0  0  0  0  0  0  0  0  0  0  0  0
   51.7370   31.8320   40.9400 C   0  0  0  0  0  0  0  0  0  0  0  0
   51.3860   31.4710   39.6370 C   0  0  0  0  0  0  0  0  0  0  0  0
   50.0890   31.6770   39.1520 C   0  0  0  0  0  0  0  0  0  0  0  0
   49.1890   32.2440   40.0070 N   0  0  0  0  0  0  0  0  0  0  0  0
   46.5954   35.9651   42.3328 H   0  0  0  0  0  0  0  0  0  0  0  0
   48.3828   34.9905   40.8684 H   0  0  0  0  0  0  0  0  0  0  0  0
   46.4353   30.4680   44.0612 H   0  0  0  0  0  0  0  0  0  0  0  0
   46.6485   34.1517   46.3303 H   0  0  0  0  0  0  0  0  0  0  0  0
   45.7939   33.7054   49.1271 H   0  0  0  0  0  0  0  0  0  0  0  0
   44.9641   31.6185   50.4558 H   0  0  0  0  0  0  0  0  0  0  0  0
   45.6045   29.2657   46.1366 H   0  0  0  0  0  0  0  0  0  0  0  0
   51.0582   32.7015   42.8201 H   0  0  0  0  0  0  0  0  0  0  0  0
   52.7637   31.6574   41.2941 H   0  0  0  0  0  0  0  0  0  0  0  0
   52.1424   31.0167   38.9802 H   0  0  0  0  0  0  0  0  0  0  0  0
   49.8077   31.3943   38.1269 H   0  0  0  0  0  0  0  0  0  0  0  0
  1  6  2  0
  2  3  2  0
  2  1  1  0
  3  4  1  0
  4  5  2  0
  5  8  1  0
  6  5  1  0
  7  8  2  0
  7 15  1  0
  8  9  1  0
  9 10  2  0
 10 11  1  0
 11 12  1  0
 13 12  2  0
 14 10  1  0
 14 13  1  0
 15 14  2  0
 16 17  2  0
 16  3  1  0
 18 17  1  0
 19 18  2  0
 20 19  1  0
 20 21  2  0
 21 16  1  0
  1 22  1  0
  2 23  1  0
  7 24  1  0
  9 25  1  0
 11 26  1  0
 12 27  1  0
 15 28  1  0
 17 29  1  0
 18 30  1  0
 19 31  1  0
 20 32  1  0
M  ISO  8  22  14  23  14  24  14  25  14  26   9  27  14  28  14  29  14
M  ISO  3  30  14  31  14  32  14
M  END
>  <minimizedAffinity>  (1) 
-5.71605968

>  <minimizedRMSD>  (1) 
1.14902616

$$$$
