
     RDKit          3D

 29 31  0  0  0  0  0  0  0  0999 V2000
   47.0430   31.9800   45.3270 C   0  0  0  0  0  0  0  0  0  0  0  0
   46.1910   33.0500   45.5300 C   0  0  0  0  0  0  0  0  0  0  0  0
   45.4520   33.2180   46.6970 C   0  0  0  0  0  0  0  0  0  0  0  0
   45.5680   32.2700   47.7170 C   0  0  0  0  0  0  0  0  0  0  0  0
   45.0140   32.1180   48.9560 N   0  0  0  0  0  0  0  0  0  0  0  0
   45.5280   30.9650   49.4950 C   0  0  0  0  0  0  0  0  0  0  0  0
   46.3830   30.4390   48.5730 N   0  0  0  0  0  0  0  0  0  0  0  0
   46.4250   31.2180   47.4790 C   0  0  0  0  0  0  0  0  0  0  0  0
   47.1600   31.0340   46.3380 C   0  0  0  0  0  0  0  0  0  0  0  0
   44.9440   35.9300   43.5970 C   0  0  0  0  0  0  0  0  0  0  0  0
   45.8150   35.9510   42.4990 C   0  0  0  0  0  0  0  0  0  0  0  0
   46.8330   34.9720   42.4250 C   0  0  0  0  0  0  0  0  0  0  0  0
   46.8750   34.0760   43.4520 N   0  0  0  0  0  0  0  0  0  0  0  0
   46.0340   34.0720   44.4920 C   0  0  0  0  0  0  0  0  0  0  0  0
   45.0730   34.9940   44.5650 N   0  0  0  0  0  0  0  0  0  0  0  0
   47.8120   34.8670   41.3470 C   0  0  0  0  0  0  0  0  0  0  0  0
   48.9670   35.8140   41.5970 C   0  0  0  0  0  0  0  0  0  0  0  0
   47.6124   31.8805   44.3911 H   0  0  0  0  0  0  0  0  0  0  0  0
   44.7856   34.0852   46.8150 H   0  0  0  0  0  0  0  0  0  0  0  0
   44.3360   32.7514   49.4032 H   0  0  0  0  0  0  0  0  0  0  0  0
   45.2940   30.5448   50.4843 H   0  0  0  0  0  0  0  0  0  0  0  0
   47.8230   30.1635   46.2254 H   0  0  0  0  0  0  0  0  0  0  0  0
   44.1462   36.6835   43.6724 H   0  0  0  0  0  0  0  0  0  0  0  0
   45.7091   36.7123   41.7121 H   0  0  0  0  0  0  0  0  0  0  0  0
   47.3305   35.1249   40.3922 H   0  0  0  0  0  0  0  0  0  0  0  0
   48.1943   33.8363   41.3078 H   0  0  0  0  0  0  0  0  0  0  0  0
   49.1143   35.9347   42.6804 H   0  0  0  0  0  0  0  0  0  0  0  0
   49.8823   35.4030   41.1461 H   0  0  0  0  0  0  0  0  0  0  0  0
   48.7434   36.7921   41.1461 H   0  0  0  0  0  0  0  0  0  0  0  0
  1  2  2  0
  1  9  1  0
  2  3  1  0
  3  4  2  0
  4  5  1  0
  5  6  1  0
  7  6  2  0
  8  4  1  0
  8  7  1  0
  9  8  2  0
 10 15  2  0
 11 10  1  0
 12 11  2  0
 12 13  1  0
 13 14  2  0
 14 15  1  0
 14  2  1  0
 16 17  1  0
 16 12  1  0
  1 18  1  0
  3 19  1  0
  5 20  1  0
  6 21  1  0
  9 22  1  0
 10 23  1  0
 11 24  1  0
 16 25  1  0
 16 26  1  0
 17 27  1  0
 17 28  1  0
 17 29  1  0
M  ISO  8  18  14  19  14  20   9  21  14  22  14  23  14  24  14  25   8
M  ISO  4  26   8  27   8  28   8  29   8
M  END
>  <minimizedAffinity>  (1) 
-5.60397863

>  <minimizedRMSD>  (1) 
1.45121169

$$$$
