
     RDKit          3D

 35 38  0  0  0  0  0  0  0  0999 V2000
   47.3260   31.2550   45.1320 C   0  0  0  0  0  0  0  0  0  0  0  0
   46.8970   32.5590   45.0310 C   0  0  0  0  0  0  0  0  0  0  0  0
   46.2580   33.2290   46.0700 C   0  0  0  0  0  0  0  0  0  0  0  0
   46.0210   32.5940   47.2860 C   0  0  0  0  0  0  0  0  0  0  0  0
   45.4590   32.8980   48.4740 N   0  0  0  0  0  0  0  0  0  0  0  0
   45.5390   31.8090   49.2860 C   0  0  0  0  0  0  0  0  0  0  0  0
   46.1560   30.8360   48.5880 N   0  0  0  0  0  0  0  0  0  0  0  0
   46.4670   31.2780   47.3570 C   0  0  0  0  0  0  0  0  0  0  0  0
   47.1000   30.5920   46.3450 C   0  0  0  0  0  0  0  0  0  0  0  0
   46.7080   35.1540   42.4220 C   0  0  0  0  0  0  0  0  0  0  0  0
   47.5510   34.6330   41.4150 C   0  0  0  0  0  0  0  0  0  0  0  0
   48.1630   33.3980   41.6620 C   0  0  0  0  0  0  0  0  0  0  0  0
   47.9160   32.7700   42.8480 N   0  0  0  0  0  0  0  0  0  0  0  0
   47.1070   33.2950   43.7900 C   0  0  0  0  0  0  0  0  0  0  0  0
   46.5120   34.4750   43.5730 N   0  0  0  0  0  0  0  0  0  0  0  0
   49.0140   32.8470   40.6680 N   0  0  0  0  0  0  0  0  0  0  0  0
   50.2820   32.2380   41.0100 C   0  0  0  0  0  0  0  0  0  0  0  0
   50.6430   31.4830   39.7290 C   0  0  0  0  0  0  0  0  0  0  0  0
   49.4330   31.5350   38.8430 C   0  0  0  0  0  0  0  0  0  0  0  0
   48.7470   32.8190   39.2460 C   0  0  0  0  0  0  0  0  0  0  0  0
   47.8274   30.7525   44.2917 H   0  0  0  0  0  0  0  0  0  0  0  0
   45.9367   34.2715   45.9289 H   0  0  0  0  0  0  0  0  0  0  0  0
   45.0389   33.8043   48.7249 H   0  0  0  0  0  0  0  0  0  0  0  0
   45.1690   31.7367   50.3194 H   0  0  0  0  0  0  0  0  0  0  0  0
   47.4203   29.5491   46.4855 H   0  0  0  0  0  0  0  0  0  0  0  0
   46.2070   36.1210   42.2673 H   0  0  0  0  0  0  0  0  0  0  0  0
   47.7200   35.1764   40.4736 H   0  0  0  0  0  0  0  0  0  0  0  0
   51.0379   33.0008   41.2483 H   0  0  0  0  0  0  0  0  0  0  0  0
   50.2330   31.5933   41.8999 H   0  0  0  0  0  0  0  0  0  0  0  0
   51.4976   31.9657   39.2324 H   0  0  0  0  0  0  0  0  0  0  0  0
   50.9282   30.4437   39.9490 H   0  0  0  0  0  0  0  0  0  0  0  0
   48.7791   30.6686   39.0213 H   0  0  0  0  0  0  0  0  0  0  0  0
   49.6872   31.5059   37.7732 H   0  0  0  0  0  0  0  0  0  0  0  0
   49.1875   33.6884   38.7361 H   0  0  0  0  0  0  0  0  0  0  0  0
   47.6788   32.8604   38.9867 H   0  0  0  0  0  0  0  0  0  0  0  0
  1  9  2  0
  2  1  1  0
  2  3  2  0
  3  4  1  0
  4  8  2  0
  4  5  1  0
  5  6  1  0
  7  6  2  0
  8  7  1  0
  9  8  1  0
 10 15  2  0
 11 12  2  0
 11 10  1  0
 12 13  1  0
 13 14  2  0
 14  2  1  0
 15 14  1  0
 16 17  1  0
 16 12  1  0
 18 17  1  0
 19 20  1  0
 19 18  1  0
 20 16  1  0
  1 21  1  0
  3 22  1  0
  5 23  1  0
  6 24  1  0
  9 25  1  0
 10 26  1  0
 11 27  1  0
 17 28  1  0
 17 29  1  0
 18 30  1  0
 18 31  1  0
 19 32  1  0
 19 33  1  0
 20 34  1  0
 20 35  1  0
M  ISO  8  21  14  22  14  23   9  24  14  25  14  26  14  27  14  28  13
M  ISO  7  29  13  30  13  31  13  32  13  33  13  34  13  35  13
M  END
>  <minimizedAffinity>  (1) 
-5.45342445

>  <minimizedRMSD>  (1) 
1.1095562

$$$$
