
     RDKit          3D

 29 32  0  0  0  0  0  0  0  0999 V2000
   46.9420   35.0300   42.5260 C   0  0  0  0  0  0  0  0  0  0  0  0
   47.9270   34.4930   41.6860 C   0  0  0  0  0  0  0  0  0  0  0  0
   48.4730   33.2420   41.9930 C   0  0  0  0  0  0  0  0  0  0  0  0
   47.9920   32.6260   43.1100 N   0  0  0  0  0  0  0  0  0  0  0  0
   47.0520   33.1370   43.9120 C   0  0  0  0  0  0  0  0  0  0  0  0
   46.5460   34.3280   43.6030 N   0  0  0  0  0  0  0  0  0  0  0  0
   46.4610   31.0330   45.0100 C   0  0  0  0  0  0  0  0  0  0  0  0
   46.6160   32.3930   45.0830 C   0  0  0  0  0  0  0  0  0  0  0  0
   46.3790   33.1320   46.2490 C   0  0  0  0  0  0  0  0  0  0  0  0
   45.9630   32.4770   47.4060 C   0  0  0  0  0  0  0  0  0  0  0  0
   45.6470   32.8350   48.6770 N   0  0  0  0  0  0  0  0  0  0  0  0
   45.3090   31.7040   49.3580 C   0  0  0  0  0  0  0  0  0  0  0  0
   45.4200   30.6520   48.4910 N   0  0  0  0  0  0  0  0  0  0  0  0
   45.8160   31.1020   47.2980 C   0  0  0  0  0  0  0  0  0  0  0  0
   46.0440   30.3530   46.1640 C   0  0  0  0  0  0  0  0  0  0  0  0
   49.5000   32.6050   41.1790 C   0  0  0  0  0  0  0  0  0  0  0  0
   49.2040   32.2000   39.8710 C   0  0  0  0  0  0  0  0  0  0  0  0
   50.8330   31.4510   39.2620 S   0  0  0  0  0  0  0  0  0  0  0  0
   51.5920   31.8520   40.9420 C   0  0  0  0  0  0  0  0  0  0  0  0
   50.7380   32.3610   41.5630 N   0  0  0  0  0  0  0  0  0  0  0  0
   46.4985   36.0126   42.3075 H   0  0  0  0  0  0  0  0  0  0  0  0
   48.2659   35.0471   40.7982 H   0  0  0  0  0  0  0  0  0  0  0  0
   46.6579   30.4905   44.0736 H   0  0  0  0  0  0  0  0  0  0  0  0
   46.5205   34.2229   46.2511 H   0  0  0  0  0  0  0  0  0  0  0  0
   45.6604   33.7916   49.0587 H   0  0  0  0  0  0  0  0  0  0  0  0
   45.0027   31.6474   50.4130 H   0  0  0  0  0  0  0  0  0  0  0  0
   45.9042   29.2619   46.1637 H   0  0  0  0  0  0  0  0  0  0  0  0
   48.2524   32.2945   39.3274 H   0  0  0  0  0  0  0  0  0  0  0  0
   52.6222   31.6501   41.2706 H   0  0  0  0  0  0  0  0  0  0  0  0
  1  6  2  0
  2  3  2  0
  2  1  1  0
  3  4  1  0
  4  5  2  0
  5  8  1  0
  6  5  1  0
  7  8  2  0
  7 15  1  0
  8  9  1  0
  9 10  2  0
 10 11  1  0
 11 12  1  0
 13 12  2  0
 14 10  1  0
 14 13  1  0
 15 14  2  0
 16 20  1  0
 16  3  1  0
 17 16  2  0
 18 17  1  0
 18 19  1  0
 19 20  2  0
  1 21  1  0
  2 22  1  0
  7 23  1  0
  9 24  1  0
 11 25  1  0
 12 26  1  0
 15 27  1  0
 17 28  1  0
 19 29  1  0
M  ISO  8  21  14  22  14  23  14  24  14  25   9  26  14  27  14  28  14
M  ISO  1  29  14
M  END
>  <minimizedAffinity>  (1) 
-5.43589735

>  <minimizedRMSD>  (1) 
1.08293545

$$$$
