
     RDKit          3D

 27 29  0  0  0  0  0  0  0  0999 V2000
   47.2880   31.3190   45.0880 C   0  0  0  0  0  0  0  0  0  0  0  0
   46.9190   32.6580   45.0620 C   0  0  0  0  0  0  0  0  0  0  0  0
   46.3040   33.2940   46.1290 C   0  0  0  0  0  0  0  0  0  0  0  0
   46.0350   32.5730   47.2950 C   0  0  0  0  0  0  0  0  0  0  0  0
   45.4650   32.8560   48.5020 N   0  0  0  0  0  0  0  0  0  0  0  0
   45.4870   31.7090   49.2470 C   0  0  0  0  0  0  0  0  0  0  0  0
   46.0730   30.7370   48.4840 N   0  0  0  0  0  0  0  0  0  0  0  0
   46.4130   31.2500   47.2890 C   0  0  0  0  0  0  0  0  0  0  0  0
   47.0220   30.5930   46.2500 C   0  0  0  0  0  0  0  0  0  0  0  0
   46.6170   35.1990   42.4120 C   0  0  0  0  0  0  0  0  0  0  0  0
   47.7200   34.9240   41.6050 C   0  0  0  0  0  0  0  0  0  0  0  0
   48.5630   33.8660   41.9720 C   0  0  0  0  0  0  0  0  0  0  0  0
   48.2620   33.1550   43.1100 N   0  0  0  0  0  0  0  0  0  0  0  0
   47.1790   33.4580   43.8650 C   0  0  0  0  0  0  0  0  0  0  0  0
   46.3790   34.4620   43.5150 N   0  0  0  0  0  0  0  0  0  0  0  0
   49.3540   32.4360   40.3140 C   0  0  0  0  0  0  0  0  0  0  0  0
   48.1060   32.1680   40.2980 O   0  0  0  0  0  0  0  0  0  0  0  0
   49.7270   33.4380   41.2800 N   0  0  0  0  0  0  0  0  0  0  0  0
   47.7737   30.8465   44.2215 H   0  0  0  0  0  0  0  0  0  0  0  0
   46.0302   34.3570   46.0583 H   0  0  0  0  0  0  0  0  0  0  0  0
   45.0870   33.7672   48.7982 H   0  0  0  0  0  0  0  0  0  0  0  0
   45.1039   31.5903   50.2713 H   0  0  0  0  0  0  0  0  0  0  0  0
   47.2917   29.5296   46.3300 H   0  0  0  0  0  0  0  0  0  0  0  0
   45.9371   36.0221   42.1470 H   0  0  0  0  0  0  0  0  0  0  0  0
   47.9234   35.5215   40.7041 H   0  0  0  0  0  0  0  0  0  0  0  0
   50.0803   31.9455   39.6493 H   0  0  0  0  0  0  0  0  0  0  0  0
   50.6824   33.7870   41.4422 H   0  0  0  0  0  0  0  0  0  0  0  0
  1  9  2  0
  2  1  1  0
  2  3  2  0
  3  4  1  0
  4  5  1  0
  5  6  1  0
  7  6  2  0
  8  4  2  0
  8  7  1  0
  9  8  1  0
 10 15  2  0
 11 12  2  0
 11 10  1  0
 12 13  1  0
 13 14  2  0
 14  2  1  0
 15 14  1  0
 16 18  1  0
 17 16  2  0
 18 12  1  0
  1 19  1  0
  3 20  1  0
  5 21  1  0
  6 22  1  0
  9 23  1  0
 10 24  1  0
 11 25  1  0
 16 26  1  0
 18 27  1  0
M  ISO  8  19  14  20  14  21   9  22  14  23  14  24  14  25  14  26   6
M  END
>  <minimizedAffinity>  (1) 
-5.42028522

>  <minimizedRMSD>  (1) 
0.71713829

$$$$
