
     RDKit          3D

 25 27  0  0  0  0  0  0  0  0999 V2000
   46.3000   31.3050   45.0080 C   0  0  0  0  0  0  0  0  0  0  0  0
   46.4020   32.6640   45.2220 C   0  0  0  0  0  0  0  0  0  0  0  0
   46.1870   33.2440   46.4660 C   0  0  0  0  0  0  0  0  0  0  0  0
   45.8520   32.4590   47.5690 C   0  0  0  0  0  0  0  0  0  0  0  0
   45.5800   32.6540   48.8820 N   0  0  0  0  0  0  0  0  0  0  0  0
   45.3190   31.4400   49.4450 C   0  0  0  0  0  0  0  0  0  0  0  0
   45.4330   30.5070   48.4790 N   0  0  0  0  0  0  0  0  0  0  0  0
   45.7580   31.0940   47.3140 C   0  0  0  0  0  0  0  0  0  0  0  0
   45.9660   30.4890   46.0930 C   0  0  0  0  0  0  0  0  0  0  0  0
   46.1940   35.2900   42.6530 C   0  0  0  0  0  0  0  0  0  0  0  0
   47.4650   35.2000   42.0430 C   0  0  0  0  0  0  0  0  0  0  0  0
   48.3870   34.2310   42.5240 C   0  0  0  0  0  0  0  0  0  0  0  0
   47.9490   33.4570   43.5570 N   0  0  0  0  0  0  0  0  0  0  0  0
   46.7460   33.5490   44.1280 C   0  0  0  0  0  0  0  0  0  0  0  0
   45.8960   34.4610   43.6670 N   0  0  0  0  0  0  0  0  0  0  0  0
   49.7110   34.0960   41.9290 C   0  0  0  0  0  0  0  0  0  0  0  0
   50.6190   33.5770   42.6280 O   0  0  0  0  0  0  0  0  0  0  0  0
   46.4766   30.8752   44.0110 H   0  0  0  0  0  0  0  0  0  0  0  0
   46.2820   34.3337   46.5822 H   0  0  0  0  0  0  0  0  0  0  0  0
   45.5718   33.5612   49.3697 H   0  0  0  0  0  0  0  0  0  0  0  0
   45.0616   31.2552   50.4984 H   0  0  0  0  0  0  0  0  0  0  0  0
   45.8722   29.3993   45.9761 H   0  0  0  0  0  0  0  0  0  0  0  0
   45.4584   36.0289   42.3024 H   0  0  0  0  0  0  0  0  0  0  0  0
   47.7360   35.8672   41.2115 H   0  0  0  0  0  0  0  0  0  0  0  0
   49.9096   34.4369   40.9022 H   0  0  0  0  0  0  0  0  0  0  0  0
  1  2  2  0
  1  9  1  0
  2  3  1  0
  3  4  2  0
  4  5  1  0
  5  6  1  0
  7  6  2  0
  8  4  1  0
  8  7  1  0
  9  8  2  0
 10 15  2  0
 11 12  2  0
 11 10  1  0
 12 13  1  0
 13 14  2  0
 14  2  1  0
 15 14  1  0
 16 12  1  0
 16 17  2  0
  1 18  1  0
  3 19  1  0
  5 20  1  0
  6 21  1  0
  9 22  1  0
 10 23  1  0
 11 24  1  0
 16 25  1  0
M  ISO  8  18  14  19  14  20   9  21  14  22  14  23  14  24  14  25   6
M  END
>  <minimizedAffinity>  (1) 
-5.23264933

>  <minimizedRMSD>  (1) 
0.552906573

$$$$
