
     RDKit          3D

 26 28  0  0  0  0  0  0  0  0999 V2000
   47.1190   31.5570   45.2740 C   0  0  0  0  0  0  0  0  0  0  0  0
   46.4590   32.7660   45.3580 C   0  0  0  0  0  0  0  0  0  0  0  0
   45.7380   33.1570   46.4910 C   0  0  0  0  0  0  0  0  0  0  0  0
   45.6700   32.3090   47.5990 C   0  0  0  0  0  0  0  0  0  0  0  0
   45.0990   32.3350   48.8210 N   0  0  0  0  0  0  0  0  0  0  0  0
   45.4140   31.1600   49.4610 C   0  0  0  0  0  0  0  0  0  0  0  0
   46.1730   30.4290   48.6230 N   0  0  0  0  0  0  0  0  0  0  0  0
   46.3500   31.1050   47.4670 C   0  0  0  0  0  0  0  0  0  0  0  0
   47.0690   30.6890   46.3620 C   0  0  0  0  0  0  0  0  0  0  0  0
   45.4510   35.2140   42.8150 C   0  0  0  0  0  0  0  0  0  0  0  0
   46.6310   35.4430   42.1100 C   0  0  0  0  0  0  0  0  0  0  0  0
   47.7720   34.7450   42.5220 C   0  0  0  0  0  0  0  0  0  0  0  0
   47.6420   33.8940   43.5830 N   0  0  0  0  0  0  0  0  0  0  0  0
   46.4910   33.6940   44.2410 C   0  0  0  0  0  0  0  0  0  0  0  0
   45.3840   34.3530   43.8630 N   0  0  0  0  0  0  0  0  0  0  0  0
   49.0570   34.9520   41.8050 C   0  0  0  0  0  0  0  0  0  0  0  0
   48.9440   35.9960   40.8860 F   0  0  0  0  0  0  0  0  0  0  0  0
   50.0290   35.3200   42.6870 F   0  0  0  0  0  0  0  0  0  0  0  0
   49.3770   33.7870   41.1490 F   0  0  0  0  0  0  0  0  0  0  0  0
   47.6743   31.2839   44.3646 H   0  0  0  0  0  0  0  0  0  0  0  0
   45.2256   34.1302   46.5095 H   0  0  0  0  0  0  0  0  0  0  0  0
   44.5277   33.1004   49.2065 H   0  0  0  0  0  0  0  0  0  0  0  0
   45.1022   30.8693   50.4750 H   0  0  0  0  0  0  0  0  0  0  0  0
   47.5794   29.7148   46.3429 H   0  0  0  0  0  0  0  0  0  0  0  0
   44.5400   35.7506   42.5113 H   0  0  0  0  0  0  0  0  0  0  0  0
   46.6644   36.1445   41.2633 H   0  0  0  0  0  0  0  0  0  0  0  0
  1  2  2  0
  1  9  1  0
  2  3  1  0
  3  4  2  0
  4  5  1  0
  5  6  1  0
  7  6  2  0
  8  4  1  0
  8  7  1  0
  9  8  2  0
 10 15  2  0
 11 12  2  0
 11 10  1  0
 12 13  1  0
 13 14  2  0
 14  2  1  0
 15 14  1  0
 16 12  1  0
 16 18  1  0
 17 16  1  0
 19 16  1  0
  1 20  1  0
  3 21  1  0
  5 22  1  0
  6 23  1  0
  9 24  1  0
 10 25  1  0
 11 26  1  0
M  ISO  7  20  14  21  14  22   9  23  14  24  14  25  14  26  14
M  END
>  <minimizedAffinity>  (1) 
-6.12608719

>  <minimizedRMSD>  (1) 
0.957843721

$$$$
