
     RDKit          3D

 33 36  0  0  0  0  0  0  0  0999 V2000
   47.1470   30.7440   45.4580 C   0  0  0  0  0  0  0  0  0  0  0  0
   46.7240   32.0330   45.1940 C   0  0  0  0  0  0  0  0  0  0  0  0
   46.1290   32.8550   46.1660 C   0  0  0  0  0  0  0  0  0  0  0  0
   45.9470   32.3670   47.4650 C   0  0  0  0  0  0  0  0  0  0  0  0
   45.4330   32.8440   48.6200 N   0  0  0  0  0  0  0  0  0  0  0  0
   45.5480   31.8550   49.5600 C   0  0  0  0  0  0  0  0  0  0  0  0
   46.1240   30.7970   48.9780 N   0  0  0  0  0  0  0  0  0  0  0  0
   46.3910   31.0610   47.6800 C   0  0  0  0  0  0  0  0  0  0  0  0
   46.9770   30.2390   46.7450 C   0  0  0  0  0  0  0  0  0  0  0  0
   46.1580   32.9270   41.6850 C   0  0  0  0  0  0  0  0  0  0  0  0
   47.2680   33.7030   41.3610 C   0  0  0  0  0  0  0  0  0  0  0  0
   48.2060   33.9070   42.3770 C   0  0  0  0  0  0  0  0  0  0  0  0
   47.9650   33.3360   43.5950 N   0  0  0  0  0  0  0  0  0  0  0  0
   46.8850   32.5960   43.8630 C   0  0  0  0  0  0  0  0  0  0  0  0
   45.9670   32.3820   42.9110 N   0  0  0  0  0  0  0  0  0  0  0  0
   49.4160   34.7290   42.0950 C   0  0  0  0  0  0  0  0  0  0  0  0
   49.1270   35.7820   41.2460 F   0  0  0  0  0  0  0  0  0  0  0  0
   49.8890   35.2810   43.2470 F   0  0  0  0  0  0  0  0  0  0  0  0
   50.3590   33.9080   41.5000 F   0  0  0  0  0  0  0  0  0  0  0  0
   47.4140   34.2650   40.0130 C   0  0  0  0  0  0  0  0  0  0  0  0
   48.1820   33.6500   38.9310 C   0  0  0  0  0  0  0  0  0  0  0  0
   46.7130   33.4510   38.9120 C   0  0  0  0  0  0  0  0  0  0  0  0
   47.6076   30.1307   44.6695 H   0  0  0  0  0  0  0  0  0  0  0  0
   45.8085   33.8751   45.9077 H   0  0  0  0  0  0  0  0  0  0  0  0
   45.0288   33.7800   48.7665 H   0  0  0  0  0  0  0  0  0  0  0  0
   45.2238   31.9191   50.6092 H   0  0  0  0  0  0  0  0  0  0  0  0
   47.2996   29.2199   47.0045 H   0  0  0  0  0  0  0  0  0  0  0  0
   45.3998   32.7478   40.9085 H   0  0  0  0  0  0  0  0  0  0  0  0
   47.4370   35.2850   40.4242 H   0  0  0  0  0  0  0  0  0  0  0  0
   48.6518   34.2893   38.1691 H   0  0  0  0  0  0  0  0  0  0  0  0
   49.0421   32.9648   38.9038 H   0  0  0  0  0  0  0  0  0  0  0  0
   46.0934   33.9562   38.1564 H   0  0  0  0  0  0  0  0  0  0  0  0
   46.0331   32.5869   38.8799 H   0  0  0  0  0  0  0  0  0  0  0  0
  1  9  2  0
  2  1  1  0
  2  3  2  0
  3  4  1  0
  4  8  2  0
  4  5  1  0
  5  6  1  0
  7  6  2  0
  8  7  1  0
  9  8  1  0
 10 15  2  0
 11 10  1  0
 11 12  2  0
 12 13  1  0
 13 14  2  0
 14  2  1  0
 15 14  1  0
 16 12  1  0
 16 18  1  0
 17 16  1  0
 19 16  1  0
 20 11  1  0
 21 20  1  0
 22 21  1  0
 22 20  1  0
  1 23  1  0
  3 24  1  0
  5 25  1  0
  6 26  1  0
  9 27  1  0
 10 28  1  0
 20 29  1  0
 21 30  1  0
 21 31  1  0
 22 32  1  0
 22 33  1  0
M  ISO  8  23  14  24  14  25   9  26  14  27  14  28  14  29  13  30  13
M  ISO  3  31  13  32  13  33  13
M  END
>  <minimizedAffinity>  (1) 
-5.73857403

>  <minimizedRMSD>  (1) 
1.50798285

$$$$
