
     RDKit          3D

 27 29  0  0  0  0  0  0  0  0999 V2000
   46.9590   30.8460   45.2770 C   0  0  0  0  0  0  0  0  0  0  0  0
   46.5800   32.1590   45.0740 C   0  0  0  0  0  0  0  0  0  0  0  0
   46.0590   32.9610   46.0990 C   0  0  0  0  0  0  0  0  0  0  0  0
   45.9090   32.4320   47.3810 C   0  0  0  0  0  0  0  0  0  0  0  0
   45.4590   32.8840   48.5810 N   0  0  0  0  0  0  0  0  0  0  0  0
   45.5720   31.8470   49.4840 C   0  0  0  0  0  0  0  0  0  0  0  0
   46.0880   30.7820   48.8200 N   0  0  0  0  0  0  0  0  0  0  0  0
   46.3000   31.1180   47.5400 C   0  0  0  0  0  0  0  0  0  0  0  0
   46.8140   30.3080   46.5550 C   0  0  0  0  0  0  0  0  0  0  0  0
   45.9060   33.2610   41.6420 C   0  0  0  0  0  0  0  0  0  0  0  0
   47.0560   33.9900   41.3190 C   0  0  0  0  0  0  0  0  0  0  0  0
   48.0500   34.0890   42.2940 C   0  0  0  0  0  0  0  0  0  0  0  0
   47.8240   33.4730   43.4820 N   0  0  0  0  0  0  0  0  0  0  0  0
   46.7070   32.7780   43.7650 C   0  0  0  0  0  0  0  0  0  0  0  0
   45.7460   32.6690   42.8490 N   0  0  0  0  0  0  0  0  0  0  0  0
   49.2820   34.8520   41.9930 C   0  0  0  0  0  0  0  0  0  0  0  0
   48.9850   36.0090   41.2670 F   0  0  0  0  0  0  0  0  0  0  0  0
   49.8730   35.2670   43.1560 F   0  0  0  0  0  0  0  0  0  0  0  0
   50.1200   34.0470   41.2610 F   0  0  0  0  0  0  0  0  0  0  0  0
   47.1540   34.5630   40.0780 O   0  0  0  0  0  0  0  0  0  0  0  0
   47.3643   30.2413   44.4524 H   0  0  0  0  0  0  0  0  0  0  0  0
   45.7699   34.0022   45.8934 H   0  0  0  0  0  0  0  0  0  0  0  0
   45.0992   33.8284   48.7801 H   0  0  0  0  0  0  0  0  0  0  0  0
   45.2945   31.8779   50.5480 H   0  0  0  0  0  0  0  0  0  0  0  0
   47.1018   29.2680   46.7686 H   0  0  0  0  0  0  0  0  0  0  0  0
   45.1071   33.1660   40.8918 H   0  0  0  0  0  0  0  0  0  0  0  0
   47.9613   35.0818   39.8347 H   0  0  0  0  0  0  0  0  0  0  0  0
  1  9  2  0
  2  1  1  0
  2  3  2  0
  3  4  1  0
  4  8  2  0
  4  5  1  0
  5  6  1  0
  7  6  2  0
  8  7  1  0
  9  8  1  0
 10 15  2  0
 11 10  1  0
 11 12  2  0
 12 13  1  0
 13 14  2  0
 14  2  1  0
 15 14  1  0
 16 12  1  0
 16 18  1  0
 17 16  1  0
 19 16  1  0
 20 11  1  0
  1 21  1  0
  3 22  1  0
  5 23  1  0
  6 24  1  0
  9 25  1  0
 10 26  1  0
 20 27  1  0
M  ISO  7  21  14  22  14  23   9  24  14  25  14  26  14  27   3
M  END
>  <minimizedAffinity>  (1) 
-5.64344025

>  <minimizedRMSD>  (1) 
1.06338847

$$$$
