
     RDKit          3D

 37 40  0  0  0  0  0  0  0  0999 V2000
   45.3050   33.6800   40.9230 C   0  0  0  0  0  0  0  0  0  0  0  0
   46.3310   34.4510   41.4570 C   0  0  0  0  0  0  0  0  0  0  0  0
   47.4700   34.5970   40.6720 C   0  0  0  0  0  0  0  0  0  0  0  0
   47.4920   33.9790   39.4530 N   0  0  0  0  0  0  0  0  0  0  0  0
   46.4880   33.2430   38.9670 C   0  0  0  0  0  0  0  0  0  0  0  0
   45.3810   33.0900   39.7070 N   0  0  0  0  0  0  0  0  0  0  0  0
   45.8470   31.5370   37.3210 C   0  0  0  0  0  0  0  0  0  0  0  0
   46.6120   32.6320   37.6650 C   0  0  0  0  0  0  0  0  0  0  0  0
   47.5440   33.2150   36.7870 C   0  0  0  0  0  0  0  0  0  0  0  0
   47.7110   32.6700   35.5140 C   0  0  0  0  0  0  0  0  0  0  0  0
   48.4920   32.9560   34.4330 N   0  0  0  0  0  0  0  0  0  0  0  0
   48.1860   32.0320   33.4550 C   0  0  0  0  0  0  0  0  0  0  0  0
   47.2350   31.2090   33.9570 N   0  0  0  0  0  0  0  0  0  0  0  0
   46.9350   31.5840   35.2070 C   0  0  0  0  0  0  0  0  0  0  0  0
   46.0090   30.9890   36.0500 C   0  0  0  0  0  0  0  0  0  0  0  0
   48.6150   35.4050   41.1670 C   0  0  0  0  0  0  0  0  0  0  0  0
   49.6080   34.5740   41.6940 F   0  0  0  0  0  0  0  0  0  0  0  0
   49.1790   36.1210   40.1580 F   0  0  0  0  0  0  0  0  0  0  0  0
   48.1400   36.2460   42.1570 F   0  0  0  0  0  0  0  0  0  0  0  0
   46.2090   35.0240   42.6810 O   0  0  0  0  0  0  0  0  0  0  0  0
   44.4330   35.6530   44.7870 F   0  0  0  0  0  0  0  0  0  0  0  0
   45.3340   34.6380   44.8190 C   0  0  0  0  0  0  0  0  0  0  0  0
   46.2500   34.2590   43.8310 C   0  0  0  0  0  0  0  0  0  0  0  0
   47.0800   33.1900   44.0990 C   0  0  0  0  0  0  0  0  0  0  0  0
   47.0370   32.4990   45.2810 C   0  0  0  0  0  0  0  0  0  0  0  0
   46.1280   32.8790   46.2530 C   0  0  0  0  0  0  0  0  0  0  0  0
   45.2860   33.9370   46.0250 C   0  0  0  0  0  0  0  0  0  0  0  0
   44.3888   33.5429   41.5161 H   0  0  0  0  0  0  0  0  0  0  0  0
   45.1267   31.1069   38.0325 H   0  0  0  0  0  0  0  0  0  0  0  0
   48.1334   34.0893   37.1004 H   0  0  0  0  0  0  0  0  0  0  0  0
   49.1807   33.7184   34.3604 H   0  0  0  0  0  0  0  0  0  0  0  0
   48.6327   31.9745   32.4514 H   0  0  0  0  0  0  0  0  0  0  0  0
   45.4232   30.1157   35.7272 H   0  0  0  0  0  0  0  0  0  0  0  0
   47.8056   32.8801   43.3325 H   0  0  0  0  0  0  0  0  0  0  0  0
   47.7169   31.6521   45.4556 H   0  0  0  0  0  0  0  0  0  0  0  0
   46.0811   32.3332   47.2069 H   0  0  0  0  0  0  0  0  0  0  0  0
   44.5654   34.2363   46.8004 H   0  0  0  0  0  0  0  0  0  0  0  0
  1  2  2  0
  2 20  1  0
  3 16  1  0
  3  2  1  0
  4  3  2  0
  5  4  1  0
  5  6  2  0
  6  1  1  0
  7  8  2  0
  8  5  1  0
  9  8  1  0
 10  9  2  0
 11 10  1  0
 12 13  2  0
 12 11  1  0
 13 14  1  0
 14 10  1  0
 14 15  2  0
 15  7  1  0
 16 17  1  0
 16 19  1  0
 18 16  1  0
 20 23  1  0
 21 22  1  0
 22 27  2  0
 23 24  2  0
 23 22  1  0
 24 25  1  0
 25 26  2  0
 27 26  1  0
  1 28  1  0
  7 29  1  0
  9 30  1  0
 11 31  1  0
 12 32  1  0
 15 33  1  0
 24 34  1  0
 25 35  1  0
 26 36  1  0
 27 37  1  0
M  ISO  8  28  14  29  14  30  14  31   9  32  14  33  14  34  14  35  14
M  ISO  2  36  14  37  14
M  END
>  <minimizedAffinity>  (1) 
-6.5753274

>  <minimizedRMSD>  (1) 
8.18298721

$$$$
