
     RDKit          3D

 37 40  0  0  0  0  0  0  0  0999 V2000
   46.1760   33.1570   41.4330 C   0  0  0  0  0  0  0  0  0  0  0  0
   47.3390   33.8920   41.2440 C   0  0  0  0  0  0  0  0  0  0  0  0
   48.2050   34.0050   42.3200 C   0  0  0  0  0  0  0  0  0  0  0  0
   47.8550   33.3870   43.4840 N   0  0  0  0  0  0  0  0  0  0  0  0
   46.7160   32.6780   43.6380 C   0  0  0  0  0  0  0  0  0  0  0  0
   45.8730   32.5600   42.6140 N   0  0  0  0  0  0  0  0  0  0  0  0
   46.4690   30.7000   45.0790 C   0  0  0  0  0  0  0  0  0  0  0  0
   46.4420   32.0620   44.9220 C   0  0  0  0  0  0  0  0  0  0  0  0
   46.1540   32.9420   45.9860 C   0  0  0  0  0  0  0  0  0  0  0  0
   45.8810   32.4270   47.2520 C   0  0  0  0  0  0  0  0  0  0  0  0
   45.5700   32.9530   48.4720 N   0  0  0  0  0  0  0  0  0  0  0  0
   45.4160   31.8880   49.3440 C   0  0  0  0  0  0  0  0  0  0  0  0
   45.6350   30.7470   48.6300 N   0  0  0  0  0  0  0  0  0  0  0  0
   45.9160   31.0570   47.3660 C   0  0  0  0  0  0  0  0  0  0  0  0
   46.1960   30.1830   46.3470 C   0  0  0  0  0  0  0  0  0  0  0  0
   49.4640   34.7800   42.1790 C   0  0  0  0  0  0  0  0  0  0  0  0
   49.2890   35.8510   41.3130 F   0  0  0  0  0  0  0  0  0  0  0  0
   49.8460   35.3010   43.3810 F   0  0  0  0  0  0  0  0  0  0  0  0
   50.4310   33.9310   41.6810 F   0  0  0  0  0  0  0  0  0  0  0  0
   47.5860   34.4680   40.0300 O   0  0  0  0  0  0  0  0  0  0  0  0
   48.1690   33.7190   39.0230 C   0  0  0  0  0  0  0  0  0  0  0  0
   48.7840   32.4960   39.1900 C   0  0  0  0  0  0  0  0  0  0  0  0
   49.3080   31.9000   38.0620 C   0  0  0  0  0  0  0  0  0  0  0  0
   49.2370   32.4750   36.8090 C   0  0  0  0  0  0  0  0  0  0  0  0
   48.6120   33.7130   36.6590 C   0  0  0  0  0  0  0  0  0  0  0  0
   48.0810   34.3240   37.7810 C   0  0  0  0  0  0  0  0  0  0  0  0
   45.4730   33.0546   40.5932 H   0  0  0  0  0  0  0  0  0  0  0  0
   46.6985   30.0357   44.2328 H   0  0  0  0  0  0  0  0  0  0  0  0
   46.1449   34.0290   45.8175 H   0  0  0  0  0  0  0  0  0  0  0  0
   45.4690   33.9521   48.7009 H   0  0  0  0  0  0  0  0  0  0  0  0
   45.1641   31.9508   50.4129 H   0  0  0  0  0  0  0  0  0  0  0  0
   46.2053   29.0975   46.5248 H   0  0  0  0  0  0  0  0  0  0  0  0
   48.8535   32.0175   40.1781 H   0  0  0  0  0  0  0  0  0  0  0  0
   49.8042   30.9237   38.1653 H   0  0  0  0  0  0  0  0  0  0  0  0
   49.6691   31.9619   35.9372 H   0  0  0  0  0  0  0  0  0  0  0  0
   48.5429   34.1924   35.6714 H   0  0  0  0  0  0  0  0  0  0  0  0
   47.5838   35.3005   37.6852 H   0  0  0  0  0  0  0  0  0  0  0  0
  1  6  2  0
  2  1  1  0
  2  3  2  0
  3  4  1  0
  4  5  2  0
  5  8  1  0
  6  5  1  0
  7 15  2  0
  8  7  1  0
  8  9  2  0
  9 10  1  0
 10 14  2  0
 10 11  1  0
 11 12  1  0
 13 12  2  0
 14 13  1  0
 15 14  1  0
 16  3  1  0
 16 18  1  0
 17 16  1  0
 19 16  1  0
 20  2  1  0
 21 22  2  0
 21 20  1  0
 23 22  1  0
 24 23  2  0
 25 24  1  0
 25 26  2  0
 26 21  1  0
  1 27  1  0
  7 28  1  0
  9 29  1  0
 11 30  1  0
 12 31  1  0
 15 32  1  0
 22 33  1  0
 23 34  1  0
 24 35  1  0
 25 36  1  0
 26 37  1  0
M  ISO  8  27  14  28  14  29  14  30   9  31  14  32  14  33  14  34  14
M  ISO  3  35  14  36  14  37  14
M  END
>  <minimizedAffinity>  (1) 
-6.30755472

>  <minimizedRMSD>  (1) 
2.04786158

$$$$
