
     RDKit          3D

 42 45  0  0  0  0  0  0  0  0999 V2000
   46.1360   33.1070   41.5420 C   0  0  0  0  0  0  0  0  0  0  0  0
   47.2840   33.8330   41.2680 C   0  0  0  0  0  0  0  0  0  0  0  0
   48.2020   33.9590   42.3150 C   0  0  0  0  0  0  0  0  0  0  0  0
   47.9000   33.3640   43.5080 N   0  0  0  0  0  0  0  0  0  0  0  0
   46.7790   32.6710   43.7300 C   0  0  0  0  0  0  0  0  0  0  0  0
   45.8850   32.5390   42.7380 N   0  0  0  0  0  0  0  0  0  0  0  0
   46.7270   30.7100   45.2210 C   0  0  0  0  0  0  0  0  0  0  0  0
   46.5520   32.0770   45.0300 C   0  0  0  0  0  0  0  0  0  0  0  0
   46.1580   32.9360   46.0500 C   0  0  0  0  0  0  0  0  0  0  0  0
   45.9220   32.4280   47.3280 C   0  0  0  0  0  0  0  0  0  0  0  0
   45.5390   32.9400   48.5280 N   0  0  0  0  0  0  0  0  0  0  0  0
   45.4840   31.9000   49.4260 C   0  0  0  0  0  0  0  0  0  0  0  0
   45.8340   30.7720   48.7610 N   0  0  0  0  0  0  0  0  0  0  0  0
   46.1030   31.0750   47.4820 C   0  0  0  0  0  0  0  0  0  0  0  0
   46.4940   30.1890   46.4910 C   0  0  0  0  0  0  0  0  0  0  0  0
   49.4590   34.7190   42.1150 C   0  0  0  0  0  0  0  0  0  0  0  0
   49.2610   35.7490   41.2010 F   0  0  0  0  0  0  0  0  0  0  0  0
   49.8670   35.3020   43.2740 F   0  0  0  0  0  0  0  0  0  0  0  0
   50.4140   33.8540   41.6210 F   0  0  0  0  0  0  0  0  0  0  0  0
   47.4990   34.3850   40.0530 O   0  0  0  0  0  0  0  0  0  0  0  0
   48.4570   32.2600   36.7730 N   0  0  0  0  0  0  0  0  0  0  0  0
   49.1060   33.5450   36.9690 C   0  0  0  0  0  0  0  0  0  0  0  0
   48.2060   34.4880   37.7400 C   0  0  0  0  0  0  0  0  0  0  0  0
   47.5890   33.6730   38.8730 C   0  0  0  0  0  0  0  0  0  0  0  0
   48.5290   32.4850   39.1760 C   0  0  0  0  0  0  0  0  0  0  0  0
   48.3510   31.5240   38.0190 C   0  0  0  0  0  0  0  0  0  0  0  0
   45.3908   32.9881   40.7417 H   0  0  0  0  0  0  0  0  0  0  0  0
   47.0407   30.0589   44.3917 H   0  0  0  0  0  0  0  0  0  0  0  0
   46.0330   34.0105   45.8504 H   0  0  0  0  0  0  0  0  0  0  0  0
   45.3282   33.9281   48.7282 H   0  0  0  0  0  0  0  0  0  0  0  0
   45.2070   31.9705   50.4882 H   0  0  0  0  0  0  0  0  0  0  0  0
   46.6156   29.1158   46.6995 H   0  0  0  0  0  0  0  0  0  0  0  0
   47.5118   32.4163   36.3948 H   0  0  0  0  0  0  0  0  0  0  0  0
   50.0393   33.3959   37.5318 H   0  0  0  0  0  0  0  0  0  0  0  0
   49.3199   33.9866   35.9845 H   0  0  0  0  0  0  0  0  0  0  0  0
   48.7932   35.3232   38.1494 H   0  0  0  0  0  0  0  0  0  0  0  0
   47.4285   34.9150   37.0894 H   0  0  0  0  0  0  0  0  0  0  0  0
   46.5821   33.3748   38.5457 H   0  0  0  0  0  0  0  0  0  0  0  0
   49.5731   32.8262   39.2354 H   0  0  0  0  0  0  0  0  0  0  0  0
   48.2915   32.0118   40.1402 H   0  0  0  0  0  0  0  0  0  0  0  0
   47.3612   31.0485   38.0834 H   0  0  0  0  0  0  0  0  0  0  0  0
   49.1282   30.7466   38.0587 H   0  0  0  0  0  0  0  0  0  0  0  0
  1  6  2  0
  2  1  1  0
  2  3  2  0
  3  4  1  0
  4  5  2  0
  5  8  1  0
  6  5  1  0
  7 15  2  0
  8  7  1  0
  8  9  2  0
  9 10  1  0
 10 14  2  0
 10 11  1  0
 11 12  1  0
 13 12  2  0
 14 13  1  0
 15 14  1  0
 16  3  1  0
 16 18  1  0
 17 16  1  0
 19 16  1  0
 20  2  1  0
 21 22  1  0
 21 26  1  0
 22 23  1  0
 23 24  1  0
 24 25  1  0
 24 20  1  0
 26 25  1  0
  1 27  1  0
  7 28  1  0
  9 29  1  0
 11 30  1  0
 12 31  1  0
 15 32  1  0
 21 33  1  0
 22 34  1  0
 22 35  1  0
 23 36  1  0
 23 37  1  0
 24 38  1  0
 25 39  1  0
 25 40  1  0
 26 41  1  0
 26 42  1  0
M  ISO  8  27  14  28  14  29  14  30   9  31  14  32  14  33   5  34  13
M  ISO  8  35  13  36  13  37  13  38  13  39  13  40  13  41  13  42  13
M  END
>  <minimizedAffinity>  (1) 
-6.21137047

>  <minimizedRMSD>  (1) 
1.56797385

$$$$
