
     RDKit          3D

 30 32  0  0  0  0  0  0  0  0999 V2000
   46.0640   33.3390   41.4870 C   0  0  0  0  0  0  0  0  0  0  0  0
   47.2550   34.0320   41.2830 C   0  0  0  0  0  0  0  0  0  0  0  0
   48.1650   34.0780   42.3240 C   0  0  0  0  0  0  0  0  0  0  0  0
   47.8320   33.4380   43.4860 N   0  0  0  0  0  0  0  0  0  0  0  0
   46.6710   32.7730   43.6550 C   0  0  0  0  0  0  0  0  0  0  0  0
   45.7900   32.7220   42.6630 N   0  0  0  0  0  0  0  0  0  0  0  0
   46.4590   30.7580   45.0560 C   0  0  0  0  0  0  0  0  0  0  0  0
   46.4150   32.1250   44.9330 C   0  0  0  0  0  0  0  0  0  0  0  0
   46.1270   32.9750   46.0170 C   0  0  0  0  0  0  0  0  0  0  0  0
   45.8710   32.4290   47.2750 C   0  0  0  0  0  0  0  0  0  0  0  0
   45.5660   32.9110   48.5110 N   0  0  0  0  0  0  0  0  0  0  0  0
   45.4330   31.8360   49.3480 C   0  0  0  0  0  0  0  0  0  0  0  0
   45.6550   30.7200   48.6240 N   0  0  0  0  0  0  0  0  0  0  0  0
   45.9230   31.0600   47.3550 C   0  0  0  0  0  0  0  0  0  0  0  0
   46.2010   30.2090   46.3170 C   0  0  0  0  0  0  0  0  0  0  0  0
   49.4530   34.8030   42.1660 C   0  0  0  0  0  0  0  0  0  0  0  0
   49.2890   35.8990   41.3260 F   0  0  0  0  0  0  0  0  0  0  0  0
   49.8970   35.2650   43.3650 F   0  0  0  0  0  0  0  0  0  0  0  0
   50.3590   33.9170   41.6090 F   0  0  0  0  0  0  0  0  0  0  0  0
   47.4880   34.6370   40.0830 O   0  0  0  0  0  0  0  0  0  0  0  0
   47.9310   34.0200   38.9180 C   0  0  0  0  0  0  0  0  0  0  0  0
   48.8450   33.0230   39.1840 F   0  0  0  0  0  0  0  0  0  0  0  0
   46.8920   33.5510   38.1240 F   0  0  0  0  0  0  0  0  0  0  0  0
   48.5950   34.9840   38.1750 F   0  0  0  0  0  0  0  0  0  0  0  0
   45.3262   33.2910   40.6725 H   0  0  0  0  0  0  0  0  0  0  0  0
   46.6892   30.1164   44.1927 H   0  0  0  0  0  0  0  0  0  0  0  0
   46.1038   34.0653   45.8730 H   0  0  0  0  0  0  0  0  0  0  0  0
   45.4556   33.9021   48.7689 H   0  0  0  0  0  0  0  0  0  0  0  0
   45.1887   31.8754   50.4198 H   0  0  0  0  0  0  0  0  0  0  0  0
   46.2208   29.1201   46.4717 H   0  0  0  0  0  0  0  0  0  0  0  0
  1  6  2  0
  2  1  1  0
  2  3  2  0
  3  4  1  0
  4  5  2  0
  5  8  1  0
  6  5  1  0
  7 15  2  0
  8  7  1  0
  8  9  2  0
  9 10  1  0
 10 14  2  0
 10 11  1  0
 11 12  1  0
 13 12  2  0
 14 13  1  0
 15 14  1  0
 16  3  1  0
 16 18  1  0
 17 16  1  0
 19 16  1  0
 20  2  1  0
 21 22  1  0
 21 20  1  0
 23 21  1  0
 24 21  1  0
  1 25  1  0
  7 26  1  0
  9 27  1  0
 11 28  1  0
 12 29  1  0
 15 30  1  0
M  ISO  6  25  14  26  14  27  14  28   9  29  14  30  14
M  END
>  <minimizedAffinity>  (1) 
-6.05447292

>  <minimizedRMSD>  (1) 
1.016029

$$$$
