
     RDKit          3D

 33 36  0  0  0  0  0  0  0  0999 V2000
   45.9640   33.1660   41.6540 C   0  0  0  0  0  0  0  0  0  0  0  0
   47.1250   33.8720   41.3230 C   0  0  0  0  0  0  0  0  0  0  0  0
   48.1040   33.9580   42.2970 C   0  0  0  0  0  0  0  0  0  0  0  0
   47.8650   33.3520   43.4960 N   0  0  0  0  0  0  0  0  0  0  0  0
   46.7480   32.6820   43.7930 C   0  0  0  0  0  0  0  0  0  0  0  0
   45.7850   32.5860   42.8650 N   0  0  0  0  0  0  0  0  0  0  0  0
   46.9230   30.7630   45.3100 C   0  0  0  0  0  0  0  0  0  0  0  0
   46.5940   32.0770   45.0990 C   0  0  0  0  0  0  0  0  0  0  0  0
   46.0950   32.9110   46.1220 C   0  0  0  0  0  0  0  0  0  0  0  0
   45.9190   32.4040   47.4050 C   0  0  0  0  0  0  0  0  0  0  0  0
   45.4810   32.8750   48.5970 N   0  0  0  0  0  0  0  0  0  0  0  0
   45.5500   31.8520   49.5040 C   0  0  0  0  0  0  0  0  0  0  0  0
   46.0270   30.7690   48.8580 N   0  0  0  0  0  0  0  0  0  0  0  0
   46.2630   31.0750   47.5720 C   0  0  0  0  0  0  0  0  0  0  0  0
   46.7550   30.2340   46.5890 C   0  0  0  0  0  0  0  0  0  0  0  0
   49.3580   34.6890   42.0120 C   0  0  0  0  0  0  0  0  0  0  0  0
   49.0940   35.8190   41.2160 F   0  0  0  0  0  0  0  0  0  0  0  0
   49.9100   35.1710   43.1750 F   0  0  0  0  0  0  0  0  0  0  0  0
   50.2100   33.8470   41.3540 F   0  0  0  0  0  0  0  0  0  0  0  0
   47.2480   34.4340   40.0920 O   0  0  0  0  0  0  0  0  0  0  0  0
   47.3630   33.6660   38.9540 C   0  0  0  0  0  0  0  0  0  0  0  0
   48.3540   34.3730   38.2320 C   0  0  0  0  0  0  0  0  0  0  0  0
   48.5480   33.3880   36.6970 S   0  0  0  0  0  0  0  0  0  0  0  0
   47.2390   32.1680   37.2910 C   0  0  0  0  0  0  0  0  0  0  0  0
   46.9750   32.6200   38.2780 N   0  0  0  0  0  0  0  0  0  0  0  0
   45.1657   33.0783   40.9023 H   0  0  0  0  0  0  0  0  0  0  0  0
   47.3103   30.1408   44.4897 H   0  0  0  0  0  0  0  0  0  0  0  0
   45.8457   33.9602   45.9051 H   0  0  0  0  0  0  0  0  0  0  0  0
   45.1540   33.8330   48.7873 H   0  0  0  0  0  0  0  0  0  0  0  0
   45.2678   31.9041   50.5659 H   0  0  0  0  0  0  0  0  0  0  0  0
   47.0046   29.1855   46.8090 H   0  0  0  0  0  0  0  0  0  0  0  0
   48.8818   35.2934   38.5222 H   0  0  0  0  0  0  0  0  0  0  0  0
   46.8455   31.2643   36.8026 H   0  0  0  0  0  0  0  0  0  0  0  0
  1  6  2  0
  2  1  1  0
  2  3  2  0
  3  4  1  0
  4  5  2  0
  5  8  1  0
  6  5  1  0
  7 15  2  0
  8  7  1  0
  8  9  2  0
  9 10  1  0
 10 14  2  0
 10 11  1  0
 11 12  1  0
 13 12  2  0
 14 13  1  0
 15 14  1  0
 16  3  1  0
 16 18  1  0
 17 16  1  0
 19 16  1  0
 20  2  1  0
 21 20  1  0
 22 21  2  0
 23 24  1  0
 23 22  1  0
 24 25  2  0
 25 21  1  0
  1 26  1  0
  7 27  1  0
  9 28  1  0
 11 29  1  0
 12 30  1  0
 15 31  1  0
 22 32  1  0
 24 33  1  0
M  ISO  8  26  14  27  14  28  14  29   9  30  14  31  14  32  14  33  14
M  END
>  <minimizedAffinity>  (1) 
-5.97330427

>  <minimizedRMSD>  (1) 
1.20285046

$$$$
