
     RDKit          3D

 38 41  0  0  0  0  0  0  0  0999 V2000
   45.9700   32.8450   41.7160 C   0  0  0  0  0  0  0  0  0  0  0  0
   47.0450   33.6410   41.3160 C   0  0  0  0  0  0  0  0  0  0  0  0
   48.0220   33.8910   42.2710 C   0  0  0  0  0  0  0  0  0  0  0  0
   47.8610   33.3460   43.5140 N   0  0  0  0  0  0  0  0  0  0  0  0
   46.8140   32.5860   43.8600 C   0  0  0  0  0  0  0  0  0  0  0  0
   45.8550   32.3290   42.9570 N   0  0  0  0  0  0  0  0  0  0  0  0
   47.3330   30.8320   45.5130 C   0  0  0  0  0  0  0  0  0  0  0  0
   46.7380   32.0540   45.2060 C   0  0  0  0  0  0  0  0  0  0  0  0
   46.0520   32.8160   46.1460 C   0  0  0  0  0  0  0  0  0  0  0  0
   45.9510   32.3440   47.4570 C   0  0  0  0  0  0  0  0  0  0  0  0
   45.3780   32.8010   48.6080 N   0  0  0  0  0  0  0  0  0  0  0  0
   45.6290   31.8620   49.5880 C   0  0  0  0  0  0  0  0  0  0  0  0
   46.3400   30.8660   49.0220 N   0  0  0  0  0  0  0  0  0  0  0  0
   46.5500   31.1340   47.7250 C   0  0  0  0  0  0  0  0  0  0  0  0
   47.2340   30.3590   46.8170 C   0  0  0  0  0  0  0  0  0  0  0  0
   49.1900   34.7250   41.9180 C   0  0  0  0  0  0  0  0  0  0  0  0
   48.8220   35.7330   41.0280 F   0  0  0  0  0  0  0  0  0  0  0  0
   49.6750   35.3680   43.0300 F   0  0  0  0  0  0  0  0  0  0  0  0
   50.1440   33.9330   41.3440 F   0  0  0  0  0  0  0  0  0  0  0  0
   47.1030   34.1330   40.0480 O   0  0  0  0  0  0  0  0  0  0  0  0
   46.4320   32.8430   38.1710 C   0  0  0  0  0  0  0  0  0  0  0  0
   47.4610   33.3050   39.0010 C   0  0  0  0  0  0  0  0  0  0  0  0
   48.7430   32.8960   38.6960 C   0  0  0  0  0  0  0  0  0  0  0  0
   49.0290   32.0680   37.6300 C   0  0  0  0  0  0  0  0  0  0  0  0
   48.0190   31.6080   36.8090 C   0  0  0  0  0  0  0  0  0  0  0  0
   46.7280   32.0030   37.0920 C   0  0  0  0  0  0  0  0  0  0  0  0
   43.9350   33.4640   38.4470 N   0  0  0  0  0  0  0  0  0  0  0  0
   45.0290   33.1840   38.3170 C   0  0  0  0  0  0  0  0  0  0  0  0
   45.1784   32.6281   40.9836 H   0  0  0  0  0  0  0  0  0  0  0  0
   47.8676   30.2560   44.7433 H   0  0  0  0  0  0  0  0  0  0  0  0
   45.5959   33.7757   45.8614 H   0  0  0  0  0  0  0  0  0  0  0  0
   44.8561   33.6814   48.7238 H   0  0  0  0  0  0  0  0  0  0  0  0
   45.3077   31.9163   50.6386 H   0  0  0  0  0  0  0  0  0  0  0  0
   47.6860   29.4004   47.1117 H   0  0  0  0  0  0  0  0  0  0  0  0
   49.5720   33.2447   39.3294 H   0  0  0  0  0  0  0  0  0  0  0  0
   50.0699   31.7721   37.4328 H   0  0  0  0  0  0  0  0  0  0  0  0
   48.2367   30.9477   35.9566 H   0  0  0  0  0  0  0  0  0  0  0  0
   45.9078   31.6474   36.4510 H   0  0  0  0  0  0  0  0  0  0  0  0
  1  6  2  0
  2  1  1  0
  2  3  2  0
  3  4  1  0
  4  5  2  0
  5  8  1  0
  6  5  1  0
  7 15  2  0
  8  7  1  0
  8  9  2  0
  9 10  1  0
 10 14  2  0
 10 11  1  0
 11 12  1  0
 13 12  2  0
 14 13  1  0
 15 14  1  0
 16  3  1  0
 16 18  1  0
 17 16  1  0
 19 16  1  0
 20  2  1  0
 21 28  1  0
 21 22  2  0
 22 20  1  0
 23 22  1  0
 24 23  2  0
 25 26  2  0
 25 24  1  0
 26 21  1  0
 28 27  3  0
  1 29  1  0
  7 30  1  0
  9 31  1  0
 11 32  1  0
 12 33  1  0
 15 34  1  0
 23 35  1  0
 24 36  1  0
 25 37  1  0
 26 38  1  0
M  ISO  8  29  14  30  14  31  14  32   9  33  14  34  14  35  14  36  14
M  ISO  2  37  14  38  14
M  END
>  <minimizedAffinity>  (1) 
-5.74859381

>  <minimizedRMSD>  (1) 
2.03875589

$$$$
