
     RDKit          3D

 44 49  0  0  0  0  0  0  0  0999 V2000
   45.9500   33.3180   41.5930 C   0  0  0  0  0  0  0  0  0  0  0  0
   47.1480   33.9870   41.3110 C   0  0  0  0  0  0  0  0  0  0  0  0
   48.1190   33.9970   42.3030 C   0  0  0  0  0  0  0  0  0  0  0  0
   47.8300   33.3540   43.4750 N   0  0  0  0  0  0  0  0  0  0  0  0
   46.6860   32.7210   43.7300 C   0  0  0  0  0  0  0  0  0  0  0  0
   45.7330   32.6990   42.7840 N   0  0  0  0  0  0  0  0  0  0  0  0
   46.6480   30.7300   45.1580 C   0  0  0  0  0  0  0  0  0  0  0  0
   46.4820   32.0710   45.0090 C   0  0  0  0  0  0  0  0  0  0  0  0
   46.1040   32.9170   46.0820 C   0  0  0  0  0  0  0  0  0  0  0  0
   45.8880   32.3810   47.3410 C   0  0  0  0  0  0  0  0  0  0  0  0
   45.5300   32.8480   48.5630 N   0  0  0  0  0  0  0  0  0  0  0  0
   45.4860   31.7950   49.4220 C   0  0  0  0  0  0  0  0  0  0  0  0
   45.8170   30.6840   48.7230 N   0  0  0  0  0  0  0  0  0  0  0  0
   46.0670   31.0210   47.4460 C   0  0  0  0  0  0  0  0  0  0  0  0
   46.4370   30.1640   46.4140 C   0  0  0  0  0  0  0  0  0  0  0  0
   49.4030   34.6850   42.0670 C   0  0  0  0  0  0  0  0  0  0  0  0
   49.2090   35.8130   41.2500 F   0  0  0  0  0  0  0  0  0  0  0  0
   49.9260   35.1500   43.2500 F   0  0  0  0  0  0  0  0  0  0  0  0
   50.2540   33.8120   41.4520 F   0  0  0  0  0  0  0  0  0  0  0  0
   47.3060   34.5860   40.1060 O   0  0  0  0  0  0  0  0  0  0  0  0
   47.3130   33.8650   38.9250 C   0  0  0  0  0  0  0  0  0  0  0  0
   48.4440   34.3340   38.2720 C   0  0  0  0  0  0  0  0  0  0  0  0
   48.4590   33.3720   36.6990 S   0  0  0  0  0  0  0  0  0  0  0  0
   46.8910   32.4820   37.2110 C   0  0  0  0  0  0  0  0  0  0  0  0
   46.7340   32.9650   38.1890 N   0  0  0  0  0  0  0  0  0  0  0  0
   46.1390   31.4580   36.4930 N   0  0  0  0  0  0  0  0  0  0  0  0
   45.0920   30.8100   37.0250 C   0  0  0  0  0  0  0  0  0  0  0  0
   44.6560   29.9530   36.0840 N   0  0  0  0  0  0  0  0  0  0  0  0
   45.4420   30.1030   35.0220 C   0  0  0  0  0  0  0  0  0  0  0  0
   45.4210   29.4570   33.7820 C   0  0  0  0  0  0  0  0  0  0  0  0
   46.3430   29.8000   32.8630 N   0  0  0  0  0  0  0  0  0  0  0  0
   47.2810   30.7380   33.0910 C   0  0  0  0  0  0  0  0  0  0  0  0
   47.2930   31.3610   34.3010 N   0  0  0  0  0  0  0  0  0  0  0  0
   46.4030   31.0650   35.2570 C   0  0  0  0  0  0  0  0  0  0  0  0
   45.1606   33.2927   40.8274 H   0  0  0  0  0  0  0  0  0  0  0  0
   46.9433   30.1035   44.3034 H   0  0  0  0  0  0  0  0  0  0  0  0
   45.9824   33.9974   45.9151 H   0  0  0  0  0  0  0  0  0  0  0  0
   45.3268   33.8297   48.7992 H   0  0  0  0  0  0  0  0  0  0  0  0
   45.2283   31.8380   50.4905 H   0  0  0  0  0  0  0  0  0  0  0  0
   46.5580   29.0838   46.5827 H   0  0  0  0  0  0  0  0  0  0  0  0
   49.1601   35.0969   38.6114 H   0  0  0  0  0  0  0  0  0  0  0  0
   44.6726   30.9514   38.0320 H   0  0  0  0  0  0  0  0  0  0  0  0
   44.6680   28.6858   33.5624 H   0  0  0  0  0  0  0  0  0  0  0  0
   48.0202   30.9949   32.3179 H   0  0  0  0  0  0  0  0  0  0  0  0
  1  6  2  0
  2  1  1  0
  2  3  2  0
  3  4  1  0
  4  5  2  0
  5  8  1  0
  6  5  1  0
  7 15  2  0
  8  7  1  0
  8  9  2  0
  9 10  1  0
 10 14  2  0
 10 11  1  0
 11 12  1  0
 13 12  2  0
 14 13  1  0
 15 14  1  0
 16  3  1  0
 16 18  1  0
 17 16  1  0
 19 16  1  0
 20  2  1  0
 21 20  1  0
 22 21  2  0
 23 24  1  0
 23 22  1  0
 24 25  2  0
 25 21  1  0
 26 27  1  0
 26 24  1  0
 28 27  2  0
 29 34  2  0
 29 28  1  0
 30 29  1  0
 31 32  1  0
 31 30  2  0
 32 33  2  0
 33 34  1  0
 34 26  1  0
  1 35  1  0
  7 36  1  0
  9 37  1  0
 11 38  1  0
 12 39  1  0
 15 40  1  0
 22 41  1  0
 27 42  1  0
 30 43  1  0
 32 44  1  0
M  ISO  8  35  14  36  14  37  14  38   9  39  14  40  14  41  14  42  14
M  ISO  2  43  14  44  14
M  END
>  <minimizedAffinity>  (1) 
-7.08165646

>  <minimizedRMSD>  (1) 
0.55026567

$$$$
