
     RDKit          3D

 37 40  0  0  0  0  0  0  0  0999 V2000
   45.9650   33.1980   41.6420 C   0  0  0  0  0  0  0  0  0  0  0  0
   47.1420   33.8980   41.3230 C   0  0  0  0  0  0  0  0  0  0  0  0
   48.1170   33.9660   42.2960 C   0  0  0  0  0  0  0  0  0  0  0  0
   47.8660   33.3520   43.4910 N   0  0  0  0  0  0  0  0  0  0  0  0
   46.7380   32.6900   43.7810 C   0  0  0  0  0  0  0  0  0  0  0  0
   45.7800   32.6110   42.8530 N   0  0  0  0  0  0  0  0  0  0  0  0
   46.8990   30.7600   45.2860 C   0  0  0  0  0  0  0  0  0  0  0  0
   46.5820   32.0780   45.0830 C   0  0  0  0  0  0  0  0  0  0  0  0
   46.0910   32.9120   46.1120 C   0  0  0  0  0  0  0  0  0  0  0  0
   45.9170   32.3880   47.3910 C   0  0  0  0  0  0  0  0  0  0  0  0
   45.4840   32.8670   48.5870 N   0  0  0  0  0  0  0  0  0  0  0  0
   45.5450   31.8410   49.4890 C   0  0  0  0  0  0  0  0  0  0  0  0
   46.0100   30.7590   48.8360 N   0  0  0  0  0  0  0  0  0  0  0  0
   46.2470   31.0650   47.5510 C   0  0  0  0  0  0  0  0  0  0  0  0
   46.7270   30.2290   46.5640 C   0  0  0  0  0  0  0  0  0  0  0  0
   49.3800   34.6880   42.0180 C   0  0  0  0  0  0  0  0  0  0  0  0
   49.1380   35.7990   41.1940 F   0  0  0  0  0  0  0  0  0  0  0  0
   49.9190   35.1840   43.1790 F   0  0  0  0  0  0  0  0  0  0  0  0
   50.2410   33.8210   41.3870 F   0  0  0  0  0  0  0  0  0  0  0  0
   47.2600   34.4600   40.0950 O   0  0  0  0  0  0  0  0  0  0  0  0
   47.3540   33.7160   38.9460 C   0  0  0  0  0  0  0  0  0  0  0  0
   48.3490   34.3640   38.2250 C   0  0  0  0  0  0  0  0  0  0  0  0
   48.4680   33.3590   36.6890 S   0  0  0  0  0  0  0  0  0  0  0  0
   47.1280   32.2160   37.3000 C   0  0  0  0  0  0  0  0  0  0  0  0
   46.9300   32.7010   38.2650 N   0  0  0  0  0  0  0  0  0  0  0  0
   45.9250   31.2960   35.3240 C   0  0  0  0  0  0  0  0  0  0  0  0
   45.5300   32.4510   34.9860 O   0  0  0  0  0  0  0  0  0  0  0  0
   46.7260   31.1140   36.4700 N   0  0  0  0  0  0  0  0  0  0  0  0
   45.1686   33.1233   40.8869 H   0  0  0  0  0  0  0  0  0  0  0  0
   47.2791   30.1375   44.4625 H   0  0  0  0  0  0  0  0  0  0  0  0
   45.8484   33.9648   45.9054 H   0  0  0  0  0  0  0  0  0  0  0  0
   45.1674   33.8281   48.7791 H   0  0  0  0  0  0  0  0  0  0  0  0
   45.2658   31.8904   50.5518 H   0  0  0  0  0  0  0  0  0  0  0  0
   46.9664   29.1770   46.7783 H   0  0  0  0  0  0  0  0  0  0  0  0
   48.9246   35.2588   38.5042 H   0  0  0  0  0  0  0  0  0  0  0  0
   45.6398   30.4246   34.7163 H   0  0  0  0  0  0  0  0  0  0  0  0
   47.0321   30.1628   36.7197 H   0  0  0  0  0  0  0  0  0  0  0  0
  1  6  2  0
  2  1  1  0
  2  3  2  0
  3  4  1  0
  4  5  2  0
  5  8  1  0
  6  5  1  0
  7 15  2  0
  8  7  1  0
  8  9  2  0
  9 10  1  0
 10 14  2  0
 10 11  1  0
 11 12  1  0
 13 12  2  0
 14 13  1  0
 15 14  1  0
 16  3  1  0
 16 18  1  0
 17 16  1  0
 19 16  1  0
 20  2  1  0
 21 20  1  0
 22 21  2  0
 23 24  1  0
 23 22  1  0
 24 25  2  0
 25 21  1  0
 26 28  1  0
 27 26  2  0
 28 24  1  0
  1 29  1  0
  7 30  1  0
  9 31  1  0
 11 32  1  0
 12 33  1  0
 15 34  1  0
 22 35  1  0
 26 36  1  0
 28 37  1  0
M  ISO  8  29  14  30  14  31  14  32   9  33  14  34  14  35  14  36   6
M  END
>  <minimizedAffinity>  (1) 
-6.41611052

>  <minimizedRMSD>  (1) 
0.0731674284

$$$$
