
     RDKit          3D

 34 37  0  0  0  0  0  0  0  0999 V2000
   45.9600   33.1650   41.6520 C   0  0  0  0  0  0  0  0  0  0  0  0
   47.1230   33.8720   41.3320 C   0  0  0  0  0  0  0  0  0  0  0  0
   48.1020   33.9610   42.3020 C   0  0  0  0  0  0  0  0  0  0  0  0
   47.8600   33.3510   43.5010 N   0  0  0  0  0  0  0  0  0  0  0  0
   46.7440   32.6790   43.7950 C   0  0  0  0  0  0  0  0  0  0  0  0
   45.7830   32.5800   42.8670 N   0  0  0  0  0  0  0  0  0  0  0  0
   46.9170   30.7680   45.3110 C   0  0  0  0  0  0  0  0  0  0  0  0
   46.5910   32.0710   45.1000 C   0  0  0  0  0  0  0  0  0  0  0  0
   46.0920   32.9040   46.1230 C   0  0  0  0  0  0  0  0  0  0  0  0
   45.9200   32.3910   47.4040 C   0  0  0  0  0  0  0  0  0  0  0  0
   45.4780   32.8760   48.5970 N   0  0  0  0  0  0  0  0  0  0  0  0
   45.5520   31.8400   49.5020 C   0  0  0  0  0  0  0  0  0  0  0  0
   46.0250   30.7690   48.8580 N   0  0  0  0  0  0  0  0  0  0  0  0
   46.2610   31.0710   47.5730 C   0  0  0  0  0  0  0  0  0  0  0  0
   46.7500   30.2390   46.5900 C   0  0  0  0  0  0  0  0  0  0  0  0
   49.3580   34.6980   42.0150 C   0  0  0  0  0  0  0  0  0  0  0  0
   49.0880   35.8310   41.2200 F   0  0  0  0  0  0  0  0  0  0  0  0
   49.9130   35.1740   43.1790 F   0  0  0  0  0  0  0  0  0  0  0  0
   50.2050   33.8690   41.3560 F   0  0  0  0  0  0  0  0  0  0  0  0
   47.2500   34.4360   40.1080 O   0  0  0  0  0  0  0  0  0  0  0  0
   47.3850   33.7000   38.9730 C   0  0  0  0  0  0  0  0  0  0  0  0
   48.3520   34.3670   38.2400 C   0  0  0  0  0  0  0  0  0  0  0  0
   48.5410   33.3910   36.7040 S   0  0  0  0  0  0  0  0  0  0  0  0
   47.2350   32.1800   37.3000 C   0  0  0  0  0  0  0  0  0  0  0  0
   47.0020   32.6540   38.2780 N   0  0  0  0  0  0  0  0  0  0  0  0
   46.3350   30.5660   36.7320 S   0  0  0  0  0  0  0  0  0  0  0  0
   45.1637   33.0793   40.8979 H   0  0  0  0  0  0  0  0  0  0  0  0
   47.3038   30.1452   44.4910 H   0  0  0  0  0  0  0  0  0  0  0  0
   45.8404   33.9532   45.9088 H   0  0  0  0  0  0  0  0  0  0  0  0
   45.1509   33.8341   48.7866 H   0  0  0  0  0  0  0  0  0  0  0  0
   45.2718   31.8862   50.5647 H   0  0  0  0  0  0  0  0  0  0  0  0
   47.0008   29.1903   46.8074 H   0  0  0  0  0  0  0  0  0  0  0  0
   48.8899   35.2846   38.5203 H   0  0  0  0  0  0  0  0  0  0  0  0
   45.9376   29.8533   37.8325 H   0  0  0  0  0  0  0  0  0  0  0  0
  1  6  2  0
  2  1  1  0
  2  3  2  0
  3  4  1  0
  4  5  2  0
  5  8  1  0
  6  5  1  0
  7 15  2  0
  8  7  1  0
  8  9  2  0
  9 10  1  0
 10 14  2  0
 10 11  1  0
 11 12  1  0
 13 12  2  0
 14 13  1  0
 15 14  1  0
 16  3  1  0
 16 18  1  0
 17 16  1  0
 19 16  1  0
 20  2  1  0
 21 20  1  0
 22 21  2  0
 23 24  1  0
 23 22  1  0
 24 25  2  0
 25 21  1  0
 26 24  1  0
  1 27  1  0
  7 28  1  0
  9 29  1  0
 11 30  1  0
 12 31  1  0
 15 32  1  0
 22 33  1  0
 26 34  1  0
M  ISO  8  27  14  28  14  29  14  30   9  31  14  32  14  33  14  34  11
M  END
>  <minimizedAffinity>  (1) 
-6.07739115

>  <minimizedRMSD>  (1) 
0.010915014

$$$$
