
     RDKit          3D

 26 27  0  0  0  0  0  0  0  0999 V2000
   45.3470   33.5350   46.8050 C   0  0  0  0  0  0  0  0  0  0  0  0
   44.4100   34.1040   47.4140 O   0  0  0  0  0  0  0  0  0  0  0  0
   45.9290   32.5070   47.5980 N   0  0  0  0  0  0  0  0  0  0  0  0
   44.9490   31.6760   48.2460 C   0  0  0  0  0  0  0  0  0  0  0  0
   45.6810   30.4780   48.7870 C   0  0  0  0  0  0  0  0  0  0  0  0
   46.9040   30.7910   49.4670 N   0  0  0  0  0  0  0  0  0  0  0  0
   47.8770   31.4850   48.6970 C   0  0  0  0  0  0  0  0  0  0  0  0
   47.3660   32.4140   47.6620 C   0  0  0  0  0  0  0  0  0  0  0  0
   45.3900   35.2450   43.6140 C   0  0  0  0  0  0  0  0  0  0  0  0
   46.4550   34.6830   42.9020 C   0  0  0  0  0  0  0  0  0  0  0  0
   47.1640   33.6810   43.5730 C   0  0  0  0  0  0  0  0  0  0  0  0
   46.7860   33.3310   44.8260 N   0  0  0  0  0  0  0  0  0  0  0  0
   45.7550   33.9050   45.4620 C   0  0  0  0  0  0  0  0  0  0  0  0
   45.0500   34.8690   44.8550 N   0  0  0  0  0  0  0  0  0  0  0  0
   44.4682   32.2281   49.0670 H   0  0  0  0  0  0  0  0  0  0  0  0
   44.1625   31.3711   47.5400 H   0  0  0  0  0  0  0  0  0  0  0  0
   45.0170   29.9589   49.4938 H   0  0  0  0  0  0  0  0  0  0  0  0
   45.9525   29.8571   47.9205 H   0  0  0  0  0  0  0  0  0  0  0  0
   46.6718   31.3742   50.2836 H   0  0  0  0  0  0  0  0  0  0  0  0
   48.4979   32.0691   49.3922 H   0  0  0  0  0  0  0  0  0  0  0  0
   48.4188   30.7042   48.1432 H   0  0  0  0  0  0  0  0  0  0  0  0
   47.7319   32.0719   46.6827 H   0  0  0  0  0  0  0  0  0  0  0  0
   47.7321   33.4153   47.9327 H   0  0  0  0  0  0  0  0  0  0  0  0
   44.8003   36.0374   43.1299 H   0  0  0  0  0  0  0  0  0  0  0  0
   46.7170   35.0069   41.8840 H   0  0  0  0  0  0  0  0  0  0  0  0
   48.0176   33.1836   43.0894 H   0  0  0  0  0  0  0  0  0  0  0  0
  1  2  2  0
  1  3  1  0
  3  8  1  0
  3  4  1  0
  4  5  1  0
  5  6  1  0
  7  6  1  0
  8  7  1  0
  9 14  2  0
 10 11  2  0
 10  9  1  0
 11 12  1  0
 12 13  2  0
 13  1  1  0
 14 13  1  0
  4 15  1  0
  4 16  1  0
  5 17  1  0
  5 18  1  0
  6 19  1  0
  7 20  1  0
  7 21  1  0
  8 22  1  0
  8 23  1  0
  9 24  1  0
 10 25  1  0
 11 26  1  0
M  ISO  8  15  13  16  13  17  13  18  13  19   5  20  13  21  13  22  13
M  ISO  4  23  13  24  14  25  14  26  14
M  END
>  <minimizedAffinity>  (1) 
-4.77620316

>  <minimizedRMSD>  (1) 
1.87070453

$$$$
