
     RDKit          3D

 18 18  0  0  0  0  0  0  0  0999 V2000
   44.6000   35.7380   44.6940 C   0  0  0  0  0  0  0  0  0  0  0  0
   45.3060   35.5520   43.5010 C   0  0  0  0  0  0  0  0  0  0  0  0
   46.1840   34.4650   43.4720 C   0  0  0  0  0  0  0  0  0  0  0  0
   46.3100   33.6580   44.5760 N   0  0  0  0  0  0  0  0  0  0  0  0
   45.6030   33.8950   45.6880 C   0  0  0  0  0  0  0  0  0  0  0  0
   44.7540   34.9310   45.7380 N   0  0  0  0  0  0  0  0  0  0  0  0
   45.7210   33.0510   46.8710 C   0  0  0  0  0  0  0  0  0  0  0  0
   44.8060   32.9710   47.7240 O   0  0  0  0  0  0  0  0  0  0  0  0
   46.9000   32.3240   47.0290 O   0  0  0  0  0  0  0  0  0  0  0  0
   48.6340   31.7770   48.8730 O   0  0  0  0  0  0  0  0  0  0  0  0
   47.2030   31.4450   48.4600 P   0  0  0  0  0  0  0  0  0  0  0  0
   47.1490   29.7630   48.1760 O   0  0  0  0  0  0  0  0  0  0  0  0
   46.1960   31.8510   49.7260 O   0  0  0  0  0  0  0  0  0  0  0  0
   43.8950   36.5790   44.7702 H   0  0  0  0  0  0  0  0  0  0  0  0
   45.1779   36.2211   42.6374 H   0  0  0  0  0  0  0  0  0  0  0  0
   46.7729   34.2563   42.5667 H   0  0  0  0  0  0  0  0  0  0  0  0
   47.1336   29.2825   49.0415 H   0  0  0  0  0  0  0  0  0  0  0  0
   46.6539   31.6664   50.5841 H   0  0  0  0  0  0  0  0  0  0  0  0
  1  6  2  0
  2  1  1  0
  3  2  2  0
  3  4  1  0
  4  5  2  0
  5  6  1  0
  5  7  1  0
  7  9  1  0
  7  8  2  0
  9 11  1  0
 11 10  2  0
 11 13  1  0
 12 11  1  0
  1 14  1  0
  2 15  1  0
  3 16  1  0
 12 17  1  0
 13 18  1  0
M  ISO  5  14  14  15  14  16  14  17   3  18   3
M  END
>  <minimizedAffinity>  (1) 
-4.46315479

>  <minimizedRMSD>  (1) 
1.70378256

$$$$
