
     RDKit          3D

 31 34  0  0  1  0  0  0  0  0999 V2000
   45.2420   30.1380   47.9200 C   0  0  0  0  0  0  0  0  0  0  0  0
   44.6800   29.6820   46.6080 C   0  0  0  0  0  0  0  0  0  0  0  0
   45.5140   30.2040   45.5640 N   0  0  0  0  0  0  0  0  0  0  0  0
   45.8760   30.8190   44.3350 C   0  0  1  0  0  0  0  0  0  0  0  0
   45.4100   30.9480   43.1570 O   0  0  0  0  0  0  0  0  0  0  0  0
   47.1060   31.2990   44.9820 C   0  0  2  0  0  0  0  0  0  0  0  0
   46.9070   30.0730   45.8140 C   0  0  2  0  0  0  0  0  0  0  0  0
   47.0200   30.3150   47.6000 S   0  0  0  0  0  0  0  0  0  0  0  0
   46.8790   32.5860   45.6940 C   0  0  0  0  0  0  0  0  0  0  0  0
   47.3550   32.5980   46.8560 O   0  0  0  0  0  0  0  0  0  0  0  0
   44.5500   35.3390   45.3710 C   0  0  0  0  0  0  0  0  0  0  0  0
   44.7780   35.8480   44.0700 C   0  0  0  0  0  0  0  0  0  0  0  0
   45.7650   35.2030   43.3100 C   0  0  0  0  0  0  0  0  0  0  0  0
   46.4380   34.1440   43.8550 N   0  0  0  0  0  0  0  0  0  0  0  0
   46.1750   33.7110   45.0940 C   0  0  0  0  0  0  0  0  0  0  0  0
   45.2310   34.3060   45.8600 N   0  0  0  0  0  0  0  0  0  0  0  0
   44.6090   31.3540   48.5000 C   0  0  0  0  0  0  0  0  0  0  0  0
   45.1030   28.9440   48.8740 C   0  0  0  0  0  0  0  0  0  0  0  0
   44.6735   28.5828   46.5663 H   0  0  0  0  0  0  0  0  0  0  0  0
   43.6474   30.0417   46.4885 H   0  0  0  0  0  0  0  0  0  0  0  0
   44.4571   31.2118   43.2061 H   0  0  0  0  0  0  0  0  0  0  0  0
   48.0548   31.5372   44.4790 H   0  0  0  0  0  0  0  0  0  0  0  0
   43.7828   35.8143   45.9998 H   0  0  0  0  0  0  0  0  0  0  0  0
   44.2111   36.7042   43.6757 H   0  0  0  0  0  0  0  0  0  0  0  0
   45.9947   35.5441   42.2898 H   0  0  0  0  0  0  0  0  0  0  0  0
   44.6397   31.2951   49.5980 H   0  0  0  0  0  0  0  0  0  0  0  0
   45.1564   32.2475   48.1653 H   0  0  0  0  0  0  0  0  0  0  0  0
   43.5631   31.4180   48.1653 H   0  0  0  0  0  0  0  0  0  0  0  0
   45.1443   29.2991   49.9143 H   0  0  0  0  0  0  0  0  0  0  0  0
   44.1404   28.4424   48.6958 H   0  0  0  0  0  0  0  0  0  0  0  0
   45.9246   28.2347   48.6958 H   0  0  0  0  0  0  0  0  0  0  0  0
  1 17  1  0
  1 18  1  0
  2  1  1  0
  3  7  1  0
  3  2  1  0
  4  5  1  6
  4  6  1  0
  4  3  1  0
  4  7  1  0
  6  9  1  0
  6  7  1  0
  7  8  1  6
  8  1  1  0
  9 10  2  0
 11 16  2  0
 12 11  1  0
 13 14  1  0
 13 12  2  0
 14 15  2  0
 15  9  1  0
 15 16  1  0
  2 19  1  0
  2 20  1  0
  5 21  1  0
  6 22  1  6
 11 23  1  0
 12 24  1  0
 13 25  1  0
 17 26  1  0
 17 27  1  0
 17 28  1  0
 18 29  1  0
 18 30  1  0
 18 31  1  0
M  ISO  8  19  13  20  13  21   3  22  13  23  14  24  14  25  14  26   8
M  ISO  5  27   8  28   8  29   8  30   8  31   8
M  END
>  <minimizedAffinity>  (1) 
-4.25814295

>  <minimizedRMSD>  (1) 
1.48226118

$$$$
