
     RDKit          3D

 19 20  0  0  0  0  0  0  0  0999 V2000
   45.5280   33.2690   46.6990 C   0  0  0  0  0  0  0  0  0  0  0  0
   44.7350   33.4790   47.6540 O   0  0  0  0  0  0  0  0  0  0  0  0
   44.6390   35.9430   44.3960 C   0  0  0  0  0  0  0  0  0  0  0  0
   45.4230   35.7050   43.2620 C   0  0  0  0  0  0  0  0  0  0  0  0
   46.2690   34.5940   43.3180 C   0  0  0  0  0  0  0  0  0  0  0  0
   46.2940   33.8140   44.4320 N   0  0  0  0  0  0  0  0  0  0  0  0
   45.5110   34.0920   45.5030 C   0  0  0  0  0  0  0  0  0  0  0  0
   44.6920   35.1570   45.4680 N   0  0  0  0  0  0  0  0  0  0  0  0
   46.4610   32.1580   46.8600 C   0  0  0  0  0  0  0  0  0  0  0  0
   47.4320   32.1040   47.8280 C   0  0  0  0  0  0  0  0  0  0  0  0
   48.1480   30.9650   47.7450 N   0  0  0  0  0  0  0  0  0  0  0  0
   47.6210   30.2810   46.7020 C   0  0  0  0  0  0  0  0  0  0  0  0
   46.6050   31.0100   46.1760 N   0  0  0  0  0  0  0  0  0  0  0  0
   43.9578   36.8066   44.4014 H   0  0  0  0  0  0  0  0  0  0  0  0
   45.3762   36.3556   42.3763 H   0  0  0  0  0  0  0  0  0  0  0  0
   46.9145   34.3504   42.4613 H   0  0  0  0  0  0  0  0  0  0  0  0
   47.6043   32.8908   48.5771 H   0  0  0  0  0  0  0  0  0  0  0  0
   48.9313   30.6758   48.3481 H   0  0  0  0  0  0  0  0  0  0  0  0
   47.9600   29.2986   46.3415 H   0  0  0  0  0  0  0  0  0  0  0  0
  1  9  1  0
  1  2  2  0
  3  8  2  0
  4  5  2  0
  4  3  1  0
  5  6  1  0
  6  7  2  0
  7  1  1  0
  8  7  1  0
  9 10  2  0
 11 10  1  0
 12 11  1  0
 13 12  2  0
 13  9  1  0
  3 14  1  0
  4 15  1  0
  5 16  1  0
 10 17  1  0
 11 18  1  0
 12 19  1  0
M  ISO  6  14  14  15  14  16  14  17  14  18   9  19  14
M  END
>  <minimizedAffinity>  (1) 
-3.97042465

>  <minimizedRMSD>  (1) 
0.839275062

$$$$
