
     RDKit          3D

 19 20  0  0  0  0  0  0  0  0999 V2000
   45.7460   32.8160   47.0920 C   0  0  0  0  0  0  0  0  0  0  0  0
   44.7640   33.2100   47.7870 O   0  0  0  0  0  0  0  0  0  0  0  0
   45.4720   34.8430   44.1090 C   0  0  0  0  0  0  0  0  0  0  0  0
   46.5210   34.3610   43.2850 C   0  0  0  0  0  0  0  0  0  0  0  0
   47.3350   33.3130   43.7840 C   0  0  0  0  0  0  0  0  0  0  0  0
   47.0510   32.8370   45.0270 N   0  0  0  0  0  0  0  0  0  0  0  0
   46.0420   33.3340   45.7610 C   0  0  0  0  0  0  0  0  0  0  0  0
   45.2580   34.3240   45.3140 N   0  0  0  0  0  0  0  0  0  0  0  0
   46.6030   31.7920   47.6880 C   0  0  0  0  0  0  0  0  0  0  0  0
   47.7480   32.0630   48.4050 C   0  0  0  0  0  0  0  0  0  0  0  0
   48.2420   30.8080   48.7800 C   0  0  0  0  0  0  0  0  0  0  0  0
   47.4260   29.8480   48.3060 N   0  0  0  0  0  0  0  0  0  0  0  0
   46.4320   30.4570   47.6420 N   0  0  0  0  0  0  0  0  0  0  0  0
   44.8271   35.6569   43.7462 H   0  0  0  0  0  0  0  0  0  0  0  0
   46.6980   34.7883   42.2869 H   0  0  0  0  0  0  0  0  0  0  0  0
   48.1638   32.9007   43.1897 H   0  0  0  0  0  0  0  0  0  0  0  0
   48.1792   33.0490   48.6327 H   0  0  0  0  0  0  0  0  0  0  0  0
   49.1541   30.6336   49.3696 H   0  0  0  0  0  0  0  0  0  0  0  0
   47.5433   28.8323   48.4303 H   0  0  0  0  0  0  0  0  0  0  0  0
  1  9  1  0
  1  2  2  0
  3  8  2  0
  4  5  2  0
  4  3  1  0
  5  6  1  0
  6  7  2  0
  7  1  1  0
  8  7  1  0
  9 10  1  0
 10 11  2  0
 12 11  1  0
 13  9  2  0
 13 12  1  0
  3 14  1  0
  4 15  1  0
  5 16  1  0
 10 17  1  0
 11 18  1  0
 12 19  1  0
M  ISO  6  14  14  15  14  16  14  17  14  18  14  19   9
M  END
>  <minimizedAffinity>  (1) 
-3.93691421

>  <minimizedRMSD>  (1) 
1.67924488

$$$$
