
     RDKit          3D

 14 14  0  0  0  0  0  0  0  0999 V2000
   44.5160   35.8720   44.6790 C   0  0  0  0  0  0  0  0  0  0  0  0
   45.1830   35.8050   43.4460 C   0  0  0  0  0  0  0  0  0  0  0  0
   46.1110   34.7670   43.2740 C   0  0  0  0  0  0  0  0  0  0  0  0
   46.3020   33.9030   44.3020 N   0  0  0  0  0  0  0  0  0  0  0  0
   45.6450   34.0010   45.4640 C   0  0  0  0  0  0  0  0  0  0  0  0
   44.7550   34.9820   45.6520 N   0  0  0  0  0  0  0  0  0  0  0  0
   45.8380   33.0770   46.5850 C   0  0  0  0  0  0  0  0  0  0  0  0
   45.0770   33.0260   47.5760 O   0  0  0  0  0  0  0  0  0  0  0  0
   46.9750   32.2080   46.4910 N   0  0  0  0  0  0  0  0  0  0  0  0
   43.7811   36.6724   44.8505 H   0  0  0  0  0  0  0  0  0  0  0  0
   44.9864   36.5359   42.6478 H   0  0  0  0  0  0  0  0  0  0  0  0
   46.6681   34.6569   42.3319 H   0  0  0  0  0  0  0  0  0  0  0  0
   47.1709   31.5330   47.2439 H   0  0  0  0  0  0  0  0  0  0  0  0
   47.5957   32.2589   45.6706 H   0  0  0  0  0  0  0  0  0  0  0  0
  1  6  2  0
  2  1  1  0
  3  2  2  0
  3  4  1  0
  4  5  2  0
  5  6  1  0
  5  7  1  0
  7  8  2  0
  9  7  1  0
  1 10  1  0
  2 11  1  0
  3 12  1  0
  9 13  1  0
  9 14  1  0
M  ISO  3  10  14  11  14  12  14
M  END
>  <minimizedAffinity>  (1) 
-3.46145463

>  <minimizedRMSD>  (1) 
0.118615642

$$$$
