
     RDKit          3D

 38 41  0  0  0  0  0  0  0  0999 V2000
   44.8170   30.4130   47.9080 Cl  0  0  0  0  0  0  0  0  0  0  0  0
   45.9920   29.9300   46.6740 C   0  0  0  0  0  0  0  0  0  0  0  0
   46.8540   30.8440   46.1740 C   0  0  0  0  0  0  0  0  0  0  0  0
   47.7550   30.4170   45.2330 C   0  0  0  0  0  0  0  0  0  0  0  0
   47.7790   29.1060   44.8110 C   0  0  0  0  0  0  0  0  0  0  0  0
   46.8740   28.1610   45.3370 C   0  0  0  0  0  0  0  0  0  0  0  0
   45.9880   28.6140   46.2740 C   0  0  0  0  0  0  0  0  0  0  0  0
   45.0330   27.6360   46.8370 C   0  0  0  0  0  0  0  0  0  0  0  0
   45.2520   26.8060   47.9020 C   0  0  0  0  0  0  0  0  0  0  0  0
   44.2670   25.9420   48.3200 C   0  0  0  0  0  0  0  0  0  0  0  0
   43.0280   25.8720   47.6940 C   0  0  0  0  0  0  0  0  0  0  0  0
   42.8180   26.7140   46.6180 C   0  0  0  0  0  0  0  0  0  0  0  0
   41.5650   26.6290   46.0020 C   0  0  0  0  0  0  0  0  0  0  0  0
   41.3770   27.4790   44.9310 C   0  0  0  0  0  0  0  0  0  0  0  0
   42.3050   28.3770   44.4420 C   0  0  0  0  0  0  0  0  0  0  0  0
   43.5120   28.3920   45.1130 C   0  0  0  0  0  0  0  0  0  0  0  0
   43.8010   27.5830   46.1940 C   0  0  0  0  0  0  0  0  0  0  0  0
   46.8000   32.2220   46.6210 C   0  0  0  0  0  0  0  0  0  0  0  0
   47.3420   32.4630   47.7430 O   0  0  0  0  0  0  0  0  0  0  0  0
   44.6340   34.9940   45.7490 C   0  0  0  0  0  0  0  0  0  0  0  0
   44.9330   35.2900   44.4180 C   0  0  0  0  0  0  0  0  0  0  0  0
   45.9220   34.4860   43.8280 C   0  0  0  0  0  0  0  0  0  0  0  0
   46.5020   33.5000   44.5770 N   0  0  0  0  0  0  0  0  0  0  0  0
   46.1710   33.2670   45.8500 C   0  0  0  0  0  0  0  0  0  0  0  0
   45.2340   34.0190   46.4300 N   0  0  0  0  0  0  0  0  0  0  0  0
   48.4719   31.1345   44.8072 H   0  0  0  0  0  0  0  0  0  0  0  0
   48.5132   28.7923   44.0543 H   0  0  0  0  0  0  0  0  0  0  0  0
   46.8808   27.1110   45.0093 H   0  0  0  0  0  0  0  0  0  0  0  0
   46.2190   26.8297   48.4258 H   0  0  0  0  0  0  0  0  0  0  0  0
   44.4665   25.2841   49.1787 H   0  0  0  0  0  0  0  0  0  0  0  0
   42.2486   25.1770   48.0397 H   0  0  0  0  0  0  0  0  0  0  0  0
   40.7850   25.9341   46.3467 H   0  0  0  0  0  0  0  0  0  0  0  0
   40.4025   27.4374   44.4224 H   0  0  0  0  0  0  0  0  0  0  0  0
   42.0984   29.0314   43.5823 H   0  0  0  0  0  0  0  0  0  0  0  0
   44.2887   29.0893   44.7659 H   0  0  0  0  0  0  0  0  0  0  0  0
   43.8666   35.5943   46.2596 H   0  0  0  0  0  0  0  0  0  0  0  0
   44.4282   36.0982   43.8685 H   0  0  0  0  0  0  0  0  0  0  0  0
   46.2244   34.6466   42.7826 H   0  0  0  0  0  0  0  0  0  0  0  0
  2  1  1  0
  3 18  1  0
  3  2  2  0
  4  3  1  0
  5  4  2  0
  5  6  1  0
  6  7  2  0
  7  2  1  0
  7  8  1  0
  8  9  2  0
  9 10  1  0
 11 10  2  0
 12 11  1  0
 13 12  2  0
 14 13  1  0
 15 14  2  0
 15 16  1  0
 16 17  2  0
 17 12  1  0
 17  8  1  0
 18 19  2  0
 20 25  2  0
 21 20  1  0
 22 21  2  0
 22 23  1  0
 23 24  2  0
 24 25  1  0
 24 18  1  0
  4 26  1  0
  5 27  1  0
  6 28  1  0
  9 29  1  0
 10 30  1  0
 11 31  1  0
 13 32  1  0
 14 33  1  0
 15 34  1  0
 16 35  1  0
 20 36  1  0
 21 37  1  0
 22 38  1  0
M  ISO  8  26  14  27  14  28  14  29  14  30  14  31  14  32  14  33  14
M  ISO  5  34  14  35  14  36  14  37  14  38  14
M  END
>  <minimizedAffinity>  (1) 
-5.85947466

>  <minimizedRMSD>  (1) 
2.84022593

$$$$
