
     RDKit          3D

 26 27  0  0  0  0  0  0  0  0999 V2000
   46.0710   32.3880   49.1620 Cl  0  0  0  0  0  0  0  0  0  0  0  0
   46.7210   31.6590   47.6810 C   0  0  0  0  0  0  0  0  0  0  0  0
   46.4060   32.2060   46.4800 C   0  0  0  0  0  0  0  0  0  0  0  0
   46.9520   31.6190   45.3670 C   0  0  0  0  0  0  0  0  0  0  0  0
   47.7780   30.5270   45.4620 C   0  0  0  0  0  0  0  0  0  0  0  0
   48.0940   29.9720   46.7170 C   0  0  0  0  0  0  0  0  0  0  0  0
   47.5410   30.5710   47.8130 C   0  0  0  0  0  0  0  0  0  0  0  0
   48.9860   30.6710   49.6980 C   0  0  0  0  0  0  0  0  0  0  0  0
   49.7060   31.5970   49.2150 O   0  0  0  0  0  0  0  0  0  0  0  0
   47.8380   30.0360   49.1040 N   0  0  0  0  0  0  0  0  0  0  0  0
   45.5130   33.3430   46.4120 C   0  0  0  0  0  0  0  0  0  0  0  0
   44.7560   33.5250   47.4100 O   0  0  0  0  0  0  0  0  0  0  0  0
   44.5970   36.1030   44.2490 C   0  0  0  0  0  0  0  0  0  0  0  0
   45.3830   35.9270   43.0950 C   0  0  0  0  0  0  0  0  0  0  0  0
   46.2370   34.8320   43.0890 C   0  0  0  0  0  0  0  0  0  0  0  0
   46.2610   34.0120   44.1770 N   0  0  0  0  0  0  0  0  0  0  0  0
   45.4960   34.2210   45.2510 C   0  0  0  0  0  0  0  0  0  0  0  0
   44.6630   35.2720   45.2810 N   0  0  0  0  0  0  0  0  0  0  0  0
   46.7223   32.0335   44.3743 H   0  0  0  0  0  0  0  0  0  0  0  0
   48.1975   30.0807   44.5483 H   0  0  0  0  0  0  0  0  0  0  0  0
   48.7548   29.0976   46.8103 H   0  0  0  0  0  0  0  0  0  0  0  0
   49.2746   30.3076   50.6953 H   0  0  0  0  0  0  0  0  0  0  0  0
   47.2959   29.2858   49.5559 H   0  0  0  0  0  0  0  0  0  0  0  0
   43.9056   36.9572   44.2969 H   0  0  0  0  0  0  0  0  0  0  0  0
   45.3240   36.6201   42.2429 H   0  0  0  0  0  0  0  0  0  0  0  0
   46.8825   34.6302   42.2215 H   0  0  0  0  0  0  0  0  0  0  0  0
  2  7  2  0
  2  1  1  0
  3  2  1  0
  4  5  1  0
  4  3  2  0
  5  6  2  0
  6  7  1  0
  7 10  1  0
  9  8  2  0
 10  8  1  0
 11  3  1  0
 11 12  2  0
 13 18  2  0
 14 13  1  0
 15 14  2  0
 15 16  1  0
 16 17  2  0
 17 18  1  0
 17 11  1  0
  4 19  1  0
  5 20  1  0
  6 21  1  0
  8 22  1  0
 10 23  1  0
 13 24  1  0
 14 25  1  0
 15 26  1  0
M  ISO  7  19  14  20  14  21  14  22   6  24  14  25  14  26  14
M  END
>  <minimizedAffinity>  (1) 
-5.29424572

>  <minimizedRMSD>  (1) 
1.48635697

$$$$
