
     RDKit          3D

 32 34  0  0  0  0  0  0  0  0999 V2000
   44.7670   30.4450   47.8150 Cl  0  0  0  0  0  0  0  0  0  0  0  0
   46.0860   29.8550   46.7950 C   0  0  0  0  0  0  0  0  0  0  0  0
   47.0420   30.7220   46.3680 C   0  0  0  0  0  0  0  0  0  0  0  0
   48.0540   30.2130   45.5970 C   0  0  0  0  0  0  0  0  0  0  0  0
   48.1040   28.8830   45.2640 C   0  0  0  0  0  0  0  0  0  0  0  0
   47.1090   27.9930   45.7110 C   0  0  0  0  0  0  0  0  0  0  0  0
   46.1090   28.5220   46.4800 C   0  0  0  0  0  0  0  0  0  0  0  0
   45.0620   27.5950   46.9510 C   0  0  0  0  0  0  0  0  0  0  0  0
   44.0060   27.4200   46.0530 C   0  0  0  0  0  0  0  0  0  0  0  0
   42.9390   26.5930   46.3220 C   0  0  0  0  0  0  0  0  0  0  0  0
   42.8850   25.9010   47.5110 C   0  0  0  0  0  0  0  0  0  0  0  0
   43.9310   26.0820   48.3830 C   0  0  0  0  0  0  0  0  0  0  0  0
   45.0040   26.8990   48.1400 C   0  0  0  0  0  0  0  0  0  0  0  0
   46.9560   32.1260   46.7130 C   0  0  0  0  0  0  0  0  0  0  0  0
   47.3830   32.4490   47.8620 O   0  0  0  0  0  0  0  0  0  0  0  0
   44.8780   34.7820   45.3960 C   0  0  0  0  0  0  0  0  0  0  0  0
   45.3250   35.0030   44.0990 C   0  0  0  0  0  0  0  0  0  0  0  0
   46.3820   34.1940   43.6940 C   0  0  0  0  0  0  0  0  0  0  0  0
   46.8910   33.2690   44.5680 N   0  0  0  0  0  0  0  0  0  0  0  0
   46.4150   33.1060   45.8030 C   0  0  0  0  0  0  0  0  0  0  0  0
   45.3940   33.8750   46.2220 N   0  0  0  0  0  0  0  0  0  0  0  0
   48.8452   30.8868   45.2365 H   0  0  0  0  0  0  0  0  0  0  0  0
   48.9299   28.5083   44.6415 H   0  0  0  0  0  0  0  0  0  0  0  0
   47.1345   26.9237   45.4542 H   0  0  0  0  0  0  0  0  0  0  0  0
   44.0281   27.9627   45.0965 H   0  0  0  0  0  0  0  0  0  0  0  0
   42.1286   26.4849   45.5861 H   0  0  0  0  0  0  0  0  0  0  0  0
   42.0437   25.2344   47.7515 H   0  0  0  0  0  0  0  0  0  0  0  0
   43.9056   25.5360   49.3376 H   0  0  0  0  0  0  0  0  0  0  0  0
   45.8085   26.9983   48.8836 H   0  0  0  0  0  0  0  0  0  0  0  0
   44.0433   35.3967   45.7640 H   0  0  0  0  0  0  0  0  0  0  0  0
   44.8762   35.7617   43.4409 H   0  0  0  0  0  0  0  0  0  0  0  0
   46.8045   34.2956   42.6835 H   0  0  0  0  0  0  0  0  0  0  0  0
  2  1  1  0
  3 14  1  0
  3  2  2  0
  4  3  1  0
  5  4  2  0
  5  6  1  0
  6  7  2  0
  7  2  1  0
  7  8  1  0
  8 13  2  0
  9 10  2  0
  9  8  1  0
 10 11  1  0
 11 12  2  0
 13 12  1  0
 14 15  2  0
 16 21  2  0
 17 16  1  0
 18 17  2  0
 18 19  1  0
 19 20  2  0
 20 21  1  0
 20 14  1  0
  4 22  1  0
  5 23  1  0
  6 24  1  0
  9 25  1  0
 10 26  1  0
 11 27  1  0
 12 28  1  0
 13 29  1  0
 16 30  1  0
 17 31  1  0
 18 32  1  0
M  ISO  8  22  14  23  14  24  14  25  14  26  14  27  14  28  14  29  14
M  ISO  3  30  14  31  14  32  14
M  END
>  <minimizedAffinity>  (1) 
-5.1034565

>  <minimizedRMSD>  (1) 
2.00803852

$$$$
