
     RDKit          3D

 38 40  0  0  0  0  0  0  0  0999 V2000
   44.6610   30.8540   47.8740 Cl  0  0  0  0  0  0  0  0  0  0  0  0
   45.8590   30.1340   46.7810 C   0  0  0  0  0  0  0  0  0  0  0  0
   46.8410   30.9070   46.2760 C   0  0  0  0  0  0  0  0  0  0  0  0
   47.7510   30.2880   45.4640 C   0  0  0  0  0  0  0  0  0  0  0  0
   47.6640   28.9530   45.1820 C   0  0  0  0  0  0  0  0  0  0  0  0
   46.6330   28.1670   45.7160 C   0  0  0  0  0  0  0  0  0  0  0  0
   45.7040   28.7940   46.5450 C   0  0  0  0  0  0  0  0  0  0  0  0
   44.6160   28.0270   47.1430 C   0  0  0  0  0  0  0  0  0  0  0  0
   44.7810   27.1020   48.2220 C   0  0  0  0  0  0  0  0  0  0  0  0
   44.8320   25.6700   47.6690 C   0  0  0  0  0  0  0  0  0  0  0  0
   43.4250   25.2370   47.3000 C   0  0  0  0  0  0  0  0  0  0  0  0
   42.7940   26.4110   46.5730 C   0  0  0  0  0  0  0  0  0  0  0  0
   43.8580   27.3480   46.0250 C   0  0  0  0  0  0  0  0  0  0  0  0
   46.8910   32.3200   46.5760 C   0  0  0  0  0  0  0  0  0  0  0  0
   47.4680   32.6460   47.6460 O   0  0  0  0  0  0  0  0  0  0  0  0
   44.7560   35.0050   45.4000 C   0  0  0  0  0  0  0  0  0  0  0  0
   45.1660   35.2530   44.0980 C   0  0  0  0  0  0  0  0  0  0  0  0
   46.2080   34.4530   43.6410 C   0  0  0  0  0  0  0  0  0  0  0  0
   46.7470   33.5110   44.4610 N   0  0  0  0  0  0  0  0  0  0  0  0
   46.3140   33.3120   45.7100 C   0  0  0  0  0  0  0  0  0  0  0  0
   45.3150   34.0740   46.1570 N   0  0  0  0  0  0  0  0  0  0  0  0
   48.5712   30.8774   45.0281 H   0  0  0  0  0  0  0  0  0  0  0  0
   48.4147   28.4883   44.5259 H   0  0  0  0  0  0  0  0  0  0  0  0
   46.5598   27.0932   45.4888 H   0  0  0  0  0  0  0  0  0  0  0  0
   44.1098   28.8296   47.6994 H   0  0  0  0  0  0  0  0  0  0  0  0
   45.7184   27.3229   48.7536 H   0  0  0  0  0  0  0  0  0  0  0  0
   43.9332   27.1956   48.9166 H   0  0  0  0  0  0  0  0  0  0  0  0
   45.4737   25.6413   46.7760 H   0  0  0  0  0  0  0  0  0  0  0  0
   45.2445   24.9905   48.4294 H   0  0  0  0  0  0  0  0  0  0  0  0
   43.4579   24.3554   46.6429 H   0  0  0  0  0  0  0  0  0  0  0  0
   42.8447   24.9614   48.1929 H   0  0  0  0  0  0  0  0  0  0  0  0
   42.1843   26.0323   45.7394 H   0  0  0  0  0  0  0  0  0  0  0  0
   42.1687   26.9692   47.2853 H   0  0  0  0  0  0  0  0  0  0  0  0
   44.5647   26.7693   45.4120 H   0  0  0  0  0  0  0  0  0  0  0  0
   43.3629   28.1215   45.4195 H   0  0  0  0  0  0  0  0  0  0  0  0
   43.9349   35.6050   45.8193 H   0  0  0  0  0  0  0  0  0  0  0  0
   44.6999   36.0276   43.4713 H   0  0  0  0  0  0  0  0  0  0  0  0
   46.5951   34.5817   42.6194 H   0  0  0  0  0  0  0  0  0  0  0  0
  2  1  1  0
  3 14  1  0
  3  2  2  0
  4  3  1  0
  5  4  2  0
  5  6  1  0
  6  7  2  0
  7  2  1  0
  7  8  1  0
  8  9  1  0
 10  9  1  0
 11 10  1  0
 12 11  1  0
 13 12  1  0
 13  8  1  0
 14 15  2  0
 16 21  2  0
 17 16  1  0
 18 17  2  0
 18 19  1  0
 19 20  2  0
 20 21  1  0
 20 14  1  0
  4 22  1  0
  5 23  1  0
  6 24  1  0
  8 25  1  0
  9 26  1  0
  9 27  1  0
 10 28  1  0
 10 29  1  0
 11 30  1  0
 11 31  1  0
 12 32  1  0
 12 33  1  0
 13 34  1  0
 13 35  1  0
 16 36  1  0
 17 37  1  0
 18 38  1  0
M  ISO  8  22  14  23  14  24  14  25  13  26  13  27  13  28  13  29  13
M  ISO  8  30  13  31  13  32  13  33  13  34  13  35  13  36  14  37  14
M  ISO  1  38  14
M  END
>  <minimizedAffinity>  (1) 
-5.05472231

>  <minimizedRMSD>  (1) 
1.74217403

$$$$
