
     RDKit          3D

 31 33  0  0  0  0  0  0  0  0999 V2000
   44.8250   30.4070   47.7360 Cl  0  0  0  0  0  0  0  0  0  0  0  0
   46.1040   29.9350   46.5950 C   0  0  0  0  0  0  0  0  0  0  0  0
   46.9910   30.8580   46.1650 C   0  0  0  0  0  0  0  0  0  0  0  0
   47.9670   30.4360   45.3020 C   0  0  0  0  0  0  0  0  0  0  0  0
   48.0440   29.1320   44.8880 C   0  0  0  0  0  0  0  0  0  0  0  0
   47.1110   28.1760   45.3450 C   0  0  0  0  0  0  0  0  0  0  0  0
   46.1370   28.6140   46.2110 C   0  0  0  0  0  0  0  0  0  0  0  0
   45.1250   27.6950   46.7380 C   0  0  0  0  0  0  0  0  0  0  0  0
   43.9720   27.3540   46.0890 C   0  0  0  0  0  0  0  0  0  0  0  0
   43.0130   26.4980   46.5620 C   0  0  0  0  0  0  0  0  0  0  0  0
   43.2010   25.9160   47.7980 C   0  0  0  0  0  0  0  0  0  0  0  0
   44.3550   26.2600   48.4460 C   0  0  0  0  0  0  0  0  0  0  0  0
   45.2680   27.1060   47.9380 N   0  0  0  0  0  0  0  0  0  0  0  0
   46.8800   32.2340   46.6040 C   0  0  0  0  0  0  0  0  0  0  0  0
   47.3730   32.5010   47.7390 O   0  0  0  0  0  0  0  0  0  0  0  0
   44.6780   34.9570   45.6610 C   0  0  0  0  0  0  0  0  0  0  0  0
   44.9870   35.2290   44.3300 C   0  0  0  0  0  0  0  0  0  0  0  0
   45.9870   34.4300   43.7660 C   0  0  0  0  0  0  0  0  0  0  0  0
   46.5800   33.4650   44.5290 N   0  0  0  0  0  0  0  0  0  0  0  0
   46.2460   33.2480   45.8020 C   0  0  0  0  0  0  0  0  0  0  0  0
   45.2950   34.0020   46.3470 N   0  0  0  0  0  0  0  0  0  0  0  0
   48.7069   31.1612   44.9323 H   0  0  0  0  0  0  0  0  0  0  0  0
   48.8403   28.8272   44.1930 H   0  0  0  0  0  0  0  0  0  0  0  0
   47.1612   27.1257   45.0221 H   0  0  0  0  0  0  0  0  0  0  0  0
   43.7989   27.8060   45.1012 H   0  0  0  0  0  0  0  0  0  0  0  0
   42.1127   26.2796   45.9690 H   0  0  0  0  0  0  0  0  0  0  0  0
   42.4697   25.2198   48.2346 H   0  0  0  0  0  0  0  0  0  0  0  0
   44.5466   25.8209   49.4362 H   0  0  0  0  0  0  0  0  0  0  0  0
   43.8985   35.5520   46.1593 H   0  0  0  0  0  0  0  0  0  0  0  0
   44.4779   36.0202   43.7600 H   0  0  0  0  0  0  0  0  0  0  0  0
   46.2924   34.5773   42.7196 H   0  0  0  0  0  0  0  0  0  0  0  0
  2  1  1  0
  3  2  2  0
  3 14  1  0
  4  3  1  0
  5  4  2  0
  5  6  1  0
  6  7  2  0
  7  2  1  0
  7  8  1  0
  8 13  2  0
  9 10  2  0
  9  8  1  0
 10 11  1  0
 11 12  2  0
 13 12  1  0
 14 15  2  0
 16 21  2  0
 17 16  1  0
 18 17  2  0
 18 19  1  0
 19 20  2  0
 20 21  1  0
 20 14  1  0
  4 22  1  0
  5 23  1  0
  6 24  1  0
  9 25  1  0
 10 26  1  0
 11 27  1  0
 12 28  1  0
 16 29  1  0
 17 30  1  0
 18 31  1  0
M  ISO  8  22  14  23  14  24  14  25  14  26  14  27  14  28  14  29  14
M  ISO  2  30  14  31  14
M  END
>  <minimizedAffinity>  (1) 
-4.84694576

>  <minimizedRMSD>  (1) 
2.09590435

$$$$
