
     RDKit          3D

 36 38  0  0  0  0  0  0  0  0999 V2000
   44.7030   30.5470   48.0090 Cl  0  0  0  0  0  0  0  0  0  0  0  0
   46.0700   29.7760   47.1790 C   0  0  0  0  0  0  0  0  0  0  0  0
   47.1280   30.5220   46.7890 C   0  0  0  0  0  0  0  0  0  0  0  0
   48.1740   29.8670   46.1940 C   0  0  0  0  0  0  0  0  0  0  0  0
   48.1380   28.5070   46.0030 C   0  0  0  0  0  0  0  0  0  0  0  0
   47.0350   27.7470   46.4090 C   0  0  0  0  0  0  0  0  0  0  0  0
   46.0050   28.4210   47.0020 C   0  0  0  0  0  0  0  0  0  0  0  0
   44.8780   27.6000   47.3840 N   0  0  0  0  0  0  0  0  0  0  0  0
   44.6680   27.1040   48.7280 C   0  0  0  0  0  0  0  0  0  0  0  0
   44.9190   25.6190   48.6820 C   0  0  0  0  0  0  0  0  0  0  0  0
   43.9250   25.0420   47.8020 N   0  0  0  0  0  0  0  0  0  0  0  0
   43.0810   25.9980   47.1640 C   0  0  0  0  0  0  0  0  0  0  0  0
   43.8270   27.1410   46.4900 C   0  0  0  0  0  0  0  0  0  0  0  0
   47.1030   31.9600   46.9880 C   0  0  0  0  0  0  0  0  0  0  0  0
   47.5340   32.3900   48.0930 O   0  0  0  0  0  0  0  0  0  0  0  0
   45.0800   34.4850   45.3590 C   0  0  0  0  0  0  0  0  0  0  0  0
   45.5990   34.6150   44.0740 C   0  0  0  0  0  0  0  0  0  0  0  0
   46.6820   33.7850   43.7940 C   0  0  0  0  0  0  0  0  0  0  0  0
   47.1490   32.9330   44.7570 N   0  0  0  0  0  0  0  0  0  0  0  0
   46.6090   32.8530   45.9760 C   0  0  0  0  0  0  0  0  0  0  0  0
   45.5680   33.6410   46.2630 N   0  0  0  0  0  0  0  0  0  0  0  0
   49.0547   30.4379   45.8647 H   0  0  0  0  0  0  0  0  0  0  0  0
   48.9914   28.0063   45.5223 H   0  0  0  0  0  0  0  0  0  0  0  0
   46.9991   26.6580   46.2577 H   0  0  0  0  0  0  0  0  0  0  0  0
   45.3695   27.5863   49.4246 H   0  0  0  0  0  0  0  0  0  0  0  0
   43.6484   27.3237   49.0775 H   0  0  0  0  0  0  0  0  0  0  0  0
   45.9281   25.4196   48.2922 H   0  0  0  0  0  0  0  0  0  0  0  0
   44.8497   25.1807   49.6885 H   0  0  0  0  0  0  0  0  0  0  0  0
   44.4136   24.5047   47.0716 H   0  0  0  0  0  0  0  0  0  0  0  0
   42.4862   25.4766   46.3996 H   0  0  0  0  0  0  0  0  0  0  0  0
   42.4618   26.4483   47.9538 H   0  0  0  0  0  0  0  0  0  0  0  0
   44.2703   26.7891   45.5468 H   0  0  0  0  0  0  0  0  0  0  0  0
   43.1327   27.9658   46.2715 H   0  0  0  0  0  0  0  0  0  0  0  0
   44.2220   35.1129   45.6411 H   0  0  0  0  0  0  0  0  0  0  0  0
   45.1858   35.3189   43.3366 H   0  0  0  0  0  0  0  0  0  0  0  0
   47.1594   33.8145   42.8034 H   0  0  0  0  0  0  0  0  0  0  0  0
  2  1  1  0
  3 14  1  0
  3  2  2  0
  4  3  1  0
  5  4  2  0
  5  6  1  0
  6  7  2  0
  7  2  1  0
  7  8  1  0
  8  9  1  0
 10  9  1  0
 11 10  1  0
 12 11  1  0
 13 12  1  0
 13  8  1  0
 14 15  2  0
 16 21  2  0
 17 16  1  0
 18 17  2  0
 18 19  1  0
 19 20  2  0
 20 21  1  0
 20 14  1  0
  4 22  1  0
  5 23  1  0
  6 24  1  0
  9 25  1  0
  9 26  1  0
 10 27  1  0
 10 28  1  0
 11 29  1  0
 12 30  1  0
 12 31  1  0
 13 32  1  0
 13 33  1  0
 16 34  1  0
 17 35  1  0
 18 36  1  0
M  ISO  8  22  14  23  14  24  14  25  13  26  13  27  13  28  13  29   5
M  ISO  7  30  13  31  13  32  13  33  13  34  14  35  14  36  14
M  END
>  <minimizedAffinity>  (1) 
-4.69453144

>  <minimizedRMSD>  (1) 
1.99634194

$$$$
