
     RDKit          3D

 29 31  0  0  0  0  0  0  0  0999 V2000
   44.4730   30.9780   48.3840 Cl  0  0  0  0  0  0  0  0  0  0  0  0
   45.6780   30.6520   47.1580 C   0  0  0  0  0  0  0  0  0  0  0  0
   46.2250   31.6720   46.4640 C   0  0  0  0  0  0  0  0  0  0  0  0
   47.1980   31.3370   45.5630 C   0  0  0  0  0  0  0  0  0  0  0  0
   47.6010   30.0330   45.3670 C   0  0  0  0  0  0  0  0  0  0  0  0
   47.0120   28.9950   46.1020 C   0  0  0  0  0  0  0  0  0  0  0  0
   46.0400   29.3450   47.0010 C   0  0  0  0  0  0  0  0  0  0  0  0
   45.4930   28.1480   47.6940 C   0  0  0  0  0  0  0  0  0  0  0  0
   45.9330   26.7800   47.3270 C   0  0  0  0  0  0  0  0  0  0  0  0
   44.4910   27.2390   47.1650 C   0  0  0  0  0  0  0  0  0  0  0  0
   45.7560   33.0270   46.6670 C   0  0  0  0  0  0  0  0  0  0  0  0
   45.5070   33.3600   47.8630 O   0  0  0  0  0  0  0  0  0  0  0  0
   44.5410   35.8270   44.7200 C   0  0  0  0  0  0  0  0  0  0  0  0
   45.1940   35.7380   43.4920 C   0  0  0  0  0  0  0  0  0  0  0  0
   46.0710   34.6720   43.3660 C   0  0  0  0  0  0  0  0  0  0  0  0
   46.2330   33.8080   44.4160 N   0  0  0  0  0  0  0  0  0  0  0  0
   45.5790   33.9430   45.5710 C   0  0  0  0  0  0  0  0  0  0  0  0
   44.7290   34.9580   45.7210 N   0  0  0  0  0  0  0  0  0  0  0  0
   47.6751   32.1348   44.9749 H   0  0  0  0  0  0  0  0  0  0  0  0
   48.3871   29.8067   44.6316 H   0  0  0  0  0  0  0  0  0  0  0  0
   47.3166   27.9472   45.9631 H   0  0  0  0  0  0  0  0  0  0  0  0
   45.5143   28.7725   48.5993 H   0  0  0  0  0  0  0  0  0  0  0  0
   46.5677   26.6184   46.4432 H   0  0  0  0  0  0  0  0  0  0  0  0
   46.4463   25.9513   47.8367 H   0  0  0  0  0  0  0  0  0  0  0  0
   44.0748   27.4027   46.1600 H   0  0  0  0  0  0  0  0  0  0  0  0
   43.5130   26.8716   47.5092 H   0  0  0  0  0  0  0  0  0  0  0  0
   43.8337   36.6551   44.8750 H   0  0  0  0  0  0  0  0  0  0  0  0
   45.0255   36.4618   42.6810 H   0  0  0  0  0  0  0  0  0  0  0  0
   46.6315   34.5215   42.4315 H   0  0  0  0  0  0  0  0  0  0  0  0
  2  1  1  0
  3 11  1  0
  3  2  2  0
  4  3  1  0
  5  4  2  0
  5  6  1  0
  6  7  2  0
  7  2  1  0
  7  8  1  0
  9  8  1  0
 10  9  1  0
 10  8  1  0
 11 12  2  0
 13 18  2  0
 14 13  1  0
 15 14  2  0
 15 16  1  0
 16 17  2  0
 17 18  1  0
 17 11  1  0
  4 19  1  0
  5 20  1  0
  6 21  1  0
  8 22  1  0
  9 23  1  0
  9 24  1  0
 10 25  1  0
 10 26  1  0
 13 27  1  0
 14 28  1  0
 15 29  1  0
M  ISO  8  19  14  20  14  21  14  22  13  23  13  24  13  25  13  26  13
M  ISO  3  27  14  28  14  29  14
M  END
>  <minimizedAffinity>  (1) 
-4.49276829

>  <minimizedRMSD>  (1) 
0.968395293

$$$$
