
     RDKit          3D

 34 36  0  0  0  0  0  0  0  0999 V2000
   44.6890   30.6190   47.7590 Cl  0  0  0  0  0  0  0  0  0  0  0  0
   46.0060   29.9460   46.7890 C   0  0  0  0  0  0  0  0  0  0  0  0
   47.0060   30.7500   46.3600 C   0  0  0  0  0  0  0  0  0  0  0  0
   48.0090   30.1760   45.6250 C   0  0  0  0  0  0  0  0  0  0  0  0
   48.0100   28.8380   45.3280 C   0  0  0  0  0  0  0  0  0  0  0  0
   46.9700   28.0080   45.7760 C   0  0  0  0  0  0  0  0  0  0  0  0
   45.9510   28.5930   46.5230 C   0  0  0  0  0  0  0  0  0  0  0  0
   44.8630   27.7950   47.0080 N   0  0  0  0  0  0  0  0  0  0  0  0
   44.7720   27.1690   48.3360 C   0  0  0  0  0  0  0  0  0  0  0  0
   44.6100   25.7150   47.9180 C   0  0  0  0  0  0  0  0  0  0  0  0
   43.6490   25.8510   46.7540 C   0  0  0  0  0  0  0  0  0  0  0  0
   43.5800   27.3420   46.4540 C   0  0  0  0  0  0  0  0  0  0  0  0
   46.9850   32.1660   46.6670 C   0  0  0  0  0  0  0  0  0  0  0  0
   47.4910   32.5040   47.7770 O   0  0  0  0  0  0  0  0  0  0  0  0
   44.8700   34.8190   45.3910 C   0  0  0  0  0  0  0  0  0  0  0  0
   45.3180   35.0540   44.0990 C   0  0  0  0  0  0  0  0  0  0  0  0
   46.3790   34.2590   43.6810 C   0  0  0  0  0  0  0  0  0  0  0  0
   46.9000   33.3280   44.5350 N   0  0  0  0  0  0  0  0  0  0  0  0
   46.4240   33.1480   45.7720 C   0  0  0  0  0  0  0  0  0  0  0  0
   45.4080   33.9030   46.1880 N   0  0  0  0  0  0  0  0  0  0  0  0
   48.8355   30.8054   45.2635 H   0  0  0  0  0  0  0  0  0  0  0  0
   48.8318   28.4112   44.7342 H   0  0  0  0  0  0  0  0  0  0  0  0
   46.9606   26.9326   45.5448 H   0  0  0  0  0  0  0  0  0  0  0  0
   45.6861   27.3265   48.9273 H   0  0  0  0  0  0  0  0  0  0  0  0
   43.9749   27.5611   48.9847 H   0  0  0  0  0  0  0  0  0  0  0  0
   45.5681   25.2771   47.6012 H   0  0  0  0  0  0  0  0  0  0  0  0
   44.2574   25.0503   48.7204 H   0  0  0  0  0  0  0  0  0  0  0  0
   44.0247   25.3000   45.8792 H   0  0  0  0  0  0  0  0  0  0  0  0
   42.6583   25.4370   46.9929 H   0  0  0  0  0  0  0  0  0  0  0  0
   43.5154   27.5347   45.3729 H   0  0  0  0  0  0  0  0  0  0  0  0
   42.6988   27.8501   46.8727 H   0  0  0  0  0  0  0  0  0  0  0  0
   44.0307   35.4189   45.7726 H   0  0  0  0  0  0  0  0  0  0  0  0
   44.8645   35.8174   43.4497 H   0  0  0  0  0  0  0  0  0  0  0  0
   46.7961   34.3784   42.6702 H   0  0  0  0  0  0  0  0  0  0  0  0
  2  1  1  0
  3 13  1  0
  3  2  2  0
  4  3  1  0
  5  4  2  0
  5  6  1  0
  6  7  2  0
  7  2  1  0
  7  8  1  0
  8  9  1  0
 10  9  1  0
 11 10  1  0
 12 11  1  0
 12  8  1  0
 13 14  2  0
 15 20  2  0
 16 15  1  0
 17 16  2  0
 17 18  1  0
 18 19  2  0
 19 20  1  0
 19 13  1  0
  4 21  1  0
  5 22  1  0
  6 23  1  0
  9 24  1  0
  9 25  1  0
 10 26  1  0
 10 27  1  0
 11 28  1  0
 11 29  1  0
 12 30  1  0
 12 31  1  0
 15 32  1  0
 16 33  1  0
 17 34  1  0
M  ISO  8  21  14  22  14  23  14  24  13  25  13  26  13  27  13  28  13
M  ISO  6  29  13  30  13  31  13  32  14  33  14  34  14
M  END
>  <minimizedAffinity>  (1) 
-4.38988686

>  <minimizedRMSD>  (1) 
1.79342365

$$$$
