
     RDKit          3D

 35 38  0  0  0  0  0  0  0  0999 V2000
   44.8860   30.7230   47.7710 Cl  0  0  0  0  0  0  0  0  0  0  0  0
   46.0430   30.0990   46.5900 C   0  0  0  0  0  0  0  0  0  0  0  0
   46.9440   30.9440   45.9980 C   0  0  0  0  0  0  0  0  0  0  0  0
   47.8230   30.4160   45.1010 C   0  0  0  0  0  0  0  0  0  0  0  0
   47.8040   29.0710   44.7990 C   0  0  0  0  0  0  0  0  0  0  0  0
   46.8920   28.2190   45.3970 C   0  0  0  0  0  0  0  0  0  0  0  0
   46.0030   28.7580   46.3060 C   0  0  0  0  0  0  0  0  0  0  0  0
   45.0810   27.7790   46.8760 C   0  0  0  0  0  0  0  0  0  0  0  0
   43.9170   27.2400   46.3490 C   0  0  0  0  0  0  0  0  0  0  0  0
   43.3330   26.3390   47.2080 C   0  0  0  0  0  0  0  0  0  0  0  0
   44.2030   26.3610   48.2820 C   0  0  0  0  0  0  0  0  0  0  0  0
   45.1700   27.1940   48.0340 O   0  0  0  0  0  0  0  0  0  0  0  0
   46.9120   32.3620   46.3520 C   0  0  0  0  0  0  0  0  0  0  0  0
   47.2950   32.6830   47.4980 O   0  0  0  0  0  0  0  0  0  0  0  0
   44.8810   34.9560   44.8330 C   0  0  0  0  0  0  0  0  0  0  0  0
   45.4810   35.2410   43.5970 C   0  0  0  0  0  0  0  0  0  0  0  0
   46.6090   34.4970   43.3180 C   0  0  0  0  0  0  0  0  0  0  0  0
   47.0530   33.5720   44.2250 N   0  0  0  0  0  0  0  0  0  0  0  0
   46.4460   33.3440   45.3820 C   0  0  0  0  0  0  0  0  0  0  0  0
   45.3450   34.0510   45.6840 N   0  0  0  0  0  0  0  0  0  0  0  0
   47.3410   34.6810   42.0710 C   0  0  0  0  0  0  0  0  0  0  0  0
   47.1090   34.0430   40.9080 N   0  0  0  0  0  0  0  0  0  0  0  0
   48.0060   34.4930   39.9830 C   0  0  0  0  0  0  0  0  0  0  0  0
   48.7880   35.4190   40.6140 N   0  0  0  0  0  0  0  0  0  0  0  0
   48.3710   35.5250   41.8860 N   0  0  0  0  0  0  0  0  0  0  0  0
   48.5578   31.0717   44.6111 H   0  0  0  0  0  0  0  0  0  0  0  0
   48.5247   28.6689   44.0717 H   0  0  0  0  0  0  0  0  0  0  0  0
   46.8757   27.1459   45.1558 H   0  0  0  0  0  0  0  0  0  0  0  0
   43.5094   27.5020   45.3615 H   0  0  0  0  0  0  0  0  0  0  0  0
   42.4119   25.7525   47.0750 H   0  0  0  0  0  0  0  0  0  0  0  0
   44.0943   25.7673   49.2016 H   0  0  0  0  0  0  0  0  0  0  0  0
   43.9752   35.5145   45.1116 H   0  0  0  0  0  0  0  0  0  0  0  0
   45.0834   35.9980   42.9050 H   0  0  0  0  0  0  0  0  0  0  0  0
   48.0842   34.1726   38.9336 H   0  0  0  0  0  0  0  0  0  0  0  0
   49.5639   35.9452   40.1873 H   0  0  0  0  0  0  0  0  0  0  0  0
  2  1  1  0
  3 13  1  0
  3  2  2  0
  4  3  1  0
  5  4  2  0
  5  6  1  0
  6  7  2  0
  7  2  1  0
  7  8  1  0
  8 12  1  0
  9  8  2  0
  9 10  1  0
 10 11  2  0
 12 11  1  0
 13 14  2  0
 15 20  2  0
 16 15  1  0
 17 16  2  0
 17 18  1  0
 18 19  2  0
 19 20  1  0
 19 13  1  0
 21 17  1  0
 22 21  1  0
 23 24  1  0
 23 22  2  0
 24 25  1  0
 25 21  2  0
  4 26  1  0
  5 27  1  0
  6 28  1  0
  9 29  1  0
 10 30  1  0
 11 31  1  0
 15 32  1  0
 16 33  1  0
 23 34  1  0
 24 35  1  0
M  ISO  8  26  14  27  14  28  14  29  14  30  14  31  14  32  14  33  14
M  ISO  2  34  14  35   9
M  END
>  <minimizedAffinity>  (1) 
-5.99945736

>  <minimizedRMSD>  (1) 
0.531984448

$$$$
