
     RDKit          3D

 42 45  0  0  1  0  0  0  0  0999 V2000
   47.1850   31.9200   47.1190 C   0  0  0  0  0  0  0  0  0  0  0  0
   47.4280   32.5010   48.2000 O   0  0  0  0  0  0  0  0  0  0  0  0
   44.6990   30.4310   47.7670 Cl  0  0  0  0  0  0  0  0  0  0  0  0
   46.2420   29.6730   47.3590 C   0  0  0  0  0  0  0  0  0  0  0  0
   47.3350   30.4680   47.0790 C   0  0  0  0  0  0  0  0  0  0  0  0
   48.5060   29.8440   46.7770 C   0  0  0  0  0  0  0  0  0  0  0  0
   48.5930   28.4700   46.7500 C   0  0  0  0  0  0  0  0  0  0  0  0
   47.4910   27.6860   47.0300 C   0  0  0  0  0  0  0  0  0  0  0  0
   46.3030   28.3160   47.3380 C   0  0  0  0  0  0  0  0  0  0  0  0
   45.2010   27.3960   47.6150 C   0  0  0  0  0  0  0  0  0  0  0  0
   44.1930   26.9420   46.7770 C   0  0  0  0  0  0  0  0  0  0  0  0
   43.3380   26.0790   47.4150 C   0  0  0  0  0  0  0  0  0  0  0  0
   43.8800   26.0300   48.6900 C   0  0  0  0  0  0  0  0  0  0  0  0
   44.9250   26.7930   48.7350 O   0  0  0  0  0  0  0  0  0  0  0  0
   45.3780   34.2440   44.9970 C   0  0  0  0  0  0  0  0  0  0  0  0
   45.8890   34.0680   43.7070 C   0  0  0  0  0  0  0  0  0  0  0  0
   46.8840   33.1120   43.6000 C   0  0  0  0  0  0  0  0  0  0  0  0
   47.2870   32.4280   44.7290 N   0  0  0  0  0  0  0  0  0  0  0  0
   46.7650   32.6380   45.9270 C   0  0  0  0  0  0  0  0  0  0  0  0
   45.7990   33.5600   46.0490 N   0  0  0  0  0  0  0  0  0  0  0  0
   47.4980   34.0900   41.4030 C   0  0  2  0  0  0  0  0  0  0  0  0
   47.4760   32.8620   42.2850 C   0  0  1  0  0  0  0  0  0  0  0  0
   48.8280   32.5990   42.4620 O   0  0  0  0  0  0  0  0  0  0  0  0
   49.4940   33.7860   42.5940 C   0  0  0  0  0  0  0  0  0  0  0  0
   48.5790   34.8940   42.1350 C   0  0  1  0  0  0  0  0  0  0  0  0
   46.2920   34.7410   41.3440 O   0  0  0  0  0  0  0  0  0  0  0  0
   49.1830   35.8260   41.3240 O   0  0  0  0  0  0  0  0  0  0  0  0
   49.3977   30.4471   46.5507 H   0  0  0  0  0  0  0  0  0  0  0  0
   49.5518   27.9910   46.5024 H   0  0  0  0  0  0  0  0  0  0  0  0
   47.5588   26.5883   47.0080 H   0  0  0  0  0  0  0  0  0  0  0  0
   44.0909   27.2394   45.7229 H   0  0  0  0  0  0  0  0  0  0  0  0
   42.4527   25.5608   47.0180 H   0  0  0  0  0  0  0  0  0  0  0  0
   43.4855   25.4379   49.5289 H   0  0  0  0  0  0  0  0  0  0  0  0
   44.5839   34.9907   45.1451 H   0  0  0  0  0  0  0  0  0  0  0  0
   45.5276   34.6454   42.8433 H   0  0  0  0  0  0  0  0  0  0  0  0
   47.6953   33.8946   40.3386 H   0  0  0  0  0  0  0  0  0  0  0  0
   46.8815   32.0537   41.8342 H   0  0  0  0  0  0  0  0  0  0  0  0
   49.7696   33.9431   43.6473 H   0  0  0  0  0  0  0  0  0  0  0  0
   50.4119   33.7759   41.9879 H   0  0  0  0  0  0  0  0  0  0  0  0
   48.2107   35.5221   42.9595 H   0  0  0  0  0  0  0  0  0  0  0  0
   45.9666   34.9167   42.2623 H   0  0  0  0  0  0  0  0  0  0  0  0
   49.6273   36.5116   41.8832 H   0  0  0  0  0  0  0  0  0  0  0  0
  1  2  2  0
  4  3  1  0
  5  1  1  0
  5  4  2  0
  6  5  1  0
  7  6  2  0
  7  8  1  0
  8  9  2  0
  9  4  1  0
  9 10  1  0
 10 14  1  0
 11 12  1  0
 11 10  2  0
 12 13  2  0
 13 14  1  0
 15 20  2  0
 16 15  1  0
 17 16  2  0
 17 18  1  0
 18 19  2  0
 19 20  1  0
 19  1  1  0
 21 26  1  0
 21 25  1  0
 21 22  1  0
 22 23  1  0
 22 17  1  0
 23 24  1  0
 25 27  1  0
 25 24  1  0
  6 28  1  0
  7 29  1  0
  8 30  1  0
 11 31  1  0
 12 32  1  0
 13 33  1  0
 15 34  1  0
 16 35  1  0
 21 36  1  6
 22 37  1  6
 24 38  1  0
 24 39  1  0
 25 40  1  1
 26 41  1  0
 27 42  1  0
M  ISO  8  28  14  29  14  30  14  31  14  32  14  33  14  34  14  35  14
M  ISO  7  36  13  37  13  38  13  39  13  40  13  41   3  42   3
M  END
>  <minimizedAffinity>  (1) 
-5.98570347

>  <minimizedRMSD>  (1) 
1.1100589

$$$$
