
     RDKit          3D

 32 34  0  0  0  0  0  0  0  0999 V2000
   44.8530   30.6900   47.9180 Cl  0  0  0  0  0  0  0  0  0  0  0  0
   45.9900   30.1090   46.6960 C   0  0  0  0  0  0  0  0  0  0  0  0
   46.8800   30.9840   46.1230 C   0  0  0  0  0  0  0  0  0  0  0  0
   47.7440   30.4910   45.1890 C   0  0  0  0  0  0  0  0  0  0  0  0
   47.7210   29.1610   44.8380 C   0  0  0  0  0  0  0  0  0  0  0  0
   46.8200   28.2860   45.4180 C   0  0  0  0  0  0  0  0  0  0  0  0
   45.9450   28.7900   46.3660 C   0  0  0  0  0  0  0  0  0  0  0  0
   45.0340   27.7860   46.9140 C   0  0  0  0  0  0  0  0  0  0  0  0
   43.8890   27.2370   46.3600 C   0  0  0  0  0  0  0  0  0  0  0  0
   43.2990   26.3100   47.1960 C   0  0  0  0  0  0  0  0  0  0  0  0
   44.1620   26.3370   48.2810 C   0  0  0  0  0  0  0  0  0  0  0  0
   45.1140   27.1800   48.0660 O   0  0  0  0  0  0  0  0  0  0  0  0
   46.8550   32.3870   46.5310 C   0  0  0  0  0  0  0  0  0  0  0  0
   47.3520   32.6790   47.6410 O   0  0  0  0  0  0  0  0  0  0  0  0
   44.7040   35.0740   45.3930 C   0  0  0  0  0  0  0  0  0  0  0  0
   45.0810   35.3340   44.0640 C   0  0  0  0  0  0  0  0  0  0  0  0
   46.1060   34.5400   43.5910 C   0  0  0  0  0  0  0  0  0  0  0  0
   46.6670   33.5900   44.4100 N   0  0  0  0  0  0  0  0  0  0  0  0
   46.2680   33.3900   45.6550 C   0  0  0  0  0  0  0  0  0  0  0  0
   45.2770   34.1430   46.1440 N   0  0  0  0  0  0  0  0  0  0  0  0
   46.6380   34.6800   42.1930 C   0  0  0  0  0  0  0  0  0  0  0  0
   47.5200   35.7390   42.1560 F   0  0  0  0  0  0  0  0  0  0  0  0
   47.2710   33.4970   41.8660 F   0  0  0  0  0  0  0  0  0  0  0  0
   45.5810   34.8550   41.2980 F   0  0  0  0  0  0  0  0  0  0  0  0
   48.4686   31.1661   44.7103 H   0  0  0  0  0  0  0  0  0  0  0  0
   48.4300   28.7875   44.0845 H   0  0  0  0  0  0  0  0  0  0  0  0
   46.7992   27.2232   45.1351 H   0  0  0  0  0  0  0  0  0  0  0  0
   43.4956   27.5081   45.3692 H   0  0  0  0  0  0  0  0  0  0  0  0
   42.3891   25.7112   47.0426 H   0  0  0  0  0  0  0  0  0  0  0  0
   44.0510   25.7290   49.1910 H   0  0  0  0  0  0  0  0  0  0  0  0
   43.8927   35.6730   45.8324 H   0  0  0  0  0  0  0  0  0  0  0  0
   44.5977   36.1083   43.4501 H   0  0  0  0  0  0  0  0  0  0  0  0
  2  1  1  0
  3 13  1  0
  3  2  2  0
  4  3  1  0
  5  4  2  0
  5  6  1  0
  6  7  2  0
  7  2  1  0
  7  8  1  0
  8 12  1  0
  9  8  2  0
  9 10  1  0
 10 11  2  0
 12 11  1  0
 13 14  2  0
 15 20  2  0
 16 15  1  0
 17 16  2  0
 17 18  1  0
 18 19  2  0
 19 20  1  0
 19 13  1  0
 21 17  1  0
 22 21  1  0
 23 21  1  0
 24 21  1  0
  4 25  1  0
  5 26  1  0
  6 27  1  0
  9 28  1  0
 10 29  1  0
 11 30  1  0
 15 31  1  0
 16 32  1  0
M  ISO  8  25  14  26  14  27  14  28  14  29  14  30  14  31  14  32  14
M  END
>  <minimizedAffinity>  (1) 
-5.55523014

>  <minimizedRMSD>  (1) 
0.479825228

$$$$
