
     RDKit          3D

 33 35  0  0  0  0  0  0  0  0999 V2000
   44.8580   30.6780   47.9090 Cl  0  0  0  0  0  0  0  0  0  0  0  0
   45.9910   30.0920   46.6850 C   0  0  0  0  0  0  0  0  0  0  0  0
   46.8850   30.9620   46.1110 C   0  0  0  0  0  0  0  0  0  0  0  0
   47.7430   30.4650   45.1780 C   0  0  0  0  0  0  0  0  0  0  0  0
   47.7120   29.1350   44.8260 C   0  0  0  0  0  0  0  0  0  0  0  0
   46.8100   28.2580   45.4060 C   0  0  0  0  0  0  0  0  0  0  0  0
   45.9370   28.7710   46.3570 C   0  0  0  0  0  0  0  0  0  0  0  0
   45.0220   27.7710   46.9080 C   0  0  0  0  0  0  0  0  0  0  0  0
   43.8730   27.2250   46.3600 C   0  0  0  0  0  0  0  0  0  0  0  0
   43.2920   26.3050   47.2070 C   0  0  0  0  0  0  0  0  0  0  0  0
   44.1510   26.3310   48.2830 C   0  0  0  0  0  0  0  0  0  0  0  0
   45.1050   27.1700   48.0640 O   0  0  0  0  0  0  0  0  0  0  0  0
   46.8670   32.3640   46.5210 C   0  0  0  0  0  0  0  0  0  0  0  0
   47.3630   32.6530   47.6330 O   0  0  0  0  0  0  0  0  0  0  0  0
   44.7340   35.0670   45.3690 C   0  0  0  0  0  0  0  0  0  0  0  0
   45.1150   35.3240   44.0500 C   0  0  0  0  0  0  0  0  0  0  0  0
   46.1410   34.5270   43.5720 C   0  0  0  0  0  0  0  0  0  0  0  0
   46.6920   33.5700   44.4040 N   0  0  0  0  0  0  0  0  0  0  0  0
   46.2890   33.3700   45.6480 C   0  0  0  0  0  0  0  0  0  0  0  0
   45.2980   34.1320   46.1270 N   0  0  0  0  0  0  0  0  0  0  0  0
   48.0440   34.8280   42.1590 C   0  0  0  0  0  0  0  0  0  0  0  0
   49.0870   34.8780   42.8520 O   0  0  0  0  0  0  0  0  0  0  0  0
   46.6310   34.6800   42.2470 N   0  0  0  0  0  0  0  0  0  0  0  0
   48.4712   31.1360   44.6989 H   0  0  0  0  0  0  0  0  0  0  0  0
   48.4173   28.7609   44.0693 H   0  0  0  0  0  0  0  0  0  0  0  0
   46.7860   27.1950   45.1240 H   0  0  0  0  0  0  0  0  0  0  0  0
   43.4732   27.4924   45.3707 H   0  0  0  0  0  0  0  0  0  0  0  0
   42.3805   25.7067   47.0613 H   0  0  0  0  0  0  0  0  0  0  0  0
   44.0396   25.7255   49.1945 H   0  0  0  0  0  0  0  0  0  0  0  0
   43.9238   35.6707   45.8038 H   0  0  0  0  0  0  0  0  0  0  0  0
   44.6357   36.1015   43.4370 H   0  0  0  0  0  0  0  0  0  0  0  0
   48.3203   34.9384   41.1000 H   0  0  0  0  0  0  0  0  0  0  0  0
   46.0161   34.6835   41.4207 H   0  0  0  0  0  0  0  0  0  0  0  0
  2  1  1  0
  3 13  1  0
  3  2  2  0
  4  3  1  0
  5  4  2  0
  5  6  1  0
  6  7  2  0
  7  2  1  0
  7  8  1  0
  8 12  1  0
  9  8  2  0
  9 10  1  0
 10 11  2  0
 12 11  1  0
 13 14  2  0
 15 20  2  0
 16 15  1  0
 17 16  2  0
 17 18  1  0
 18 19  2  0
 19 20  1  0
 19 13  1  0
 21 23  1  0
 21 22  2  0
 23 17  1  0
  4 24  1  0
  5 25  1  0
  6 26  1  0
  9 27  1  0
 10 28  1  0
 11 29  1  0
 15 30  1  0
 16 31  1  0
 21 32  1  0
 23 33  1  0
M  ISO  8  24  14  25  14  26  14  27  14  28  14  29  14  30  14  31  14
M  ISO  1  32   6
M  END
>  <minimizedAffinity>  (1) 
-5.2256217

>  <minimizedRMSD>  (1) 
0.490986258

$$$$
