
     RDKit          3D

 32 34  0  0  0  0  0  0  0  0999 V2000
   44.8280   30.6020   47.9940 Cl  0  0  0  0  0  0  0  0  0  0  0  0
   46.0410   29.9650   46.8800 C   0  0  0  0  0  0  0  0  0  0  0  0
   46.9900   30.8070   46.3530 C   0  0  0  0  0  0  0  0  0  0  0  0
   47.9130   30.2710   45.5030 C   0  0  0  0  0  0  0  0  0  0  0  0
   47.8890   28.9320   45.1890 C   0  0  0  0  0  0  0  0  0  0  0  0
   46.9350   28.0900   45.7190 C   0  0  0  0  0  0  0  0  0  0  0  0
   45.9980   28.6360   46.5820 C   0  0  0  0  0  0  0  0  0  0  0  0
   45.0280   27.6620   47.0860 C   0  0  0  0  0  0  0  0  0  0  0  0
   43.9040   27.1310   46.4780 C   0  0  0  0  0  0  0  0  0  0  0  0
   43.2470   26.2360   47.2910 C   0  0  0  0  0  0  0  0  0  0  0  0
   44.0390   26.2580   48.4250 C   0  0  0  0  0  0  0  0  0  0  0  0
   45.0280   27.0790   48.2560 O   0  0  0  0  0  0  0  0  0  0  0  0
   46.9630   32.2200   46.7160 C   0  0  0  0  0  0  0  0  0  0  0  0
   47.4280   32.5440   47.8300 O   0  0  0  0  0  0  0  0  0  0  0  0
   44.8240   34.8420   45.4080 C   0  0  0  0  0  0  0  0  0  0  0  0
   45.2740   35.0930   44.1040 C   0  0  0  0  0  0  0  0  0  0  0  0
   46.3430   34.3190   43.7020 C   0  0  0  0  0  0  0  0  0  0  0  0
   46.8700   33.3950   44.5680 N   0  0  0  0  0  0  0  0  0  0  0  0
   46.4050   33.1990   45.7910 C   0  0  0  0  0  0  0  0  0  0  0  0
   45.3700   33.9340   46.2100 N   0  0  0  0  0  0  0  0  0  0  0  0
   46.9240   34.4820   42.3340 C   0  0  0  0  0  0  0  0  0  0  0  0
   48.6863   30.9180   45.0632 H   0  0  0  0  0  0  0  0  0  0  0  0
   48.6456   28.5254   44.5018 H   0  0  0  0  0  0  0  0  0  0  0  0
   46.9179   27.0198   45.4653 H   0  0  0  0  0  0  0  0  0  0  0  0
   43.5739   27.3940   45.4622 H   0  0  0  0  0  0  0  0  0  0  0  0
   42.3336   25.6563   47.0918 H   0  0  0  0  0  0  0  0  0  0  0  0
   43.8568   25.6669   49.3346 H   0  0  0  0  0  0  0  0  0  0  0  0
   43.9738   35.4279   45.7873 H   0  0  0  0  0  0  0  0  0  0  0  0
   44.8107   35.8483   43.4522 H   0  0  0  0  0  0  0  0  0  0  0  0
   47.9801   34.7783   42.4171 H   0  0  0  0  0  0  0  0  0  0  0  0
   46.8523   33.5291   41.7892 H   0  0  0  0  0  0  0  0  0  0  0  0
   46.3671   35.2586   41.7892 H   0  0  0  0  0  0  0  0  0  0  0  0
  2  1  1  0
  3 13  1  0
  3  2  2  0
  4  3  1  0
  5  4  2  0
  5  6  1  0
  6  7  2  0
  7  2  1  0
  7  8  1  0
  8 12  1  0
  9  8  2  0
  9 10  1  0
 10 11  2  0
 12 11  1  0
 13 14  2  0
 15 20  2  0
 16 15  1  0
 17 16  2  0
 17 18  1  0
 18 19  2  0
 19 20  1  0
 19 13  1  0
 21 17  1  0
  4 22  1  0
  5 23  1  0
  6 24  1  0
  9 25  1  0
 10 26  1  0
 11 27  1  0
 15 28  1  0
 16 29  1  0
 21 30  1  0
 21 31  1  0
 21 32  1  0
M  ISO  8  22  14  23  14  24  14  25  14  26  14  27  14  28  14  29  14
M  ISO  3  30   8  31   8  32   8
M  END
>  <minimizedAffinity>  (1) 
-4.98523998

>  <minimizedRMSD>  (1) 
0.121102579

$$$$
