
     RDKit          3D

 30 32  0  0  0  0  0  0  0  0999 V2000
   44.8300   30.5880   47.9910 Cl  0  0  0  0  0  0  0  0  0  0  0  0
   46.0600   29.9510   46.8950 C   0  0  0  0  0  0  0  0  0  0  0  0
   47.0140   30.7880   46.3720 C   0  0  0  0  0  0  0  0  0  0  0  0
   47.9450   30.2470   45.5400 C   0  0  0  0  0  0  0  0  0  0  0  0
   47.9300   28.9070   45.2340 C   0  0  0  0  0  0  0  0  0  0  0  0
   46.9670   28.0600   45.7590 C   0  0  0  0  0  0  0  0  0  0  0  0
   46.0150   28.6150   46.6110 C   0  0  0  0  0  0  0  0  0  0  0  0
   45.0450   27.6470   47.1090 C   0  0  0  0  0  0  0  0  0  0  0  0
   43.9310   27.1080   46.4850 C   0  0  0  0  0  0  0  0  0  0  0  0
   43.2630   26.2170   47.2930 C   0  0  0  0  0  0  0  0  0  0  0  0
   44.0350   26.2460   48.4450 C   0  0  0  0  0  0  0  0  0  0  0  0
   45.0240   27.0700   48.2760 O   0  0  0  0  0  0  0  0  0  0  0  0
   46.9760   32.2040   46.7260 C   0  0  0  0  0  0  0  0  0  0  0  0
   47.4270   32.5360   47.8440 O   0  0  0  0  0  0  0  0  0  0  0  0
   44.8470   34.8200   45.3760 C   0  0  0  0  0  0  0  0  0  0  0  0
   45.3000   35.0480   44.0720 C   0  0  0  0  0  0  0  0  0  0  0  0
   46.3690   34.2640   43.6810 C   0  0  0  0  0  0  0  0  0  0  0  0
   46.8950   33.3460   44.5620 N   0  0  0  0  0  0  0  0  0  0  0  0
   46.4260   33.1720   45.7850 C   0  0  0  0  0  0  0  0  0  0  0  0
   45.3890   33.9230   46.1880 N   0  0  0  0  0  0  0  0  0  0  0  0
   46.9530   34.3520   42.4190 O   0  0  0  0  0  0  0  0  0  0  0  0
   48.7223   30.8926   45.1052 H   0  0  0  0  0  0  0  0  0  0  0  0
   48.6972   28.4991   44.5594 H   0  0  0  0  0  0  0  0  0  0  0  0
   46.9548   26.9882   45.5118 H   0  0  0  0  0  0  0  0  0  0  0  0
   43.6172   27.3631   45.4620 H   0  0  0  0  0  0  0  0  0  0  0  0
   42.3545   25.6342   47.0809 H   0  0  0  0  0  0  0  0  0  0  0  0
   43.8402   25.6632   49.3573 H   0  0  0  0  0  0  0  0  0  0  0  0
   43.9988   35.4147   45.7460 H   0  0  0  0  0  0  0  0  0  0  0  0
   44.8401   35.7948   43.4081 H   0  0  0  0  0  0  0  0  0  0  0  0
   47.7178   33.7683   42.1857 H   0  0  0  0  0  0  0  0  0  0  0  0
  2  1  1  0
  3 13  1  0
  3  2  2  0
  4  3  1  0
  5  4  2  0
  5  6  1  0
  6  7  2  0
  7  2  1  0
  7  8  1  0
  8 12  1  0
  9  8  2  0
  9 10  1  0
 10 11  2  0
 12 11  1  0
 13 14  2  0
 15 20  2  0
 16 15  1  0
 17 16  2  0
 17 18  1  0
 18 19  2  0
 19 20  1  0
 19 13  1  0
 21 17  1  0
  4 22  1  0
  5 23  1  0
  6 24  1  0
  9 25  1  0
 10 26  1  0
 11 27  1  0
 15 28  1  0
 16 29  1  0
 21 30  1  0
M  ISO  8  22  14  23  14  24  14  25  14  26  14  27  14  28  14  29  14
M  ISO  1  30   3
M  END
>  <minimizedAffinity>  (1) 
-4.87815475

>  <minimizedRMSD>  (1) 
0.078455545

$$$$
