
     RDKit          3D

 24 24  0  0  0  0  0  0  0  0999 V2000
   46.1310   33.0810   46.0380 C   0  0  0  0  0  0  0  0  0  0  0  0
   46.8910   32.0750   45.6600 C   0  0  0  0  0  0  0  0  0  0  0  0
   44.4780   35.9670   44.4890 C   0  0  0  0  0  0  0  0  0  0  0  0
   45.1200   36.0220   43.2140 C   0  0  0  0  0  0  0  0  0  0  0  0
   46.0880   35.0660   42.9490 C   0  0  0  0  0  0  0  0  0  0  0  0
   46.3800   34.1360   43.8890 N   0  0  0  0  0  0  0  0  0  0  0  0
   45.7500   34.1140   45.0880 C   0  0  0  0  0  0  0  0  0  0  0  0
   44.8220   35.0170   45.3670 N   0  0  0  0  0  0  0  0  0  0  0  0
   47.2550   31.0460   46.6540 C   0  0  0  0  0  0  0  0  0  0  0  0
   47.4760   30.6930   49.5420 N   0  0  0  0  0  0  0  0  0  0  0  0
   46.4030   31.1560   49.0030 C   0  0  0  0  0  0  0  0  0  0  0  0
   46.1680   30.9590   47.6130 N   0  0  0  0  0  0  0  0  0  0  0  0
   45.4400   31.8650   49.8110 N   0  0  0  0  0  0  0  0  0  0  0  0
   48.1760   30.1720   48.9730 H   0  0  0  0  0  0  0  0  0  0  0  0
   45.7818   33.1407   47.0794 H   0  0  0  0  0  0  0  0  0  0  0  0
   47.2484   32.0023   44.6222 H   0  0  0  0  0  0  0  0  0  0  0  0
   43.7031   36.7033   44.7485 H   0  0  0  0  0  0  0  0  0  0  0  0
   44.8570   36.7913   42.4731 H   0  0  0  0  0  0  0  0  0  0  0  0
   46.6146   35.0628   41.9832 H   0  0  0  0  0  0  0  0  0  0  0  0
   47.3942   30.0754   46.1555 H   0  0  0  0  0  0  0  0  0  0  0  0
   48.1956   31.3116   47.1587 H   0  0  0  0  0  0  0  0  0  0  0  0
   45.2145   30.7520   47.2831 H   0  0  0  0  0  0  0  0  0  0  0  0
   44.5807   32.2362   49.3811 H   0  0  0  0  0  0  0  0  0  0  0  0
   45.6120   31.9998   50.8175 H   0  0  0  0  0  0  0  0  0  0  0  0
  2  1  2  0
  2  9  1  0
  3  8  2  0
  4  3  1  0
  5  4  2  0
  5  6  1  0
  6  7  2  0
  7  8  1  0
  7  1  1  0
  9 12  1  0
 11 10  2  0
 11 13  1  0
 12 11  1  0
 14 10  1  0
  1 15  1  0
  2 16  1  0
  3 17  1  0
  4 18  1  0
  5 19  1  0
  9 20  1  0
  9 21  1  0
 12 22  1  0
 13 23  1  0
 13 24  1  0
M  ISO  5  17  14  18  14  19  14  20   8  21   8
M  END
>  <minimizedAffinity>  (1) 
-4.93288279

>  <minimizedRMSD>  (1) 
1.9825902

$$$$
