
     RDKit          3D

 24 24  0  0  0  0  0  0  0  0999 V2000
   44.5430   35.6530   44.7700 C   0  0  0  0  0  0  0  0  0  0  0  0
   45.2150   35.5610   43.5120 C   0  0  0  0  0  0  0  0  0  0  0  0
   46.1740   34.5690   43.3910 C   0  0  0  0  0  0  0  0  0  0  0  0
   46.4560   33.7200   44.4360 N   0  0  0  0  0  0  0  0  0  0  0  0
   45.7780   33.8600   45.6140 C   0  0  0  0  0  0  0  0  0  0  0  0
   44.8560   34.8020   45.7560 N   0  0  0  0  0  0  0  0  0  0  0  0
   46.0990   32.9460   46.7040 C   0  0  0  0  0  0  0  0  0  0  0  0
   45.3080   32.8640   47.7570 C   0  0  0  0  0  0  0  0  0  0  0  0
   45.6710   31.9120   48.8590 C   0  0  0  0  0  0  0  0  0  0  0  0
   44.9270   30.6200   48.6200 C   0  0  0  0  0  0  0  0  0  0  0  0
   45.4090   29.5590   47.9960 C   0  0  0  0  0  0  0  0  0  0  0  0
   44.9970   28.2030   47.6000 C   0  0  0  0  0  0  0  0  0  0  0  0
   43.7710   36.4204   44.9281 H   0  0  0  0  0  0  0  0  0  0  0  0
   44.9823   36.2438   42.6815 H   0  0  0  0  0  0  0  0  0  0  0  0
   46.7198   34.4581   42.4424 H   0  0  0  0  0  0  0  0  0  0  0  0
   47.0037   32.3227   46.6482 H   0  0  0  0  0  0  0  0  0  0  0  0
   44.4002   33.4814   47.8258 H   0  0  0  0  0  0  0  0  0  0  0  0
   46.7551   31.7261   48.8503 H   0  0  0  0  0  0  0  0  0  0  0  0
   45.3985   32.3359   49.8368 H   0  0  0  0  0  0  0  0  0  0  0  0
   43.8957   30.5562   48.9974 H   0  0  0  0  0  0  0  0  0  0  0  0
   46.4424   29.7496   47.6707 H   0  0  0  0  0  0  0  0  0  0  0  0
   44.8132   27.5981   48.5002 H   0  0  0  0  0  0  0  0  0  0  0  0
   44.0756   28.2597   47.0019 H   0  0  0  0  0  0  0  0  0  0  0  0
   45.7943   27.7375   47.0019 H   0  0  0  0  0  0  0  0  0  0  0  0
  1  6  2  0
  2  1  1  0
  3  2  2  0
  3  4  1  0
  4  5  2  0
  5  6  1  0
  5  7  1  0
  7  8  2  0
  8  9  1  0
 10  9  1  0
 11 10  2  0
 12 11  1  0
  1 13  1  0
  2 14  1  0
  3 15  1  0
  7 16  1  0
  8 17  1  0
  9 18  1  0
  9 19  1  0
 10 20  1  0
 11 21  1  0
 12 22  1  0
 12 23  1  0
 12 24  1  0
M  ISO  8  13  14  14  14  15  14  18   8  19   8  22   8  23   8  24   8
M  END
>  <minimizedAffinity>  (1) 
-4.24666786

>  <minimizedRMSD>  (1) 
0.614465356

$$$$
