
     RDKit          3D

 19 19  0  0  0  0  0  0  0  0999 V2000
   44.5310   35.7010   44.8490 C   0  0  0  0  0  0  0  0  0  0  0  0
   45.1530   35.7070   43.5840 C   0  0  0  0  0  0  0  0  0  0  0  0
   46.1200   34.7370   43.3220 C   0  0  0  0  0  0  0  0  0  0  0  0
   46.4200   33.8330   44.2880 N   0  0  0  0  0  0  0  0  0  0  0  0
   45.7890   33.8670   45.5000 C   0  0  0  0  0  0  0  0  0  0  0  0
   44.8680   34.7800   45.7670 N   0  0  0  0  0  0  0  0  0  0  0  0
   46.1860   32.8480   46.4710 C   0  0  0  0  0  0  0  0  0  0  0  0
   45.4690   32.6740   47.5480 C   0  0  0  0  0  0  0  0  0  0  0  0
   45.8970   31.6180   48.5330 C   0  0  0  0  0  0  0  0  0  0  0  0
   45.3560   31.8480   49.8520 N   0  0  0  0  0  0  0  0  0  0  0  0
   43.7655   36.4546   45.0857 H   0  0  0  0  0  0  0  0  0  0  0  0
   44.8831   36.4559   42.8248 H   0  0  0  0  0  0  0  0  0  0  0  0
   46.6310   34.7054   42.3484 H   0  0  0  0  0  0  0  0  0  0  0  0
   47.0812   32.2334   46.2953 H   0  0  0  0  0  0  0  0  0  0  0  0
   44.5727   33.2847   47.7319 H   0  0  0  0  0  0  0  0  0  0  0  0
   45.5498   30.6379   48.1741 H   0  0  0  0  0  0  0  0  0  0  0  0
   46.9939   31.6525   48.6082 H   0  0  0  0  0  0  0  0  0  0  0  0
   46.0437   31.5556   50.5609 H   0  0  0  0  0  0  0  0  0  0  0  0
   45.1483   32.8502   49.9679 H   0  0  0  0  0  0  0  0  0  0  0  0
  1  6  2  0
  2  1  1  0
  3  2  2  0
  3  4  1  0
  4  5  2  0
  5  6  1  0
  5  7  1  0
  7  8  2  0
  8  9  1  0
  9 10  1  0
  1 11  1  0
  2 12  1  0
  3 13  1  0
  7 14  1  0
  8 15  1  0
  9 16  1  0
  9 17  1  0
 10 18  1  0
 10 19  1  0
M  ISO  7  11  14  12  14  13  14  16   8  17   8  18   5  19   5
M  END
>  <minimizedAffinity>  (1) 
-4.07406998

>  <minimizedRMSD>  (1) 
0.32518065

$$$$
