
     RDKit          3D

 31 32  0  0  0  0  0  0  0  0999 V2000
   46.5050   33.0840   46.5840 C   0  0  0  0  0  0  0  0  0  0  0  0
   45.7990   32.1170   47.3590 N   0  0  0  0  0  0  0  0  0  0  0  0
   45.6870   30.8100   46.8250 C   0  0  0  0  0  0  0  0  0  0  0  0
   46.0770   29.7410   47.8120 C   0  0  0  0  0  0  0  0  0  0  0  0
   45.3360   29.8580   49.0520 N   0  0  0  0  0  0  0  0  0  0  0  0
   45.1080   31.2320   49.4520 C   0  0  0  0  0  0  0  0  0  0  0  0
   46.0740   32.1770   48.7680 C   0  0  0  0  0  0  0  0  0  0  0  0
   47.0450   33.4340   44.2670 C   0  0  0  0  0  0  0  0  0  0  0  0
   46.1080   33.1440   45.1510 C   0  0  0  0  0  0  0  0  0  0  0  0
   46.9360   32.8800   40.6230 C   0  0  0  0  0  0  0  0  0  0  0  0
   45.8720   33.7170   40.2230 C   0  0  0  0  0  0  0  0  0  0  0  0
   45.2420   34.4360   41.2350 C   0  0  0  0  0  0  0  0  0  0  0  0
   45.6500   34.3170   42.5190 N   0  0  0  0  0  0  0  0  0  0  0  0
   46.6820   33.4950   42.8590 C   0  0  0  0  0  0  0  0  0  0  0  0
   47.2960   32.8030   41.9120 N   0  0  0  0  0  0  0  0  0  0  0  0
   46.3297   34.0743   47.0297 H   0  0  0  0  0  0  0  0  0  0  0  0
   47.5628   32.7825   46.6005 H   0  0  0  0  0  0  0  0  0  0  0  0
   44.6433   30.6431   46.5202 H   0  0  0  0  0  0  0  0  0  0  0  0
   46.3774   30.7406   45.9714 H   0  0  0  0  0  0  0  0  0  0  0  0
   45.8747   28.7552   47.3678 H   0  0  0  0  0  0  0  0  0  0  0  0
   47.1466   29.8596   48.0400 H   0  0  0  0  0  0  0  0  0  0  0  0
   44.4233   29.3957   48.9330 H   0  0  0  0  0  0  0  0  0  0  0  0
   44.0797   31.5163   49.1840 H   0  0  0  0  0  0  0  0  0  0  0  0
   45.2642   31.3056   50.5384 H   0  0  0  0  0  0  0  0  0  0  0  0
   47.1102   31.8639   48.9637 H   0  0  0  0  0  0  0  0  0  0  0  0
   45.9523   33.2025   49.1469 H   0  0  0  0  0  0  0  0  0  0  0  0
   48.0794   33.6257   44.5884 H   0  0  0  0  0  0  0  0  0  0  0  0
   45.0705   32.9535   44.8392 H   0  0  0  0  0  0  0  0  0  0  0  0
   47.4746   32.2856   39.8702 H   0  0  0  0  0  0  0  0  0  0  0  0
   45.5586   33.7966   39.1716 H   0  0  0  0  0  0  0  0  0  0  0  0
   44.4055   35.1064   40.9883 H   0  0  0  0  0  0  0  0  0  0  0  0
  1  2  1  0
  2  7  1  0
  3  2  1  0
  3  4  1  0
  4  5  1  0
  5  6  1  0
  7  6  1  0
  8  9  2  0
  9  1  1  0
 10 15  2  0
 11 10  1  0
 11 12  2  0
 12 13  1  0
 13 14  2  0
 14  8  1  0
 15 14  1  0
  1 16  1  0
  1 17  1  0
  3 18  1  0
  3 19  1  0
  4 20  1  0
  4 21  1  0
  5 22  1  0
  6 23  1  0
  6 24  1  0
  7 25  1  0
  7 26  1  0
  8 27  1  0
  9 28  1  0
 10 29  1  0
 11 30  1  0
 12 31  1  0
M  ISO  8  16   8  17   8  18  13  19  13  20  13  21  13  22   5  23  13
M  ISO  6  24  13  25  13  26  13  29  14  30  14  31  14
M  END
>  <minimizedAffinity>  (1) 
-3.97403193

>  <minimizedRMSD>  (1) 
3.82755733

$$$$
