
     RDKit          3D

 28 29  0  0  1  0  0  0  0  0999 V2000
   47.4060   32.0070   44.0760 C   0  0  0  0  0  0  0  0  0  0  0  0
   46.4960   32.0230   45.0150 C   0  0  0  0  0  0  0  0  0  0  0  0
   47.0780   35.1630   42.2470 C   0  0  0  0  0  0  0  0  0  0  0  0
   48.4260   35.4110   41.8390 C   0  0  0  0  0  0  0  0  0  0  0  0
   49.3930   34.4680   42.2190 C   0  0  0  0  0  0  0  0  0  0  0  0
   49.0100   33.3790   42.9450 N   0  0  0  0  0  0  0  0  0  0  0  0
   47.7030   33.1970   43.3060 C   0  0  0  0  0  0  0  0  0  0  0  0
   46.7570   34.0630   42.9670 N   0  0  0  0  0  0  0  0  0  0  0  0
   46.1820   30.8010   45.8160 C   0  0  0  0  0  0  0  0  0  0  0  0
   46.2830   31.0330   47.2900 C   0  0  2  0  0  0  0  0  0  0  0  0
   45.0230   30.6180   48.0460 C   0  0  0  0  0  0  0  0  0  0  0  0
   45.3790   31.3150   49.3670 C   0  0  0  0  0  0  0  0  0  0  0  0
   45.8270   32.5640   48.9770 O   0  0  0  0  0  0  0  0  0  0  0  0
   46.3800   32.4560   47.7170 C   0  0  0  0  0  0  0  0  0  0  0  0
   47.9538   31.0761   43.8680 H   0  0  0  0  0  0  0  0  0  0  0  0
   45.9500   32.9558   45.2196 H   0  0  0  0  0  0  0  0  0  0  0  0
   46.2890   35.8781   41.9711 H   0  0  0  0  0  0  0  0  0  0  0  0
   48.6932   36.3025   41.2526 H   0  0  0  0  0  0  0  0  0  0  0  0
   50.4468   34.6054   41.9349 H   0  0  0  0  0  0  0  0  0  0  0  0
   45.1567   30.4799   45.5801 H   0  0  0  0  0  0  0  0  0  0  0  0
   46.9217   30.0314   45.5502 H   0  0  0  0  0  0  0  0  0  0  0  0
   47.1906   30.4530   47.5133 H   0  0  0  0  0  0  0  0  0  0  0  0
   44.1050   31.0177   47.5904 H   0  0  0  0  0  0  0  0  0  0  0  0
   44.8030   29.5413   48.0944 H   0  0  0  0  0  0  0  0  0  0  0  0
   44.4937   31.4018   50.0141 H   0  0  0  0  0  0  0  0  0  0  0  0
   46.1286   30.7596   49.9497 H   0  0  0  0  0  0  0  0  0  0  0  0
   47.4351   32.7658   47.7450 H   0  0  0  0  0  0  0  0  0  0  0  0
   45.8434   33.1040   47.0084 H   0  0  0  0  0  0  0  0  0  0  0  0
  1  2  2  0
  2  9  1  0
  3  8  2  0
  4  5  2  0
  4  3  1  0
  5  6  1  0
  6  7  2  0
  7  1  1  0
  8  7  1  0
 10  9  1  0
 10 14  1  0
 10 11  1  0
 11 12  1  0
 13 12  1  0
 14 13  1  0
  1 15  1  0
  2 16  1  0
  3 17  1  0
  4 18  1  0
  5 19  1  0
  9 20  1  0
  9 21  1  0
 10 22  1  1
 11 23  1  0
 11 24  1  0
 12 25  1  0
 12 26  1  0
 14 27  1  0
 14 28  1  0
M  ISO  8  17  14  18  14  19  14  20   8  21   8  22  13  23  13  24  13
M  ISO  4  25  13  26  13  27  13  28  13
M  END
>  <minimizedAffinity>  (1) 
-3.93317461

>  <minimizedRMSD>  (1) 
3.29785347

$$$$
