
     RDKit          3D

 18 18  0  0  0  0  0  0  0  0999 V2000
   44.5590   35.6900   44.8000 C   0  0  0  0  0  0  0  0  0  0  0  0
   45.2370   35.5980   43.5630 C   0  0  0  0  0  0  0  0  0  0  0  0
   46.1680   34.5700   43.4190 C   0  0  0  0  0  0  0  0  0  0  0  0
   46.3600   33.7310   44.4680 N   0  0  0  0  0  0  0  0  0  0  0  0
   45.7000   33.8380   45.6400 C   0  0  0  0  0  0  0  0  0  0  0  0
   44.8100   34.8100   45.8010 N   0  0  0  0  0  0  0  0  0  0  0  0
   46.0020   32.8720   46.6830 C   0  0  0  0  0  0  0  0  0  0  0  0
   45.2590   32.8110   47.7530 C   0  0  0  0  0  0  0  0  0  0  0  0
   45.5970   31.8040   48.8080 C   0  0  0  0  0  0  0  0  0  0  0  0
   47.3570   31.3910   48.6930 S   0  0  0  0  0  0  0  0  0  0  0  0
   43.8167   36.4873   44.9530 H   0  0  0  0  0  0  0  0  0  0  0  0
   45.0382   36.3085   42.7472 H   0  0  0  0  0  0  0  0  0  0  0  0
   46.7304   34.4429   42.4823 H   0  0  0  0  0  0  0  0  0  0  0  0
   46.8586   32.1913   46.5697 H   0  0  0  0  0  0  0  0  0  0  0  0
   44.4001   33.4867   47.8780 H   0  0  0  0  0  0  0  0  0  0  0  0
   45.3818   32.2250   49.8012 H   0  0  0  0  0  0  0  0  0  0  0  0
   44.9934   30.8963   48.6602 H   0  0  0  0  0  0  0  0  0  0  0  0
   47.8805   31.2682   49.9531 H   0  0  0  0  0  0  0  0  0  0  0  0
  1  6  2  0
  2  1  1  0
  3  2  2  0
  3  4  1  0
  4  5  2  0
  5  6  1  0
  5  7  1  0
  7  8  2  0
  8  9  1  0
 10  9  1  0
  1 11  1  0
  2 12  1  0
  3 13  1  0
  7 14  1  0
  8 15  1  0
  9 16  1  0
  9 17  1  0
 10 18  1  0
M  ISO  6  11  14  12  14  13  14  16   8  17   8  18  11
M  END
>  <minimizedAffinity>  (1) 
-3.69814181

>  <minimizedRMSD>  (1) 
0.179408759

$$$$
