
     RDKit          3D

 30 32  0  0  1  0  0  0  0  0999 V2000
   46.3100   32.1450   44.5580 C   0  0  1  0  0  0  0  0  0  0  0  0
   46.4570   31.3530   43.3960 C   0  0  0  0  0  0  0  0  0  0  0  0
   47.6740   32.1090   43.9540 C   0  0  1  0  0  0  0  0  0  0  0  0
   45.0690   33.9660   43.1980 C   0  0  0  0  0  0  0  0  0  0  0  0
   45.5500   33.4670   44.4420 C   0  0  0  0  0  0  0  0  0  0  0  0
   45.3350   34.2260   45.5710 C   0  0  0  0  0  0  0  0  0  0  0  0
   44.6800   35.4050   45.4520 N   0  0  0  0  0  0  0  0  0  0  0  0
   44.2250   35.8770   44.2660 C   0  0  0  0  0  0  0  0  0  0  0  0
   44.4290   35.1280   43.1070 N   0  0  0  0  0  0  0  0  0  0  0  0
   48.0570   33.2580   43.1960 N   0  0  0  0  0  0  0  0  0  0  0  0
   49.1820   33.2960   42.3910 C   0  0  0  0  0  0  0  0  0  0  0  0
   50.3590   32.9030   42.6080 O   0  0  0  0  0  0  0  0  0  0  0  0
   49.0870   33.8840   40.9900 C   0  0  2  0  0  0  0  0  0  0  0  0
   48.6330   35.3760   40.8930 C   0  0  0  0  0  0  0  0  0  0  0  0
   47.8100   34.2080   40.3770 C   0  0  1  0  0  0  0  0  0  0  0  0
   47.7270   34.0540   38.8710 C   0  0  0  0  0  0  0  0  0  0  0  0
   48.4690   34.7100   38.1270 O   0  0  0  0  0  0  0  0  0  0  0  0
   45.9093   31.9296   45.5595 H   0  0  0  0  0  0  0  0  0  0  0  0
   45.9971   31.6760   42.4504 H   0  0  0  0  0  0  0  0  0  0  0  0
   46.2468   30.3035   43.1424 H   0  0  0  0  0  0  0  0  0  0  0  0
   48.6908   31.8709   44.2996 H   0  0  0  0  0  0  0  0  0  0  0  0
   45.2316   33.3730   42.2859 H   0  0  0  0  0  0  0  0  0  0  0  0
   45.6896   33.8801   46.5531 H   0  0  0  0  0  0  0  0  0  0  0  0
   43.6995   36.8421   44.2177 H   0  0  0  0  0  0  0  0  0  0  0  0
   47.4663   34.1000   43.2515 H   0  0  0  0  0  0  0  0  0  0  0  0
   49.9390   33.2747   40.6541 H   0  0  0  0  0  0  0  0  0  0  0  0
   48.3215   35.9263   41.7931 H   0  0  0  0  0  0  0  0  0  0  0  0
   49.0411   36.3103   40.4801 H   0  0  0  0  0  0  0  0  0  0  0  0
   46.7773   33.8721   40.5523 H   0  0  0  0  0  0  0  0  0  0  0  0
   47.0006   33.3527   38.4346 H   0  0  0  0  0  0  0  0  0  0  0  0
  2  3  1  0
  2  1  1  0
  3  1  1  0
  4  5  2  0
  5  1  1  0
  5  6  1  0
  7  6  2  0
  8  7  1  0
  9  4  1  0
  9  8  2  0
 10  3  1  0
 11 12  2  0
 11 10  1  0
 13 11  1  0
 14 13  1  0
 15 14  1  0
 15 13  1  0
 16 15  1  0
 17 16  2  0
  1 18  1  1
  2 19  1  0
  2 20  1  0
  3 21  1  1
  4 22  1  0
  6 23  1  0
  8 24  1  0
 10 25  1  0
 13 26  1  6
 14 27  1  0
 14 28  1  0
 15 29  1  1
 16 30  1  0
M  ISO  8  18  13  19  13  20  13  21  13  22  14  23  14  24  14  26  13
M  ISO  4  27  13  28  13  29  13  30   6
M  END
>  <minimizedAffinity>  (1) 
-4.30636835

>  <minimizedRMSD>  (1) 
0.825204313

$$$$
