
     RDKit          3D

 41 44  0  0  1  0  0  0  0  0999 V2000
   46.6980   30.6340   47.4690 C   0  0  2  0  0  0  0  0  0  0  0  0
   45.2310   31.0290   47.5940 C   0  0  0  0  0  0  0  0  0  0  0  0
   45.2880   31.4460   49.0690 C   0  0  0  0  0  0  0  0  0  0  0  0
   46.4450   32.1980   49.1570 O   0  0  0  0  0  0  0  0  0  0  0  0
   47.3400   31.7520   48.1930 C   0  0  1  0  0  0  0  0  0  0  0  0
   49.6020   32.1530   49.4090 C   0  0  0  0  0  0  0  0  0  0  0  0
   48.5970   31.3490   48.9150 C   0  0  0  0  0  0  0  0  0  0  0  0
   48.7010   29.9680   49.0780 C   0  0  0  0  0  0  0  0  0  0  0  0
   49.7670   29.3600   49.7110 C   0  0  0  0  0  0  0  0  0  0  0  0
   50.1150   28.0940   49.9980 N   0  0  0  0  0  0  0  0  0  0  0  0
   51.3030   28.1370   50.6500 C   0  0  0  0  0  0  0  0  0  0  0  0
   51.7220   29.4150   50.7840 N   0  0  0  0  0  0  0  0  0  0  0  0
   50.7650   30.1790   50.2000 C   0  0  0  0  0  0  0  0  0  0  0  0
   50.6660   31.5460   50.0420 C   0  0  0  0  0  0  0  0  0  0  0  0
   47.1310   30.4380   46.0610 C   0  0  0  0  0  0  0  0  0  0  0  0
   47.6490   31.7360   44.0400 C   0  0  0  0  0  0  0  0  0  0  0  0
   47.2550   31.7050   45.2970 C   0  0  0  0  0  0  0  0  0  0  0  0
   46.8650   34.9640   42.4800 C   0  0  0  0  0  0  0  0  0  0  0  0
   48.1350   35.3580   41.9610 C   0  0  0  0  0  0  0  0  0  0  0  0
   49.2040   34.4820   42.1790 C   0  0  0  0  0  0  0  0  0  0  0  0
   48.9870   33.3180   42.8620 N   0  0  0  0  0  0  0  0  0  0  0  0
   47.7560   32.9920   43.3340 C   0  0  0  0  0  0  0  0  0  0  0  0
   46.7160   33.7950   43.1490 N   0  0  0  0  0  0  0  0  0  0  0  0
   46.9614   29.6513   47.8871 H   0  0  0  0  0  0  0  0  0  0  0  0
   44.9594   31.8622   46.9292 H   0  0  0  0  0  0  0  0  0  0  0  0
   44.4862   30.2667   47.3216 H   0  0  0  0  0  0  0  0  0  0  0  0
   44.4082   32.0482   49.3398 H   0  0  0  0  0  0  0  0  0  0  0  0
   45.2882   30.5851   49.7537 H   0  0  0  0  0  0  0  0  0  0  0  0
   47.6046   32.5170   47.4482 H   0  0  0  0  0  0  0  0  0  0  0  0
   49.5564   33.2468   49.3013 H   0  0  0  0  0  0  0  0  0  0  0  0
   47.8948   29.3322   48.6832 H   0  0  0  0  0  0  0  0  0  0  0  0
   49.5778   27.2466   49.7653 H   0  0  0  0  0  0  0  0  0  0  0  0
   51.8490   27.2558   51.0181 H   0  0  0  0  0  0  0  0  0  0  0  0
   51.4723   32.1803   50.4389 H   0  0  0  0  0  0  0  0  0  0  0  0
   48.1100   29.9365   46.0645 H   0  0  0  0  0  0  0  0  0  0  0  0
   46.3553   29.8361   45.5651 H   0  0  0  0  0  0  0  0  0  0  0  0
   47.8986   30.7974   43.5236 H   0  0  0  0  0  0  0  0  0  0  0  0
   47.0089   32.6525   45.7987 H   0  0  0  0  0  0  0  0  0  0  0  0
   45.9937   35.6195   42.3346 H   0  0  0  0  0  0  0  0  0  0  0  0
   48.2669   36.3044   41.4161 H   0  0  0  0  0  0  0  0  0  0  0  0
   50.2088   34.7275   41.8046 H   0  0  0  0  0  0  0  0  0  0  0  0
  1  2  1  0
  1  5  1  0
  2  3  1  0
  3  4  1  0
  5  7  1  0
  5  4  1  0
  6 14  2  0
  7  8  2  0
  7  6  1  0
  8  9  1  0
  9 10  1  0
  9 13  2  0
 10 11  1  0
 11 12  2  0
 13 12  1  0
 14 13  1  0
 15  1  1  0
 16 17  2  0
 17 15  1  0
 18 23  2  0
 19 20  2  0
 19 18  1  0
 20 21  1  0
 21 22  2  0
 22 16  1  0
 23 22  1  0
  1 24  1  1
  2 25  1  0
  2 26  1  0
  3 27  1  0
  3 28  1  0
  5 29  1  6
  6 30  1  0
  8 31  1  0
 10 32  1  0
 11 33  1  0
 14 34  1  0
 15 35  1  0
 15 36  1  0
 16 37  1  0
 17 38  1  0
 18 39  1  0
 19 40  1  0
 20 41  1  0
M  ISO  8  24  13  25  13  26  13  27  13  28  13  29  13  30  14  31  14
M  ISO  8  32   9  33  14  34  14  35   8  36   8  39  14  40  14  41  14
M  END
>  <minimizedAffinity>  (1) 
-5.10739946

>  <minimizedRMSD>  (1) 
2.28549552

$$$$
