
     RDKit          3D

 35 37  0  0  1  0  0  0  0  0999 V2000
   47.3910   31.0280   46.2920 C   0  0  0  0  0  0  0  0  0  0  0  0
   46.7780   30.4880   47.5330 C   0  0  2  0  0  0  0  0  0  0  0  0
   45.2530   30.6160   47.5380 C   0  0  0  0  0  0  0  0  0  0  0  0
   45.0600   30.2850   49.0260 C   0  0  0  0  0  0  0  0  0  0  0  0
   46.0350   31.0210   49.6560 O   0  0  0  0  0  0  0  0  0  0  0  0
   47.1040   31.1970   48.7900 C   0  0  1  0  0  0  0  0  0  0  0  0
   48.3580   30.6730   49.4250 C   0  0  0  0  0  0  0  0  0  0  0  0
   49.4990   31.6920   49.4150 C   0  0  0  0  0  0  0  0  0  0  0  0
   49.5930   30.3980   48.6890 C   0  0  0  0  0  0  0  0  0  0  0  0
   46.3600   32.5980   44.7060 C   0  0  0  0  0  0  0  0  0  0  0  0
   46.8520   32.3540   45.9040 C   0  0  0  0  0  0  0  0  0  0  0  0
   44.6000   35.8190   44.8250 C   0  0  0  0  0  0  0  0  0  0  0  0
   44.9510   36.3910   43.5750 C   0  0  0  0  0  0  0  0  0  0  0  0
   45.7810   35.6360   42.7440 C   0  0  0  0  0  0  0  0  0  0  0  0
   46.2080   34.4120   43.1640 N   0  0  0  0  0  0  0  0  0  0  0  0
   45.8420   33.9110   44.3730 C   0  0  0  0  0  0  0  0  0  0  0  0
   45.0580   34.5990   45.1810 N   0  0  0  0  0  0  0  0  0  0  0  0
   48.4753   31.1240   46.4507 H   0  0  0  0  0  0  0  0  0  0  0  0
   47.1533   30.3273   45.4780 H   0  0  0  0  0  0  0  0  0  0  0  0
   47.1798   29.4642   47.5136 H   0  0  0  0  0  0  0  0  0  0  0  0
   44.9122   31.6301   47.2820 H   0  0  0  0  0  0  0  0  0  0  0  0
   44.6986   30.0005   46.8143 H   0  0  0  0  0  0  0  0  0  0  0  0
   44.0590   30.5871   49.3678 H   0  0  0  0  0  0  0  0  0  0  0  0
   45.1388   29.2080   49.2354 H   0  0  0  0  0  0  0  0  0  0  0  0
   47.2767   32.2607   48.5695 H   0  0  0  0  0  0  0  0  0  0  0  0
   47.7890   30.0482   50.1292 H   0  0  0  0  0  0  0  0  0  0  0  0
   49.3965   32.6351   48.8581 H   0  0  0  0  0  0  0  0  0  0  0  0
   50.0966   32.2151   50.1761 H   0  0  0  0  0  0  0  0  0  0  0  0
   49.5794   30.3902   47.5891 H   0  0  0  0  0  0  0  0  0  0  0  0
   50.3171   29.5700   48.6959 H   0  0  0  0  0  0  0  0  0  0  0  0
   46.3421   31.7980   43.9513 H   0  0  0  0  0  0  0  0  0  0  0  0
   46.8633   33.1662   46.6457 H   0  0  0  0  0  0  0  0  0  0  0  0
   43.9468   36.3759   45.5129 H   0  0  0  0  0  0  0  0  0  0  0  0
   44.5859   37.3841   43.2742 H   0  0  0  0  0  0  0  0  0  0  0  0
   46.0867   36.0248   41.7615 H   0  0  0  0  0  0  0  0  0  0  0  0
  1  2  1  0
  2  3  1  0
  2  6  1  0
  3  4  1  0
  4  5  1  0
  6  7  1  0
  6  5  1  0
  8  7  1  0
  9  8  1  0
  9  7  1  0
 10 11  2  0
 11  1  1  0
 12 17  2  0
 13 12  1  0
 14 15  1  0
 14 13  2  0
 15 16  2  0
 16 10  1  0
 16 17  1  0
  1 18  1  0
  1 19  1  0
  2 20  1  1
  3 21  1  0
  3 22  1  0
  4 23  1  0
  4 24  1  0
  6 25  1  6
  7 26  1  0
  8 27  1  0
  8 28  1  0
  9 29  1  0
  9 30  1  0
 10 31  1  0
 11 32  1  0
 12 33  1  0
 13 34  1  0
 14 35  1  0
M  ISO  8  18   8  19   8  20  13  21  13  22  13  23  13  24  13  25  13
M  ISO  8  26  13  27  13  28  13  29  13  30  13  33  14  34  14  35  14
M  END
>  <minimizedAffinity>  (1) 
-4.79695368

>  <minimizedRMSD>  (1) 
2.57095551

$$$$
