
     RDKit          3D

 35 37  0  0  1  0  0  0  0  0999 V2000
   46.6370   30.6720   47.5010 C   0  0  2  0  0  0  0  0  0  0  0  0
   45.1350   30.9060   47.6990 C   0  0  0  0  0  0  0  0  0  0  0  0
   45.2390   31.4100   49.1480 C   0  0  0  0  0  0  0  0  0  0  0  0
   46.2640   32.3240   49.0800 O   0  0  0  0  0  0  0  0  0  0  0  0
   47.1840   31.8780   48.1500 C   0  0  1  0  0  0  0  0  0  0  0  0
   48.4310   31.5890   48.9460 C   0  0  0  0  0  0  0  0  0  0  0  0
   48.7790   30.3760   49.5500 C   0  0  0  0  0  0  0  0  0  0  0  0
   50.0040   30.5920   50.1660 C   0  0  0  0  0  0  0  0  0  0  0  0
   50.3340   31.9180   49.9040 C   0  0  0  0  0  0  0  0  0  0  0  0
   49.3890   32.4540   49.1920 O   0  0  0  0  0  0  0  0  0  0  0  0
   46.9990   30.4580   46.0760 C   0  0  0  0  0  0  0  0  0  0  0  0
   47.6100   31.7430   44.0740 C   0  0  0  0  0  0  0  0  0  0  0  0
   47.1360   31.7190   45.3050 C   0  0  0  0  0  0  0  0  0  0  0  0
   46.8620   34.9680   42.4860 C   0  0  0  0  0  0  0  0  0  0  0  0
   48.1360   35.3430   41.9780 C   0  0  0  0  0  0  0  0  0  0  0  0
   49.1930   34.4650   42.2080 C   0  0  0  0  0  0  0  0  0  0  0  0
   48.9590   33.3180   42.8920 N   0  0  0  0  0  0  0  0  0  0  0  0
   47.7220   33.0020   43.3580 C   0  0  0  0  0  0  0  0  0  0  0  0
   46.7000   33.8070   43.1590 N   0  0  0  0  0  0  0  0  0  0  0  0
   47.0453   29.7482   47.9368 H   0  0  0  0  0  0  0  0  0  0  0  0
   44.7293   31.6647   47.0135 H   0  0  0  0  0  0  0  0  0  0  0  0
   44.4658   30.0533   47.5117 H   0  0  0  0  0  0  0  0  0  0  0  0
   44.3021   31.8886   49.4692 H   0  0  0  0  0  0  0  0  0  0  0  0
   45.4201   30.6061   49.8767 H   0  0  0  0  0  0  0  0  0  0  0  0
   47.4041   32.6002   47.3500 H   0  0  0  0  0  0  0  0  0  0  0  0
   48.1996   29.4410   49.5390 H   0  0  0  0  0  0  0  0  0  0  0  0
   50.5931   29.8640   50.7430 H   0  0  0  0  0  0  0  0  0  0  0  0
   51.2466   32.4292   50.2444 H   0  0  0  0  0  0  0  0  0  0  0  0
   47.9577   29.9200   46.0371 H   0  0  0  0  0  0  0  0  0  0  0  0
   46.1805   29.8846   45.6164 H   0  0  0  0  0  0  0  0  0  0  0  0
   47.9214   30.8065   43.5882 H   0  0  0  0  0  0  0  0  0  0  0  0
   46.8320   32.6655   45.7759 H   0  0  0  0  0  0  0  0  0  0  0  0
   45.9980   35.6306   42.3295 H   0  0  0  0  0  0  0  0  0  0  0  0
   48.2806   36.2845   41.4278 H   0  0  0  0  0  0  0  0  0  0  0  0
   50.2028   34.6990   41.8400 H   0  0  0  0  0  0  0  0  0  0  0  0
  1  2  1  0
  1  5  1  0
  2  3  1  0
  4  3  1  0
  5  6  1  0
  5  4  1  0
  6 10  1  0
  6  7  2  0
  7  8  1  0
  9  8  2  0
 10  9  1  0
 11  1  1  0
 12 13  2  0
 13 11  1  0
 14 19  2  0
 15 16  2  0
 15 14  1  0
 16 17  1  0
 17 18  2  0
 18 12  1  0
 19 18  1  0
  1 20  1  1
  2 21  1  0
  2 22  1  0
  3 23  1  0
  3 24  1  0
  5 25  1  6
  7 26  1  0
  8 27  1  0
  9 28  1  0
 11 29  1  0
 11 30  1  0
 12 31  1  0
 13 32  1  0
 14 33  1  0
 15 34  1  0
 16 35  1  0
M  ISO  8  20  13  21  13  22  13  23  13  24  13  25  13  26  14  27  14
M  ISO  6  28  14  29   8  30   8  33  14  34  14  35  14
M  END
>  <minimizedAffinity>  (1) 
-4.74192715

>  <minimizedRMSD>  (1) 
1.29488039

$$$$
