
     RDKit          3D

 35 37  0  0  1  0  0  0  0  0999 V2000
   46.7080   30.4020   47.6760 C   0  0  2  0  0  0  0  0  0  0  0  0
   45.2040   30.6780   47.6700 C   0  0  0  0  0  0  0  0  0  0  0  0
   45.1060   31.0770   49.1530 C   0  0  0  0  0  0  0  0  0  0  0  0
   46.1850   31.9060   49.3420 O   0  0  0  0  0  0  0  0  0  0  0  0
   47.1820   31.5790   48.4370 C   0  0  1  0  0  0  0  0  0  0  0  0
   48.4580   31.3260   49.1690 C   0  0  0  0  0  0  0  0  0  0  0  0
   49.5610   32.0920   49.3910 C   0  0  0  0  0  0  0  0  0  0  0  0
   50.4970   31.4070   50.1370 C   0  0  0  0  0  0  0  0  0  0  0  0
   49.9260   30.2170   50.3510 N   0  0  0  0  0  0  0  0  0  0  0  0
   48.7200   30.1550   49.7870 N   0  0  0  0  0  0  0  0  0  0  0  0
   47.2690   30.2350   46.3100 C   0  0  0  0  0  0  0  0  0  0  0  0
   47.6340   31.5380   44.2530 C   0  0  0  0  0  0  0  0  0  0  0  0
   47.2310   31.4830   45.5080 C   0  0  0  0  0  0  0  0  0  0  0  0
   46.5870   34.7950   42.9260 C   0  0  0  0  0  0  0  0  0  0  0  0
   47.6320   35.0790   42.0080 C   0  0  0  0  0  0  0  0  0  0  0  0
   48.6540   34.1340   41.8880 C   0  0  0  0  0  0  0  0  0  0  0  0
   48.6050   32.9950   42.6440 N   0  0  0  0  0  0  0  0  0  0  0  0
   47.5810   32.7710   43.5090 C   0  0  0  0  0  0  0  0  0  0  0  0
   46.5980   33.6520   43.6440 N   0  0  0  0  0  0  0  0  0  0  0  0
   47.0231   29.4494   48.1269 H   0  0  0  0  0  0  0  0  0  0  0  0
   44.9252   31.4969   46.9906 H   0  0  0  0  0  0  0  0  0  0  0  0
   44.5468   29.8662   47.3249 H   0  0  0  0  0  0  0  0  0  0  0  0
   44.1640   31.6081   49.3544 H   0  0  0  0  0  0  0  0  0  0  0  0
   45.1136   30.2087   49.8282 H   0  0  0  0  0  0  0  0  0  0  0  0
   47.3896   32.3968   47.7312 H   0  0  0  0  0  0  0  0  0  0  0  0
   49.6889   33.1211   49.0240 H   0  0  0  0  0  0  0  0  0  0  0  0
   51.4828   31.7576   50.4766 H   0  0  0  0  0  0  0  0  0  0  0  0
   50.3610   29.4491   50.8820 H   0  0  0  0  0  0  0  0  0  0  0  0
   48.3155   29.9079   46.3990 H   0  0  0  0  0  0  0  0  0  0  0  0
   46.6477   29.4916   45.7891 H   0  0  0  0  0  0  0  0  0  0  0  0
   48.0165   30.6284   43.7669 H   0  0  0  0  0  0  0  0  0  0  0  0
   46.8507   32.4010   45.9799 H   0  0  0  0  0  0  0  0  0  0  0  0
   45.7622   35.5117   43.0531 H   0  0  0  0  0  0  0  0  0  0  0  0
   47.6368   36.0056   41.4152 H   0  0  0  0  0  0  0  0  0  0  0  0
   49.4894   34.3041   41.1928 H   0  0  0  0  0  0  0  0  0  0  0  0
  1  5  1  0
  2  1  1  0
  2  3  1  0
  3  4  1  0
  5  6  1  0
  5  4  1  0
  6  7  1  0
  6 10  2  0
  7  8  2  0
  8  9  1  0
 10  9  1  0
 11  1  1  0
 12 13  2  0
 13 11  1  0
 14 19  2  0
 15 14  1  0
 16 15  2  0
 16 17  1  0
 17 18  2  0
 18 19  1  0
 18 12  1  0
  1 20  1  1
  2 21  1  0
  2 22  1  0
  3 23  1  0
  3 24  1  0
  5 25  1  6
  7 26  1  0
  8 27  1  0
  9 28  1  0
 11 29  1  0
 11 30  1  0
 12 31  1  0
 13 32  1  0
 14 33  1  0
 15 34  1  0
 16 35  1  0
M  ISO  8  20  13  21  13  22  13  23  13  24  13  25  13  26  14  27  14
M  ISO  6  28   9  29   8  30   8  33  14  34  14  35  14
M  END
>  <minimizedAffinity>  (1) 
-4.42956209

>  <minimizedRMSD>  (1) 
1.85424113

$$$$
