
     RDKit          3D

 43 45  0  0  1  0  0  0  0  0999 V2000
   46.7380   31.5330   48.0910 C   0  0  2  0  0  0  0  0  0  0  0  0
   45.8010   32.1560   49.1450 C   0  0  0  0  0  0  0  0  0  0  0  0
   44.5400   31.4040   48.6820 C   0  0  0  0  0  0  0  0  0  0  0  0
   44.9730   30.1070   48.5110 O   0  0  0  0  0  0  0  0  0  0  0  0
   46.3170   30.1290   48.2490 C   0  0  1  0  0  0  0  0  0  0  0  0
   46.6260   29.1890   47.2410 N   0  0  0  0  0  0  0  0  0  0  0  0
   45.8040   28.0410   47.4120 C   0  0  0  0  0  0  0  0  0  0  0  0
   45.2540   27.4060   46.1920 C   0  0  0  0  0  0  0  0  0  0  0  0
   44.9850   28.3020   45.0230 C   0  0  0  0  0  0  0  0  0  0  0  0
   45.3450   29.7440   45.2640 C   0  0  0  0  0  0  0  0  0  0  0  0
   46.7290   29.6700   45.9030 C   0  0  0  0  0  0  0  0  0  0  0  0
   48.1710   31.8160   48.4060 C   0  0  0  0  0  0  0  0  0  0  0  0
   49.7700   30.1000   49.1440 C   0  0  0  0  0  0  0  0  0  0  0  0
   48.7420   30.8820   49.4120 C   0  0  0  0  0  0  0  0  0  0  0  0
   50.8930   28.7100   52.3400 C   0  0  0  0  0  0  0  0  0  0  0  0
   51.3440   27.4010   51.9550 C   0  0  0  0  0  0  0  0  0  0  0  0
   51.2320   27.0750   50.5930 C   0  0  0  0  0  0  0  0  0  0  0  0
   50.7120   27.9840   49.7050 N   0  0  0  0  0  0  0  0  0  0  0  0
   50.3030   29.2040   50.1400 C   0  0  0  0  0  0  0  0  0  0  0  0
   50.3960   29.5430   51.4100 N   0  0  0  0  0  0  0  0  0  0  0  0
   46.6702   31.9033   47.0574 H   0  0  0  0  0  0  0  0  0  0  0  0
   46.0924   31.9072   50.1761 H   0  0  0  0  0  0  0  0  0  0  0  0
   45.7485   33.2538   49.1911 H   0  0  0  0  0  0  0  0  0  0  0  0
   43.7505   31.4557   49.4462 H   0  0  0  0  0  0  0  0  0  0  0  0
   44.1034   31.8302   47.7667 H   0  0  0  0  0  0  0  0  0  0  0  0
   46.9455   29.7723   49.0783 H   0  0  0  0  0  0  0  0  0  0  0  0
   46.4028   27.2822   47.9371 H   0  0  0  0  0  0  0  0  0  0  0  0
   44.9227   28.4064   47.9595 H   0  0  0  0  0  0  0  0  0  0  0  0
   45.9715   26.6392   45.8645 H   0  0  0  0  0  0  0  0  0  0  0  0
   44.2678   27.0203   46.4899 H   0  0  0  0  0  0  0  0  0  0  0  0
   43.9125   28.2479   44.7848 H   0  0  0  0  0  0  0  0  0  0  0  0
   45.6194   27.9483   44.1970 H   0  0  0  0  0  0  0  0  0  0  0  0
   45.3795   30.3031   44.3173 H   0  0  0  0  0  0  0  0  0  0  0  0
   44.6115   30.2665   45.8956 H   0  0  0  0  0  0  0  0  0  0  0  0
   47.3634   28.9872   45.3188 H   0  0  0  0  0  0  0  0  0  0  0  0
   47.1740   30.6759   45.9154 H   0  0  0  0  0  0  0  0  0  0  0  0
   48.7565   31.7324   47.4785 H   0  0  0  0  0  0  0  0  0  0  0  0
   48.2193   32.8284   48.8335 H   0  0  0  0  0  0  0  0  0  0  0  0
   50.2280   30.1320   48.1444 H   0  0  0  0  0  0  0  0  0  0  0  0
   48.2915   30.8416   50.4147 H   0  0  0  0  0  0  0  0  0  0  0  0
   50.9543   29.0286   53.3911 H   0  0  0  0  0  0  0  0  0  0  0  0
   51.7553   26.6915   52.6881 H   0  0  0  0  0  0  0  0  0  0  0  0
   51.5621   26.0880   50.2368 H   0  0  0  0  0  0  0  0  0  0  0  0
  1  5  1  0
  1 12  1  0
  1  2  1  0
  3  2  1  0
  4  3  1  0
  5  4  1  0
  6  7  1  0
  6  5  1  0
  8  7  1  0
  9 10  1  0
  9  8  1  0
 10 11  1  0
 11  6  1  0
 12 14  1  0
 13 14  2  0
 13 19  1  0
 16 15  2  0
 17 16  1  0
 18 19  1  0
 18 17  2  0
 19 20  2  0
 20 15  1  0
  1 21  1  6
  2 22  1  0
  2 23  1  0
  3 24  1  0
  3 25  1  0
  5 26  1  1
  7 27  1  0
  7 28  1  0
  8 29  1  0
  8 30  1  0
  9 31  1  0
  9 32  1  0
 10 33  1  0
 10 34  1  0
 11 35  1  0
 11 36  1  0
 12 37  1  0
 12 38  1  0
 13 39  1  0
 14 40  1  0
 15 41  1  0
 16 42  1  0
 17 43  1  0
M  ISO  8  21  13  22  13  23  13  24  13  25  13  26  13  27  13  28  13
M  ISO  8  29  13  30  13  31  13  32  13  33  13  34  13  35  13  36  13
M  ISO  5  37   8  38   8  41  14  42  14  43  14
M  END
>  <minimizedAffinity>  (1) 
-4.27322245

>  <minimizedRMSD>  (1) 
7.33047009

$$$$
