
     RDKit          3D

 45 47  0  0  1  0  0  0  0  0999 V2000
   46.5390   30.1000   47.3730 C   0  0  2  0  0  0  0  0  0  0  0  0
   45.1480   30.4660   47.8580 C   0  0  0  0  0  0  0  0  0  0  0  0
   45.5160   30.7660   49.3010 C   0  0  0  0  0  0  0  0  0  0  0  0
   46.6970   31.4730   49.2260 O   0  0  0  0  0  0  0  0  0  0  0  0
   47.3290   31.1790   48.0490 C   0  0  1  0  0  0  0  0  0  0  0  0
   48.7310   30.7340   48.3370 C   0  0  1  0  0  0  0  0  0  0  0  0
   49.1570   31.1170   49.7420 C   0  0  0  0  0  0  0  0  0  0  0  0
   49.8750   29.8790   50.2080 C   0  0  0  0  0  0  0  0  0  0  0  0
   50.0580   29.0790   49.0720 O   0  0  0  0  0  0  0  0  0  0  0  0
   48.8140   29.2150   48.4520 C   0  0  0  0  0  0  0  0  0  0  0  0
   46.6310   30.0970   45.8850 C   0  0  0  0  0  0  0  0  0  0  0  0
   45.6620   31.8530   44.4980 C   0  0  0  0  0  0  0  0  0  0  0  0
   46.6110   31.4540   45.2870 C   0  0  0  0  0  0  0  0  0  0  0  0
   45.0640   35.4320   44.0660 C   0  0  0  0  0  0  0  0  0  0  0  0
   45.6700   35.6930   42.8110 C   0  0  0  0  0  0  0  0  0  0  0  0
   46.2710   34.6170   42.1480 C   0  0  0  0  0  0  0  0  0  0  0  0
   46.2470   33.3880   42.7290 N   0  0  0  0  0  0  0  0  0  0  0  0
   45.6600   33.1850   43.9220 C   0  0  0  0  0  0  0  0  0  0  0  0
   45.0800   34.1820   44.5800 N   0  0  0  0  0  0  0  0  0  0  0  0
   46.8990   34.6840   40.9360 O   0  0  0  0  0  0  0  0  0  0  0  0
   49.0840   36.0990   41.3650 O   0  0  0  0  0  0  0  0  0  0  0  0
   48.5540   34.8650   40.6480 P   0  0  0  0  0  0  0  0  0  0  0  0
   48.7860   35.0650   38.9700 O   0  0  0  0  0  0  0  0  0  0  0  0
   49.4860   33.5480   41.1150 O   0  0  0  0  0  0  0  0  0  0  0  0
   46.8858   29.0843   47.6138 H   0  0  0  0  0  0  0  0  0  0  0  0
   44.7407   31.3455   47.3378 H   0  0  0  0  0  0  0  0  0  0  0  0
   44.3621   29.7125   47.7010 H   0  0  0  0  0  0  0  0  0  0  0  0
   44.7331   31.3703   49.7825 H   0  0  0  0  0  0  0  0  0  0  0  0
   45.6191   29.8500   49.9012 H   0  0  0  0  0  0  0  0  0  0  0  0
   47.3880   32.0578   47.3900 H   0  0  0  0  0  0  0  0  0  0  0  0
   49.3301   31.1796   47.5292 H   0  0  0  0  0  0  0  0  0  0  0  0
   49.8296   31.9873   49.7310 H   0  0  0  0  0  0  0  0  0  0  0  0
   48.3194   31.4112   50.3915 H   0  0  0  0  0  0  0  0  0  0  0  0
   50.8478   30.1454   50.6469 H   0  0  0  0  0  0  0  0  0  0  0  0
   49.2985   29.3497   50.9810 H   0  0  0  0  0  0  0  0  0  0  0  0
   48.0027   28.8091   49.0741 H   0  0  0  0  0  0  0  0  0  0  0  0
   48.7132   28.6750   47.4990 H   0  0  0  0  0  0  0  0  0  0  0  0
   47.5702   29.6030   45.5955 H   0  0  0  0  0  0  0  0  0  0  0  0
   45.7453   29.5647   45.5077 H   0  0  0  0  0  0  0  0  0  0  0  0
   44.8380   31.1644   44.2595 H   0  0  0  0  0  0  0  0  0  0  0  0
   47.4316   32.1480   45.5213 H   0  0  0  0  0  0  0  0  0  0  0  0
   44.5800   36.2482   44.6223 H   0  0  0  0  0  0  0  0  0  0  0  0
   45.6678   36.7029   42.3750 H   0  0  0  0  0  0  0  0  0  0  0  0
   49.5263   35.7032   38.8130 H   0  0  0  0  0  0  0  0  0  0  0  0
   49.5192   33.5011   42.1033 H   0  0  0  0  0  0  0  0  0  0  0  0
  1  2  1  0
  1  5  1  0
  2  3  1  0
  4  3  1  0
  5  6  1  0
  5  4  1  0
  6 10  1  0
  6  7  1  0
  7  8  1  0
  9  8  1  0
 10  9  1  0
 11  1  1  0
 12 13  2  0
 13 11  1  0
 14 19  2  0
 15 14  1  0
 16 17  1  0
 16 15  2  0
 17 18  2  0
 18 12  1  0
 18 19  1  0
 20 16  1  0
 22 20  1  0
 22 24  1  0
 22 21  2  0
 23 22  1  0
  1 25  1  1
  2 26  1  0
  2 27  1  0
  3 28  1  0
  3 29  1  0
  5 30  1  6
  6 31  1  6
  7 32  1  0
  7 33  1  0
  8 34  1  0
  8 35  1  0
 10 36  1  0
 10 37  1  0
 11 38  1  0
 11 39  1  0
 12 40  1  0
 13 41  1  0
 14 42  1  0
 15 43  1  0
 23 44  1  0
 24 45  1  0
M  ISO  8  25  13  26  13  27  13  28  13  29  13  30  13  31  13  32  13
M  ISO  8  33  13  34  13  35  13  36  13  37  13  38   8  39   8  42  14
M  ISO  3  43  14  44   3  45   3
M  END
>  <minimizedAffinity>  (1) 
-5.50863552

>  <minimizedRMSD>  (1) 
2.29301667

$$$$
