
     RDKit          3D

 52 56  0  0  1  0  0  0  0  0999 V2000
   45.8520   30.3610   46.0010 C   0  0  0  0  0  0  0  0  0  0  0  0
   45.9790   30.4910   47.4810 C   0  0  2  0  0  0  0  0  0  0  0  0
   44.7390   31.0580   48.1380 C   0  0  0  0  0  0  0  0  0  0  0  0
   45.3630   31.4250   49.4800 C   0  0  0  0  0  0  0  0  0  0  0  0
   46.5760   31.9640   49.1560 O   0  0  0  0  0  0  0  0  0  0  0  0
   46.9750   31.4980   47.9220 C   0  0  1  0  0  0  0  0  0  0  0  0
   48.3450   30.9170   48.0460 C   0  0  1  0  0  0  0  0  0  0  0  0
   49.0530   31.3800   49.3050 C   0  0  0  0  0  0  0  0  0  0  0  0
   49.6890   30.1110   49.8050 C   0  0  0  0  0  0  0  0  0  0  0  0
   49.5890   29.1910   48.7590 O   0  0  0  0  0  0  0  0  0  0  0  0
   48.2850   29.4110   48.3160 C   0  0  0  0  0  0  0  0  0  0  0  0
   46.5150   32.0200   44.3360 C   0  0  0  0  0  0  0  0  0  0  0  0
   46.8520   31.1480   45.2510 C   0  0  0  0  0  0  0  0  0  0  0  0
   48.3350   34.7720   42.7610 C   0  0  0  0  0  0  0  0  0  0  0  0
   49.4840   34.0990   42.2300 C   0  0  0  0  0  0  0  0  0  0  0  0
   49.5660   32.7290   42.4460 C   0  0  0  0  0  0  0  0  0  0  0  0
   48.5880   32.1010   43.1290 N   0  0  0  0  0  0  0  0  0  0  0  0
   47.5120   32.7770   43.6180 C   0  0  0  0  0  0  0  0  0  0  0  0
   47.3790   34.0860   43.4420 N   0  0  0  0  0  0  0  0  0  0  0  0
   51.0490   30.8220   42.7140 C   0  0  0  0  0  0  0  0  0  0  0  0
   50.6730   31.9160   41.9660 C   0  0  0  0  0  0  0  0  0  0  0  0
   51.3800   32.1600   40.8090 C   0  0  0  0  0  0  0  0  0  0  0  0
   52.4220   31.3830   40.3710 C   0  0  0  0  0  0  0  0  0  0  0  0
   53.2580   31.3850   39.3230 N   0  0  0  0  0  0  0  0  0  0  0  0
   54.1080   30.3630   39.3960 C   0  0  0  0  0  0  0  0  0  0  0  0
   53.8180   29.6720   40.5300 N   0  0  0  0  0  0  0  0  0  0  0  0
   52.7910   30.2840   41.1330 C   0  0  0  0  0  0  0  0  0  0  0  0
   52.1020   30.0230   42.2880 C   0  0  0  0  0  0  0  0  0  0  0  0
   45.9718   29.3008   45.7333 H   0  0  0  0  0  0  0  0  0  0  0  0
   44.8612   30.7521   45.7263 H   0  0  0  0  0  0  0  0  0  0  0  0
   46.2284   29.4568   47.7605 H   0  0  0  0  0  0  0  0  0  0  0  0
   44.3494   31.9376   47.6046 H   0  0  0  0  0  0  0  0  0  0  0  0
   43.8644   30.3921   48.1769 H   0  0  0  0  0  0  0  0  0  0  0  0
   44.7400   32.1600   50.0107 H   0  0  0  0  0  0  0  0  0  0  0  0
   45.4557   30.5575   50.1500 H   0  0  0  0  0  0  0  0  0  0  0  0
   47.0229   32.3014   47.1721 H   0  0  0  0  0  0  0  0  0  0  0  0
   48.8419   31.2104   47.1095 H   0  0  0  0  0  0  0  0  0  0  0  0
   49.8124   32.1423   49.0767 H   0  0  0  0  0  0  0  0  0  0  0  0
   48.3820   31.8529   50.0373 H   0  0  0  0  0  0  0  0  0  0  0  0
   50.7446   30.2872   50.0592 H   0  0  0  0  0  0  0  0  0  0  0  0
   49.1913   29.7425   50.7141 H   0  0  0  0  0  0  0  0  0  0  0  0
   47.5439   29.1646   49.0906 H   0  0  0  0  0  0  0  0  0  0  0  0
   47.9791   28.7983   47.4552 H   0  0  0  0  0  0  0  0  0  0  0  0
   45.4505   32.1794   44.1094 H   0  0  0  0  0  0  0  0  0  0  0  0
   47.9191   30.9952   45.4699 H   0  0  0  0  0  0  0  0  0  0  0  0
   48.2255   35.8568   42.6157 H   0  0  0  0  0  0  0  0  0  0  0  0
   50.2646   34.6421   41.6771 H   0  0  0  0  0  0  0  0  0  0  0  0
   50.5166   30.5819   43.6462 H   0  0  0  0  0  0  0  0  0  0  0  0
   51.0917   33.0297   40.2003 H   0  0  0  0  0  0  0  0  0  0  0  0
   53.2445   32.0821   38.5648 H   0  0  0  0  0  0  0  0  0  0  0  0
   54.8998   30.1220   38.6715 H   0  0  0  0  0  0  0  0  0  0  0  0
   52.3918   29.1538   42.8967 H   0  0  0  0  0  0  0  0  0  0  0  0
  1  2  1  0
  2  6  1  0
  2  3  1  0
  3  4  1  0
  5  4  1  0
  6  7  1  0
  6  5  1  0
  7 11  1  0
  7  8  1  0
  8  9  1  0
 10  9  1  0
 11 10  1  0
 12 13  2  0
 13  1  1  0
 14 19  2  0
 15 16  2  0
 15 14  1  0
 16 17  1  0
 17 18  2  0
 18 12  1  0
 19 18  1  0
 21 16  1  0
 21 20  2  0
 22 21  1  0
 23 22  2  0
 23 27  1  0
 24 25  1  0
 24 23  1  0
 25 26  2  0
 26 27  1  0
 27 28  2  0
 28 20  1  0
  1 29  1  0
  1 30  1  0
  2 31  1  1
  3 32  1  0
  3 33  1  0
  4 34  1  0
  4 35  1  0
  6 36  1  6
  7 37  1  6
  8 38  1  0
  8 39  1  0
  9 40  1  0
  9 41  1  0
 11 42  1  0
 11 43  1  0
 12 44  1  0
 13 45  1  0
 14 46  1  0
 15 47  1  0
 20 48  1  0
 22 49  1  0
 24 50  1  0
 25 51  1  0
 28 52  1  0
M  ISO  8  29   8  30   8  31  13  32  13  33  13  34  13  35  13  36  13
M  ISO  8  37  13  38  13  39  13  40  13  41  13  42  13  43  13  46  14
M  ISO  6  47  14  48  14  49  14  50   9  51  14  52  14
M  END
>  <minimizedAffinity>  (1) 
-5.41288471

>  <minimizedRMSD>  (1) 
2.77005243

$$$$
