
     RDKit          3D

 46 49  0  0  1  0  0  0  0  0999 V2000
   46.2700   29.9600   47.5940 C   0  0  2  0  0  0  0  0  0  0  0  0
   44.9280   30.4460   48.1200 C   0  0  0  0  0  0  0  0  0  0  0  0
   45.4440   31.1010   49.3940 C   0  0  0  0  0  0  0  0  0  0  0  0
   46.5950   31.7420   49.0180 O   0  0  0  0  0  0  0  0  0  0  0  0
   47.1070   31.1550   47.8870 C   0  0  1  0  0  0  0  0  0  0  0  0
   48.5330   30.7790   48.1310 C   0  0  1  0  0  0  0  0  0  0  0  0
   49.0790   31.4240   49.3930 C   0  0  0  0  0  0  0  0  0  0  0  0
   49.8620   30.3030   50.0180 C   0  0  0  0  0  0  0  0  0  0  0  0
   49.9510   29.3040   49.0410 O   0  0  0  0  0  0  0  0  0  0  0  0
   48.6670   29.3050   48.5050 C   0  0  0  0  0  0  0  0  0  0  0  0
   46.2030   29.5920   46.1500 C   0  0  0  0  0  0  0  0  0  0  0  0
   45.3460   30.8060   44.2150 C   0  0  0  0  0  0  0  0  0  0  0  0
   46.1490   30.7530   45.2410 C   0  0  0  0  0  0  0  0  0  0  0  0
   44.1550   33.3610   41.8990 C   0  0  0  0  0  0  0  0  0  0  0  0
   45.3220   34.1500   41.6890 C   0  0  0  0  0  0  0  0  0  0  0  0
   46.4780   33.7640   42.3590 C   0  0  0  0  0  0  0  0  0  0  0  0
   46.4290   32.6730   43.1650 N   0  0  0  0  0  0  0  0  0  0  0  0
   45.3100   31.9470   43.3440 C   0  0  0  0  0  0  0  0  0  0  0  0
   44.1810   32.2750   42.7260 N   0  0  0  0  0  0  0  0  0  0  0  0
   47.7400   34.4840   42.2320 C   0  0  0  0  0  0  0  0  0  0  0  0
   48.9150   34.1350   42.8520 C   0  0  0  0  0  0  0  0  0  0  0  0
   49.8690   35.0760   42.4690 C   0  0  0  0  0  0  0  0  0  0  0  0
   49.2100   35.9400   41.6370 C   0  0  0  0  0  0  0  0  0  0  0  0
   47.9700   35.5700   41.5180 O   0  0  0  0  0  0  0  0  0  0  0  0
   46.6558   29.0334   48.0440 H   0  0  0  0  0  0  0  0  0  0  0  0
   44.4482   31.1674   47.4422 H   0  0  0  0  0  0  0  0  0  0  0  0
   44.1461   29.6825   48.2448 H   0  0  0  0  0  0  0  0  0  0  0  0
   44.7095   31.8210   49.7842 H   0  0  0  0  0  0  0  0  0  0  0  0
   45.6203   30.3680   50.1950 H   0  0  0  0  0  0  0  0  0  0  0  0
   47.0866   31.8388   47.0256 H   0  0  0  0  0  0  0  0  0  0  0  0
   49.0475   31.0728   47.2042 H   0  0  0  0  0  0  0  0  0  0  0  0
   49.7295   32.2781   49.1536 H   0  0  0  0  0  0  0  0  0  0  0  0
   48.2974   31.8329   50.0502 H   0  0  0  0  0  0  0  0  0  0  0  0
   50.8663   30.6502   50.3024 H   0  0  0  0  0  0  0  0  0  0  0  0
   49.3750   29.9313   50.9316 H   0  0  0  0  0  0  0  0  0  0  0  0
   47.9147   29.0031   49.2485 H   0  0  0  0  0  0  0  0  0  0  0  0
   48.5130   28.6016   47.6734 H   0  0  0  0  0  0  0  0  0  0  0  0
   47.0952   28.9985   45.9017 H   0  0  0  0  0  0  0  0  0  0  0  0
   45.2690   29.0290   46.0061 H   0  0  0  0  0  0  0  0  0  0  0  0
   44.6793   29.9551   44.0116 H   0  0  0  0  0  0  0  0  0  0  0  0
   46.8127   31.6081   45.4367 H   0  0  0  0  0  0  0  0  0  0  0  0
   43.2192   33.6305   41.3875 H   0  0  0  0  0  0  0  0  0  0  0  0
   45.3095   35.0271   41.0253 H   0  0  0  0  0  0  0  0  0  0  0  0
   49.0727   33.2772   43.5223 H   0  0  0  0  0  0  0  0  0  0  0  0
   50.9260   35.1158   42.7710 H   0  0  0  0  0  0  0  0  0  0  0  0
   49.6610   36.8140   41.1443 H   0  0  0  0  0  0  0  0  0  0  0  0
  1  5  1  0
  1  2  1  0
  2  3  1  0
  4  3  1  0
  5  6  1  0
  5  4  1  0
  6 10  1  0
  6  7  1  0
  7  8  1  0
  9  8  1  0
 10  9  1  0
 11  1  1  0
 12 13  2  0
 13 11  1  0
 14 19  2  0
 15 14  1  0
 15 16  2  0
 16 17  1  0
 17 18  2  0
 18 12  1  0
 19 18  1  0
 20 16  1  0
 20 21  2  0
 22 21  1  0
 23 22  2  0
 24 23  1  0
 24 20  1  0
  1 25  1  1
  2 26  1  0
  2 27  1  0
  3 28  1  0
  3 29  1  0
  5 30  1  6
  6 31  1  6
  7 32  1  0
  7 33  1  0
  8 34  1  0
  8 35  1  0
 10 36  1  0
 10 37  1  0
 11 38  1  0
 11 39  1  0
 12 40  1  0
 13 41  1  0
 14 42  1  0
 15 43  1  0
 21 44  1  0
 22 45  1  0
 23 46  1  0
M  ISO  8  25  13  26  13  27  13  28  13  29  13  30  13  31  13  32  13
M  ISO  8  33  13  34  13  35  13  36  13  37  13  38   8  39   8  42  14
M  ISO  4  43  14  44  14  45  14  46  14
M  END
>  <minimizedAffinity>  (1) 
-5.22410774

>  <minimizedRMSD>  (1) 
1.98921633

$$$$
