
     RDKit          3D

 50 53  0  0  1  0  0  0  0  0999 V2000
   46.6850   30.0280   47.4090 C   0  0  2  0  0  0  0  0  0  0  0  0
   45.2810   30.3530   47.8600 C   0  0  0  0  0  0  0  0  0  0  0  0
   45.6160   30.6810   49.3150 C   0  0  0  0  0  0  0  0  0  0  0  0
   46.7860   31.3920   49.2630 O   0  0  0  0  0  0  0  0  0  0  0  0
   47.4460   31.1060   48.0890 C   0  0  1  0  0  0  0  0  0  0  0  0
   48.8410   30.6730   48.4110 C   0  0  1  0  0  0  0  0  0  0  0  0
   49.2500   31.1350   49.8070 C   0  0  0  0  0  0  0  0  0  0  0  0
   49.9690   29.9220   50.3320 C   0  0  0  0  0  0  0  0  0  0  0  0
   50.1870   29.0820   49.2240 O   0  0  0  0  0  0  0  0  0  0  0  0
   48.9440   29.1640   48.5790 C   0  0  0  0  0  0  0  0  0  0  0  0
   46.8300   30.0030   45.9200 C   0  0  0  0  0  0  0  0  0  0  0  0
   45.6880   31.7600   44.6620 C   0  0  0  0  0  0  0  0  0  0  0  0
   46.7470   31.3410   45.3100 C   0  0  0  0  0  0  0  0  0  0  0  0
   45.1070   35.3400   44.2100 C   0  0  0  0  0  0  0  0  0  0  0  0
   45.5500   35.5530   42.8760 C   0  0  0  0  0  0  0  0  0  0  0  0
   46.0300   34.4400   42.1950 C   0  0  0  0  0  0  0  0  0  0  0  0
   46.0620   33.2210   42.8060 N   0  0  0  0  0  0  0  0  0  0  0  0
   45.6300   33.0730   44.0730 C   0  0  0  0  0  0  0  0  0  0  0  0
   45.1590   34.1030   44.7740 N   0  0  0  0  0  0  0  0  0  0  0  0
   46.5020   34.5980   40.8110 C   0  0  1  0  0  0  0  0  0  0  0  0
   48.0100   34.6510   40.6770 C   0  0  0  0  0  0  0  0  0  0  0  0
   48.1520   34.2480   39.2040 C   0  0  0  0  0  0  0  0  0  0  0  0
   47.1340   33.3840   38.9210 O   0  0  0  0  0  0  0  0  0  0  0  0
   46.2020   33.4130   39.9230 C   0  0  0  0  0  0  0  0  0  0  0  0
   47.0347   29.0181   47.6694 H   0  0  0  0  0  0  0  0  0  0  0  0
   44.8563   31.2139   47.3228 H   0  0  0  0  0  0  0  0  0  0  0  0
   44.5214   29.5744   47.6959 H   0  0  0  0  0  0  0  0  0  0  0  0
   44.8168   31.2861   49.7678 H   0  0  0  0  0  0  0  0  0  0  0  0
   45.7135   29.7735   49.9290 H   0  0  0  0  0  0  0  0  0  0  0  0
   47.5104   31.9825   47.4274 H   0  0  0  0  0  0  0  0  0  0  0  0
   49.4477   31.0789   47.5881 H   0  0  0  0  0  0  0  0  0  0  0  0
   49.9177   32.0080   49.7608 H   0  0  0  0  0  0  0  0  0  0  0  0
   48.4070   31.4604   50.4342 H   0  0  0  0  0  0  0  0  0  0  0  0
   50.9287   30.2138   50.7835 H   0  0  0  0  0  0  0  0  0  0  0  0
   49.3802   29.4135   51.1096 H   0  0  0  0  0  0  0  0  0  0  0  0
   48.1313   28.7652   49.2039 H   0  0  0  0  0  0  0  0  0  0  0  0
   48.8631   28.5847   47.6474 H   0  0  0  0  0  0  0  0  0  0  0  0
   47.8074   29.5643   45.6705 H   0  0  0  0  0  0  0  0  0  0  0  0
   45.9972   29.4068   45.5188 H   0  0  0  0  0  0  0  0  0  0  0  0
   44.8201   31.0911   44.5653 H   0  0  0  0  0  0  0  0  0  0  0  0
   47.6100   32.0168   45.4023 H   0  0  0  0  0  0  0  0  0  0  0  0
   44.7170   36.1867   44.7940 H   0  0  0  0  0  0  0  0  0  0  0  0
   45.5148   36.5473   42.4068 H   0  0  0  0  0  0  0  0  0  0  0  0
   45.9863   35.5263   40.5241 H   0  0  0  0  0  0  0  0  0  0  0  0
   48.4027   35.6612   40.8650 H   0  0  0  0  0  0  0  0  0  0  0  0
   48.5640   34.0211   41.3885 H   0  0  0  0  0  0  0  0  0  0  0  0
   48.0804   35.1379   38.5614 H   0  0  0  0  0  0  0  0  0  0  0  0
   49.1278   33.7742   39.0216 H   0  0  0  0  0  0  0  0  0  0  0  0
   45.1950   33.5156   39.4923 H   0  0  0  0  0  0  0  0  0  0  0  0
   46.2411   32.4811   40.5061 H   0  0  0  0  0  0  0  0  0  0  0  0
  1  2  1  0
  1  5  1  0
  2  3  1  0
  4  3  1  0
  5  6  1  0
  5  4  1  0
  6 10  1  0
  6  7  1  0
  7  8  1  0
  9  8  1  0
 10  9  1  0
 11  1  1  0
 12 13  2  0
 13 11  1  0
 14 19  2  0
 15 14  1  0
 16 17  1  0
 16 15  2  0
 17 18  2  0
 18 12  1  0
 18 19  1  0
 20 16  1  0
 21 20  1  0
 22 21  1  0
 23 22  1  0
 23 24  1  0
 24 20  1  0
  1 25  1  1
  2 26  1  0
  2 27  1  0
  3 28  1  0
  3 29  1  0
  5 30  1  6
  6 31  1  6
  7 32  1  0
  7 33  1  0
  8 34  1  0
  8 35  1  0
 10 36  1  0
 10 37  1  0
 11 38  1  0
 11 39  1  0
 12 40  1  0
 13 41  1  0
 14 42  1  0
 15 43  1  0
 20 44  1  6
 21 45  1  0
 21 46  1  0
 22 47  1  0
 22 48  1  0
 24 49  1  0
 24 50  1  0
M  ISO  8  25  13  26  13  27  13  28  13  29  13  30  13  31  13  32  13
M  ISO  8  33  13  34  13  35  13  36  13  37  13  38   8  39   8  42  14
M  ISO  8  43  14  44  13  45  13  46  13  47  13  48  13  49  13  50  13
M  END
>  <minimizedAffinity>  (1) 
-5.17756844

>  <minimizedRMSD>  (1) 
2.80168867

$$$$
