
     RDKit          3D

 47 50  0  0  1  0  0  0  0  0999 V2000
   46.0770   30.4240   47.4820 C   0  0  2  0  0  0  0  0  0  0  0  0
   44.8030   30.9610   48.1000 C   0  0  0  0  0  0  0  0  0  0  0  0
   45.3880   31.3670   49.4460 C   0  0  0  0  0  0  0  0  0  0  0  0
   46.6060   31.9300   49.1480 O   0  0  0  0  0  0  0  0  0  0  0  0
   47.0390   31.4740   47.9400 C   0  0  1  0  0  0  0  0  0  0  0  0
   48.4220   30.9080   48.0950 C   0  0  1  0  0  0  0  0  0  0  0  0
   49.0780   31.3890   49.3840 C   0  0  0  0  0  0  0  0  0  0  0  0
   49.7200   30.1290   49.8950 C   0  0  0  0  0  0  0  0  0  0  0  0
   49.6840   29.2090   48.8320 O   0  0  0  0  0  0  0  0  0  0  0  0
   48.3950   29.4110   48.3510 C   0  0  0  0  0  0  0  0  0  0  0  0
   45.9790   30.2730   46.0100 C   0  0  0  0  0  0  0  0  0  0  0  0
   47.1080   31.0840   44.0000 C   0  0  0  0  0  0  0  0  0  0  0  0
   46.8000   31.2550   45.2590 C   0  0  0  0  0  0  0  0  0  0  0  0
   48.5470   34.2500   42.8970 C   0  0  0  0  0  0  0  0  0  0  0  0
   49.4680   33.8540   41.8910 C   0  0  0  0  0  0  0  0  0  0  0  0
   49.5420   32.4770   41.6440 C   0  0  0  0  0  0  0  0  0  0  0  0
   48.7710   31.6100   42.3380 N   0  0  0  0  0  0  0  0  0  0  0  0
   47.9030   32.0490   43.2930 C   0  0  0  0  0  0  0  0  0  0  0  0
   47.7820   33.3410   43.5800 N   0  0  0  0  0  0  0  0  0  0  0  0
   50.4770   32.0210   40.6170 C   0  0  0  0  0  0  0  0  0  0  0  0
   51.7880   31.7730   40.9140 C   0  0  0  0  0  0  0  0  0  0  0  0
   52.5820   31.3420   39.8480 C   0  0  0  0  0  0  0  0  0  0  0  0
   52.0860   31.1790   38.5900 N   0  0  0  0  0  0  0  0  0  0  0  0
   50.7870   31.4380   38.3480 C   0  0  0  0  0  0  0  0  0  0  0  0
   49.9930   31.8590   39.3720 N   0  0  0  0  0  0  0  0  0  0  0  0
   46.3595   29.4034   47.7796 H   0  0  0  0  0  0  0  0  0  0  0  0
   44.3977   31.8192   47.5440 H   0  0  0  0  0  0  0  0  0  0  0  0
   43.9476   30.2701   48.1296 H   0  0  0  0  0  0  0  0  0  0  0  0
   44.7360   32.0980   49.9465 H   0  0  0  0  0  0  0  0  0  0  0  0
   45.4842   30.5112   50.1303 H   0  0  0  0  0  0  0  0  0  0  0  0
   47.0830   32.2830   47.1960 H   0  0  0  0  0  0  0  0  0  0  0  0
   48.9377   31.2057   47.1701 H   0  0  0  0  0  0  0  0  0  0  0  0
   49.8287   32.1678   49.1843 H   0  0  0  0  0  0  0  0  0  0  0  0
   48.3760   31.8496   50.0946 H   0  0  0  0  0  0  0  0  0  0  0  0
   50.7603   30.3256   50.1936 H   0  0  0  0  0  0  0  0  0  0  0  0
   49.1916   29.7406   50.7782 H   0  0  0  0  0  0  0  0  0  0  0  0
   47.6359   29.1414   49.1000 H   0  0  0  0  0  0  0  0  0  0  0  0
   48.1345   28.8020   47.4728 H   0  0  0  0  0  0  0  0  0  0  0  0
   46.3141   29.2605   45.7406 H   0  0  0  0  0  0  0  0  0  0  0  0
   44.9289   30.4514   45.7353 H   0  0  0  0  0  0  0  0  0  0  0  0
   46.7524   30.1861   43.4734 H   0  0  0  0  0  0  0  0  0  0  0  0
   47.1608   32.1552   45.7781 H   0  0  0  0  0  0  0  0  0  0  0  0
   48.4446   35.3190   43.1352 H   0  0  0  0  0  0  0  0  0  0  0  0
   50.0834   34.5814   41.3413 H   0  0  0  0  0  0  0  0  0  0  0  0
   52.1925   31.9045   41.9284 H   0  0  0  0  0  0  0  0  0  0  0  0
   53.6451   31.1268   40.0313 H   0  0  0  0  0  0  0  0  0  0  0  0
   50.3724   31.3114   37.3370 H   0  0  0  0  0  0  0  0  0  0  0  0
  1  5  1  0
  1  2  1  0
  2  3  1  0
  4  3  1  0
  5  6  1  0
  5  4  1  0
  6 10  1  0
  6  7  1  0
  7  8  1  0
  9  8  1  0
 10  9  1  0
 11  1  1  0
 12 13  2  0
 13 11  1  0
 14 19  2  0
 15 14  1  0
 16 15  2  0
 16 17  1  0
 17 18  2  0
 18 19  1  0
 18 12  1  0
 20 21  2  0
 20 16  1  0
 22 21  1  0
 23 22  2  0
 24 23  1  0
 24 25  2  0
 25 20  1  0
  1 26  1  1
  2 27  1  0
  2 28  1  0
  3 29  1  0
  3 30  1  0
  5 31  1  6
  6 32  1  6
  7 33  1  0
  7 34  1  0
  8 35  1  0
  8 36  1  0
 10 37  1  0
 10 38  1  0
 11 39  1  0
 11 40  1  0
 12 41  1  0
 13 42  1  0
 14 43  1  0
 15 44  1  0
 21 45  1  0
 22 46  1  0
 24 47  1  0
M  ISO  8  26  13  27  13  28  13  29  13  30  13  31  13  32  13  33  13
M  ISO  8  34  13  35  13  36  13  37  13  38  13  39   8  40   8  43  14
M  ISO  4  44  14  45  14  46  14  47  14
M  END
>  <minimizedAffinity>  (1) 
-4.94918156

>  <minimizedRMSD>  (1) 
2.25316453

$$$$
