
     RDKit          3D

 41 43  0  0  1  0  0  0  0  0999 V2000
   46.3870   30.2180   47.4490 C   0  0  2  0  0  0  0  0  0  0  0  0
   45.0360   30.6400   47.9780 C   0  0  0  0  0  0  0  0  0  0  0  0
   45.4820   31.0350   49.3840 C   0  0  0  0  0  0  0  0  0  0  0  0
   46.6710   31.6920   49.2000 O   0  0  0  0  0  0  0  0  0  0  0  0
   47.2340   31.3110   48.0050 C   0  0  1  0  0  0  0  0  0  0  0  0
   48.6250   30.8530   48.2580 C   0  0  1  0  0  0  0  0  0  0  0  0
   49.1810   31.3940   49.5620 C   0  0  0  0  0  0  0  0  0  0  0  0
   49.8930   30.1860   50.1320 C   0  0  0  0  0  0  0  0  0  0  0  0
   49.9580   29.2460   49.1110 O   0  0  0  0  0  0  0  0  0  0  0  0
   48.6760   29.3430   48.5590 C   0  0  0  0  0  0  0  0  0  0  0  0
   46.4250   30.1100   45.9560 C   0  0  0  0  0  0  0  0  0  0  0  0
   47.0830   31.9540   44.4930 C   0  0  0  0  0  0  0  0  0  0  0  0
   46.1850   31.4020   45.2690 C   0  0  0  0  0  0  0  0  0  0  0  0
   45.4900   35.0800   43.4600 C   0  0  0  0  0  0  0  0  0  0  0  0
   46.4270   35.6070   42.5260 C   0  0  0  0  0  0  0  0  0  0  0  0
   47.5690   34.8450   42.3020 C   0  0  0  0  0  0  0  0  0  0  0  0
   47.7620   33.6610   42.9520 N   0  0  0  0  0  0  0  0  0  0  0  0
   46.8300   33.2070   43.8350 C   0  0  0  0  0  0  0  0  0  0  0  0
   45.7020   33.8940   44.0990 N   0  0  0  0  0  0  0  0  0  0  0  0
   48.5560   35.3290   41.3650 C   0  0  0  0  0  0  0  0  0  0  0  0
   49.2740   36.3250   41.6190 O   0  0  0  0  0  0  0  0  0  0  0  0
   46.7095   29.2083   47.7431 H   0  0  0  0  0  0  0  0  0  0  0  0
   44.6147   31.4887   47.4192 H   0  0  0  0  0  0  0  0  0  0  0  0
   44.2338   29.8900   47.9154 H   0  0  0  0  0  0  0  0  0  0  0  0
   44.7410   31.6983   49.8541 H   0  0  0  0  0  0  0  0  0  0  0  0
   45.5861   30.1640   50.0478 H   0  0  0  0  0  0  0  0  0  0  0  0
   47.2794   32.1395   47.2828 H   0  0  0  0  0  0  0  0  0  0  0  0
   49.1706   31.1738   47.3583 H   0  0  0  0  0  0  0  0  0  0  0  0
   49.8821   32.2226   49.3833 H   0  0  0  0  0  0  0  0  0  0  0  0
   48.4129   31.8099   50.2306 H   0  0  0  0  0  0  0  0  0  0  0  0
   50.9063   30.4619   50.4591 H   0  0  0  0  0  0  0  0  0  0  0  0
   49.3585   29.7861   51.0063 H   0  0  0  0  0  0  0  0  0  0  0  0
   47.8988   29.0440   49.2777 H   0  0  0  0  0  0  0  0  0  0  0  0
   48.4961   28.6922   47.6907 H   0  0  0  0  0  0  0  0  0  0  0  0
   47.4151   29.7346   45.6580 H   0  0  0  0  0  0  0  0  0  0  0  0
   45.6162   29.4268   45.6577 H   0  0  0  0  0  0  0  0  0  0  0  0
   48.0489   31.4500   44.3415 H   0  0  0  0  0  0  0  0  0  0  0  0
   45.2219   31.9127   45.4162 H   0  0  0  0  0  0  0  0  0  0  0  0
   44.5702   35.6449   43.6718 H   0  0  0  0  0  0  0  0  0  0  0  0
   46.2571   36.5636   42.0103 H   0  0  0  0  0  0  0  0  0  0  0  0
   48.6810   34.8101   40.4032 H   0  0  0  0  0  0  0  0  0  0  0  0
  1  2  1  0
  1  5  1  0
  2  3  1  0
  4  3  1  0
  5  6  1  0
  5  4  1  0
  6 10  1  0
  6  7  1  0
  7  8  1  0
  9  8  1  0
 10  9  1  0
 11  1  1  0
 12 13  2  0
 13 11  1  0
 14 19  2  0
 15 14  1  0
 16 15  2  0
 16 17  1  0
 17 18  2  0
 18 19  1  0
 18 12  1  0
 20 21  2  0
 20 16  1  0
  1 22  1  1
  2 23  1  0
  2 24  1  0
  3 25  1  0
  3 26  1  0
  5 27  1  6
  6 28  1  6
  7 29  1  0
  7 30  1  0
  8 31  1  0
  8 32  1  0
 10 33  1  0
 10 34  1  0
 11 35  1  0
 11 36  1  0
 12 37  1  0
 13 38  1  0
 14 39  1  0
 15 40  1  0
 20 41  1  0
M  ISO  8  22  13  23  13  24  13  25  13  26  13  27  13  28  13  29  13
M  ISO  8  30  13  31  13  32  13  33  13  34  13  35   8  36   8  39  14
M  ISO  2  40  14  41   6
M  END
>  <minimizedAffinity>  (1) 
-4.83757305

>  <minimizedRMSD>  (1) 
1.05572033

$$$$
