
     RDKit          3D

 45 48  0  0  1  0  0  0  0  0999 V2000
   46.0160   30.3550   47.5520 C   0  0  2  0  0  0  0  0  0  0  0  0
   44.7550   30.9450   48.1750 C   0  0  0  0  0  0  0  0  0  0  0  0
   45.3780   31.4270   49.4800 C   0  0  0  0  0  0  0  0  0  0  0  0
   46.5760   31.9670   49.1090 O   0  0  0  0  0  0  0  0  0  0  0  0
   46.9920   31.4250   47.9160 C   0  0  1  0  0  0  0  0  0  0  0  0
   48.3770   30.8950   48.0700 C   0  0  1  0  0  0  0  0  0  0  0  0
   49.0400   31.3900   49.3360 C   0  0  0  0  0  0  0  0  0  0  0  0
   49.6980   30.1460   49.8680 C   0  0  0  0  0  0  0  0  0  0  0  0
   49.6630   29.2220   48.8310 O   0  0  0  0  0  0  0  0  0  0  0  0
   48.3610   29.3910   48.3590 C   0  0  0  0  0  0  0  0  0  0  0  0
   45.8720   30.1150   46.0970 C   0  0  0  0  0  0  0  0  0  0  0  0
   47.3330   30.8810   44.2980 C   0  0  0  0  0  0  0  0  0  0  0  0
   46.5040   31.1710   45.2590 C   0  0  0  0  0  0  0  0  0  0  0  0
   48.2320   34.1480   42.9620 C   0  0  0  0  0  0  0  0  0  0  0  0
   49.1240   33.8140   41.9130 C   0  0  0  0  0  0  0  0  0  0  0  0
   49.3930   32.4670   41.6970 C   0  0  0  0  0  0  0  0  0  0  0  0
   48.7810   31.5490   42.5090 N   0  0  0  0  0  0  0  0  0  0  0  0
   47.9380   31.9070   43.4950 C   0  0  0  0  0  0  0  0  0  0  0  0
   47.6640   33.1850   43.7220 N   0  0  0  0  0  0  0  0  0  0  0  0
   50.3140   32.0170   40.6250 C   0  0  0  0  0  0  0  0  0  0  0  0
   51.6720   31.7690   40.9440 C   0  0  0  0  0  0  0  0  0  0  0  0
   52.3430   31.2500   39.2840 S   0  0  0  0  0  0  0  0  0  0  0  0
   50.6370   31.4730   38.4790 C   0  0  0  0  0  0  0  0  0  0  0  0
   49.9660   31.8230   39.3610 N   0  0  0  0  0  0  0  0  0  0  0  0
   46.3038   29.3530   47.9030 H   0  0  0  0  0  0  0  0  0  0  0  0
   44.3419   31.7719   47.5787 H   0  0  0  0  0  0  0  0  0  0  0  0
   43.8959   30.2645   48.2693 H   0  0  0  0  0  0  0  0  0  0  0  0
   44.7409   32.1859   49.9578 H   0  0  0  0  0  0  0  0  0  0  0  0
   45.4947   30.6147   50.2124 H   0  0  0  0  0  0  0  0  0  0  0  0
   47.0221   32.1747   47.1116 H   0  0  0  0  0  0  0  0  0  0  0  0
   48.8819   31.1965   47.1404 H   0  0  0  0  0  0  0  0  0  0  0  0
   49.7838   32.1700   49.1162 H   0  0  0  0  0  0  0  0  0  0  0  0
   48.3385   31.8524   50.0460 H   0  0  0  0  0  0  0  0  0  0  0  0
   50.7381   30.3573   50.1570 H   0  0  0  0  0  0  0  0  0  0  0  0
   49.1818   29.7678   50.7627 H   0  0  0  0  0  0  0  0  0  0  0  0
   47.6129   29.1297   49.1219 H   0  0  0  0  0  0  0  0  0  0  0  0
   48.0928   28.7568   47.5011 H   0  0  0  0  0  0  0  0  0  0  0  0
   46.3410   29.1500   45.8545 H   0  0  0  0  0  0  0  0  0  0  0  0
   44.7954   30.1219   45.8713 H   0  0  0  0  0  0  0  0  0  0  0  0
   47.5755   29.8272   44.0965 H   0  0  0  0  0  0  0  0  0  0  0  0
   46.2637   32.2259   45.4575 H   0  0  0  0  0  0  0  0  0  0  0  0
   47.9987   35.2045   43.1605 H   0  0  0  0  0  0  0  0  0  0  0  0
   49.5878   34.5936   41.2908 H   0  0  0  0  0  0  0  0  0  0  0  0
   52.1903   31.8585   41.9101 H   0  0  0  0  0  0  0  0  0  0  0  0
   50.3523   31.3099   37.4291 H   0  0  0  0  0  0  0  0  0  0  0  0
  1  5  1  0
  1  2  1  0
  2  3  1  0
  4  3  1  0
  5  6  1  0
  5  4  1  0
  6 10  1  0
  6  7  1  0
  7  8  1  0
  9  8  1  0
 10  9  1  0
 11  1  1  0
 12 13  2  0
 13 11  1  0
 14 19  2  0
 15 14  1  0
 16 15  2  0
 16 17  1  0
 17 18  2  0
 18 19  1  0
 18 12  1  0
 20 21  2  0
 20 16  1  0
 22 21  1  0
 23 22  1  0
 23 24  2  0
 24 20  1  0
  1 25  1  1
  2 26  1  0
  2 27  1  0
  3 28  1  0
  3 29  1  0
  5 30  1  6
  6 31  1  6
  7 32  1  0
  7 33  1  0
  8 34  1  0
  8 35  1  0
 10 36  1  0
 10 37  1  0
 11 38  1  0
 11 39  1  0
 12 40  1  0
 13 41  1  0
 14 42  1  0
 15 43  1  0
 21 44  1  0
 23 45  1  0
M  ISO  8  25  13  26  13  27  13  28  13  29  13  30  13  31  13  32  13
M  ISO  8  33  13  34  13  35  13  36  13  37  13  38   8  39   8  42  14
M  ISO  3  43  14  44  14  45  14
M  END
>  <minimizedAffinity>  (1) 
-4.76629543

>  <minimizedRMSD>  (1) 
2.00441742

$$$$
