
     RDKit          3D

 22 23  0  0  0  0  0  0  0  0999 V2000
   46.2740   34.1730   40.9840 C   0  0  0  0  0  0  0  0  0  0  0  0
   46.8370   34.8410   42.0470 C   0  0  0  0  0  0  0  0  0  0  0  0
   48.0740   35.3820   41.8530 C   0  0  0  0  0  0  0  0  0  0  0  0
   48.7420   35.2700   40.6440 C   0  0  0  0  0  0  0  0  0  0  0  0
   48.1730   34.6070   39.5990 C   0  0  0  0  0  0  0  0  0  0  0  0
   46.9130   34.0360   39.7480 C   0  0  0  0  0  0  0  0  0  0  0  0
   44.5140   36.0220   44.7710 C   0  0  0  0  0  0  0  0  0  0  0  0
   45.2280   35.9710   43.5640 C   0  0  0  0  0  0  0  0  0  0  0  0
   46.0900   34.9210   43.2760 C   0  0  0  0  0  0  0  0  0  0  0  0
   46.1770   33.9720   44.2420 N   0  0  0  0  0  0  0  0  0  0  0  0
   45.4960   34.0150   45.4010 C   0  0  0  0  0  0  0  0  0  0  0  0
   44.6640   35.0360   45.6680 N   0  0  0  0  0  0  0  0  0  0  0  0
   45.0100   33.5980   41.1260 O   0  0  0  0  0  0  0  0  0  0  0  0
   46.2580   33.3420   38.7370 O   0  0  0  0  0  0  0  0  0  0  0  0
   48.5556   35.9232   42.6807 H   0  0  0  0  0  0  0  0  0  0  0  0
   49.7390   35.7198   40.5274 H   0  0  0  0  0  0  0  0  0  0  0  0
   48.7075   34.5234   38.6412 H   0  0  0  0  0  0  0  0  0  0  0  0
   43.8370   36.8635   44.9798 H   0  0  0  0  0  0  0  0  0  0  0  0
   45.1021   36.7805   42.8299 H   0  0  0  0  0  0  0  0  0  0  0  0
   45.6212   33.2072   46.1370 H   0  0  0  0  0  0  0  0  0  0  0  0
   44.5975   33.1156   40.3663 H   0  0  0  0  0  0  0  0  0  0  0  0
   45.3610   32.9569   38.9018 H   0  0  0  0  0  0  0  0  0  0  0  0
  1 13  1  0
  1  2  2  0
  2  9  1  0
  3  2  1  0
  4  3  2  0
  5  6  2  0
  5  4  1  0
  6  1  1  0
  7 12  2  0
  8  7  1  0
  9  8  2  0
  9 10  1  0
 10 11  2  0
 11 12  1  0
 14  6  1  0
  3 15  1  0
  4 16  1  0
  5 17  1  0
  7 18  1  0
  8 19  1  0
 11 20  1  0
 13 21  1  0
 14 22  1  0
M  ISO  8  15  14  16  14  17  14  18  14  19  14  20  14  21   3  22   3
M  END
>  <minimizedAffinity>  (1) 
-5.16155815

>  <minimizedRMSD>  (1) 
0.879593849

$$$$
