
     RDKit          3D

 34 36  0  0  0  0  0  0  0  0999 V2000
   46.4250   34.1000   41.1810 C   0  0  0  0  0  0  0  0  0  0  0  0
   46.9020   34.8370   42.2500 C   0  0  0  0  0  0  0  0  0  0  0  0
   48.1020   35.4770   42.0720 C   0  0  0  0  0  0  0  0  0  0  0  0
   48.8120   35.3980   40.8880 C   0  0  0  0  0  0  0  0  0  0  0  0
   48.3350   34.6740   39.8500 C   0  0  0  0  0  0  0  0  0  0  0  0
   47.1150   33.9950   39.9640 C   0  0  0  0  0  0  0  0  0  0  0  0
   44.4560   35.9460   44.8850 C   0  0  0  0  0  0  0  0  0  0  0  0
   45.2080   35.9140   43.7010 C   0  0  0  0  0  0  0  0  0  0  0  0
   46.1240   34.8860   43.4540 C   0  0  0  0  0  0  0  0  0  0  0  0
   46.2170   33.9590   44.4240 N   0  0  0  0  0  0  0  0  0  0  0  0
   45.4920   33.9890   45.5660 C   0  0  0  0  0  0  0  0  0  0  0  0
   44.6210   34.9740   45.7920 N   0  0  0  0  0  0  0  0  0  0  0  0
   45.2160   33.4360   41.3170 O   0  0  0  0  0  0  0  0  0  0  0  0
   46.5420   33.2320   38.9730 O   0  0  0  0  0  0  0  0  0  0  0  0
   47.7380   33.3220   36.7710 C   0  0  0  0  0  0  0  0  0  0  0  0
   47.2450   32.7250   37.9040 C   0  0  0  0  0  0  0  0  0  0  0  0
   47.4640   31.3530   38.0560 C   0  0  0  0  0  0  0  0  0  0  0  0
   48.1510   30.6100   37.1090 C   0  0  0  0  0  0  0  0  0  0  0  0
   48.6370   31.2470   35.9740 C   0  0  0  0  0  0  0  0  0  0  0  0
   48.4120   32.5810   35.8470 C   0  0  0  0  0  0  0  0  0  0  0  0
   47.4750   34.6850   36.7050 O   0  0  0  0  0  0  0  0  0  0  0  0
   48.8830   33.2480   34.7280 O   0  0  0  0  0  0  0  0  0  0  0  0
   48.5137   36.0735   42.8994 H   0  0  0  0  0  0  0  0  0  0  0  0
   49.7711   35.9275   40.7897 H   0  0  0  0  0  0  0  0  0  0  0  0
   48.9074   34.6181   38.9123 H   0  0  0  0  0  0  0  0  0  0  0  0
   43.7389   36.7601   45.0665 H   0  0  0  0  0  0  0  0  0  0  0  0
   45.0751   36.7107   42.9543 H   0  0  0  0  0  0  0  0  0  0  0  0
   45.6219   33.1939   46.3150 H   0  0  0  0  0  0  0  0  0  0  0  0
   44.8566   32.9030   40.5642 H   0  0  0  0  0  0  0  0  0  0  0  0
   47.0795   30.8477   38.9543 H   0  0  0  0  0  0  0  0  0  0  0  0
   48.3092   29.5311   37.2540 H   0  0  0  0  0  0  0  0  0  0  0  0
   49.1869   30.6887   35.2021 H   0  0  0  0  0  0  0  0  0  0  0  0
   47.7874   35.2123   35.9276 H   0  0  0  0  0  0  0  0  0  0  0  0
   48.7235   34.2199   34.6274 H   0  0  0  0  0  0  0  0  0  0  0  0
  1 13  1  0
  1  2  2  0
  2  9  1  0
  3  2  1  0
  4  3  2  0
  5  6  2  0
  5  4  1  0
  6  1  1  0
  7 12  2  0
  8  7  1  0
  9  8  2  0
  9 10  1  0
 10 11  2  0
 11 12  1  0
 14  6  1  0
 15 16  2  0
 16 17  1  0
 16 14  1  0
 18 17  2  0
 19 18  1  0
 20 19  2  0
 20 15  1  0
 21 15  1  0
 22 20  1  0
  3 23  1  0
  4 24  1  0
  5 25  1  0
  7 26  1  0
  8 27  1  0
 11 28  1  0
 13 29  1  0
 17 30  1  0
 18 31  1  0
 19 32  1  0
 21 33  1  0
 22 34  1  0
M  ISO  8  23  14  24  14  25  14  26  14  27  14  28  14  29   3  30  14
M  ISO  4  31  14  32  14  33   3  34   3
M  END
>  <minimizedAffinity>  (1) 
-6.47361374

>  <minimizedRMSD>  (1) 
0.75343442

$$$$
