
     RDKit          3D

 40 43  0  0  1  0  0  0  0  0999 V2000
   48.0460   33.0900   43.3040 N   0  0  0  0  0  0  0  0  0  0  0  0
   49.1510   33.0540   42.4600 C   0  0  0  0  0  0  0  0  0  0  0  0
   50.2710   32.4920   42.6030 O   0  0  0  0  0  0  0  0  0  0  0  0
   46.1780   32.0150   44.5080 C   0  0  1  0  0  0  0  0  0  0  0  0
   46.3490   31.2790   43.3270 C   0  0  0  0  0  0  0  0  0  0  0  0
   47.5730   31.9540   44.0140 C   0  0  1  0  0  0  0  0  0  0  0  0
   45.0200   33.9220   43.1570 C   0  0  0  0  0  0  0  0  0  0  0  0
   45.4910   33.3870   44.4020 C   0  0  0  0  0  0  0  0  0  0  0  0
   45.3330   34.1630   45.5270 C   0  0  0  0  0  0  0  0  0  0  0  0
   44.7500   35.3780   45.4160 N   0  0  0  0  0  0  0  0  0  0  0  0
   44.3080   35.8730   44.2260 C   0  0  0  0  0  0  0  0  0  0  0  0
   44.4530   35.1090   43.0650 N   0  0  0  0  0  0  0  0  0  0  0  0
   49.0970   33.7740   41.1260 C   0  0  2  0  0  0  0  0  0  0  0  0
   48.5810   35.2550   41.1590 C   0  0  0  0  0  0  0  0  0  0  0  0
   47.8170   34.1430   40.5140 C   0  0  1  0  0  0  0  0  0  0  0  0
   47.7410   34.1330   39.0050 C   0  0  0  0  0  0  0  0  0  0  0  0
   48.5380   34.7940   38.3490 O   0  0  0  0  0  0  0  0  0  0  0  0
   48.7090   33.1040   36.3490 Cl  0  0  0  0  0  0  0  0  0  0  0  0
   47.1150   32.8440   37.0530 C   0  0  0  0  0  0  0  0  0  0  0  0
   46.7370   33.3520   38.2870 C   0  0  0  0  0  0  0  0  0  0  0  0
   45.4690   33.0650   38.6960 C   0  0  0  0  0  0  0  0  0  0  0  0
   44.5890   32.3150   37.9440 C   0  0  0  0  0  0  0  0  0  0  0  0
   44.9590   31.8080   36.7180 C   0  0  0  0  0  0  0  0  0  0  0  0
   43.8230   30.8590   35.7830 Cl  0  0  0  0  0  0  0  0  0  0  0  0
   46.2370   32.0830   36.2780 C   0  0  0  0  0  0  0  0  0  0  0  0
   47.5466   33.9833   43.4198 H   0  0  0  0  0  0  0  0  0  0  0  0
   45.7023   31.7638   45.4675 H   0  0  0  0  0  0  0  0  0  0  0  0
   45.9671   31.6719   42.3732 H   0  0  0  0  0  0  0  0  0  0  0  0
   46.1029   30.2568   43.0035 H   0  0  0  0  0  0  0  0  0  0  0  0
   48.5472   31.6694   44.4382 H   0  0  0  0  0  0  0  0  0  0  0  0
   45.1363   33.3191   42.2443 H   0  0  0  0  0  0  0  0  0  0  0  0
   45.6772   33.7990   46.5063 H   0  0  0  0  0  0  0  0  0  0  0  0
   43.8401   36.8674   44.1795 H   0  0  0  0  0  0  0  0  0  0  0  0
   49.9795   33.2284   40.7606 H   0  0  0  0  0  0  0  0  0  0  0  0
   48.2279   35.7019   42.1001 H   0  0  0  0  0  0  0  0  0  0  0  0
   48.9667   36.2377   40.8498 H   0  0  0  0  0  0  0  0  0  0  0  0
   46.7890   33.7690   40.6296 H   0  0  0  0  0  0  0  0  0  0  0  0
   45.1321   33.4490   39.6702 H   0  0  0  0  0  0  0  0  0  0  0  0
   43.5773   32.1190   38.3289 H   0  0  0  0  0  0  0  0  0  0  0  0
   46.5694   31.6975   35.3029 H   0  0  0  0  0  0  0  0  0  0  0  0
  1  6  1  0
  2  3  2  0
  2  1  1  0
  5  6  1  0
  5  4  1  0
  6  4  1  0
  7  8  2  0
  8  4  1  0
  8  9  1  0
 10  9  2  0
 11 10  1  0
 12  7  1  0
 12 11  2  0
 13 14  1  0
 13  2  1  0
 15 13  1  0
 15 14  1  0
 16 15  1  0
 17 16  2  0
 18 19  1  0
 19 20  2  0
 20 21  1  0
 20 16  1  0
 22 21  2  0
 23 22  1  0
 24 23  1  0
 25 23  2  0
 25 19  1  0
  1 26  1  0
  4 27  1  1
  5 28  1  0
  5 29  1  0
  6 30  1  1
  7 31  1  0
  9 32  1  0
 11 33  1  0
 13 34  1  6
 14 35  1  0
 14 36  1  0
 15 37  1  1
 21 38  1  0
 22 39  1  0
 25 40  1  0
M  ISO  8  27  13  28  13  29  13  30  13  31  14  32  14  33  14  34  13
M  ISO  6  35  13  36  13  37  13  38  14  39  14  40  14
M  END
>  <minimizedAffinity>  (1) 
-5.23166609

>  <minimizedRMSD>  (1) 
0.593510687

$$$$
