
     RDKit          3D

 37 39  0  0  0  0  0  0  0  0999 V2000
   46.2860   34.0820   40.9670 C   0  0  0  0  0  0  0  0  0  0  0  0
   46.8390   34.8000   42.0130 C   0  0  0  0  0  0  0  0  0  0  0  0
   48.0650   35.3770   41.7980 C   0  0  0  0  0  0  0  0  0  0  0  0
   48.7280   35.2500   40.5880 C   0  0  0  0  0  0  0  0  0  0  0  0
   48.1730   34.5450   39.5760 C   0  0  0  0  0  0  0  0  0  0  0  0
   46.9360   33.9360   39.7250 C   0  0  0  0  0  0  0  0  0  0  0  0
   44.5300   36.0290   44.7190 C   0  0  0  0  0  0  0  0  0  0  0  0
   45.2460   35.9560   43.5140 C   0  0  0  0  0  0  0  0  0  0  0  0
   46.0970   34.8930   43.2400 C   0  0  0  0  0  0  0  0  0  0  0  0
   46.1660   33.9680   44.2140 N   0  0  0  0  0  0  0  0  0  0  0  0
   45.4840   34.0290   45.3720 C   0  0  0  0  0  0  0  0  0  0  0  0
   44.6660   35.0600   45.6240 N   0  0  0  0  0  0  0  0  0  0  0  0
   45.0490   33.4820   41.1390 O   0  0  0  0  0  0  0  0  0  0  0  0
   46.2930   33.2000   38.7590 O   0  0  0  0  0  0  0  0  0  0  0  0
   46.0350   32.9830   35.9470 N   0  0  0  0  0  0  0  0  0  0  0  0
   47.3980   32.5170   36.0300 C   0  0  0  0  0  0  0  0  0  0  0  0
   47.7390   31.8790   37.3300 C   0  0  0  0  0  0  0  0  0  0  0  0
   46.6090   31.9220   38.3340 C   0  0  0  0  0  0  0  0  0  0  0  0
   45.4210   31.2750   37.6270 C   0  0  0  0  0  0  0  0  0  0  0  0
   45.0680   32.0180   36.3870 C   0  0  0  0  0  0  0  0  0  0  0  0
   48.5339   35.9556   42.6075 H   0  0  0  0  0  0  0  0  0  0  0  0
   49.7105   35.7249   40.4498 H   0  0  0  0  0  0  0  0  0  0  0  0
   48.7107   34.4533   38.6207 H   0  0  0  0  0  0  0  0  0  0  0  0
   43.8612   36.8801   44.9151 H   0  0  0  0  0  0  0  0  0  0  0  0
   45.1307   36.7582   42.7703 H   0  0  0  0  0  0  0  0  0  0  0  0
   45.5986   33.2275   46.1166 H   0  0  0  0  0  0  0  0  0  0  0  0
   44.6421   32.9655   40.3988 H   0  0  0  0  0  0  0  0  0  0  0  0
   45.9431   33.8256   36.5322 H   0  0  0  0  0  0  0  0  0  0  0  0
   47.5616   31.7806   35.2294 H   0  0  0  0  0  0  0  0  0  0  0  0
   48.0444   33.4013   35.9291 H   0  0  0  0  0  0  0  0  0  0  0  0
   48.0007   30.8269   37.1442 H   0  0  0  0  0  0  0  0  0  0  0  0
   48.5778   32.4459   37.7602 H   0  0  0  0  0  0  0  0  0  0  0  0
   46.9000   31.3932   39.2536 H   0  0  0  0  0  0  0  0  0  0  0  0
   45.6800   30.2388   37.3639 H   0  0  0  0  0  0  0  0  0  0  0  0
   44.5558   31.2959   38.3059 H   0  0  0  0  0  0  0  0  0  0  0  0
   44.1201   32.5463   36.5670 H   0  0  0  0  0  0  0  0  0  0  0  0
   45.0111   31.2630   35.5891 H   0  0  0  0  0  0  0  0  0  0  0  0
  1 13  1  0
  1  2  2  0
  2  9  1  0
  3  2  1  0
  4  3  2  0
  5  6  2  0
  5  4  1  0
  6  1  1  0
  7 12  2  0
  8  7  1  0
  9  8  2  0
  9 10  1  0
 10 11  2  0
 11 12  1  0
 14  6  1  0
 15 16  1  0
 15 20  1  0
 16 17  1  0
 17 18  1  0
 18 14  1  0
 19 18  1  0
 20 19  1  0
  3 21  1  0
  4 22  1  0
  5 23  1  0
  7 24  1  0
  8 25  1  0
 11 26  1  0
 13 27  1  0
 15 28  1  0
 16 29  1  0
 16 30  1  0
 17 31  1  0
 17 32  1  0
 18 33  1  0
 19 34  1  0
 19 35  1  0
 20 36  1  0
 20 37  1  0
M  ISO  8  21  14  22  14  23  14  24  14  25  14  26  14  27   3  28   5
M  ISO  8  29  13  30  13  31  13  32  13  33  13  34  13  35  13  36  13
M  ISO  1  37  13
M  END
>  <minimizedAffinity>  (1) 
-5.6623683

>  <minimizedRMSD>  (1) 
1.60339224

$$$$
