
     RDKit          3D

 24 25  0  0  0  0  0  0  0  0999 V2000
   46.3080   34.0100   40.9880 C   0  0  0  0  0  0  0  0  0  0  0  0
   46.8350   34.7760   41.9920 C   0  0  0  0  0  0  0  0  0  0  0  0
   48.0320   35.3860   41.7600 C   0  0  0  0  0  0  0  0  0  0  0  0
   48.7000   35.2440   40.5570 C   0  0  0  0  0  0  0  0  0  0  0  0
   48.1680   34.4800   39.5620 C   0  0  0  0  0  0  0  0  0  0  0  0
   46.9560   33.8460   39.7600 C   0  0  0  0  0  0  0  0  0  0  0  0
   44.5310   36.0330   44.7050 C   0  0  0  0  0  0  0  0  0  0  0  0
   45.2360   35.9630   43.4930 C   0  0  0  0  0  0  0  0  0  0  0  0
   46.0890   34.8880   43.2290 C   0  0  0  0  0  0  0  0  0  0  0  0
   46.1640   33.9670   44.2090 N   0  0  0  0  0  0  0  0  0  0  0  0
   45.4890   34.0320   45.3720 C   0  0  0  0  0  0  0  0  0  0  0  0
   44.6760   35.0610   45.6180 N   0  0  0  0  0  0  0  0  0  0  0  0
   45.0790   33.3640   41.1820 O   0  0  0  0  0  0  0  0  0  0  0  0
   46.3360   33.0430   38.7980 O   0  0  0  0  0  0  0  0  0  0  0  0
   46.6760   33.2080   37.4500 C   0  0  0  0  0  0  0  0  0  0  0  0
   45.5190   33.3960   36.9620 O   0  0  0  0  0  0  0  0  0  0  0  0
   48.4784   36.0075   42.5503 H   0  0  0  0  0  0  0  0  0  0  0  0
   49.6646   35.7499   40.4030 H   0  0  0  0  0  0  0  0  0  0  0  0
   48.7005   34.3684   38.6060 H   0  0  0  0  0  0  0  0  0  0  0  0
   43.8616   36.8825   44.9054 H   0  0  0  0  0  0  0  0  0  0  0  0
   45.1160   36.7607   42.7452 H   0  0  0  0  0  0  0  0  0  0  0  0
   45.6080   33.2352   46.1210 H   0  0  0  0  0  0  0  0  0  0  0  0
   44.6924   32.8084   40.4596 H   0  0  0  0  0  0  0  0  0  0  0  0
   47.6591   33.1823   36.9572 H   0  0  0  0  0  0  0  0  0  0  0  0
  1 13  1  0
  1  2  2  0
  2  9  1  0
  3  2  1  0
  4  3  2  0
  5  6  2  0
  5  4  1  0
  6  1  1  0
  7 12  2  0
  8  7  1  0
  9  8  2  0
  9 10  1  0
 10 11  2  0
 11 12  1  0
 14  6  1  0
 15 14  1  0
 16 15  2  0
  3 17  1  0
  4 18  1  0
  5 19  1  0
  7 20  1  0
  8 21  1  0
 11 22  1  0
 13 23  1  0
 15 24  1  0
M  ISO  8  17  14  18  14  19  14  20  14  21  14  22  14  23   3  24   6
M  END
>  <minimizedAffinity>  (1) 
-5.05944967

>  <minimizedRMSD>  (1) 
0.950739622

$$$$
