
     RDKit          3D

 29 31  0  0  0  0  0  0  0  0999 V2000
   46.4880   33.5720   41.3460 C   0  0  0  0  0  0  0  0  0  0  0  0
   46.8310   34.6130   42.1890 C   0  0  0  0  0  0  0  0  0  0  0  0
   47.8610   35.4110   41.8030 C   0  0  0  0  0  0  0  0  0  0  0  0
   48.5450   35.2050   40.6210 C   0  0  0  0  0  0  0  0  0  0  0  0
   48.1970   34.1710   39.7930 C   0  0  0  0  0  0  0  0  0  0  0  0
   47.1440   33.3210   40.1470 C   0  0  0  0  0  0  0  0  0  0  0  0
   44.4770   35.9410   44.8140 C   0  0  0  0  0  0  0  0  0  0  0  0
   45.1920   35.8130   43.6180 C   0  0  0  0  0  0  0  0  0  0  0  0
   46.0780   34.7770   43.4090 C   0  0  0  0  0  0  0  0  0  0  0  0
   46.1920   33.9100   44.4530 N   0  0  0  0  0  0  0  0  0  0  0  0
   45.5130   34.0200   45.6080 C   0  0  0  0  0  0  0  0  0  0  0  0
   44.6540   35.0400   45.7860 N   0  0  0  0  0  0  0  0  0  0  0  0
   45.4420   32.7250   41.6920 O   0  0  0  0  0  0  0  0  0  0  0  0
   46.7410   32.2630   39.3610 O   0  0  0  0  0  0  0  0  0  0  0  0
   46.5800   32.2960   38.0220 C   0  0  0  0  0  0  0  0  0  0  0  0
   45.5030   32.7720   37.2800 C   0  0  0  0  0  0  0  0  0  0  0  0
   45.5940   32.6850   35.9180 C   0  0  0  0  0  0  0  0  0  0  0  0
   46.7900   32.1120   35.3500 C   0  0  0  0  0  0  0  0  0  0  0  0
   47.7890   31.6970   36.8250 S   0  0  0  0  0  0  0  0  0  0  0  0
   48.1593   36.2473   42.4524 H   0  0  0  0  0  0  0  0  0  0  0  0
   49.3727   35.8742   40.3434 H   0  0  0  0  0  0  0  0  0  0  0  0
   48.7440   34.0095   38.8524 H   0  0  0  0  0  0  0  0  0  0  0  0
   43.7749   36.7762   44.9535 H   0  0  0  0  0  0  0  0  0  0  0  0
   45.0434   36.5587   42.8232 H   0  0  0  0  0  0  0  0  0  0  0  0
   45.6595   33.2774   46.4061 H   0  0  0  0  0  0  0  0  0  0  0  0
   45.1913   31.9778   41.0929 H   0  0  0  0  0  0  0  0  0  0  0  0
   44.6155   33.2004   37.7686 H   0  0  0  0  0  0  0  0  0  0  0  0
   44.7775   33.0422   35.2733 H   0  0  0  0  0  0  0  0  0  0  0  0
   47.0400   31.9615   34.2894 H   0  0  0  0  0  0  0  0  0  0  0  0
  1 13  1  0
  1  2  2  0
  2  9  1  0
  3  2  1  0
  4  3  2  0
  5  6  2  0
  5  4  1  0
  6  1  1  0
  7 12  2  0
  8  7  1  0
  9  8  2  0
  9 10  1  0
 10 11  2  0
 11 12  1  0
 14  6  1  0
 15 14  1  0
 16 15  2  0
 17 16  1  0
 18 17  2  0
 18 19  1  0
 19 15  1  0
  3 20  1  0
  4 21  1  0
  5 22  1  0
  7 23  1  0
  8 24  1  0
 11 25  1  0
 13 26  1  0
 16 27  1  0
 17 28  1  0
 18 29  1  0
M  ISO  8  20  14  21  14  22  14  23  14  24  14  25  14  26   3  27  14
M  ISO  2  28  14  29  14
M  END
>  <minimizedAffinity>  (1) 
-5.12458277

>  <minimizedRMSD>  (1) 
1.91307819

$$$$
