
     RDKit          3D

 40 43  0  0  1  0  0  0  0  0999 V2000
   48.0700   33.2390   43.2480 N   0  0  0  0  0  0  0  0  0  0  0  0
   49.2310   33.2750   42.4800 C   0  0  0  0  0  0  0  0  0  0  0  0
   50.3830   32.8280   42.7190 O   0  0  0  0  0  0  0  0  0  0  0  0
   46.2730   32.0960   44.4980 C   0  0  1  0  0  0  0  0  0  0  0  0
   46.4450   31.3620   43.3170 C   0  0  0  0  0  0  0  0  0  0  0  0
   47.6590   32.0880   43.9730 C   0  0  1  0  0  0  0  0  0  0  0  0
   45.0510   33.9720   43.1630 C   0  0  0  0  0  0  0  0  0  0  0  0
   45.5340   33.4400   44.4060 C   0  0  0  0  0  0  0  0  0  0  0  0
   45.3340   34.1960   45.5440 C   0  0  0  0  0  0  0  0  0  0  0  0
   44.7040   35.3850   45.4420 N   0  0  0  0  0  0  0  0  0  0  0  0
   44.2510   35.8780   44.2550 C   0  0  0  0  0  0  0  0  0  0  0  0
   44.4370   35.1380   43.0850 N   0  0  0  0  0  0  0  0  0  0  0  0
   49.2000   33.9350   41.1140 C   0  0  2  0  0  0  0  0  0  0  0  0
   48.7410   35.4410   41.0820 C   0  0  0  0  0  0  0  0  0  0  0  0
   47.9370   34.3440   40.4920 C   0  0  1  0  0  0  0  0  0  0  0  0
   47.8480   34.2480   38.9850 C   0  0  0  0  0  0  0  0  0  0  0  0
   48.6620   34.8350   38.2880 O   0  0  0  0  0  0  0  0  0  0  0  0
   46.8080   33.4680   38.3160 C   0  0  0  0  0  0  0  0  0  0  0  0
   46.9720   33.2110   36.9700 C   0  0  0  0  0  0  0  0  0  0  0  0
   46.0580   32.4870   36.2290 C   0  0  0  0  0  0  0  0  0  0  0  0
   44.9330   31.9810   36.8030 C   0  0  0  0  0  0  0  0  0  0  0  0
   44.7570   32.2260   38.1290 C   0  0  0  0  0  0  0  0  0  0  0  0
   45.6610   32.9480   38.8780 C   0  0  0  0  0  0  0  0  0  0  0  0
   47.4830   34.0842   43.2926 H   0  0  0  0  0  0  0  0  0  0  0  0
   45.8278   31.8295   45.4679 H   0  0  0  0  0  0  0  0  0  0  0  0
   46.0260   31.7352   42.3709 H   0  0  0  0  0  0  0  0  0  0  0  0
   46.2314   30.3295   43.0034 H   0  0  0  0  0  0  0  0  0  0  0  0
   48.6532   31.8439   44.3755 H   0  0  0  0  0  0  0  0  0  0  0  0
   45.1978   33.3872   42.2430 H   0  0  0  0  0  0  0  0  0  0  0  0
   45.6839   33.8335   46.5218 H   0  0  0  0  0  0  0  0  0  0  0  0
   43.7421   36.8525   44.2185 H   0  0  0  0  0  0  0  0  0  0  0  0
   50.0534   33.3319   40.7707 H   0  0  0  0  0  0  0  0  0  0  0  0
   48.4091   35.9424   42.0031 H   0  0  0  0  0  0  0  0  0  0  0  0
   49.1650   36.3928   40.7293 H   0  0  0  0  0  0  0  0  0  0  0  0
   46.8901   34.0346   40.6274 H   0  0  0  0  0  0  0  0  0  0  0  0
   47.8690   33.5993   36.4655 H   0  0  0  0  0  0  0  0  0  0  0  0
   46.2427   32.3170   35.1580 H   0  0  0  0  0  0  0  0  0  0  0  0
   44.2006   31.4013   36.2221 H   0  0  0  0  0  0  0  0  0  0  0  0
   43.8569   31.8321   38.6237 H   0  0  0  0  0  0  0  0  0  0  0  0
   45.4633   33.1131   39.9474 H   0  0  0  0  0  0  0  0  0  0  0  0
  1  6  1  0
  2  3  2  0
  2  1  1  0
  5  6  1  0
  5  4  1  0
  6  4  1  0
  7  8  2  0
  8  4  1  0
  8  9  1  0
 10  9  2  0
 11 10  1  0
 12  7  1  0
 12 11  2  0
 13  2  1  0
 14 13  1  0
 15 14  1  0
 15 13  1  0
 16 15  1  0
 17 16  2  0
 18 23  1  0
 18 16  1  0
 19 18  2  0
 20 21  2  0
 20 19  1  0
 21 22  1  0
 22 23  2  0
  1 24  1  0
  4 25  1  1
  5 26  1  0
  5 27  1  0
  6 28  1  1
  7 29  1  0
  9 30  1  0
 11 31  1  0
 13 32  1  6
 14 33  1  0
 14 34  1  0
 15 35  1  1
 19 36  1  0
 20 37  1  0
 21 38  1  0
 22 39  1  0
 23 40  1  0
M  ISO  8  25  13  26  13  27  13  28  13  29  14  30  14  31  14  32  13
M  ISO  8  33  13  34  13  35  13  36  14  37  14  38  14  39  14  40  14
M  END
>  <minimizedAffinity>  (1) 
-4.94154406

>  <minimizedRMSD>  (1) 
0.365903467

$$$$
