
     RDKit          3D

 42 46  0  0  0  0  0  0  0  0999 V2000
   46.5560   32.1490   39.0970 O   0  0  0  0  0  0  0  0  0  0  0  0
   46.3940   33.5110   41.0510 C   0  0  0  0  0  0  0  0  0  0  0  0
   46.7990   34.5570   41.8620 C   0  0  0  0  0  0  0  0  0  0  0  0
   47.8490   35.2940   41.4390 C   0  0  0  0  0  0  0  0  0  0  0  0
   48.5080   35.0290   40.2430 C   0  0  0  0  0  0  0  0  0  0  0  0
   48.0980   33.9920   39.4490 C   0  0  0  0  0  0  0  0  0  0  0  0
   47.0140   33.1990   39.8450 C   0  0  0  0  0  0  0  0  0  0  0  0
   44.5870   36.0520   44.5220 C   0  0  0  0  0  0  0  0  0  0  0  0
   45.2680   35.8660   43.3140 C   0  0  0  0  0  0  0  0  0  0  0  0
   46.0780   34.7840   43.0920 C   0  0  0  0  0  0  0  0  0  0  0  0
   46.1580   33.9120   44.1460 N   0  0  0  0  0  0  0  0  0  0  0  0
   45.5100   34.0760   45.3110 C   0  0  0  0  0  0  0  0  0  0  0  0
   44.7180   35.1580   45.4950 N   0  0  0  0  0  0  0  0  0  0  0  0
   45.3140   32.7220   41.4460 O   0  0  0  0  0  0  0  0  0  0  0  0
   46.5100   32.1040   37.7510 C   0  0  0  0  0  0  0  0  0  0  0  0
   45.6940   32.7640   36.8540 C   0  0  0  0  0  0  0  0  0  0  0  0
   45.8500   32.5430   35.5240 C   0  0  0  0  0  0  0  0  0  0  0  0
   46.8700   31.6220   35.1420 C   0  0  0  0  0  0  0  0  0  0  0  0
   47.5940   31.0880   36.7270 S   0  0  0  0  0  0  0  0  0  0  0  0
   47.2370   31.2200   33.8650 N   0  0  0  0  0  0  0  0  0  0  0  0
   46.9300   30.1120   33.1960 C   0  0  0  0  0  0  0  0  0  0  0  0
   47.5280   30.1720   31.9770 N   0  0  0  0  0  0  0  0  0  0  0  0
   48.2060   31.3190   31.8940 C   0  0  0  0  0  0  0  0  0  0  0  0
   48.9770   31.8660   30.8870 C   0  0  0  0  0  0  0  0  0  0  0  0
   49.5500   33.0580   31.0840 N   0  0  0  0  0  0  0  0  0  0  0  0
   49.3730   33.7140   32.2560 C   0  0  0  0  0  0  0  0  0  0  0  0
   48.6260   33.1970   33.2470 N   0  0  0  0  0  0  0  0  0  0  0  0
   48.0360   32.0140   33.0950 C   0  0  0  0  0  0  0  0  0  0  0  0
   49.1960   31.2200   29.6380 N   0  0  0  0  0  0  0  0  0  0  0  0
   48.1947   36.1324   42.0616 H   0  0  0  0  0  0  0  0  0  0  0  0
   49.3596   35.6534   39.9349 H   0  0  0  0  0  0  0  0  0  0  0  0
   48.6185   33.7823   38.5029 H   0  0  0  0  0  0  0  0  0  0  0  0
   43.9462   36.9346   44.6650 H   0  0  0  0  0  0  0  0  0  0  0  0
   45.1489   36.6136   42.5160 H   0  0  0  0  0  0  0  0  0  0  0  0
   45.6227   33.3325   46.1138 H   0  0  0  0  0  0  0  0  0  0  0  0
   45.0146   31.9709   40.8748 H   0  0  0  0  0  0  0  0  0  0  0  0
   44.9244   33.4626   37.2140 H   0  0  0  0  0  0  0  0  0  0  0  0
   45.2207   33.0493   34.7773 H   0  0  0  0  0  0  0  0  0  0  0  0
   46.3006   29.2891   33.5657 H   0  0  0  0  0  0  0  0  0  0  0  0
   49.8522   34.6936   32.4003 H   0  0  0  0  0  0  0  0  0  0  0  0
   48.7700   30.3009   29.4519 H   0  0  0  0  0  0  0  0  0  0  0  0
   49.7805   31.6716   28.9201 H   0  0  0  0  0  0  0  0  0  0  0  0
  1  7  1  0
  2 14  1  0
  2  3  2  0
  3 10  1  0
  4  3  1  0
  5  4  2  0
  6  7  2  0
  6  5  1  0
  7  2  1  0
  8 13  2  0
  9  8  1  0
 10  9  2  0
 10 11  1  0
 11 12  2  0
 12 13  1  0
 15  1  1  0
 16 15  2  0
 17 16  1  0
 18 17  2  0
 18 19  1  0
 19 15  1  0
 20 18  1  0
 21 20  1  0
 22 21  2  0
 23 22  1  0
 23 28  2  0
 24 25  2  0
 24 23  1  0
 25 26  1  0
 26 27  2  0
 28 27  1  0
 28 20  1  0
 29 24  1  0
  4 30  1  0
  5 31  1  0
  6 32  1  0
  8 33  1  0
  9 34  1  0
 12 35  1  0
 14 36  1  0
 16 37  1  0
 17 38  1  0
 21 39  1  0
 26 40  1  0
 29 41  1  0
 29 42  1  0
M  ISO  8  30  14  31  14  32  14  33  14  34  14  35  14  36   3  37  14
M  ISO  3  38  14  39  14  40  14
M  END
>  <minimizedAffinity>  (1) 
-7.37012911

>  <minimizedRMSD>  (1) 
0.639083564

$$$$
