
     RDKit          3D

 39 42  0  0  0  0  0  0  0  0999 V2000
   46.4280   33.6320   41.1440 C   0  0  0  0  0  0  0  0  0  0  0  0
   46.8270   34.6490   42.0040 C   0  0  0  0  0  0  0  0  0  0  0  0
   47.8900   35.3920   41.6300 C   0  0  0  0  0  0  0  0  0  0  0  0
   48.5680   35.1670   40.4450 C   0  0  0  0  0  0  0  0  0  0  0  0
   48.1640   34.1560   39.6010 C   0  0  0  0  0  0  0  0  0  0  0  0
   47.0720   33.3610   39.9410 C   0  0  0  0  0  0  0  0  0  0  0  0
   44.5270   36.0190   44.6510 C   0  0  0  0  0  0  0  0  0  0  0  0
   45.2310   35.8800   43.4580 C   0  0  0  0  0  0  0  0  0  0  0  0
   46.0790   34.8310   43.2240 C   0  0  0  0  0  0  0  0  0  0  0  0
   46.1620   33.9540   44.2570 N   0  0  0  0  0  0  0  0  0  0  0  0
   45.4960   34.0610   45.4200 C   0  0  0  0  0  0  0  0  0  0  0  0
   44.6700   35.1050   45.6160 N   0  0  0  0  0  0  0  0  0  0  0  0
   45.3410   32.8310   41.4710 O   0  0  0  0  0  0  0  0  0  0  0  0
   46.6380   32.3470   39.1320 O   0  0  0  0  0  0  0  0  0  0  0  0
   46.6780   32.3340   37.7790 C   0  0  0  0  0  0  0  0  0  0  0  0
   45.6950   32.6120   36.8500 C   0  0  0  0  0  0  0  0  0  0  0  0
   45.9900   32.5280   35.5300 C   0  0  0  0  0  0  0  0  0  0  0  0
   47.3200   32.1540   35.1940 C   0  0  0  0  0  0  0  0  0  0  0  0
   48.1360   31.9240   36.8160 S   0  0  0  0  0  0  0  0  0  0  0  0
   47.9140   31.9870   33.8890 C   0  0  0  0  0  0  0  0  0  0  0  0
   47.5910   30.9120   33.0900 C   0  0  0  0  0  0  0  0  0  0  0  0
   48.2080   30.8350   31.8580 C   0  0  0  0  0  0  0  0  0  0  0  0
   49.1130   31.7820   31.4260 C   0  0  0  0  0  0  0  0  0  0  0  0
   49.4040   32.8400   32.2610 C   0  0  0  0  0  0  0  0  0  0  0  0
   48.8090   32.9640   33.5130 C   0  0  0  0  0  0  0  0  0  0  0  0
   48.2289   36.2042   42.2899 H   0  0  0  0  0  0  0  0  0  0  0  0
   49.4299   35.7956   40.1768 H   0  0  0  0  0  0  0  0  0  0  0  0
   48.7034   33.9767   38.6592 H   0  0  0  0  0  0  0  0  0  0  0  0
   43.8556   36.8777   44.7990 H   0  0  0  0  0  0  0  0  0  0  0  0
   45.1011   36.6411   42.6745 H   0  0  0  0  0  0  0  0  0  0  0  0
   45.6253   33.3013   46.2049 H   0  0  0  0  0  0  0  0  0  0  0  0
   45.0575   32.1070   40.8581 H   0  0  0  0  0  0  0  0  0  0  0  0
   44.6846   32.8982   37.1774 H   0  0  0  0  0  0  0  0  0  0  0  0
   45.2372   32.7389   34.7562 H   0  0  0  0  0  0  0  0  0  0  0  0
   46.8720   30.1477   33.4200 H   0  0  0  0  0  0  0  0  0  0  0  0
   47.9697   29.9885   31.1972 H   0  0  0  0  0  0  0  0  0  0  0  0
   49.5911   31.6953   30.4391 H   0  0  0  0  0  0  0  0  0  0  0  0
   50.1231   33.6037   31.9299 H   0  0  0  0  0  0  0  0  0  0  0  0
   49.0443   33.8093   34.1764 H   0  0  0  0  0  0  0  0  0  0  0  0
  1 13  1  0
  1  2  2  0
  2  9  1  0
  3  2  1  0
  4  3  2  0
  5  6  2  0
  5  4  1  0
  6  1  1  0
  7 12  2  0
  8  7  1  0
  9  8  2  0
  9 10  1  0
 10 11  2  0
 11 12  1  0
 14  6  1  0
 15 14  1  0
 16 15  2  0
 17 16  1  0
 18 17  2  0
 18 19  1  0
 19 15  1  0
 20 18  1  0
 21 20  2  0
 22 21  1  0
 23 22  2  0
 23 24  1  0
 24 25  2  0
 25 20  1  0
  3 26  1  0
  4 27  1  0
  5 28  1  0
  7 29  1  0
  8 30  1  0
 11 31  1  0
 13 32  1  0
 16 33  1  0
 17 34  1  0
 21 35  1  0
 22 36  1  0
 23 37  1  0
 24 38  1  0
 25 39  1  0
M  ISO  8  26  14  27  14  28  14  29  14  30  14  31  14  32   3  33  14
M  ISO  6  34  14  35  14  36  14  37  14  38  14  39  14
M  END
>  <minimizedAffinity>  (1) 
-6.42912817

>  <minimizedRMSD>  (1) 
0.713815153

$$$$
