
     RDKit          3D

 37 40  0  0  0  0  0  0  0  0999 V2000
   46.4520   33.6280   41.1730 C   0  0  0  0  0  0  0  0  0  0  0  0
   46.8400   34.6280   42.0440 C   0  0  0  0  0  0  0  0  0  0  0  0
   47.8970   35.3970   41.6740 C   0  0  0  0  0  0  0  0  0  0  0  0
   48.5670   35.1990   40.4810 C   0  0  0  0  0  0  0  0  0  0  0  0
   48.1720   34.2010   39.6260 C   0  0  0  0  0  0  0  0  0  0  0  0
   47.0950   33.3870   39.9580 C   0  0  0  0  0  0  0  0  0  0  0  0
   44.5140   35.9350   44.7110 C   0  0  0  0  0  0  0  0  0  0  0  0
   45.2200   35.8060   43.5160 C   0  0  0  0  0  0  0  0  0  0  0  0
   46.0960   34.7830   43.2760 C   0  0  0  0  0  0  0  0  0  0  0  0
   46.2230   33.8950   44.3080 N   0  0  0  0  0  0  0  0  0  0  0  0
   45.5550   34.0000   45.4620 C   0  0  0  0  0  0  0  0  0  0  0  0
   44.6960   35.0220   45.6710 N   0  0  0  0  0  0  0  0  0  0  0  0
   45.3810   32.8160   41.5020 O   0  0  0  0  0  0  0  0  0  0  0  0
   46.6590   32.3790   39.1430 O   0  0  0  0  0  0  0  0  0  0  0  0
   46.7140   32.3680   37.7970 C   0  0  0  0  0  0  0  0  0  0  0  0
   45.7220   32.5900   36.8640 C   0  0  0  0  0  0  0  0  0  0  0  0
   46.0190   32.5250   35.5420 C   0  0  0  0  0  0  0  0  0  0  0  0
   47.3710   32.2230   35.2110 C   0  0  0  0  0  0  0  0  0  0  0  0
   48.1830   32.0410   36.8210 S   0  0  0  0  0  0  0  0  0  0  0  0
   47.9570   32.0930   33.8580 C   0  0  0  0  0  0  0  0  0  0  0  0
   47.7070   31.0320   33.0170 C   0  0  0  0  0  0  0  0  0  0  0  0
   48.3460   31.0880   31.7980 C   0  0  0  0  0  0  0  0  0  0  0  0
   49.1590   32.0880   31.4210 N   0  0  0  0  0  0  0  0  0  0  0  0
   49.3780   33.1070   32.2730 C   0  0  0  0  0  0  0  0  0  0  0  0
   48.7630   33.0860   33.4910 N   0  0  0  0  0  0  0  0  0  0  0  0
   48.2303   36.2026   42.3448 H   0  0  0  0  0  0  0  0  0  0  0  0
   49.4187   35.8430   40.2165 H   0  0  0  0  0  0  0  0  0  0  0  0
   48.7075   34.0451   38.6779 H   0  0  0  0  0  0  0  0  0  0  0  0
   43.8187   36.7739   44.8618 H   0  0  0  0  0  0  0  0  0  0  0  0
   45.0658   36.5607   42.7307 H   0  0  0  0  0  0  0  0  0  0  0  0
   45.7064   33.2466   46.2491 H   0  0  0  0  0  0  0  0  0  0  0  0
   45.0965   32.0972   40.8836 H   0  0  0  0  0  0  0  0  0  0  0  0
   44.6966   32.8183   37.1902 H   0  0  0  0  0  0  0  0  0  0  0  0
   45.2569   32.6963   34.7675 H   0  0  0  0  0  0  0  0  0  0  0  0
   47.0449   30.1998   33.2982 H   0  0  0  0  0  0  0  0  0  0  0  0
   48.1801   30.2628   31.0898 H   0  0  0  0  0  0  0  0  0  0  0  0
   50.0395   33.9400   31.9929 H   0  0  0  0  0  0  0  0  0  0  0  0
  1 13  1  0
  1  2  2  0
  2  9  1  0
  3  2  1  0
  4  3  2  0
  5  6  2  0
  5  4  1  0
  6  1  1  0
  7 12  2  0
  8  7  1  0
  9  8  2  0
  9 10  1  0
 10 11  2  0
 11 12  1  0
 14  6  1  0
 15 14  1  0
 16 15  2  0
 17 16  1  0
 18 17  2  0
 18 19  1  0
 19 15  1  0
 20 18  1  0
 21 20  2  0
 22 21  1  0
 23 22  2  0
 23 24  1  0
 24 25  2  0
 25 20  1  0
  3 26  1  0
  4 27  1  0
  5 28  1  0
  7 29  1  0
  8 30  1  0
 11 31  1  0
 13 32  1  0
 16 33  1  0
 17 34  1  0
 21 35  1  0
 22 36  1  0
 24 37  1  0
M  ISO  8  26  14  27  14  28  14  29  14  30  14  31  14  32   3  33  14
M  ISO  4  34  14  35  14  36  14  37  14
M  END
>  <minimizedAffinity>  (1) 
-6.42501068

>  <minimizedRMSD>  (1) 
0.654974282

$$$$
