
     RDKit          3D

 44 47  0  0  0  0  0  0  0  0999 V2000
   46.4980   33.7860   41.0470 C   0  0  0  0  0  0  0  0  0  0  0  0
   46.8960   34.7280   41.9830 C   0  0  0  0  0  0  0  0  0  0  0  0
   47.9950   35.4750   41.6760 C   0  0  0  0  0  0  0  0  0  0  0  0
   48.6950   35.3120   40.4870 C   0  0  0  0  0  0  0  0  0  0  0  0
   48.2910   34.3780   39.5720 C   0  0  0  0  0  0  0  0  0  0  0  0
   47.1760   33.6010   39.8520 C   0  0  0  0  0  0  0  0  0  0  0  0
   44.5320   36.0050   44.6130 C   0  0  0  0  0  0  0  0  0  0  0  0
   45.2630   35.8920   43.4330 C   0  0  0  0  0  0  0  0  0  0  0  0
   46.1370   34.8560   43.1960 C   0  0  0  0  0  0  0  0  0  0  0  0
   46.2300   33.9500   44.2060 N   0  0  0  0  0  0  0  0  0  0  0  0
   45.5250   34.0520   45.3550 C   0  0  0  0  0  0  0  0  0  0  0  0
   44.6760   35.0830   45.5540 N   0  0  0  0  0  0  0  0  0  0  0  0
   45.3900   33.0050   41.3140 O   0  0  0  0  0  0  0  0  0  0  0  0
   46.7080   32.6340   38.9740 O   0  0  0  0  0  0  0  0  0  0  0  0
   46.9550   32.5700   37.6590 C   0  0  0  0  0  0  0  0  0  0  0  0
   46.0690   32.4650   36.6080 C   0  0  0  0  0  0  0  0  0  0  0  0
   46.5650   32.4130   35.3350 C   0  0  0  0  0  0  0  0  0  0  0  0
   47.9820   32.4730   35.1990 C   0  0  0  0  0  0  0  0  0  0  0  0
   48.5770   32.6050   36.9000 S   0  0  0  0  0  0  0  0  0  0  0  0
   48.7710   32.4360   34.0490 N   0  0  0  0  0  0  0  0  0  0  0  0
   49.7870   31.3710   33.9890 C   0  0  0  0  0  0  0  0  0  0  0  0
   49.0920   30.2510   33.1990 C   0  0  0  0  0  0  0  0  0  0  0  0
   48.2210   30.9070   32.1530 C   0  0  0  0  0  0  0  0  0  0  0  0
   48.7620   32.2490   31.6910 C   0  0  0  0  0  0  0  0  0  0  0  0
   48.7980   33.2540   32.8490 C   0  0  0  0  0  0  0  0  0  0  0  0
   48.3392   36.2331   42.3949 H   0  0  0  0  0  0  0  0  0  0  0  0
   49.5771   35.9359   40.2804 H   0  0  0  0  0  0  0  0  0  0  0  0
   48.8417   34.2453   38.6291 H   0  0  0  0  0  0  0  0  0  0  0  0
   43.8432   36.8496   44.7622 H   0  0  0  0  0  0  0  0  0  0  0  0
   45.1365   36.6628   42.6585 H   0  0  0  0  0  0  0  0  0  0  0  0
   45.6443   33.2869   46.1362 H   0  0  0  0  0  0  0  0  0  0  0  0
   45.0919   32.3275   40.6566 H   0  0  0  0  0  0  0  0  0  0  0  0
   44.9849   32.4239   36.7899 H   0  0  0  0  0  0  0  0  0  0  0  0
   45.9036   32.3291   34.4601 H   0  0  0  0  0  0  0  0  0  0  0  0
   50.6897   31.7187   33.4654 H   0  0  0  0  0  0  0  0  0  0  0  0
   50.1239   31.0457   34.9843 H   0  0  0  0  0  0  0  0  0  0  0  0
   49.8439   29.6109   32.7142 H   0  0  0  0  0  0  0  0  0  0  0  0
   48.4868   29.6223   33.8687 H   0  0  0  0  0  0  0  0  0  0  0  0
   48.1528   30.2376   31.2828 H   0  0  0  0  0  0  0  0  0  0  0  0
   47.2362   31.0871   32.6088 H   0  0  0  0  0  0  0  0  0  0  0  0
   49.7817   32.1114   31.3020 H   0  0  0  0  0  0  0  0  0  0  0  0
   48.1003   32.6425   30.9053 H   0  0  0  0  0  0  0  0  0  0  0  0
   49.7175   33.8566   32.8111 H   0  0  0  0  0  0  0  0  0  0  0  0
   47.9582   33.9634   32.8103 H   0  0  0  0  0  0  0  0  0  0  0  0
  1 13  1  0
  1  2  2  0
  2  9  1  0
  3  2  1  0
  4  3  2  0
  5  6  2  0
  5  4  1  0
  6  1  1  0
  7 12  2  0
  8  7  1  0
  9  8  2  0
  9 10  1  0
 10 11  2  0
 11 12  1  0
 14  6  1  0
 15 14  1  0
 16 15  2  0
 17 16  1  0
 18 17  2  0
 18 19  1  0
 19 15  1  0
 20 18  1  0
 21 20  1  0
 22 21  1  0
 23 22  1  0
 24 23  1  0
 24 25  1  0
 25 20  1  0
  3 26  1  0
  4 27  1  0
  5 28  1  0
  7 29  1  0
  8 30  1  0
 11 31  1  0
 13 32  1  0
 16 33  1  0
 17 34  1  0
 21 35  1  0
 21 36  1  0
 22 37  1  0
 22 38  1  0
 23 39  1  0
 23 40  1  0
 24 41  1  0
 24 42  1  0
 25 43  1  0
 25 44  1  0
M  ISO  8  26  14  27  14  28  14  29  14  30  14  31  14  32   3  33  14
M  ISO  8  34  14  35  13  36  13  37  13  38  13  39  13  40  13  41  13
M  ISO  3  42  13  43  13  44  13
M  END
>  <minimizedAffinity>  (1) 
-6.42391348

>  <minimizedRMSD>  (1) 
1.14221108

$$$$
