
     RDKit          3D

 35 37  0  0  0  0  0  0  0  0999 V2000
   46.5900   33.6700   41.3220 C   0  0  0  0  0  0  0  0  0  0  0  0
   46.9020   34.6880   42.2010 C   0  0  0  0  0  0  0  0  0  0  0  0
   47.9310   35.5110   41.8540 C   0  0  0  0  0  0  0  0  0  0  0  0
   48.6380   35.3430   40.6750 C   0  0  0  0  0  0  0  0  0  0  0  0
   48.3140   34.3240   39.8130 C   0  0  0  0  0  0  0  0  0  0  0  0
   47.2680   33.4540   40.1240 C   0  0  0  0  0  0  0  0  0  0  0  0
   44.4850   35.8910   44.8310 C   0  0  0  0  0  0  0  0  0  0  0  0
   45.2190   35.8120   43.6370 C   0  0  0  0  0  0  0  0  0  0  0  0
   46.1260   34.8080   43.4130 C   0  0  0  0  0  0  0  0  0  0  0  0
   46.2480   33.9100   44.4380 N   0  0  0  0  0  0  0  0  0  0  0  0
   45.5500   33.9760   45.5840 C   0  0  0  0  0  0  0  0  0  0  0  0
   44.6630   34.9780   45.7770 N   0  0  0  0  0  0  0  0  0  0  0  0
   45.5540   32.8060   41.6290 O   0  0  0  0  0  0  0  0  0  0  0  0
   46.9040   32.4240   39.3010 O   0  0  0  0  0  0  0  0  0  0  0  0
   47.1590   32.3450   37.9730 C   0  0  0  0  0  0  0  0  0  0  0  0
   46.3510   32.4980   36.8660 C   0  0  0  0  0  0  0  0  0  0  0  0
   46.8950   32.3590   35.6330 C   0  0  0  0  0  0  0  0  0  0  0  0
   48.2840   32.0600   35.5690 C   0  0  0  0  0  0  0  0  0  0  0  0
   48.8090   31.9800   37.3180 S   0  0  0  0  0  0  0  0  0  0  0  0
   49.0480   31.8760   34.4620 O   0  0  0  0  0  0  0  0  0  0  0  0
   47.5910   30.7680   32.4980 O   0  0  0  0  0  0  0  0  0  0  0  0
   48.5220   31.9010   32.8550 P   0  0  0  0  0  0  0  0  0  0  0  0
   47.7160   33.3910   32.6240 O   0  0  0  0  0  0  0  0  0  0  0  0
   49.8880   31.9000   31.8360 O   0  0  0  0  0  0  0  0  0  0  0  0
   48.2084   36.3331   42.5302 H   0  0  0  0  0  0  0  0  0  0  0  0
   49.4622   36.0283   40.4280 H   0  0  0  0  0  0  0  0  0  0  0  0
   48.8786   34.1937   38.8780 H   0  0  0  0  0  0  0  0  0  0  0  0
   43.7640   36.7079   44.9819 H   0  0  0  0  0  0  0  0  0  0  0  0
   45.0626   36.5754   42.8607 H   0  0  0  0  0  0  0  0  0  0  0  0
   45.7000   33.2156   46.3645 H   0  0  0  0  0  0  0  0  0  0  0  0
   45.3206   32.0721   41.0068 H   0  0  0  0  0  0  0  0  0  0  0  0
   45.2819   32.7292   36.9822 H   0  0  0  0  0  0  0  0  0  0  0  0
   46.2893   32.4724   34.7218 H   0  0  0  0  0  0  0  0  0  0  0  0
   47.5004   33.7895   33.5042 H   0  0  0  0  0  0  0  0  0  0  0  0
   50.7106   31.8994   32.3868 H   0  0  0  0  0  0  0  0  0  0  0  0
  1 13  1  0
  1  2  2  0
  2  9  1  0
  3  2  1  0
  4  3  2  0
  5  6  2  0
  5  4  1  0
  6  1  1  0
  7 12  2  0
  8  7  1  0
  9  8  2  0
  9 10  1  0
 10 11  2  0
 11 12  1  0
 14  6  1  0
 15 14  1  0
 16 15  2  0
 17 16  1  0
 18 17  2  0
 18 19  1  0
 19 15  1  0
 20 18  1  0
 21 22  2  0
 22 20  1  0
 23 22  1  0
 24 22  1  0
  3 25  1  0
  4 26  1  0
  5 27  1  0
  7 28  1  0
  8 29  1  0
 11 30  1  0
 13 31  1  0
 16 32  1  0
 17 33  1  0
 23 34  1  0
 24 35  1  0
M  ISO  8  25  14  26  14  27  14  28  14  29  14  30  14  31   3  32  14
M  ISO  3  33  14  34   3  35   3
M  END
>  <minimizedAffinity>  (1) 
-6.19400883

>  <minimizedRMSD>  (1) 
1.33398867

$$$$
