
     RDKit          3D

 31 33  0  0  0  0  0  0  0  0999 V2000
   46.5940   33.6140   41.3200 C   0  0  0  0  0  0  0  0  0  0  0  0
   46.9140   34.6560   42.1770 C   0  0  0  0  0  0  0  0  0  0  0  0
   47.9250   35.4760   41.8230 C   0  0  0  0  0  0  0  0  0  0  0  0
   48.6400   35.3010   40.6430 C   0  0  0  0  0  0  0  0  0  0  0  0
   48.3200   34.2660   39.7960 C   0  0  0  0  0  0  0  0  0  0  0  0
   47.2820   33.3980   40.1280 C   0  0  0  0  0  0  0  0  0  0  0  0
   44.4920   35.9120   44.7820 C   0  0  0  0  0  0  0  0  0  0  0  0
   45.2310   35.8000   43.6070 C   0  0  0  0  0  0  0  0  0  0  0  0
   46.1370   34.7900   43.3900 C   0  0  0  0  0  0  0  0  0  0  0  0
   46.2440   33.9150   44.4220 N   0  0  0  0  0  0  0  0  0  0  0  0
   45.5380   34.0040   45.5690 C   0  0  0  0  0  0  0  0  0  0  0  0
   44.6570   35.0130   45.7440 N   0  0  0  0  0  0  0  0  0  0  0  0
   45.5610   32.7470   41.6460 O   0  0  0  0  0  0  0  0  0  0  0  0
   46.9110   32.3440   39.3270 O   0  0  0  0  0  0  0  0  0  0  0  0
   46.5910   32.4300   38.0210 C   0  0  0  0  0  0  0  0  0  0  0  0
   45.4160   32.8190   37.4150 C   0  0  0  0  0  0  0  0  0  0  0  0
   45.3320   32.8240   36.0530 C   0  0  0  0  0  0  0  0  0  0  0  0
   46.4980   32.4160   35.3450 C   0  0  0  0  0  0  0  0  0  0  0  0
   47.6960   32.0310   36.6510 S   0  0  0  0  0  0  0  0  0  0  0  0
   46.5360   32.3770   33.8630 N   0  0  0  0  0  0  0  0  0  0  0  0
   48.1924   36.3097   42.4889 H   0  0  0  0  0  0  0  0  0  0  0  0
   49.4596   35.9889   40.3878 H   0  0  0  0  0  0  0  0  0  0  0  0
   48.8810   34.1240   38.8605 H   0  0  0  0  0  0  0  0  0  0  0  0
   43.7777   36.7385   44.9115 H   0  0  0  0  0  0  0  0  0  0  0  0
   45.0830   36.5526   42.8185 H   0  0  0  0  0  0  0  0  0  0  0  0
   45.6801   33.2546   46.3616 H   0  0  0  0  0  0  0  0  0  0  0  0
   45.3294   32.0018   41.0368 H   0  0  0  0  0  0  0  0  0  0  0  0
   44.5524   33.1232   38.0246 H   0  0  0  0  0  0  0  0  0  0  0  0
   44.4128   33.1270   35.5302 H   0  0  0  0  0  0  0  0  0  0  0  0
   47.3936   32.0775   33.3775 H   0  0  0  0  0  0  0  0  0  0  0  0
   45.7048   32.6494   33.3192 H   0  0  0  0  0  0  0  0  0  0  0  0
  1 13  1  0
  1  2  2  0
  2  9  1  0
  3  2  1  0
  4  3  2  0
  5  6  2  0
  5  4  1  0
  6  1  1  0
  7 12  2  0
  8  7  1  0
  9  8  2  0
  9 10  1  0
 10 11  2  0
 11 12  1  0
 14  6  1  0
 15 14  1  0
 16 15  2  0
 17 16  1  0
 18 17  2  0
 18 19  1  0
 19 15  1  0
 20 18  1  0
  3 21  1  0
  4 22  1  0
  5 23  1  0
  7 24  1  0
  8 25  1  0
 11 26  1  0
 13 27  1  0
 16 28  1  0
 17 29  1  0
 20 30  1  0
 20 31  1  0
M  ISO  8  21  14  22  14  23  14  24  14  25  14  26  14  27   3  28  14
M  ISO  1  29  14
M  END
>  <minimizedAffinity>  (1) 
-5.55174971

>  <minimizedRMSD>  (1) 
0.218314901

$$$$
