
     RDKit          3D

 35 37  0  0  0  0  0  0  0  0999 V2000
   46.5040   33.5860   41.2870 C   0  0  0  0  0  0  0  0  0  0  0  0
   46.8440   34.6260   42.1370 C   0  0  0  0  0  0  0  0  0  0  0  0
   47.8860   35.4280   41.7610 C   0  0  0  0  0  0  0  0  0  0  0  0
   48.5790   35.2220   40.5840 C   0  0  0  0  0  0  0  0  0  0  0  0
   48.2280   34.1830   39.7490 C   0  0  0  0  0  0  0  0  0  0  0  0
   47.1690   33.3390   40.0960 C   0  0  0  0  0  0  0  0  0  0  0  0
   44.4940   35.9390   44.7640 C   0  0  0  0  0  0  0  0  0  0  0  0
   45.2070   35.8190   43.5640 C   0  0  0  0  0  0  0  0  0  0  0  0
   46.0880   34.7940   43.3490 C   0  0  0  0  0  0  0  0  0  0  0  0
   46.2050   33.9140   44.3950 N   0  0  0  0  0  0  0  0  0  0  0  0
   45.5280   34.0200   45.5480 C   0  0  0  0  0  0  0  0  0  0  0  0
   44.6700   35.0390   45.7250 N   0  0  0  0  0  0  0  0  0  0  0  0
   45.4610   32.7460   41.6160 O   0  0  0  0  0  0  0  0  0  0  0  0
   46.7950   32.2970   39.2900 O   0  0  0  0  0  0  0  0  0  0  0  0
   46.6580   32.3320   37.9550 C   0  0  0  0  0  0  0  0  0  0  0  0
   45.6010   32.7080   37.1520 C   0  0  0  0  0  0  0  0  0  0  0  0
   45.7170   32.6520   35.8060 C   0  0  0  0  0  0  0  0  0  0  0  0
   46.9630   32.1940   35.2990 C   0  0  0  0  0  0  0  0  0  0  0  0
   47.9500   31.8530   36.7930 S   0  0  0  0  0  0  0  0  0  0  0  0
   47.4060   32.0190   33.9240 C   0  0  0  0  0  0  0  0  0  0  0  0
   48.7390   32.6710   33.7770 C   0  0  0  0  0  0  0  0  0  0  0  0
   48.1809   36.2617   42.4152 H   0  0  0  0  0  0  0  0  0  0  0  0
   49.4117   35.8877   40.3128 H   0  0  0  0  0  0  0  0  0  0  0  0
   48.7799   34.0184   38.8118 H   0  0  0  0  0  0  0  0  0  0  0  0
   43.7925   36.7737   44.9095 H   0  0  0  0  0  0  0  0  0  0  0  0
   45.0546   36.5686   42.7735 H   0  0  0  0  0  0  0  0  0  0  0  0
   45.6744   33.2762   46.3451 H   0  0  0  0  0  0  0  0  0  0  0  0
   45.2151   32.0018   41.0112 H   0  0  0  0  0  0  0  0  0  0  0  0
   44.6617   33.0542   37.6078 H   0  0  0  0  0  0  0  0  0  0  0  0
   44.8920   32.9449   35.1399 H   0  0  0  0  0  0  0  0  0  0  0  0
   47.4886   30.9467   33.6931 H   0  0  0  0  0  0  0  0  0  0  0  0
   46.6825   32.4734   33.2311 H   0  0  0  0  0  0  0  0  0  0  0  0
   49.1586   32.8762   34.7729 H   0  0  0  0  0  0  0  0  0  0  0  0
   49.4155   32.0021   33.2248 H   0  0  0  0  0  0  0  0  0  0  0  0
   48.6262   33.6157   33.2248 H   0  0  0  0  0  0  0  0  0  0  0  0
  1 13  1  0
  1  2  2  0
  2  9  1  0
  3  2  1  0
  4  3  2  0
  5  6  2  0
  5  4  1  0
  6  1  1  0
  7 12  2  0
  8  7  1  0
  9  8  2  0
  9 10  1  0
 10 11  2  0
 11 12  1  0
 14  6  1  0
 15 14  1  0
 16 15  2  0
 17 16  1  0
 18 17  2  0
 18 19  1  0
 19 15  1  0
 20 18  1  0
 21 20  1  0
  3 22  1  0
  4 23  1  0
  5 24  1  0
  7 25  1  0
  8 26  1  0
 11 27  1  0
 13 28  1  0
 16 29  1  0
 17 30  1  0
 20 31  1  0
 20 32  1  0
 21 33  1  0
 21 34  1  0
 21 35  1  0
M  ISO  8  22  14  23  14  24  14  25  14  26  14  27  14  28   3  29  14
M  ISO  6  30  14  31   8  32   8  33   8  34   8  35   8
M  END
>  <minimizedAffinity>  (1) 
-5.34374857

>  <minimizedRMSD>  (1) 
0.400696754

$$$$
