
     RDKit          3D

 31 33  0  0  0  0  0  0  0  0999 V2000
   46.3870   33.5940   41.1660 C   0  0  0  0  0  0  0  0  0  0  0  0
   46.7970   34.6170   42.0020 C   0  0  0  0  0  0  0  0  0  0  0  0
   47.8590   35.3580   41.6070 C   0  0  0  0  0  0  0  0  0  0  0  0
   48.5230   35.1180   40.4170 C   0  0  0  0  0  0  0  0  0  0  0  0
   48.1150   34.1030   39.5920 C   0  0  0  0  0  0  0  0  0  0  0  0
   47.0280   33.3180   39.9590 C   0  0  0  0  0  0  0  0  0  0  0  0
   44.5260   36.0570   44.6500 C   0  0  0  0  0  0  0  0  0  0  0  0
   45.2260   35.8800   43.4580 C   0  0  0  0  0  0  0  0  0  0  0  0
   46.0610   34.8180   43.2310 C   0  0  0  0  0  0  0  0  0  0  0  0
   46.1450   33.9480   44.2770 N   0  0  0  0  0  0  0  0  0  0  0  0
   45.4780   34.0940   45.4390 C   0  0  0  0  0  0  0  0  0  0  0  0
   44.6640   35.1620   45.6190 N   0  0  0  0  0  0  0  0  0  0  0  0
   45.3000   32.8020   41.5260 O   0  0  0  0  0  0  0  0  0  0  0  0
   46.5650   32.2840   39.1800 O   0  0  0  0  0  0  0  0  0  0  0  0
   46.4910   32.2810   37.8360 C   0  0  0  0  0  0  0  0  0  0  0  0
   45.5210   32.8010   37.0050 C   0  0  0  0  0  0  0  0  0  0  0  0
   45.6530   32.6810   35.6540 C   0  0  0  0  0  0  0  0  0  0  0  0
   46.8160   32.0090   35.1920 C   0  0  0  0  0  0  0  0  0  0  0  0
   47.6950   31.5660   36.7150 S   0  0  0  0  0  0  0  0  0  0  0  0
   47.2790   31.7030   33.8120 C   0  0  0  0  0  0  0  0  0  0  0  0
   47.8460   32.6440   33.2570 O   0  0  0  0  0  0  0  0  0  0  0  0
   48.2054   36.1779   42.2534 H   0  0  0  0  0  0  0  0  0  0  0  0
   49.3814   35.7442   40.1323 H   0  0  0  0  0  0  0  0  0  0  0  0
   48.6435   33.9108   38.6466 H   0  0  0  0  0  0  0  0  0  0  0  0
   43.8676   36.9277   44.7854 H   0  0  0  0  0  0  0  0  0  0  0  0
   45.1021   36.6286   42.6616 H   0  0  0  0  0  0  0  0  0  0  0  0
   45.5942   33.3481   46.2391 H   0  0  0  0  0  0  0  0  0  0  0  0
   45.0031   32.0688   40.9308 H   0  0  0  0  0  0  0  0  0  0  0  0
   44.6442   33.3106   37.4310 H   0  0  0  0  0  0  0  0  0  0  0  0
   44.9003   33.0824   34.9595 H   0  0  0  0  0  0  0  0  0  0  0  0
   47.1284   30.7251   33.3314 H   0  0  0  0  0  0  0  0  0  0  0  0
  1 13  1  0
  1  2  2  0
  2  9  1  0
  3  2  1  0
  4  3  2  0
  5  6  2  0
  5  4  1  0
  6  1  1  0
  7 12  2  0
  8  7  1  0
  9  8  2  0
  9 10  1  0
 10 11  2  0
 11 12  1  0
 14  6  1  0
 15 14  1  0
 16 15  2  0
 17 16  1  0
 18 17  2  0
 18 19  1  0
 19 15  1  0
 20 18  1  0
 21 20  2  0
  3 22  1  0
  4 23  1  0
  5 24  1  0
  7 25  1  0
  8 26  1  0
 11 27  1  0
 13 28  1  0
 16 29  1  0
 17 30  1  0
 20 31  1  0
M  ISO  8  22  14  23  14  24  14  25  14  26  14  27  14  28   3  29  14
M  ISO  2  30  14  31   6
M  END
>  <minimizedAffinity>  (1) 
-5.31904268

>  <minimizedRMSD>  (1) 
0.407825887

$$$$
