
     RDKit          3D

 34 37  0  0  0  0  0  0  0  0999 V2000
   46.3570   30.8310   46.1320 C   0  0  0  0  0  0  0  0  0  0  0  0
   47.5580   30.7610   46.8050 C   0  0  0  0  0  0  0  0  0  0  0  0
   47.8900   29.5700   47.4150 C   0  0  0  0  0  0  0  0  0  0  0  0
   47.1220   28.4260   47.4140 C   0  0  0  0  0  0  0  0  0  0  0  0
   45.9360   28.5290   46.7370 C   0  0  0  0  0  0  0  0  0  0  0  0
   45.5720   29.6960   46.1190 C   0  0  0  0  0  0  0  0  0  0  0  0
   44.8530   27.1190   46.6620 S   0  0  0  0  0  0  0  0  0  0  0  0
   45.6720   25.8240   47.5720 C   0  0  0  0  0  0  0  0  0  0  0  0
   45.0780   24.6110   47.6890 C   0  0  0  0  0  0  0  0  0  0  0  0
   45.6340   23.5670   48.3670 C   0  0  0  0  0  0  0  0  0  0  0  0
   46.8630   23.7890   48.9500 C   0  0  0  0  0  0  0  0  0  0  0  0
   47.4500   25.0310   48.8180 C   0  0  0  0  0  0  0  0  0  0  0  0
   46.8950   26.0910   48.1350 C   0  0  0  0  0  0  0  0  0  0  0  0
   47.6150   27.2920   48.0900 N   0  0  0  0  0  0  0  0  0  0  0  0
   45.3800   34.3080   45.6680 C   0  0  0  0  0  0  0  0  0  0  0  0
   45.2050   34.4170   44.2730 C   0  0  0  0  0  0  0  0  0  0  0  0
   45.4290   33.2790   43.5210 C   0  0  0  0  0  0  0  0  0  0  0  0
   45.8000   32.1270   44.1220 N   0  0  0  0  0  0  0  0  0  0  0  0
   45.9570   32.0670   45.4690 C   0  0  0  0  0  0  0  0  0  0  0  0
   45.7490   33.1500   46.2500 N   0  0  0  0  0  0  0  0  0  0  0  0
   44.7950   35.7470   43.7500 C   0  0  0  0  0  0  0  0  0  0  0  0
   44.7010   36.5830   44.8430 F   0  0  0  0  0  0  0  0  0  0  0  0
   43.5690   35.6230   43.1420 F   0  0  0  0  0  0  0  0  0  0  0  0
   45.7700   36.1620   42.8460 F   0  0  0  0  0  0  0  0  0  0  0  0
   48.2314   31.6294   46.8539 H   0  0  0  0  0  0  0  0  0  0  0  0
   48.8511   29.5295   47.9486 H   0  0  0  0  0  0  0  0  0  0  0  0
   44.6094   29.7301   45.5877 H   0  0  0  0  0  0  0  0  0  0  0  0
   44.0978   24.4615   47.2128 H   0  0  0  0  0  0  0  0  0  0  0  0
   45.1262   22.5943   48.4450 H   0  0  0  0  0  0  0  0  0  0  0  0
   47.3679   22.9891   49.5115 H   0  0  0  0  0  0  0  0  0  0  0  0
   48.4306   25.1856   49.2918 H   0  0  0  0  0  0  0  0  0  0  0  0
   48.5282   27.3476   48.5632 H   0  0  0  0  0  0  0  0  0  0  0  0
   45.2105   35.1931   46.2988 H   0  0  0  0  0  0  0  0  0  0  0  0
   45.3047   33.3113   42.4285 H   0  0  0  0  0  0  0  0  0  0  0  0
  1  2  2  0
  2  3  1  0
  4  3  2  0
  4 14  1  0
  5  4  1  0
  6  1  1  0
  6  5  2  0
  7  5  1  0
  7  8  1  0
  8  9  2  0
  8 13  1  0
  9 10  1  0
 10 11  2  0
 12 11  1  0
 13 12  2  0
 14 13  1  0
 15 20  2  0
 16 15  1  0
 17 18  1  0
 17 16  2  0
 18 19  2  0
 19  1  1  0
 19 20  1  0
 21 16  1  0
 21 22  1  0
 23 21  1  0
 24 21  1  0
  2 25  1  0
  3 26  1  0
  6 27  1  0
  9 28  1  0
 10 29  1  0
 11 30  1  0
 12 31  1  0
 14 32  1  0
 15 33  1  0
 17 34  1  0
M  ISO  8  25  14  26  14  27  14  28  14  29  14  30  14  31  14  33  14
M  ISO  1  34  14
M  END
>  <minimizedAffinity>  (1) 
-5.66493845

>  <minimizedRMSD>  (1) 
3.2566793

$$$$
