
     RDKit          3D

 23 24  0  0  0  0  0  0  0  0999 V2000
   45.3060   34.8040   44.6230 C   0  0  0  0  0  0  0  0  0  0  0  0
   46.2170   34.6190   43.5610 C   0  0  0  0  0  0  0  0  0  0  0  0
   47.1530   33.6110   43.7070 C   0  0  0  0  0  0  0  0  0  0  0  0
   47.1720   32.8530   44.8220 N   0  0  0  0  0  0  0  0  0  0  0  0
   46.2810   33.0580   45.8220 C   0  0  0  0  0  0  0  0  0  0  0  0
   45.3610   34.0200   45.7250 N   0  0  0  0  0  0  0  0  0  0  0  0
   44.4810   33.4750   47.8350 F   0  0  0  0  0  0  0  0  0  0  0  0
   45.3800   32.4730   48.0270 C   0  0  0  0  0  0  0  0  0  0  0  0
   46.3100   32.2330   47.0250 C   0  0  0  0  0  0  0  0  0  0  0  0
   47.2260   31.2190   47.2130 C   0  0  0  0  0  0  0  0  0  0  0  0
   47.2650   30.4290   48.3480 C   0  0  0  0  0  0  0  0  0  0  0  0
   46.3050   30.7350   49.2940 C   0  0  0  0  0  0  0  0  0  0  0  0
   45.3550   31.7290   49.1880 C   0  0  0  0  0  0  0  0  0  0  0  0
   46.0760   35.5230   42.4040 C   0  0  0  0  0  0  0  0  0  0  0  0
   45.4740   36.6890   42.8720 F   0  0  0  0  0  0  0  0  0  0  0  0
   45.2670   34.9180   41.4720 F   0  0  0  0  0  0  0  0  0  0  0  0
   47.3490   35.7540   41.8890 F   0  0  0  0  0  0  0  0  0  0  0  0
   44.5433   35.5936   44.5544 H   0  0  0  0  0  0  0  0  0  0  0  0
   47.8866   33.4266   42.9083 H   0  0  0  0  0  0  0  0  0  0  0  0
   47.9636   31.0287   46.4194 H   0  0  0  0  0  0  0  0  0  0  0  0
   48.0004   29.6227   48.4863 H   0  0  0  0  0  0  0  0  0  0  0  0
   46.2981   30.1317   50.2138 H   0  0  0  0  0  0  0  0  0  0  0  0
   44.6194   31.9177   49.9838 H   0  0  0  0  0  0  0  0  0  0  0  0
  1  6  2  0
  2  3  2  0
  2  1  1  0
  3  4  1  0
  4  5  2  0
  5  9  1  0
  6  5  1  0
  7  8  1  0
  8 13  2  0
  9 10  2  0
  9  8  1  0
 10 11  1  0
 11 12  2  0
 13 12  1  0
 14 15  1  0
 14  2  1  0
 16 14  1  0
 17 14  1  0
  1 18  1  0
  3 19  1  0
 10 20  1  0
 11 21  1  0
 12 22  1  0
 13 23  1  0
M  ISO  6  18  14  19  14  20  14  21  14  22  14  23  14
M  END
>  <minimizedAffinity>  (1) 
-5.55036926

>  <minimizedRMSD>  (1) 
0.845910609

$$$$
