
     RDKit          3D

 39 42  0  0  0  0  0  0  0  0999 V2000
   47.4830   30.7710   45.8590 C   0  0  0  0  0  0  0  0  0  0  0  0
   46.9670   32.0080   45.5210 C   0  0  0  0  0  0  0  0  0  0  0  0
   46.1390   32.6400   46.4160 C   0  0  0  0  0  0  0  0  0  0  0  0
   45.7950   32.1050   47.6370 C   0  0  0  0  0  0  0  0  0  0  0  0
   45.0490   32.4290   48.7040 N   0  0  0  0  0  0  0  0  0  0  0  0
   45.0970   31.4620   49.6420 C   0  0  0  0  0  0  0  0  0  0  0  0
   45.8970   30.5030   49.1470 N   0  0  0  0  0  0  0  0  0  0  0  0
   46.3400   30.8620   47.9270 C   0  0  0  0  0  0  0  0  0  0  0  0
   47.1740   30.1800   47.0720 C   0  0  0  0  0  0  0  0  0  0  0  0
   47.2200   34.4250   42.7750 C   0  0  0  0  0  0  0  0  0  0  0  0
   47.9460   33.7250   41.8220 C   0  0  0  0  0  0  0  0  0  0  0  0
   48.3390   32.4300   42.1360 C   0  0  0  0  0  0  0  0  0  0  0  0
   48.0020   31.9080   43.3450 N   0  0  0  0  0  0  0  0  0  0  0  0
   47.2970   32.6250   44.2400 C   0  0  0  0  0  0  0  0  0  0  0  0
   46.9090   33.8630   43.9660 N   0  0  0  0  0  0  0  0  0  0  0  0
   48.2490   34.4100   40.5370 C   0  0  0  0  0  0  0  0  0  0  0  0
   48.8050   35.6290   40.8880 F   0  0  0  0  0  0  0  0  0  0  0  0
   47.0620   34.6170   39.8700 F   0  0  0  0  0  0  0  0  0  0  0  0
   49.0960   33.6100   39.8040 F   0  0  0  0  0  0  0  0  0  0  0  0
   48.8740   28.8900   48.2070 C   0  0  0  0  0  0  0  0  0  0  0  0
   47.7030   28.8760   47.4580 C   0  0  0  0  0  0  0  0  0  0  0  0
   47.1130   27.6690   47.1250 C   0  0  0  0  0  0  0  0  0  0  0  0
   47.6810   26.4610   47.5340 C   0  0  0  0  0  0  0  0  0  0  0  0
   48.8440   26.5490   48.2740 C   0  0  0  0  0  0  0  0  0  0  0  0
   49.4740   27.7220   48.6340 C   0  0  0  0  0  0  0  0  0  0  0  0
   49.6510   30.3940   48.6490 S   0  0  0  0  0  0  0  0  0  0  0  0
   49.2580   30.8370   50.0280 O   0  0  0  0  0  0  0  0  0  0  0  0
   51.1480   30.2560   48.6280 O   0  0  0  0  0  0  0  0  0  0  0  0
   48.1479   30.2494   45.1548 H   0  0  0  0  0  0  0  0  0  0  0  0
   45.7297   33.6240   46.1434 H   0  0  0  0  0  0  0  0  0  0  0  0
   44.5102   33.3022   48.7946 H   0  0  0  0  0  0  0  0  0  0  0  0
   44.5849   31.4588   50.6155 H   0  0  0  0  0  0  0  0  0  0  0  0
   46.8922   35.4526   42.5590 H   0  0  0  0  0  0  0  0  0  0  0  0
   48.9165   31.8337   41.4143 H   0  0  0  0  0  0  0  0  0  0  0  0
   46.1867   27.6615   46.5318 H   0  0  0  0  0  0  0  0  0  0  0  0
   47.2269   25.4916   47.2807 H   0  0  0  0  0  0  0  0  0  0  0  0
   49.3056   25.6063   48.6032 H   0  0  0  0  0  0  0  0  0  0  0  0
   50.4006   27.7267   49.2268 H   0  0  0  0  0  0  0  0  0  0  0  0
   49.2416   31.3213   47.7273 H   0  0  0  0  0  0  0  0  0  0  0  0
  1  9  2  0
  2  1  1  0
  2  3  2  0
  3  4  1  0
  4  8  2  0
  4  5  1  0
  5  6  1  0
  7  6  2  0
  8  7  1  0
  9 21  1  0
  9  8  1  0
 10 15  2  0
 11 12  2  0
 11 10  1  0
 12 13  1  0
 13 14  2  0
 14  2  1  0
 15 14  1  0
 16 17  1  0
 16 11  1  0
 18 16  1  0
 19 16  1  0
 20 25  2  0
 20 26  1  0
 21 20  1  0
 22 21  2  0
 22 23  1  0
 23 24  2  0
 24 25  1  0
 26 27  2  0
 28 26  2  0
  1 29  1  0
  3 30  1  0
  5 31  1  0
  6 32  1  0
 10 33  1  0
 12 34  1  0
 22 35  1  0
 23 36  1  0
 24 37  1  0
 25 38  1  0
 26 39  1  0
M  ISO  8  29  14  30  14  31   9  32  14  33  14  34  14  35  14  36  14
M  ISO  3  37  14  38  14  39  11
M  END
>  <minimizedAffinity>  (1) 
-5.99470472

>  <minimizedRMSD>  (1) 
0.611900032

$$$$
