
     RDKit          3D

 36 39  0  0  0  0  0  0  0  0999 V2000
   47.7290   31.0830   45.9790 C   0  0  0  0  0  0  0  0  0  0  0  0
   46.9690   32.0960   45.4510 C   0  0  0  0  0  0  0  0  0  0  0  0
   45.9020   32.5770   46.1940 C   0  0  0  0  0  0  0  0  0  0  0  0
   45.5770   32.0750   47.4440 C   0  0  0  0  0  0  0  0  0  0  0  0
   44.6580   32.2920   48.3960 N   0  0  0  0  0  0  0  0  0  0  0  0
   44.8460   31.4610   49.4400 C   0  0  0  0  0  0  0  0  0  0  0  0
   45.9270   30.6920   49.1300 N   0  0  0  0  0  0  0  0  0  0  0  0
   46.3870   31.0560   47.9100 C   0  0  0  0  0  0  0  0  0  0  0  0
   47.4450   30.5470   47.2220 C   0  0  0  0  0  0  0  0  0  0  0  0
   48.2730   29.4660   47.7600 C   0  0  0  0  0  0  0  0  0  0  0  0
   48.1070   28.0960   47.5570 C   0  0  0  0  0  0  0  0  0  0  0  0
   48.9960   27.2270   48.1520 C   0  0  0  0  0  0  0  0  0  0  0  0
   50.0320   27.6640   48.9330 C   0  0  0  0  0  0  0  0  0  0  0  0
   50.2030   29.0270   49.1390 C   0  0  0  0  0  0  0  0  0  0  0  0
   49.3200   29.9260   48.5500 C   0  0  0  0  0  0  0  0  0  0  0  0
   47.2810   34.4440   42.6510 C   0  0  0  0  0  0  0  0  0  0  0  0
   47.8630   33.6710   41.6610 C   0  0  0  0  0  0  0  0  0  0  0  0
   48.1430   32.3330   41.9810 C   0  0  0  0  0  0  0  0  0  0  0  0
   47.8400   31.8610   43.2150 N   0  0  0  0  0  0  0  0  0  0  0  0
   47.2740   32.6560   44.1390 C   0  0  0  0  0  0  0  0  0  0  0  0
   46.9920   33.9420   43.8690 N   0  0  0  0  0  0  0  0  0  0  0  0
   48.1470   34.3030   40.3510 C   0  0  0  0  0  0  0  0  0  0  0  0
   48.6740   35.5460   40.6430 F   0  0  0  0  0  0  0  0  0  0  0  0
   46.9510   34.4350   39.6770 F   0  0  0  0  0  0  0  0  0  0  0  0
   49.0090   33.4900   39.6480 F   0  0  0  0  0  0  0  0  0  0  0  0
   48.5798   30.6899   45.4031 H   0  0  0  0  0  0  0  0  0  0  0  0
   45.2894   33.3889   45.7749 H   0  0  0  0  0  0  0  0  0  0  0  0
   43.9101   32.9978   48.3373 H   0  0  0  0  0  0  0  0  0  0  0  0
   44.2455   31.4130   50.3604 H   0  0  0  0  0  0  0  0  0  0  0  0
   47.2831   27.7168   46.9345 H   0  0  0  0  0  0  0  0  0  0  0  0
   48.8688   26.1459   47.9940 H   0  0  0  0  0  0  0  0  0  0  0  0
   50.7228   26.9422   49.3933 H   0  0  0  0  0  0  0  0  0  0  0  0
   51.0311   29.3930   49.7637 H   0  0  0  0  0  0  0  0  0  0  0  0
   49.4510   31.0064   48.7102 H   0  0  0  0  0  0  0  0  0  0  0  0
   47.0476   35.4977   42.4382 H   0  0  0  0  0  0  0  0  0  0  0  0
   48.6059   31.6711   41.2342 H   0  0  0  0  0  0  0  0  0  0  0  0
  1  9  2  0
  2  1  1  0
  2  3  2  0
  3  4  1  0
  4  8  2  0
  4  5  1  0
  5  6  1  0
  7  6  2  0
  8  7  1  0
  9 10  1  0
  9  8  1  0
 10 15  1  0
 11 10  2  0
 11 12  1  0
 12 13  2  0
 13 14  1  0
 15 14  2  0
 16 21  2  0
 17 18  2  0
 17 16  1  0
 18 19  1  0
 19 20  2  0
 20  2  1  0
 21 20  1  0
 22 23  1  0
 22 17  1  0
 24 22  1  0
 25 22  1  0
  1 26  1  0
  3 27  1  0
  5 28  1  0
  6 29  1  0
 11 30  1  0
 12 31  1  0
 13 32  1  0
 14 33  1  0
 15 34  1  0
 16 35  1  0
 18 36  1  0
M  ISO  8  26  14  27  14  28   9  29  14  30  14  31  14  32  14  33  14
M  ISO  3  34  14  35  14  36  14
M  END
>  <minimizedAffinity>  (1) 
-5.83682489

>  <minimizedRMSD>  (1) 
0.209541157

$$$$
