
     RDKit          3D

 32 35  0  0  0  0  0  0  0  0999 V2000
   47.3820   30.8830   45.6860 C   0  0  0  0  0  0  0  0  0  0  0  0
   47.0110   32.1580   45.3560 C   0  0  0  0  0  0  0  0  0  0  0  0
   46.3670   32.8960   46.3070 C   0  0  0  0  0  0  0  0  0  0  0  0
   46.0810   32.4130   47.5690 C   0  0  0  0  0  0  0  0  0  0  0  0
   45.4800   32.8640   48.6990 N   0  0  0  0  0  0  0  0  0  0  0  0
   45.4880   31.9200   49.6560 C   0  0  0  0  0  0  0  0  0  0  0  0
   46.1040   30.8660   49.1050 N   0  0  0  0  0  0  0  0  0  0  0  0
   46.4760   31.1290   47.8410 C   0  0  0  0  0  0  0  0  0  0  0  0
   47.1220   30.3340   46.9460 C   0  0  0  0  0  0  0  0  0  0  0  0
   47.2980   34.4590   42.5270 C   0  0  0  0  0  0  0  0  0  0  0  0
   47.8610   33.6550   41.5380 C   0  0  0  0  0  0  0  0  0  0  0  0
   48.1310   32.3350   41.8630 C   0  0  0  0  0  0  0  0  0  0  0  0
   47.8440   31.8790   43.1120 N   0  0  0  0  0  0  0  0  0  0  0  0
   47.3000   32.6890   44.0400 C   0  0  0  0  0  0  0  0  0  0  0  0
   47.0240   33.9750   43.7590 N   0  0  0  0  0  0  0  0  0  0  0  0
   48.1250   34.2790   40.2160 C   0  0  0  0  0  0  0  0  0  0  0  0
   48.6380   35.5400   40.4880 F   0  0  0  0  0  0  0  0  0  0  0  0
   46.9440   34.3720   39.5340 F   0  0  0  0  0  0  0  0  0  0  0  0
   49.0440   33.4840   39.5390 F   0  0  0  0  0  0  0  0  0  0  0  0
   47.5520   28.9440   47.2350 C   0  0  0  0  0  0  0  0  0  0  0  0
   46.7200   27.9040   46.9550 C   0  0  0  0  0  0  0  0  0  0  0  0
   47.6680   26.4070   47.4750 S   0  0  0  0  0  0  0  0  0  0  0  0
   49.1060   27.5300   48.0100 C   0  0  0  0  0  0  0  0  0  0  0  0
   48.7020   28.5700   47.7580 N   0  0  0  0  0  0  0  0  0  0  0  0
   47.9019   30.2694   44.9356 H   0  0  0  0  0  0  0  0  0  0  0  0
   46.0618   33.9227   46.0566 H   0  0  0  0  0  0  0  0  0  0  0  0
   45.0724   33.8035   48.8087 H   0  0  0  0  0  0  0  0  0  0  0  0
   45.0768   31.9967   50.6734 H   0  0  0  0  0  0  0  0  0  0  0  0
   47.0714   35.5112   42.3001 H   0  0  0  0  0  0  0  0  0  0  0  0
   48.5745   31.6605   41.1158 H   0  0  0  0  0  0  0  0  0  0  0  0
   45.7114   27.9457   46.5180 H   0  0  0  0  0  0  0  0  0  0  0  0
   50.0757   27.2516   48.4485 H   0  0  0  0  0  0  0  0  0  0  0  0
  1  9  2  0
  2  1  1  0
  2  3  2  0
  3  4  1  0
  4  8  2  0
  4  5  1  0
  5  6  1  0
  7  6  2  0
  8  7  1  0
  9 20  1  0
  9  8  1  0
 10 15  2  0
 11 12  2  0
 11 10  1  0
 12 13  1  0
 13 14  2  0
 14  2  1  0
 15 14  1  0
 16 17  1  0
 16 11  1  0
 18 16  1  0
 19 16  1  0
 20 24  1  0
 21 20  2  0
 21 22  1  0
 22 23  1  0
 24 23  2  0
  1 25  1  0
  3 26  1  0
  5 27  1  0
  6 28  1  0
 10 29  1  0
 12 30  1  0
 21 31  1  0
 23 32  1  0
M  ISO  8  25  14  26  14  27   9  28  14  29  14  30  14  31  14  32  14
M  END
>  <minimizedAffinity>  (1) 
-5.64636612

>  <minimizedRMSD>  (1) 
0.709323943

$$$$
