
     RDKit          3D

 36 39  0  0  0  0  0  0  0  0999 V2000
   47.4130   30.8240   45.6460 C   0  0  0  0  0  0  0  0  0  0  0  0
   47.0270   32.1230   45.3290 C   0  0  0  0  0  0  0  0  0  0  0  0
   46.3790   32.8660   46.2840 C   0  0  0  0  0  0  0  0  0  0  0  0
   46.0940   32.3780   47.5440 C   0  0  0  0  0  0  0  0  0  0  0  0
   45.4960   32.8300   48.6620 N   0  0  0  0  0  0  0  0  0  0  0  0
   45.5100   31.8670   49.6160 C   0  0  0  0  0  0  0  0  0  0  0  0
   46.1310   30.7990   49.0700 N   0  0  0  0  0  0  0  0  0  0  0  0
   46.4910   31.0950   47.8100 C   0  0  0  0  0  0  0  0  0  0  0  0
   47.1380   30.3150   46.9010 C   0  0  0  0  0  0  0  0  0  0  0  0
   47.3190   34.4450   42.5200 C   0  0  0  0  0  0  0  0  0  0  0  0
   47.8770   33.6640   41.5130 C   0  0  0  0  0  0  0  0  0  0  0  0
   48.1460   32.3300   41.8280 C   0  0  0  0  0  0  0  0  0  0  0  0
   47.8650   31.8500   43.0680 N   0  0  0  0  0  0  0  0  0  0  0  0
   47.3270   32.6480   43.9990 C   0  0  0  0  0  0  0  0  0  0  0  0
   47.0490   33.9390   43.7450 N   0  0  0  0  0  0  0  0  0  0  0  0
   48.1390   34.3020   40.2040 C   0  0  0  0  0  0  0  0  0  0  0  0
   48.6370   35.5620   40.4950 F   0  0  0  0  0  0  0  0  0  0  0  0
   46.9420   34.3980   39.5250 F   0  0  0  0  0  0  0  0  0  0  0  0
   49.0280   33.5090   39.5110 F   0  0  0  0  0  0  0  0  0  0  0  0
   47.5310   28.9870   47.2240 N   0  0  0  0  0  0  0  0  0  0  0  0
   46.5980   27.9130   46.9390 C   0  0  0  0  0  0  0  0  0  0  0  0
   47.2200   26.6500   47.4260 C   0  0  0  0  0  0  0  0  0  0  0  0
   48.6090   27.0190   47.8320 C   0  0  0  0  0  0  0  0  0  0  0  0
   48.7560   28.5030   47.8170 C   0  0  0  0  0  0  0  0  0  0  0  0
   47.9346   30.2053   44.9010 H   0  0  0  0  0  0  0  0  0  0  0  0
   46.0739   33.8932   46.0353 H   0  0  0  0  0  0  0  0  0  0  0  0
   45.0880   33.7689   48.7758 H   0  0  0  0  0  0  0  0  0  0  0  0
   45.0975   31.9407   50.6330 H   0  0  0  0  0  0  0  0  0  0  0  0
   47.0915   35.5014   42.3147 H   0  0  0  0  0  0  0  0  0  0  0  0
   48.5867   31.6658   41.0699 H   0  0  0  0  0  0  0  0  0  0  0  0
   45.6156   28.0127   46.4542 H   0  0  0  0  0  0  0  0  0  0  0  0
   46.7541   25.6548   47.4760 H   0  0  0  0  0  0  0  0  0  0  0  0
   48.8066   26.6416   48.8462 H   0  0  0  0  0  0  0  0  0  0  0  0
   49.3266   26.5733   47.1274 H   0  0  0  0  0  0  0  0  0  0  0  0
   49.6244   28.8007   47.2109 H   0  0  0  0  0  0  0  0  0  0  0  0
   48.9223   28.9149   48.8233 H   0  0  0  0  0  0  0  0  0  0  0  0
  1  9  2  0
  2  1  1  0
  2  3  2  0
  3  4  1  0
  4  8  2  0
  4  5  1  0
  5  6  1  0
  7  6  2  0
  8  7  1  0
  9 20  1  0
  9  8  1  0
 10 15  2  0
 11 12  2  0
 11 10  1  0
 12 13  1  0
 13 14  2  0
 14  2  1  0
 15 14  1  0
 16 17  1  0
 16 11  1  0
 18 16  1  0
 19 16  1  0
 20 24  1  0
 21 20  1  0
 21 22  2  0
 22 23  1  0
 24 23  1  0
  1 25  1  0
  3 26  1  0
  5 27  1  0
  6 28  1  0
 10 29  1  0
 12 30  1  0
 21 31  1  0
 22 32  1  0
 23 33  1  0
 23 34  1  0
 24 35  1  0
 24 36  1  0
M  ISO  8  25  14  26  14  27   9  28  14  29  14  30  14  31  13  32  13
M  ISO  4  33  13  34  13  35  13  36  13
M  END
>  <minimizedAffinity>  (1) 
-5.62265491

>  <minimizedRMSD>  (1) 
0.803079665

$$$$
