
     RDKit          3D

 27 29  0  0  0  0  0  0  0  0999 V2000
   47.6430   31.0110   45.8780 C   0  0  0  0  0  0  0  0  0  0  0  0
   46.9460   32.0870   45.3920 C   0  0  0  0  0  0  0  0  0  0  0  0
   45.9290   32.6190   46.1690 C   0  0  0  0  0  0  0  0  0  0  0  0
   45.6020   32.0970   47.4110 C   0  0  0  0  0  0  0  0  0  0  0  0
   44.7060   32.3600   48.3910 N   0  0  0  0  0  0  0  0  0  0  0  0
   44.8780   31.4720   49.4050 C   0  0  0  0  0  0  0  0  0  0  0  0
   45.8870   30.6530   49.0510 N   0  0  0  0  0  0  0  0  0  0  0  0
   46.3440   31.0170   47.8360 C   0  0  0  0  0  0  0  0  0  0  0  0
   47.3540   30.4540   47.1130 C   0  0  0  0  0  0  0  0  0  0  0  0
   47.3010   34.4460   42.6190 C   0  0  0  0  0  0  0  0  0  0  0  0
   47.8740   33.6740   41.6230 C   0  0  0  0  0  0  0  0  0  0  0  0
   48.1320   32.3370   41.9260 C   0  0  0  0  0  0  0  0  0  0  0  0
   47.8180   31.8550   43.1560 N   0  0  0  0  0  0  0  0  0  0  0  0
   47.2580   32.6620   44.0920 C   0  0  0  0  0  0  0  0  0  0  0  0
   47.0030   33.9370   43.8330 N   0  0  0  0  0  0  0  0  0  0  0  0
   48.1650   34.3360   40.3180 C   0  0  0  0  0  0  0  0  0  0  0  0
   48.7040   35.5570   40.6280 F   0  0  0  0  0  0  0  0  0  0  0  0
   46.9840   34.4550   39.6330 F   0  0  0  0  0  0  0  0  0  0  0  0
   49.0430   33.5060   39.6130 F   0  0  0  0  0  0  0  0  0  0  0  0
   48.1030   29.3660   47.5390 O   0  0  0  0  0  0  0  0  0  0  0  0
   48.4526   30.5788   45.2716 H   0  0  0  0  0  0  0  0  0  0  0  0
   45.3636   33.4824   45.7883 H   0  0  0  0  0  0  0  0  0  0  0  0
   44.0047   33.1141   48.3712 H   0  0  0  0  0  0  0  0  0  0  0  0
   44.3009   31.4299   50.3405 H   0  0  0  0  0  0  0  0  0  0  0  0
   47.0823   35.5046   42.4152 H   0  0  0  0  0  0  0  0  0  0  0  0
   48.5872   31.6770   41.1729 H   0  0  0  0  0  0  0  0  0  0  0  0
   47.9161   28.9499   48.4177 H   0  0  0  0  0  0  0  0  0  0  0  0
  1  9  2  0
  2  1  1  0
  2  3  2  0
  3  4  1  0
  4  8  2  0
  4  5  1  0
  5  6  1  0
  7  6  2  0
  8  7  1  0
  9 20  1  0
  9  8  1  0
 10 15  2  0
 11 12  2  0
 11 10  1  0
 12 13  1  0
 13 14  2  0
 14  2  1  0
 15 14  1  0
 16 17  1  0
 16 11  1  0
 18 16  1  0
 19 16  1  0
  1 21  1  0
  3 22  1  0
  5 23  1  0
  6 24  1  0
 10 25  1  0
 12 26  1  0
 20 27  1  0
M  ISO  7  21  14  22  14  23   9  24  14  25  14  26  14  27   3
M  END
>  <minimizedAffinity>  (1) 
-5.26738358

>  <minimizedRMSD>  (1) 
0.0153367864

$$$$
