
     RDKit          3D

 28 30  0  0  0  0  0  0  0  0999 V2000
   47.6460   30.9890   45.8540 C   0  0  0  0  0  0  0  0  0  0  0  0
   46.9540   32.0740   45.3830 C   0  0  0  0  0  0  0  0  0  0  0  0
   45.9440   32.6060   46.1690 C   0  0  0  0  0  0  0  0  0  0  0  0
   45.6070   32.0930   47.4000 C   0  0  0  0  0  0  0  0  0  0  0  0
   44.7160   32.3570   48.3800 N   0  0  0  0  0  0  0  0  0  0  0  0
   44.8660   31.4720   49.3920 C   0  0  0  0  0  0  0  0  0  0  0  0
   45.8700   30.6430   49.0330 N   0  0  0  0  0  0  0  0  0  0  0  0
   46.3330   31.0030   47.8270 C   0  0  0  0  0  0  0  0  0  0  0  0
   47.3360   30.4400   47.0940 C   0  0  0  0  0  0  0  0  0  0  0  0
   47.3020   34.4500   42.6120 C   0  0  0  0  0  0  0  0  0  0  0  0
   47.8780   33.6710   41.6060 C   0  0  0  0  0  0  0  0  0  0  0  0
   48.1320   32.3380   41.9170 C   0  0  0  0  0  0  0  0  0  0  0  0
   47.8190   31.8640   43.1470 N   0  0  0  0  0  0  0  0  0  0  0  0
   47.2580   32.6730   44.0850 C   0  0  0  0  0  0  0  0  0  0  0  0
   46.9990   33.9500   43.8310 N   0  0  0  0  0  0  0  0  0  0  0  0
   48.1630   34.3310   40.3130 C   0  0  0  0  0  0  0  0  0  0  0  0
   48.6960   35.5600   40.6160 F   0  0  0  0  0  0  0  0  0  0  0  0
   46.9720   34.4630   39.6290 F   0  0  0  0  0  0  0  0  0  0  0  0
   49.0430   33.5120   39.6040 F   0  0  0  0  0  0  0  0  0  0  0  0
   48.0950   29.3120   47.5210 N   0  0  0  0  0  0  0  0  0  0  0  0
   48.4517   30.5494   45.2477 H   0  0  0  0  0  0  0  0  0  0  0  0
   45.3875   33.4767   45.7919 H   0  0  0  0  0  0  0  0  0  0  0  0
   44.0242   33.1198   48.3598 H   0  0  0  0  0  0  0  0  0  0  0  0
   44.2841   31.4348   50.3248 H   0  0  0  0  0  0  0  0  0  0  0  0
   47.0871   35.5088   42.4050 H   0  0  0  0  0  0  0  0  0  0  0  0
   48.5849   31.6725   41.1673 H   0  0  0  0  0  0  0  0  0  0  0  0
   47.8986   28.8743   48.4325 H   0  0  0  0  0  0  0  0  0  0  0  0
   48.8399   28.9344   46.9182 H   0  0  0  0  0  0  0  0  0  0  0  0
  1  9  2  0
  2  1  1  0
  2  3  2  0
  3  4  1  0
  4  8  2  0
  4  5  1  0
  5  6  1  0
  7  6  2  0
  8  7  1  0
  9 20  1  0
  9  8  1  0
 10 15  2  0
 11 12  2  0
 11 10  1  0
 12 13  1  0
 13 14  2  0
 14  2  1  0
 15 14  1  0
 16 17  1  0
 16 11  1  0
 18 16  1  0
 19 16  1  0
  1 21  1  0
  3 22  1  0
  5 23  1  0
  6 24  1  0
 10 25  1  0
 12 26  1  0
 20 27  1  0
 20 28  1  0
M  ISO  6  21  14  22  14  23   9  24  14  25  14  26  14
M  END
>  <minimizedAffinity>  (1) 
-5.25700712

>  <minimizedRMSD>  (1) 
0.0108457664

$$$$
