
     RDKit          3D

 45 49  0  0  0  0  0  0  0  0999 V2000
   47.7590   31.0910   46.1160 C   0  0  0  0  0  0  0  0  0  0  0  0
   47.0000   32.1170   45.6230 C   0  0  0  0  0  0  0  0  0  0  0  0
   45.9650   32.5830   46.3970 C   0  0  0  0  0  0  0  0  0  0  0  0
   45.6690   32.0630   47.6340 C   0  0  0  0  0  0  0  0  0  0  0  0
   44.7600   32.2790   48.6130 N   0  0  0  0  0  0  0  0  0  0  0  0
   44.9630   31.4280   49.6410 C   0  0  0  0  0  0  0  0  0  0  0  0
   46.0150   30.6680   49.2960 N   0  0  0  0  0  0  0  0  0  0  0  0
   46.4650   31.0370   48.0720 C   0  0  0  0  0  0  0  0  0  0  0  0
   47.5070   30.5280   47.3530 C   0  0  0  0  0  0  0  0  0  0  0  0
   47.0860   34.4070   42.7700 C   0  0  0  0  0  0  0  0  0  0  0  0
   47.8620   33.7310   41.8370 C   0  0  0  0  0  0  0  0  0  0  0  0
   48.3440   32.4810   42.2190 C   0  0  0  0  0  0  0  0  0  0  0  0
   48.0510   31.9850   43.4450 N   0  0  0  0  0  0  0  0  0  0  0  0
   47.2920   32.6950   44.3040 C   0  0  0  0  0  0  0  0  0  0  0  0
   46.8010   33.9000   43.9910 N   0  0  0  0  0  0  0  0  0  0  0  0
   48.1060   34.3900   40.5290 C   0  0  0  0  0  0  0  0  0  0  0  0
   48.6280   35.6190   40.8350 F   0  0  0  0  0  0  0  0  0  0  0  0
   46.9060   34.5190   39.8850 F   0  0  0  0  0  0  0  0  0  0  0  0
   48.9870   33.5840   39.8140 F   0  0  0  0  0  0  0  0  0  0  0  0
   48.2650   29.4920   47.8630 O   0  0  0  0  0  0  0  0  0  0  0  0
   50.0050   28.2240   49.2900 O   0  0  0  0  0  0  0  0  0  0  0  0
   49.4950   29.6390   48.9950 P   0  0  2  0  0  0  0  0  0  0  0  0
   48.7770   30.2030   50.4420 O   0  0  0  0  0  0  0  0  0  0  0  0
   50.7370   30.6450   48.5520 O   0  0  0  0  0  0  0  0  0  0  0  0
   52.8700   31.2180   49.6480 C   0  0  0  0  0  0  0  0  0  0  0  0
   51.5520   31.4390   49.3040 C   0  0  0  0  0  0  0  0  0  0  0  0
   50.9810   32.6230   49.7870 C   0  0  0  0  0  0  0  0  0  0  0  0
   51.7290   33.5030   50.5650 C   0  0  0  0  0  0  0  0  0  0  0  0
   53.0350   33.2260   50.8720 C   0  0  0  0  0  0  0  0  0  0  0  0
   53.6120   32.0750   50.4110 C   0  0  0  0  0  0  0  0  0  0  0  0
   53.5530   34.2610   51.6580 O   0  0  0  0  0  0  0  0  0  0  0  0
   52.6950   35.3720   51.4880 C   0  0  0  0  0  0  0  0  0  0  0  0
   51.4560   34.7330   51.1810 O   0  0  0  0  0  0  0  0  0  0  0  0
   48.5924   30.7036   45.5116 H   0  0  0  0  0  0  0  0  0  0  0  0
   45.3473   33.4070   46.0102 H   0  0  0  0  0  0  0  0  0  0  0  0
   44.0178   32.9923   48.5786 H   0  0  0  0  0  0  0  0  0  0  0  0
   44.3832   31.3689   50.5739 H   0  0  0  0  0  0  0  0  0  0  0  0
   46.6863   35.3968   42.5044 H   0  0  0  0  0  0  0  0  0  0  0  0
   48.9637   31.8957   41.5237 H   0  0  0  0  0  0  0  0  0  0  0  0
   49.2593   29.8242   51.2192 H   0  0  0  0  0  0  0  0  0  0  0  0
   53.3518   30.2975   49.2866 H   0  0  0  0  0  0  0  0  0  0  0  0
   49.9333   32.8598   49.5499 H   0  0  0  0  0  0  0  0  0  0  0  0
   54.6599   31.8421   50.6513 H   0  0  0  0  0  0  0  0  0  0  0  0
   52.6219   35.9676   52.4099 H   0  0  0  0  0  0  0  0  0  0  0  0
   53.0327   36.0853   50.7218 H   0  0  0  0  0  0  0  0  0  0  0  0
  1  9  2  0
  2  1  1  0
  2  3  2  0
  3  4  1  0
  4  8  2  0
  4  5  1  0
  5  6  1  0
  7  6  2  0
  8  7  1  0
  9 20  1  0
  9  8  1  0
 10 15  2  0
 11 12  2  0
 11 10  1  0
 12 13  1  0
 13 14  2  0
 14  2  1  0
 15 14  1  0
 16 17  1  0
 16 11  1  0
 18 16  1  0
 19 16  1  0
 20 22  1  0
 22 21  2  0
 22 23  1  0
 24 22  1  0
 24 26  1  0
 25 30  2  0
 26 25  1  0
 26 27  2  0
 27 28  1  0
 28 29  2  0
 28 33  1  0
 29 31  1  0
 30 29  1  0
 32 31  1  0
 33 32  1  0
  1 34  1  0
  3 35  1  0
  5 36  1  0
  6 37  1  0
 10 38  1  0
 12 39  1  0
 23 40  1  0
 25 41  1  0
 27 42  1  0
 30 43  1  0
 32 44  1  0
 32 45  1  0
M  ISO  8  34  14  35  14  36   9  37  14  38  14  39  14  40   3  41  14
M  ISO  4  42  14  43  14  44  13  45  13
M  END
>  <minimizedAffinity>  (1) 
-6.51669264

>  <minimizedRMSD>  (1) 
3.37451053

$$$$
