
     RDKit          3D

 47 50  0  0  0  0  0  0  0  0999 V2000
   47.7460   31.0230   45.9730 C   0  0  0  0  0  0  0  0  0  0  0  0
   46.9970   32.0500   45.4520 C   0  0  0  0  0  0  0  0  0  0  0  0
   45.9530   32.5160   46.2010 C   0  0  0  0  0  0  0  0  0  0  0  0
   45.6250   32.0010   47.4440 C   0  0  0  0  0  0  0  0  0  0  0  0
   44.7040   32.2100   48.4100 N   0  0  0  0  0  0  0  0  0  0  0  0
   44.8860   31.3650   49.4420 C   0  0  0  0  0  0  0  0  0  0  0  0
   45.9400   30.6120   49.1190 N   0  0  0  0  0  0  0  0  0  0  0  0
   46.4160   30.9720   47.9060 C   0  0  0  0  0  0  0  0  0  0  0  0
   47.4700   30.4640   47.2070 C   0  0  0  0  0  0  0  0  0  0  0  0
   47.2920   34.4060   42.6690 C   0  0  0  0  0  0  0  0  0  0  0  0
   47.9090   33.6490   41.6800 C   0  0  0  0  0  0  0  0  0  0  0  0
   48.2130   32.3230   42.0020 C   0  0  0  0  0  0  0  0  0  0  0  0
   47.9060   31.8300   43.2330 N   0  0  0  0  0  0  0  0  0  0  0  0
   47.3060   32.6240   44.1460 C   0  0  0  0  0  0  0  0  0  0  0  0
   46.9990   33.8890   43.8850 N   0  0  0  0  0  0  0  0  0  0  0  0
   48.1880   34.3070   40.3830 C   0  0  0  0  0  0  0  0  0  0  0  0
   48.7530   35.5260   40.7050 F   0  0  0  0  0  0  0  0  0  0  0  0
   47.0190   34.4730   39.7130 F   0  0  0  0  0  0  0  0  0  0  0  0
   49.0640   33.4810   39.6680 F   0  0  0  0  0  0  0  0  0  0  0  0
   48.2250   29.4310   47.7240 O   0  0  0  0  0  0  0  0  0  0  0  0
   49.8130   28.2080   49.3640 O   0  0  0  0  0  0  0  0  0  0  0  0
   49.4420   29.6270   48.8900 P   0  0  2  0  0  0  0  0  0  0  0  0
   48.7660   30.4280   50.2210 O   0  0  0  0  0  0  0  0  0  0  0  0
   50.8100   30.4000   48.3500 O   0  0  0  0  0  0  0  0  0  0  0  0
   54.0650   32.4870   48.5630 N   0  0  0  0  0  0  0  0  0  0  0  0
   53.3090   32.5800   49.7990 C   0  0  0  0  0  0  0  0  0  0  0  0
   51.8680   32.1590   49.6020 C   0  0  0  0  0  0  0  0  0  0  0  0
   51.7700   30.6560   49.3030 C   0  0  0  0  0  0  0  0  0  0  0  0
   53.1070   30.3030   48.6830 C   0  0  0  0  0  0  0  0  0  0  0  0
   53.4330   31.4830   47.7580 C   0  0  0  0  0  0  0  0  0  0  0  0
   48.5928   30.6327   45.3894 H   0  0  0  0  0  0  0  0  0  0  0  0
   45.3447   33.3389   45.7975 H   0  0  0  0  0  0  0  0  0  0  0  0
   43.9609   32.9217   48.3631 H   0  0  0  0  0  0  0  0  0  0  0  0
   44.2882   31.3068   50.3635 H   0  0  0  0  0  0  0  0  0  0  0  0
   47.0347   35.4544   42.4575 H   0  0  0  0  0  0  0  0  0  0  0  0
   48.7017   31.6762   41.2584 H   0  0  0  0  0  0  0  0  0  0  0  0
   49.1073   30.0236   51.0577 H   0  0  0  0  0  0  0  0  0  0  0  0
   54.0532   33.3926   48.0724 H   0  0  0  0  0  0  0  0  0  0  0  0
   53.7728   31.9254   50.5516 H   0  0  0  0  0  0  0  0  0  0  0  0
   53.3195   33.6285   50.1315 H   0  0  0  0  0  0  0  0  0  0  0  0
   51.2999   32.3815   50.5173 H   0  0  0  0  0  0  0  0  0  0  0  0
   51.4543   32.7142   48.7472 H   0  0  0  0  0  0  0  0  0  0  0  0
   51.5199   30.0932   50.2144 H   0  0  0  0  0  0  0  0  0  0  0  0
   53.8781   30.1950   49.4600 H   0  0  0  0  0  0  0  0  0  0  0  0
   53.0739   29.3466   48.1406 H   0  0  0  0  0  0  0  0  0  0  0  0
   52.5086   31.8815   47.3146 H   0  0  0  0  0  0  0  0  0  0  0  0
   54.0931   31.1664   46.9370 H   0  0  0  0  0  0  0  0  0  0  0  0
  1  9  2  0
  2  1  1  0
  2  3  2  0
  3  4  1  0
  4  8  2  0
  4  5  1  0
  5  6  1  0
  7  6  2  0
  8  7  1  0
  9 20  1  0
  9  8  1  0
 10 15  2  0
 11 12  2  0
 11 10  1  0
 12 13  1  0
 13 14  2  0
 14  2  1  0
 15 14  1  0
 16 17  1  0
 16 11  1  0
 18 16  1  0
 19 16  1  0
 20 22  1  0
 22 21  2  0
 22 23  1  0
 24 22  1  0
 24 28  1  0
 25 26  1  0
 27 26  1  0
 28 27  1  0
 29 28  1  0
 30 25  1  0
 30 29  1  0
  1 31  1  0
  3 32  1  0
  5 33  1  0
  6 34  1  0
 10 35  1  0
 12 36  1  0
 23 37  1  0
 25 38  1  0
 26 39  1  0
 26 40  1  0
 27 41  1  0
 27 42  1  0
 28 43  1  0
 29 44  1  0
 29 45  1  0
 30 46  1  0
 30 47  1  0
M  ISO  8  31  14  32  14  33   9  34  14  35  14  36  14  37   3  38   5
M  ISO  8  39  13  40  13  41  13  42  13  43  13  44  13  45  13  46  13
M  ISO  1  47  13
M  END
>  <minimizedAffinity>  (1) 
-6.22077417

>  <minimizedRMSD>  (1) 
2.35070324

$$$$
