
     RDKit          3D

 48 51  0  0  0  0  0  0  0  0999 V2000
   47.8190   31.1580   45.9670 C   0  0  0  0  0  0  0  0  0  0  0  0
   47.0240   32.1320   45.4170 C   0  0  0  0  0  0  0  0  0  0  0  0
   45.9450   32.5630   46.1520 C   0  0  0  0  0  0  0  0  0  0  0  0
   45.6460   32.0600   47.3950 C   0  0  0  0  0  0  0  0  0  0  0  0
   44.7010   32.2510   48.3480 N   0  0  0  0  0  0  0  0  0  0  0  0
   44.9170   31.4400   49.4080 C   0  0  0  0  0  0  0  0  0  0  0  0
   46.0170   30.7300   49.1090 N   0  0  0  0  0  0  0  0  0  0  0  0
   46.4760   31.0930   47.8840 C   0  0  0  0  0  0  0  0  0  0  0  0
   47.5640   30.6160   47.2140 C   0  0  0  0  0  0  0  0  0  0  0  0
   47.2830   34.4660   42.6030 C   0  0  0  0  0  0  0  0  0  0  0  0
   47.8920   33.6980   41.6200 C   0  0  0  0  0  0  0  0  0  0  0  0
   48.2070   32.3640   41.9510 C   0  0  0  0  0  0  0  0  0  0  0  0
   47.9170   31.8840   43.1830 N   0  0  0  0  0  0  0  0  0  0  0  0
   47.3240   32.6820   44.0970 C   0  0  0  0  0  0  0  0  0  0  0  0
   47.0050   33.9500   43.8300 N   0  0  0  0  0  0  0  0  0  0  0  0
   48.1640   34.3300   40.3010 C   0  0  0  0  0  0  0  0  0  0  0  0
   48.7030   35.5630   40.6010 F   0  0  0  0  0  0  0  0  0  0  0  0
   46.9810   34.4640   39.6360 F   0  0  0  0  0  0  0  0  0  0  0  0
   49.0440   33.5170   39.6020 F   0  0  0  0  0  0  0  0  0  0  0  0
   48.3610   29.6380   47.7670 O   0  0  0  0  0  0  0  0  0  0  0  0
   50.1890   28.5470   49.2580 O   0  0  0  0  0  0  0  0  0  0  0  0
   49.4800   29.8880   49.0130 P   0  0  2  0  0  0  0  0  0  0  0  0
   48.6120   30.2500   50.4180 O   0  0  0  0  0  0  0  0  0  0  0  0
   50.6170   31.0580   48.6700 O   0  0  0  0  0  0  0  0  0  0  0  0
   51.7560   31.0270   49.4290 C   0  0  0  0  0  0  0  0  0  0  0  0
   52.8960   31.8270   48.8620 C   0  0  0  0  0  0  0  0  0  0  0  0
   53.6150   32.6420   49.9200 C   0  0  0  0  0  0  0  0  0  0  0  0
   52.7460   33.6760   50.5610 C   0  0  0  0  0  0  0  0  0  0  0  0
   51.3800   33.1040   50.7890 C   0  0  0  0  0  0  0  0  0  0  0  0
   51.4330   31.5840   50.8010 C   0  0  0  0  0  0  0  0  0  0  0  0
   48.6878   30.7963   45.3975 H   0  0  0  0  0  0  0  0  0  0  0  0
   45.2948   33.3422   45.7276 H   0  0  0  0  0  0  0  0  0  0  0  0
   43.9238   32.9229   48.2745 H   0  0  0  0  0  0  0  0  0  0  0  0
   44.3153   31.3751   50.3266 H   0  0  0  0  0  0  0  0  0  0  0  0
   47.0203   35.5118   42.3853 H   0  0  0  0  0  0  0  0  0  0  0  0
   48.6890   31.7126   41.2071 H   0  0  0  0  0  0  0  0  0  0  0  0
   49.1585   30.0221   51.2114 H   0  0  0  0  0  0  0  0  0  0  0  0
   52.0827   29.9771   49.4588 H   0  0  0  0  0  0  0  0  0  0  0  0
   53.6159   31.1362   48.3988 H   0  0  0  0  0  0  0  0  0  0  0  0
   52.4784   32.5290   48.1252 H   0  0  0  0  0  0  0  0  0  0  0  0
   53.9779   31.9578   50.7011 H   0  0  0  0  0  0  0  0  0  0  0  0
   54.4381   33.1728   49.4192 H   0  0  0  0  0  0  0  0  0  0  0  0
   53.1834   33.9775   51.5242 H   0  0  0  0  0  0  0  0  0  0  0  0
   52.6721   34.5542   49.9028 H   0  0  0  0  0  0  0  0  0  0  0  0
   50.9954   33.4602   51.7560 H   0  0  0  0  0  0  0  0  0  0  0  0
   50.7177   33.4300   49.9735 H   0  0  0  0  0  0  0  0  0  0  0  0
   50.4558   31.1951   51.1233 H   0  0  0  0  0  0  0  0  0  0  0  0
   52.2276   31.2726   51.4950 H   0  0  0  0  0  0  0  0  0  0  0  0
  1  9  2  0
  2  1  1  0
  2  3  2  0
  3  4  1  0
  4  8  2  0
  4  5  1  0
  5  6  1  0
  7  6  2  0
  8  7  1  0
  9 20  1  0
  9  8  1  0
 10 15  2  0
 11 12  2  0
 11 10  1  0
 12 13  1  0
 13 14  2  0
 14  2  1  0
 15 14  1  0
 16 17  1  0
 16 11  1  0
 18 16  1  0
 19 16  1  0
 20 22  1  0
 22 21  2  0
 22 23  1  0
 24 22  1  0
 24 25  1  0
 25 30  1  0
 26 25  1  0
 26 27  1  0
 27 28  1  0
 28 29  1  0
 29 30  1  0
  1 31  1  0
  3 32  1  0
  5 33  1  0
  6 34  1  0
 10 35  1  0
 12 36  1  0
 23 37  1  0
 25 38  1  0
 26 39  1  0
 26 40  1  0
 27 41  1  0
 27 42  1  0
 28 43  1  0
 28 44  1  0
 29 45  1  0
 29 46  1  0
 30 47  1  0
 30 48  1  0
M  ISO  8  31  14  32  14  33   9  34  14  35  14  36  14  37   3  38  13
M  ISO  8  39  13  40  13  41  13  42  13  43  13  44  13  45  13  46  13
M  ISO  2  47  13  48  13
M  END
>  <minimizedAffinity>  (1) 
-6.00779963

>  <minimizedRMSD>  (1) 
1.59008098

$$$$
