
     RDKit          3D

 37 40  0  0  1  0  0  0  0  0999 V2000
   46.3160   32.1210   44.5260 C   0  0  1  0  0  0  0  0  0  0  0  0
   46.4560   31.3690   43.3520 C   0  0  0  0  0  0  0  0  0  0  0  0
   47.6820   32.1200   43.9600 C   0  0  1  0  0  0  0  0  0  0  0  0
   45.0680   33.9800   43.1870 C   0  0  0  0  0  0  0  0  0  0  0  0
   45.5540   33.4560   44.4290 C   0  0  0  0  0  0  0  0  0  0  0  0
   45.3390   34.2080   45.5650 C   0  0  0  0  0  0  0  0  0  0  0  0
   44.6920   35.3870   45.4600 N   0  0  0  0  0  0  0  0  0  0  0  0
   44.2370   35.8730   44.2720 C   0  0  0  0  0  0  0  0  0  0  0  0
   44.4380   35.1350   43.1030 N   0  0  0  0  0  0  0  0  0  0  0  0
   48.0570   33.2540   43.1940 N   0  0  0  0  0  0  0  0  0  0  0  0
   49.2270   33.3120   42.4450 C   0  0  0  0  0  0  0  0  0  0  0  0
   50.3930   32.9230   42.7050 O   0  0  0  0  0  0  0  0  0  0  0  0
   49.1810   33.9350   41.0570 C   0  0  2  0  0  0  0  0  0  0  0  0
   48.6900   35.4260   40.9800 C   0  0  0  0  0  0  0  0  0  0  0  0
   47.9130   34.2720   40.4140 C   0  0  1  0  0  0  0  0  0  0  0  0
   47.8390   34.1740   38.9100 C   0  0  0  0  0  0  0  0  0  0  0  0
   48.5820   34.8390   38.2020 O   0  0  0  0  0  0  0  0  0  0  0  0
   46.8470   33.2570   38.2620 C   0  0  0  0  0  0  0  0  0  0  0  0
   46.9040   32.9800   36.8120 C   0  0  0  0  0  0  0  0  0  0  0  0
   47.4460   31.9530   37.7760 C   0  0  0  0  0  0  0  0  0  0  0  0
   45.9082   31.8671   45.5155 H   0  0  0  0  0  0  0  0  0  0  0  0
   46.0031   31.7223   42.4139 H   0  0  0  0  0  0  0  0  0  0  0  0
   46.2435   30.3296   43.0613 H   0  0  0  0  0  0  0  0  0  0  0  0
   48.6896   31.8977   44.3411 H   0  0  0  0  0  0  0  0  0  0  0  0
   45.2267   33.3961   42.2684 H   0  0  0  0  0  0  0  0  0  0  0  0
   45.6906   33.8509   46.5442 H   0  0  0  0  0  0  0  0  0  0  0  0
   43.7147   36.8403   44.2331 H   0  0  0  0  0  0  0  0  0  0  0  0
   47.4327   34.0733   43.1927 H   0  0  0  0  0  0  0  0  0  0  0  0
   50.0551   33.3497   40.7356 H   0  0  0  0  0  0  0  0  0  0  0  0
   48.3394   35.9463   41.8835 H   0  0  0  0  0  0  0  0  0  0  0  0
   49.0908   36.3782   40.6023 H   0  0  0  0  0  0  0  0  0  0  0  0
   46.8842   33.9080   40.5524 H   0  0  0  0  0  0  0  0  0  0  0  0
   46.0244   33.5844   38.9148 H   0  0  0  0  0  0  0  0  0  0  0  0
   47.5951   33.5491   36.1728 H   0  0  0  0  0  0  0  0  0  0  0  0
   46.1624   32.9610   35.9998 H   0  0  0  0  0  0  0  0  0  0  0  0
   46.9114   31.0047   37.9339 H   0  0  0  0  0  0  0  0  0  0  0  0
   48.4036   31.4288   37.9106 H   0  0  0  0  0  0  0  0  0  0  0  0
  2  3  1  0
  2  1  1  0
  3  1  1  0
  4  5  2  0
  5  1  1  0
  5  6  1  0
  7  6  2  0
  8  7  1  0
  9  4  1  0
  9  8  2  0
 10  3  1  0
 11 12  2  0
 11 10  1  0
 13 11  1  0
 14 13  1  0
 15 14  1  0
 15 13  1  0
 16 15  1  0
 17 16  2  0
 18 16  1  0
 19 20  1  0
 19 18  1  0
 20 18  1  0
  1 21  1  1
  2 22  1  0
  2 23  1  0
  3 24  1  1
  4 25  1  0
  6 26  1  0
  8 27  1  0
 10 28  1  0
 13 29  1  6
 14 30  1  0
 14 31  1  0
 15 32  1  1
 18 33  1  0
 19 34  1  0
 19 35  1  0
 20 36  1  0
 20 37  1  0
M  ISO  8  21  13  22  13  23  13  24  13  25  14  26  14  27  14  29  13
M  ISO  8  30  13  31  13  32  13  33  13  34  13  35  13  36  13  37  13
M  END
>  <minimizedAffinity>  (1) 
-4.52099133

>  <minimizedRMSD>  (1) 
0.28670156

$$$$
