
     RDKit          3D

 39 42  0  0  0  0  0  0  0  0999 V2000
   47.6710   30.9660   46.0110 C   0  0  0  0  0  0  0  0  0  0  0  0
   46.9710   32.0550   45.5340 C   0  0  0  0  0  0  0  0  0  0  0  0
   45.9950   32.5800   46.3350 C   0  0  0  0  0  0  0  0  0  0  0  0
   45.6890   32.0720   47.5850 C   0  0  0  0  0  0  0  0  0  0  0  0
   44.8250   32.3340   48.5930 N   0  0  0  0  0  0  0  0  0  0  0  0
   44.9930   31.4670   49.6050 C   0  0  0  0  0  0  0  0  0  0  0  0
   45.9820   30.6430   49.2240 N   0  0  0  0  0  0  0  0  0  0  0  0
   46.4200   30.9930   47.9980 C   0  0  0  0  0  0  0  0  0  0  0  0
   47.4090   30.4170   47.2490 C   0  0  0  0  0  0  0  0  0  0  0  0
   47.2140   34.3950   42.7400 C   0  0  0  0  0  0  0  0  0  0  0  0
   47.8320   33.6500   41.7470 C   0  0  0  0  0  0  0  0  0  0  0  0
   48.1530   32.3310   42.0760 C   0  0  0  0  0  0  0  0  0  0  0  0
   47.8640   31.8350   43.3130 N   0  0  0  0  0  0  0  0  0  0  0  0
   47.2640   32.6180   44.2240 C   0  0  0  0  0  0  0  0  0  0  0  0
   46.9370   33.8820   43.9590 N   0  0  0  0  0  0  0  0  0  0  0  0
   48.0980   34.2980   40.4360 C   0  0  0  0  0  0  0  0  0  0  0  0
   48.6020   35.5300   40.7380 F   0  0  0  0  0  0  0  0  0  0  0  0
   46.9130   34.4210   39.7780 F   0  0  0  0  0  0  0  0  0  0  0  0
   48.9910   33.4880   39.7350 F   0  0  0  0  0  0  0  0  0  0  0  0
   48.1170   29.3200   47.7270 O   0  0  0  0  0  0  0  0  0  0  0  0
   49.7140   27.9920   49.2680 O   0  0  0  0  0  0  0  0  0  0  0  0
   49.4300   29.4200   48.7850 P   0  0  2  0  0  0  0  0  0  0  0  0
   48.9330   30.3150   50.1480 O   0  0  0  0  0  0  0  0  0  0  0  0
   50.8130   30.0650   48.1190 O   0  0  0  0  0  0  0  0  0  0  0  0
   51.5410   29.3280   47.1920 C   0  0  0  0  0  0  0  0  0  0  0  0
   51.1540   28.9960   45.8900 C   0  0  0  0  0  0  0  0  0  0  0  0
   52.1680   28.2450   45.2820 C   0  0  0  0  0  0  0  0  0  0  0  0
   53.1220   28.1510   46.2270 N   0  0  0  0  0  0  0  0  0  0  0  0
   52.7580   28.7720   47.3170 N   0  0  0  0  0  0  0  0  0  0  0  0
   48.4605   30.5229   45.3863 H   0  0  0  0  0  0  0  0  0  0  0  0
   45.4263   33.4472   45.9682 H   0  0  0  0  0  0  0  0  0  0  0  0
   44.1318   33.0958   48.5852 H   0  0  0  0  0  0  0  0  0  0  0  0
   44.4345   31.4380   50.5522 H   0  0  0  0  0  0  0  0  0  0  0  0
   46.9400   35.4390   42.5281 H   0  0  0  0  0  0  0  0  0  0  0  0
   48.6430   31.6869   41.3310 H   0  0  0  0  0  0  0  0  0  0  0  0
   49.1991   29.8358   50.9724 H   0  0  0  0  0  0  0  0  0  0  0  0
   50.2023   29.2801   45.4173 H   0  0  0  0  0  0  0  0  0  0  0  0
   52.1816   27.8273   44.2645 H   0  0  0  0  0  0  0  0  0  0  0  0
   54.0175   27.6565   46.1069 H   0  0  0  0  0  0  0  0  0  0  0  0
  1  9  2  0
  2  1  1  0
  2  3  2  0
  3  4  1  0
  4  8  2  0
  4  5  1  0
  5  6  1  0
  7  6  2  0
  8  7  1  0
  9 20  1  0
  9  8  1  0
 10 15  2  0
 11 12  2  0
 11 10  1  0
 12 13  1  0
 13 14  2  0
 14  2  1  0
 15 14  1  0
 16 17  1  0
 16 11  1  0
 18 16  1  0
 19 16  1  0
 20 22  1  0
 22 21  2  0
 22 23  1  0
 24 22  1  0
 25 29  2  0
 25 24  1  0
 26 25  1  0
 27 26  2  0
 27 28  1  0
 28 29  1  0
  1 30  1  0
  3 31  1  0
  5 32  1  0
  6 33  1  0
 10 34  1  0
 12 35  1  0
 23 36  1  0
 26 37  1  0
 27 38  1  0
 28 39  1  0
M  ISO  8  30  14  31  14  32   9  33  14  34  14  35  14  36   3  37  14
M  ISO  2  38  14  39   9
M  END
>  <minimizedAffinity>  (1) 
-5.48878193

>  <minimizedRMSD>  (1) 
0.394699991

$$$$
