
     RDKit          3D

 39 42  0  0  0  0  0  0  0  0999 V2000
   47.6940   31.0260   46.0320 C   0  0  0  0  0  0  0  0  0  0  0  0
   46.9650   32.0830   45.5500 C   0  0  0  0  0  0  0  0  0  0  0  0
   45.9610   32.5910   46.3430 C   0  0  0  0  0  0  0  0  0  0  0  0
   45.6690   32.0740   47.5940 C   0  0  0  0  0  0  0  0  0  0  0  0
   44.7860   32.3260   48.5880 N   0  0  0  0  0  0  0  0  0  0  0  0
   44.9740   31.4720   49.6030 C   0  0  0  0  0  0  0  0  0  0  0  0
   45.9900   30.6670   49.2480 N   0  0  0  0  0  0  0  0  0  0  0  0
   46.4280   31.0200   48.0220 C   0  0  0  0  0  0  0  0  0  0  0  0
   47.4370   30.4730   47.2800 C   0  0  0  0  0  0  0  0  0  0  0  0
   47.1470   34.4080   42.7280 C   0  0  0  0  0  0  0  0  0  0  0  0
   47.8100   33.6770   41.7560 C   0  0  0  0  0  0  0  0  0  0  0  0
   48.1880   32.3760   42.0980 C   0  0  0  0  0  0  0  0  0  0  0  0
   47.9030   31.8830   43.3340 N   0  0  0  0  0  0  0  0  0  0  0  0
   47.2550   32.6480   44.2310 C   0  0  0  0  0  0  0  0  0  0  0  0
   46.8670   33.9050   43.9600 N   0  0  0  0  0  0  0  0  0  0  0  0
   48.0720   34.3090   40.4420 C   0  0  0  0  0  0  0  0  0  0  0  0
   48.5750   35.5620   40.7440 F   0  0  0  0  0  0  0  0  0  0  0  0
   46.8940   34.4370   39.7820 F   0  0  0  0  0  0  0  0  0  0  0  0
   48.9800   33.5260   39.7460 F   0  0  0  0  0  0  0  0  0  0  0  0
   48.1680   29.4070   47.7720 O   0  0  0  0  0  0  0  0  0  0  0  0
   49.8160   28.1120   49.2850 O   0  0  0  0  0  0  0  0  0  0  0  0
   49.4630   29.5400   48.8580 P   0  0  2  0  0  0  0  0  0  0  0  0
   48.8950   30.3540   50.2390 O   0  0  0  0  0  0  0  0  0  0  0  0
   50.8070   30.2840   48.2140 O   0  0  0  0  0  0  0  0  0  0  0  0
   51.9130   29.4850   48.4080 C   0  0  0  0  0  0  0  0  0  0  0  0
   53.1960   30.0980   47.7910 C   0  0  0  0  0  0  0  0  0  0  0  0
   53.0390   29.8360   49.2820 C   0  0  0  0  0  0  0  0  0  0  0  0
   48.5020   30.6059   45.4151 H   0  0  0  0  0  0  0  0  0  0  0  0
   45.3687   33.4391   45.9690 H   0  0  0  0  0  0  0  0  0  0  0  0
   44.0718   33.0679   48.5672 H   0  0  0  0  0  0  0  0  0  0  0  0
   44.4066   31.4365   50.5447 H   0  0  0  0  0  0  0  0  0  0  0  0
   46.8345   35.4364   42.4940 H   0  0  0  0  0  0  0  0  0  0  0  0
   48.7175   31.7485   41.3660 H   0  0  0  0  0  0  0  0  0  0  0  0
   49.2185   29.8904   51.0517 H   0  0  0  0  0  0  0  0  0  0  0  0
   51.3124   28.5644   48.3651 H   0  0  0  0  0  0  0  0  0  0  0  0
   53.8737   29.4795   47.1842 H   0  0  0  0  0  0  0  0  0  0  0  0
   53.4374   30.9643   47.1576 H   0  0  0  0  0  0  0  0  0  0  0  0
   52.9443   30.6845   49.9756 H   0  0  0  0  0  0  0  0  0  0  0  0
   53.6297   29.2812   50.0259 H   0  0  0  0  0  0  0  0  0  0  0  0
  1  9  2  0
  2  1  1  0
  2  3  2  0
  3  4  1  0
  4  8  2  0
  4  5  1  0
  5  6  1  0
  7  6  2  0
  8  7  1  0
  9 20  1  0
  9  8  1  0
 10 15  2  0
 11 12  2  0
 11 10  1  0
 12 13  1  0
 13 14  2  0
 14  2  1  0
 15 14  1  0
 16 17  1  0
 16 11  1  0
 18 16  1  0
 19 16  1  0
 20 22  1  0
 22 21  2  0
 22 23  1  0
 24 25  1  0
 24 22  1  0
 25 27  1  0
 26 25  1  0
 26 27  1  0
  1 28  1  0
  3 29  1  0
  5 30  1  0
  6 31  1  0
 10 32  1  0
 12 33  1  0
 23 34  1  0
 25 35  1  0
 26 36  1  0
 26 37  1  0
 27 38  1  0
 27 39  1  0
M  ISO  8  28  14  29  14  30   9  31  14  32  14  33  14  34   3  35  13
M  ISO  4  36  13  37  13  38  13  39  13
M  END
>  <minimizedAffinity>  (1) 
-5.47760201

>  <minimizedRMSD>  (1) 
0.21617043

$$$$
