
     RDKit          3D

 38 40  0  0  0  0  0  0  0  0999 V2000
   47.7270   31.0170   45.9760 C   0  0  0  0  0  0  0  0  0  0  0  0
   46.9750   32.0410   45.4610 C   0  0  0  0  0  0  0  0  0  0  0  0
   45.9350   32.5080   46.2170 C   0  0  0  0  0  0  0  0  0  0  0  0
   45.6060   32.0030   47.4560 C   0  0  0  0  0  0  0  0  0  0  0  0
   44.6780   32.2310   48.4160 N   0  0  0  0  0  0  0  0  0  0  0  0
   44.8700   31.3790   49.4580 C   0  0  0  0  0  0  0  0  0  0  0  0
   45.9310   30.6140   49.1340 N   0  0  0  0  0  0  0  0  0  0  0  0
   46.3850   30.9840   47.9230 C   0  0  0  0  0  0  0  0  0  0  0  0
   47.4430   30.4630   47.2280 C   0  0  0  0  0  0  0  0  0  0  0  0
   47.2960   34.4060   42.6920 C   0  0  0  0  0  0  0  0  0  0  0  0
   47.8820   33.6270   41.6810 C   0  0  0  0  0  0  0  0  0  0  0  0
   48.1530   32.2790   42.0000 C   0  0  0  0  0  0  0  0  0  0  0  0
   47.8490   31.8010   43.2260 N   0  0  0  0  0  0  0  0  0  0  0  0
   47.2850   32.6100   44.1500 C   0  0  0  0  0  0  0  0  0  0  0  0
   47.0060   33.8900   43.9040 N   0  0  0  0  0  0  0  0  0  0  0  0
   48.1710   34.2630   40.3750 C   0  0  0  0  0  0  0  0  0  0  0  0
   48.7220   35.4900   40.6950 F   0  0  0  0  0  0  0  0  0  0  0  0
   46.9970   34.4460   39.7200 F   0  0  0  0  0  0  0  0  0  0  0  0
   49.0520   33.4470   39.6790 F   0  0  0  0  0  0  0  0  0  0  0  0
   48.1990   29.4270   47.7520 O   0  0  0  0  0  0  0  0  0  0  0  0
   49.8270   28.2120   49.3630 O   0  0  0  0  0  0  0  0  0  0  0  0
   49.4380   29.5990   48.8740 P   0  0  2  0  0  0  0  0  0  0  0  0
   48.7920   30.4270   50.2180 O   0  0  0  0  0  0  0  0  0  0  0  0
   50.7860   30.4100   48.2930 O   0  0  0  0  0  0  0  0  0  0  0  0
   51.8090   30.5520   49.2010 C   0  0  0  0  0  0  0  0  0  0  0  0
   51.9120   32.0450   49.5140 C   0  0  0  0  0  0  0  0  0  0  0  0
   48.5717   30.6228   45.3919 H   0  0  0  0  0  0  0  0  0  0  0  0
   45.3280   33.3319   45.8136 H   0  0  0  0  0  0  0  0  0  0  0  0
   43.9367   32.9442   48.3643 H   0  0  0  0  0  0  0  0  0  0  0  0
   44.2766   31.3249   50.3826 H   0  0  0  0  0  0  0  0  0  0  0  0
   47.0679   35.4630   42.4905 H   0  0  0  0  0  0  0  0  0  0  0  0
   48.6118   31.6178   41.2501 H   0  0  0  0  0  0  0  0  0  0  0  0
   49.1194   30.0073   51.0527 H   0  0  0  0  0  0  0  0  0  0  0  0
   51.5840   29.9868   50.1175 H   0  0  0  0  0  0  0  0  0  0  0  0
   52.7557   30.1658   48.7952 H   0  0  0  0  0  0  0  0  0  0  0  0
   51.9221   32.1912   50.6042 H   0  0  0  0  0  0  0  0  0  0  0  0
   52.8400   32.4471   49.0815 H   0  0  0  0  0  0  0  0  0  0  0  0
   51.0480   32.5708   49.0815 H   0  0  0  0  0  0  0  0  0  0  0  0
  1  9  2  0
  2  1  1  0
  2  3  2  0
  3  4  1  0
  4  8  2  0
  4  5  1  0
  5  6  1  0
  7  6  2  0
  8  7  1  0
  9 20  1  0
  9  8  1  0
 10 15  2  0
 11 12  2  0
 11 10  1  0
 12 13  1  0
 13 14  2  0
 14  2  1  0
 15 14  1  0
 16 17  1  0
 16 11  1  0
 18 16  1  0
 19 16  1  0
 20 22  1  0
 22 21  2  0
 22 23  1  0
 24 22  1  0
 24 25  1  0
 25 26  1  0
  1 27  1  0
  3 28  1  0
  5 29  1  0
  6 30  1  0
 10 31  1  0
 12 32  1  0
 23 33  1  0
 25 34  1  0
 25 35  1  0
 26 36  1  0
 26 37  1  0
 26 38  1  0
M  ISO  8  27  14  28  14  29   9  30  14  31  14  32  14  33   3  34   8
M  ISO  4  35   8  36   8  37   8  38   8
M  END
>  <minimizedAffinity>  (1) 
-5.55019236

>  <minimizedRMSD>  (1) 
0.352998286

$$$$
