
     RDKit          3D

 39 41  0  0  0  0  0  0  0  0999 V2000
   47.7390   31.0190   45.9880 C   0  0  0  0  0  0  0  0  0  0  0  0
   46.9800   32.0410   45.4680 C   0  0  0  0  0  0  0  0  0  0  0  0
   45.9430   32.4920   46.2250 C   0  0  0  0  0  0  0  0  0  0  0  0
   45.6150   31.9870   47.4640 C   0  0  0  0  0  0  0  0  0  0  0  0
   44.6850   32.2170   48.4110 N   0  0  0  0  0  0  0  0  0  0  0  0
   44.8810   31.3630   49.4580 C   0  0  0  0  0  0  0  0  0  0  0  0
   45.9470   30.6050   49.1370 N   0  0  0  0  0  0  0  0  0  0  0  0
   46.3950   30.9780   47.9330 C   0  0  0  0  0  0  0  0  0  0  0  0
   47.4590   30.4650   47.2370 C   0  0  0  0  0  0  0  0  0  0  0  0
   47.3060   34.4030   42.7000 C   0  0  0  0  0  0  0  0  0  0  0  0
   47.8890   33.6280   41.6920 C   0  0  0  0  0  0  0  0  0  0  0  0
   48.1560   32.2890   42.0060 C   0  0  0  0  0  0  0  0  0  0  0  0
   47.8530   31.8020   43.2310 N   0  0  0  0  0  0  0  0  0  0  0  0
   47.2920   32.6060   44.1570 C   0  0  0  0  0  0  0  0  0  0  0  0
   47.0210   33.8780   43.9070 N   0  0  0  0  0  0  0  0  0  0  0  0
   48.1760   34.2710   40.3870 C   0  0  0  0  0  0  0  0  0  0  0  0
   48.7370   35.4910   40.7060 F   0  0  0  0  0  0  0  0  0  0  0  0
   47.0050   34.4520   39.7280 F   0  0  0  0  0  0  0  0  0  0  0  0
   49.0510   33.4490   39.6780 F   0  0  0  0  0  0  0  0  0  0  0  0
   48.2260   29.4350   47.7570 O   0  0  0  0  0  0  0  0  0  0  0  0
   49.8290   28.2190   49.3970 O   0  0  0  0  0  0  0  0  0  0  0  0
   49.4440   29.6110   48.8970 P   0  0  2  0  0  0  0  0  0  0  0  0
   48.7920   30.4440   50.2240 O   0  0  0  0  0  0  0  0  0  0  0  0
   50.8050   30.4070   48.3260 O   0  0  0  0  0  0  0  0  0  0  0  0
   51.8190   30.5530   49.2360 C   0  0  0  0  0  0  0  0  0  0  0  0
   52.0270   32.0650   49.4130 C   0  0  0  0  0  0  0  0  0  0  0  0
   50.9340   32.6600   49.9910 O   0  0  0  0  0  0  0  0  0  0  0  0
   48.5867   30.6293   45.4053 H   0  0  0  0  0  0  0  0  0  0  0  0
   45.3284   33.3107   45.8225 H   0  0  0  0  0  0  0  0  0  0  0  0
   43.9412   32.9272   48.3540 H   0  0  0  0  0  0  0  0  0  0  0  0
   44.2859   31.3054   50.3813 H   0  0  0  0  0  0  0  0  0  0  0  0
   47.0761   35.4606   42.5032 H   0  0  0  0  0  0  0  0  0  0  0  0
   48.6141   31.6308   41.2530 H   0  0  0  0  0  0  0  0  0  0  0  0
   49.1151   30.0312   51.0639 H   0  0  0  0  0  0  0  0  0  0  0  0
   51.5391   30.0924   50.1949 H   0  0  0  0  0  0  0  0  0  0  0  0
   52.7400   30.0611   48.8899 H   0  0  0  0  0  0  0  0  0  0  0  0
   52.9053   32.2321   50.0539 H   0  0  0  0  0  0  0  0  0  0  0  0
   52.1764   32.5109   48.4186 H   0  0  0  0  0  0  0  0  0  0  0  0
   51.0165   32.6151   50.9765 H   0  0  0  0  0  0  0  0  0  0  0  0
  1  9  2  0
  2  1  1  0
  2  3  2  0
  3  4  1  0
  4  8  2  0
  4  5  1  0
  5  6  1  0
  7  6  2  0
  8  7  1  0
  9 20  1  0
  9  8  1  0
 10 15  2  0
 11 12  2  0
 11 10  1  0
 12 13  1  0
 13 14  2  0
 14  2  1  0
 15 14  1  0
 16 17  1  0
 16 11  1  0
 18 16  1  0
 19 16  1  0
 20 22  1  0
 22 21  2  0
 22 23  1  0
 24 22  1  0
 24 25  1  0
 25 26  1  0
 26 27  1  0
  1 28  1  0
  3 29  1  0
  5 30  1  0
  6 31  1  0
 10 32  1  0
 12 33  1  0
 23 34  1  0
 25 35  1  0
 25 36  1  0
 26 37  1  0
 26 38  1  0
 27 39  1  0
M  ISO  8  28  14  29  14  30   9  31  14  32  14  33  14  34   3  35   8
M  ISO  4  36   8  37   8  38   8  39   3
M  END
>  <minimizedAffinity>  (1) 
-5.51505804

>  <minimizedRMSD>  (1) 
0.0614153296

$$$$
