
     RDKit          3D

 29 31  0  0  1  0  0  0  0  0999 V2000
   44.1870   35.1370   41.1850 C   0  0  1  0  0  0  0  0  0  0  0  0
   43.7140   33.8810   40.4250 C   0  0  0  0  0  0  0  0  0  0  0  0
   42.8400   35.0540   40.6750 C   0  0  1  0  0  0  0  0  0  0  0  0
   44.5340   34.8840   42.6050 C   0  0  0  0  0  0  0  0  0  0  0  0
   44.3200   35.9340   43.5510 C   0  0  0  0  0  0  0  0  0  0  0  0
   44.6390   35.6810   44.8780 C   0  0  0  0  0  0  0  0  0  0  0  0
   45.1340   34.4500   45.1900 N   0  0  0  0  0  0  0  0  0  0  0  0
   45.3230   33.4790   44.2660 C   0  0  0  0  0  0  0  0  0  0  0  0
   45.0240   33.6980   42.9870 N   0  0  0  0  0  0  0  0  0  0  0  0
   41.6610   34.9240   41.4780 N   0  0  0  0  0  0  0  0  0  0  0  0
   40.8860   33.7550   41.3400 C   0  0  0  0  0  0  0  0  0  0  0  0
   39.6300   34.0880   40.5660 C   0  0  0  0  0  0  0  0  0  0  0  0
   39.8880   35.5000   40.0390 C   0  0  0  0  0  0  0  0  0  0  0  0
   40.7790   36.0320   41.1360 C   0  0  0  0  0  0  0  0  0  0  0  0
   44.9488   35.9260   41.1010 H   0  0  0  0  0  0  0  0  0  0  0  0
   43.5455   32.9349   40.9603 H   0  0  0  0  0  0  0  0  0  0  0  0
   44.0476   33.3105   39.5457 H   0  0  0  0  0  0  0  0  0  0  0  0
   42.2539   35.7441   40.0503 H   0  0  0  0  0  0  0  0  0  0  0  0
   43.9166   36.9084   43.2383 H   0  0  0  0  0  0  0  0  0  0  0  0
   44.4969   36.4490   45.6526 H   0  0  0  0  0  0  0  0  0  0  0  0
   45.7261   32.5029   44.5736 H   0  0  0  0  0  0  0  0  0  0  0  0
   41.4627   32.9917   40.7971 H   0  0  0  0  0  0  0  0  0  0  0  0
   40.6191   33.3655   42.3335 H   0  0  0  0  0  0  0  0  0  0  0  0
   39.4824   33.3812   39.7362 H   0  0  0  0  0  0  0  0  0  0  0  0
   38.7215   34.0242   41.1828 H   0  0  0  0  0  0  0  0  0  0  0  0
   40.4024   35.4850   39.0668 H   0  0  0  0  0  0  0  0  0  0  0  0
   38.9829   36.0954   39.8483 H   0  0  0  0  0  0  0  0  0  0  0  0
   41.3618   36.8931   40.7769 H   0  0  0  0  0  0  0  0  0  0  0  0
   40.2008   36.3821   42.0038 H   0  0  0  0  0  0  0  0  0  0  0  0
  1  4  1  0
  2  3  1  0
  2  1  1  0
  3  1  1  0
  3 10  1  0
  4  9  1  0
  4  5  2  0
  5  6  1  0
  6  7  2  0
  8  7  1  0
  9  8  2  0
 10 11  1  0
 12 11  1  0
 13 12  1  0
 13 14  1  0
 14 10  1  0
  1 15  1  6
  2 16  1  0
  2 17  1  0
  3 18  1  6
  5 19  1  0
  6 20  1  0
  8 21  1  0
 11 22  1  0
 11 23  1  0
 12 24  1  0
 12 25  1  0
 13 26  1  0
 13 27  1  0
 14 28  1  0
 14 29  1  0
M  ISO  8  15  13  16  13  17  13  18  13  19  14  20  14  21  14  22  13
M  ISO  7  23  13  24  13  25  13  26  13  27  13  28  13  29  13
M  END
>  <minimizedAffinity>  (1) 
-4.5378418

>  <minimizedRMSD>  (1) 
5.27416706

$$$$
