
     RDKit          3D

 29 31  0  0  1  0  0  0  0  0999 V2000
   44.4800   34.9550   43.4860 C   0  0  1  0  0  0  0  0  0  0  0  0
   45.1500   36.2830   43.0420 C   0  0  0  0  0  0  0  0  0  0  0  0
   44.7150   35.2380   42.0860 C   0  0  2  0  0  0  0  0  0  0  0  0
   45.3680   34.1070   44.3150 C   0  0  0  0  0  0  0  0  0  0  0  0
   46.3210   33.3110   43.6460 C   0  0  0  0  0  0  0  0  0  0  0  0
   47.1800   32.4960   44.4090 C   0  0  0  0  0  0  0  0  0  0  0  0
   47.0290   32.5360   45.7800 N   0  0  0  0  0  0  0  0  0  0  0  0
   46.0940   33.3240   46.3690 C   0  0  0  0  0  0  0  0  0  0  0  0
   45.2690   34.1050   45.6420 N   0  0  0  0  0  0  0  0  0  0  0  0
   43.5040   34.6380   40.0310 C   0  0  2  0  0  0  0  0  0  0  0  0
   43.5520   35.5900   41.2030 C   0  0  1  0  0  0  0  0  0  0  0  0
   42.2260   35.3440   41.8860 C   0  0  0  0  0  0  0  0  0  0  0  0
   41.6420   34.2400   41.3140 O   0  0  0  0  0  0  0  0  0  0  0  0
   42.0700   34.1740   39.9950 C   0  0  0  0  0  0  0  0  0  0  0  0
   44.3020   33.5250   40.2360 O   0  0  0  0  0  0  0  0  0  0  0  0
   43.5815   34.5946   44.0083 H   0  0  0  0  0  0  0  0  0  0  0  0
   44.6042   37.2353   43.1147 H   0  0  0  0  0  0  0  0  0  0  0  0
   46.0859   36.8156   43.2666 H   0  0  0  0  0  0  0  0  0  0  0  0
   45.2130   34.6616   41.2924 H   0  0  0  0  0  0  0  0  0  0  0  0
   46.3922   33.3264   42.5484 H   0  0  0  0  0  0  0  0  0  0  0  0
   47.9376   31.8561   43.9330 H   0  0  0  0  0  0  0  0  0  0  0  0
   46.0070   33.3257   47.4656 H   0  0  0  0  0  0  0  0  0  0  0  0
   43.8545   35.1297   39.1116 H   0  0  0  0  0  0  0  0  0  0  0  0
   43.6905   36.6469   40.9315 H   0  0  0  0  0  0  0  0  0  0  0  0
   42.3884   35.1644   42.9590 H   0  0  0  0  0  0  0  0  0  0  0  0
   41.5722   36.2208   41.7690 H   0  0  0  0  0  0  0  0  0  0  0  0
   41.4647   34.8355   39.3578 H   0  0  0  0  0  0  0  0  0  0  0  0
   41.9720   33.1612   39.5771 H   0  0  0  0  0  0  0  0  0  0  0  0
   44.4117   33.3721   41.2080 H   0  0  0  0  0  0  0  0  0  0  0  0
  1  4  1  0
  2  1  1  0
  3  2  1  0
  3  1  1  0
  4  9  1  0
  5  4  2  0
  5  6  1  0
  6  7  2  0
  7  8  1  0
  9  8  2  0
 10 15  1  0
 10 11  1  0
 11 12  1  0
 11  3  1  0
 13 12  1  0
 14 10  1  0
 14 13  1  0
  1 16  1  6
  2 17  1  0
  2 18  1  0
  3 19  1  6
  5 20  1  0
  6 21  1  0
  8 22  1  0
 10 23  1  6
 11 24  1  6
 12 25  1  0
 12 26  1  0
 14 27  1  0
 14 28  1  0
 15 29  1  0
M  ISO  8  16  13  17  13  18  13  19  13  20  14  21  14  22  14  23  13
M  ISO  6  24  13  25  13  26  13  27  13  28  13  29   3
M  END
>  <minimizedAffinity>  (1) 
-4.11067057

>  <minimizedRMSD>  (1) 
1.18212259

$$$$
