
     RDKit          3D

 24 26  0  0  1  0  0  0  0  0999 V2000
   46.2600   32.6770   41.8450 C   0  0  1  0  0  0  0  0  0  0  0  0
   45.9260   32.0460   43.2280 C   0  0  0  0  0  0  0  0  0  0  0  0
   44.9940   32.9270   42.5110 C   0  0  1  0  0  0  0  0  0  0  0  0
   47.4140   33.6120   41.8990 C   0  0  0  0  0  0  0  0  0  0  0  0
   47.5540   34.5280   40.8260 C   0  0  0  0  0  0  0  0  0  0  0  0
   48.6270   35.4280   40.8640 C   0  0  0  0  0  0  0  0  0  0  0  0
   49.4790   35.3690   41.9410 N   0  0  0  0  0  0  0  0  0  0  0  0
   49.2950   34.4710   42.9380 C   0  0  0  0  0  0  0  0  0  0  0  0
   48.2710   33.5980   42.9180 N   0  0  0  0  0  0  0  0  0  0  0  0
   44.7970   34.2780   43.1260 C   0  0  0  0  0  0  0  0  0  0  0  0
   44.4050   35.4950   42.5630 C   0  0  0  0  0  0  0  0  0  0  0  0
   44.3630   36.4400   43.5130 N   0  0  0  0  0  0  0  0  0  0  0  0
   44.7190   35.8390   44.6490 C   0  0  0  0  0  0  0  0  0  0  0  0
   44.9880   34.5370   44.4530 N   0  0  0  0  0  0  0  0  0  0  0  0
   46.4916   32.3812   40.8111 H   0  0  0  0  0  0  0  0  0  0  0  0
   45.7203   30.9689   43.3141 H   0  0  0  0  0  0  0  0  0  0  0  0
   46.3917   32.0262   44.2244 H   0  0  0  0  0  0  0  0  0  0  0  0
   43.9506   32.8280   42.1770 H   0  0  0  0  0  0  0  0  0  0  0  0
   46.8411   34.5319   39.9883 H   0  0  0  0  0  0  0  0  0  0  0  0
   48.7828   36.1591   40.0570 H   0  0  0  0  0  0  0  0  0  0  0  0
   49.9986   34.4548   43.7834 H   0  0  0  0  0  0  0  0  0  0  0  0
   44.1668   35.6538   41.5009 H   0  0  0  0  0  0  0  0  0  0  0  0
   44.1074   37.4302   43.3903 H   0  0  0  0  0  0  0  0  0  0  0  0
   44.7842   36.3451   45.6235 H   0  0  0  0  0  0  0  0  0  0  0  0
  1  4  1  0
  1  3  1  0
  1  2  1  0
  3 10  1  0
  3  2  1  0
  4  9  2  0
  5  6  2  0
  5  4  1  0
  6  7  1  0
  7  8  2  0
  9  8  1  0
 10 14  1  0
 11 10  2  0
 11 12  1  0
 12 13  1  0
 14 13  2  0
  1 15  1  6
  2 16  1  0
  2 17  1  0
  3 18  1  6
  5 19  1  0
  6 20  1  0
  8 21  1  0
 11 22  1  0
 12 23  1  0
 13 24  1  0
M  ISO  8  15  13  16  13  17  13  18  13  19  14  20  14  21  14  22  14
M  ISO  2  23   9  24  14
M  END
>  <minimizedAffinity>  (1) 
-4.06494045

>  <minimizedRMSD>  (1) 
4.2043829

$$$$
