
     RDKit          3D

 26 28  0  0  1  0  0  0  0  0999 V2000
   46.8400   33.8550   43.8720 C   0  0  1  0  0  0  0  0  0  0  0  0
   47.5750   32.5700   43.4740 C   0  0  0  0  0  0  0  0  0  0  0  0
   48.2130   33.8670   43.3270 C   0  0  1  0  0  0  0  0  0  0  0  0
   45.6480   34.1880   43.0680 C   0  0  0  0  0  0  0  0  0  0  0  0
   45.3210   35.5420   42.8800 C   0  0  0  0  0  0  0  0  0  0  0  0
   44.1810   35.8370   42.1180 C   0  0  0  0  0  0  0  0  0  0  0  0
   43.4530   34.7830   41.6020 N   0  0  0  0  0  0  0  0  0  0  0  0
   43.8150   33.4930   41.8160 C   0  0  0  0  0  0  0  0  0  0  0  0
   44.9080   33.1980   42.5450 N   0  0  0  0  0  0  0  0  0  0  0  0
   48.3750   34.3860   41.9310 C   0  0  0  0  0  0  0  0  0  0  0  0
   48.9060   35.5690   41.4450 C   0  0  0  0  0  0  0  0  0  0  0  0
   48.8420   35.5660   40.0950 N   0  0  0  0  0  0  0  0  0  0  0  0
   48.2850   34.4110   39.7570 C   0  0  0  0  0  0  0  0  0  0  0  0
   47.9860   33.6650   40.8290 N   0  0  0  0  0  0  0  0  0  0  0  0
   48.0380   34.0250   38.3700 C   0  0  0  0  0  0  0  0  0  0  0  0
   48.4970   34.7070   37.4160 O   0  0  0  0  0  0  0  0  0  0  0  0
   46.3840   34.3135   44.7619 H   0  0  0  0  0  0  0  0  0  0  0  0
   47.9207   31.8693   44.2483 H   0  0  0  0  0  0  0  0  0  0  0  0
   47.3628   31.7224   42.8058 H   0  0  0  0  0  0  0  0  0  0  0  0
   49.1677   34.2869   43.6767 H   0  0  0  0  0  0  0  0  0  0  0  0
   45.9376   36.3423   43.3152 H   0  0  0  0  0  0  0  0  0  0  0  0
   43.8756   36.8781   41.9366 H   0  0  0  0  0  0  0  0  0  0  0  0
   43.2093   32.6798   41.3896 H   0  0  0  0  0  0  0  0  0  0  0  0
   49.3155   36.3832   42.0609 H   0  0  0  0  0  0  0  0  0  0  0  0
   49.1611   36.3098   39.4580 H   0  0  0  0  0  0  0  0  0  0  0  0
   47.4423   33.1254   38.1557 H   0  0  0  0  0  0  0  0  0  0  0  0
  2  1  1  0
  3  2  1  0
  3  1  1  0
  4  1  1  0
  5  4  2  0
  6  5  1  0
  7  8  1  0
  7  6  2  0
  8  9  2  0
  9  4  1  0
 10  3  1  0
 11 10  2  0
 12 11  1  0
 13 12  1  0
 13 14  2  0
 14 10  1  0
 15 13  1  0
 16 15  2  0
  1 17  1  1
  2 18  1  0
  2 19  1  0
  3 20  1  1
  5 21  1  0
  6 22  1  0
  8 23  1  0
 11 24  1  0
 12 25  1  0
 15 26  1  0
M  ISO  8  17  13  18  13  19  13  20  13  21  14  22  14  23  14  24  14
M  ISO  2  25   9  26   6
M  END
>  <minimizedAffinity>  (1) 
-4.55271292

>  <minimizedRMSD>  (1) 
5.22709274

$$$$
