
     RDKit          3D

 27 29  0  0  1  0  0  0  0  0999 V2000
   46.2840   34.0340   40.5250 C   0  0  1  0  0  0  0  0  0  0  0  0
   45.2830   32.9930   41.0370 C   0  0  0  0  0  0  0  0  0  0  0  0
   44.9520   34.4060   41.0340 C   0  0  1  0  0  0  0  0  0  0  0  0
   47.5240   34.1700   41.3340 C   0  0  0  0  0  0  0  0  0  0  0  0
   48.2610   35.3630   41.2120 C   0  0  0  0  0  0  0  0  0  0  0  0
   49.4350   35.4740   41.9730 C   0  0  0  0  0  0  0  0  0  0  0  0
   49.7850   34.4120   42.7830 N   0  0  0  0  0  0  0  0  0  0  0  0
   49.0360   33.2970   42.8540 C   0  0  0  0  0  0  0  0  0  0  0  0
   47.9100   33.1670   42.1370 N   0  0  0  0  0  0  0  0  0  0  0  0
   44.9080   35.0970   42.3640 C   0  0  0  0  0  0  0  0  0  0  0  0
   44.9120   36.4410   42.7030 C   0  0  0  0  0  0  0  0  0  0  0  0
   44.8390   36.5500   44.0480 N   0  0  0  0  0  0  0  0  0  0  0  0
   44.7900   35.3140   44.5260 C   0  0  0  0  0  0  0  0  0  0  0  0
   44.8280   34.4010   43.5480 N   0  0  0  0  0  0  0  0  0  0  0  0
   44.7010   34.8690   45.9550 C   0  0  0  0  0  0  0  0  0  0  0  0
   46.8287   34.2867   39.6033 H   0  0  0  0  0  0  0  0  0  0  0  0
   44.7888   32.3084   40.3320 H   0  0  0  0  0  0  0  0  0  0  0  0
   45.3016   32.1949   41.7937 H   0  0  0  0  0  0  0  0  0  0  0  0
   44.1144   34.9873   40.6210 H   0  0  0  0  0  0  0  0  0  0  0  0
   47.9304   36.1749   40.5475 H   0  0  0  0  0  0  0  0  0  0  0  0
   50.0575   36.3797   41.9256 H   0  0  0  0  0  0  0  0  0  0  0  0
   49.3533   32.4755   43.5132 H   0  0  0  0  0  0  0  0  0  0  0  0
   44.9657   37.2804   41.9941 H   0  0  0  0  0  0  0  0  0  0  0  0
   44.8243   37.4226   44.5950 H   0  0  0  0  0  0  0  0  0  0  0  0
   44.8731   35.7294   46.6184 H   0  0  0  0  0  0  0  0  0  0  0  0
   43.7016   34.4517   46.1475 H   0  0  0  0  0  0  0  0  0  0  0  0
   45.4630   34.0994   46.1475 H   0  0  0  0  0  0  0  0  0  0  0  0
  1  3  1  0
  1  2  1  0
  1  4  1  0
  3  2  1  0
  3 10  1  0
  4  9  1  0
  5  4  2  0
  5  6  1  0
  6  7  2  0
  7  8  1  0
  9  8  2  0
 10 11  2  0
 10 14  1  0
 11 12  1  0
 12 13  1  0
 13 15  1  0
 14 13  2  0
  1 16  1  6
  2 17  1  0
  2 18  1  0
  3 19  1  6
  5 20  1  0
  6 21  1  0
  8 22  1  0
 11 23  1  0
 12 24  1  0
 15 25  1  0
 15 26  1  0
 15 27  1  0
M  ISO  8  16  13  17  13  18  13  19  13  20  14  21  14  22  14  23  14
M  ISO  4  24   9  25   8  26   8  27   8
M  END
>  <minimizedAffinity>  (1) 
-4.51619196

>  <minimizedRMSD>  (1) 
1.38118327

$$$$
