
     RDKit          3D

 27 29  0  0  1  0  0  0  0  0999 V2000
   47.4020   32.4310   40.4940 C   0  0  1  0  0  0  0  0  0  0  0  0
   46.6780   31.5270   41.4990 C   0  0  0  0  0  0  0  0  0  0  0  0
   45.9330   32.3840   40.5940 C   0  0  1  0  0  0  0  0  0  0  0  0
   48.2200   33.5150   41.0980 C   0  0  0  0  0  0  0  0  0  0  0  0
   48.1960   34.7740   40.4710 C   0  0  0  0  0  0  0  0  0  0  0  0
   48.9870   35.7810   41.0490 C   0  0  0  0  0  0  0  0  0  0  0  0
   49.7220   35.4830   42.1710 N   0  0  0  0  0  0  0  0  0  0  0  0
   49.6980   34.2570   42.7180 C   0  0  0  0  0  0  0  0  0  0  0  0
   48.9540   33.2690   42.1940 N   0  0  0  0  0  0  0  0  0  0  0  0
   45.2600   33.5810   41.2000 C   0  0  0  0  0  0  0  0  0  0  0  0
   44.3610   34.4960   40.6750 C   0  0  0  0  0  0  0  0  0  0  0  0
   44.0310   35.3930   41.6270 N   0  0  0  0  0  0  0  0  0  0  0  0
   44.7080   35.0420   42.7100 C   0  0  0  0  0  0  0  0  0  0  0  0
   45.4630   33.9560   42.5050 N   0  0  0  0  0  0  0  0  0  0  0  0
   44.6340   35.7810   44.0200 C   0  0  0  0  0  0  0  0  0  0  0  0
   45.1230   37.0530   43.9310 F   0  0  0  0  0  0  0  0  0  0  0  0
   45.3490   35.1200   45.0020 F   0  0  0  0  0  0  0  0  0  0  0  0
   43.3340   35.8450   44.4830 F   0  0  0  0  0  0  0  0  0  0  0  0
   48.0943   32.3497   39.6430 H   0  0  0  0  0  0  0  0  0  0  0  0
   46.6726   30.4362   41.3571 H   0  0  0  0  0  0  0  0  0  0  0  0
   46.7135   31.3814   42.5887 H   0  0  0  0  0  0  0  0  0  0  0  0
   45.1279   32.2026   39.8668 H   0  0  0  0  0  0  0  0  0  0  0  0
   47.5884   34.9607   39.5732 H   0  0  0  0  0  0  0  0  0  0  0  0
   49.0173   36.7897   40.6113 H   0  0  0  0  0  0  0  0  0  0  0  0
   50.3014   34.0571   43.6158 H   0  0  0  0  0  0  0  0  0  0  0  0
   43.9770   34.4915   39.6442 H   0  0  0  0  0  0  0  0  0  0  0  0
   43.3842   36.1889   41.5312 H   0  0  0  0  0  0  0  0  0  0  0  0
  1  3  1  0
  1  4  1  0
  1  2  1  0
  3 10  1  0
  3  2  1  0
  4  9  2  0
  5  6  2  0
  5  4  1  0
  6  7  1  0
  7  8  2  0
  9  8  1  0
 10 14  1  0
 11 10  2  0
 11 12  1  0
 12 13  1  0
 13 15  1  0
 14 13  2  0
 15 18  1  0
 15 17  1  0
 16 15  1  0
  1 19  1  6
  2 20  1  0
  2 21  1  0
  3 22  1  6
  5 23  1  0
  6 24  1  0
  8 25  1  0
 11 26  1  0
 12 27  1  0
M  ISO  8  19  13  20  13  21  13  22  13  23  14  24  14  25  14  26  14
M  ISO  1  27   9
M  END
>  <minimizedAffinity>  (1) 
-4.42700863

>  <minimizedRMSD>  (1) 
1.76390076

$$$$
