
     RDKit          3D

 39 41  0  0  1  0  0  0  0  0999 V2000
   45.6830   33.9710   43.4590 C   0  0  2  0  0  0  0  0  0  0  0  0
   44.4190   33.8380   42.6500 C   0  0  0  0  0  0  0  0  0  0  0  0
   44.7830   34.6020   41.4000 C   0  0  0  0  0  0  0  0  0  0  0  0
   46.3020   34.5230   41.3070 C   0  0  0  0  0  0  0  0  0  0  0  0
   46.6830   33.5270   42.3780 C   0  0  1  0  0  0  0  0  0  0  0  0
   45.8530   32.6850   46.9970 C   0  0  0  0  0  0  0  0  0  0  0  0
   45.8120   33.5860   45.9400 C   0  0  0  0  0  0  0  0  0  0  0  0
   45.7390   33.1060   44.6380 C   0  0  0  0  0  0  0  0  0  0  0  0
   45.7110   31.7520   44.4930 N   0  0  0  0  0  0  0  0  0  0  0  0
   45.7510   30.8930   45.5270 C   0  0  0  0  0  0  0  0  0  0  0  0
   45.8210   31.3610   46.7770 N   0  0  0  0  0  0  0  0  0  0  0  0
   48.1040   33.6180   42.8230 C   0  0  0  0  0  0  0  0  0  0  0  0
   48.7900   32.2770   42.8900 C   0  0  0  0  0  0  0  0  0  0  0  0
   50.0470   32.1770   42.1260 C   0  0  0  0  0  0  0  0  0  0  0  0
   50.9530   33.3490   42.1050 C   0  0  0  0  0  0  0  0  0  0  0  0
   50.2940   34.5860   42.6570 C   0  0  0  0  0  0  0  0  0  0  0  0
   48.8990   34.6190   42.0130 C   0  0  0  0  0  0  0  0  0  0  0  0
   45.8375   34.9647   43.9046 H   0  0  0  0  0  0  0  0  0  0  0  0
   44.1935   32.7848   42.4264 H   0  0  0  0  0  0  0  0  0  0  0  0
   43.5182   34.2117   43.1589 H   0  0  0  0  0  0  0  0  0  0  0  0
   44.3185   34.1392   40.5168 H   0  0  0  0  0  0  0  0  0  0  0  0
   44.4285   35.6426   41.4381 H   0  0  0  0  0  0  0  0  0  0  0  0
   46.6149   34.1681   40.3140 H   0  0  0  0  0  0  0  0  0  0  0  0
   46.7860   35.5008   41.4470 H   0  0  0  0  0  0  0  0  0  0  0  0
   46.6304   32.4717   42.0720 H   0  0  0  0  0  0  0  0  0  0  0  0
   45.9125   33.0619   48.0287 H   0  0  0  0  0  0  0  0  0  0  0  0
   45.8371   34.6688   46.1320 H   0  0  0  0  0  0  0  0  0  0  0  0
   45.7262   29.8085   45.3445 H   0  0  0  0  0  0  0  0  0  0  0  0
   48.0676   33.9960   43.8554 H   0  0  0  0  0  0  0  0  0  0  0  0
   49.0148   32.0619   43.9451 H   0  0  0  0  0  0  0  0  0  0  0  0
   48.0964   31.5557   42.4331 H   0  0  0  0  0  0  0  0  0  0  0  0
   50.6158   31.3335   42.5443 H   0  0  0  0  0  0  0  0  0  0  0  0
   49.7208   32.0682   41.0811 H   0  0  0  0  0  0  0  0  0  0  0  0
   51.8422   33.1206   42.7110 H   0  0  0  0  0  0  0  0  0  0  0  0
   51.2236   33.5486   41.0577 H   0  0  0  0  0  0  0  0  0  0  0  0
   50.2122   34.5238   43.7522 H   0  0  0  0  0  0  0  0  0  0  0  0
   50.8721   35.4949   42.4340 H   0  0  0  0  0  0  0  0  0  0  0  0
   48.4565   35.6233   42.0876 H   0  0  0  0  0  0  0  0  0  0  0  0
   48.9199   34.3775   40.9400 H   0  0  0  0  0  0  0  0  0  0  0  0
  1  8  1  0
  2  1  1  0
  3  2  1  0
  4  3  1  0
  4  5  1  0
  5 12  1  0
  5  1  1  0
  7  6  2  0
  8  7  1  0
  9  8  2  0
  9 10  1  0
 10 11  2  0
 11  6  1  0
 12 13  1  0
 14 13  1  0
 15 14  1  0
 15 16  1  0
 17 16  1  0
 17 12  1  0
  1 18  1  1
  2 19  1  0
  2 20  1  0
  3 21  1  0
  3 22  1  0
  4 23  1  0
  4 24  1  0
  5 25  1  6
  6 26  1  0
  7 27  1  0
 10 28  1  0
 12 29  1  0
 13 30  1  0
 13 31  1  0
 14 32  1  0
 14 33  1  0
 15 34  1  0
 15 35  1  0
 16 36  1  0
 16 37  1  0
 17 38  1  0
 17 39  1  0
M  ISO  8  18  13  19  13  20  13  21  13  22  13  23  13  24  13  25  13
M  ISO  8  26  14  27  14  28  14  29  13  30  13  31  13  32  13  33  13
M  ISO  6  34  13  35  13  36  13  37  13  38  13  39  13
M  END
>  <minimizedAffinity>  (1) 
-4.61997557

>  <minimizedRMSD>  (1) 
3.94264293

$$$$
