
     RDKit          3D

 24 25  0  0  1  0  0  0  0  0999 V2000
   46.7040   35.0480   41.9610 C   0  0  2  0  0  0  0  0  0  0  0  0
   46.8010   33.7320   41.2510 C   0  0  0  0  0  0  0  0  0  0  0  0
   47.6590   34.1740   40.0590 C   0  0  0  0  0  0  0  0  0  0  0  0
   48.6520   35.1530   40.6630 C   0  0  0  0  0  0  0  0  0  0  0  0
   48.1860   35.4030   42.0880 C   0  0  2  0  0  0  0  0  0  0  0  0
   44.4970   35.8300   44.9100 C   0  0  0  0  0  0  0  0  0  0  0  0
   45.0830   35.9970   43.6380 C   0  0  0  0  0  0  0  0  0  0  0  0
   46.0080   35.0410   43.2470 C   0  0  0  0  0  0  0  0  0  0  0  0
   46.3000   34.0030   44.1040 N   0  0  0  0  0  0  0  0  0  0  0  0
   45.7120   33.8860   45.3130 C   0  0  0  0  0  0  0  0  0  0  0  0
   44.8180   34.7830   45.7210 N   0  0  0  0  0  0  0  0  0  0  0  0
   48.8480   34.6200   43.0120 O   0  0  0  0  0  0  0  0  0  0  0  0
   46.0821   35.7736   41.4162 H   0  0  0  0  0  0  0  0  0  0  0  0
   47.3041   32.9683   41.8622 H   0  0  0  0  0  0  0  0  0  0  0  0
   45.8422   33.2565   40.9969 H   0  0  0  0  0  0  0  0  0  0  0  0
   47.0410   34.6663   39.2937 H   0  0  0  0  0  0  0  0  0  0  0  0
   48.1510   33.3289   39.5553 H   0  0  0  0  0  0  0  0  0  0  0  0
   49.6631   34.7198   40.6627 H   0  0  0  0  0  0  0  0  0  0  0  0
   48.6957   36.0880   40.0852 H   0  0  0  0  0  0  0  0  0  0  0  0
   48.3791   36.4205   42.4587 H   0  0  0  0  0  0  0  0  0  0  0  0
   43.7585   36.5672   45.2579 H   0  0  0  0  0  0  0  0  0  0  0  0
   44.8191   36.8442   42.9880 H   0  0  0  0  0  0  0  0  0  0  0  0
   45.9742   33.0414   45.9671 H   0  0  0  0  0  0  0  0  0  0  0  0
   48.6029   34.9100   43.9263 H   0  0  0  0  0  0  0  0  0  0  0  0
  1  5  1  0
  1  8  1  0
  2  1  1  0
  3  4  1  0
  3  2  1  0
  4  5  1  0
  5 12  1  0
  6 11  2  0
  7  6  1  0
  8  7  2  0
  8  9  1  0
  9 10  2  0
 10 11  1  0
  1 13  1  6
  2 14  1  0
  2 15  1  0
  3 16  1  0
  3 17  1  0
  4 18  1  0
  4 19  1  0
  5 20  1  1
  6 21  1  0
  7 22  1  0
 10 23  1  0
 12 24  1  0
M  ISO  8  13  13  14  13  15  13  16  13  17  13  18  13  19  13  20  13
M  ISO  4  21  14  22  14  23  14  24   3
M  END
>  <minimizedAffinity>  (1) 
-4.71118927

>  <minimizedRMSD>  (1) 
0.178535402

$$$$
