
     RDKit          3D

 27 28  0  0  1  0  0  0  0  0999 V2000
   46.4940   34.8780   41.8220 C   0  0  2  0  0  0  0  0  0  0  0  0
   46.6460   33.5060   41.2720 C   0  0  0  0  0  0  0  0  0  0  0  0
   47.4360   33.8290   40.0030 C   0  0  0  0  0  0  0  0  0  0  0  0
   48.3860   34.9290   40.4360 C   0  0  0  0  0  0  0  0  0  0  0  0
   47.9720   35.3150   41.8450 C   0  0  2  0  0  0  0  0  0  0  0  0
   44.5320   36.0500   44.7990 C   0  0  0  0  0  0  0  0  0  0  0  0
   45.0770   36.0920   43.5120 C   0  0  0  0  0  0  0  0  0  0  0  0
   45.8490   35.0240   43.1190 C   0  0  0  0  0  0  0  0  0  0  0  0
   46.0370   33.9810   44.0130 N   0  0  0  0  0  0  0  0  0  0  0  0
   45.4890   33.9850   45.2450 C   0  0  0  0  0  0  0  0  0  0  0  0
   44.7380   35.0120   45.6430 N   0  0  0  0  0  0  0  0  0  0  0  0
   48.7060   34.7050   42.8220 O   0  0  0  0  0  0  0  0  0  0  0  0
   50.0630   34.5960   42.5450 C   0  0  0  0  0  0  0  0  0  0  0  0
   45.8001   35.4837   41.2207 H   0  0  0  0  0  0  0  0  0  0  0  0
   47.2113   32.8516   41.9519 H   0  0  0  0  0  0  0  0  0  0  0  0
   45.7052   32.9590   41.1114 H   0  0  0  0  0  0  0  0  0  0  0  0
   46.7668   34.1815   39.2043 H   0  0  0  0  0  0  0  0  0  0  0  0
   47.9597   32.9523   39.5942 H   0  0  0  0  0  0  0  0  0  0  0  0
   49.4229   34.5617   40.4302 H   0  0  0  0  0  0  0  0  0  0  0  0
   48.3394   35.7908   39.7539 H   0  0  0  0  0  0  0  0  0  0  0  0
   48.1323   36.3753   42.0901 H   0  0  0  0  0  0  0  0  0  0  0  0
   43.9121   36.8928   45.1386 H   0  0  0  0  0  0  0  0  0  0  0  0
   44.8956   36.9447   42.8412 H   0  0  0  0  0  0  0  0  0  0  0  0
   45.6623   33.1374   45.9244 H   0  0  0  0  0  0  0  0  0  0  0  0
   50.6273   34.5507   43.4882 H   0  0  0  0  0  0  0  0  0  0  0  0
   50.2462   33.6802   41.9638 H   0  0  0  0  0  0  0  0  0  0  0  0
   50.3900   35.4708   41.9638 H   0  0  0  0  0  0  0  0  0  0  0  0
  1  5  1  0
  1  8  1  0
  2  1  1  0
  3  4  1  0
  3  2  1  0
  4  5  1  0
  5 12  1  0
  6 11  2  0
  7  6  1  0
  8  7  2  0
  8  9  1  0
  9 10  2  0
 10 11  1  0
 13 12  1  0
  1 14  1  6
  2 15  1  0
  2 16  1  0
  3 17  1  0
  3 18  1  0
  4 19  1  0
  4 20  1  0
  5 21  1  6
  6 22  1  0
  7 23  1  0
 10 24  1  0
 13 25  1  0
 13 26  1  0
 13 27  1  0
M  ISO  8  14  13  15  13  16  13  17  13  18  13  19  13  20  13  21  13
M  ISO  6  22  14  23  14  24  14  25   8  26   8  27   8
M  END
>  <minimizedAffinity>  (1) 
-4.6771698

>  <minimizedRMSD>  (1) 
0.577843189

$$$$
