
     RDKit          3D

 40 42  0  0  1  0  0  0  0  0999 V2000
   46.9100   34.2280   43.7270 C   0  0  2  0  0  0  0  0  0  0  0  0
   46.7490   32.9600   44.5090 C   0  0  0  0  0  0  0  0  0  0  0  0
   46.0500   33.5090   45.7360 C   0  0  0  0  0  0  0  0  0  0  0  0
   45.1370   34.5200   45.2210 C   0  0  0  0  0  0  0  0  0  0  0  0
   45.4860   34.7200   43.6680 C   0  0  2  0  0  0  0  0  0  0  0  0
   48.4020   34.7670   40.3290 C   0  0  0  0  0  0  0  0  0  0  0  0
   47.8710   35.0970   41.5790 C   0  0  0  0  0  0  0  0  0  0  0  0
   47.4710   34.0710   42.3680 C   0  0  0  0  0  0  0  0  0  0  0  0
   47.6140   32.7670   41.8860 N   0  0  0  0  0  0  0  0  0  0  0  0
   48.1240   32.4770   40.6880 C   0  0  0  0  0  0  0  0  0  0  0  0
   48.5210   33.4760   39.9000 N   0  0  0  0  0  0  0  0  0  0  0  0
   44.6400   33.8810   42.9660 O   0  0  0  0  0  0  0  0  0  0  0  0
   43.8100   34.2430   41.9330 C   0  0  0  0  0  0  0  0  0  0  0  0
   44.5390   34.4790   40.9170 O   0  0  0  0  0  0  0  0  0  0  0  0
   42.4280   34.4830   41.4670 C   0  0  0  0  0  0  0  0  0  0  0  0
   41.7930   35.6570   41.3000 C   0  0  0  0  0  0  0  0  0  0  0  0
   40.4200   35.9790   40.8520 C   0  0  0  0  0  0  0  0  0  0  0  0
   40.1300   35.3610   39.5250 C   0  0  0  0  0  0  0  0  0  0  0  0
   39.1360   34.4930   39.1400 C   0  0  0  0  0  0  0  0  0  0  0  0
   39.2860   34.2060   37.8050 C   0  0  0  0  0  0  0  0  0  0  0  0
   40.3620   34.9130   37.4470 N   0  0  0  0  0  0  0  0  0  0  0  0
   40.8840   35.6030   38.4320 N   0  0  0  0  0  0  0  0  0  0  0  0
   47.6372   34.9051   44.1989 H   0  0  0  0  0  0  0  0  0  0  0  0
   46.1266   32.2258   43.9764 H   0  0  0  0  0  0  0  0  0  0  0  0
   47.6814   32.4114   44.7079 H   0  0  0  0  0  0  0  0  0  0  0  0
   45.4950   32.7134   46.2546 H   0  0  0  0  0  0  0  0  0  0  0  0
   46.7589   33.9231   46.4681 H   0  0  0  0  0  0  0  0  0  0  0  0
   44.0964   34.1818   45.3338 H   0  0  0  0  0  0  0  0  0  0  0  0
   45.2465   35.4653   45.7728 H   0  0  0  0  0  0  0  0  0  0  0  0
   45.3782   35.7099   43.2005 H   0  0  0  0  0  0  0  0  0  0  0  0
   48.7368   35.5780   39.6655 H   0  0  0  0  0  0  0  0  0  0  0  0
   47.7819   36.1430   41.9075 H   0  0  0  0  0  0  0  0  0  0  0  0
   48.2153   31.4322   40.3564 H   0  0  0  0  0  0  0  0  0  0  0  0
   41.8421   33.5840   41.2251 H   0  0  0  0  0  0  0  0  0  0  0  0
   42.4061   36.5382   41.5402 H   0  0  0  0  0  0  0  0  0  0  0  0
   39.7015   35.5960   41.5916 H   0  0  0  0  0  0  0  0  0  0  0  0
   40.3304   37.0712   40.7563 H   0  0  0  0  0  0  0  0  0  0  0  0
   38.3480   34.0930   39.7950 H   0  0  0  0  0  0  0  0  0  0  0  0
   38.6659   33.5485   37.1779 H   0  0  0  0  0  0  0  0  0  0  0  0
   40.7440   34.9156   36.4905 H   0  0  0  0  0  0  0  0  0  0  0  0
  1  2  1  0
  2  3  1  0
  4  3  1  0
  5  1  1  0
  5  4  1  0
  6  7  2  0
  7  8  1  0
  8  1  1  0
  9  8  2  0
 10  9  1  0
 11  6  1  0
 11 10  2  0
 12  5  1  0
 13 12  1  0
 14 13  2  0
 15 13  1  0
 16 15  2  0
 17 16  1  0
 18 17  1  0
 19 18  1  0
 20 19  2  0
 21 20  1  0
 21 22  1  0
 22 18  2  0
  1 23  1  1
  2 24  1  0
  2 25  1  0
  3 26  1  0
  3 27  1  0
  4 28  1  0
  4 29  1  0
  5 30  1  6
  6 31  1  0
  7 32  1  0
 10 33  1  0
 15 34  1  0
 16 35  1  0
 17 36  1  0
 17 37  1  0
 19 38  1  0
 20 39  1  0
 21 40  1  0
M  ISO  8  23  13  24  13  25  13  26  13  27  13  28  13  29  13  30  13
M  ISO  8  31  14  32  14  33  14  36   8  37   8  38  14  39  14  40   9
M  END
>  <minimizedAffinity>  (1) 
-5.67003918

>  <minimizedRMSD>  (1) 
1.2748909

$$$$
