
     RDKit          3D

 40 42  0  0  1  0  0  0  0  0999 V2000
   46.2850   34.7100   43.5400 C   0  0  2  0  0  0  0  0  0  0  0  0
   45.8190   33.6470   44.4860 C   0  0  0  0  0  0  0  0  0  0  0  0
   45.1680   34.5170   45.5400 C   0  0  0  0  0  0  0  0  0  0  0  0
   44.5150   35.5840   44.7920 C   0  0  0  0  0  0  0  0  0  0  0  0
   44.9980   35.4490   43.2670 C   0  0  2  0  0  0  0  0  0  0  0  0
   48.0610   34.3860   40.2530 C   0  0  0  0  0  0  0  0  0  0  0  0
   47.5210   35.0230   41.3860 C   0  0  0  0  0  0  0  0  0  0  0  0
   46.8940   34.2240   42.2820 C   0  0  0  0  0  0  0  0  0  0  0  0
   46.8230   32.8490   42.0340 N   0  0  0  0  0  0  0  0  0  0  0  0
   47.3470   32.2770   40.9490 C   0  0  0  0  0  0  0  0  0  0  0  0
   47.9680   33.0440   40.0550 N   0  0  0  0  0  0  0  0  0  0  0  0
   44.0470   34.6790   42.6250 O   0  0  0  0  0  0  0  0  0  0  0  0
   43.0780   35.1350   41.7630 C   0  0  0  0  0  0  0  0  0  0  0  0
   43.6700   35.5650   40.7140 O   0  0  0  0  0  0  0  0  0  0  0  0
   41.6420   35.3560   41.4980 C   0  0  0  0  0  0  0  0  0  0  0  0
   40.8930   34.8720   40.4890 C   0  0  0  0  0  0  0  0  0  0  0  0
   39.4680   35.0440   40.1380 C   0  0  0  0  0  0  0  0  0  0  0  0
   39.1820   34.4830   38.7770 C   0  0  0  0  0  0  0  0  0  0  0  0
   40.1120   34.8450   37.6590 C   0  0  0  0  0  0  0  0  0  0  0  0
   40.0000   33.4120   38.1800 C   0  0  0  0  0  0  0  0  0  0  0  0
   47.1020   35.3056   43.9734 H   0  0  0  0  0  0  0  0  0  0  0  0
   45.0966   32.9653   44.0134 H   0  0  0  0  0  0  0  0  0  0  0  0
   46.6054   32.9728   44.8563 H   0  0  0  0  0  0  0  0  0  0  0  0
   44.4297   33.9402   46.1164 H   0  0  0  0  0  0  0  0  0  0  0  0
   45.8976   34.9056   46.2657 H   0  0  0  0  0  0  0  0  0  0  0  0
   43.4222   35.4748   44.8536 H   0  0  0  0  0  0  0  0  0  0  0  0
   44.7785   36.5701   45.2022 H   0  0  0  0  0  0  0  0  0  0  0  0
   45.1251   36.3475   42.6453 H   0  0  0  0  0  0  0  0  0  0  0  0
   48.5781   34.9973   39.4988 H   0  0  0  0  0  0  0  0  0  0  0  0
   47.6036   36.1097   41.5355 H   0  0  0  0  0  0  0  0  0  0  0  0
   47.2676   31.1907   40.7954 H   0  0  0  0  0  0  0  0  0  0  0  0
   41.1159   35.9996   42.2185 H   0  0  0  0  0  0  0  0  0  0  0  0
   41.4478   34.2252   39.7934 H   0  0  0  0  0  0  0  0  0  0  0  0
   38.8481   34.5208   40.8810 H   0  0  0  0  0  0  0  0  0  0  0  0
   39.2342   36.1188   40.1320 H   0  0  0  0  0  0  0  0  0  0  0  0
   38.1025   34.5707   38.9694 H   0  0  0  0  0  0  0  0  0  0  0  0
   41.0158   35.4392   37.8595 H   0  0  0  0  0  0  0  0  0  0  0  0
   40.0135   35.3375   36.6804 H   0  0  0  0  0  0  0  0  0  0  0  0
   39.5250   32.6368   37.5609 H   0  0  0  0  0  0  0  0  0  0  0  0
   40.7100   32.6666   38.5675 H   0  0  0  0  0  0  0  0  0  0  0  0
  1  2  1  0
  2  3  1  0
  4  3  1  0
  5  1  1  0
  5  4  1  0
  6  7  2  0
  7  8  1  0
  8  1  1  0
  9  8  2  0
 10  9  1  0
 11  6  1  0
 11 10  2  0
 12  5  1  0
 13 12  1  0
 14 13  2  0
 15 13  1  0
 16 15  2  0
 17 16  1  0
 18 17  1  0
 19 20  1  0
 19 18  1  0
 20 18  1  0
  1 21  1  1
  2 22  1  0
  2 23  1  0
  3 24  1  0
  3 25  1  0
  4 26  1  0
  4 27  1  0
  5 28  1  6
  6 29  1  0
  7 30  1  0
 10 31  1  0
 15 32  1  0
 16 33  1  0
 17 34  1  0
 17 35  1  0
 18 36  1  0
 19 37  1  0
 19 38  1  0
 20 39  1  0
 20 40  1  0
M  ISO  8  21  13  22  13  23  13  24  13  25  13  26  13  27  13  28  13
M  ISO  8  29  14  30  14  31  14  34   8  35   8  36  13  37  13  38  13
M  ISO  2  39  13  40  13
M  END
>  <minimizedAffinity>  (1) 
-5.38305283

>  <minimizedRMSD>  (1) 
2.0849123

$$$$
