
     RDKit          3D

 43 45  0  0  1  0  0  0  0  0999 V2000
   48.6660   33.7280   39.9340 C   0  0  2  0  0  0  0  0  0  0  0  0
   49.2170   32.7450   40.9220 C   0  0  0  0  0  0  0  0  0  0  0  0
   49.8240   33.7030   41.9250 C   0  0  0  0  0  0  0  0  0  0  0  0
   48.8780   34.8120   41.9930 C   0  0  0  0  0  0  0  0  0  0  0  0
   47.7980   34.5870   40.8220 C   0  0  2  0  0  0  0  0  0  0  0  0
   46.6440   33.1520   36.8260 C   0  0  0  0  0  0  0  0  0  0  0  0
   47.3490   33.8700   37.8180 C   0  0  0  0  0  0  0  0  0  0  0  0
   47.8780   33.1390   38.8290 C   0  0  0  0  0  0  0  0  0  0  0  0
   47.7040   31.7520   38.8370 N   0  0  0  0  0  0  0  0  0  0  0  0
   47.0310   31.1100   37.8830 C   0  0  0  0  0  0  0  0  0  0  0  0
   46.5020   31.8060   36.8770 N   0  0  0  0  0  0  0  0  0  0  0  0
   46.7400   33.9040   41.3900 O   0  0  0  0  0  0  0  0  0  0  0  0
   46.7120   33.3230   42.6290 C   0  0  0  0  0  0  0  0  0  0  0  0
   46.3900   34.2480   43.4710 O   0  0  0  0  0  0  0  0  0  0  0  0
   46.8770   32.1250   43.4690 C   0  0  0  0  0  0  0  0  0  0  0  0
   47.3020   32.0340   44.7410 C   0  0  0  0  0  0  0  0  0  0  0  0
   47.4940   30.8760   45.6480 C   0  0  0  0  0  0  0  0  0  0  0  0
   46.7000   31.0740   46.8430 N   0  0  0  0  0  0  0  0  0  0  0  0
   45.4310   31.4890   46.8890 C   0  0  0  0  0  0  0  0  0  0  0  0
   44.8410   31.6190   48.1350 C   0  0  0  0  0  0  0  0  0  0  0  0
   45.5550   31.3250   49.2810 C   0  0  0  0  0  0  0  0  0  0  0  0
   45.0400   31.4340   50.4260 O   0  0  0  0  0  0  0  0  0  0  0  0
   46.8200   30.9120   49.2170 N   0  0  0  0  0  0  0  0  0  0  0  0
   47.3910   30.7880   47.9850 C   0  0  0  0  0  0  0  0  0  0  0  0
   48.6020   30.3900   47.9990 O   0  0  0  0  0  0  0  0  0  0  0  0
   49.4666   34.2530   39.3924 H   0  0  0  0  0  0  0  0  0  0  0  0
   48.4245   32.1290   41.3720 H   0  0  0  0  0  0  0  0  0  0  0  0
   49.9149   32.0050   40.5032 H   0  0  0  0  0  0  0  0  0  0  0  0
   49.9288   33.2210   42.9082 H   0  0  0  0  0  0  0  0  0  0  0  0
   50.8319   34.0315   41.6313 H   0  0  0  0  0  0  0  0  0  0  0  0
   48.3765   34.8203   42.9720 H   0  0  0  0  0  0  0  0  0  0  0  0
   49.3949   35.7750   41.8683 H   0  0  0  0  0  0  0  0  0  0  0  0
   47.3494   35.4495   40.3074 H   0  0  0  0  0  0  0  0  0  0  0  0
   46.1965   33.7035   35.9860 H   0  0  0  0  0  0  0  0  0  0  0  0
   47.4623   34.9632   37.7721 H   0  0  0  0  0  0  0  0  0  0  0  0
   46.9132   30.0171   37.9252 H   0  0  0  0  0  0  0  0  0  0  0  0
   46.6159   31.1707   42.9882 H   0  0  0  0  0  0  0  0  0  0  0  0
   47.5558   33.0028   45.1960 H   0  0  0  0  0  0  0  0  0  0  0  0
   47.1734   29.9539   45.1412 H   0  0  0  0  0  0  0  0  0  0  0  0
   48.5566   30.7893   45.9189 H   0  0  0  0  0  0  0  0  0  0  0  0
   44.8740   31.7195   45.9689 H   0  0  0  0  0  0  0  0  0  0  0  0
   43.7976   31.9584   48.2130 H   0  0  0  0  0  0  0  0  0  0  0  0
   47.3506   30.6930   50.0722 H   0  0  0  0  0  0  0  0  0  0  0  0
  1  5  1  0
  1  2  1  0
  2  3  1  0
  3  4  1  0
  5 12  1  0
  5  4  1  0
  6 11  2  0
  6  7  1  0
  7  8  2  0
  8  9  1  0
  8  1  1  0
 10  9  2  0
 11 10  1  0
 12 13  1  0
 13 15  1  0
 13 14  2  0
 15 16  2  0
 16 17  1  0
 17 18  1  0
 18 19  1  0
 18 24  1  0
 19 20  2  0
 20 21  1  0
 21 22  2  0
 23 21  1  0
 24 25  2  0
 24 23  1  0
  1 26  1  6
  2 27  1  0
  2 28  1  0
  3 29  1  0
  3 30  1  0
  4 31  1  0
  4 32  1  0
  5 33  1  6
  6 34  1  0
  7 35  1  0
 10 36  1  0
 15 37  1  0
 16 38  1  0
 17 39  1  0
 17 40  1  0
 19 41  1  0
 20 42  1  0
 23 43  1  0
M  ISO  8  26  13  27  13  28  13  29  13  30  13  31  13  32  13  33  13
M  ISO  8  34  14  35  14  36  14  39   8  40   8  41  14  42  14  43   9
M  END
>  <minimizedAffinity>  (1) 
-4.37913704

>  <minimizedRMSD>  (1) 
7.6208787

$$$$
