
     RDKit          3D

 11 11  0  0  0  0  0  0  0  0999 V2000
   44.5590   35.6200   45.0640 C   0  0  0  0  0  0  0  0  0  0  0  0
   45.0350   35.8800   43.7650 C   0  0  0  0  0  0  0  0  0  0  0  0
   45.9720   34.9810   43.2460 C   0  0  0  0  0  0  0  0  0  0  0  0
   46.3730   33.9250   43.9930 N   0  0  0  0  0  0  0  0  0  0  0  0
   45.8900   33.7080   45.2440 C   0  0  0  0  0  0  0  0  0  0  0  0
   44.9840   34.5670   45.7640 N   0  0  0  0  0  0  0  0  0  0  0  0
   44.6330   36.9560   42.9920 O   0  0  0  0  0  0  0  0  0  0  0  0
   43.8199   36.3005   45.5119 H   0  0  0  0  0  0  0  0  0  0  0  0
   46.3813   35.1308   42.2360 H   0  0  0  0  0  0  0  0  0  0  0  0
   46.2326   32.8416   45.8287 H   0  0  0  0  0  0  0  0  0  0  0  0
   45.0079   37.0809   42.0843 H   0  0  0  0  0  0  0  0  0  0  0  0
  1  6  2  0
  2  1  1  0
  3  2  2  0
  3  4  1  0
  4  5  2  0
  5  6  1  0
  7  2  1  0
  1  8  1  0
  3  9  1  0
  5 10  1  0
  7 11  1  0
M  ISO  4   8  14   9  14  10  14  11   3
M  END
>  <minimizedAffinity>  (1) 
-3.02043319

>  <minimizedRMSD>  (1) 
0.827485263

$$$$
