
     RDKit          3D

 24 25  0  0  0  0  0  0  0  0999 V2000
   44.9970   34.8840   44.7650 C   0  0  0  0  0  0  0  0  0  0  0  0
   45.8280   34.5490   43.6830 C   0  0  0  0  0  0  0  0  0  0  0  0
   46.7780   33.5680   43.9400 C   0  0  0  0  0  0  0  0  0  0  0  0
   46.8690   32.9980   45.1560 N   0  0  0  0  0  0  0  0  0  0  0  0
   46.0490   33.3480   46.1750 C   0  0  0  0  0  0  0  0  0  0  0  0
   45.1210   34.2940   45.9540 N   0  0  0  0  0  0  0  0  0  0  0  0
   45.7180   35.1420   42.4520 O   0  0  0  0  0  0  0  0  0  0  0  0
   44.8220   34.8560   41.4330 C   0  0  0  0  0  0  0  0  0  0  0  0
   44.1780   33.5030   41.7630 C   0  0  0  0  0  0  0  0  0  0  0  0
   42.7560   33.5740   41.2340 C   0  0  0  0  0  0  0  0  0  0  0  0
   42.6720   34.9240   40.5190 C   0  0  0  0  0  0  0  0  0  0  0  0
   43.5910   35.7330   41.4390 C   0  0  0  0  0  0  0  0  0  0  0  0
   44.2233   35.6537   44.6275 H   0  0  0  0  0  0  0  0  0  0  0  0
   47.4641   33.2534   43.1399 H   0  0  0  0  0  0  0  0  0  0  0  0
   46.1405   32.8689   47.1609 H   0  0  0  0  0  0  0  0  0  0  0  0
   45.3972   34.9492   40.5000 H   0  0  0  0  0  0  0  0  0  0  0  0
   44.7284   32.6878   41.2705 H   0  0  0  0  0  0  0  0  0  0  0  0
   44.1953   33.3025   42.8444 H   0  0  0  0  0  0  0  0  0  0  0  0
   42.5625   32.7504   40.5309 H   0  0  0  0  0  0  0  0  0  0  0  0
   42.0093   33.4820   42.0365 H   0  0  0  0  0  0  0  0  0  0  0  0
   43.0586   34.8719   39.4905 H   0  0  0  0  0  0  0  0  0  0  0  0
   41.6579   35.3286   40.3849 H   0  0  0  0  0  0  0  0  0  0  0  0
   43.1684   35.8338   42.4496 H   0  0  0  0  0  0  0  0  0  0  0  0
   43.7644   36.7709   41.1185 H   0  0  0  0  0  0  0  0  0  0  0  0
  1  6  2  0
  2  3  2  0
  2  1  1  0
  3  4  1  0
  4  5  2  0
  6  5  1  0
  7  2  1  0
  8 12  1  0
  8  9  1  0
  8  7  1  0
 10  9  1  0
 11 10  1  0
 11 12  1  0
  1 13  1  0
  3 14  1  0
  5 15  1  0
  8 16  1  0
  9 17  1  0
  9 18  1  0
 10 19  1  0
 10 20  1  0
 11 21  1  0
 11 22  1  0
 12 23  1  0
 12 24  1  0
M  ISO  8  13  14  14  14  15  14  16  13  17  13  18  13  19  13  20  13
M  ISO  4  21  13  22  13  23  13  24  13
M  END
>  <minimizedAffinity>  (1) 
-3.54241014

>  <minimizedRMSD>  (1) 
2.2631042

$$$$
