
     RDKit          3D

 26 28  0  0  0  0  0  0  0  0999 V2000
   44.4680   35.0090   41.6300 C   0  0  0  0  0  0  0  0  0  0  0  0
   44.6160   34.1460   40.5630 C   0  0  0  0  0  0  0  0  0  0  0  0
   43.5480   33.9110   39.7260 C   0  0  0  0  0  0  0  0  0  0  0  0
   42.3140   34.5110   39.9100 C   0  0  0  0  0  0  0  0  0  0  0  0
   41.3300   34.2230   39.0440 N   0  0  0  0  0  0  0  0  0  0  0  0
   40.1150   34.7910   39.1960 C   0  0  0  0  0  0  0  0  0  0  0  0
   39.9290   35.6530   40.2430 C   0  0  0  0  0  0  0  0  0  0  0  0
   40.9510   35.9560   41.1480 C   0  0  0  0  0  0  0  0  0  0  0  0
   42.1880   35.3690   40.9820 C   0  0  0  0  0  0  0  0  0  0  0  0
   43.2390   35.6360   41.8520 C   0  0  0  0  0  0  0  0  0  0  0  0
   45.4290   35.3640   42.5730 O   0  0  0  0  0  0  0  0  0  0  0  0
   45.0000   34.8100   44.9350 C   0  0  0  0  0  0  0  0  0  0  0  0
   45.6950   34.6600   43.7260 C   0  0  0  0  0  0  0  0  0  0  0  0
   46.7400   33.7220   43.6990 C   0  0  0  0  0  0  0  0  0  0  0  0
   47.0110   33.0260   44.8250 N   0  0  0  0  0  0  0  0  0  0  0  0
   46.3240   33.1920   45.9740 C   0  0  0  0  0  0  0  0  0  0  0  0
   45.3110   34.0990   46.0080 N   0  0  0  0  0  0  0  0  0  0  0  0
   45.5807   33.6492   40.3824 H   0  0  0  0  0  0  0  0  0  0  0  0
   43.6803   33.2209   38.8797 H   0  0  0  0  0  0  0  0  0  0  0  0
   39.2958   34.5671   38.4969 H   0  0  0  0  0  0  0  0  0  0  0  0
   38.9434   36.1227   40.3768 H   0  0  0  0  0  0  0  0  0  0  0  0
   40.7710   36.6524   41.9802 H   0  0  0  0  0  0  0  0  0  0  0  0
   43.1059   36.3266   42.6978 H   0  0  0  0  0  0  0  0  0  0  0  0
   44.1760   35.5364   44.9933 H   0  0  0  0  0  0  0  0  0  0  0  0
   47.3247   33.5577   42.7818 H   0  0  0  0  0  0  0  0  0  0  0  0
   46.5787   32.6039   46.8681 H   0  0  0  0  0  0  0  0  0  0  0  0
  1 10  1  0
  1 11  1  0
  2  1  2  0
  3  4  2  0
  3  2  1  0
  4  9  1  0
  5  6  2  0
  5  4  1  0
  6  7  1  0
  7  8  2  0
  9  8  1  0
  9 10  2  0
 11 13  1  0
 12 17  2  0
 13 12  1  0
 14 13  2  0
 14 15  1  0
 15 16  2  0
 16 17  1  0
  2 18  1  0
  3 19  1  0
  6 20  1  0
  7 21  1  0
  8 22  1  0
 10 23  1  0
 12 24  1  0
 14 25  1  0
 16 26  1  0
M  ISO  8  18  14  19  14  20  14  21  14  22  14  23  14  24  14  25  14
M  ISO  1  26  14
M  END
>  <minimizedAffinity>  (1) 
-5.28497362

>  <minimizedRMSD>  (1) 
2.01825643

$$$$
