
     RDKit          3D

 32 34  0  0  0  0  0  0  0  0999 V2000
   44.4870   34.9700   41.5990 C   0  0  0  0  0  0  0  0  0  0  0  0
   44.6010   34.0890   40.5370 C   0  0  0  0  0  0  0  0  0  0  0  0
   43.5170   33.8650   39.7310 C   0  0  0  0  0  0  0  0  0  0  0  0
   42.2920   34.4920   39.9330 C   0  0  0  0  0  0  0  0  0  0  0  0
   41.2950   34.1970   39.0780 N   0  0  0  0  0  0  0  0  0  0  0  0
   40.0850   34.7930   39.2500 C   0  0  0  0  0  0  0  0  0  0  0  0
   39.9280   35.6770   40.2960 C   0  0  0  0  0  0  0  0  0  0  0  0
   40.9890   35.9640   41.1730 C   0  0  0  0  0  0  0  0  0  0  0  0
   42.2030   35.3580   40.9890 C   0  0  0  0  0  0  0  0  0  0  0  0
   43.2730   35.6160   41.8320 C   0  0  0  0  0  0  0  0  0  0  0  0
   45.4740   35.3170   42.5170 O   0  0  0  0  0  0  0  0  0  0  0  0
   45.0900   34.6920   44.8680 C   0  0  0  0  0  0  0  0  0  0  0  0
   45.7750   34.6040   43.6580 C   0  0  0  0  0  0  0  0  0  0  0  0
   46.8680   33.7090   43.5940 C   0  0  0  0  0  0  0  0  0  0  0  0
   47.1840   32.9980   44.6950 N   0  0  0  0  0  0  0  0  0  0  0  0
   46.4920   33.1130   45.8520 C   0  0  0  0  0  0  0  0  0  0  0  0
   45.4430   33.9710   45.9170 N   0  0  0  0  0  0  0  0  0  0  0  0
   46.8550   32.3620   46.9570 O   0  0  0  0  0  0  0  0  0  0  0  0
   45.3380   30.2860   47.5470 O   0  0  0  0  0  0  0  0  0  0  0  0
   45.7540   31.6710   48.0440 P   0  0  0  0  0  0  0  0  0  0  0  0
   44.3250   32.5580   48.1790 O   0  0  0  0  0  0  0  0  0  0  0  0
   46.5220   31.4630   49.5230 O   0  0  0  0  0  0  0  0  0  0  0  0
   45.5533   33.5739   40.3426 H   0  0  0  0  0  0  0  0  0  0  0  0
   43.6189   33.1619   38.8912 H   0  0  0  0  0  0  0  0  0  0  0  0
   39.2493   34.5744   38.5690 H   0  0  0  0  0  0  0  0  0  0  0  0
   38.9548   36.1669   40.4474 H   0  0  0  0  0  0  0  0  0  0  0  0
   40.8445   36.6717   42.0026 H   0  0  0  0  0  0  0  0  0  0  0  0
   43.1662   36.3190   42.6713 H   0  0  0  0  0  0  0  0  0  0  0  0
   44.2346   35.3785   44.9518 H   0  0  0  0  0  0  0  0  0  0  0  0
   47.4477   33.5954   42.6661 H   0  0  0  0  0  0  0  0  0  0  0  0
   44.1090   32.6921   49.1358 H   0  0  0  0  0  0  0  0  0  0  0  0
   45.8795   31.6370   50.2558 H   0  0  0  0  0  0  0  0  0  0  0  0
  1 10  1  0
  1 11  1  0
  2  1  2  0
  3  4  2  0
  3  2  1  0
  4  9  1  0
  5  6  2  0
  5  4  1  0
  6  7  1  0
  7  8  2  0
  9  8  1  0
  9 10  2  0
 11 13  1  0
 12 17  2  0
 13 12  1  0
 14 13  2  0
 14 15  1  0
 15 16  2  0
 16 17  1  0
 16 18  1  0
 18 20  1  0
 19 20  2  0
 20 21  1  0
 20 22  1  0
  2 23  1  0
  3 24  1  0
  6 25  1  0
  7 26  1  0
  8 27  1  0
 10 28  1  0
 12 29  1  0
 14 30  1  0
 21 31  1  0
 22 32  1  0
M  ISO  8  23  14  24  14  25  14  26  14  27  14  28  14  29  14  30  14
M  ISO  2  31   3  32   3
M  END
>  <minimizedAffinity>  (1) 
-6.6812396

>  <minimizedRMSD>  (1) 
0.626728117

$$$$
