
     RDKit          3D

 30 32  0  0  0  0  0  0  0  0999 V2000
   44.3020   34.9010   41.3290 C   0  0  0  0  0  0  0  0  0  0  0  0
   44.5560   34.0300   40.3000 C   0  0  0  0  0  0  0  0  0  0  0  0
   43.5640   33.7130   39.3880 C   0  0  0  0  0  0  0  0  0  0  0  0
   42.3000   34.2580   39.4840 C   0  0  0  0  0  0  0  0  0  0  0  0
   41.3830   33.9150   38.5750 N   0  0  0  0  0  0  0  0  0  0  0  0
   40.1390   34.4200   38.6260 C   0  0  0  0  0  0  0  0  0  0  0  0
   39.8420   35.2960   39.6400 C   0  0  0  0  0  0  0  0  0  0  0  0
   40.7900   35.6710   40.6070 C   0  0  0  0  0  0  0  0  0  0  0  0
   42.0660   35.1310   40.5240 C   0  0  0  0  0  0  0  0  0  0  0  0
   43.0440   35.4660   41.4540 C   0  0  0  0  0  0  0  0  0  0  0  0
   45.1840   35.3200   42.3190 O   0  0  0  0  0  0  0  0  0  0  0  0
   44.5300   35.8090   44.6350 C   0  0  0  0  0  0  0  0  0  0  0  0
   45.0950   34.9780   43.6570 C   0  0  0  0  0  0  0  0  0  0  0  0
   45.5890   33.7410   44.0670 C   0  0  0  0  0  0  0  0  0  0  0  0
   45.4990   33.4140   45.3690 N   0  0  0  0  0  0  0  0  0  0  0  0
   44.9510   34.2310   46.2920 C   0  0  0  0  0  0  0  0  0  0  0  0
   44.4640   35.4420   45.9080 N   0  0  0  0  0  0  0  0  0  0  0  0
   45.5760   32.3630   47.5750 C   0  0  0  0  0  0  0  0  0  0  0  0
   46.0580   31.6940   46.6340 O   0  0  0  0  0  0  0  0  0  0  0  0
   44.9720   33.6640   47.5960 N   0  0  0  0  0  0  0  0  0  0  0  0
   45.5548   33.5804   40.1989 H   0  0  0  0  0  0  0  0  0  0  0  0
   43.7880   33.0124   38.5701 H   0  0  0  0  0  0  0  0  0  0  0  0
   39.3822   34.1401   37.8784 H   0  0  0  0  0  0  0  0  0  0  0  0
   38.8280   35.7186   39.6976 H   0  0  0  0  0  0  0  0  0  0  0  0
   40.5274   36.3753   41.4101 H   0  0  0  0  0  0  0  0  0  0  0  0
   42.8226   36.1662   42.2730 H   0  0  0  0  0  0  0  0  0  0  0  0
   44.1312   36.7905   44.3389 H   0  0  0  0  0  0  0  0  0  0  0  0
   46.0421   33.0480   43.3428 H   0  0  0  0  0  0  0  0  0  0  0  0
   45.6236   31.8678   48.5561 H   0  0  0  0  0  0  0  0  0  0  0  0
   44.6037   34.1247   48.4404 H   0  0  0  0  0  0  0  0  0  0  0  0
  1 10  1  0
  1 11  1  0
  2  1  2  0
  3  4  2  0
  3  2  1  0
  4  9  1  0
  5  6  2  0
  5  4  1  0
  6  7  1  0
  7  8  2  0
  9  8  1  0
  9 10  2  0
 11 13  1  0
 12 17  2  0
 13 14  2  0
 13 12  1  0
 14 15  1  0
 15 16  2  0
 16 20  1  0
 17 16  1  0
 18 20  1  0
 19 18  2  0
  2 21  1  0
  3 22  1  0
  6 23  1  0
  7 24  1  0
  8 25  1  0
 10 26  1  0
 12 27  1  0
 14 28  1  0
 18 29  1  0
 20 30  1  0
M  ISO  8  21  14  22  14  23  14  24  14  25  14  26  14  27  14  28  14
M  ISO  1  29   6
M  END
>  <minimizedAffinity>  (1) 
-6.4788847

>  <minimizedRMSD>  (1) 
1.3060962

$$$$
