
     RDKit          3D

 29 31  0  0  0  0  0  0  0  0999 V2000
   44.5110   35.0160   41.6840 C   0  0  0  0  0  0  0  0  0  0  0  0
   44.6750   34.1690   40.6020 C   0  0  0  0  0  0  0  0  0  0  0  0
   43.6220   33.9400   39.7460 C   0  0  0  0  0  0  0  0  0  0  0  0
   42.3800   34.5280   39.9150 C   0  0  0  0  0  0  0  0  0  0  0  0
   41.4150   34.2510   39.0380 N   0  0  0  0  0  0  0  0  0  0  0  0
   40.1920   34.8120   39.1810 C   0  0  0  0  0  0  0  0  0  0  0  0
   39.9860   35.6510   40.2310 C   0  0  0  0  0  0  0  0  0  0  0  0
   41.0010   35.9480   41.1600 C   0  0  0  0  0  0  0  0  0  0  0  0
   42.2360   35.3750   41.0080 C   0  0  0  0  0  0  0  0  0  0  0  0
   43.2740   35.6260   41.8860 C   0  0  0  0  0  0  0  0  0  0  0  0
   45.4590   35.3570   42.6400 O   0  0  0  0  0  0  0  0  0  0  0  0
   44.9070   34.9220   45.0010 C   0  0  0  0  0  0  0  0  0  0  0  0
   45.6360   34.6920   43.8340 C   0  0  0  0  0  0  0  0  0  0  0  0
   46.6270   33.6980   43.8980 C   0  0  0  0  0  0  0  0  0  0  0  0
   46.8140   33.0360   45.0640 N   0  0  0  0  0  0  0  0  0  0  0  0
   46.0900   33.2890   46.1630 C   0  0  0  0  0  0  0  0  0  0  0  0
   45.1290   34.2440   46.1190 N   0  0  0  0  0  0  0  0  0  0  0  0
   46.3900   32.4890   47.3930 C   0  0  0  0  0  0  0  0  0  0  0  0
   45.5160   32.8420   48.4000 F   0  0  0  0  0  0  0  0  0  0  0  0
   47.6700   32.8260   47.8480 F   0  0  0  0  0  0  0  0  0  0  0  0
   46.3690   31.1450   47.1540 F   0  0  0  0  0  0  0  0  0  0  0  0
   45.6446   33.6800   40.4266 H   0  0  0  0  0  0  0  0  0  0  0  0
   43.7733   33.2623   38.8929 H   0  0  0  0  0  0  0  0  0  0  0  0
   39.3849   34.5948   38.4659 H   0  0  0  0  0  0  0  0  0  0  0  0
   38.9954   36.1120   40.3584 H   0  0  0  0  0  0  0  0  0  0  0  0
   40.8047   36.6324   41.9985 H   0  0  0  0  0  0  0  0  0  0  0  0
   43.1245   36.3036   42.7396 H   0  0  0  0  0  0  0  0  0  0  0  0
   44.1214   35.6919   44.9936 H   0  0  0  0  0  0  0  0  0  0  0  0
   47.2403   33.4618   43.0159 H   0  0  0  0  0  0  0  0  0  0  0  0
  1 10  1  0
  1 11  1  0
  2  1  2  0
  3  4  2  0
  3  2  1  0
  4  9  1  0
  5  6  2  0
  5  4  1  0
  6  7  1  0
  7  8  2  0
  9  8  1  0
  9 10  2  0
 11 13  1  0
 12 17  2  0
 13 14  2  0
 13 12  1  0
 14 15  1  0
 15 16  2  0
 16 18  1  0
 17 16  1  0
 18 20  1  0
 18 19  1  0
 21 18  1  0
  2 22  1  0
  3 23  1  0
  6 24  1  0
  7 25  1  0
  8 26  1  0
 10 27  1  0
 12 28  1  0
 14 29  1  0
M  ISO  8  22  14  23  14  24  14  25  14  26  14  27  14  28  14  29  14
M  END
>  <minimizedAffinity>  (1) 
-6.2428627

>  <minimizedRMSD>  (1) 
0.282580793

$$$$
