
     RDKit          3D

 33 36  0  0  0  0  0  0  0  0999 V2000
   44.4650   35.0010   41.6120 C   0  0  0  0  0  0  0  0  0  0  0  0
   44.6180   34.1400   40.5470 C   0  0  0  0  0  0  0  0  0  0  0  0
   43.5460   33.9020   39.7040 C   0  0  0  0  0  0  0  0  0  0  0  0
   42.3130   34.5160   39.9060 C   0  0  0  0  0  0  0  0  0  0  0  0
   41.3290   34.2240   39.0340 N   0  0  0  0  0  0  0  0  0  0  0  0
   40.1080   34.7980   39.1910 C   0  0  0  0  0  0  0  0  0  0  0  0
   39.9290   35.6610   40.2440 C   0  0  0  0  0  0  0  0  0  0  0  0
   40.9600   35.9500   41.1350 C   0  0  0  0  0  0  0  0  0  0  0  0
   42.1890   35.3670   40.9710 C   0  0  0  0  0  0  0  0  0  0  0  0
   43.2350   35.6400   41.8510 C   0  0  0  0  0  0  0  0  0  0  0  0
   45.4360   35.3470   42.5490 O   0  0  0  0  0  0  0  0  0  0  0  0
   44.9940   34.8210   44.9100 C   0  0  0  0  0  0  0  0  0  0  0  0
   45.6980   34.6550   43.7100 C   0  0  0  0  0  0  0  0  0  0  0  0
   46.7360   33.7180   43.7000 C   0  0  0  0  0  0  0  0  0  0  0  0
   46.9970   33.0340   44.8420 N   0  0  0  0  0  0  0  0  0  0  0  0
   46.3020   33.2180   45.9740 C   0  0  0  0  0  0  0  0  0  0  0  0
   45.2990   34.1210   45.9910 N   0  0  0  0  0  0  0  0  0  0  0  0
   46.6220   32.4460   47.2040 C   0  0  0  0  0  0  0  0  0  0  0  0
   45.9510   31.1770   47.5300 C   0  0  0  0  0  0  0  0  0  0  0  0
   45.6390   32.4040   48.3370 C   0  0  0  0  0  0  0  0  0  0  0  0
   45.5843   33.6457   40.3681 H   0  0  0  0  0  0  0  0  0  0  0  0
   43.6712   33.2126   38.8560 H   0  0  0  0  0  0  0  0  0  0  0  0
   39.2858   34.5777   38.4943 H   0  0  0  0  0  0  0  0  0  0  0  0
   38.9472   36.1358   40.3875 H   0  0  0  0  0  0  0  0  0  0  0  0
   40.7876   36.6456   41.9695 H   0  0  0  0  0  0  0  0  0  0  0  0
   43.1037   36.3282   42.6991 H   0  0  0  0  0  0  0  0  0  0  0  0
   44.1702   35.5486   44.9546 H   0  0  0  0  0  0  0  0  0  0  0  0
   47.3261   33.5401   42.7889 H   0  0  0  0  0  0  0  0  0  0  0  0
   47.6752   32.7406   47.0854 H   0  0  0  0  0  0  0  0  0  0  0  0
   45.1956   30.7645   46.8451 H   0  0  0  0  0  0  0  0  0  0  0  0
   46.2933   30.1594   47.7692 H   0  0  0  0  0  0  0  0  0  0  0  0
   45.9888   32.4864   49.3766 H   0  0  0  0  0  0  0  0  0  0  0  0
   44.7263   32.9561   48.6055 H   0  0  0  0  0  0  0  0  0  0  0  0
  1 10  1  0
  1 11  1  0
  2  1  2  0
  3  4  2  0
  3  2  1  0
  4  9  1  0
  5  6  2  0
  5  4  1  0
  6  7  1  0
  7  8  2  0
  9  8  1  0
  9 10  2  0
 11 13  1  0
 12 17  2  0
 13 12  1  0
 14 13  2  0
 14 15  1  0
 15 16  2  0
 16 17  1  0
 16 18  1  0
 18 19  1  0
 18 20  1  0
 19 20  1  0
  2 21  1  0
  3 22  1  0
  6 23  1  0
  7 24  1  0
  8 25  1  0
 10 26  1  0
 12 27  1  0
 14 28  1  0
 18 29  1  0
 19 30  1  0
 19 31  1  0
 20 32  1  0
 20 33  1  0
M  ISO  8  21  14  22  14  23  14  24  14  25  14  26  14  27  14  28  14
M  ISO  5  29  13  30  13  31  13  32  13  33  13
M  END
>  <minimizedAffinity>  (1) 
-6.00203562

>  <minimizedRMSD>  (1) 
0.152371883

$$$$
