
     RDKit          3D

 32 34  0  0  0  0  0  0  0  0999 V2000
   44.4530   35.0160   41.6260 C   0  0  0  0  0  0  0  0  0  0  0  0
   44.6090   34.1430   40.5550 C   0  0  0  0  0  0  0  0  0  0  0  0
   43.5410   33.9080   39.7220 C   0  0  0  0  0  0  0  0  0  0  0  0
   42.2990   34.5090   39.9010 C   0  0  0  0  0  0  0  0  0  0  0  0
   41.3220   34.2220   39.0420 N   0  0  0  0  0  0  0  0  0  0  0  0
   40.1000   34.7900   39.1890 C   0  0  0  0  0  0  0  0  0  0  0  0
   39.9290   35.6470   40.2310 C   0  0  0  0  0  0  0  0  0  0  0  0
   40.9370   35.9570   41.1350 C   0  0  0  0  0  0  0  0  0  0  0  0
   42.1780   35.3630   40.9640 C   0  0  0  0  0  0  0  0  0  0  0  0
   43.2240   35.6390   41.8420 C   0  0  0  0  0  0  0  0  0  0  0  0
   45.4250   35.3540   42.5510 O   0  0  0  0  0  0  0  0  0  0  0  0
   44.9970   34.8100   44.9230 C   0  0  0  0  0  0  0  0  0  0  0  0
   45.6950   34.6570   43.7160 C   0  0  0  0  0  0  0  0  0  0  0  0
   46.7400   33.7330   43.6870 C   0  0  0  0  0  0  0  0  0  0  0  0
   47.0230   33.0430   44.8060 N   0  0  0  0  0  0  0  0  0  0  0  0
   46.3460   33.1960   45.9560 C   0  0  0  0  0  0  0  0  0  0  0  0
   45.3250   34.0980   45.9880 N   0  0  0  0  0  0  0  0  0  0  0  0
   46.6190   32.4600   47.2150 C   0  0  0  0  0  0  0  0  0  0  0  0
   45.3540   32.4060   48.0800 C   0  0  0  0  0  0  0  0  0  0  0  0
   45.5744   33.6469   40.3766 H   0  0  0  0  0  0  0  0  0  0  0  0
   43.6740   33.2153   38.8779 H   0  0  0  0  0  0  0  0  0  0  0  0
   39.2785   34.5664   38.4925 H   0  0  0  0  0  0  0  0  0  0  0  0
   38.9439   36.1179   40.3645 H   0  0  0  0  0  0  0  0  0  0  0  0
   40.7554   36.6556   41.9650 H   0  0  0  0  0  0  0  0  0  0  0  0
   43.0839   36.3315   42.6851 H   0  0  0  0  0  0  0  0  0  0  0  0
   44.1677   35.5301   44.9843 H   0  0  0  0  0  0  0  0  0  0  0  0
   47.3210   33.5721   42.7669 H   0  0  0  0  0  0  0  0  0  0  0  0
   46.9395   31.4354   46.9751 H   0  0  0  0  0  0  0  0  0  0  0  0
   47.4128   32.9805   47.7709 H   0  0  0  0  0  0  0  0  0  0  0  0
   45.6360   32.4180   49.1432 H   0  0  0  0  0  0  0  0  0  0  0  0
   44.7210   33.2779   47.8587 H   0  0  0  0  0  0  0  0  0  0  0  0
   44.7976   31.4833   47.8587 H   0  0  0  0  0  0  0  0  0  0  0  0
  1 10  1  0
  1 11  1  0
  2  1  2  0
  3  4  2  0
  3  2  1  0
  4  9  1  0
  5  6  2  0
  5  4  1  0
  6  7  1  0
  7  8  2  0
  9  8  1  0
  9 10  2  0
 11 13  1  0
 12 17  2  0
 13 12  1  0
 14 13  2  0
 14 15  1  0
 15 16  2  0
 16 17  1  0
 16 18  1  0
 18 19  1  0
  2 20  1  0
  3 21  1  0
  6 22  1  0
  7 23  1  0
  8 24  1  0
 10 25  1  0
 12 26  1  0
 14 27  1  0
 18 28  1  0
 18 29  1  0
 19 30  1  0
 19 31  1  0
 19 32  1  0
M  ISO  8  20  14  21  14  22  14  23  14  24  14  25  14  26  14  27  14
M  ISO  5  28   8  29   8  30   8  31   8  32   8
M  END
>  <minimizedAffinity>  (1) 
-5.77149296

>  <minimizedRMSD>  (1) 
0.0605826415

$$$$
