
     RDKit          3D

 29 31  0  0  0  0  0  0  0  0999 V2000
   44.4440   35.0140   41.6090 C   0  0  0  0  0  0  0  0  0  0  0  0
   44.6070   34.1370   40.5500 C   0  0  0  0  0  0  0  0  0  0  0  0
   43.5550   33.8770   39.7150 C   0  0  0  0  0  0  0  0  0  0  0  0
   42.3150   34.4610   39.8850 C   0  0  0  0  0  0  0  0  0  0  0  0
   41.3370   34.1500   39.0180 N   0  0  0  0  0  0  0  0  0  0  0  0
   40.1080   34.7080   39.1600 C   0  0  0  0  0  0  0  0  0  0  0  0
   39.9050   35.5820   40.1970 C   0  0  0  0  0  0  0  0  0  0  0  0
   40.9260   35.9090   41.1030 C   0  0  0  0  0  0  0  0  0  0  0  0
   42.1630   35.3330   40.9430 C   0  0  0  0  0  0  0  0  0  0  0  0
   43.2140   35.6260   41.8200 C   0  0  0  0  0  0  0  0  0  0  0  0
   45.4070   35.3850   42.5470 O   0  0  0  0  0  0  0  0  0  0  0  0
   44.9840   34.8440   44.9090 C   0  0  0  0  0  0  0  0  0  0  0  0
   45.6850   34.6860   43.7090 C   0  0  0  0  0  0  0  0  0  0  0  0
   46.7390   33.7580   43.6820 C   0  0  0  0  0  0  0  0  0  0  0  0
   47.0140   33.0730   44.8160 N   0  0  0  0  0  0  0  0  0  0  0  0
   46.3210   33.2480   45.9540 C   0  0  0  0  0  0  0  0  0  0  0  0
   45.2960   34.1480   45.9860 N   0  0  0  0  0  0  0  0  0  0  0  0
   46.7210   32.4330   47.1350 C   0  0  0  0  0  0  0  0  0  0  0  0
   45.5791   33.6509   40.3806 H   0  0  0  0  0  0  0  0  0  0  0  0
   43.7019   33.1780   38.8785 H   0  0  0  0  0  0  0  0  0  0  0  0
   39.2947   34.4651   38.4604 H   0  0  0  0  0  0  0  0  0  0  0  0
   38.9129   36.0403   40.3225 H   0  0  0  0  0  0  0  0  0  0  0  0
   40.7390   36.6139   41.9265 H   0  0  0  0  0  0  0  0  0  0  0  0
   43.0697   36.3248   42.6572 H   0  0  0  0  0  0  0  0  0  0  0  0
   44.1541   35.5645   44.9561 H   0  0  0  0  0  0  0  0  0  0  0  0
   47.3241   33.5929   42.7653 H   0  0  0  0  0  0  0  0  0  0  0  0
   46.4572   32.9705   48.0578 H   0  0  0  0  0  0  0  0  0  0  0  0
   46.1943   31.4676   47.1097 H   0  0  0  0  0  0  0  0  0  0  0  0
   47.8069   32.2590   47.1097 H   0  0  0  0  0  0  0  0  0  0  0  0
  1 10  1  0
  1 11  1  0
  2  1  2  0
  3  4  2  0
  3  2  1  0
  4  9  1  0
  5  6  2  0
  5  4  1  0
  6  7  1  0
  7  8  2  0
  9  8  1  0
  9 10  2  0
 11 13  1  0
 12 17  2  0
 13 12  1  0
 14 13  2  0
 14 15  1  0
 15 16  2  0
 16 17  1  0
 16 18  1  0
  2 19  1  0
  3 20  1  0
  6 21  1  0
  7 22  1  0
  8 23  1  0
 10 24  1  0
 12 25  1  0
 14 26  1  0
 18 27  1  0
 18 28  1  0
 18 29  1  0
M  ISO  8  19  14  20  14  21  14  22  14  23  14  24  14  25  14  26  14
M  ISO  3  27   8  28   8  29   8
M  END
>  <minimizedAffinity>  (1) 
-5.62598705

>  <minimizedRMSD>  (1) 
0.0564264879

$$$$
