
     RDKit          3D

 27 29  0  0  0  0  0  0  0  0999 V2000
   44.4580   34.9890   41.5810 C   0  0  0  0  0  0  0  0  0  0  0  0
   44.5870   34.1130   40.5310 C   0  0  0  0  0  0  0  0  0  0  0  0
   43.5190   33.8710   39.7120 C   0  0  0  0  0  0  0  0  0  0  0  0
   42.2810   34.4770   39.8900 C   0  0  0  0  0  0  0  0  0  0  0  0
   41.2980   34.1790   39.0410 N   0  0  0  0  0  0  0  0  0  0  0  0
   40.0790   34.7560   39.1920 C   0  0  0  0  0  0  0  0  0  0  0  0
   39.9100   35.6320   40.2230 C   0  0  0  0  0  0  0  0  0  0  0  0
   40.9430   35.9470   41.1170 C   0  0  0  0  0  0  0  0  0  0  0  0
   42.1670   35.3540   40.9500 C   0  0  0  0  0  0  0  0  0  0  0  0
   43.2350   35.6290   41.8080 C   0  0  0  0  0  0  0  0  0  0  0  0
   45.4250   35.3550   42.5090 O   0  0  0  0  0  0  0  0  0  0  0  0
   44.9790   34.8550   44.8810 C   0  0  0  0  0  0  0  0  0  0  0  0
   45.6890   34.6840   43.6770 C   0  0  0  0  0  0  0  0  0  0  0  0
   46.7330   33.7590   43.6930 C   0  0  0  0  0  0  0  0  0  0  0  0
   47.0050   33.0900   44.8380 N   0  0  0  0  0  0  0  0  0  0  0  0
   46.2950   33.2850   45.9760 C   0  0  0  0  0  0  0  0  0  0  0  0
   45.2820   34.1780   45.9760 N   0  0  0  0  0  0  0  0  0  0  0  0
   46.7370   32.5050   47.0200 O   0  0  0  0  0  0  0  0  0  0  0  0
   45.5469   33.6074   40.3494 H   0  0  0  0  0  0  0  0  0  0  0  0
   43.6451   33.1666   38.8766 H   0  0  0  0  0  0  0  0  0  0  0  0
   39.2528   34.5241   38.5038 H   0  0  0  0  0  0  0  0  0  0  0  0
   38.9279   36.1087   40.3582 H   0  0  0  0  0  0  0  0  0  0  0  0
   40.7738   36.6583   41.9388 H   0  0  0  0  0  0  0  0  0  0  0  0
   43.1166   36.3338   42.6442 H   0  0  0  0  0  0  0  0  0  0  0  0
   44.1468   35.5737   44.9117 H   0  0  0  0  0  0  0  0  0  0  0  0
   47.3280   33.5754   42.7862 H   0  0  0  0  0  0  0  0  0  0  0  0
   46.2933   32.5623   47.9031 H   0  0  0  0  0  0  0  0  0  0  0  0
  1 10  1  0
  1 11  1  0
  2  1  2  0
  3  4  2  0
  3  2  1  0
  4  9  1  0
  5  6  2  0
  5  4  1  0
  6  7  1  0
  7  8  2  0
  9  8  1  0
  9 10  2  0
 11 13  1  0
 12 17  2  0
 13 14  2  0
 13 12  1  0
 14 15  1  0
 15 16  2  0
 16 17  1  0
 16 18  1  0
  2 19  1  0
  3 20  1  0
  6 21  1  0
  7 22  1  0
  8 23  1  0
 10 24  1  0
 12 25  1  0
 14 26  1  0
 18 27  1  0
M  ISO  8  19  14  20  14  21  14  22  14  23  14  24  14  25  14  26  14
M  ISO  1  27   3
M  END
>  <minimizedAffinity>  (1) 
-5.55924559

>  <minimizedRMSD>  (1) 
0.0624194182

$$$$
