
     RDKit          3D

 41 45  0  0  0  0  0  0  0  0999 V2000
   44.7860   34.9310   45.0830 C   0  0  0  0  0  0  0  0  0  0  0  0
   45.3460   34.8970   43.8160 C   0  0  0  0  0  0  0  0  0  0  0  0
   46.4170   34.0050   43.5970 C   0  0  0  0  0  0  0  0  0  0  0  0
   46.8350   33.2420   44.6160 N   0  0  0  0  0  0  0  0  0  0  0  0
   46.2760   33.2900   45.8430 C   0  0  0  0  0  0  0  0  0  0  0  0
   45.2380   34.1550   46.0590 N   0  0  0  0  0  0  0  0  0  0  0  0
   46.6860   32.4860   46.9920 C   0  0  0  0  0  0  0  0  0  0  0  0
   45.9210   32.4250   48.1460 C   0  0  0  0  0  0  0  0  0  0  0  0
   46.5680   31.5880   49.0490 C   0  0  0  0  0  0  0  0  0  0  0  0
   47.7020   31.1750   48.4060 N   0  0  0  0  0  0  0  0  0  0  0  0
   47.7400   31.7240   47.1950 N   0  0  0  0  0  0  0  0  0  0  0  0
   48.6510   30.3020   48.9810 C   0  0  0  0  0  0  0  0  0  0  0  0
   49.0440   29.1110   48.4250 C   0  0  0  0  0  0  0  0  0  0  0  0
   49.9950   28.3560   49.1160 C   0  0  0  0  0  0  0  0  0  0  0  0
   50.5090   28.7930   50.3000 N   0  0  0  0  0  0  0  0  0  0  0  0
   50.0990   29.9500   50.7990 C   0  0  0  0  0  0  0  0  0  0  0  0
   49.1920   30.6860   50.1530 N   0  0  0  0  0  0  0  0  0  0  0  0
   44.9350   35.6730   42.7420 O   0  0  0  0  0  0  0  0  0  0  0  0
   44.0990   35.2370   41.7250 C   0  0  0  0  0  0  0  0  0  0  0  0
   44.4570   34.4600   40.6430 C   0  0  0  0  0  0  0  0  0  0  0  0
   43.5100   34.1060   39.7100 C   0  0  0  0  0  0  0  0  0  0  0  0
   42.1900   34.4980   39.8100 C   0  0  0  0  0  0  0  0  0  0  0  0
   41.3140   34.1230   38.8750 N   0  0  0  0  0  0  0  0  0  0  0  0
   40.0170   34.4900   38.9430 C   0  0  0  0  0  0  0  0  0  0  0  0
   39.6220   35.2640   40.0080 C   0  0  0  0  0  0  0  0  0  0  0  0
   40.5290   35.6740   41.0110 C   0  0  0  0  0  0  0  0  0  0  0  0
   41.8530   35.2740   40.9020 C   0  0  0  0  0  0  0  0  0  0  0  0
   42.7760   35.6630   41.8770 C   0  0  0  0  0  0  0  0  0  0  0  0
   43.9490   35.6160   45.2835 H   0  0  0  0  0  0  0  0  0  0  0  0
   46.8987   33.9374   42.6104 H   0  0  0  0  0  0  0  0  0  0  0  0
   44.9683   32.9474   48.3178 H   0  0  0  0  0  0  0  0  0  0  0  0
   46.2383   31.3166   50.0627 H   0  0  0  0  0  0  0  0  0  0  0  0
   48.6253   28.7629   47.4692 H   0  0  0  0  0  0  0  0  0  0  0  0
   50.3333   27.3961   48.6988 H   0  0  0  0  0  0  0  0  0  0  0  0
   50.5100   30.3074   51.7547 H   0  0  0  0  0  0  0  0  0  0  0  0
   45.4979   34.1240   40.5263 H   0  0  0  0  0  0  0  0  0  0  0  0
   43.8157   33.4880   38.8529 H   0  0  0  0  0  0  0  0  0  0  0  0
   39.2984   34.1794   38.1702 H   0  0  0  0  0  0  0  0  0  0  0  0
   38.5690   35.5733   40.0817 H   0  0  0  0  0  0  0  0  0  0  0  0
   40.1942   36.2939   41.8558 H   0  0  0  0  0  0  0  0  0  0  0  0
   42.4722   36.2825   42.7337 H   0  0  0  0  0  0  0  0  0  0  0  0
  1  6  2  0
  2  1  1  0
  3  2  2  0
  3  4  1  0
  4  5  2  0
  5  6  1  0
  5  7  1  0
  7 11  2  0
  7  8  1  0
  8  9  2  0
 10 12  1  0
 10  9  1  0
 11 10  1  0
 12 17  1  0
 13 12  2  0
 13 14  1  0
 14 15  2  0
 15 16  1  0
 17 16  2  0
 18  2  1  0
 19 28  1  0
 19 18  1  0
 20 19  2  0
 21 22  2  0
 21 20  1  0
 22 27  1  0
 23 24  2  0
 23 22  1  0
 24 25  1  0
 25 26  2  0
 27 26  1  0
 27 28  2  0
  1 29  1  0
  3 30  1  0
  8 31  1  0
  9 32  1  0
 13 33  1  0
 14 34  1  0
 16 35  1  0
 20 36  1  0
 21 37  1  0
 24 38  1  0
 25 39  1  0
 26 40  1  0
 28 41  1  0
M  ISO  8  29  14  30  14  31  14  32  14  33  14  34  14  35  14  36  14
M  ISO  5  37  14  38  14  39  14  40  14  41  14
M  END
>  <minimizedAffinity>  (1) 
-7.12184095

>  <minimizedRMSD>  (1) 
1.25301874

$$$$
