
     RDKit          3D

 19 20  0  0  0  0  0  0  0  0999 V2000
   45.6230   33.9480   45.4460 C   0  0  0  0  0  0  0  0  0  0  0  0
   44.7080   34.9870   45.6960 C   0  0  0  0  0  0  0  0  0  0  0  0
   44.5220   35.9470   44.6880 C   0  0  0  0  0  0  0  0  0  0  0  0
   45.2350   35.8250   43.5190 N   0  0  0  0  0  0  0  0  0  0  0  0
   46.0960   34.8080   43.3330 C   0  0  0  0  0  0  0  0  0  0  0  0
   46.2950   33.8780   44.2740 N   0  0  0  0  0  0  0  0  0  0  0  0
   46.8300   34.7240   42.0710 C   0  0  0  0  0  0  0  0  0  0  0  0
   48.0140   35.4130   41.9030 C   0  0  0  0  0  0  0  0  0  0  0  0
   48.7810   35.4020   40.7570 C   0  0  0  0  0  0  0  0  0  0  0  0
   48.2530   34.6100   39.7320 C   0  0  0  0  0  0  0  0  0  0  0  0
   47.0570   33.9040   39.8770 C   0  0  0  0  0  0  0  0  0  0  0  0
   46.3650   33.9750   41.0520 N   0  0  0  0  0  0  0  0  0  0  0  0
   45.7946   33.1808   46.2153 H   0  0  0  0  0  0  0  0  0  0  0  0
   44.1580   35.0453   46.6469 H   0  0  0  0  0  0  0  0  0  0  0  0
   43.8190   36.7809   44.8312 H   0  0  0  0  0  0  0  0  0  0  0  0
   48.3737   36.0177   42.7486 H   0  0  0  0  0  0  0  0  0  0  0  0
   49.7213   35.9642   40.6580 H   0  0  0  0  0  0  0  0  0  0  0  0
   48.7985   34.5410   38.7793 H   0  0  0  0  0  0  0  0  0  0  0  0
   46.6734   33.2924   39.0471 H   0  0  0  0  0  0  0  0  0  0  0  0
  1  2  2  0
  3  2  1  0
  4  3  2  0
  5  4  1  0
  5  6  2  0
  6  1  1  0
  7  5  1  0
  8  7  2  0
  9  8  1  0
 10 11  1  0
 10  9  2  0
 11 12  2  0
 12  7  1  0
  1 13  1  0
  2 14  1  0
  3 15  1  0
  8 16  1  0
  9 17  1  0
 10 18  1  0
 11 19  1  0
M  ISO  7  13  14  14  14  15  14  16  14  17  14  18  14  19  14
M  END
>  <minimizedAffinity>  (1) 
-4.61798477

>  <minimizedRMSD>  (1) 
5.99304533

$$$$
