
     RDKit          3D

 29 31  0  0  0  0  0  0  0  0999 V2000
   46.8710   34.7540   42.1170 C   0  0  0  0  0  0  0  0  0  0  0  0
   48.0750   35.4350   41.9890 C   0  0  0  0  0  0  0  0  0  0  0  0
   48.8460   35.4190   40.8410 C   0  0  0  0  0  0  0  0  0  0  0  0
   48.3120   34.6480   39.7880 C   0  0  0  0  0  0  0  0  0  0  0  0
   47.1180   33.9700   39.9110 C   0  0  0  0  0  0  0  0  0  0  0  0
   46.4290   34.0430   41.0750 N   0  0  0  0  0  0  0  0  0  0  0  0
   45.5850   33.9690   45.4530 C   0  0  0  0  0  0  0  0  0  0  0  0
   44.6740   35.0170   45.6860 C   0  0  0  0  0  0  0  0  0  0  0  0
   44.5200   35.9730   44.6870 C   0  0  0  0  0  0  0  0  0  0  0  0
   45.2550   35.8540   43.5300 N   0  0  0  0  0  0  0  0  0  0  0  0
   46.1200   34.8240   43.3580 C   0  0  0  0  0  0  0  0  0  0  0  0
   46.2830   33.9030   44.2960 N   0  0  0  0  0  0  0  0  0  0  0  0
   48.2420   34.5940   37.2470 Cl  0  0  0  0  0  0  0  0  0  0  0  0
   47.0040   33.3620   37.5290 C   0  0  0  0  0  0  0  0  0  0  0  0
   46.5740   33.1800   38.8270 C   0  0  0  0  0  0  0  0  0  0  0  0
   45.6120   32.2060   38.9650 C   0  0  0  0  0  0  0  0  0  0  0  0
   45.0990   31.4570   37.9280 C   0  0  0  0  0  0  0  0  0  0  0  0
   45.5760   31.6890   36.6410 C   0  0  0  0  0  0  0  0  0  0  0  0
   46.5410   32.6540   36.4390 C   0  0  0  0  0  0  0  0  0  0  0  0
   48.4351   36.0194   42.8485 H   0  0  0  0  0  0  0  0  0  0  0  0
   49.7981   35.9633   40.7562 H   0  0  0  0  0  0  0  0  0  0  0  0
   48.8652   34.5856   38.8393 H   0  0  0  0  0  0  0  0  0  0  0  0
   45.7309   33.1948   46.2207 H   0  0  0  0  0  0  0  0  0  0  0  0
   44.1041   35.0778   46.6249 H   0  0  0  0  0  0  0  0  0  0  0  0
   43.8208   36.8117   44.8202 H   0  0  0  0  0  0  0  0  0  0  0  0
   45.2244   32.0111   39.9758 H   0  0  0  0  0  0  0  0  0  0  0  0
   44.3297   30.6929   38.1132 H   0  0  0  0  0  0  0  0  0  0  0  0
   45.1867   31.1077   35.7921 H   0  0  0  0  0  0  0  0  0  0  0  0
   46.9328   32.8546   35.4309 H   0  0  0  0  0  0  0  0  0  0  0  0
  1 11  1  0
  2  1  2  0
  3  2  1  0
  4  5  1  0
  4  3  2  0
  5  6  2  0
  6  1  1  0
  7  8  2  0
  9  8  1  0
 10  9  2  0
 11 10  1  0
 11 12  2  0
 12  7  1  0
 13 14  1  0
 14 15  2  0
 15 16  1  0
 15  5  1  0
 17 16  2  0
 18 17  1  0
 19 18  2  0
 19 14  1  0
  2 20  1  0
  3 21  1  0
  4 22  1  0
  7 23  1  0
  8 24  1  0
  9 25  1  0
 16 26  1  0
 17 27  1  0
 18 28  1  0
 19 29  1  0
M  ISO  8  20  14  21  14  22  14  23  14  24  14  25  14  26  14  27  14
M  ISO  2  28  14  29  14
M  END
>  <minimizedAffinity>  (1) 
-5.80082655

>  <minimizedRMSD>  (1) 
0.407319069

$$$$
