
     RDKit          3D

 29 31  0  0  0  0  0  0  0  0999 V2000
   46.8450   34.7350   41.9770 C   0  0  0  0  0  0  0  0  0  0  0  0
   48.0510   35.4050   41.8220 C   0  0  0  0  0  0  0  0  0  0  0  0
   48.8130   35.3520   40.6690 C   0  0  0  0  0  0  0  0  0  0  0  0
   48.2680   34.5550   39.6420 C   0  0  0  0  0  0  0  0  0  0  0  0
   47.0690   33.8880   39.7950 C   0  0  0  0  0  0  0  0  0  0  0  0
   46.3890   33.9980   40.9620 N   0  0  0  0  0  0  0  0  0  0  0  0
   45.5510   34.0340   45.3280 C   0  0  0  0  0  0  0  0  0  0  0  0
   44.6830   35.1050   45.5610 C   0  0  0  0  0  0  0  0  0  0  0  0
   44.5560   36.0570   44.5530 C   0  0  0  0  0  0  0  0  0  0  0  0
   45.2770   35.9050   43.3920 N   0  0  0  0  0  0  0  0  0  0  0  0
   46.1050   34.8450   43.2200 C   0  0  0  0  0  0  0  0  0  0  0  0
   46.2420   33.9260   44.1670 N   0  0  0  0  0  0  0  0  0  0  0  0
   47.5320   34.4590   37.1200 F   0  0  0  0  0  0  0  0  0  0  0  0
   46.7620   33.3780   37.4080 C   0  0  0  0  0  0  0  0  0  0  0  0
   46.5140   33.0680   38.7290 C   0  0  0  0  0  0  0  0  0  0  0  0
   45.7260   31.9560   38.9290 C   0  0  0  0  0  0  0  0  0  0  0  0
   45.2130   31.1970   37.8980 C   0  0  0  0  0  0  0  0  0  0  0  0
   45.4920   31.5500   36.5820 C   0  0  0  0  0  0  0  0  0  0  0  0
   46.2810   32.6600   36.3340 C   0  0  0  0  0  0  0  0  0  0  0  0
   48.4207   36.0112   42.6622 H   0  0  0  0  0  0  0  0  0  0  0  0
   49.7673   35.8885   40.5620 H   0  0  0  0  0  0  0  0  0  0  0  0
   48.8137   34.4618   38.6914 H   0  0  0  0  0  0  0  0  0  0  0  0
   45.6757   33.2632   46.1028 H   0  0  0  0  0  0  0  0  0  0  0  0
   44.1225   35.1921   46.5035 H   0  0  0  0  0  0  0  0  0  0  0  0
   43.8870   36.9203   44.6838 H   0  0  0  0  0  0  0  0  0  0  0  0
   45.4944   31.6586   39.9624 H   0  0  0  0  0  0  0  0  0  0  0  0
   44.5875   30.3186   38.1151 H   0  0  0  0  0  0  0  0  0  0  0  0
   45.0907   30.9546   35.7487 H   0  0  0  0  0  0  0  0  0  0  0  0
   46.5188   32.9623   35.3034 H   0  0  0  0  0  0  0  0  0  0  0  0
  1 11  1  0
  2  1  2  0
  3  2  1  0
  4  5  1  0
  4  3  2  0
  5  6  2  0
  6  1  1  0
  7  8  2  0
  9  8  1  0
 10  9  2  0
 11 10  1  0
 11 12  2  0
 12  7  1  0
 13 14  1  0
 14 15  2  0
 15 16  1  0
 15  5  1  0
 17 16  2  0
 18 17  1  0
 19 18  2  0
 19 14  1  0
  2 20  1  0
  3 21  1  0
  4 22  1  0
  7 23  1  0
  8 24  1  0
  9 25  1  0
 16 26  1  0
 17 27  1  0
 18 28  1  0
 19 29  1  0
M  ISO  8  20  14  21  14  22  14  23  14  24  14  25  14  26  14  27  14
M  ISO  2  28  14  29  14
M  END
>  <minimizedAffinity>  (1) 
-5.65154648

>  <minimizedRMSD>  (1) 
0.116385251

$$$$
