
     RDKit          3D

 31 33  0  0  0  0  0  0  0  0999 V2000
   46.8260   34.7530   42.0630 C   0  0  0  0  0  0  0  0  0  0  0  0
   48.0600   35.3710   41.9280 C   0  0  0  0  0  0  0  0  0  0  0  0
   48.8180   35.3450   40.7760 C   0  0  0  0  0  0  0  0  0  0  0  0
   48.2430   34.6270   39.7090 C   0  0  0  0  0  0  0  0  0  0  0  0
   47.0090   34.0080   39.8410 C   0  0  0  0  0  0  0  0  0  0  0  0
   46.3170   34.0740   41.0040 N   0  0  0  0  0  0  0  0  0  0  0  0
   46.5010   33.3030   38.7120 N   0  0  0  0  0  0  0  0  0  0  0  0
   47.0380   33.4640   37.3750 C   0  0  0  0  0  0  0  0  0  0  0  0
   46.1930   32.6410   36.4610 C   0  0  0  0  0  0  0  0  0  0  0  0
   44.8830   32.5690   37.2510 C   0  0  0  0  0  0  0  0  0  0  0  0
   45.4170   32.3400   38.6510 C   0  0  0  0  0  0  0  0  0  0  0  0
   45.6260   33.9390   45.4260 C   0  0  0  0  0  0  0  0  0  0  0  0
   44.7090   34.9760   45.6830 C   0  0  0  0  0  0  0  0  0  0  0  0
   44.5200   35.9450   44.6880 C   0  0  0  0  0  0  0  0  0  0  0  0
   45.2320   35.8360   43.5160 N   0  0  0  0  0  0  0  0  0  0  0  0
   46.0900   34.8310   43.3220 C   0  0  0  0  0  0  0  0  0  0  0  0
   46.3000   33.8810   44.2540 N   0  0  0  0  0  0  0  0  0  0  0  0
   48.4600   35.9169   42.7952 H   0  0  0  0  0  0  0  0  0  0  0  0
   49.7944   35.8454   40.6966 H   0  0  0  0  0  0  0  0  0  0  0  0
   48.7829   34.5560   38.7533 H   0  0  0  0  0  0  0  0  0  0  0  0
   46.9967   34.5220   37.0766 H   0  0  0  0  0  0  0  0  0  0  0  0
   48.0888   33.1413   37.3335 H   0  0  0  0  0  0  0  0  0  0  0  0
   46.6245   31.6414   36.3040 H   0  0  0  0  0  0  0  0  0  0  0  0
   46.0870   33.0564   35.4480 H   0  0  0  0  0  0  0  0  0  0  0  0
   44.3148   33.5083   37.1817 H   0  0  0  0  0  0  0  0  0  0  0  0
   44.1768   31.8028   36.8987 H   0  0  0  0  0  0  0  0  0  0  0  0
   44.6508   32.5496   39.4119 H   0  0  0  0  0  0  0  0  0  0  0  0
   45.7284   31.3033   38.8468 H   0  0  0  0  0  0  0  0  0  0  0  0
   45.7970   33.1650   46.1887 H   0  0  0  0  0  0  0  0  0  0  0  0
   44.1585   35.0242   46.6341 H   0  0  0  0  0  0  0  0  0  0  0  0
   43.8161   36.7763   44.8413 H   0  0  0  0  0  0  0  0  0  0  0  0
  1 16  1  0
  2  1  2  0
  3  2  1  0
  4  5  1  0
  4  3  2  0
  5  6  2  0
  6  1  1  0
  7  5  1  0
  8  7  1  0
  9 10  1  0
  9  8  1  0
 10 11  1  0
 11  7  1  0
 12 13  2  0
 14 13  1  0
 15 14  2  0
 16 15  1  0
 16 17  2  0
 17 12  1  0
  2 18  1  0
  3 19  1  0
  4 20  1  0
  8 21  1  0
  8 22  1  0
  9 23  1  0
  9 24  1  0
 10 25  1  0
 10 26  1  0
 11 27  1  0
 11 28  1  0
 12 29  1  0
 13 30  1  0
 14 31  1  0
M  ISO  8  18  14  19  14  20  14  21  13  22  13  23  13  24  13  25  13
M  ISO  6  26  13  27  13  28  13  29  14  30  14  31  14
M  END
>  <minimizedAffinity>  (1) 
-5.53306866

>  <minimizedRMSD>  (1) 
0.186305672

$$$$
