
     RDKit          3D

 29 31  0  0  0  0  0  0  0  0999 V2000
   46.7870   34.7070   42.0100 C   0  0  0  0  0  0  0  0  0  0  0  0
   48.0080   35.3580   41.8610 C   0  0  0  0  0  0  0  0  0  0  0  0
   48.7640   35.3230   40.7030 C   0  0  0  0  0  0  0  0  0  0  0  0
   48.1940   34.5630   39.6630 C   0  0  0  0  0  0  0  0  0  0  0  0
   46.9790   33.9130   39.8070 C   0  0  0  0  0  0  0  0  0  0  0  0
   46.3060   34.0040   40.9810 N   0  0  0  0  0  0  0  0  0  0  0  0
   45.5900   33.9510   45.3900 C   0  0  0  0  0  0  0  0  0  0  0  0
   44.7090   35.0330   45.6440 C   0  0  0  0  0  0  0  0  0  0  0  0
   44.5430   35.9960   44.6500 C   0  0  0  0  0  0  0  0  0  0  0  0
   45.2450   35.8340   43.4870 N   0  0  0  0  0  0  0  0  0  0  0  0
   46.0720   34.8070   43.2690 C   0  0  0  0  0  0  0  0  0  0  0  0
   46.2490   33.8650   44.2110 N   0  0  0  0  0  0  0  0  0  0  0  0
   46.3960   33.1290   38.7270 C   0  0  0  0  0  0  0  0  0  0  0  0
   45.4450   32.1500   38.9060 C   0  0  0  0  0  0  0  0  0  0  0  0
   44.8970   31.4120   37.8750 C   0  0  0  0  0  0  0  0  0  0  0  0
   45.3080   31.6480   36.5880 C   0  0  0  0  0  0  0  0  0  0  0  0
   46.2610   32.6210   36.3630 C   0  0  0  0  0  0  0  0  0  0  0  0
   46.7820   33.3360   37.4220 C   0  0  0  0  0  0  0  0  0  0  0  0
   48.3947   35.9344   42.7144 H   0  0  0  0  0  0  0  0  0  0  0  0
   49.7276   35.8440   40.6030 H   0  0  0  0  0  0  0  0  0  0  0  0
   48.7306   34.4830   38.7061 H   0  0  0  0  0  0  0  0  0  0  0  0
   45.7387   33.1763   46.1566 H   0  0  0  0  0  0  0  0  0  0  0  0
   44.1708   35.1102   46.6003 H   0  0  0  0  0  0  0  0  0  0  0  0
   43.8718   36.8552   44.7955 H   0  0  0  0  0  0  0  0  0  0  0  0
   45.1013   31.9433   39.9303 H   0  0  0  0  0  0  0  0  0  0  0  0
   44.1388   30.6430   38.0840 H   0  0  0  0  0  0  0  0  0  0  0  0
   44.8861   31.0727   35.7507 H   0  0  0  0  0  0  0  0  0  0  0  0
   46.6054   32.8265   35.3387 H   0  0  0  0  0  0  0  0  0  0  0  0
   47.5397   34.1058   37.2140 H   0  0  0  0  0  0  0  0  0  0  0  0
  1 11  1  0
  2  1  2  0
  3  2  1  0
  4  5  1  0
  4  3  2  0
  5  6  2  0
  6  1  1  0
  7  8  2  0
  9  8  1  0
 10  9  2  0
 11 10  1  0
 11 12  2  0
 12  7  1  0
 13 14  2  0
 13  5  1  0
 15 14  1  0
 16 15  2  0
 17 16  1  0
 17 18  2  0
 18 13  1  0
  2 19  1  0
  3 20  1  0
  4 21  1  0
  7 22  1  0
  8 23  1  0
  9 24  1  0
 14 25  1  0
 15 26  1  0
 16 27  1  0
 17 28  1  0
 18 29  1  0
M  ISO  8  19  14  20  14  21  14  22  14  23  14  24  14  25  14  26  14
M  ISO  3  27  14  28  14  29  14
M  END
>  <minimizedAffinity>  (1) 
-5.34789515

>  <minimizedRMSD>  (1) 
0.52696532

$$$$
