
     RDKit          3D

 26 28  0  0  0  0  0  0  0  0999 V2000
   46.8510   34.7460   42.0410 C   0  0  0  0  0  0  0  0  0  0  0  0
   48.0440   35.4180   41.8930 C   0  0  0  0  0  0  0  0  0  0  0  0
   48.8120   35.4060   40.7450 C   0  0  0  0  0  0  0  0  0  0  0  0
   48.2710   34.6360   39.7050 C   0  0  0  0  0  0  0  0  0  0  0  0
   47.0710   33.9540   39.8370 C   0  0  0  0  0  0  0  0  0  0  0  0
   46.3890   34.0270   41.0070 N   0  0  0  0  0  0  0  0  0  0  0  0
   45.6260   33.9450   45.4050 C   0  0  0  0  0  0  0  0  0  0  0  0
   44.7180   34.9760   45.6540 C   0  0  0  0  0  0  0  0  0  0  0  0
   44.5360   35.9390   44.6590 C   0  0  0  0  0  0  0  0  0  0  0  0
   45.2520   35.8240   43.4960 N   0  0  0  0  0  0  0  0  0  0  0  0
   46.1120   34.8210   43.2980 C   0  0  0  0  0  0  0  0  0  0  0  0
   46.3110   33.8770   44.2380 N   0  0  0  0  0  0  0  0  0  0  0  0
   46.5560   33.1680   38.7220 C   0  0  0  0  0  0  0  0  0  0  0  0
   46.8670   33.3830   37.3930 C   0  0  0  0  0  0  0  0  0  0  0  0
   46.1690   32.4220   36.6830 C   0  0  0  0  0  0  0  0  0  0  0  0
   45.4720   31.6740   37.6140 C   0  0  0  0  0  0  0  0  0  0  0  0
   45.7420   32.1650   38.8130 O   0  0  0  0  0  0  0  0  0  0  0  0
   48.4106   36.0048   42.7481 H   0  0  0  0  0  0  0  0  0  0  0  0
   49.7629   35.9516   40.6545 H   0  0  0  0  0  0  0  0  0  0  0  0
   48.8172   34.5710   38.7524 H   0  0  0  0  0  0  0  0  0  0  0  0
   45.7884   33.1728   46.1713 H   0  0  0  0  0  0  0  0  0  0  0  0
   44.1641   35.0281   46.6029 H   0  0  0  0  0  0  0  0  0  0  0  0
   43.8329   36.7721   44.8056 H   0  0  0  0  0  0  0  0  0  0  0  0
   47.5320   34.1579   36.9839 H   0  0  0  0  0  0  0  0  0  0  0  0
   46.1687   32.2808   35.5921 H   0  0  0  0  0  0  0  0  0  0  0  0
   44.8107   30.8223   37.3967 H   0  0  0  0  0  0  0  0  0  0  0  0
  1 11  1  0
  2  1  2  0
  3  2  1  0
  4  5  1  0
  4  3  2  0
  5  6  2  0
  6  1  1  0
  7  8  2  0
  9  8  1  0
 10  9  2  0
 11 10  1  0
 11 12  2  0
 12  7  1  0
 13 17  1  0
 13  5  1  0
 14 13  2  0
 15 14  1  0
 15 16  2  0
 16 17  1  0
  2 18  1  0
  3 19  1  0
  4 20  1  0
  7 21  1  0
  8 22  1  0
  9 23  1  0
 14 24  1  0
 15 25  1  0
 16 26  1  0
M  ISO  8  18  14  19  14  20  14  21  14  22  14  23  14  24  14  25  14
M  ISO  1  26  14
M  END
>  <minimizedAffinity>  (1) 
-5.19619703

>  <minimizedRMSD>  (1) 
0.282107294

$$$$
