
     RDKit          3D

 26 28  0  0  0  0  0  0  0  0999 V2000
   46.8280   34.7410   42.0380 C   0  0  0  0  0  0  0  0  0  0  0  0
   48.0290   35.4020   41.8930 C   0  0  0  0  0  0  0  0  0  0  0  0
   48.8050   35.3940   40.7570 C   0  0  0  0  0  0  0  0  0  0  0  0
   48.2540   34.6270   39.7160 C   0  0  0  0  0  0  0  0  0  0  0  0
   47.0470   33.9540   39.8410 C   0  0  0  0  0  0  0  0  0  0  0  0
   46.3430   34.0180   41.0070 N   0  0  0  0  0  0  0  0  0  0  0  0
   45.6240   33.9440   45.4180 C   0  0  0  0  0  0  0  0  0  0  0  0
   44.7160   34.9750   45.6750 C   0  0  0  0  0  0  0  0  0  0  0  0
   44.5320   35.9320   44.6780 C   0  0  0  0  0  0  0  0  0  0  0  0
   45.2360   35.8300   43.5000 N   0  0  0  0  0  0  0  0  0  0  0  0
   46.0930   34.8260   43.3020 C   0  0  0  0  0  0  0  0  0  0  0  0
   46.2950   33.8840   44.2440 N   0  0  0  0  0  0  0  0  0  0  0  0
   46.5100   33.1670   38.7340 C   0  0  0  0  0  0  0  0  0  0  0  0
   46.8250   33.3620   37.4060 C   0  0  0  0  0  0  0  0  0  0  0  0
   46.0760   32.3850   36.7400 C   0  0  0  0  0  0  0  0  0  0  0  0
   45.3640   31.6600   37.6170 N   0  0  0  0  0  0  0  0  0  0  0  0
   45.6350   32.1450   38.8250 N   0  0  0  0  0  0  0  0  0  0  0  0
   48.3957   35.9814   42.7532 H   0  0  0  0  0  0  0  0  0  0  0  0
   49.7600   35.9333   40.6720 H   0  0  0  0  0  0  0  0  0  0  0  0
   48.8014   34.5575   38.7644 H   0  0  0  0  0  0  0  0  0  0  0  0
   45.7958   33.1702   46.1808 H   0  0  0  0  0  0  0  0  0  0  0  0
   44.1678   35.0293   46.6271 H   0  0  0  0  0  0  0  0  0  0  0  0
   43.8285   36.7634   44.8320 H   0  0  0  0  0  0  0  0  0  0  0  0
   47.5051   34.1097   36.9719 H   0  0  0  0  0  0  0  0  0  0  0  0
   46.0715   32.2327   35.6506 H   0  0  0  0  0  0  0  0  0  0  0  0
   44.7300   30.8787   37.3967 H   0  0  0  0  0  0  0  0  0  0  0  0
  1 11  1  0
  2  1  2  0
  3  2  1  0
  4  5  1  0
  4  3  2  0
  5  6  2  0
  6  1  1  0
  7  8  2  0
  9  8  1  0
 10  9  2  0
 11 10  1  0
 11 12  2  0
 12  7  1  0
 13 17  2  0
 13  5  1  0
 14 13  1  0
 15 14  2  0
 15 16  1  0
 16 17  1  0
  2 18  1  0
  3 19  1  0
  4 20  1  0
  7 21  1  0
  8 22  1  0
  9 23  1  0
 14 24  1  0
 15 25  1  0
 16 26  1  0
M  ISO  8  18  14  19  14  20  14  21  14  22  14  23  14  24  14  25  14
M  ISO  1  26   9
M  END
>  <minimizedAffinity>  (1) 
-5.1929841

>  <minimizedRMSD>  (1) 
0.194464639

$$$$
