
     RDKit          3D

 26 28  0  0  0  0  0  0  0  0999 V2000
   46.8370   34.7380   42.0550 C   0  0  0  0  0  0  0  0  0  0  0  0
   48.0360   35.3970   41.8990 C   0  0  0  0  0  0  0  0  0  0  0  0
   48.7990   35.3830   40.7470 C   0  0  0  0  0  0  0  0  0  0  0  0
   48.2440   34.6190   39.7050 C   0  0  0  0  0  0  0  0  0  0  0  0
   47.0380   33.9470   39.8400 C   0  0  0  0  0  0  0  0  0  0  0  0
   46.3570   34.0190   41.0130 N   0  0  0  0  0  0  0  0  0  0  0  0
   45.6310   33.9450   45.4170 C   0  0  0  0  0  0  0  0  0  0  0  0
   44.7150   34.9770   45.6720 C   0  0  0  0  0  0  0  0  0  0  0  0
   44.5310   35.9320   44.6720 C   0  0  0  0  0  0  0  0  0  0  0  0
   45.2430   35.8190   43.5050 N   0  0  0  0  0  0  0  0  0  0  0  0
   46.1020   34.8140   43.3170 C   0  0  0  0  0  0  0  0  0  0  0  0
   46.3180   33.8650   44.2490 N   0  0  0  0  0  0  0  0  0  0  0  0
   46.4840   33.1600   38.7410 C   0  0  0  0  0  0  0  0  0  0  0  0
   45.6440   32.0750   38.8930 C   0  0  0  0  0  0  0  0  0  0  0  0
   45.3890   31.6680   37.6340 N   0  0  0  0  0  0  0  0  0  0  0  0
   46.0160   32.4300   36.7060 C   0  0  0  0  0  0  0  0  0  0  0  0
   46.7000   33.3640   37.4170 N   0  0  0  0  0  0  0  0  0  0  0  0
   48.4140   35.9769   42.7539 H   0  0  0  0  0  0  0  0  0  0  0  0
   49.7540   35.9208   40.6535 H   0  0  0  0  0  0  0  0  0  0  0  0
   48.7850   34.5519   38.7496 H   0  0  0  0  0  0  0  0  0  0  0  0
   45.7974   33.1774   46.1871 H   0  0  0  0  0  0  0  0  0  0  0  0
   44.1640   35.0308   46.6225 H   0  0  0  0  0  0  0  0  0  0  0  0
   43.8254   36.7633   44.8171 H   0  0  0  0  0  0  0  0  0  0  0  0
   45.2676   31.6405   39.8308 H   0  0  0  0  0  0  0  0  0  0  0  0
   44.7846   30.8666   37.4030 H   0  0  0  0  0  0  0  0  0  0  0  0
   45.9793   32.3169   35.6124 H   0  0  0  0  0  0  0  0  0  0  0  0
  1 11  1  0
  2  1  2  0
  3  2  1  0
  4  5  1  0
  4  3  2  0
  5  6  2  0
  6  1  1  0
  7  8  2  0
  9  8  1  0
 10  9  2  0
 11 10  1  0
 11 12  2  0
 12  7  1  0
 13 14  2  0
 13  5  1  0
 15 14  1  0
 16 17  2  0
 16 15  1  0
 17 13  1  0
  2 18  1  0
  3 19  1  0
  4 20  1  0
  7 21  1  0
  8 22  1  0
  9 23  1  0
 14 24  1  0
 15 25  1  0
 16 26  1  0
M  ISO  8  18  14  19  14  20  14  21  14  22  14  23  14  24  14  25   9
M  ISO  1  26  14
M  END
>  <minimizedAffinity>  (1) 
-5.1690526

>  <minimizedRMSD>  (1) 
0.160306871

$$$$
