
     RDKit          3D

 22 23  0  0  0  0  0  0  0  0999 V2000
   46.8490   34.7640   42.0660 C   0  0  0  0  0  0  0  0  0  0  0  0
   48.0570   35.4310   41.9420 C   0  0  0  0  0  0  0  0  0  0  0  0
   48.8400   35.4240   40.8020 C   0  0  0  0  0  0  0  0  0  0  0  0
   48.3030   34.6690   39.7480 C   0  0  0  0  0  0  0  0  0  0  0  0
   47.0960   33.9960   39.8580 C   0  0  0  0  0  0  0  0  0  0  0  0
   46.3940   34.0610   41.0220 N   0  0  0  0  0  0  0  0  0  0  0  0
   45.6300   33.9400   45.4200 C   0  0  0  0  0  0  0  0  0  0  0  0
   44.7130   34.9630   45.6820 C   0  0  0  0  0  0  0  0  0  0  0  0
   44.5250   35.9300   44.6910 C   0  0  0  0  0  0  0  0  0  0  0  0
   45.2400   35.8340   43.5200 N   0  0  0  0  0  0  0  0  0  0  0  0
   46.1040   34.8380   43.3170 C   0  0  0  0  0  0  0  0  0  0  0  0
   46.3100   33.8900   44.2520 N   0  0  0  0  0  0  0  0  0  0  0  0
   46.5420   33.2000   38.7310 C   0  0  0  0  0  0  0  0  0  0  0  0
   46.9470   31.8890   38.8610 F   0  0  0  0  0  0  0  0  0  0  0  0
   45.1570   33.2540   38.7090 F   0  0  0  0  0  0  0  0  0  0  0  0
   47.0630   33.7790   37.5690 F   0  0  0  0  0  0  0  0  0  0  0  0
   48.4176   36.0047   42.8085 H   0  0  0  0  0  0  0  0  0  0  0  0
   49.7969   35.9615   40.7282 H   0  0  0  0  0  0  0  0  0  0  0  0
   48.8595   34.6091   38.8010 H   0  0  0  0  0  0  0  0  0  0  0  0
   45.8014   33.1615   46.1781 H   0  0  0  0  0  0  0  0  0  0  0  0
   44.1606   35.0048   46.6323 H   0  0  0  0  0  0  0  0  0  0  0  0
   43.8153   36.7562   44.8452 H   0  0  0  0  0  0  0  0  0  0  0  0
  1 11  1  0
  2  1  2  0
  3  2  1  0
  4  5  1  0
  4  3  2  0
  5  6  2  0
  6  1  1  0
  7  8  2  0
  9  8  1  0
 10  9  2  0
 11 10  1  0
 11 12  2  0
 12  7  1  0
 13 14  1  0
 13  5  1  0
 15 13  1  0
 16 13  1  0
  2 17  1  0
  3 18  1  0
  4 19  1  0
  7 20  1  0
  8 21  1  0
  9 22  1  0
M  ISO  6  17  14  18  14  19  14  20  14  21  14  22  14
M  END
>  <minimizedAffinity>  (1) 
-5.02912855

>  <minimizedRMSD>  (1) 
0.303539008

$$$$
