
     RDKit          3D

 26 28  0  0  0  0  0  0  0  0999 V2000
   46.7900   34.6510   41.9600 C   0  0  0  0  0  0  0  0  0  0  0  0
   47.9410   35.3540   41.7220 C   0  0  0  0  0  0  0  0  0  0  0  0
   48.6870   35.2800   40.5630 C   0  0  0  0  0  0  0  0  0  0  0  0
   48.1760   34.4070   39.6050 C   0  0  0  0  0  0  0  0  0  0  0  0
   47.0060   33.6790   39.8210 C   0  0  0  0  0  0  0  0  0  0  0  0
   46.3320   33.8160   41.0000 N   0  0  0  0  0  0  0  0  0  0  0  0
   45.5510   34.0060   45.3460 C   0  0  0  0  0  0  0  0  0  0  0  0
   44.6990   35.1060   45.5800 C   0  0  0  0  0  0  0  0  0  0  0  0
   44.5670   36.0550   44.5610 C   0  0  0  0  0  0  0  0  0  0  0  0
   45.2730   35.8610   43.3920 N   0  0  0  0  0  0  0  0  0  0  0  0
   46.0670   34.7980   43.2240 C   0  0  0  0  0  0  0  0  0  0  0  0
   46.2130   33.8800   44.1750 N   0  0  0  0  0  0  0  0  0  0  0  0
   46.5470   32.7820   38.7480 C   0  0  0  0  0  0  0  0  0  0  0  0
   45.2100   33.0950   38.1160 C   0  0  0  0  0  0  0  0  0  0  0  0
   46.4520   33.2370   37.3470 C   0  0  0  0  0  0  0  0  0  0  0  0
   48.2979   36.0285   42.5143 H   0  0  0  0  0  0  0  0  0  0  0  0
   49.6078   35.8616   40.4087 H   0  0  0  0  0  0  0  0  0  0  0  0
   48.7105   34.2885   38.6510 H   0  0  0  0  0  0  0  0  0  0  0  0
   45.6778   33.2415   46.1267 H   0  0  0  0  0  0  0  0  0  0  0  0
   44.1571   35.2136   46.5312 H   0  0  0  0  0  0  0  0  0  0  0  0
   43.9171   36.9332   44.6886 H   0  0  0  0  0  0  0  0  0  0  0  0
   47.0331   31.9238   39.2350 H   0  0  0  0  0  0  0  0  0  0  0  0
   44.5064   32.2824   37.8825 H   0  0  0  0  0  0  0  0  0  0  0  0
   44.3640   33.7534   38.3627 H   0  0  0  0  0  0  0  0  0  0  0  0
   46.6703   32.5339   36.5297 H   0  0  0  0  0  0  0  0  0  0  0  0
   46.9100   34.0567   36.7739 H   0  0  0  0  0  0  0  0  0  0  0  0
  1 11  1  0
  2  1  2  0
  3  2  1  0
  4  5  1  0
  4  3  2  0
  5  6  2  0
  6  1  1  0
  7  8  2  0
  9  8  1  0
 10  9  2  0
 11 10  1  0
 11 12  2  0
 12  7  1  0
 13  5  1  0
 14 13  1  0
 15 14  1  0
 15 13  1  0
  2 16  1  0
  3 17  1  0
  4 18  1  0
  7 19  1  0
  8 20  1  0
  9 21  1  0
 13 22  1  0
 14 23  1  0
 14 24  1  0
 15 25  1  0
 15 26  1  0
M  ISO  8  16  14  17  14  18  14  19  14  20  14  21  14  22  13  23  13
M  ISO  3  24  13  25  13  26  13
M  END
>  <minimizedAffinity>  (1) 
-4.8456645

>  <minimizedRMSD>  (1) 
0.45759663

$$$$
