
     RDKit          3D

 51 54  0  0  1  0  0  0  0  0999 V2000
   46.4150   35.0200   42.2330 C   0  0  1  0  0  0  0  0  0  0  0  0
   47.9300   34.7080   42.3500 C   0  0  0  0  0  0  0  0  0  0  0  0
   48.5110   35.1590   41.0030 C   0  0  0  0  0  0  0  0  0  0  0  0
   48.0360   34.1710   39.9810 C   0  0  0  0  0  0  0  0  0  0  0  0
   46.6760   33.6330   40.1920 C   0  0  0  0  0  0  0  0  0  0  0  0
   45.7870   34.5980   41.0530 C   0  0  1  0  0  0  0  0  0  0  0  0
   45.6560   33.8760   45.6420 C   0  0  0  0  0  0  0  0  0  0  0  0
   44.7630   34.8380   46.0150 C   0  0  0  0  0  0  0  0  0  0  0  0
   44.3410   35.8640   45.2000 C   0  0  0  0  0  0  0  0  0  0  0  0
   44.9130   35.8480   43.9340 C   0  0  0  0  0  0  0  0  0  0  0  0
   45.8170   34.8980   43.5430 C   0  0  0  0  0  0  0  0  0  0  0  0
   46.1900   33.9110   44.3890 N   0  0  0  0  0  0  0  0  0  0  0  0
   45.7840   31.5550   48.4570 C   0  0  0  0  0  0  0  0  0  0  0  0
   46.7860   30.6600   48.1160 C   0  0  0  0  0  0  0  0  0  0  0  0
   47.4130   30.8780   46.8930 C   0  0  0  0  0  0  0  0  0  0  0  0
   47.0120   31.9360   46.1200 N   0  0  0  0  0  0  0  0  0  0  0  0
   46.0180   32.7750   46.5200 C   0  0  0  0  0  0  0  0  0  0  0  0
   45.4160   32.5910   47.6620 N   0  0  0  0  0  0  0  0  0  0  0  0
   44.4620   34.2890   40.5890 C   0  0  0  0  0  0  0  0  0  0  0  0
   44.2040   33.2190   39.5850 C   0  0  0  0  0  0  0  0  0  0  0  0
   42.9000   32.5000   39.8610 C   0  0  0  0  0  0  0  0  0  0  0  0
   41.7280   33.3830   40.0830 C   0  0  0  0  0  0  0  0  0  0  0  0
   41.9870   34.5350   41.0230 C   0  0  0  0  0  0  0  0  0  0  0  0
   43.3000   35.2470   40.6510 C   0  0  0  0  0  0  0  0  0  0  0  0
   46.2092   36.0710   41.9820 H   0  0  0  0  0  0  0  0  0  0  0  0
   48.3820   35.2727   43.1788 H   0  0  0  0  0  0  0  0  0  0  0  0
   48.1271   33.6464   42.5602 H   0  0  0  0  0  0  0  0  0  0  0  0
   48.1505   36.1676   40.7525 H   0  0  0  0  0  0  0  0  0  0  0  0
   49.6098   35.1979   41.0373 H   0  0  0  0  0  0  0  0  0  0  0  0
   48.7377   33.3239   39.9785 H   0  0  0  0  0  0  0  0  0  0  0  0
   47.9961   34.7208   39.0291 H   0  0  0  0  0  0  0  0  0  0  0  0
   46.1962   33.4875   39.2129 H   0  0  0  0  0  0  0  0  0  0  0  0
   46.7685   32.6815   40.7361 H   0  0  0  0  0  0  0  0  0  0  0  0
   45.5973   35.6798   41.1136 H   0  0  0  0  0  0  0  0  0  0  0  0
   44.3531   34.7905   47.0347 H   0  0  0  0  0  0  0  0  0  0  0  0
   43.6169   36.6270   45.5218 H   0  0  0  0  0  0  0  0  0  0  0  0
   44.6274   36.6312   43.2164 H   0  0  0  0  0  0  0  0  0  0  0  0
   45.2632   31.4190   49.4163 H   0  0  0  0  0  0  0  0  0  0  0  0
   47.0692   29.8255   48.7743 H   0  0  0  0  0  0  0  0  0  0  0  0
   48.2185   30.2110   46.5519 H   0  0  0  0  0  0  0  0  0  0  0  0
   44.5348   33.8581   41.5985 H   0  0  0  0  0  0  0  0  0  0  0  0
   45.0277   32.4907   39.6194 H   0  0  0  0  0  0  0  0  0  0  0  0
   44.1358   33.6874   38.5920 H   0  0  0  0  0  0  0  0  0  0  0  0
   42.6797   31.8516   39.0001 H   0  0  0  0  0  0  0  0  0  0  0  0
   43.0485   31.9468   40.8001 H   0  0  0  0  0  0  0  0  0  0  0  0
   41.4178   33.7945   39.1112 H   0  0  0  0  0  0  0  0  0  0  0  0
   40.9506   32.7623   40.5524 H   0  0  0  0  0  0  0  0  0  0  0  0
   41.1549   35.2513   40.9562 H   0  0  0  0  0  0  0  0  0  0  0  0
   42.0702   34.1465   42.0487 H   0  0  0  0  0  0  0  0  0  0  0  0
   43.5137   36.0165   41.4074 H   0  0  0  0  0  0  0  0  0  0  0  0
   43.1740   35.6944   39.6540 H   0  0  0  0  0  0  0  0  0  0  0  0
  1  2  1  0
  1 11  1  0
  3  2  1  0
  4  5  1  0
  4  3  1  0
  5  6  1  0
  6  1  1  0
  7  8  2  0
  7 17  1  0
  9  8  1  0
 10  9  2  0
 11 10  1  0
 11 12  2  0
 12  7  1  0
 14 13  2  0
 15 14  1  0
 16 17  1  0
 16 15  2  0
 17 18  2  0
 18 13  1  0
 19 24  1  0
 19  6  1  0
 20 21  1  0
 20 19  1  0
 21 22  1  0
 22 23  1  0
 24 23  1  0
  1 25  1  6
  2 26  1  0
  2 27  1  0
  3 28  1  0
  3 29  1  0
  4 30  1  0
  4 31  1  0
  5 32  1  0
  5 33  1  0
  6 34  1  6
  8 35  1  0
  9 36  1  0
 10 37  1  0
 13 38  1  0
 14 39  1  0
 15 40  1  0
 19 41  1  0
 20 42  1  0
 20 43  1  0
 21 44  1  0
 21 45  1  0
 22 46  1  0
 22 47  1  0
 23 48  1  0
 23 49  1  0
 24 50  1  0
 24 51  1  0
M  ISO  8  25  13  26  13  27  13  28  13  29  13  30  13  31  13  32  13
M  ISO  8  33  13  34  13  35  14  36  14  37  14  38  14  39  14  40  14
M  ISO  8  41  13  42  13  43  13  44  13  45  13  46  13  47  13  48  13
M  ISO  3  49  13  50  13  51  13
M  END
>  <minimizedAffinity>  (1) 
-6.94651842

>  <minimizedRMSD>  (1) 
5.82525063

$$$$
