
     RDKit          3D

 37 39  0  0  1  0  0  0  0  0999 V2000
   46.6580   32.9490   38.7100 C   0  0  1  0  0  0  0  0  0  0  0  0
   45.1320   33.0910   38.4990 C   0  0  0  0  0  0  0  0  0  0  0  0
   44.7830   31.8570   37.6490 C   0  0  0  0  0  0  0  0  0  0  0  0
   45.3610   32.1160   36.2870 C   0  0  0  0  0  0  0  0  0  0  0  0
   46.8260   32.3580   36.3060 C   0  0  0  0  0  0  0  0  0  0  0  0
   47.3610   33.1510   37.4360 C   0  0  1  0  0  0  0  0  0  0  0  0
   46.8950   34.7250   41.9410 C   0  0  0  0  0  0  0  0  0  0  0  0
   48.0530   35.4270   41.7640 C   0  0  0  0  0  0  0  0  0  0  0  0
   48.8330   35.3890   40.6320 C   0  0  0  0  0  0  0  0  0  0  0  0
   48.3290   34.5420   39.6370 C   0  0  0  0  0  0  0  0  0  0  0  0
   47.1330   33.8040   39.7930 C   0  0  0  0  0  0  0  0  0  0  0  0
   46.4460   33.9170   40.9500 N   0  0  0  0  0  0  0  0  0  0  0  0
   45.5610   34.0640   45.2870 C   0  0  0  0  0  0  0  0  0  0  0  0
   44.6890   35.1180   45.5150 C   0  0  0  0  0  0  0  0  0  0  0  0
   44.5650   36.0660   44.4980 C   0  0  0  0  0  0  0  0  0  0  0  0
   45.3020   35.9020   43.3470 N   0  0  0  0  0  0  0  0  0  0  0  0
   46.1390   34.8430   43.1890 C   0  0  0  0  0  0  0  0  0  0  0  0
   46.2680   33.9400   44.1380 N   0  0  0  0  0  0  0  0  0  0  0  0
   47.3760   34.5880   37.1100 N   0  0  0  0  0  0  0  0  0  0  0  0
   46.8872   31.9245   39.0386 H   0  0  0  0  0  0  0  0  0  0  0  0
   44.5968   33.0732   39.4599 H   0  0  0  0  0  0  0  0  0  0  0  0
   44.8472   34.0403   38.0218 H   0  0  0  0  0  0  0  0  0  0  0  0
   45.2288   30.9521   38.0877 H   0  0  0  0  0  0  0  0  0  0  0  0
   43.6961   31.6947   37.6014 H   0  0  0  0  0  0  0  0  0  0  0  0
   44.8666   33.0013   35.8607 H   0  0  0  0  0  0  0  0  0  0  0  0
   45.1881   31.2130   35.6831 H   0  0  0  0  0  0  0  0  0  0  0  0
   47.3242   31.3775   36.3233 H   0  0  0  0  0  0  0  0  0  0  0  0
   47.0273   32.9643   35.4105 H   0  0  0  0  0  0  0  0  0  0  0  0
   48.3856   32.7780   37.5808 H   0  0  0  0  0  0  0  0  0  0  0  0
   48.3873   36.0721   42.5899 H   0  0  0  0  0  0  0  0  0  0  0  0
   49.7619   35.9673   40.5191 H   0  0  0  0  0  0  0  0  0  0  0  0
   48.8873   34.4468   38.6940 H   0  0  0  0  0  0  0  0  0  0  0  0
   45.6832   33.2998   46.0687 H   0  0  0  0  0  0  0  0  0  0  0  0
   44.1215   35.2030   46.4535 H   0  0  0  0  0  0  0  0  0  0  0  0
   43.8912   36.9277   44.6141 H   0  0  0  0  0  0  0  0  0  0  0  0
   47.3817   35.1376   37.9811 H   0  0  0  0  0  0  0  0  0  0  0  0
   48.2193   34.8066   36.5605 H   0  0  0  0  0  0  0  0  0  0  0  0
  1 11  1  0
  2  1  1  0
  3  2  1  0
  4  5  1  0
  4  3  1  0
  5  6  1  0
  6  1  1  0
  7 17  1  0
  8  7  2  0
  9  8  1  0
 10 11  1  0
 10  9  2  0
 11 12  2  0
 12  7  1  0
 13 14  2  0
 15 14  1  0
 16 15  2  0
 17 16  1  0
 17 18  2  0
 18 13  1  0
 19  6  1  0
  1 20  1  1
  2 21  1  0
  2 22  1  0
  3 23  1  0
  3 24  1  0
  4 25  1  0
  4 26  1  0
  5 27  1  0
  5 28  1  0
  6 29  1  1
  8 30  1  0
  9 31  1  0
 10 32  1  0
 13 33  1  0
 14 34  1  0
 15 35  1  0
 19 36  1  0
 19 37  1  0
M  ISO  8  20  13  21  13  22  13  23  13  24  13  25  13  26  13  27  13
M  ISO  8  28  13  29  13  30  14  31  14  32  14  33  14  34  14  35  14
M  ISO  2  36   5  37   5
M  END
>  <minimizedAffinity>  (1) 
-5.94511557

>  <minimizedRMSD>  (1) 
0.210864797

$$$$
