
     RDKit          3D

 42 45  0  0  1  0  0  0  0  0999 V2000
   47.1070   33.0000   41.4820 C   0  0  1  0  0  0  0  0  0  0  0  0
   46.5160   31.6220   41.1190 C   0  0  0  0  0  0  0  0  0  0  0  0
   47.6760   30.6560   41.1920 C   0  0  0  0  0  0  0  0  0  0  0  0
   48.6780   31.0250   40.1280 C   0  0  0  0  0  0  0  0  0  0  0  0
   49.2000   32.4120   40.3740 C   0  0  0  0  0  0  0  0  0  0  0  0
   48.0900   33.4330   40.4760 C   0  0  1  0  0  0  0  0  0  0  0  0
   43.8640   34.7260   41.6860 C   0  0  0  0  0  0  0  0  0  0  0  0
   44.2130   35.8200   42.4370 C   0  0  0  0  0  0  0  0  0  0  0  0
   45.4840   36.0750   42.9260 C   0  0  0  0  0  0  0  0  0  0  0  0
   46.4180   35.0940   42.5800 C   0  0  0  0  0  0  0  0  0  0  0  0
   46.0820   33.9720   41.8160 C   0  0  0  0  0  0  0  0  0  0  0  0
   44.8080   33.8120   41.3840 N   0  0  0  0  0  0  0  0  0  0  0  0
   40.7600   33.2370   40.4430 C   0  0  0  0  0  0  0  0  0  0  0  0
   39.8870   34.3100   40.3540 C   0  0  0  0  0  0  0  0  0  0  0  0
   40.3840   35.5550   40.7290 C   0  0  0  0  0  0  0  0  0  0  0  0
   41.6900   35.6520   41.1590 N   0  0  0  0  0  0  0  0  0  0  0  0
   42.4910   34.5570   41.2220 C   0  0  0  0  0  0  0  0  0  0  0  0
   42.0400   33.3700   40.8720 N   0  0  0  0  0  0  0  0  0  0  0  0
   47.5800   33.6030   39.0970 C   0  0  0  0  0  0  0  0  0  0  0  0
   48.1820   34.3610   38.0830 C   0  0  0  0  0  0  0  0  0  0  0  0
   47.4890   34.3250   36.9350 N   0  0  0  0  0  0  0  0  0  0  0  0
   46.4340   33.5400   37.2040 C   0  0  0  0  0  0  0  0  0  0  0  0
   46.5100   33.1290   38.4790 N   0  0  0  0  0  0  0  0  0  0  0  0
   47.6788   32.9042   42.4168 H   0  0  0  0  0  0  0  0  0  0  0  0
   46.0934   31.6399   40.1036 H   0  0  0  0  0  0  0  0  0  0  0  0
   45.7008   31.3345   41.7992 H   0  0  0  0  0  0  0  0  0  0  0  0
   48.1484   30.7187   42.1834 H   0  0  0  0  0  0  0  0  0  0  0  0
   47.3191   29.6280   41.0313 H   0  0  0  0  0  0  0  0  0  0  0  0
   48.1925   30.9879   39.1416 H   0  0  0  0  0  0  0  0  0  0  0  0
   49.5158   30.3129   40.1579 H   0  0  0  0  0  0  0  0  0  0  0  0
   49.7698   32.4138   41.3149 H   0  0  0  0  0  0  0  0  0  0  0  0
   49.8347   32.6892   39.5194 H   0  0  0  0  0  0  0  0  0  0  0  0
   48.4112   34.4199   40.8404 H   0  0  0  0  0  0  0  0  0  0  0  0
   43.4236   36.5502   42.6685 H   0  0  0  0  0  0  0  0  0  0  0  0
   45.7336   36.9618   43.5271 H   0  0  0  0  0  0  0  0  0  0  0  0
   47.4572   35.2091   42.9219 H   0  0  0  0  0  0  0  0  0  0  0  0
   40.4006   32.2382   40.1544 H   0  0  0  0  0  0  0  0  0  0  0  0
   38.8518   34.1838   40.0041 H   0  0  0  0  0  0  0  0  0  0  0  0
   39.7439   36.4484   40.6829 H   0  0  0  0  0  0  0  0  0  0  0  0
   49.1185   34.9229   38.2141 H   0  0  0  0  0  0  0  0  0  0  0  0
   47.7156   34.7944   36.0466 H   0  0  0  0  0  0  0  0  0  0  0  0
   45.6362   33.2763   36.4941 H   0  0  0  0  0  0  0  0  0  0  0  0
  1 11  1  0
  2  3  1  0
  2  1  1  0
  4  5  1  0
  4  3  1  0
  5  6  1  0
  6  1  1  0
  7  8  2  0
  8  9  1  0
 10  9  2  0
 11 10  1  0
 12  7  1  0
 12 11  2  0
 13 18  2  0
 14 13  1  0
 14 15  2  0
 15 16  1  0
 16 17  2  0
 17  7  1  0
 18 17  1  0
 19  6  1  0
 20 19  2  0
 21 22  1  0
 21 20  1  0
 22 23  2  0
 23 19  1  0
  1 24  1  1
  2 25  1  0
  2 26  1  0
  3 27  1  0
  3 28  1  0
  4 29  1  0
  4 30  1  0
  5 31  1  0
  5 32  1  0
  6 33  1  1
  8 34  1  0
  9 35  1  0
 10 36  1  0
 13 37  1  0
 14 38  1  0
 15 39  1  0
 20 40  1  0
 21 41  1  0
 22 42  1  0
M  ISO  8  24  13  25  13  26  13  27  13  28  13  29  13  30  13  31  13
M  ISO  8  32  13  33  13  34  14  35  14  36  14  37  14  38  14  39  14
M  ISO  3  40  14  41   9  42  14
M  END
>  <minimizedAffinity>  (1) 
-5.52749157

>  <minimizedRMSD>  (1) 
4.16778994

$$$$
