
     RDKit          3D

 38 40  0  0  1  0  0  0  0  0999 V2000
   46.9730   34.7350   42.1010 C   0  0  0  0  0  0  0  0  0  0  0  0
   48.0800   35.5160   41.9360 C   0  0  0  0  0  0  0  0  0  0  0  0
   48.8850   35.5270   40.8080 C   0  0  0  0  0  0  0  0  0  0  0  0
   48.4680   34.6500   39.8100 C   0  0  0  0  0  0  0  0  0  0  0  0
   47.3220   33.8320   39.9640 C   0  0  0  0  0  0  0  0  0  0  0  0
   46.6000   33.8930   41.1040 N   0  0  0  0  0  0  0  0  0  0  0  0
   46.9170   32.9340   38.8730 C   0  0  1  0  0  0  0  0  0  0  0  0
   45.4660   33.2130   38.4120 C   0  0  0  0  0  0  0  0  0  0  0  0
   45.1050   31.9580   37.5990 C   0  0  0  0  0  0  0  0  0  0  0  0
   45.9230   32.0210   36.3380 C   0  0  0  0  0  0  0  0  0  0  0  0
   47.3840   32.0620   36.6060 C   0  0  0  0  0  0  0  0  0  0  0  0
   47.8200   32.9610   37.7120 C   0  0  1  0  0  0  0  0  0  0  0  0
   47.9810   34.3810   37.1620 C   0  0  0  0  0  0  0  0  0  0  0  0
   45.5890   33.9770   45.4030 C   0  0  0  0  0  0  0  0  0  0  0  0
   44.6760   35.0000   45.6250 C   0  0  0  0  0  0  0  0  0  0  0  0
   44.5450   35.9610   44.6130 C   0  0  0  0  0  0  0  0  0  0  0  0
   45.3130   35.8320   43.4860 N   0  0  0  0  0  0  0  0  0  0  0  0
   46.1900   34.8050   43.3290 C   0  0  0  0  0  0  0  0  0  0  0  0
   46.3290   33.8920   44.2670 N   0  0  0  0  0  0  0  0  0  0  0  0
   48.3544   36.1886   42.7620 H   0  0  0  0  0  0  0  0  0  0  0  0
   49.7723   36.1698   40.7100 H   0  0  0  0  0  0  0  0  0  0  0  0
   49.0451   34.5908   38.8754 H   0  0  0  0  0  0  0  0  0  0  0  0
   46.9770   31.9235   39.3035 H   0  0  0  0  0  0  0  0  0  0  0  0
   44.7941   33.3301   39.2750 H   0  0  0  0  0  0  0  0  0  0  0  0
   45.3699   34.1432   37.8328 H   0  0  0  0  0  0  0  0  0  0  0  0
   45.3534   31.0506   38.1690 H   0  0  0  0  0  0  0  0  0  0  0  0
   44.0285   31.9228   37.3755 H   0  0  0  0  0  0  0  0  0  0  0  0
   45.6416   32.9265   35.7804 H   0  0  0  0  0  0  0  0  0  0  0  0
   45.7157   31.1080   35.7605 H   0  0  0  0  0  0  0  0  0  0  0  0
   47.7095   31.0410   36.8540 H   0  0  0  0  0  0  0  0  0  0  0  0
   47.8418   32.4710   35.6932 H   0  0  0  0  0  0  0  0  0  0  0  0
   48.7858   32.5924   38.0881 H   0  0  0  0  0  0  0  0  0  0  0  0
   48.0615   35.0911   37.9982 H   0  0  0  0  0  0  0  0  0  0  0  0
   48.8910   34.4348   36.5464 H   0  0  0  0  0  0  0  0  0  0  0  0
   47.1061   34.6371   36.5464 H   0  0  0  0  0  0  0  0  0  0  0  0
   45.7178   33.2060   46.1769 H   0  0  0  0  0  0  0  0  0  0  0  0
   44.0841   35.0534   46.5506 H   0  0  0  0  0  0  0  0  0  0  0  0
   43.8415   36.7997   44.7213 H   0  0  0  0  0  0  0  0  0  0  0  0
  1 18  1  0
  2  1  2  0
  3  2  1  0
  4  5  1  0
  4  3  2  0
  5  6  2  0
  6  1  1  0
  7  5  1  0
  8  7  1  0
  9  8  1  0
 10 11  1  0
 10  9  1  0
 11 12  1  0
 12  7  1  0
 13 12  1  0
 14 15  2  0
 16 15  1  0
 17 16  2  0
 18 17  1  0
 18 19  2  0
 19 14  1  0
  2 20  1  0
  3 21  1  0
  4 22  1  0
  7 23  1  1
  8 24  1  0
  8 25  1  0
  9 26  1  0
  9 27  1  0
 10 28  1  0
 10 29  1  0
 11 30  1  0
 11 31  1  0
 12 32  1  1
 13 33  1  0
 13 34  1  0
 13 35  1  0
 14 36  1  0
 15 37  1  0
 16 38  1  0
M  ISO  8  20  14  21  14  22  14  23  13  24  13  25  13  26  13  27  13
M  ISO  8  28  13  29  13  30  13  31  13  32  13  33   8  34   8  35   8
M  ISO  3  36  14  37  14  38  14
M  END
>  <minimizedAffinity>  (1) 
-5.4829731

>  <minimizedRMSD>  (1) 
0.433888376

$$$$
