
     RDKit          3D

 47 50  0  0  1  0  0  0  0  0999 V2000
   46.5020   32.6210   38.9780 C   0  0  1  0  0  0  0  0  0  0  0  0
   46.0060   31.2760   39.5160 C   0  0  0  0  0  0  0  0  0  0  0  0
   46.1750   30.3110   38.3620 C   0  0  0  0  0  0  0  0  0  0  0  0
   45.3150   30.7400   37.2180 C   0  0  0  0  0  0  0  0  0  0  0  0
   45.4270   32.1800   36.8790 C   0  0  0  0  0  0  0  0  0  0  0  0
   45.4050   33.1150   38.0770 C   0  0  1  0  0  0  0  0  0  0  0  0
   46.7150   34.5640   42.1060 C   0  0  0  0  0  0  0  0  0  0  0  0
   47.8240   35.3180   41.8180 C   0  0  0  0  0  0  0  0  0  0  0  0
   48.5410   35.2430   40.6440 C   0  0  0  0  0  0  0  0  0  0  0  0
   48.0520   34.3180   39.7310 C   0  0  0  0  0  0  0  0  0  0  0  0
   46.9210   33.5400   40.0030 C   0  0  0  0  0  0  0  0  0  0  0  0
   46.2930   33.6920   41.1850 N   0  0  0  0  0  0  0  0  0  0  0  0
   45.5940   33.9090   45.5330 C   0  0  0  0  0  0  0  0  0  0  0  0
   44.7060   34.9710   45.7880 C   0  0  0  0  0  0  0  0  0  0  0  0
   44.5150   35.9010   44.7520 C   0  0  0  0  0  0  0  0  0  0  0  0
   45.1880   35.7340   43.5660 N   0  0  0  0  0  0  0  0  0  0  0  0
   46.0210   34.7020   43.3830 C   0  0  0  0  0  0  0  0  0  0  0  0
   46.2270   33.7980   44.3460 N   0  0  0  0  0  0  0  0  0  0  0  0
   44.1710   33.0340   38.7700 N   0  0  0  0  0  0  0  0  0  0  0  0
   43.7260   34.1560   39.5000 C   0  0  0  0  0  0  0  0  0  0  0  0
   42.3280   33.7360   39.9940 C   0  0  0  0  0  0  0  0  0  0  0  0
   41.8000   33.0330   38.7740 C   0  0  0  0  0  0  0  0  0  0  0  0
   43.0680   32.3960   38.1860 C   0  0  0  0  0  0  0  0  0  0  0  0
   47.4370   32.5120   38.4088 H   0  0  0  0  0  0  0  0  0  0  0  0
   46.6095   30.9576   40.3788 H   0  0  0  0  0  0  0  0  0  0  0  0
   44.9640   31.3274   39.8647 H   0  0  0  0  0  0  0  0  0  0  0  0
   47.2281   30.3013   38.0445 H   0  0  0  0  0  0  0  0  0  0  0  0
   45.8774   29.3021   38.6837 H   0  0  0  0  0  0  0  0  0  0  0  0
   45.6016   30.1539   36.3324 H   0  0  0  0  0  0  0  0  0  0  0  0
   44.2727   30.5677   37.5244 H   0  0  0  0  0  0  0  0  0  0  0  0
   46.3743   32.3333   36.3413 H   0  0  0  0  0  0  0  0  0  0  0  0
   44.5426   32.4277   36.2736 H   0  0  0  0  0  0  0  0  0  0  0  0
   45.5369   34.1611   37.7634 H   0  0  0  0  0  0  0  0  0  0  0  0
   48.1656   36.0345   42.5796 H   0  0  0  0  0  0  0  0  0  0  0  0
   49.4271   35.8641   40.4463 H   0  0  0  0  0  0  0  0  0  0  0  0
   48.5678   34.1934   38.7675 H   0  0  0  0  0  0  0  0  0  0  0  0
   45.7752   33.1565   46.3146 H   0  0  0  0  0  0  0  0  0  0  0  0
   44.1862   35.0683   46.7525 H   0  0  0  0  0  0  0  0  0  0  0  0
   43.8338   36.7537   44.8892 H   0  0  0  0  0  0  0  0  0  0  0  0
   44.3958   34.3640   40.3474 H   0  0  0  0  0  0  0  0  0  0  0  0
   43.7080   35.0771   38.8990 H   0  0  0  0  0  0  0  0  0  0  0  0
   42.3903   33.0574   40.8575 H   0  0  0  0  0  0  0  0  0  0  0  0
   41.7008   34.5670   40.3490 H   0  0  0  0  0  0  0  0  0  0  0  0
   41.0590   32.2668   39.0457 H   0  0  0  0  0  0  0  0  0  0  0  0
   41.2781   33.7011   38.0731 H   0  0  0  0  0  0  0  0  0  0  0  0
   43.0874   32.5364   37.0952 H   0  0  0  0  0  0  0  0  0  0  0  0
   43.0907   31.3161   38.3941 H   0  0  0  0  0  0  0  0  0  0  0  0
  1  2  1  0
  1 11  1  0
  3  2  1  0
  4  3  1  0
  5  4  1  0
  5  6  1  0
  6 19  1  0
  6  1  1  0
  7 17  1  0
  8  7  2  0
  9  8  1  0
 10 11  1  0
 10  9  2  0
 11 12  2  0
 12  7  1  0
 13 14  2  0
 15 14  1  0
 16 15  2  0
 17 16  1  0
 17 18  2  0
 18 13  1  0
 19 20  1  0
 20 21  1  0
 22 21  1  0
 23 19  1  0
 23 22  1  0
  1 24  1  6
  2 25  1  0
  2 26  1  0
  3 27  1  0
  3 28  1  0
  4 29  1  0
  4 30  1  0
  5 31  1  0
  5 32  1  0
  6 33  1  6
  8 34  1  0
  9 35  1  0
 10 36  1  0
 13 37  1  0
 14 38  1  0
 15 39  1  0
 20 40  1  0
 20 41  1  0
 21 42  1  0
 21 43  1  0
 22 44  1  0
 22 45  1  0
 23 46  1  0
 23 47  1  0
M  ISO  8  24  13  25  13  26  13  27  13  28  13  29  13  30  13  31  13
M  ISO  8  32  13  33  13  34  14  35  14  36  14  37  14  38  14  39  14
M  ISO  8  40  13  41  13  42  13  43  13  44  13  45  13  46  13  47  13
M  END
>  <minimizedAffinity>  (1) 
-5.39444828

>  <minimizedRMSD>  (1) 
2.25978708

$$$$
