
     RDKit          3D

 39 41  0  0  1  0  0  0  0  0999 V2000
   46.4990   32.9940   38.7610 C   0  0  1  0  0  0  0  0  0  0  0  0
   46.6920   31.4890   39.0250 C   0  0  0  0  0  0  0  0  0  0  0  0
   46.4880   30.8150   37.6890 C   0  0  0  0  0  0  0  0  0  0  0  0
   45.0530   31.0010   37.2730 C   0  0  0  0  0  0  0  0  0  0  0  0
   44.7110   32.4580   37.1540 C   0  0  0  0  0  0  0  0  0  0  0  0
   45.1060   33.2670   38.3640 C   0  0  1  0  0  0  0  0  0  0  0  0
   46.8130   34.6710   42.0210 C   0  0  0  0  0  0  0  0  0  0  0  0
   47.9730   35.3710   41.8350 C   0  0  0  0  0  0  0  0  0  0  0  0
   48.7280   35.3540   40.6730 C   0  0  0  0  0  0  0  0  0  0  0  0
   48.1970   34.5400   39.6710 C   0  0  0  0  0  0  0  0  0  0  0  0
   46.9990   33.8120   39.8500 C   0  0  0  0  0  0  0  0  0  0  0  0
   46.3300   33.8930   41.0290 N   0  0  0  0  0  0  0  0  0  0  0  0
   45.5880   33.9780   45.4060 C   0  0  0  0  0  0  0  0  0  0  0  0
   44.7060   35.0350   45.6560 C   0  0  0  0  0  0  0  0  0  0  0  0
   44.5460   35.9790   44.6450 C   0  0  0  0  0  0  0  0  0  0  0  0
   45.2520   35.8180   43.4810 N   0  0  0  0  0  0  0  0  0  0  0  0
   46.0960   34.7690   43.2940 C   0  0  0  0  0  0  0  0  0  0  0  0
   46.2660   33.8620   44.2340 N   0  0  0  0  0  0  0  0  0  0  0  0
   42.9580   33.6560   39.9020 C   0  0  0  0  0  0  0  0  0  0  0  0
   42.6800   34.7850   39.4290 O   0  0  0  0  0  0  0  0  0  0  0  0
   44.0980   33.0020   39.3610 N   0  0  0  0  0  0  0  0  0  0  0  0
   47.1220   33.2932   37.9052 H   0  0  0  0  0  0  0  0  0  0  0  0
   47.7057   31.2922   39.4040 H   0  0  0  0  0  0  0  0  0  0  0  0
   45.9880   31.1142   39.7826 H   0  0  0  0  0  0  0  0  0  0  0  0
   47.1532   31.2685   36.9394 H   0  0  0  0  0  0  0  0  0  0  0  0
   46.7209   29.7429   37.7688 H   0  0  0  0  0  0  0  0  0  0  0  0
   44.8948   30.5139   36.2995 H   0  0  0  0  0  0  0  0  0  0  0  0
   44.4051   30.5508   38.0395 H   0  0  0  0  0  0  0  0  0  0  0  0
   45.2314   32.8676   36.2757 H   0  0  0  0  0  0  0  0  0  0  0  0
   43.6173   32.5281   37.0596 H   0  0  0  0  0  0  0  0  0  0  0  0
   45.1248   34.3504   38.1746 H   0  0  0  0  0  0  0  0  0  0  0  0
   48.3329   35.9926   42.6681 H   0  0  0  0  0  0  0  0  0  0  0  0
   49.6584   35.9281   40.5517 H   0  0  0  0  0  0  0  0  0  0  0  0
   48.7283   34.4627   38.7109 H   0  0  0  0  0  0  0  0  0  0  0  0
   45.7376   33.2152   46.1843 H   0  0  0  0  0  0  0  0  0  0  0  0
   44.1630   35.1166   46.6091 H   0  0  0  0  0  0  0  0  0  0  0  0
   43.8680   36.8351   44.7774 H   0  0  0  0  0  0  0  0  0  0  0  0
   42.3501   33.1961   40.6951 H   0  0  0  0  0  0  0  0  0  0  0  0
   44.2452   32.0838   39.8039 H   0  0  0  0  0  0  0  0  0  0  0  0
  1  2  1  0
  1 11  1  0
  3  2  1  0
  4  3  1  0
  5  4  1  0
  5  6  1  0
  6  1  1  0
  6 21  1  0
  7 17  1  0
  8  7  2  0
  9  8  1  0
 10 11  1  0
 10  9  2  0
 11 12  2  0
 12  7  1  0
 13 14  2  0
 15 14  1  0
 16 15  2  0
 17 16  1  0
 17 18  2  0
 18 13  1  0
 20 19  2  0
 21 19  1  0
  1 22  1  6
  2 23  1  0
  2 24  1  0
  3 25  1  0
  3 26  1  0
  4 27  1  0
  4 28  1  0
  5 29  1  0
  5 30  1  0
  6 31  1  6
  8 32  1  0
  9 33  1  0
 10 34  1  0
 13 35  1  0
 14 36  1  0
 15 37  1  0
 19 38  1  0
 21 39  1  0
M  ISO  8  22  13  23  13  24  13  25  13  26  13  27  13  28  13  29  13
M  ISO  8  30  13  31  13  32  14  33  14  34  14  35  14  36  14  37  14
M  ISO  1  38   6
M  END
>  <minimizedAffinity>  (1) 
-5.35108852

>  <minimizedRMSD>  (1) 
2.38987732

$$$$
