
     RDKit          3D

 54 57  0  0  1  0  0  0  0  0999 V2000
   47.3020   33.9970   42.5580 C   0  0  0  0  0  0  0  0  0  0  0  0
   48.1770   35.0470   42.4230 C   0  0  0  0  0  0  0  0  0  0  0  0
   48.6780   35.4830   41.2090 C   0  0  0  0  0  0  0  0  0  0  0  0
   48.2140   34.7560   40.1010 C   0  0  0  0  0  0  0  0  0  0  0  0
   47.3200   33.6840   40.2400 C   0  0  0  0  0  0  0  0  0  0  0  0
   46.8740   33.3140   41.4540 N   0  0  0  0  0  0  0  0  0  0  0  0
   46.8640   32.9860   39.0450 C   0  0  1  0  0  0  0  0  0  0  0  0
   45.3430   33.3190   38.7520 C   0  0  0  0  0  0  0  0  0  0  0  0
   44.9540   32.1660   37.7790 C   0  0  0  0  0  0  0  0  0  0  0  0
   45.6140   32.5910   36.4670 C   0  0  0  0  0  0  0  0  0  0  0  0
   47.0950   32.5830   36.5970 C   0  0  0  0  0  0  0  0  0  0  0  0
   47.6570   33.1180   37.8590 C   0  0  2  0  0  0  0  0  0  0  0  0
   49.1990   32.1880   38.1560 S   0  0  0  0  0  0  0  0  0  0  0  0
   46.7260   32.2340   45.7070 C   0  0  0  0  0  0  0  0  0  0  0  0
   45.7740   33.0220   46.3600 C   0  0  0  0  0  0  0  0  0  0  0  0
   45.3600   34.1440   45.6960 C   0  0  0  0  0  0  0  0  0  0  0  0
   45.8830   34.4190   44.4690 N   0  0  0  0  0  0  0  0  0  0  0  0
   46.8200   33.6060   43.8700 C   0  0  0  0  0  0  0  0  0  0  0  0
   47.2190   32.5490   44.4860 N   0  0  0  0  0  0  0  0  0  0  0  0
   44.4340   35.0440   46.2000 N   0  0  0  0  0  0  0  0  0  0  0  0
   45.3170   32.5500   47.6850 C   0  0  0  0  0  0  0  0  0  0  0  0
   46.3790   32.7760   48.7330 C   0  0  0  0  0  0  0  0  0  0  0  0
   47.4270   31.7000   48.7930 C   0  0  0  0  0  0  0  0  0  0  0  0
   46.8160   30.3350   49.0080 C   0  0  0  0  0  0  0  0  0  0  0  0
   45.3020   30.4190   48.9900 C   0  0  0  0  0  0  0  0  0  0  0  0
   44.8170   31.1680   47.7760 C   0  0  0  0  0  0  0  0  0  0  0  0
   48.4987   35.5727   43.3341 H   0  0  0  0  0  0  0  0  0  0  0  0
   49.3790   36.3260   41.1197 H   0  0  0  0  0  0  0  0  0  0  0  0
   48.5614   35.0350   39.0953 H   0  0  0  0  0  0  0  0  0  0  0  0
   46.9911   31.9251   39.3065 H   0  0  0  0  0  0  0  0  0  0  0  0
   44.7407   33.2888   39.6719 H   0  0  0  0  0  0  0  0  0  0  0  0
   45.1753   34.3264   38.3432 H   0  0  0  0  0  0  0  0  0  0  0  0
   45.3519   31.2018   38.1283 H   0  0  0  0  0  0  0  0  0  0  0  0
   43.8674   32.0186   37.6916 H   0  0  0  0  0  0  0  0  0  0  0  0
   45.2798   33.6062   36.2070 H   0  0  0  0  0  0  0  0  0  0  0  0
   45.3243   31.8803   35.6790 H   0  0  0  0  0  0  0  0  0  0  0  0
   47.4323   31.5407   36.4979 H   0  0  0  0  0  0  0  0  0  0  0  0
   47.4570   33.2611   35.8101 H   0  0  0  0  0  0  0  0  0  0  0  0
   47.7560   34.2024   37.7029 H   0  0  0  0  0  0  0  0  0  0  0  0
   49.4048   32.0639   39.5047 H   0  0  0  0  0  0  0  0  0  0  0  0
   47.0888   31.3225   46.2045 H   0  0  0  0  0  0  0  0  0  0  0  0
   44.1655   35.8705   45.6472 H   0  0  0  0  0  0  0  0  0  0  0  0
   44.0144   34.8862   47.1273 H   0  0  0  0  0  0  0  0  0  0  0  0
   44.4276   33.1705   47.8695 H   0  0  0  0  0  0  0  0  0  0  0  0
   46.8785   33.7319   48.5169 H   0  0  0  0  0  0  0  0  0  0  0  0
   45.8670   32.7721   49.7066 H   0  0  0  0  0  0  0  0  0  0  0  0
   47.9868   31.6947   47.8461 H   0  0  0  0  0  0  0  0  0  0  0  0
   48.0911   31.9157   49.6429 H   0  0  0  0  0  0  0  0  0  0  0  0
   47.1501   29.6592   48.2070 H   0  0  0  0  0  0  0  0  0  0  0  0
   47.1383   29.9526   49.9877 H   0  0  0  0  0  0  0  0  0  0  0  0
   44.8854   29.4010   48.9748 H   0  0  0  0  0  0  0  0  0  0  0  0
   44.9703   30.9578   49.8898 H   0  0  0  0  0  0  0  0  0  0  0  0
   43.7178   31.1992   47.8052 H   0  0  0  0  0  0  0  0  0  0  0  0
   45.2026   30.6317   46.8964 H   0  0  0  0  0  0  0  0  0  0  0  0
  1 18  1  0
  2  1  2  0
  3  2  1  0
  4  5  1  0
  4  3  2  0
  5  6  2  0
  6  1  1  0
  7  5  1  0
  8  7  1  0
  9  8  1  0
 10 11  1  0
 10  9  1  0
 11 12  1  0
 12 13  1  0
 12  7  1  0
 14 15  2  0
 15 21  1  0
 16 20  1  0
 16 15  1  0
 17 16  2  0
 18 17  1  0
 18 19  2  0
 19 14  1  0
 21 26  1  0
 21 22  1  0
 22 23  1  0
 23 24  1  0
 25 24  1  0
 26 25  1  0
  2 27  1  0
  3 28  1  0
  4 29  1  0
  7 30  1  1
  8 31  1  0
  8 32  1  0
  9 33  1  0
  9 34  1  0
 10 35  1  0
 10 36  1  0
 11 37  1  0
 11 38  1  0
 12 39  1  6
 13 40  1  0
 14 41  1  0
 20 42  1  0
 20 43  1  0
 21 44  1  0
 22 45  1  0
 22 46  1  0
 23 47  1  0
 23 48  1  0
 24 49  1  0
 24 50  1  0
 25 51  1  0
 25 52  1  0
 26 53  1  0
 26 54  1  0
M  ISO  8  27  14  28  14  29  14  30  13  31  13  32  13  33  13  34  13
M  ISO  8  35  13  36  13  37  13  38  13  39  13  40  11  41  14  44  13
M  ISO  8  45  13  46  13  47  13  48  13  49  13  50  13  51  13  52  13
M  ISO  2  53  13  54  13
M  END
>  <minimizedAffinity>  (1) 
-6.6678257

>  <minimizedRMSD>  (1) 
0.631141841

$$$$
