
     RDKit          3D

 51 54  0  0  1  0  0  0  0  0999 V2000
   47.8640   33.7250   41.9220 C   0  0  0  0  0  0  0  0  0  0  0  0
   48.3720   35.0240   41.9030 C   0  0  0  0  0  0  0  0  0  0  0  0
   48.7760   35.6750   40.7480 C   0  0  0  0  0  0  0  0  0  0  0  0
   48.6340   34.9130   39.5810 C   0  0  0  0  0  0  0  0  0  0  0  0
   48.1240   33.6060   39.6050 C   0  0  0  0  0  0  0  0  0  0  0  0
   47.7520   33.0410   40.7670 N   0  0  0  0  0  0  0  0  0  0  0  0
   47.9870   32.8790   38.3480 C   0  0  1  0  0  0  0  0  0  0  0  0
   46.7700   33.4500   37.5080 C   0  0  0  0  0  0  0  0  0  0  0  0
   46.5210   32.2930   36.5000 C   0  0  0  0  0  0  0  0  0  0  0  0
   47.6740   32.4380   35.5050 C   0  0  0  0  0  0  0  0  0  0  0  0
   48.9790   32.1920   36.1710 C   0  0  0  0  0  0  0  0  0  0  0  0
   49.1580   32.7400   37.5370 C   0  0  2  0  0  0  0  0  0  0  0  0
   50.2540   31.5700   38.4080 S   0  0  0  0  0  0  0  0  0  0  0  0
   47.5830   31.5500   44.8390 C   0  0  0  0  0  0  0  0  0  0  0  0
   46.5600   32.1170   45.5920 C   0  0  0  0  0  0  0  0  0  0  0  0
   45.9830   33.2560   45.0620 C   0  0  0  0  0  0  0  0  0  0  0  0
   46.4400   33.7400   43.8700 N   0  0  0  0  0  0  0  0  0  0  0  0
   47.4580   33.1260   43.1770 C   0  0  0  0  0  0  0  0  0  0  0  0
   48.0040   32.0660   43.6600 N   0  0  0  0  0  0  0  0  0  0  0  0
   44.9500   33.9630   45.6710 N   0  0  0  0  0  0  0  0  0  0  0  0
   45.4060   30.3970   47.0070 C   0  0  0  0  0  0  0  0  0  0  0  0
   46.0810   31.5920   46.8650 C   0  0  0  0  0  0  0  0  0  0  0  0
   46.3530   32.4000   47.9740 C   0  0  0  0  0  0  0  0  0  0  0  0
   45.9350   31.9790   49.2260 C   0  0  0  0  0  0  0  0  0  0  0  0
   45.2570   30.7820   49.3840 C   0  0  0  0  0  0  0  0  0  0  0  0
   45.0040   30.0070   48.2550 C   0  0  0  0  0  0  0  0  0  0  0  0
   45.1170   29.4640   45.5540 S   0  0  0  0  0  0  0  0  0  0  0  0
   43.7850   28.7610   45.7660 O   0  0  0  0  0  0  0  0  0  0  0  0
   46.1430   28.3540   45.4440 O   0  0  0  0  0  0  0  0  0  0  0  0
   48.4568   35.5621   42.8587 H   0  0  0  0  0  0  0  0  0  0  0  0
   49.1735   36.7007   40.7477 H   0  0  0  0  0  0  0  0  0  0  0  0
   48.9311   35.3523   38.6173 H   0  0  0  0  0  0  0  0  0  0  0  0
   47.7909   31.8447   38.6669 H   0  0  0  0  0  0  0  0  0  0  0  0
   45.8898   33.6256   38.1439 H   0  0  0  0  0  0  0  0  0  0  0  0
   46.9683   34.4230   37.0347 H   0  0  0  0  0  0  0  0  0  0  0  0
   46.5567   31.3163   37.0047 H   0  0  0  0  0  0  0  0  0  0  0  0
   45.5315   32.3441   36.0223 H   0  0  0  0  0  0  0  0  0  0  0  0
   47.6669   33.4569   35.0906 H   0  0  0  0  0  0  0  0  0  0  0  0
   47.5425   31.6975   34.7022 H   0  0  0  0  0  0  0  0  0  0  0  0
   49.1196   31.1027   36.2307 H   0  0  0  0  0  0  0  0  0  0  0  0
   49.7168   32.7251   35.5534 H   0  0  0  0  0  0  0  0  0  0  0  0
   49.5368   33.7635   37.3995 H   0  0  0  0  0  0  0  0  0  0  0  0
   50.1068   31.7272   39.7610 H   0  0  0  0  0  0  0  0  0  0  0  0
   48.0723   30.6409   45.2187 H   0  0  0  0  0  0  0  0  0  0  0  0
   44.5662   34.8054   45.2193 H   0  0  0  0  0  0  0  0  0  0  0  0
   44.5694   33.6437   46.5733 H   0  0  0  0  0  0  0  0  0  0  0  0
   46.8893   33.3529   47.8541 H   0  0  0  0  0  0  0  0  0  0  0  0
   46.1446   32.6041   50.1065 H   0  0  0  0  0  0  0  0  0  0  0  0
   44.9256   30.4507   50.3792 H   0  0  0  0  0  0  0  0  0  0  0  0
   44.4658   29.0546   48.3700 H   0  0  0  0  0  0  0  0  0  0  0  0
   45.1584   30.2771   44.4521 H   0  0  0  0  0  0  0  0  0  0  0  0
  1 18  1  0
  2  1  2  0
  3  2  1  0
  4  5  1  0
  4  3  2  0
  5  6  2  0
  6  1  1  0
  7  5  1  0
  8  7  1  0
  9  8  1  0
 10 11  1  0
 10  9  1  0
 11 12  1  0
 12  7  1  0
 12 13  1  0
 14 15  2  0
 15 22  1  0
 16 15  1  0
 16 20  1  0
 17 16  2  0
 18 19  2  0
 18 17  1  0
 19 14  1  0
 21 26  2  0
 22 21  1  0
 22 23  2  0
 23 24  1  0
 24 25  2  0
 26 25  1  0
 27 28  2  0
 27 21  1  0
 29 27  2  0
  2 30  1  0
  3 31  1  0
  4 32  1  0
  7 33  1  1
  8 34  1  0
  8 35  1  0
  9 36  1  0
  9 37  1  0
 10 38  1  0
 10 39  1  0
 11 40  1  0
 11 41  1  0
 12 42  1  6
 13 43  1  0
 14 44  1  0
 20 45  1  0
 20 46  1  0
 23 47  1  0
 24 48  1  0
 25 49  1  0
 26 50  1  0
 27 51  1  0
M  ISO  8  30  14  31  14  32  14  33  13  34  13  35  13  36  13  37  13
M  ISO  8  38  13  39  13  40  13  41  13  42  13  43  11  44  14  47  14
M  ISO  4  48  14  49  14  50  14  51  11
M  END
>  <minimizedAffinity>  (1) 
-6.45125771

>  <minimizedRMSD>  (1) 
1.70280409

$$$$
