
     RDKit          3D

 39 41  0  0  1  0  0  0  0  0999 V2000
   47.3180   34.2280   42.1450 C   0  0  0  0  0  0  0  0  0  0  0  0
   48.2430   35.2330   41.9660 C   0  0  0  0  0  0  0  0  0  0  0  0
   48.8000   35.5640   40.7350 C   0  0  0  0  0  0  0  0  0  0  0  0
   48.3380   34.7790   39.6700 C   0  0  0  0  0  0  0  0  0  0  0  0
   47.3930   33.7540   39.8600 C   0  0  0  0  0  0  0  0  0  0  0  0
   46.8990   33.4940   41.0830 N   0  0  0  0  0  0  0  0  0  0  0  0
   46.9430   32.9900   38.7000 C   0  0  1  0  0  0  0  0  0  0  0  0
   45.3960   33.2210   38.4540 C   0  0  0  0  0  0  0  0  0  0  0  0
   45.0480   32.0190   37.5340 C   0  0  0  0  0  0  0  0  0  0  0  0
   45.6420   32.4270   36.1780 C   0  0  0  0  0  0  0  0  0  0  0  0
   47.1170   32.5430   36.2580 C   0  0  0  0  0  0  0  0  0  0  0  0
   47.6920   33.1330   37.4880 C   0  0  2  0  0  0  0  0  0  0  0  0
   49.2930   32.3040   37.7590 S   0  0  0  0  0  0  0  0  0  0  0  0
   46.6770   32.8150   45.4480 C   0  0  0  0  0  0  0  0  0  0  0  0
   45.6510   33.5950   45.9630 C   0  0  0  0  0  0  0  0  0  0  0  0
   45.1970   34.6020   45.1530 C   0  0  0  0  0  0  0  0  0  0  0  0
   45.7670   34.7720   43.9190 N   0  0  0  0  0  0  0  0  0  0  0  0
   46.7870   33.9580   43.4680 C   0  0  0  0  0  0  0  0  0  0  0  0
   47.2230   33.0080   44.2190 N   0  0  0  0  0  0  0  0  0  0  0  0
   44.1740   35.5020   45.4740 N   0  0  0  0  0  0  0  0  0  0  0  0
   45.0840   33.4270   47.1880 O   0  0  0  0  0  0  0  0  0  0  0  0
   48.5599   35.8078   42.8487 H   0  0  0  0  0  0  0  0  0  0  0  0
   49.5376   36.3703   40.6088 H   0  0  0  0  0  0  0  0  0  0  0  0
   48.7247   34.9693   38.6579 H   0  0  0  0  0  0  0  0  0  0  0  0
   47.1410   31.9453   38.9816 H   0  0  0  0  0  0  0  0  0  0  0  0
   44.8291   33.1839   39.3959 H   0  0  0  0  0  0  0  0  0  0  0  0
   45.1514   34.2027   38.0223 H   0  0  0  0  0  0  0  0  0  0  0  0
   45.5113   31.0926   37.9042 H   0  0  0  0  0  0  0  0  0  0  0  0
   43.9686   31.8126   37.4860 H   0  0  0  0  0  0  0  0  0  0  0  0
   45.2205   33.3978   35.8780 H   0  0  0  0  0  0  0  0  0  0  0  0
   45.3909   31.6528   35.4380 H   0  0  0  0  0  0  0  0  0  0  0  0
   47.5330   31.5301   36.1532 H   0  0  0  0  0  0  0  0  0  0  0  0
   47.3857   33.2482   35.4577 H   0  0  0  0  0  0  0  0  0  0  0  0
   47.7299   34.2164   37.3013 H   0  0  0  0  0  0  0  0  0  0  0  0
   49.5235   32.1846   39.1042 H   0  0  0  0  0  0  0  0  0  0  0  0
   47.0694   31.9960   46.0687 H   0  0  0  0  0  0  0  0  0  0  0  0
   43.8982   36.2300   44.7996 H   0  0  0  0  0  0  0  0  0  0  0  0
   43.6971   35.4362   46.3846 H   0  0  0  0  0  0  0  0  0  0  0  0
   44.3542   34.0277   47.4822 H   0  0  0  0  0  0  0  0  0  0  0  0
  1 18  1  0
  2  1  2  0
  3  2  1  0
  4  5  1  0
  4  3  2  0
  5  6  2  0
  6  1  1  0
  7  5  1  0
  8  7  1  0
  9  8  1  0
 10 11  1  0
 10  9  1  0
 11 12  1  0
 12 13  1  0
 12  7  1  0
 14 15  2  0
 15 21  1  0
 16 20  1  0
 16 15  1  0
 17 16  2  0
 18 17  1  0
 18 19  2  0
 19 14  1  0
  2 22  1  0
  3 23  1  0
  4 24  1  0
  7 25  1  1
  8 26  1  0
  8 27  1  0
  9 28  1  0
  9 29  1  0
 10 30  1  0
 10 31  1  0
 11 32  1  0
 11 33  1  0
 12 34  1  6
 13 35  1  0
 14 36  1  0
 20 37  1  0
 20 38  1  0
 21 39  1  0
M  ISO  8  22  14  23  14  24  14  25  13  26  13  27  13  28  13  29  13
M  ISO  8  30  13  31  13  32  13  33  13  34  13  35  11  36  14  39   3
M  END
>  <minimizedAffinity>  (1) 
-6.3516016

>  <minimizedRMSD>  (1) 
0.193487898

$$$$
