
     RDKit          3D

 41 43  0  0  1  0  0  0  0  0999 V2000
   47.3450   34.0720   42.3620 C   0  0  0  0  0  0  0  0  0  0  0  0
   48.2450   35.1080   42.1990 C   0  0  0  0  0  0  0  0  0  0  0  0
   48.7490   35.5110   40.9660 C   0  0  0  0  0  0  0  0  0  0  0  0
   48.2610   34.7670   39.8830 C   0  0  0  0  0  0  0  0  0  0  0  0
   47.3440   33.7130   40.0560 C   0  0  0  0  0  0  0  0  0  0  0  0
   46.9010   33.3790   41.2820 N   0  0  0  0  0  0  0  0  0  0  0  0
   46.8690   32.9960   38.8770 C   0  0  1  0  0  0  0  0  0  0  0  0
   45.3130   33.2260   38.6840 C   0  0  0  0  0  0  0  0  0  0  0  0
   44.9430   32.0580   37.7250 C   0  0  0  0  0  0  0  0  0  0  0  0
   45.5010   32.5270   36.3710 C   0  0  0  0  0  0  0  0  0  0  0  0
   46.9770   32.6320   36.4200 C   0  0  0  0  0  0  0  0  0  0  0  0
   47.5820   33.1910   37.6510 C   0  0  2  0  0  0  0  0  0  0  0  0
   49.1970   32.3660   37.8420 S   0  0  0  0  0  0  0  0  0  0  0  0
   46.8400   32.4770   45.6100 C   0  0  0  0  0  0  0  0  0  0  0  0
   45.8410   33.2140   46.2020 C   0  0  0  0  0  0  0  0  0  0  0  0
   45.3400   34.2730   45.4660 C   0  0  0  0  0  0  0  0  0  0  0  0
   45.8670   34.5060   44.2230 N   0  0  0  0  0  0  0  0  0  0  0  0
   46.8690   33.7260   43.6900 C   0  0  0  0  0  0  0  0  0  0  0  0
   47.3380   32.7400   44.3720 N   0  0  0  0  0  0  0  0  0  0  0  0
   44.3290   35.1460   45.8770 N   0  0  0  0  0  0  0  0  0  0  0  0
   45.2760   32.9670   47.5300 C   0  0  0  0  0  0  0  0  0  0  0  0
   48.5830   35.6459   43.0970 H   0  0  0  0  0  0  0  0  0  0  0  0
   49.4651   36.3381   40.8518 H   0  0  0  0  0  0  0  0  0  0  0  0
   48.6048   35.0140   38.8677 H   0  0  0  0  0  0  0  0  0  0  0  0
   47.0849   31.9427   39.1092 H   0  0  0  0  0  0  0  0  0  0  0  0
   44.7737   33.1475   39.6395 H   0  0  0  0  0  0  0  0  0  0  0  0
   45.0515   34.2225   38.2986 H   0  0  0  0  0  0  0  0  0  0  0  0
   45.4191   31.1192   38.0443 H   0  0  0  0  0  0  0  0  0  0  0  0
   43.8638   31.8468   37.6977 H   0  0  0  0  0  0  0  0  0  0  0  0
   45.0770   33.5124   36.1278 H   0  0  0  0  0  0  0  0  0  0  0  0
   45.2247   31.7914   35.6013 H   0  0  0  0  0  0  0  0  0  0  0  0
   47.3841   31.6193   36.2832 H   0  0  0  0  0  0  0  0  0  0  0  0
   47.2332   33.3527   35.6295 H   0  0  0  0  0  0  0  0  0  0  0  0
   47.6055   34.2809   37.5043 H   0  0  0  0  0  0  0  0  0  0  0  0
   49.4810   32.2209   39.1744 H   0  0  0  0  0  0  0  0  0  0  0  0
   47.2596   31.6275   46.1689 H   0  0  0  0  0  0  0  0  0  0  0  0
   44.0225   35.9080   45.2555 H   0  0  0  0  0  0  0  0  0  0  0  0
   43.8904   35.0274   46.8014 H   0  0  0  0  0  0  0  0  0  0  0  0
   45.9964   33.2819   48.2993 H   0  0  0  0  0  0  0  0  0  0  0  0
   44.3438   33.5397   47.6442 H   0  0  0  0  0  0  0  0  0  0  0  0
   45.0633   31.8938   47.6442 H   0  0  0  0  0  0  0  0  0  0  0  0
  1 18  1  0
  2  1  2  0
  3  2  1  0
  4  5  1  0
  4  3  2  0
  5  6  2  0
  6  1  1  0
  7  5  1  0
  8  7  1  0
  9  8  1  0
 10 11  1  0
 10  9  1  0
 11 12  1  0
 12 13  1  0
 12  7  1  0
 14 15  2  0
 15 21  1  0
 16 20  1  0
 16 15  1  0
 17 16  2  0
 18 17  1  0
 18 19  2  0
 19 14  1  0
  2 22  1  0
  3 23  1  0
  4 24  1  0
  7 25  1  1
  8 26  1  0
  8 27  1  0
  9 28  1  0
  9 29  1  0
 10 30  1  0
 10 31  1  0
 11 32  1  0
 11 33  1  0
 12 34  1  6
 13 35  1  0
 14 36  1  0
 20 37  1  0
 20 38  1  0
 21 39  1  0
 21 40  1  0
 21 41  1  0
M  ISO  8  22  14  23  14  24  14  25  13  26  13  27  13  28  13  29  13
M  ISO  8  30  13  31  13  32  13  33  13  34  13  35  11  36  14  39   8
M  ISO  2  40   8  41   8
M  END
>  <minimizedAffinity>  (1) 
-6.08791542

>  <minimizedRMSD>  (1) 
0.148153543

$$$$
