
     RDKit          3D

 33 35  0  0  0  0  0  0  0  0999 V2000
   47.1370   34.0900   42.6420 C   0  0  0  0  0  0  0  0  0  0  0  0
   48.4510   34.5490   42.6530 C   0  0  0  0  0  0  0  0  0  0  0  0
   48.7220   35.6360   41.6250 C   0  0  0  0  0  0  0  0  0  0  0  0
   48.5700   35.0220   40.2300 C   0  0  0  0  0  0  0  0  0  0  0  0
   47.3610   34.1620   40.1120 C   0  0  0  0  0  0  0  0  0  0  0  0
   46.4400   34.4130   41.2770 C   0  0  0  0  0  0  0  0  0  0  0  0
   46.1690   34.4900   43.6710 C   0  0  0  0  0  0  0  0  0  0  0  0
   46.2100   33.7230   44.8130 C   0  0  0  0  0  0  0  0  0  0  0  0
   45.3680   34.1800   45.7880 C   0  0  0  0  0  0  0  0  0  0  0  0
   44.5870   35.2740   45.6100 N   0  0  0  0  0  0  0  0  0  0  0  0
   44.5610   35.9960   44.4960 C   0  0  0  0  0  0  0  0  0  0  0  0
   45.3660   35.5830   43.5330 N   0  0  0  0  0  0  0  0  0  0  0  0
   46.8680   32.5130   45.3060 C   0  0  0  0  0  0  0  0  0  0  0  0
   46.1720   31.4890   46.1510 C   0  0  0  0  0  0  0  0  0  0  0  0
   46.5270   31.1200   44.8080 C   0  0  0  0  0  0  0  0  0  0  0  0
   47.3468   33.0314   42.8551 H   0  0  0  0  0  0  0  0  0  0  0  0
   48.6706   34.9524   43.6525 H   0  0  0  0  0  0  0  0  0  0  0  0
   49.0946   33.6943   42.3976 H   0  0  0  0  0  0  0  0  0  0  0  0
   48.0006   36.4567   41.7515 H   0  0  0  0  0  0  0  0  0  0  0  0
   49.7375   36.0382   41.7552 H   0  0  0  0  0  0  0  0  0  0  0  0
   48.4971   35.8354   39.4931 H   0  0  0  0  0  0  0  0  0  0  0  0
   49.4496   34.3871   40.0477 H   0  0  0  0  0  0  0  0  0  0  0  0
   46.8360   34.3969   39.1744 H   0  0  0  0  0  0  0  0  0  0  0  0
   47.6660   33.1051   40.1116 H   0  0  0  0  0  0  0  0  0  0  0  0
   46.1377   35.4706   41.2718 H   0  0  0  0  0  0  0  0  0  0  0  0
   45.5652   33.7543   41.1726 H   0  0  0  0  0  0  0  0  0  0  0  0
   45.3226   33.6434   46.7472 H   0  0  0  0  0  0  0  0  0  0  0  0
   43.9134   36.8779   44.3825 H   0  0  0  0  0  0  0  0  0  0  0  0
   47.7754   33.1295   45.3867 H   0  0  0  0  0  0  0  0  0  0  0  0
   46.7030   31.0318   46.9989 H   0  0  0  0  0  0  0  0  0  0  0  0
   45.2326   31.4805   46.7232 H   0  0  0  0  0  0  0  0  0  0  0  0
   45.7404   30.9866   44.0508 H   0  0  0  0  0  0  0  0  0  0  0  0
   47.1032   30.2973   44.3595 H   0  0  0  0  0  0  0  0  0  0  0  0
  1  2  1  0
  1  7  1  0
  3  2  1  0
  4  3  1  0
  5  4  1  0
  5  6  1  0
  6  1  1  0
  7  8  1  0
  8 13  1  0
  8  9  2  0
 10  9  1  0
 11 10  2  0
 12  7  2  0
 12 11  1  0
 13 14  1  0
 15 13  1  0
 15 14  1  0
  1 16  1  0
  2 17  1  0
  2 18  1  0
  3 19  1  0
  3 20  1  0
  4 21  1  0
  4 22  1  0
  5 23  1  0
  5 24  1  0
  6 25  1  0
  6 26  1  0
  9 27  1  0
 11 28  1  0
 13 29  1  0
 14 30  1  0
 14 31  1  0
 15 32  1  0
 15 33  1  0
M  ISO  8  16  13  17  13  18  13  19  13  20  13  21  13  22  13  23  13
M  ISO  8  24  13  25  13  26  13  27  14  28  14  29  13  30  13  31  13
M  ISO  2  32  13  33  13
M  END
>  <minimizedAffinity>  (1) 
-5.40373755

>  <minimizedRMSD>  (1) 
5.4856286

$$$$
