
     RDKit          3D

 36 38  0  0  0  0  0  0  0  0999 V2000
   46.3290   32.2480   43.8000 C   0  0  0  0  0  0  0  0  0  0  0  0
   47.3660   32.6090   42.9600 C   0  0  0  0  0  0  0  0  0  0  0  0
   48.4710   31.7860   43.0040 C   0  0  0  0  0  0  0  0  0  0  0  0
   48.4600   30.7150   43.8410 N   0  0  0  0  0  0  0  0  0  0  0  0
   47.4640   30.3760   44.6370 C   0  0  0  0  0  0  0  0  0  0  0  0
   46.4030   31.1570   44.6010 N   0  0  0  0  0  0  0  0  0  0  0  0
   45.1940   33.1820   43.8220 C   0  0  0  0  0  0  0  0  0  0  0  0
   44.5190   33.4480   42.5990 C   0  0  0  0  0  0  0  0  0  0  0  0
   44.7740   34.8050   42.0270 C   0  0  0  0  0  0  0  0  0  0  0  0
   44.2500   35.8570   43.0260 C   0  0  0  0  0  0  0  0  0  0  0  0
   44.6310   35.5620   44.4420 C   0  0  0  0  0  0  0  0  0  0  0  0
   45.6790   34.4800   44.5130 C   0  0  0  0  0  0  0  0  0  0  0  0
   46.7670   32.2360   39.9150 Cl  0  0  0  0  0  0  0  0  0  0  0  0
   47.6470   33.5750   40.6160 C   0  0  0  0  0  0  0  0  0  0  0  0
   47.8170   33.5650   41.9950 C   0  0  0  0  0  0  0  0  0  0  0  0
   48.5610   34.6210   42.5790 C   0  0  0  0  0  0  0  0  0  0  0  0
   49.1230   35.6630   41.8280 C   0  0  0  0  0  0  0  0  0  0  0  0
   48.8880   35.5640   40.4780 C   0  0  0  0  0  0  0  0  0  0  0  0
   48.1780   34.5750   39.8350 C   0  0  0  0  0  0  0  0  0  0  0  0
   49.3474   31.9926   42.3721 H   0  0  0  0  0  0  0  0  0  0  0  0
   47.5160   29.4938   45.2919 H   0  0  0  0  0  0  0  0  0  0  0  0
   44.3962   32.6724   44.3822 H   0  0  0  0  0  0  0  0  0  0  0  0
   44.8404   32.6989   41.8604 H   0  0  0  0  0  0  0  0  0  0  0  0
   43.4428   33.4021   42.8219 H   0  0  0  0  0  0  0  0  0  0  0  0
   45.8536   34.9459   41.8704 H   0  0  0  0  0  0  0  0  0  0  0  0
   44.2609   34.9116   41.0599 H   0  0  0  0  0  0  0  0  0  0  0  0
   44.6627   36.8385   42.7496 H   0  0  0  0  0  0  0  0  0  0  0  0
   43.1514   35.8423   42.9719 H   0  0  0  0  0  0  0  0  0  0  0  0
   45.0291   36.4774   44.9042 H   0  0  0  0  0  0  0  0  0  0  0  0
   43.7354   35.2138   44.9773 H   0  0  0  0  0  0  0  0  0  0  0  0
   45.8995   34.2632   45.5686 H   0  0  0  0  0  0  0  0  0  0  0  0
   46.5807   34.8348   43.9924 H   0  0  0  0  0  0  0  0  0  0  0  0
   48.7037   34.6229   43.6697 H   0  0  0  0  0  0  0  0  0  0  0  0
   49.6993   36.4846   42.2784 H   0  0  0  0  0  0  0  0  0  0  0  0
   49.3112   36.3577   39.8448 H   0  0  0  0  0  0  0  0  0  0  0  0
   48.0413   34.5842   38.7436 H   0  0  0  0  0  0  0  0  0  0  0  0
  1  7  1  0
  1  6  2  0
  2  3  2  0
  2  1  1  0
  3  4  1  0
  4  5  2  0
  6  5  1  0
  7 12  1  0
  8  7  1  0
  9  8  1  0
  9 10  1  0
 10 11  1  0
 11 12  1  0
 13 14  1  0
 14 15  2  0
 15 16  1  0
 15  2  1  0
 17 16  2  0
 18 17  1  0
 19 18  2  0
 19 14  1  0
  3 20  1  0
  5 21  1  0
  7 22  1  0
  8 23  1  0
  8 24  1  0
  9 25  1  0
  9 26  1  0
 10 27  1  0
 10 28  1  0
 11 29  1  0
 11 30  1  0
 12 31  1  0
 12 32  1  0
 16 33  1  0
 17 34  1  0
 18 35  1  0
 19 36  1  0
M  ISO  8  20  14  21  14  22  13  23  13  24  13  25  13  26  13  27  13
M  ISO  8  28  13  29  13  30  13  31  13  32  13  33  14  34  14  35  14
M  ISO  1  36  14
M  END
>  <minimizedAffinity>  (1) 
-5.07388115

>  <minimizedRMSD>  (1) 
2.24466538

$$$$
