
     RDKit          3D

 33 35  0  0  0  0  0  0  0  0999 V2000
   45.2820   33.5380   43.6130 C   0  0  0  0  0  0  0  0  0  0  0  0
   44.3820   33.2270   42.5560 C   0  0  0  0  0  0  0  0  0  0  0  0
   44.5320   34.1340   41.3640 C   0  0  0  0  0  0  0  0  0  0  0  0
   44.1310   35.5460   41.7950 C   0  0  0  0  0  0  0  0  0  0  0  0
   44.8140   35.9570   43.0600 C   0  0  0  0  0  0  0  0  0  0  0  0
   45.8760   34.9630   43.4620 C   0  0  0  0  0  0  0  0  0  0  0  0
   46.4050   32.6070   43.8250 C   0  0  0  0  0  0  0  0  0  0  0  0
   46.4600   31.9970   45.0550 C   0  0  0  0  0  0  0  0  0  0  0  0
   47.4440   31.0310   45.1600 C   0  0  0  0  0  0  0  0  0  0  0  0
   48.2630   30.7560   44.1130 N   0  0  0  0  0  0  0  0  0  0  0  0
   48.2000   31.3600   42.9390 C   0  0  0  0  0  0  0  0  0  0  0  0
   47.2680   32.2730   42.8280 N   0  0  0  0  0  0  0  0  0  0  0  0
   45.8700   31.9840   46.3640 C   0  0  0  0  0  0  0  0  0  0  0  0
   45.5920   30.9140   47.2420 C   0  0  0  0  0  0  0  0  0  0  0  0
   44.9370   31.3350   48.3680 C   0  0  0  0  0  0  0  0  0  0  0  0
   44.8190   32.6530   48.1700 N   0  0  0  0  0  0  0  0  0  0  0  0
   45.3470   33.0420   47.0260 N   0  0  0  0  0  0  0  0  0  0  0  0
   44.6324   33.4512   44.4964 H   0  0  0  0  0  0  0  0  0  0  0  0
   44.5662   32.1917   42.2331 H   0  0  0  0  0  0  0  0  0  0  0  0
   43.3618   33.3631   42.9443 H   0  0  0  0  0  0  0  0  0  0  0  0
   43.8772   33.7918   40.5491 H   0  0  0  0  0  0  0  0  0  0  0  0
   45.5710   34.1239   41.0028 H   0  0  0  0  0  0  0  0  0  0  0  0
   44.4042   36.2525   40.9974 H   0  0  0  0  0  0  0  0  0  0  0  0
   43.0459   35.5525   41.9754 H   0  0  0  0  0  0  0  0  0  0  0  0
   45.2832   36.9405   42.9099 H   0  0  0  0  0  0  0  0  0  0  0  0
   44.0611   36.0011   43.8607 H   0  0  0  0  0  0  0  0  0  0  0  0
   46.6607   34.9449   42.6913 H   0  0  0  0  0  0  0  0  0  0  0  0
   46.2925   35.2714   44.4323 H   0  0  0  0  0  0  0  0  0  0  0  0
   47.5645   30.4787   46.1036 H   0  0  0  0  0  0  0  0  0  0  0  0
   48.8829   31.1129   42.1128 H   0  0  0  0  0  0  0  0  0  0  0  0
   45.8685   29.8677   47.0450 H   0  0  0  0  0  0  0  0  0  0  0  0
   44.5925   30.7370   49.2246 H   0  0  0  0  0  0  0  0  0  0  0  0
   44.3657   33.2932   48.8376 H   0  0  0  0  0  0  0  0  0  0  0  0
  1  7  1  0
  2  1  1  0
  3  4  1  0
  3  2  1  0
  4  5  1  0
  5  6  1  0
  6  1  1  0
  7  8  1  0
  8  9  2  0
  8 13  1  0
 10  9  1  0
 11 10  2  0
 12 11  1  0
 12  7  2  0
 13 17  2  0
 13 14  1  0
 14 15  2  0
 16 15  1  0
 17 16  1  0
  1 18  1  0
  2 19  1  0
  2 20  1  0
  3 21  1  0
  3 22  1  0
  4 23  1  0
  4 24  1  0
  5 25  1  0
  5 26  1  0
  6 27  1  0
  6 28  1  0
  9 29  1  0
 11 30  1  0
 14 31  1  0
 15 32  1  0
 16 33  1  0
M  ISO  8  18  13  19  13  20  13  21  13  22  13  23  13  24  13  25  13
M  ISO  8  26  13  27  13  28  13  29  14  30  14  31  14  32  14  33   9
M  END
>  <minimizedAffinity>  (1) 
-4.55468988

>  <minimizedRMSD>  (1) 
5.57292318

$$$$
