
     RDKit          3D

 37 39  0  0  1  0  0  0  0  0999 V2000
   47.6150   33.3210   43.6540 C   0  0  0  0  0  0  0  0  0  0  0  0
   46.7880   34.3830   43.2680 C   0  0  0  0  0  0  0  0  0  0  0  0
   47.0760   34.9450   41.9350 C   0  0  0  0  0  0  0  0  0  0  0  0
   48.5150   35.4660   41.8250 C   0  0  0  0  0  0  0  0  0  0  0  0
   49.4960   34.6610   42.6180 C   0  0  0  0  0  0  0  0  0  0  0  0
   48.9370   33.2830   42.8490 C   0  0  0  0  0  0  0  0  0  0  0  0
   47.0910   31.9480   43.7000 C   0  0  0  0  0  0  0  0  0  0  0  0
   46.3920   31.6400   44.8720 C   0  0  0  0  0  0  0  0  0  0  0  0
   45.8530   30.4090   44.7380 C   0  0  0  0  0  0  0  0  0  0  0  0
   45.9750   29.6100   43.6500 N   0  0  0  0  0  0  0  0  0  0  0  0
   46.6500   29.9400   42.5620 C   0  0  0  0  0  0  0  0  0  0  0  0
   47.2080   31.1290   42.6090 N   0  0  0  0  0  0  0  0  0  0  0  0
   46.0230   32.1980   46.1250 C   0  0  2  0  0  0  0  0  0  0  0  0
   47.0630   32.7660   47.0460 C   0  0  0  0  0  0  0  0  0  0  0  0
   47.6770   31.5280   47.6790 C   0  0  0  0  0  0  0  0  0  0  0  0
   46.6960   30.5850   47.7070 O   0  0  0  0  0  0  0  0  0  0  0  0
   45.5590   31.1560   47.1600 C   0  0  0  0  0  0  0  0  0  0  0  0
   47.7438   33.5975   44.7109 H   0  0  0  0  0  0  0  0  0  0  0  0
   45.7483   34.0238   43.2695 H   0  0  0  0  0  0  0  0  0  0  0  0
   46.9713   35.1931   43.9892 H   0  0  0  0  0  0  0  0  0  0  0  0
   46.9245   34.1602   41.1793 H   0  0  0  0  0  0  0  0  0  0  0  0
   46.3958   35.7939   41.7719 H   0  0  0  0  0  0  0  0  0  0  0  0
   48.8160   35.4407   40.7673 H   0  0  0  0  0  0  0  0  0  0  0  0
   48.5248   36.4874   42.2332 H   0  0  0  0  0  0  0  0  0  0  0  0
   50.4428   34.5852   42.0632 H   0  0  0  0  0  0  0  0  0  0  0  0
   49.6786   35.1516   43.5855 H   0  0  0  0  0  0  0  0  0  0  0  0
   48.7461   32.8093   41.8748 H   0  0  0  0  0  0  0  0  0  0  0  0
   49.6736   32.7108   43.4321 H   0  0  0  0  0  0  0  0  0  0  0  0
   45.2652   30.0220   45.5834 H   0  0  0  0  0  0  0  0  0  0  0  0
   46.7372   29.2749   41.6902 H   0  0  0  0  0  0  0  0  0  0  0  0
   45.3285   32.9346   45.6948 H   0  0  0  0  0  0  0  0  0  0  0  0
   47.8170   33.3379   46.4852 H   0  0  0  0  0  0  0  0  0  0  0  0
   46.6491   33.4687   47.7842 H   0  0  0  0  0  0  0  0  0  0  0  0
   48.5274   31.1748   47.0773 H   0  0  0  0  0  0  0  0  0  0  0  0
   48.0540   31.7419   48.6900 H   0  0  0  0  0  0  0  0  0  0  0  0
   44.9672   31.6453   47.9476 H   0  0  0  0  0  0  0  0  0  0  0  0
   44.9279   30.3900   46.6857 H   0  0  0  0  0  0  0  0  0  0  0  0
  1  7  1  0
  2  1  1  0
  3  2  1  0
  4  3  1  0
  4  5  1  0
  5  6  1  0
  6  1  1  0
  7  8  1  0
  9  8  2  0
 10  9  1  0
 11 12  1  0
 11 10  2  0
 12  7  2  0
 13  8  1  0
 13 14  1  0
 13 17  1  0
 14 15  1  0
 15 16  1  0
 17 16  1  0
  1 18  1  0
  2 19  1  0
  2 20  1  0
  3 21  1  0
  3 22  1  0
  4 23  1  0
  4 24  1  0
  5 25  1  0
  5 26  1  0
  6 27  1  0
  6 28  1  0
  9 29  1  0
 11 30  1  0
 13 31  1  6
 14 32  1  0
 14 33  1  0
 15 34  1  0
 15 35  1  0
 17 36  1  0
 17 37  1  0
M  ISO  8  18  13  19  13  20  13  21  13  22  13  23  13  24  13  25  13
M  ISO  8  26  13  27  13  28  13  29  14  30  14  31  13  32  13  33  13
M  ISO  4  34  13  35  13  36  13  37  13
M  END
>  <minimizedAffinity>  (1) 
-4.19094706

>  <minimizedRMSD>  (1) 
5.52715874

$$$$
