
     RDKit          3D

 29 30  0  0  0  0  0  0  0  0999 V2000
   46.9590   33.0010   43.0350 C   0  0  0  0  0  0  0  0  0  0  0  0
   46.2510   33.7980   42.0280 C   0  0  0  0  0  0  0  0  0  0  0  0
   45.9030   35.1380   42.4970 C   0  0  0  0  0  0  0  0  0  0  0  0
   45.0440   35.0740   43.7750 C   0  0  0  0  0  0  0  0  0  0  0  0
   45.5260   34.0560   44.7460 C   0  0  0  0  0  0  0  0  0  0  0  0
   46.9060   33.5660   44.4170 C   0  0  0  0  0  0  0  0  0  0  0  0
   48.3370   32.6390   42.7040 C   0  0  0  0  0  0  0  0  0  0  0  0
   49.1980   33.7220   42.6420 C   0  0  0  0  0  0  0  0  0  0  0  0
   50.5250   33.4730   42.3600 C   0  0  0  0  0  0  0  0  0  0  0  0
   50.9130   32.1720   42.1590 N   0  0  0  0  0  0  0  0  0  0  0  0
   50.0530   31.1420   42.2230 C   0  0  0  0  0  0  0  0  0  0  0  0
   48.7800   31.3860   42.4950 N   0  0  0  0  0  0  0  0  0  0  0  0
   49.0790   35.0480   42.7850 O   0  0  0  0  0  0  0  0  0  0  0  0
   49.3130   35.9600   41.7280 C   0  0  0  0  0  0  0  0  0  0  0  0
   48.8150   35.7740   40.5670 O   0  0  0  0  0  0  0  0  0  0  0  0
   46.3736   32.0698   43.0183 H   0  0  0  0  0  0  0  0  0  0  0  0
   45.3248   33.2719   41.7532 H   0  0  0  0  0  0  0  0  0  0  0  0
   46.9279   33.9170   41.1692 H   0  0  0  0  0  0  0  0  0  0  0  0
   46.8272   35.6941   42.7130 H   0  0  0  0  0  0  0  0  0  0  0  0
   45.3221   35.6429   41.7111 H   0  0  0  0  0  0  0  0  0  0  0  0
   45.0645   36.0604   44.2614 H   0  0  0  0  0  0  0  0  0  0  0  0
   44.0256   34.7870   43.4741 H   0  0  0  0  0  0  0  0  0  0  0  0
   45.5393   34.5035   45.7508 H   0  0  0  0  0  0  0  0  0  0  0  0
   44.8425   33.1954   44.6995 H   0  0  0  0  0  0  0  0  0  0  0  0
   47.1909   32.7841   45.1363 H   0  0  0  0  0  0  0  0  0  0  0  0
   47.6023   34.4156   44.4749 H   0  0  0  0  0  0  0  0  0  0  0  0
   51.2530   34.2953   42.2979 H   0  0  0  0  0  0  0  0  0  0  0  0
   50.4005   30.1124   42.0522 H   0  0  0  0  0  0  0  0  0  0  0  0
   49.9368   36.8474   41.9106 H   0  0  0  0  0  0  0  0  0  0  0  0
  1  6  1  0
  2  3  1  0
  2  1  1  0
  3  4  1  0
  4  5  1  0
  6  5  1  0
  7  1  1  0
  8  7  2  0
  8 13  1  0
  9  8  1  0
 10 11  1  0
 10  9  2  0
 11 12  2  0
 12  7  1  0
 14 13  1  0
 15 14  2  0
  1 16  1  0
  2 17  1  0
  2 18  1  0
  3 19  1  0
  3 20  1  0
  4 21  1  0
  4 22  1  0
  5 23  1  0
  5 24  1  0
  6 25  1  0
  6 26  1  0
  9 27  1  0
 11 28  1  0
 14 29  1  0
M  ISO  8  16  13  17  13  18  13  19  13  20  13  21  13  22  13  23  13
M  ISO  6  24  13  25  13  26  13  27  14  28  14  29   6
M  END
>  <minimizedAffinity>  (1) 
-3.96876764

>  <minimizedRMSD>  (1) 
1.35006785

$$$$
