
     RDKit          3D

 33 34  0  0  0  0  0  0  0  0999 V2000
   47.6800   33.5950   43.3290 C   0  0  0  0  0  0  0  0  0  0  0  0
   48.8170   34.3690   42.8230 C   0  0  0  0  0  0  0  0  0  0  0  0
   49.0950   34.1190   41.4060 C   0  0  0  0  0  0  0  0  0  0  0  0
   49.3590   32.6360   41.1420 C   0  0  0  0  0  0  0  0  0  0  0  0
   48.4080   31.7360   41.8580 C   0  0  0  0  0  0  0  0  0  0  0  0
   47.2380   32.4860   42.4350 C   0  0  0  0  0  0  0  0  0  0  0  0
   46.5100   34.3870   43.7340 C   0  0  0  0  0  0  0  0  0  0  0  0
   46.0190   34.0750   44.9990 C   0  0  0  0  0  0  0  0  0  0  0  0
   44.9290   34.8100   45.4280 C   0  0  0  0  0  0  0  0  0  0  0  0
   44.4090   35.7780   44.6020 N   0  0  0  0  0  0  0  0  0  0  0  0
   44.9010   36.0480   43.4010 C   0  0  0  0  0  0  0  0  0  0  0  0
   45.9410   35.3510   42.9870 N   0  0  0  0  0  0  0  0  0  0  0  0
   46.3420   33.2180   45.9360 O   0  0  0  0  0  0  0  0  0  0  0  0
   45.7630   32.7070   47.0600 C   0  0  0  0  0  0  0  0  0  0  0  0
   45.7630   31.2030   47.1590 C   0  0  0  0  0  0  0  0  0  0  0  0
   48.1111   33.1546   44.2401 H   0  0  0  0  0  0  0  0  0  0  0  0
   48.5985   35.4391   42.9538 H   0  0  0  0  0  0  0  0  0  0  0  0
   49.7056   34.0586   43.3923 H   0  0  0  0  0  0  0  0  0  0  0  0
   48.2284   34.4400   40.8093 H   0  0  0  0  0  0  0  0  0  0  0  0
   49.9946   34.6861   41.1246 H   0  0  0  0  0  0  0  0  0  0  0  0
   49.2696   32.4514   40.0613 H   0  0  0  0  0  0  0  0  0  0  0  0
   50.3687   32.4108   41.5159 H   0  0  0  0  0  0  0  0  0  0  0  0
   48.0314   30.9835   41.1496 H   0  0  0  0  0  0  0  0  0  0  0  0
   48.9512   31.2663   42.6913 H   0  0  0  0  0  0  0  0  0  0  0  0
   46.6436   32.9077   41.6111 H   0  0  0  0  0  0  0  0  0  0  0  0
   46.6402   31.7818   43.0323 H   0  0  0  0  0  0  0  0  0  0  0  0
   44.4842   34.6227   46.4165 H   0  0  0  0  0  0  0  0  0  0  0  0
   44.4551   36.8300   42.7688 H   0  0  0  0  0  0  0  0  0  0  0  0
   46.3038   33.1047   47.9314 H   0  0  0  0  0  0  0  0  0  0  0  0
   44.7059   33.0088   47.0211 H   0  0  0  0  0  0  0  0  0  0  0  0
   46.8001   30.8371   47.1831 H   0  0  0  0  0  0  0  0  0  0  0  0
   45.2445   30.8961   48.0793 H   0  0  0  0  0  0  0  0  0  0  0  0
   45.2445   30.7781   46.2869 H   0  0  0  0  0  0  0  0  0  0  0  0
  1  7  1  0
  2  1  1  0
  3  2  1  0
  4  3  1  0
  4  5  1  0
  5  6  1  0
  6  1  1  0
  7  8  2  0
  8  9  1  0
  8 13  1  0
 10  9  2  0
 11 10  1  0
 12 11  2  0
 12  7  1  0
 13 14  1  0
 14 15  1  0
  1 16  1  0
  2 17  1  0
  2 18  1  0
  3 19  1  0
  3 20  1  0
  4 21  1  0
  4 22  1  0
  5 23  1  0
  5 24  1  0
  6 25  1  0
  6 26  1  0
  9 27  1  0
 11 28  1  0
 14 29  1  0
 14 30  1  0
 15 31  1  0
 15 32  1  0
 15 33  1  0
M  ISO  8  16  13  17  13  18  13  19  13  20  13  21  13  22  13  23  13
M  ISO  8  24  13  25  13  26  13  27  14  28  14  29   8  30   8  31   8
M  ISO  2  32   8  33   8
M  END
>  <minimizedAffinity>  (1) 
-4.22461939

>  <minimizedRMSD>  (1) 
5.68615627

$$$$
