
     RDKit          3D

 42 44  0  0  0  0  0  0  0  0999 V2000
   46.1650   34.5290   43.5970 C   0  0  0  0  0  0  0  0  0  0  0  0
   46.2130   33.7410   44.7310 C   0  0  0  0  0  0  0  0  0  0  0  0
   45.4080   34.1090   45.7720 C   0  0  0  0  0  0  0  0  0  0  0  0
   44.6140   35.2120   45.6450 N   0  0  0  0  0  0  0  0  0  0  0  0
   44.5800   35.9630   44.5400 C   0  0  0  0  0  0  0  0  0  0  0  0
   45.3520   35.6100   43.5390 N   0  0  0  0  0  0  0  0  0  0  0  0
   47.0720   34.1150   42.5100 C   0  0  0  0  0  0  0  0  0  0  0  0
   48.4090   34.6780   42.5610 C   0  0  0  0  0  0  0  0  0  0  0  0
   48.7140   35.5960   41.4560 C   0  0  0  0  0  0  0  0  0  0  0  0
   48.5240   34.9200   40.1070 C   0  0  0  0  0  0  0  0  0  0  0  0
   47.2730   34.1150   40.0340 C   0  0  0  0  0  0  0  0  0  0  0  0
   46.3530   34.4050   41.1970 C   0  0  0  0  0  0  0  0  0  0  0  0
   46.8920   32.6580   45.0520 O   0  0  0  0  0  0  0  0  0  0  0  0
   46.6460   31.5040   45.7370 C   0  0  0  0  0  0  0  0  0  0  0  0
   45.8010   30.5000   44.9810 C   0  0  0  0  0  0  0  0  0  0  0  0
   45.3450   29.3690   45.7920 C   0  0  0  0  0  0  0  0  0  0  0  0
   44.1870   28.7450   45.3680 C   0  0  0  0  0  0  0  0  0  0  0  0
   43.6460   27.6610   46.0460 C   0  0  0  0  0  0  0  0  0  0  0  0
   44.3280   27.2340   47.1760 C   0  0  0  0  0  0  0  0  0  0  0  0
   45.4930   27.8620   47.6030 C   0  0  0  0  0  0  0  0  0  0  0  0
   45.9760   28.9230   46.8930 N   0  0  0  0  0  0  0  0  0  0  0  0
   45.3999   33.5225   46.7026 H   0  0  0  0  0  0  0  0  0  0  0  0
   43.9278   36.8461   44.4718 H   0  0  0  0  0  0  0  0  0  0  0  0
   47.2790   33.0404   42.6214 H   0  0  0  0  0  0  0  0  0  0  0  0
   48.5165   35.2283   43.5074 H   0  0  0  0  0  0  0  0  0  0  0  0
   49.1119   33.8359   42.4779 H   0  0  0  0  0  0  0  0  0  0  0  0
   48.0442   36.4664   41.5181 H   0  0  0  0  0  0  0  0  0  0  0  0
   49.7655   35.9069   41.5433 H   0  0  0  0  0  0  0  0  0  0  0  0
   48.4886   35.6954   39.3276 H   0  0  0  0  0  0  0  0  0  0  0  0
   49.3691   34.2313   39.9606 H   0  0  0  0  0  0  0  0  0  0  0  0
   46.7492   34.3545   39.0968 H   0  0  0  0  0  0  0  0  0  0  0  0
   47.5476   33.0505   40.0713 H   0  0  0  0  0  0  0  0  0  0  0  0
   46.0537   35.4632   41.1707 H   0  0  0  0  0  0  0  0  0  0  0  0
   45.4612   33.7653   41.1226 H   0  0  0  0  0  0  0  0  0  0  0  0
   47.6107   31.0324   45.9756 H   0  0  0  0  0  0  0  0  0  0  0  0
   46.0749   31.7852   46.6341 H   0  0  0  0  0  0  0  0  0  0  0  0
   44.9161   31.0210   44.5867 H   0  0  0  0  0  0  0  0  0  0  0  0
   46.4386   30.0836   44.1872 H   0  0  0  0  0  0  0  0  0  0  0  0
   43.6789   29.1183   44.4666 H   0  0  0  0  0  0  0  0  0  0  0  0
   42.7245   27.1665   45.7049 H   0  0  0  0  0  0  0  0  0  0  0  0
   43.9382   26.3788   47.7476 H   0  0  0  0  0  0  0  0  0  0  0  0
   46.0189   27.5080   48.5020 H   0  0  0  0  0  0  0  0  0  0  0  0
  1  2  1  0
  2 13  1  0
  2  3  2  0
  4  3  1  0
  5  4  2  0
  6  1  2  0
  6  5  1  0
  7  8  1  0
  7  1  1  0
  9  8  1  0
 10  9  1  0
 11 10  1  0
 11 12  1  0
 12  7  1  0
 13 14  1  0
 15 14  1  0
 15 16  1  0
 16 21  1  0
 17 16  2  0
 17 18  1  0
 18 19  2  0
 19 20  1  0
 21 20  2  0
  3 22  1  0
  5 23  1  0
  7 24  1  0
  8 25  1  0
  8 26  1  0
  9 27  1  0
  9 28  1  0
 10 29  1  0
 10 30  1  0
 11 31  1  0
 11 32  1  0
 12 33  1  0
 12 34  1  0
 14 35  1  0
 14 36  1  0
 15 37  1  0
 15 38  1  0
 17 39  1  0
 18 40  1  0
 19 41  1  0
 20 42  1  0
M  ISO  8  22  14  23  14  24  13  25  13  26  13  27  13  28  13  29  13
M  ISO  8  30  13  31  13  32  13  33  13  34  13  35   8  36   8  37   8
M  ISO  5  38   8  39  14  40  14  41  14  42  14
M  END
>  <minimizedAffinity>  (1) 
-5.50832796

>  <minimizedRMSD>  (1) 
2.51920176

$$$$
