
     RDKit          3D

 33 35  0  0  1  0  0  0  0  0999 V2000
   46.3720   33.8610   41.8200 C   0  0  1  0  0  0  0  0  0  0  0  0
   45.3970   33.8570   40.6600 C   0  0  0  0  0  0  0  0  0  0  0  0
   46.0740   33.0750   39.5520 C   0  0  0  0  0  0  0  0  0  0  0  0
   47.2270   33.9290   39.0470 C   0  0  0  0  0  0  0  0  0  0  0  0
   48.1970   34.2640   40.1540 C   0  0  0  0  0  0  0  0  0  0  0  0
   47.5820   34.6700   41.4210 C   0  0  2  0  0  0  0  0  0  0  0  0
   44.6470   36.1750   44.3010 C   0  0  0  0  0  0  0  0  0  0  0  0
   45.1760   35.7350   43.0840 C   0  0  0  0  0  0  0  0  0  0  0  0
   45.7700   34.4570   43.0310 C   0  0  0  0  0  0  0  0  0  0  0  0
   45.7750   33.7490   44.1880 N   0  0  0  0  0  0  0  0  0  0  0  0
   45.2600   34.1970   45.3410 C   0  0  0  0  0  0  0  0  0  0  0  0
   44.6920   35.4110   45.4050 N   0  0  0  0  0  0  0  0  0  0  0  0
   48.5360   34.6850   42.5650 C   0  0  0  0  0  0  0  0  0  0  0  0
   49.8930   35.2980   42.4160 C   0  0  0  0  0  0  0  0  0  0  0  0
   49.7120   33.7990   42.6120 C   0  0  0  0  0  0  0  0  0  0  0  0
   46.6482   32.8221   42.0534 H   0  0  0  0  0  0  0  0  0  0  0  0
   44.4557   33.3690   40.9529 H   0  0  0  0  0  0  0  0  0  0  0  0
   45.1468   34.8789   40.3388 H   0  0  0  0  0  0  0  0  0  0  0  0
   46.4540   32.1191   39.9418 H   0  0  0  0  0  0  0  0  0  0  0  0
   45.3663   32.8505   38.7404 H   0  0  0  0  0  0  0  0  0  0  0  0
   47.7611   33.3777   38.2591 H   0  0  0  0  0  0  0  0  0  0  0  0
   46.8126   34.8701   38.6562 H   0  0  0  0  0  0  0  0  0  0  0  0
   48.8153   33.3746   40.3454 H   0  0  0  0  0  0  0  0  0  0  0  0
   48.7734   35.1324   39.8024 H   0  0  0  0  0  0  0  0  0  0  0  0
   47.2517   35.6970   41.2062 H   0  0  0  0  0  0  0  0  0  0  0  0
   44.1828   37.1707   44.3558 H   0  0  0  0  0  0  0  0  0  0  0  0
   45.1300   36.3713   42.1879 H   0  0  0  0  0  0  0  0  0  0  0  0
   45.3031   33.5656   46.2407 H   0  0  0  0  0  0  0  0  0  0  0  0
   47.6802   34.8473   43.2367 H   0  0  0  0  0  0  0  0  0  0  0  0
   50.2184   35.6946   41.4429 H   0  0  0  0  0  0  0  0  0  0  0  0
   50.4562   36.0956   42.9225 H   0  0  0  0  0  0  0  0  0  0  0  0
   50.0088   33.3283   43.5609 H   0  0  0  0  0  0  0  0  0  0  0  0
   50.0305   32.8986   42.0662 H   0  0  0  0  0  0  0  0  0  0  0  0
  1  9  1  0
  2  1  1  0
  3  2  1  0
  4  3  1  0
  4  5  1  0
  5  6  1  0
  6  1  1  0
  6 13  1  0
  7 12  2  0
  8  7  1  0
  9  8  2  0
  9 10  1  0
 10 11  2  0
 11 12  1  0
 13 15  1  0
 14 13  1  0
 14 15  1  0
  1 16  1  1
  2 17  1  0
  2 18  1  0
  3 19  1  0
  3 20  1  0
  4 21  1  0
  4 22  1  0
  5 23  1  0
  5 24  1  0
  6 25  1  6
  7 26  1  0
  8 27  1  0
 11 28  1  0
 13 29  1  0
 14 30  1  0
 14 31  1  0
 15 32  1  0
 15 33  1  0
M  ISO  8  16  13  17  13  18  13  19  13  20  13  21  13  22  13  23  13
M  ISO  8  24  13  25  13  26  14  27  14  28  14  29  13  30  13  31  13
M  ISO  2  32  13  33  13
M  END
>  <minimizedAffinity>  (1) 
-5.05463123

>  <minimizedRMSD>  (1) 
0.942987502

$$$$
