
     RDKit          3D

 47 49  0  0  0  0  0  0  0  0999 V2000
   46.2560   34.4410   43.6980 C   0  0  0  0  0  0  0  0  0  0  0  0
   46.3420   33.6490   44.8170 C   0  0  0  0  0  0  0  0  0  0  0  0
   45.5140   33.9620   45.8620 C   0  0  0  0  0  0  0  0  0  0  0  0
   44.6640   35.0080   45.7590 N   0  0  0  0  0  0  0  0  0  0  0  0
   44.5820   35.7720   44.6750 C   0  0  0  0  0  0  0  0  0  0  0  0
   45.3830   35.4690   43.6700 N   0  0  0  0  0  0  0  0  0  0  0  0
   47.0960   34.0670   42.5540 C   0  0  0  0  0  0  0  0  0  0  0  0
   48.4660   34.6740   42.6540 C   0  0  0  0  0  0  0  0  0  0  0  0
   48.7410   35.6200   41.5740 C   0  0  0  0  0  0  0  0  0  0  0  0
   48.5500   34.9980   40.2080 C   0  0  0  0  0  0  0  0  0  0  0  0
   47.3200   34.1760   40.1020 C   0  0  0  0  0  0  0  0  0  0  0  0
   46.4010   34.3940   41.2820 C   0  0  0  0  0  0  0  0  0  0  0  0
   47.1010   32.5910   45.1050 O   0  0  0  0  0  0  0  0  0  0  0  0
   47.1720   31.3110   44.6280 C   0  0  0  0  0  0  0  0  0  0  0  0
   46.6320   30.2750   45.5970 C   0  0  0  0  0  0  0  0  0  0  0  0
   46.8320   30.6390   46.9710 N   0  0  0  0  0  0  0  0  0  0  0  0
   45.3880   30.2330   47.8470 S   0  0  0  0  0  0  0  0  0  0  0  0
   44.3760   31.3360   47.7890 O   0  0  0  0  0  0  0  0  0  0  0  0
   45.8000   29.9670   49.2660 O   0  0  0  0  0  0  0  0  0  0  0  0
   44.7300   28.8260   47.2360 O   0  0  0  0  0  0  0  0  0  0  0  0
   45.1400   27.6340   47.7580 C   0  0  0  0  0  0  0  0  0  0  0  0
   46.3090   26.8870   47.3870 C   0  0  0  0  0  0  0  0  0  0  0  0
   46.2030   25.3760   48.5270 S   0  0  0  0  0  0  0  0  0  0  0  0
   44.5980   26.0760   49.2650 C   0  0  0  0  0  0  0  0  0  0  0  0
   44.3830   27.1060   48.7050 N   0  0  0  0  0  0  0  0  0  0  0  0
   45.5406   33.3629   46.7841 H   0  0  0  0  0  0  0  0  0  0  0  0
   43.8800   36.6169   44.6176 H   0  0  0  0  0  0  0  0  0  0  0  0
   47.2542   32.9785   42.5664 H   0  0  0  0  0  0  0  0  0  0  0  0
   48.5479   35.2028   43.6151 H   0  0  0  0  0  0  0  0  0  0  0  0
   49.1990   33.8575   42.5769 H   0  0  0  0  0  0  0  0  0  0  0  0
   48.0588   36.4773   41.6716 H   0  0  0  0  0  0  0  0  0  0  0  0
   49.7920   35.9336   41.6587 H   0  0  0  0  0  0  0  0  0  0  0  0
   48.4957   35.8046   39.4621 H   0  0  0  0  0  0  0  0  0  0  0  0
   49.4046   34.3277   40.0340 H   0  0  0  0  0  0  0  0  0  0  0  0
   46.7869   34.4488   39.1793 H   0  0  0  0  0  0  0  0  0  0  0  0
   47.6149   33.1164   40.0870 H   0  0  0  0  0  0  0  0  0  0  0  0
   46.0841   35.4472   41.3036 H   0  0  0  0  0  0  0  0  0  0  0  0
   45.5263   33.7354   41.1765 H   0  0  0  0  0  0  0  0  0  0  0  0
   46.5901   31.2535   43.6963 H   0  0  0  0  0  0  0  0  0  0  0  0
   48.2362   31.0827   44.4688 H   0  0  0  0  0  0  0  0  0  0  0  0
   45.5531   30.1561   45.4187 H   0  0  0  0  0  0  0  0  0  0  0  0
   47.1813   29.3386   45.4198 H   0  0  0  0  0  0  0  0  0  0  0  0
   47.6333   30.1198   47.3574 H   0  0  0  0  0  0  0  0  0  0  0  0
   44.1286   31.6056   48.7089 H   0  0  0  0  0  0  0  0  0  0  0  0
   45.1494   30.3870   49.8828 H   0  0  0  0  0  0  0  0  0  0  0  0
   47.0721   27.1299   46.6329 H   0  0  0  0  0  0  0  0  0  0  0  0
   43.9856   25.6189   50.0562 H   0  0  0  0  0  0  0  0  0  0  0  0
  1  2  1  0
  2 13  1  0
  2  3  2  0
  4  3  1  0
  5  4  2  0
  6  1  2  0
  6  5  1  0
  7  8  1  0
  7  1  1  0
  9  8  1  0
 10  9  1  0
 11 10  1  0
 11 12  1  0
 12  7  1  0
 14 13  1  0
 14 15  1  0
 15 16  1  0
 16 17  1  0
 17 19  1  0
 18 17  1  0
 20 21  1  0
 20 17  1  0
 21 25  1  0
 22 21  2  0
 22 23  1  0
 23 24  1  0
 25 24  2  0
  3 26  1  0
  5 27  1  0
  7 28  1  0
  8 29  1  0
  8 30  1  0
  9 31  1  0
  9 32  1  0
 10 33  1  0
 10 34  1  0
 11 35  1  0
 11 36  1  0
 12 37  1  0
 12 38  1  0
 14 39  1  0
 14 40  1  0
 15 41  1  0
 15 42  1  0
 16 43  1  0
 18 44  1  0
 19 45  1  0
 22 46  1  0
 24 47  1  0
M  ISO  8  26  14  27  14  28  13  29  13  30  13  31  13  32  13  33  13
M  ISO  8  34  13  35  13  36  13  37  13  38  13  39   8  40   8  41   8
M  ISO  6  42   8  43   5  44   3  45   3  46  14  47  14
M  END
>  <minimizedAffinity>  (1) 
-5.8934412

>  <minimizedRMSD>  (1) 
1.6029036

$$$$
