
     RDKit          3D

 44 45  0  0  0  0  0  0  0  0999 V2000
   46.1590   34.5870   43.5950 C   0  0  0  0  0  0  0  0  0  0  0  0
   46.1650   33.8260   44.7400 C   0  0  0  0  0  0  0  0  0  0  0  0
   45.3290   34.2220   45.7510 C   0  0  0  0  0  0  0  0  0  0  0  0
   44.5480   35.3110   45.5920 N   0  0  0  0  0  0  0  0  0  0  0  0
   44.5420   36.0450   44.4840 C   0  0  0  0  0  0  0  0  0  0  0  0
   45.3490   35.6640   43.5110 N   0  0  0  0  0  0  0  0  0  0  0  0
   47.0070   34.1260   42.4870 C   0  0  0  0  0  0  0  0  0  0  0  0
   48.3900   34.7020   42.5750 C   0  0  0  0  0  0  0  0  0  0  0  0
   48.7020   35.5860   41.4530 C   0  0  0  0  0  0  0  0  0  0  0  0
   48.5170   34.8890   40.1180 C   0  0  0  0  0  0  0  0  0  0  0  0
   47.2640   34.1030   40.0350 C   0  0  0  0  0  0  0  0  0  0  0  0
   46.3350   34.3980   41.1910 C   0  0  0  0  0  0  0  0  0  0  0  0
   46.8500   32.7370   45.0810 O   0  0  0  0  0  0  0  0  0  0  0  0
   47.1140   32.1080   46.2660 C   0  0  0  0  0  0  0  0  0  0  0  0
   47.1300   30.5880   46.1600 C   0  0  0  0  0  0  0  0  0  0  0  0
   46.2490   30.0960   45.1310 N   0  0  0  0  0  0  0  0  0  0  0  0
   45.0200   29.1440   45.9310 S   0  0  0  0  0  0  0  0  0  0  0  0
   44.0800   28.5460   44.9250 O   0  0  0  0  0  0  0  0  0  0  0  0
   44.2800   30.0510   46.8410 O   0  0  0  0  0  0  0  0  0  0  0  0
   45.7190   27.9280   46.8240 O   0  0  0  0  0  0  0  0  0  0  0  0
   44.9950   27.4830   47.8880 C   0  0  0  0  0  0  0  0  0  0  0  0
   43.7770   27.0190   47.3740 F   0  0  0  0  0  0  0  0  0  0  0  0
   44.7060   28.3930   48.8600 F   0  0  0  0  0  0  0  0  0  0  0  0
   45.6210   26.3400   48.3940 F   0  0  0  0  0  0  0  0  0  0  0  0
   45.2946   33.6526   46.6915 H   0  0  0  0  0  0  0  0  0  0  0  0
   43.8949   36.9287   44.3824 H   0  0  0  0  0  0  0  0  0  0  0  0
   47.1407   33.0367   42.5613 H   0  0  0  0  0  0  0  0  0  0  0  0
   48.4741   35.2757   43.5098 H   0  0  0  0  0  0  0  0  0  0  0  0
   49.1026   33.8645   42.5482 H   0  0  0  0  0  0  0  0  0  0  0  0
   48.0363   36.4608   41.4932 H   0  0  0  0  0  0  0  0  0  0  0  0
   49.7565   35.8873   41.5381 H   0  0  0  0  0  0  0  0  0  0  0  0
   48.5039   35.6514   39.3252 H   0  0  0  0  0  0  0  0  0  0  0  0
   49.3524   34.1830   40.0010 H   0  0  0  0  0  0  0  0  0  0  0  0
   46.7506   34.3507   39.0942 H   0  0  0  0  0  0  0  0  0  0  0  0
   47.5281   33.0359   40.0740 H   0  0  0  0  0  0  0  0  0  0  0  0
   46.0371   35.4562   41.1538 H   0  0  0  0  0  0  0  0  0  0  0  0
   45.4505   33.7493   41.1083 H   0  0  0  0  0  0  0  0  0  0  0  0
   48.0987   32.4419   46.6250 H   0  0  0  0  0  0  0  0  0  0  0  0
   46.3031   32.3743   46.9600 H   0  0  0  0  0  0  0  0  0  0  0  0
   48.1553   30.2613   45.9321 H   0  0  0  0  0  0  0  0  0  0  0  0
   46.7799   30.1828   47.1208 H   0  0  0  0  0  0  0  0  0  0  0  0
   46.7734   29.5107   44.4652 H   0  0  0  0  0  0  0  0  0  0  0  0
   43.3456   28.0788   45.3966 H   0  0  0  0  0  0  0  0  0  0  0  0
   44.4774   29.8090   47.7804 H   0  0  0  0  0  0  0  0  0  0  0  0
  1  2  2  0
  2 13  1  0
  2  3  1  0
  4  3  2  0
  5  4  1  0
  6  1  1  0
  6  5  2  0
  7  8  1  0
  7  1  1  0
  9  8  1  0
 10  9  1  0
 11 10  1  0
 11 12  1  0
 12  7  1  0
 13 14  1  0
 15 14  1  0
 16 17  1  0
 16 15  1  0
 17 20  1  0
 17 19  1  0
 18 17  1  0
 20 21  1  0
 21 24  1  0
 21 23  1  0
 22 21  1  0
  3 25  1  0
  5 26  1  0
  7 27  1  0
  8 28  1  0
  8 29  1  0
  9 30  1  0
  9 31  1  0
 10 32  1  0
 10 33  1  0
 11 34  1  0
 11 35  1  0
 12 36  1  0
 12 37  1  0
 14 38  1  0
 14 39  1  0
 15 40  1  0
 15 41  1  0
 16 42  1  0
 18 43  1  0
 19 44  1  0
M  ISO  8  25  14  26  14  27  13  28  13  29  13  30  13  31  13  32  13
M  ISO  8  33  13  34  13  35  13  36  13  37  13  38   8  39   8  40   8
M  ISO  4  41   8  42   5  43   3  44   3
M  END
>  <minimizedAffinity>  (1) 
-5.41526699

>  <minimizedRMSD>  (1) 
1.17164075

$$$$
