
     RDKit          3D

 42 45  0  0  0  0  0  0  0  0999 V2000
   44.7860   33.2160   41.0660 Cl  0  0  0  0  0  0  0  0  0  0  0  0
   46.3270   34.0090   40.8780 C   0  0  0  0  0  0  0  0  0  0  0  0
   46.8400   34.7250   41.9100 C   0  0  0  0  0  0  0  0  0  0  0  0
   48.0820   35.3750   41.7860 C   0  0  0  0  0  0  0  0  0  0  0  0
   48.7270   35.2390   40.5780 C   0  0  0  0  0  0  0  0  0  0  0  0
   48.1860   34.5030   39.5410 C   0  0  0  0  0  0  0  0  0  0  0  0
   46.9810   33.8860   39.6910 C   0  0  0  0  0  0  0  0  0  0  0  0
   45.6150   34.0150   45.3040 C   0  0  0  0  0  0  0  0  0  0  0  0
   44.7340   35.0680   45.5390 C   0  0  0  0  0  0  0  0  0  0  0  0
   44.5610   36.0160   44.5360 C   0  0  0  0  0  0  0  0  0  0  0  0
   45.2630   35.8610   43.3830 N   0  0  0  0  0  0  0  0  0  0  0  0
   46.1110   34.8370   43.1750 C   0  0  0  0  0  0  0  0  0  0  0  0
   46.2900   33.9090   44.1400 N   0  0  0  0  0  0  0  0  0  0  0  0
   46.3900   33.1020   38.6060 C   0  0  0  0  0  0  0  0  0  0  0  0
   45.1440   33.1840   38.1280 N   0  0  0  0  0  0  0  0  0  0  0  0
   45.0030   32.2850   37.1280 C   0  0  0  0  0  0  0  0  0  0  0  0
   46.1770   31.6390   36.9840 N   0  0  0  0  0  0  0  0  0  0  0  0
   47.0110   32.1390   37.8820 N   0  0  0  0  0  0  0  0  0  0  0  0
   46.5150   30.5920   36.0450 C   0  0  0  0  0  0  0  0  0  0  0  0
   47.6090   31.0930   35.1450 C   0  0  0  0  0  0  0  0  0  0  0  0
   47.7970   29.9930   34.0920 C   0  0  0  0  0  0  0  0  0  0  0  0
   46.6540   30.1620   33.1180 C   0  0  0  0  0  0  0  0  0  0  0  0
   45.3720   30.5510   33.8100 C   0  0  0  0  0  0  0  0  0  0  0  0
   45.3280   30.1060   35.2490 C   0  0  0  0  0  0  0  0  0  0  0  0
   48.5142   35.9606   42.6108 H   0  0  0  0  0  0  0  0  0  0  0  0
   49.7007   35.7300   40.4338 H   0  0  0  0  0  0  0  0  0  0  0  0
   48.7312   34.4150   38.5897 H   0  0  0  0  0  0  0  0  0  0  0  0
   45.7638   33.2535   46.0837 H   0  0  0  0  0  0  0  0  0  0  0  0
   44.1900   35.1477   46.4917 H   0  0  0  0  0  0  0  0  0  0  0  0
   43.8762   36.8660   44.6722 H   0  0  0  0  0  0  0  0  0  0  0  0
   44.0917   32.1116   36.5368 H   0  0  0  0  0  0  0  0  0  0  0  0
   46.8626   29.7165   36.6130 H   0  0  0  0  0  0  0  0  0  0  0  0
   47.3129   32.0384   34.6669 H   0  0  0  0  0  0  0  0  0  0  0  0
   48.5375   31.2956   35.6990 H   0  0  0  0  0  0  0  0  0  0  0  0
   48.7613   30.1153   33.5771 H   0  0  0  0  0  0  0  0  0  0  0  0
   47.7994   28.9912   34.5464 H   0  0  0  0  0  0  0  0  0  0  0  0
   46.4964   29.2113   32.5876 H   0  0  0  0  0  0  0  0  0  0  0  0
   46.9205   30.9691   32.4197 H   0  0  0  0  0  0  0  0  0  0  0  0
   45.2731   31.6461   33.7774 H   0  0  0  0  0  0  0  0  0  0  0  0
   44.5459   30.0513   33.2830 H   0  0  0  0  0  0  0  0  0  0  0  0
   44.4100   30.4983   35.7109 H   0  0  0  0  0  0  0  0  0  0  0  0
   45.3495   29.0062   35.2578 H   0  0  0  0  0  0  0  0  0  0  0  0
  2  1  1  0
  2  3  2  0
  3 12  1  0
  4  3  1  0
  5  4  2  0
  6  7  2  0
  6  5  1  0
  7  2  1  0
  8  9  2  0
 10  9  1  0
 11 10  2  0
 12 11  1  0
 12 13  2  0
 13  8  1  0
 14  7  1  0
 15 14  1  0
 16 15  2  0
 17 16  1  0
 17 18  1  0
 18 14  2  0
 19 17  1  0
 20 19  1  0
 21 20  1  0
 22 23  1  0
 22 21  1  0
 23 24  1  0
 24 19  1  0
  4 25  1  0
  5 26  1  0
  6 27  1  0
  8 28  1  0
  9 29  1  0
 10 30  1  0
 16 31  1  0
 19 32  1  0
 20 33  1  0
 20 34  1  0
 21 35  1  0
 21 36  1  0
 22 37  1  0
 22 38  1  0
 23 39  1  0
 23 40  1  0
 24 41  1  0
 24 42  1  0
M  ISO  8  25  14  26  14  27  14  28  14  29  14  30  14  31  14  32  13
M  ISO  8  33  13  34  13  35  13  36  13  37  13  38  13  39  13  40  13
M  ISO  2  41  13  42  13
M  END
>  <minimizedAffinity>  (1) 
-6.03440285

>  <minimizedRMSD>  (1) 
1.28474283

$$$$
