
     RDKit          3D

 36 39  0  0  0  0  0  0  0  0999 V2000
   44.7590   33.1890   41.1000 Cl  0  0  0  0  0  0  0  0  0  0  0  0
   46.3080   33.9920   40.9100 C   0  0  0  0  0  0  0  0  0  0  0  0
   46.8260   34.7110   41.9400 C   0  0  0  0  0  0  0  0  0  0  0  0
   48.0570   35.3530   41.7990 C   0  0  0  0  0  0  0  0  0  0  0  0
   48.7040   35.2250   40.5950 C   0  0  0  0  0  0  0  0  0  0  0  0
   48.1540   34.4900   39.5650 C   0  0  0  0  0  0  0  0  0  0  0  0
   46.9610   33.8710   39.7130 C   0  0  0  0  0  0  0  0  0  0  0  0
   45.6260   33.9740   45.3440 C   0  0  0  0  0  0  0  0  0  0  0  0
   44.7460   35.0300   45.5760 C   0  0  0  0  0  0  0  0  0  0  0  0
   44.5630   35.9810   44.5840 C   0  0  0  0  0  0  0  0  0  0  0  0
   45.2570   35.8380   43.4230 N   0  0  0  0  0  0  0  0  0  0  0  0
   46.1020   34.8190   43.2080 C   0  0  0  0  0  0  0  0  0  0  0  0
   46.2920   33.8770   44.1730 N   0  0  0  0  0  0  0  0  0  0  0  0
   46.3590   33.0840   38.6280 C   0  0  0  0  0  0  0  0  0  0  0  0
   45.1400   33.2240   38.0970 N   0  0  0  0  0  0  0  0  0  0  0  0
   44.9770   32.3090   37.1300 C   0  0  0  0  0  0  0  0  0  0  0  0
   46.1030   31.5810   37.0440 N   0  0  0  0  0  0  0  0  0  0  0  0
   46.9410   32.0660   37.9680 N   0  0  0  0  0  0  0  0  0  0  0  0
   47.5290   32.2180   34.4370 Cl  0  0  0  0  0  0  0  0  0  0  0  0
   47.2530   30.6110   35.0610 C   0  0  0  0  0  0  0  0  0  0  0  0
   46.5870   30.4940   36.2640 C   0  0  0  0  0  0  0  0  0  0  0  0
   46.3250   29.2540   36.8340 C   0  0  0  0  0  0  0  0  0  0  0  0
   46.7460   28.0950   36.1720 C   0  0  0  0  0  0  0  0  0  0  0  0
   47.4110   28.2270   34.9690 C   0  0  0  0  0  0  0  0  0  0  0  0
   47.9620   26.7870   34.0970 Cl  0  0  0  0  0  0  0  0  0  0  0  0
   47.6750   29.4570   34.3960 C   0  0  0  0  0  0  0  0  0  0  0  0
   48.4924   35.9394   42.6215 H   0  0  0  0  0  0  0  0  0  0  0  0
   49.6771   35.7166   40.4490 H   0  0  0  0  0  0  0  0  0  0  0  0
   48.6936   34.4064   38.6101 H   0  0  0  0  0  0  0  0  0  0  0  0
   45.7795   33.2121   46.1224 H   0  0  0  0  0  0  0  0  0  0  0  0
   44.2055   35.1074   46.5309 H   0  0  0  0  0  0  0  0  0  0  0  0
   43.8760   36.8273   44.7317 H   0  0  0  0  0  0  0  0  0  0  0  0
   44.0759   32.1772   36.5131 H   0  0  0  0  0  0  0  0  0  0  0  0
   45.7930   29.1842   37.7942 H   0  0  0  0  0  0  0  0  0  0  0  0
   46.5514   27.1008   36.6006 H   0  0  0  0  0  0  0  0  0  0  0  0
   48.2068   29.5258   33.4355 H   0  0  0  0  0  0  0  0  0  0  0  0
  2  1  1  0
  2  3  2  0
  3 12  1  0
  4  3  1  0
  5  4  2  0
  6  7  2  0
  6  5  1  0
  7  2  1  0
  8  9  2  0
 10  9  1  0
 11 10  2  0
 12 11  1  0
 12 13  2  0
 13  8  1  0
 14  7  1  0
 15 14  1  0
 16 15  2  0
 17 16  1  0
 17 18  1  0
 18 14  2  0
 19 20  1  0
 20 21  2  0
 21 22  1  0
 21 17  1  0
 23 22  2  0
 24 23  1  0
 25 24  1  0
 26 24  2  0
 26 20  1  0
  4 27  1  0
  5 28  1  0
  6 29  1  0
  8 30  1  0
  9 31  1  0
 10 32  1  0
 16 33  1  0
 22 34  1  0
 23 35  1  0
 26 36  1  0
M  ISO  8  27  14  28  14  29  14  30  14  31  14  32  14  33  14  34  14
M  ISO  2  35  14  36  14
M  END
>  <minimizedAffinity>  (1) 
-5.79437876

>  <minimizedRMSD>  (1) 
1.58531392

$$$$
