
     RDKit          3D

 36 39  0  0  0  0  0  0  0  0999 V2000
   44.7470   33.1590   41.0990 Cl  0  0  0  0  0  0  0  0  0  0  0  0
   46.2840   33.9560   40.8970 C   0  0  0  0  0  0  0  0  0  0  0  0
   46.8170   34.7030   41.9150 C   0  0  0  0  0  0  0  0  0  0  0  0
   48.0500   35.3470   41.7680 C   0  0  0  0  0  0  0  0  0  0  0  0
   48.6910   35.1950   40.5650 C   0  0  0  0  0  0  0  0  0  0  0  0
   48.1470   34.4370   39.5340 C   0  0  0  0  0  0  0  0  0  0  0  0
   46.9430   33.8140   39.6940 C   0  0  0  0  0  0  0  0  0  0  0  0
   45.5900   34.0330   45.3150 C   0  0  0  0  0  0  0  0  0  0  0  0
   44.7180   35.0960   45.5390 C   0  0  0  0  0  0  0  0  0  0  0  0
   44.5530   36.0370   44.5290 C   0  0  0  0  0  0  0  0  0  0  0  0
   45.2530   35.8580   43.3870 N   0  0  0  0  0  0  0  0  0  0  0  0
   46.0950   34.8300   43.1720 C   0  0  0  0  0  0  0  0  0  0  0  0
   46.2630   33.9060   44.1550 N   0  0  0  0  0  0  0  0  0  0  0  0
   46.3500   33.0160   38.6340 C   0  0  0  0  0  0  0  0  0  0  0  0
   45.4040   33.4010   37.7570 N   0  0  0  0  0  0  0  0  0  0  0  0
   45.1410   32.3530   36.9450 C   0  0  0  0  0  0  0  0  0  0  0  0
   45.9200   31.3110   37.3100 N   0  0  0  0  0  0  0  0  0  0  0  0
   46.6460   31.7410   38.3400 N   0  0  0  0  0  0  0  0  0  0  0  0
   45.9660   30.0090   36.7220 C   0  0  0  0  0  0  0  0  0  0  0  0
   45.2450   29.0090   37.3470 C   0  0  0  0  0  0  0  0  0  0  0  0
   45.2590   27.7190   36.8110 C   0  0  0  0  0  0  0  0  0  0  0  0
   46.0030   27.5110   35.6670 C   0  0  0  0  0  0  0  0  0  0  0  0
   46.7240   28.5190   35.0450 C   0  0  0  0  0  0  0  0  0  0  0  0
   46.7110   29.8090   35.5800 C   0  0  0  0  0  0  0  0  0  0  0  0
   48.4856   35.9478   42.5800 H   0  0  0  0  0  0  0  0  0  0  0  0
   49.6630   35.6867   40.4115 H   0  0  0  0  0  0  0  0  0  0  0  0
   48.6907   34.3387   38.5828 H   0  0  0  0  0  0  0  0  0  0  0  0
   45.7324   33.2797   46.1038 H   0  0  0  0  0  0  0  0  0  0  0  0
   44.1740   35.1885   46.4906 H   0  0  0  0  0  0  0  0  0  0  0  0
   43.8773   36.8959   44.6548 H   0  0  0  0  0  0  0  0  0  0  0  0
   44.4118   32.3490   36.1214 H   0  0  0  0  0  0  0  0  0  0  0  0
   44.6663   29.2266   38.2568 H   0  0  0  0  0  0  0  0  0  0  0  0
   44.6978   26.8992   37.2832 H   0  0  0  0  0  0  0  0  0  0  0  0
   46.0249   26.5018   35.2298 H   0  0  0  0  0  0  0  0  0  0  0  0
   47.3032   28.3037   34.1349 H   0  0  0  0  0  0  0  0  0  0  0  0
   47.2716   30.6304   35.1099 H   0  0  0  0  0  0  0  0  0  0  0  0
  2  1  1  0
  2  3  2  0
  3 12  1  0
  4  3  1  0
  5  4  2  0
  6  7  2  0
  6  5  1  0
  7  2  1  0
  8  9  2  0
 10  9  1  0
 11 10  2  0
 12 11  1  0
 12 13  2  0
 13  8  1  0
 14  7  1  0
 15 14  1  0
 16 17  1  0
 16 15  2  0
 17 18  1  0
 18 14  2  0
 19 17  1  0
 19 20  2  0
 21 20  1  0
 22 21  2  0
 23 24  2  0
 23 22  1  0
 24 19  1  0
  4 25  1  0
  5 26  1  0
  6 27  1  0
  8 28  1  0
  9 29  1  0
 10 30  1  0
 16 31  1  0
 20 32  1  0
 21 33  1  0
 22 34  1  0
 23 35  1  0
 24 36  1  0
M  ISO  8  25  14  26  14  27  14  28  14  29  14  30  14  31  14  32  14
M  ISO  4  33  14  34  14  35  14  36  14
M  END
>  <minimizedAffinity>  (1) 
-5.3999505

>  <minimizedRMSD>  (1) 
0.230919823

$$$$
