
     RDKit          3D

 35 38  0  0  0  0  0  0  0  0999 V2000
   44.7530   33.1670   41.1050 Cl  0  0  0  0  0  0  0  0  0  0  0  0
   46.2930   33.9590   40.8880 C   0  0  0  0  0  0  0  0  0  0  0  0
   46.8090   34.7020   41.9150 C   0  0  0  0  0  0  0  0  0  0  0  0
   48.0420   35.3480   41.7660 C   0  0  0  0  0  0  0  0  0  0  0  0
   48.6890   35.2000   40.5670 C   0  0  0  0  0  0  0  0  0  0  0  0
   48.1500   34.4450   39.5440 C   0  0  0  0  0  0  0  0  0  0  0  0
   46.9580   33.8270   39.7020 C   0  0  0  0  0  0  0  0  0  0  0  0
   45.5960   34.0300   45.3200 C   0  0  0  0  0  0  0  0  0  0  0  0
   44.7200   35.0970   45.5420 C   0  0  0  0  0  0  0  0  0  0  0  0
   44.5540   36.0370   44.5240 C   0  0  0  0  0  0  0  0  0  0  0  0
   45.2440   35.8630   43.3860 N   0  0  0  0  0  0  0  0  0  0  0  0
   46.0840   34.8340   43.1790 C   0  0  0  0  0  0  0  0  0  0  0  0
   46.2610   33.9160   44.1470 N   0  0  0  0  0  0  0  0  0  0  0  0
   46.3580   33.0180   38.6340 C   0  0  0  0  0  0  0  0  0  0  0  0
   45.3910   33.3770   37.7820 N   0  0  0  0  0  0  0  0  0  0  0  0
   45.1340   32.3390   36.9630 C   0  0  0  0  0  0  0  0  0  0  0  0
   45.9410   31.3150   37.2950 N   0  0  0  0  0  0  0  0  0  0  0  0
   46.6880   31.7430   38.3210 N   0  0  0  0  0  0  0  0  0  0  0  0
   46.1810   29.9820   36.8550 C   0  0  0  0  0  0  0  0  0  0  0  0
   47.4860   29.4960   36.7160 C   0  0  0  0  0  0  0  0  0  0  0  0
   47.6560   28.1770   36.2800 C   0  0  0  0  0  0  0  0  0  0  0  0
   46.5170   27.4180   36.0070 C   0  0  0  0  0  0  0  0  0  0  0  0
   45.2390   27.9530   36.1620 C   0  0  0  0  0  0  0  0  0  0  0  0
   45.0700   29.2350   36.5860 N   0  0  0  0  0  0  0  0  0  0  0  0
   48.4742   35.9502   42.5787 H   0  0  0  0  0  0  0  0  0  0  0  0
   49.6601   35.6940   40.4160 H   0  0  0  0  0  0  0  0  0  0  0  0
   48.6946   34.3457   38.5935 H   0  0  0  0  0  0  0  0  0  0  0  0
   45.7460   33.2759   46.1066 H   0  0  0  0  0  0  0  0  0  0  0  0
   44.1763   35.1929   46.4934 H   0  0  0  0  0  0  0  0  0  0  0  0
   43.8776   36.8952   44.6505 H   0  0  0  0  0  0  0  0  0  0  0  0
   44.3871   32.3300   36.1555 H   0  0  0  0  0  0  0  0  0  0  0  0
   48.3537   30.1328   36.9430 H   0  0  0  0  0  0  0  0  0  0  0  0
   48.6618   27.7494   36.1556 H   0  0  0  0  0  0  0  0  0  0  0  0
   46.6297   26.3791   35.6634 H   0  0  0  0  0  0  0  0  0  0  0  0
   44.3584   27.3326   35.9393 H   0  0  0  0  0  0  0  0  0  0  0  0
  2  1  1  0
  2  3  2  0
  3 12  1  0
  4  3  1  0
  5  4  2  0
  6  7  2  0
  6  5  1  0
  7  2  1  0
  8  9  2  0
 10  9  1  0
 11 10  2  0
 12 11  1  0
 12 13  2  0
 13  8  1  0
 14  7  1  0
 15 14  1  0
 16 17  1  0
 16 15  2  0
 17 18  1  0
 18 14  2  0
 19 17  1  0
 20 19  2  0
 21 20  1  0
 22 23  1  0
 22 21  2  0
 23 24  2  0
 24 19  1  0
  4 25  1  0
  5 26  1  0
  6 27  1  0
  8 28  1  0
  9 29  1  0
 10 30  1  0
 16 31  1  0
 20 32  1  0
 21 33  1  0
 22 34  1  0
 23 35  1  0
M  ISO  8  25  14  26  14  27  14  28  14  29  14  30  14  31  14  32  14
M  ISO  3  33  14  34  14  35  14
M  END
>  <minimizedAffinity>  (1) 
-5.34231186

>  <minimizedRMSD>  (1) 
0.286659449

$$$$
