
     RDKit          3D

 29 31  0  0  0  0  0  0  0  0999 V2000
   44.7820   33.1380   41.1100 Cl  0  0  0  0  0  0  0  0  0  0  0  0
   46.3240   33.9560   40.8900 C   0  0  0  0  0  0  0  0  0  0  0  0
   46.8200   34.7110   41.9110 C   0  0  0  0  0  0  0  0  0  0  0  0
   48.0490   35.3790   41.7690 C   0  0  0  0  0  0  0  0  0  0  0  0
   48.6930   35.2180   40.5620 C   0  0  0  0  0  0  0  0  0  0  0  0
   48.1740   34.4500   39.5400 C   0  0  0  0  0  0  0  0  0  0  0  0
   46.9860   33.8170   39.7060 C   0  0  0  0  0  0  0  0  0  0  0  0
   45.6050   34.0360   45.3160 C   0  0  0  0  0  0  0  0  0  0  0  0
   44.7240   35.0960   45.5300 C   0  0  0  0  0  0  0  0  0  0  0  0
   44.5470   36.0370   44.5170 C   0  0  0  0  0  0  0  0  0  0  0  0
   45.2430   35.8750   43.3640 N   0  0  0  0  0  0  0  0  0  0  0  0
   46.0890   34.8460   43.1730 C   0  0  0  0  0  0  0  0  0  0  0  0
   46.2780   33.9140   44.1500 N   0  0  0  0  0  0  0  0  0  0  0  0
   46.4040   32.9970   38.6550 C   0  0  0  0  0  0  0  0  0  0  0  0
   45.4690   33.3610   37.7550 N   0  0  0  0  0  0  0  0  0  0  0  0
   45.2050   32.3040   36.9570 C   0  0  0  0  0  0  0  0  0  0  0  0
   45.9720   31.2650   37.3470 N   0  0  0  0  0  0  0  0  0  0  0  0
   46.6870   31.7110   38.3770 N   0  0  0  0  0  0  0  0  0  0  0  0
   46.0560   29.9120   36.8110 C   0  0  0  0  0  0  0  0  0  0  0  0
   44.7830   29.6110   36.3240 F   0  0  0  0  0  0  0  0  0  0  0  0
   46.4560   29.0050   37.7890 F   0  0  0  0  0  0  0  0  0  0  0  0
   47.0020   29.9510   35.7960 F   0  0  0  0  0  0  0  0  0  0  0  0
   48.4722   35.9952   42.5759 H   0  0  0  0  0  0  0  0  0  0  0  0
   49.6587   35.7214   40.4069 H   0  0  0  0  0  0  0  0  0  0  0  0
   48.7230   34.3512   38.5919 H   0  0  0  0  0  0  0  0  0  0  0  0
   45.7545   33.2877   46.1083 H   0  0  0  0  0  0  0  0  0  0  0  0
   44.1788   35.1877   46.4810 H   0  0  0  0  0  0  0  0  0  0  0  0
   43.8619   36.8874   44.6489 H   0  0  0  0  0  0  0  0  0  0  0  0
   44.4839   32.2922   36.1264 H   0  0  0  0  0  0  0  0  0  0  0  0
  2  1  1  0
  2  3  2  0
  3 12  1  0
  4  3  1  0
  5  4  2  0
  6  7  2  0
  6  5  1  0
  7  2  1  0
  8  9  2  0
 10  9  1  0
 11 10  2  0
 12 11  1  0
 12 13  2  0
 13  8  1  0
 14  7  1  0
 15 14  1  0
 16 17  1  0
 16 15  2  0
 17 18  1  0
 18 14  2  0
 19 17  1  0
 19 21  1  0
 20 19  1  0
 22 19  1  0
  4 23  1  0
  5 24  1  0
  6 25  1  0
  8 26  1  0
  9 27  1  0
 10 28  1  0
 16 29  1  0
M  ISO  7  23  14  24  14  25  14  26  14  27  14  28  14  29  14
M  END
>  <minimizedAffinity>  (1) 
-5.30904007

>  <minimizedRMSD>  (1) 
0.18385236

$$$$
