
     RDKit          3D

 34 37  0  0  0  0  0  0  0  0999 V2000
   48.8550   35.4750   41.1820 C   0  0  0  0  0  0  0  0  0  0  0  0
   48.3370   34.9450   39.9800 C   0  0  0  0  0  0  0  0  0  0  0  0
   47.2500   34.0660   40.0580 C   0  0  0  0  0  0  0  0  0  0  0  0
   46.7700   33.7830   41.2920 N   0  0  0  0  0  0  0  0  0  0  0  0
   47.2690   34.2900   42.4200 C   0  0  0  0  0  0  0  0  0  0  0  0
   48.3280   35.1510   42.3780 N   0  0  0  0  0  0  0  0  0  0  0  0
   45.3950   32.9590   38.8070 C   0  0  0  0  0  0  0  0  0  0  0  0
   46.6540   33.4740   38.8690 C   0  0  0  0  0  0  0  0  0  0  0  0
   47.3990   33.4220   37.7140 C   0  0  0  0  0  0  0  0  0  0  0  0
   46.9010   32.8750   36.5450 C   0  0  0  0  0  0  0  0  0  0  0  0
   47.4250   32.7120   35.3130 N   0  0  0  0  0  0  0  0  0  0  0  0
   46.5060   32.1150   34.5290 C   0  0  0  0  0  0  0  0  0  0  0  0
   45.3530   31.8740   35.2440 C   0  0  0  0  0  0  0  0  0  0  0  0
   45.6130   32.3590   36.5180 C   0  0  0  0  0  0  0  0  0  0  0  0
   44.8340   32.3970   37.6740 C   0  0  0  0  0  0  0  0  0  0  0  0
   45.0270   36.0590   43.4700 Cl  0  0  0  0  0  0  0  0  0  0  0  0
   45.7090   34.6930   44.2940 C   0  0  0  0  0  0  0  0  0  0  0  0
   46.7230   33.9610   43.7220 C   0  0  0  0  0  0  0  0  0  0  0  0
   47.1900   32.8940   44.4690 C   0  0  0  0  0  0  0  0  0  0  0  0
   46.7240   32.5250   45.7110 C   0  0  0  0  0  0  0  0  0  0  0  0
   45.7080   33.2780   46.2570 C   0  0  0  0  0  0  0  0  0  0  0  0
   45.1310   32.8040   47.8340 Cl  0  0  0  0  0  0  0  0  0  0  0  0
   45.2000   34.3590   45.5550 C   0  0  0  0  0  0  0  0  0  0  0  0
   49.7082   36.1681   41.1404 H   0  0  0  0  0  0  0  0  0  0  0  0
   48.7758   35.2155   39.0083 H   0  0  0  0  0  0  0  0  0  0  0  0
   44.7822   32.9920   39.7199 H   0  0  0  0  0  0  0  0  0  0  0  0
   48.4215   33.8275   37.7200 H   0  0  0  0  0  0  0  0  0  0  0  0
   48.3706   32.9966   35.0201 H   0  0  0  0  0  0  0  0  0  0  0  0
   46.6549   31.8570   33.4701 H   0  0  0  0  0  0  0  0  0  0  0  0
   44.4280   31.4003   34.8835 H   0  0  0  0  0  0  0  0  0  0  0  0
   43.8103   31.9946   37.6847 H   0  0  0  0  0  0  0  0  0  0  0  0
   48.0007   32.2906   44.0347 H   0  0  0  0  0  0  0  0  0  0  0  0
   47.1468   31.6622   46.2465 H   0  0  0  0  0  0  0  0  0  0  0  0
   44.3894   34.9604   45.9922 H   0  0  0  0  0  0  0  0  0  0  0  0
  1  6  2  0
  2  3  2  0
  2  1  1  0
  3  4  1  0
  4  5  2  0
  5 18  1  0
  6  5  1  0
  7  8  2  0
  8  3  1  0
  9  8  1  0
 10  9  2  0
 11 10  1  0
 12 13  2  0
 12 11  1  0
 13 14  1  0
 14 10  1  0
 14 15  2  0
 15  7  1  0
 16 17  1  0
 17 23  2  0
 18 17  1  0
 18 19  2  0
 19 20  1  0
 20 21  2  0
 21 22  1  0
 23 21  1  0
  1 24  1  0
  2 25  1  0
  7 26  1  0
  9 27  1  0
 11 28  1  0
 12 29  1  0
 13 30  1  0
 15 31  1  0
 19 32  1  0
 20 33  1  0
 23 34  1  0
M  ISO  8  24  14  25  14  26  14  27  14  28   9  29  14  30  14  31  14
M  ISO  3  32  14  33  14  34  14
M  END
>  <minimizedAffinity>  (1) 
-6.32864523

>  <minimizedRMSD>  (1) 
0.273525238

$$$$
