
     RDKit          3D

 34 36  0  0  0  0  0  0  0  0999 V2000
   48.6700   35.2420   41.1870 C   0  0  0  0  0  0  0  0  0  0  0  0
   48.0990   34.7080   40.0250 C   0  0  0  0  0  0  0  0  0  0  0  0
   47.0050   33.8430   40.1800 C   0  0  0  0  0  0  0  0  0  0  0  0
   46.5750   33.5820   41.4340 N   0  0  0  0  0  0  0  0  0  0  0  0
   47.1310   34.0990   42.5330 C   0  0  0  0  0  0  0  0  0  0  0  0
   48.1960   34.9440   42.4070 N   0  0  0  0  0  0  0  0  0  0  0  0
   44.9320   35.8730   43.6420 Cl  0  0  0  0  0  0  0  0  0  0  0  0
   45.6590   34.5330   44.4720 C   0  0  0  0  0  0  0  0  0  0  0  0
   46.6490   33.8030   43.8650 C   0  0  0  0  0  0  0  0  0  0  0  0
   47.1630   32.7590   44.6060 C   0  0  0  0  0  0  0  0  0  0  0  0
   46.7630   32.4080   45.8790 C   0  0  0  0  0  0  0  0  0  0  0  0
   45.7620   33.1730   46.4510 C   0  0  0  0  0  0  0  0  0  0  0  0
   45.2760   32.7030   48.0670 Cl  0  0  0  0  0  0  0  0  0  0  0  0
   45.2160   34.2230   45.7580 C   0  0  0  0  0  0  0  0  0  0  0  0
   46.4120   33.2910   39.0110 N   0  0  0  0  0  0  0  0  0  0  0  0
   44.9710   33.1670   39.0100 C   0  0  0  0  0  0  0  0  0  0  0  0
   44.5930   32.8310   37.5650 C   0  0  0  0  0  0  0  0  0  0  0  0
   45.3020   33.6550   36.6340 N   0  0  0  0  0  0  0  0  0  0  0  0
   46.6770   33.2000   36.5690 C   0  0  0  0  0  0  0  0  0  0  0  0
   47.2670   32.8910   37.9090 C   0  0  0  0  0  0  0  0  0  0  0  0
   49.5291   35.9232   41.0976 H   0  0  0  0  0  0  0  0  0  0  0  0
   48.4931   34.9572   39.0287 H   0  0  0  0  0  0  0  0  0  0  0  0
   47.9582   32.1560   44.1433 H   0  0  0  0  0  0  0  0  0  0  0  0
   47.2179   31.5609   46.4133 H   0  0  0  0  0  0  0  0  0  0  0  0
   44.4212   34.8265   46.2206 H   0  0  0  0  0  0  0  0  0  0  0  0
   44.6536   32.3612   39.6882 H   0  0  0  0  0  0  0  0  0  0  0  0
   44.4808   34.0884   39.3574 H   0  0  0  0  0  0  0  0  0  0  0  0
   44.8366   31.7767   37.3674 H   0  0  0  0  0  0  0  0  0  0  0  0
   43.5157   33.0135   37.4379 H   0  0  0  0  0  0  0  0  0  0  0  0
   44.8673   33.5805   35.7032 H   0  0  0  0  0  0  0  0  0  0  0  0
   46.7136   32.2888   35.9539 H   0  0  0  0  0  0  0  0  0  0  0  0
   47.2691   34.0196   36.1358 H   0  0  0  0  0  0  0  0  0  0  0  0
   47.4390   31.8065   37.9746 H   0  0  0  0  0  0  0  0  0  0  0  0
   48.2036   33.4614   37.9955 H   0  0  0  0  0  0  0  0  0  0  0  0
  1  6  2  0
  2  3  2  0
  2  1  1  0
  3  4  1  0
  4  5  2  0
  5  9  1  0
  6  5  1  0
  7  8  1  0
  8 14  2  0
  9  8  1  0
  9 10  2  0
 10 11  1  0
 11 12  2  0
 12 13  1  0
 14 12  1  0
 15  3  1  0
 16 15  1  0
 17 16  1  0
 18 17  1  0
 19 18  1  0
 19 20  1  0
 20 15  1  0
  1 21  1  0
  2 22  1  0
 10 23  1  0
 11 24  1  0
 14 25  1  0
 16 26  1  0
 16 27  1  0
 17 28  1  0
 17 29  1  0
 18 30  1  0
 19 31  1  0
 19 32  1  0
 20 33  1  0
 20 34  1  0
M  ISO  8  21  14  22  14  23  14  24  14  25  14  26  13  27  13  28  13
M  ISO  6  29  13  30   5  31  13  32  13  33  13  34  13
M  END
>  <minimizedAffinity>  (1) 
-5.86814594

>  <minimizedRMSD>  (1) 
0.506361961

$$$$
