
     RDKit          3D

 30 32  0  0  0  0  0  0  0  0999 V2000
   48.8630   35.6270   41.0220 C   0  0  0  0  0  0  0  0  0  0  0  0
   48.4790   34.9500   39.8430 C   0  0  0  0  0  0  0  0  0  0  0  0
   47.4900   33.9620   39.9400 C   0  0  0  0  0  0  0  0  0  0  0  0
   46.9680   33.7230   41.1630 N   0  0  0  0  0  0  0  0  0  0  0  0
   47.3370   34.3680   42.2690 C   0  0  0  0  0  0  0  0  0  0  0  0
   48.2980   35.3380   42.2120 N   0  0  0  0  0  0  0  0  0  0  0  0
   44.9910   36.0890   43.1440 Cl  0  0  0  0  0  0  0  0  0  0  0  0
   45.6870   34.7970   44.0630 C   0  0  0  0  0  0  0  0  0  0  0  0
   46.7520   34.0840   43.5620 C   0  0  0  0  0  0  0  0  0  0  0  0
   47.2330   33.0710   44.3800 C   0  0  0  0  0  0  0  0  0  0  0  0
   46.7310   32.7400   45.6230 C   0  0  0  0  0  0  0  0  0  0  0  0
   45.6590   33.4850   46.0870 C   0  0  0  0  0  0  0  0  0  0  0  0
   45.0350   33.0580   47.6630 Cl  0  0  0  0  0  0  0  0  0  0  0  0
   45.1470   34.5010   45.3140 C   0  0  0  0  0  0  0  0  0  0  0  0
   48.1220   34.7930   37.3820 F   0  0  0  0  0  0  0  0  0  0  0  0
   47.3680   33.6590   37.5240 C   0  0  0  0  0  0  0  0  0  0  0  0
   47.0330   33.2120   38.7790 C   0  0  0  0  0  0  0  0  0  0  0  0
   46.2800   32.0750   38.8280 C   0  0  0  0  0  0  0  0  0  0  0  0
   45.8730   31.4040   37.6730 C   0  0  0  0  0  0  0  0  0  0  0  0
   46.2230   31.8710   36.4360 C   0  0  0  0  0  0  0  0  0  0  0  0
   46.9870   33.0250   36.3740 C   0  0  0  0  0  0  0  0  0  0  0  0
   49.6383   36.4054   40.9683 H   0  0  0  0  0  0  0  0  0  0  0  0
   48.9435   35.1917   38.8756 H   0  0  0  0  0  0  0  0  0  0  0  0
   48.0847   32.4832   44.0071 H   0  0  0  0  0  0  0  0  0  0  0  0
   47.1627   31.9217   46.2180 H   0  0  0  0  0  0  0  0  0  0  0  0
   44.2971   35.0900   45.6891 H   0  0  0  0  0  0  0  0  0  0  0  0
   45.9842   31.6742   39.8087 H   0  0  0  0  0  0  0  0  0  0  0  0
   45.2652   30.4912   37.7588 H   0  0  0  0  0  0  0  0  0  0  0  0
   45.9084   31.3478   35.5210 H   0  0  0  0  0  0  0  0  0  0  0  0
   47.2878   33.4322   35.3974 H   0  0  0  0  0  0  0  0  0  0  0  0
  1  6  2  0
  2  3  2  0
  2  1  1  0
  3  4  1  0
  4  5  2  0
  5  9  1  0
  6  5  1  0
  7  8  1  0
  8 14  2  0
  9  8  1  0
  9 10  2  0
 10 11  1  0
 11 12  2  0
 12 13  1  0
 14 12  1  0
 15 16  1  0
 16 17  2  0
 17 18  1  0
 17  3  1  0
 19 18  2  0
 20 19  1  0
 21 20  2  0
 21 16  1  0
  1 22  1  0
  2 23  1  0
 10 24  1  0
 11 25  1  0
 14 26  1  0
 18 27  1  0
 19 28  1  0
 20 29  1  0
 21 30  1  0
M  ISO  8  22  14  23  14  24  14  25  14  26  14  27  14  28  14  29  14
M  ISO  1  30  14
M  END
>  <minimizedAffinity>  (1) 
-5.82394934

>  <minimizedRMSD>  (1) 
0.430241078

$$$$
