
     RDKit          3D

 33 35  0  0  0  0  0  0  0  0999 V2000
   48.6790   35.3660   41.1970 C   0  0  0  0  0  0  0  0  0  0  0  0
   48.2260   34.7170   40.0510 C   0  0  0  0  0  0  0  0  0  0  0  0
   47.2240   33.7430   40.1840 C   0  0  0  0  0  0  0  0  0  0  0  0
   46.7650   33.5020   41.4350 N   0  0  0  0  0  0  0  0  0  0  0  0
   47.2110   34.1340   42.5240 C   0  0  0  0  0  0  0  0  0  0  0  0
   48.1700   35.0680   42.4050 N   0  0  0  0  0  0  0  0  0  0  0  0
   44.9730   35.9280   43.5590 Cl  0  0  0  0  0  0  0  0  0  0  0  0
   45.6740   34.5840   44.4220 C   0  0  0  0  0  0  0  0  0  0  0  0
   46.6840   33.8410   43.8550 C   0  0  0  0  0  0  0  0  0  0  0  0
   47.1630   32.8090   44.6180 C   0  0  0  0  0  0  0  0  0  0  0  0
   46.7120   32.4740   45.8810 C   0  0  0  0  0  0  0  0  0  0  0  0
   45.7010   33.2440   46.4100 C   0  0  0  0  0  0  0  0  0  0  0  0
   45.1680   32.7750   48.0120 Cl  0  0  0  0  0  0  0  0  0  0  0  0
   45.1820   34.2950   45.6860 C   0  0  0  0  0  0  0  0  0  0  0  0
   46.6350   32.9780   39.1570 N   0  0  0  0  0  0  0  0  0  0  0  0
   45.2250   32.6760   39.0630 C   0  0  0  0  0  0  0  0  0  0  0  0
   44.6010   32.8790   37.7420 C   0  0  0  0  0  0  0  0  0  0  0  0
   45.4930   33.1760   36.5990 C   0  0  0  0  0  0  0  0  0  0  0  0
   46.9500   33.2530   36.8560 C   0  0  0  0  0  0  0  0  0  0  0  0
   47.3530   32.3820   38.0450 C   0  0  0  0  0  0  0  0  0  0  0  0
   49.4635   36.1324   41.1126 H   0  0  0  0  0  0  0  0  0  0  0  0
   48.6441   34.9622   39.0636 H   0  0  0  0  0  0  0  0  0  0  0  0
   47.9717   32.1976   44.1912 H   0  0  0  0  0  0  0  0  0  0  0  0
   47.1421   31.6292   46.4389 H   0  0  0  0  0  0  0  0  0  0  0  0
   44.3739   34.9075   46.1124 H   0  0  0  0  0  0  0  0  0  0  0  0
   44.6493   32.3150   39.9280 H   0  0  0  0  0  0  0  0  0  0  0  0
   43.5109   32.8120   37.6110 H   0  0  0  0  0  0  0  0  0  0  0  0
   45.1821   34.1465   36.1849 H   0  0  0  0  0  0  0  0  0  0  0  0
   45.3774   32.3118   35.9283 H   0  0  0  0  0  0  0  0  0  0  0  0
   47.4899   32.9094   35.9613 H   0  0  0  0  0  0  0  0  0  0  0  0
   47.2058   34.2971   37.0892 H   0  0  0  0  0  0  0  0  0  0  0  0
   47.0434   31.3378   37.8909 H   0  0  0  0  0  0  0  0  0  0  0  0
   48.4409   32.3492   38.2043 H   0  0  0  0  0  0  0  0  0  0  0  0
  1  6  2  0
  2  3  2  0
  2  1  1  0
  3  4  1  0
  4  5  2  0
  5  9  1  0
  6  5  1  0
  7  8  1  0
  8 14  2  0
  9  8  1  0
  9 10  2  0
 10 11  1  0
 11 12  2  0
 12 13  1  0
 14 12  1  0
 15  3  1  0
 16 15  1  0
 17 16  2  0
 18 19  1  0
 18 17  1  0
 19 20  1  0
 20 15  1  0
  1 21  1  0
  2 22  1  0
 10 23  1  0
 11 24  1  0
 14 25  1  0
 16 26  1  0
 17 27  1  0
 18 28  1  0
 18 29  1  0
 19 30  1  0
 19 31  1  0
 20 32  1  0
 20 33  1  0
M  ISO  8  21  14  22  14  23  14  24  14  25  14  26  13  27  13  28  13
M  ISO  5  29  13  30  13  31  13  32  13  33  13
M  END
>  <minimizedAffinity>  (1) 
-5.49026394

>  <minimizedRMSD>  (1) 
0.425908983

$$$$
