
     RDKit          3D

 36 38  0  0  0  0  0  0  0  0999 V2000
   48.6500   35.3280   40.8530 C   0  0  0  0  0  0  0  0  0  0  0  0
   48.1430   34.6690   39.7210 C   0  0  0  0  0  0  0  0  0  0  0  0
   47.0920   33.7330   39.8910 C   0  0  0  0  0  0  0  0  0  0  0  0
   46.6490   33.5410   41.1510 N   0  0  0  0  0  0  0  0  0  0  0  0
   47.1520   34.1870   42.2290 C   0  0  0  0  0  0  0  0  0  0  0  0
   48.1520   35.0790   42.0780 N   0  0  0  0  0  0  0  0  0  0  0  0
   44.9030   35.9710   43.2220 Cl  0  0  0  0  0  0  0  0  0  0  0  0
   45.6340   34.6780   44.1250 C   0  0  0  0  0  0  0  0  0  0  0  0
   46.6370   33.9450   43.5770 C   0  0  0  0  0  0  0  0  0  0  0  0
   47.1660   32.9310   44.3670 C   0  0  0  0  0  0  0  0  0  0  0  0
   46.7370   32.6380   45.6450 C   0  0  0  0  0  0  0  0  0  0  0  0
   45.7120   33.4060   46.1730 C   0  0  0  0  0  0  0  0  0  0  0  0
   45.2080   32.9920   47.7960 Cl  0  0  0  0  0  0  0  0  0  0  0  0
   45.1700   34.4130   45.4190 C   0  0  0  0  0  0  0  0  0  0  0  0
   46.4760   32.9790   38.7870 C   0  0  0  0  0  0  0  0  0  0  0  0
   46.9540   33.4260   37.4310 C   0  0  0  0  0  0  0  0  0  0  0  0
   46.0350   33.0730   36.3170 C   0  0  0  0  0  0  0  0  0  0  0  0
   45.0910   31.9510   36.5640 C   0  0  0  0  0  0  0  0  0  0  0  0
   44.4990   31.8840   37.9350 C   0  0  0  0  0  0  0  0  0  0  0  0
   44.9670   33.0170   38.8240 C   0  0  0  0  0  0  0  0  0  0  0  0
   49.4651   36.0574   40.7366 H   0  0  0  0  0  0  0  0  0  0  0  0
   48.5536   34.8753   38.7216 H   0  0  0  0  0  0  0  0  0  0  0  0
   47.9798   32.3225   43.9457 H   0  0  0  0  0  0  0  0  0  0  0  0
   47.1933   31.8223   46.2251 H   0  0  0  0  0  0  0  0  0  0  0  0
   44.3564   35.0238   45.8373 H   0  0  0  0  0  0  0  0  0  0  0  0
   46.8038   31.9408   38.9439 H   0  0  0  0  0  0  0  0  0  0  0  0
   47.0709   34.5196   37.4491 H   0  0  0  0  0  0  0  0  0  0  0  0
   47.9013   32.9007   37.2394 H   0  0  0  0  0  0  0  0  0  0  0  0
   46.6524   32.8045   35.4471 H   0  0  0  0  0  0  0  0  0  0  0  0
   45.4005   33.9598   36.1718 H   0  0  0  0  0  0  0  0  0  0  0  0
   44.2642   32.0419   35.8442 H   0  0  0  0  0  0  0  0  0  0  0  0
   45.6856   31.0323   36.4519 H   0  0  0  0  0  0  0  0  0  0  0  0
   43.4034   31.9323   37.8491 H   0  0  0  0  0  0  0  0  0  0  0  0
   44.8270   30.9403   38.3953 H   0  0  0  0  0  0  0  0  0  0  0  0
   44.6061   32.8698   39.8526 H   0  0  0  0  0  0  0  0  0  0  0  0
   44.5798   33.9868   38.4782 H   0  0  0  0  0  0  0  0  0  0  0  0
  1  6  2  0
  2  3  2  0
  2  1  1  0
  3  4  1  0
  4  5  2  0
  5  9  1  0
  6  5  1  0
  7  8  1  0
  8 14  2  0
  9  8  1  0
  9 10  2  0
 10 11  1  0
 11 12  2  0
 12 13  1  0
 14 12  1  0
 15 20  1  0
 15  3  1  0
 16 15  1  0
 17 18  1  0
 17 16  1  0
 18 19  1  0
 19 20  1  0
  1 21  1  0
  2 22  1  0
 10 23  1  0
 11 24  1  0
 14 25  1  0
 15 26  1  0
 16 27  1  0
 16 28  1  0
 17 29  1  0
 17 30  1  0
 18 31  1  0
 18 32  1  0
 19 33  1  0
 19 34  1  0
 20 35  1  0
 20 36  1  0
M  ISO  8  21  14  22  14  23  14  24  14  25  14  26  13  27  13  28  13
M  ISO  8  29  13  30  13  31  13  32  13  33  13  34  13  35  13  36  13
M  END
>  <minimizedAffinity>  (1) 
-5.4415164

>  <minimizedRMSD>  (1) 
0.509926558

$$$$
