
     RDKit          3D

 27 29  0  0  0  0  0  0  0  0999 V2000
   48.9140   35.5530   41.3020 C   0  0  0  0  0  0  0  0  0  0  0  0
   48.4340   35.0340   40.0870 C   0  0  0  0  0  0  0  0  0  0  0  0
   47.3590   34.1340   40.1360 C   0  0  0  0  0  0  0  0  0  0  0  0
   46.8380   33.8110   41.3500 N   0  0  0  0  0  0  0  0  0  0  0  0
   47.3280   34.3340   42.4990 C   0  0  0  0  0  0  0  0  0  0  0  0
   48.3580   35.1970   42.4710 N   0  0  0  0  0  0  0  0  0  0  0  0
   45.0530   36.0550   43.5410 Cl  0  0  0  0  0  0  0  0  0  0  0  0
   45.7340   34.6750   44.3610 C   0  0  0  0  0  0  0  0  0  0  0  0
   46.7610   33.9780   43.7910 C   0  0  0  0  0  0  0  0  0  0  0  0
   47.2270   32.9100   44.5210 C   0  0  0  0  0  0  0  0  0  0  0  0
   46.7340   32.5160   45.7510 C   0  0  0  0  0  0  0  0  0  0  0  0
   45.7020   33.2410   46.2900 C   0  0  0  0  0  0  0  0  0  0  0  0
   45.1150   32.7030   47.8450 Cl  0  0  0  0  0  0  0  0  0  0  0  0
   45.2030   34.3160   45.5990 C   0  0  0  0  0  0  0  0  0  0  0  0
   46.8240   33.5670   38.9040 C   0  0  0  0  0  0  0  0  0  0  0  0
   47.4730   33.5750   37.7010 C   0  0  0  0  0  0  0  0  0  0  0  0
   46.5860   32.9310   36.8390 C   0  0  0  0  0  0  0  0  0  0  0  0
   45.4590   32.5780   37.5870 C   0  0  0  0  0  0  0  0  0  0  0  0
   45.6580   32.9880   38.8300 O   0  0  0  0  0  0  0  0  0  0  0  0
   49.7564   36.2603   41.2949 H   0  0  0  0  0  0  0  0  0  0  0  0
   48.8872   35.3245   39.1277 H   0  0  0  0  0  0  0  0  0  0  0  0
   48.0548   32.3248   44.0940 H   0  0  0  0  0  0  0  0  0  0  0  0
   47.1558   31.6489   46.2804 H   0  0  0  0  0  0  0  0  0  0  0  0
   44.3752   34.9009   46.0263 H   0  0  0  0  0  0  0  0  0  0  0  0
   48.4637   33.9921   37.4674 H   0  0  0  0  0  0  0  0  0  0  0  0
   46.7440   32.7366   35.7679 H   0  0  0  0  0  0  0  0  0  0  0  0
   44.5679   32.0542   37.2108 H   0  0  0  0  0  0  0  0  0  0  0  0
  1  6  2  0
  2  3  2  0
  2  1  1  0
  3  4  1  0
  4  5  2  0
  5  9  1  0
  6  5  1  0
  7  8  1  0
  8 14  2  0
  9  8  1  0
  9 10  2  0
 10 11  1  0
 11 12  2  0
 12 13  1  0
 14 12  1  0
 15  3  1  0
 16 15  2  0
 17 18  2  0
 17 16  1  0
 18 19  1  0
 19 15  1  0
  1 20  1  0
  2 21  1  0
 10 22  1  0
 11 23  1  0
 14 24  1  0
 16 25  1  0
 17 26  1  0
 18 27  1  0
M  ISO  8  20  14  21  14  22  14  23  14  24  14  25  14  26  14  27  14
M  END
>  <minimizedAffinity>  (1) 
-5.39381647

>  <minimizedRMSD>  (1) 
0.604188442

$$$$
