
     RDKit          3D

 23 24  0  0  0  0  0  0  0  0999 V2000
   48.8640   35.5590   40.9770 C   0  0  0  0  0  0  0  0  0  0  0  0
   48.4090   34.9350   39.7950 C   0  0  0  0  0  0  0  0  0  0  0  0
   47.3650   33.9980   39.8810 C   0  0  0  0  0  0  0  0  0  0  0  0
   46.8690   33.7650   41.1180 N   0  0  0  0  0  0  0  0  0  0  0  0
   47.3050   34.3600   42.2320 C   0  0  0  0  0  0  0  0  0  0  0  0
   48.3050   35.2590   42.1590 N   0  0  0  0  0  0  0  0  0  0  0  0
   44.9850   36.0980   43.1440 Cl  0  0  0  0  0  0  0  0  0  0  0  0
   45.6800   34.7950   44.0520 C   0  0  0  0  0  0  0  0  0  0  0  0
   46.7320   34.0700   43.5420 C   0  0  0  0  0  0  0  0  0  0  0  0
   47.2170   33.0540   44.3380 C   0  0  0  0  0  0  0  0  0  0  0  0
   46.7240   32.7290   45.5840 C   0  0  0  0  0  0  0  0  0  0  0  0
   45.6750   33.4680   46.0670 C   0  0  0  0  0  0  0  0  0  0  0  0
   45.0830   33.0170   47.6530 Cl  0  0  0  0  0  0  0  0  0  0  0  0
   45.1550   34.4890   45.3150 C   0  0  0  0  0  0  0  0  0  0  0  0
   46.8470   33.3110   38.6720 C   0  0  0  0  0  0  0  0  0  0  0  0
   47.3560   32.0340   38.5490 F   0  0  0  0  0  0  0  0  0  0  0  0
   45.4680   33.2240   38.6480 F   0  0  0  0  0  0  0  0  0  0  0  0
   47.2320   33.9740   37.5040 F   0  0  0  0  0  0  0  0  0  0  0  0
   49.6805   36.2945   40.9284 H   0  0  0  0  0  0  0  0  0  0  0  0
   48.8639   35.1781   38.8234 H   0  0  0  0  0  0  0  0  0  0  0  0
   48.0580   32.4598   43.9511 H   0  0  0  0  0  0  0  0  0  0  0  0
   47.1573   31.9053   46.1703 H   0  0  0  0  0  0  0  0  0  0  0  0
   44.3129   35.0772   45.7086 H   0  0  0  0  0  0  0  0  0  0  0  0
  1  6  2  0
  2  3  2  0
  2  1  1  0
  3  4  1  0
  4  5  2  0
  5  9  1  0
  6  5  1  0
  7  8  1  0
  8 14  2  0
  9  8  1  0
  9 10  2  0
 10 11  1  0
 11 12  2  0
 12 13  1  0
 14 12  1  0
 15  3  1  0
 16 15  1  0
 17 15  1  0
 18 15  1  0
  1 19  1  0
  2 20  1  0
 10 21  1  0
 11 22  1  0
 14 23  1  0
M  ISO  5  19  14  20  14  21  14  22  14  23  14
M  END
>  <minimizedAffinity>  (1) 
-5.20501375

>  <minimizedRMSD>  (1) 
0.305752337

$$$$
