
     RDKit          3D

 27 29  0  0  0  0  0  0  0  0999 V2000
   44.9890   36.0880   43.1650 Cl  0  0  0  0  0  0  0  0  0  0  0  0
   45.6890   34.7800   44.0710 C   0  0  0  0  0  0  0  0  0  0  0  0
   46.7410   34.0570   43.5610 C   0  0  0  0  0  0  0  0  0  0  0  0
   47.2190   33.0450   44.3580 C   0  0  0  0  0  0  0  0  0  0  0  0
   46.7260   32.7150   45.6060 C   0  0  0  0  0  0  0  0  0  0  0  0
   45.6690   33.4680   46.0780 C   0  0  0  0  0  0  0  0  0  0  0  0
   45.0810   33.0090   47.6620 Cl  0  0  0  0  0  0  0  0  0  0  0  0
   45.1570   34.4890   45.3200 C   0  0  0  0  0  0  0  0  0  0  0  0
   48.8480   35.5520   40.9740 C   0  0  0  0  0  0  0  0  0  0  0  0
   48.4070   34.9270   39.7960 C   0  0  0  0  0  0  0  0  0  0  0  0
   47.3750   33.9830   39.8980 C   0  0  0  0  0  0  0  0  0  0  0  0
   46.8790   33.7440   41.1330 N   0  0  0  0  0  0  0  0  0  0  0  0
   47.3110   34.3500   42.2520 C   0  0  0  0  0  0  0  0  0  0  0  0
   48.3010   35.2580   42.1680 N   0  0  0  0  0  0  0  0  0  0  0  0
   46.8520   33.2760   38.6860 C   0  0  0  0  0  0  0  0  0  0  0  0
   47.4080   33.7090   37.3300 C   0  0  0  0  0  0  0  0  0  0  0  0
   47.7110   32.3330   37.9490 C   0  0  0  0  0  0  0  0  0  0  0  0
   48.0604   32.4507   43.9722 H   0  0  0  0  0  0  0  0  0  0  0  0
   47.1552   31.8915   46.1956 H   0  0  0  0  0  0  0  0  0  0  0  0
   44.3159   35.0840   45.7053 H   0  0  0  0  0  0  0  0  0  0  0  0
   49.6562   36.2962   40.9196 H   0  0  0  0  0  0  0  0  0  0  0  0
   48.8576   35.1707   38.8226 H   0  0  0  0  0  0  0  0  0  0  0  0
   45.8507   33.1869   39.1327 H   0  0  0  0  0  0  0  0  0  0  0  0
   48.1927   34.4775   37.2694 H   0  0  0  0  0  0  0  0  0  0  0  0
   46.9884   34.0767   36.3820 H   0  0  0  0  0  0  0  0  0  0  0  0
   47.2741   31.4256   37.5066 H   0  0  0  0  0  0  0  0  0  0  0  0
   48.6309   31.7787   38.1866 H   0  0  0  0  0  0  0  0  0  0  0  0
  1  2  1  0
  2  8  2  0
  3  2  1  0
  3  4  2  0
  4  5  1  0
  5  6  2  0
  6  7  1  0
  8  6  1  0
  9 14  2  0
 10 11  2  0
 10  9  1  0
 11 12  1  0
 12 13  2  0
 13  3  1  0
 14 13  1  0
 15 11  1  0
 16 17  1  0
 16 15  1  0
 17 15  1  0
  4 18  1  0
  5 19  1  0
  8 20  1  0
  9 21  1  0
 10 22  1  0
 15 23  1  0
 16 24  1  0
 16 25  1  0
 17 26  1  0
 17 27  1  0
M  ISO  8  18  14  19  14  20  14  21  14  22  14  23  13  24  13  25  13
M  ISO  2  26  13  27  13
M  END
>  <minimizedAffinity>  (1) 
-5.12087917

>  <minimizedRMSD>  (1) 
0.212200567

$$$$
