
     RDKit          3D

 26 27  0  0  0  0  0  0  0  0999 V2000
   45.0550   36.0870   43.2830 Cl  0  0  0  0  0  0  0  0  0  0  0  0
   45.7500   34.7400   44.1430 C   0  0  0  0  0  0  0  0  0  0  0  0
   46.7920   34.0320   43.6110 C   0  0  0  0  0  0  0  0  0  0  0  0
   47.2640   32.9880   44.3840 C   0  0  0  0  0  0  0  0  0  0  0  0
   46.7670   32.6260   45.6170 C   0  0  0  0  0  0  0  0  0  0  0  0
   45.7210   33.3590   46.1190 C   0  0  0  0  0  0  0  0  0  0  0  0
   45.1020   32.8840   47.6890 Cl  0  0  0  0  0  0  0  0  0  0  0  0
   45.2090   34.4080   45.3970 C   0  0  0  0  0  0  0  0  0  0  0  0
   48.9090   35.6230   41.0970 C   0  0  0  0  0  0  0  0  0  0  0  0
   48.4900   35.0130   39.9050 C   0  0  0  0  0  0  0  0  0  0  0  0
   47.4740   34.0510   39.9740 C   0  0  0  0  0  0  0  0  0  0  0  0
   46.9560   33.7660   41.1940 N   0  0  0  0  0  0  0  0  0  0  0  0
   47.3640   34.3550   42.3200 C   0  0  0  0  0  0  0  0  0  0  0  0
   48.3370   35.2790   42.2610 N   0  0  0  0  0  0  0  0  0  0  0  0
   47.0450   33.4150   38.7010 C   0  0  0  0  0  0  0  0  0  0  0  0
   47.8020   33.9780   37.5200 C   0  0  0  0  0  0  0  0  0  0  0  0
   48.1026   32.3997   43.9832 H   0  0  0  0  0  0  0  0  0  0  0  0
   47.1927   31.7810   46.1781 H   0  0  0  0  0  0  0  0  0  0  0  0
   44.3700   34.9926   45.8023 H   0  0  0  0  0  0  0  0  0  0  0  0
   49.7050   36.3819   41.0773 H   0  0  0  0  0  0  0  0  0  0  0  0
   48.9472   35.2830   38.9417 H   0  0  0  0  0  0  0  0  0  0  0  0
   47.2304   32.3324   38.7617 H   0  0  0  0  0  0  0  0  0  0  0  0
   45.9742   33.6204   38.5553 H   0  0  0  0  0  0  0  0  0  0  0  0
   48.6358   34.5981   37.8808 H   0  0  0  0  0  0  0  0  0  0  0  0
   48.1965   33.1521   36.9099 H   0  0  0  0  0  0  0  0  0  0  0  0
   47.1245   34.5935   36.9099 H   0  0  0  0  0  0  0  0  0  0  0  0
  1  2  1  0
  2  8  2  0
  3  2  1  0
  3  4  2  0
  4  5  1  0
  5  6  2  0
  6  7  1  0
  8  6  1  0
  9 14  2  0
 10 11  2  0
 10  9  1  0
 11 12  1  0
 12 13  2  0
 13  3  1  0
 14 13  1  0
 15 11  1  0
 16 15  1  0
  4 17  1  0
  5 18  1  0
  8 19  1  0
  9 20  1  0
 10 21  1  0
 15 22  1  0
 15 23  1  0
 16 24  1  0
 16 25  1  0
 16 26  1  0
M  ISO  8  17  14  18  14  19  14  20  14  21  14  22   8  23   8  24   8
M  ISO  2  25   8  26   8
M  END
>  <minimizedAffinity>  (1) 
-5.04539394

>  <minimizedRMSD>  (1) 
0.444430888

$$$$
