
     RDKit          3D

 22 23  0  0  0  0  0  0  0  0999 V2000
   44.9760   36.0050   43.2680 Cl  0  0  0  0  0  0  0  0  0  0  0  0
   45.6880   34.6820   44.1570 C   0  0  0  0  0  0  0  0  0  0  0  0
   46.7110   33.9390   43.6130 C   0  0  0  0  0  0  0  0  0  0  0  0
   47.2000   32.9230   44.3900 C   0  0  0  0  0  0  0  0  0  0  0  0
   46.7360   32.6110   45.6530 C   0  0  0  0  0  0  0  0  0  0  0  0
   45.7080   33.3780   46.1650 C   0  0  0  0  0  0  0  0  0  0  0  0
   45.1710   32.9150   47.7670 Cl  0  0  0  0  0  0  0  0  0  0  0  0
   45.1850   34.4070   45.4240 C   0  0  0  0  0  0  0  0  0  0  0  0
   48.7550   35.4160   40.9650 C   0  0  0  0  0  0  0  0  0  0  0  0
   48.2830   34.7940   39.8120 C   0  0  0  0  0  0  0  0  0  0  0  0
   47.2490   33.8510   39.9390 C   0  0  0  0  0  0  0  0  0  0  0  0
   46.7750   33.6090   41.1880 N   0  0  0  0  0  0  0  0  0  0  0  0
   47.2420   34.2200   42.2880 C   0  0  0  0  0  0  0  0  0  0  0  0
   48.2360   35.1250   42.1710 N   0  0  0  0  0  0  0  0  0  0  0  0
   46.6910   33.1550   38.8290 N   0  0  0  0  0  0  0  0  0  0  0  0
   48.0187   32.3133   43.9801 H   0  0  0  0  0  0  0  0  0  0  0  0
   47.1698   31.7813   46.2304 H   0  0  0  0  0  0  0  0  0  0  0  0
   44.3656   35.0163   45.8330 H   0  0  0  0  0  0  0  0  0  0  0  0
   49.5647   36.1566   40.8882 H   0  0  0  0  0  0  0  0  0  0  0  0
   48.7088   35.0348   38.8267 H   0  0  0  0  0  0  0  0  0  0  0  0
   45.9335   32.4729   38.9768 H   0  0  0  0  0  0  0  0  0  0  0  0
   47.0449   33.3337   37.8784 H   0  0  0  0  0  0  0  0  0  0  0  0
  1  2  1  0
  2  8  2  0
  3  2  1  0
  3  4  2  0
  4  5  1  0
  5  6  2  0
  6  7  1  0
  8  6  1  0
  9 14  2  0
 10 11  2  0
 10  9  1  0
 11 12  1  0
 12 13  2  0
 13  3  1  0
 14 13  1  0
 15 11  1  0
  4 16  1  0
  5 17  1  0
  8 18  1  0
  9 19  1  0
 10 20  1  0
 15 21  1  0
 15 22  1  0
M  ISO  5  16  14  17  14  18  14  19  14  20  14
M  END
>  <minimizedAffinity>  (1) 
-4.90937901

>  <minimizedRMSD>  (1) 
0.0236601252

$$$$
