
     RDKit          3D

 22 23  0  0  0  0  0  0  0  0999 V2000
   45.0010   36.0530   43.2050 Cl  0  0  0  0  0  0  0  0  0  0  0  0
   45.7060   34.7300   44.1000 C   0  0  0  0  0  0  0  0  0  0  0  0
   46.7460   34.0060   43.5680 C   0  0  0  0  0  0  0  0  0  0  0  0
   47.2230   32.9910   44.3530 C   0  0  0  0  0  0  0  0  0  0  0  0
   46.7490   32.6510   45.6090 C   0  0  0  0  0  0  0  0  0  0  0  0
   45.7070   33.4030   46.1020 C   0  0  0  0  0  0  0  0  0  0  0  0
   45.1260   32.9460   47.7010 Cl  0  0  0  0  0  0  0  0  0  0  0  0
   45.1860   34.4330   45.3610 C   0  0  0  0  0  0  0  0  0  0  0  0
   48.8380   35.5370   40.9950 C   0  0  0  0  0  0  0  0  0  0  0  0
   48.3910   34.9120   39.8160 C   0  0  0  0  0  0  0  0  0  0  0  0
   47.3640   33.9600   39.9170 C   0  0  0  0  0  0  0  0  0  0  0  0
   46.8630   33.6990   41.1470 N   0  0  0  0  0  0  0  0  0  0  0  0
   47.3000   34.3030   42.2550 C   0  0  0  0  0  0  0  0  0  0  0  0
   48.2970   35.2320   42.1890 N   0  0  0  0  0  0  0  0  0  0  0  0
   46.8770   33.2950   38.7260 C   0  0  0  0  0  0  0  0  0  0  0  0
   47.2580   33.6810   37.5910 O   0  0  0  0  0  0  0  0  0  0  0  0
   48.0548   32.3937   43.9513 H   0  0  0  0  0  0  0  0  0  0  0  0
   47.1840   31.8206   46.1845 H   0  0  0  0  0  0  0  0  0  0  0  0
   44.3532   35.0287   45.7629 H   0  0  0  0  0  0  0  0  0  0  0  0
   49.6416   36.2861   40.9398 H   0  0  0  0  0  0  0  0  0  0  0  0
   48.8345   35.1627   38.8411 H   0  0  0  0  0  0  0  0  0  0  0  0
   46.1745   32.4531   38.8139 H   0  0  0  0  0  0  0  0  0  0  0  0
  1  2  1  0
  2  8  2  0
  3  2  1  0
  3  4  2  0
  4  5  1  0
  5  6  2  0
  6  7  1  0
  8  6  1  0
  9 14  2  0
 10 11  2  0
 10  9  1  0
 11 12  1  0
 12 13  2  0
 13  3  1  0
 14 13  1  0
 15 11  1  0
 16 15  2  0
  4 17  1  0
  5 18  1  0
  8 19  1  0
  9 20  1  0
 10 21  1  0
 15 22  1  0
M  ISO  6  17  14  18  14  19  14  20  14  21  14  22   6
M  END
>  <minimizedAffinity>  (1) 
-4.90589476

>  <minimizedRMSD>  (1) 
0.214265466

$$$$
