
     RDKit          3D

 21 22  0  0  0  0  0  0  0  0999 V2000
   44.9700   36.0110   43.2750 Cl  0  0  0  0  0  0  0  0  0  0  0  0
   45.6750   34.6970   44.1540 C   0  0  0  0  0  0  0  0  0  0  0  0
   46.6990   33.9530   43.6150 C   0  0  0  0  0  0  0  0  0  0  0  0
   47.1890   32.9340   44.3900 C   0  0  0  0  0  0  0  0  0  0  0  0
   46.7440   32.6010   45.6460 C   0  0  0  0  0  0  0  0  0  0  0  0
   45.7100   33.3650   46.1720 C   0  0  0  0  0  0  0  0  0  0  0  0
   45.1630   32.9230   47.7690 Cl  0  0  0  0  0  0  0  0  0  0  0  0
   45.1910   34.3940   45.4290 C   0  0  0  0  0  0  0  0  0  0  0  0
   48.7720   35.4090   40.9720 C   0  0  0  0  0  0  0  0  0  0  0  0
   48.2780   34.8120   39.8140 C   0  0  0  0  0  0  0  0  0  0  0  0
   47.2210   33.8980   39.9350 C   0  0  0  0  0  0  0  0  0  0  0  0
   46.7490   33.6570   41.1820 N   0  0  0  0  0  0  0  0  0  0  0  0
   47.2350   34.2380   42.2800 C   0  0  0  0  0  0  0  0  0  0  0  0
   48.2590   35.1260   42.1810 N   0  0  0  0  0  0  0  0  0  0  0  0
   46.6220   33.2250   38.8860 O   0  0  0  0  0  0  0  0  0  0  0  0
   48.0083   32.3318   43.9703 H   0  0  0  0  0  0  0  0  0  0  0  0
   47.1866   31.7667   46.2101 H   0  0  0  0  0  0  0  0  0  0  0  0
   44.3719   34.9969   45.8480 H   0  0  0  0  0  0  0  0  0  0  0  0
   49.6007   36.1282   40.8946 H   0  0  0  0  0  0  0  0  0  0  0  0
   48.7063   35.0515   38.8295 H   0  0  0  0  0  0  0  0  0  0  0  0
   45.8789   32.5950   39.0620 H   0  0  0  0  0  0  0  0  0  0  0  0
  1  2  1  0
  2  8  2  0
  3  2  1  0
  3  4  2  0
  4  5  1  0
  5  6  2  0
  6  7  1  0
  8  6  1  0
  9 14  2  0
 10 11  2  0
 10  9  1  0
 11 12  1  0
 12 13  2  0
 13  3  1  0
 14 13  1  0
 15 11  1  0
  4 16  1  0
  5 17  1  0
  8 18  1  0
  9 19  1  0
 10 20  1  0
 15 21  1  0
M  ISO  6  16  14  17  14  18  14  19  14  20  14  21   3
M  END
>  <minimizedAffinity>  (1) 
-4.90291929

>  <minimizedRMSD>  (1) 
0.0175076984

$$$$
