
     RDKit          3D

 36 39  0  0  0  0  0  0  0  0999 V2000
   48.6490   35.5260   40.7660 C   0  0  0  0  0  0  0  0  0  0  0  0
   48.4480   34.6290   39.7040 C   0  0  0  0  0  0  0  0  0  0  0  0
   47.7220   33.4690   39.9310 C   0  0  0  0  0  0  0  0  0  0  0  0
   47.2350   33.2680   41.1810 N   0  0  0  0  0  0  0  0  0  0  0  0
   47.4240   34.1300   42.1920 C   0  0  0  0  0  0  0  0  0  0  0  0
   48.1360   35.2620   41.9880 N   0  0  0  0  0  0  0  0  0  0  0  0
   45.0380   35.9050   42.9150 Cl  0  0  0  0  0  0  0  0  0  0  0  0
   45.7380   34.6640   43.9260 C   0  0  0  0  0  0  0  0  0  0  0  0
   46.8270   33.9090   43.4910 C   0  0  0  0  0  0  0  0  0  0  0  0
   47.2780   32.9720   44.3570 C   0  0  0  0  0  0  0  0  0  0  0  0
   46.7480   32.7210   45.6070 C   0  0  0  0  0  0  0  0  0  0  0  0
   45.6680   33.4850   46.0150 C   0  0  0  0  0  0  0  0  0  0  0  0
   45.0640   33.1120   47.6150 Cl  0  0  0  0  0  0  0  0  0  0  0  0
   45.1670   34.4520   45.1770 C   0  0  0  0  0  0  0  0  0  0  0  0
   48.3810   34.3670   37.1520 Cl  0  0  0  0  0  0  0  0  0  0  0  0
   47.6940   32.8180   37.5850 C   0  0  0  0  0  0  0  0  0  0  0  0
   47.5220   32.5030   38.8910 C   0  0  0  0  0  0  0  0  0  0  0  0
   47.1080   31.2000   39.1140 C   0  0  0  0  0  0  0  0  0  0  0  0
   46.8700   30.2610   38.1310 C   0  0  0  0  0  0  0  0  0  0  0  0
   47.0510   30.6340   36.8130 C   0  0  0  0  0  0  0  0  0  0  0  0
   47.4650   31.9230   36.5610 C   0  0  0  0  0  0  0  0  0  0  0  0
   47.6610   32.3320   35.1710 C   0  0  0  0  0  0  0  0  0  0  0  0
   48.8040   32.6190   34.5430 N   0  0  0  0  0  0  0  0  0  0  0  0
   48.5760   32.9600   33.2460 C   0  0  0  0  0  0  0  0  0  0  0  0
   47.2430   32.8770   33.0790 N   0  0  0  0  0  0  0  0  0  0  0  0
   46.7140   32.5030   34.2320 N   0  0  0  0  0  0  0  0  0  0  0  0
   49.2267   36.4477   40.6022 H   0  0  0  0  0  0  0  0  0  0  0  0
   48.8602   34.8432   38.7069 H   0  0  0  0  0  0  0  0  0  0  0  0
   48.1359   32.3611   44.0395 H   0  0  0  0  0  0  0  0  0  0  0  0
   47.1698   31.9401   46.2569 H   0  0  0  0  0  0  0  0  0  0  0  0
   44.3095   35.0621   45.4971 H   0  0  0  0  0  0  0  0  0  0  0  0
   46.9568   30.8888   40.1582 H   0  0  0  0  0  0  0  0  0  0  0  0
   46.5448   29.2426   38.3900 H   0  0  0  0  0  0  0  0  0  0  0  0
   46.8703   29.9246   35.9919 H   0  0  0  0  0  0  0  0  0  0  0  0
   49.3244   33.2441   32.4916 H   0  0  0  0  0  0  0  0  0  0  0  0
   46.7271   33.0702   32.2087 H   0  0  0  0  0  0  0  0  0  0  0  0
  1  6  2  0
  2  3  2  0
  2  1  1  0
  3  4  1  0
  4  5  2  0
  5  9  1  0
  6  5  1  0
  7  8  1  0
  8 14  2  0
  9  8  1  0
  9 10  2  0
 10 11  1  0
 11 12  2  0
 12 13  1  0
 14 12  1  0
 15 16  1  0
 16 17  2  0
 17 18  1  0
 17  3  1  0
 19 18  2  0
 20 19  1  0
 21 20  2  0
 21 16  1  0
 22 21  1  0
 23 22  1  0
 24 23  2  0
 25 24  1  0
 25 26  1  0
 26 22  2  0
  1 27  1  0
  2 28  1  0
 10 29  1  0
 11 30  1  0
 14 31  1  0
 18 32  1  0
 19 33  1  0
 20 34  1  0
 24 35  1  0
 25 36  1  0
M  ISO  8  27  14  28  14  29  14  30  14  31  14  32  14  33  14  34  14
M  ISO  2  35  14  36   9
M  END
>  <minimizedAffinity>  (1) 
-6.68352461

>  <minimizedRMSD>  (1) 
0.958545089

$$$$
