
     RDKit          3D

 41 44  0  0  1  0  0  0  0  0999 V2000
   48.7060   35.5070   40.8360 C   0  0  0  0  0  0  0  0  0  0  0  0
   48.4130   34.6850   39.7380 C   0  0  0  0  0  0  0  0  0  0  0  0
   47.6030   33.5750   39.9280 C   0  0  0  0  0  0  0  0  0  0  0  0
   47.1320   33.3570   41.1790 N   0  0  0  0  0  0  0  0  0  0  0  0
   47.4120   34.1510   42.2260 C   0  0  0  0  0  0  0  0  0  0  0  0
   48.2020   35.2260   42.0580 N   0  0  0  0  0  0  0  0  0  0  0  0
   45.0760   35.9490   43.0210 Cl  0  0  0  0  0  0  0  0  0  0  0  0
   45.7610   34.6730   44.0000 C   0  0  0  0  0  0  0  0  0  0  0  0
   46.8290   33.9090   43.5310 C   0  0  0  0  0  0  0  0  0  0  0  0
   47.2720   32.9410   44.3700 C   0  0  0  0  0  0  0  0  0  0  0  0
   46.7310   32.6910   45.6230 C   0  0  0  0  0  0  0  0  0  0  0  0
   45.6830   33.4560   46.0580 C   0  0  0  0  0  0  0  0  0  0  0  0
   45.0910   33.0350   47.6540 Cl  0  0  0  0  0  0  0  0  0  0  0  0
   45.1980   34.4420   45.2560 C   0  0  0  0  0  0  0  0  0  0  0  0
   48.2340   34.5720   37.1780 Cl  0  0  0  0  0  0  0  0  0  0  0  0
   47.5070   33.0190   37.5570 C   0  0  0  0  0  0  0  0  0  0  0  0
   47.3160   32.6660   38.8520 C   0  0  0  0  0  0  0  0  0  0  0  0
   46.8400   31.3820   39.0420 C   0  0  0  0  0  0  0  0  0  0  0  0
   46.5570   30.4790   38.0390 C   0  0  0  0  0  0  0  0  0  0  0  0
   46.7630   30.8820   36.7310 C   0  0  0  0  0  0  0  0  0  0  0  0
   47.2430   32.1660   36.4960 C   0  0  0  0  0  0  0  0  0  0  0  0
   45.2980   32.5400   34.3400 O   0  0  0  0  0  0  0  0  0  0  0  0
   46.4440   32.0040   34.1470 C   0  0  0  0  0  0  0  0  0  0  0  0
   47.4380   32.5340   35.0830 C   0  0  2  0  0  0  0  0  0  0  0  0
   48.7390   31.8430   34.6490 C   0  0  0  0  0  0  0  0  0  0  0  0
   48.3430   30.6900   33.7930 C   0  0  0  0  0  0  0  0  0  0  0  0
   47.0330   31.0230   33.2670 N   0  0  0  0  0  0  0  0  0  0  0  0
   49.3513   36.3876   40.7014 H   0  0  0  0  0  0  0  0  0  0  0  0
   48.8190   34.9168   38.7423 H   0  0  0  0  0  0  0  0  0  0  0  0
   48.1127   32.3147   44.0368 H   0  0  0  0  0  0  0  0  0  0  0  0
   47.1384   31.8899   46.2572 H   0  0  0  0  0  0  0  0  0  0  0  0
   44.3564   35.0614   45.5997 H   0  0  0  0  0  0  0  0  0  0  0  0
   46.6733   31.0537   40.0785 H   0  0  0  0  0  0  0  0  0  0  0  0
   46.1801   29.4719   38.2707 H   0  0  0  0  0  0  0  0  0  0  0  0
   46.5513   30.2003   35.8940 H   0  0  0  0  0  0  0  0  0  0  0  0
   47.4006   33.6327   35.0442 H   0  0  0  0  0  0  0  0  0  0  0  0
   49.3676   32.5418   34.0776 H   0  0  0  0  0  0  0  0  0  0  0  0
   49.3207   31.5087   35.5207 H   0  0  0  0  0  0  0  0  0  0  0  0
   49.0632   30.5565   32.9723 H   0  0  0  0  0  0  0  0  0  0  0  0
   48.3245   29.7491   34.3626 H   0  0  0  0  0  0  0  0  0  0  0  0
   46.6009   30.6303   32.4185 H   0  0  0  0  0  0  0  0  0  0  0  0
  1  6  2  0
  2  3  2  0
  2  1  1  0
  3  4  1  0
  4  5  2  0
  5  9  1  0
  6  5  1  0
  7  8  1  0
  8 14  2  0
  9  8  1  0
  9 10  2  0
 10 11  1  0
 11 12  2  0
 12 13  1  0
 14 12  1  0
 15 16  1  0
 16 17  2  0
 17 18  1  0
 17  3  1  0
 19 18  2  0
 20 19  1  0
 21 20  2  0
 21 16  1  0
 23 22  2  0
 23 24  1  0
 24 21  1  0
 25 24  1  0
 26 25  1  0
 27 26  1  0
 27 23  1  0
  1 28  1  0
  2 29  1  0
 10 30  1  0
 11 31  1  0
 14 32  1  0
 18 33  1  0
 19 34  1  0
 20 35  1  0
 24 36  1  1
 25 37  1  0
 25 38  1  0
 26 39  1  0
 26 40  1  0
 27 41  1  0
M  ISO  8  28  14  29  14  30  14  31  14  32  14  33  14  34  14  35  14
M  ISO  6  36  13  37  13  38  13  39  13  40  13  41  10
M  END
>  <minimizedAffinity>  (1) 
-6.51741219

>  <minimizedRMSD>  (1) 
0.894919038

$$$$
