
     RDKit          3D

 44 47  0  0  0  0  0  0  0  0999 V2000
   49.2690   33.1760   37.7310 Cl  0  0  0  0  0  0  0  0  0  0  0  0
   47.5330   33.0230   37.6120 C   0  0  0  0  0  0  0  0  0  0  0  0
   46.7680   33.3400   38.6770 C   0  0  0  0  0  0  0  0  0  0  0  0
   45.4340   33.0090   38.5290 C   0  0  0  0  0  0  0  0  0  0  0  0
   44.8720   32.4110   37.4180 C   0  0  0  0  0  0  0  0  0  0  0  0
   45.7030   32.1180   36.3590 C   0  0  0  0  0  0  0  0  0  0  0  0
   47.0610   32.4330   36.4630 C   0  0  0  0  0  0  0  0  0  0  0  0
   47.8260   32.0850   35.2590 C   0  0  0  0  0  0  0  0  0  0  0  0
   48.4850   30.7310   35.2510 C   0  0  0  0  0  0  0  0  0  0  0  0
   48.9840   30.5240   33.8330 C   0  0  0  0  0  0  0  0  0  0  0  0
   49.3580   31.7520   33.2860 O   0  0  0  0  0  0  0  0  0  0  0  0
   48.2360   32.5060   32.9150 C   0  0  0  0  0  0  0  0  0  0  0  0
   47.1180   32.2310   33.9500 C   0  0  0  0  0  0  0  0  0  0  0  0
   48.8620   35.4990   40.8890 C   0  0  0  0  0  0  0  0  0  0  0  0
   48.3380   34.9190   39.7210 C   0  0  0  0  0  0  0  0  0  0  0  0
   47.3150   33.9910   39.8320 C   0  0  0  0  0  0  0  0  0  0  0  0
   46.8710   33.7020   41.0770 N   0  0  0  0  0  0  0  0  0  0  0  0
   47.3700   34.2620   42.1920 C   0  0  0  0  0  0  0  0  0  0  0  0
   48.3700   35.1620   42.1030 N   0  0  0  0  0  0  0  0  0  0  0  0
   45.0680   36.0390   43.1310 Cl  0  0  0  0  0  0  0  0  0  0  0  0
   45.7670   34.7110   44.0270 C   0  0  0  0  0  0  0  0  0  0  0  0
   46.8150   33.9620   43.4960 C   0  0  0  0  0  0  0  0  0  0  0  0
   47.2700   32.9500   44.2750 C   0  0  0  0  0  0  0  0  0  0  0  0
   46.7630   32.6360   45.5270 C   0  0  0  0  0  0  0  0  0  0  0  0
   45.7330   33.3870   46.0270 C   0  0  0  0  0  0  0  0  0  0  0  0
   45.1720   32.9010   47.6130 Cl  0  0  0  0  0  0  0  0  0  0  0  0
   45.2340   34.4240   45.2780 C   0  0  0  0  0  0  0  0  0  0  0  0
   44.7622   33.2419   39.3683 H   0  0  0  0  0  0  0  0  0  0  0  0
   43.7979   32.1768   37.3801 H   0  0  0  0  0  0  0  0  0  0  0  0
   45.3055   31.6451   35.4488 H   0  0  0  0  0  0  0  0  0  0  0  0
   48.5962   32.8658   35.3430 H   0  0  0  0  0  0  0  0  0  0  0  0
   49.3257   30.7097   35.9601 H   0  0  0  0  0  0  0  0  0  0  0  0
   47.7857   29.9380   35.5545 H   0  0  0  0  0  0  0  0  0  0  0  0
   49.8522   29.8486   33.8450 H   0  0  0  0  0  0  0  0  0  0  0  0
   48.1823   30.0810   33.2239 H   0  0  0  0  0  0  0  0  0  0  0  0
   48.4887   33.5766   32.9126 H   0  0  0  0  0  0  0  0  0  0  0  0
   47.9019   32.2264   31.9050 H   0  0  0  0  0  0  0  0  0  0  0  0
   46.4096   33.0718   33.9858 H   0  0  0  0  0  0  0  0  0  0  0  0
   46.5326   31.3350   33.6960 H   0  0  0  0  0  0  0  0  0  0  0  0
   49.6784   36.2325   40.8153 H   0  0  0  0  0  0  0  0  0  0  0  0
   48.7341   35.1976   38.7333 H   0  0  0  0  0  0  0  0  0  0  0  0
   48.0970   32.3367   43.8879 H   0  0  0  0  0  0  0  0  0  0  0  0
   47.1802   31.7998   46.1072 H   0  0  0  0  0  0  0  0  0  0  0  0
   44.4061   35.0322   45.6711 H   0  0  0  0  0  0  0  0  0  0  0  0
  2  1  1  0
  2  3  2  0
  3 16  1  0
  4  3  1  0
  5  4  2  0
  6  7  2  0
  6  5  1  0
  7  2  1  0
  8  7  1  0
  9  8  1  0
 10  9  1  0
 11 10  1  0
 12 11  1  0
 12 13  1  0
 13  8  1  0
 14 19  2  0
 15 16  2  0
 15 14  1  0
 16 17  1  0
 17 18  2  0
 18 22  1  0
 19 18  1  0
 20 21  1  0
 21 27  2  0
 22 21  1  0
 22 23  2  0
 23 24  1  0
 24 25  2  0
 25 26  1  0
 27 25  1  0
  4 28  1  0
  5 29  1  0
  6 30  1  0
  8 31  1  0
  9 32  1  0
  9 33  1  0
 10 34  1  0
 10 35  1  0
 12 36  1  0
 12 37  1  0
 13 38  1  0
 13 39  1  0
 14 40  1  0
 15 41  1  0
 23 42  1  0
 24 43  1  0
 27 44  1  0
M  ISO  8  28  14  29  14  30  14  31  13  32  13  33  13  34  13  35  13
M  ISO  8  36  13  37  13  38  13  39  13  40  14  41  14  42  14  43  14
M  ISO  1  44  14
M  END
>  <minimizedAffinity>  (1) 
-6.38942194

>  <minimizedRMSD>  (1) 
1.02294683

$$$$
