
     RDKit          3D

 32 34  0  0  0  0  0  0  0  0999 V2000
   48.7890   35.4000   41.0130 C   0  0  0  0  0  0  0  0  0  0  0  0
   48.2310   34.8410   39.8520 C   0  0  0  0  0  0  0  0  0  0  0  0
   47.1920   33.9290   39.9810 C   0  0  0  0  0  0  0  0  0  0  0  0
   46.7700   33.6390   41.2320 N   0  0  0  0  0  0  0  0  0  0  0  0
   47.3020   34.1800   42.3390 C   0  0  0  0  0  0  0  0  0  0  0  0
   48.3170   35.0620   42.2340 N   0  0  0  0  0  0  0  0  0  0  0  0
   45.0490   35.9880   43.3330 Cl  0  0  0  0  0  0  0  0  0  0  0  0
   45.7440   34.6450   44.2090 C   0  0  0  0  0  0  0  0  0  0  0  0
   46.7710   33.8840   43.6530 C   0  0  0  0  0  0  0  0  0  0  0  0
   47.2270   32.8640   44.4190 C   0  0  0  0  0  0  0  0  0  0  0  0
   46.7380   32.5560   45.6810 C   0  0  0  0  0  0  0  0  0  0  0  0
   45.7280   33.3210   46.2030 C   0  0  0  0  0  0  0  0  0  0  0  0
   45.2000   32.8190   47.7960 Cl  0  0  0  0  0  0  0  0  0  0  0  0
   45.2310   34.3600   45.4760 C   0  0  0  0  0  0  0  0  0  0  0  0
   49.1360   32.6970   38.0730 Cl  0  0  0  0  0  0  0  0  0  0  0  0
   47.3980   32.7570   37.8520 C   0  0  0  0  0  0  0  0  0  0  0  0
   46.6220   33.2870   38.8280 C   0  0  0  0  0  0  0  0  0  0  0  0
   45.2610   33.1670   38.6130 C   0  0  0  0  0  0  0  0  0  0  0  0
   44.6770   32.5700   37.5160 C   0  0  0  0  0  0  0  0  0  0  0  0
   45.5080   32.0460   36.5410 C   0  0  0  0  0  0  0  0  0  0  0  0
   46.8800   32.1460   36.7210 C   0  0  0  0  0  0  0  0  0  0  0  0
   47.7590   31.5940   35.6960 C   0  0  0  0  0  0  0  0  0  0  0  0
   48.1350   32.2940   34.7220 O   0  0  0  0  0  0  0  0  0  0  0  0
   49.6172   36.1190   40.9283 H   0  0  0  0  0  0  0  0  0  0  0  0
   48.6102   35.1206   38.8580 H   0  0  0  0  0  0  0  0  0  0  0  0
   48.0372   32.2394   44.0147 H   0  0  0  0  0  0  0  0  0  0  0  0
   47.1539   31.7128   46.2520 H   0  0  0  0  0  0  0  0  0  0  0  0
   44.4206   34.9783   45.8895 H   0  0  0  0  0  0  0  0  0  0  0  0
   44.5899   33.5816   39.3796 H   0  0  0  0  0  0  0  0  0  0  0  0
   43.5829   32.5118   37.4185 H   0  0  0  0  0  0  0  0  0  0  0  0
   45.0909   31.5622   35.6455 H   0  0  0  0  0  0  0  0  0  0  0  0
   48.0976   30.5505   35.7766 H   0  0  0  0  0  0  0  0  0  0  0  0
  1  6  2  0
  2  3  2  0
  2  1  1  0
  3  4  1  0
  4  5  2  0
  5  9  1  0
  6  5  1  0
  7  8  1  0
  8 14  2  0
  9  8  1  0
  9 10  2  0
 10 11  1  0
 11 12  2  0
 12 13  1  0
 14 12  1  0
 16 15  1  0
 16 17  2  0
 17  3  1  0
 18 17  1  0
 19 18  2  0
 20 21  2  0
 20 19  1  0
 21 16  1  0
 22 21  1  0
 23 22  2  0
  1 24  1  0
  2 25  1  0
 10 26  1  0
 11 27  1  0
 14 28  1  0
 18 29  1  0
 19 30  1  0
 20 31  1  0
 22 32  1  0
M  ISO  8  24  14  25  14  26  14  27  14  28  14  29  14  30  14  31  14
M  ISO  1  32   6
M  END
>  <minimizedAffinity>  (1) 
-5.63558817

>  <minimizedRMSD>  (1) 
0.729486287

$$$$
