
     RDKit          3D

 37 40  0  0  1  0  0  0  0  0999 V2000
   47.4240   34.4600   40.1710 O   0  0  0  0  0  0  0  0  0  0  0  0
   48.8130   35.7570   41.8990 O   0  0  0  0  0  0  0  0  0  0  0  0
   48.3970   34.3700   41.5270 P   0  0  2  0  0  0  0  0  0  0  0  0
   49.7930   33.5130   41.1530 O   0  0  0  0  0  0  0  0  0  0  0  0
   47.5510   33.6230   42.8170 O   0  0  0  0  0  0  0  0  0  0  0  0
   45.9510   35.4030   42.8570 C   0  0  0  0  0  0  0  0  0  0  0  0
   46.5300   34.3060   43.4910 C   0  0  0  0  0  0  0  0  0  0  0  0
   46.0700   33.9400   44.7570 C   0  0  0  0  0  0  0  0  0  0  0  0
   45.0680   34.6860   45.3090 N   0  0  0  0  0  0  0  0  0  0  0  0
   44.5350   35.7320   44.6760 C   0  0  0  0  0  0  0  0  0  0  0  0
   44.9720   36.0860   43.4650 N   0  0  0  0  0  0  0  0  0  0  0  0
   47.3870   33.5420   39.1720 C   0  0  0  0  0  0  0  0  0  0  0  0
   46.7540   32.4790   39.5330 O   0  0  0  0  0  0  0  0  0  0  0  0
   49.1090   31.0850   35.1540 C   0  0  0  0  0  0  0  0  0  0  0  0
   48.1760   32.1790   34.7620 C   0  0  0  0  0  0  0  0  0  0  0  0
   47.5340   32.6700   35.9560 N   0  0  0  0  0  0  0  0  0  0  0  0
   46.5070   33.0660   36.8850 C   0  0  0  0  0  0  0  0  0  0  0  0
   45.3400   33.5240   36.6380 O   0  0  0  0  0  0  0  0  0  0  0  0
   47.4590   32.6870   37.9610 C   0  0  1  0  0  0  0  0  0  0  0  0
   48.4910   33.0400   36.9470 C   0  0  1  0  0  0  0  0  0  0  0  0
   49.7590   31.7300   36.7420 S   0  0  0  0  0  0  0  0  0  0  0  0
   48.5040   29.7310   35.2850 C   0  0  0  0  0  0  0  0  0  0  0  0
   50.2170   31.0310   34.1260 C   0  0  0  0  0  0  0  0  0  0  0  0
   50.2442   33.2360   41.9895 H   0  0  0  0  0  0  0  0  0  0  0  0
   46.2972   35.7080   41.8584 H   0  0  0  0  0  0  0  0  0  0  0  0
   46.4998   33.0802   45.2918 H   0  0  0  0  0  0  0  0  0  0  0  0
   43.7293   36.3074   45.1553 H   0  0  0  0  0  0  0  0  0  0  0  0
   46.4458   33.9782   38.8060 H   0  0  0  0  0  0  0  0  0  0  0  0
   48.7373   32.9925   34.2791 H   0  0  0  0  0  0  0  0  0  0  0  0
   47.4243   31.8026   34.0526 H   0  0  0  0  0  0  0  0  0  0  0  0
   49.0232   33.9976   37.0463 H   0  0  0  0  0  0  0  0  0  0  0  0
   48.3922   29.4808   36.3503 H   0  0  0  0  0  0  0  0  0  0  0  0
   47.5164   29.7223   34.8007 H   0  0  0  0  0  0  0  0  0  0  0  0
   49.1564   28.9895   34.8007 H   0  0  0  0  0  0  0  0  0  0  0  0
   51.1897   30.9836   34.6375 H   0  0  0  0  0  0  0  0  0  0  0  0
   50.0899   30.1380   33.4964 H   0  0  0  0  0  0  0  0  0  0  0  0
   50.1773   31.9321   33.4964 H   0  0  0  0  0  0  0  0  0  0  0  0
  1  3  1  0
  3  2  2  0
  3  5  1  0
  4  3  1  0
  5  7  1  0
  6 11  2  0
  6  7  1  0
  7  8  2  0
  8  9  1  0
 10  9  2  0
 11 10  1  0
 12 13  1  0
 12  1  1  0
 14 22  1  0
 14 21  1  0
 15 14  1  0
 15 16  1  0
 16 17  1  0
 16 20  1  0
 18 17  2  0
 19 17  1  0
 19 12  1  0
 19 13  1  1
 20 21  1  0
 20 19  1  0
 23 14  1  0
  4 24  1  0
  6 25  1  0
  8 26  1  0
 10 27  1  0
 12 28  1  0
 15 29  1  0
 15 30  1  0
 20 31  1  6
 22 32  1  0
 22 33  1  0
 22 34  1  0
 23 35  1  0
 23 36  1  0
 23 37  1  0
M  ISO  8  24   3  25  14  26  14  27  14  28  13  29  13  30  13  31  13
M  ISO  6  32   8  33   8  34   8  35   8  36   8  37   8
M  END
>  <minimizedAffinity>  (1) 
-4.97556019

>  <minimizedRMSD>  (1) 
1.22393811

$$$$
