
     RDKit          3D

 35 37  0  0  0  0  0  0  0  0999 V2000
   47.3850   33.9360   39.3150 C   0  0  0  0  0  0  0  0  0  0  0  0
   46.2490   33.4770   39.7250 O   0  0  0  0  0  0  0  0  0  0  0  0
   47.5810   33.3840   37.9700 C   0  0  0  0  0  0  0  0  0  0  0  0
   46.5850   32.9460   37.0560 C   0  0  0  0  0  0  0  0  0  0  0  0
   47.0430   32.4710   35.8670 C   0  0  0  0  0  0  0  0  0  0  0  0
   48.3490   32.4200   35.5730 C   0  0  0  0  0  0  0  0  0  0  0  0
   49.1330   33.1310   37.1630 S   0  0  0  0  0  0  0  0  0  0  0  0
   48.1030   33.4310   32.9330 F   0  0  0  0  0  0  0  0  0  0  0  0
   49.0580   32.5210   33.2340 C   0  0  0  0  0  0  0  0  0  0  0  0
   49.1900   32.0200   34.5110 C   0  0  0  0  0  0  0  0  0  0  0  0
   50.1390   31.0950   34.8830 C   0  0  0  0  0  0  0  0  0  0  0  0
   51.0400   30.6140   33.9220 C   0  0  0  0  0  0  0  0  0  0  0  0
   50.9290   31.1050   32.6170 C   0  0  0  0  0  0  0  0  0  0  0  0
   49.9530   32.0460   32.2710 C   0  0  0  0  0  0  0  0  0  0  0  0
   47.9750   34.7350   40.2320 O   0  0  0  0  0  0  0  0  0  0  0  0
   49.3150   35.4590   42.3050 O   0  0  0  0  0  0  0  0  0  0  0  0
   48.7420   34.2530   41.6290 P   0  0  2  0  0  0  0  0  0  0  0  0
   50.0050   33.2370   41.2290 O   0  0  0  0  0  0  0  0  0  0  0  0
   47.6230   33.4500   42.6700 O   0  0  0  0  0  0  0  0  0  0  0  0
   46.1010   35.3000   42.7070 C   0  0  0  0  0  0  0  0  0  0  0  0
   46.6310   34.1770   43.3340 C   0  0  0  0  0  0  0  0  0  0  0  0
   46.1530   33.8200   44.6020 C   0  0  0  0  0  0  0  0  0  0  0  0
   45.1800   34.6060   45.1550 N   0  0  0  0  0  0  0  0  0  0  0  0
   44.6930   35.6810   44.5220 C   0  0  0  0  0  0  0  0  0  0  0  0
   45.1490   36.0220   43.3120 N   0  0  0  0  0  0  0  0  0  0  0  0
   45.5121   32.9885   37.2950 H   0  0  0  0  0  0  0  0  0  0  0  0
   46.3163   32.1165   35.1211 H   0  0  0  0  0  0  0  0  0  0  0  0
   50.1901   30.7372   35.9219 H   0  0  0  0  0  0  0  0  0  0  0  0
   51.8097   29.8739   34.1862 H   0  0  0  0  0  0  0  0  0  0  0  0
   51.6246   30.7433   31.8454 H   0  0  0  0  0  0  0  0  0  0  0  0
   49.8897   32.4138   31.2362 H   0  0  0  0  0  0  0  0  0  0  0  0
   50.4289   32.8960   42.0561 H   0  0  0  0  0  0  0  0  0  0  0  0
   46.4647   35.5957   41.7119 H   0  0  0  0  0  0  0  0  0  0  0  0
   46.5458   32.9403   45.1328 H   0  0  0  0  0  0  0  0  0  0  0  0
   43.9113   36.2886   45.0014 H   0  0  0  0  0  0  0  0  0  0  0  0
  1  2  2  0
  1 15  1  0
  3  1  1  0
  4  3  2  0
  5  4  1  0
  6  5  2  0
  6  7  1  0
  7  3  1  0
  8  9  1  0
  9 10  2  0
 10 11  1  0
 10  6  1  0
 12 11  2  0
 13 12  1  0
 14 13  2  0
 14  9  1  0
 15 17  1  0
 17 16  2  0
 17 19  1  0
 18 17  1  0
 19 21  1  0
 20 25  2  0
 20 21  1  0
 21 22  2  0
 22 23  1  0
 24 23  2  0
 25 24  1  0
  4 26  1  0
  5 27  1  0
 11 28  1  0
 12 29  1  0
 13 30  1  0
 14 31  1  0
 18 32  1  0
 20 33  1  0
 22 34  1  0
 24 35  1  0
M  ISO  8  26  14  27  14  28  14  29  14  30  14  31  14  32   3  33  14
M  ISO  2  34  14  35  14
M  END
>  <minimizedAffinity>  (1) 
-5.52787685

>  <minimizedRMSD>  (1) 
2.31978965

$$$$
