
     RDKit          3D

 35 37  0  0  0  0  0  0  0  0999 V2000
   47.3140   33.8680   39.3840 C   0  0  0  0  0  0  0  0  0  0  0  0
   46.2990   33.2770   39.8960 O   0  0  0  0  0  0  0  0  0  0  0  0
   47.4220   33.3690   38.0010 C   0  0  0  0  0  0  0  0  0  0  0  0
   46.4180   32.7670   37.1990 C   0  0  0  0  0  0  0  0  0  0  0  0
   46.8020   32.4030   35.9570 C   0  0  0  0  0  0  0  0  0  0  0  0
   48.0520   32.5980   35.5040 C   0  0  0  0  0  0  0  0  0  0  0  0
   48.8780   33.4140   36.9960 S   0  0  0  0  0  0  0  0  0  0  0  0
   48.7830   32.3640   34.3310 C   0  0  0  0  0  0  0  0  0  0  0  0
   48.5310   33.0360   33.1540 C   0  0  0  0  0  0  0  0  0  0  0  0
   49.3240   32.7190   32.0520 C   0  0  0  0  0  0  0  0  0  0  0  0
   50.3290   31.7550   32.1550 C   0  0  0  0  0  0  0  0  0  0  0  0
   50.5720   31.0820   33.3580 C   0  0  0  0  0  0  0  0  0  0  0  0
   49.7680   31.4100   34.4580 C   0  0  0  0  0  0  0  0  0  0  0  0
   47.9150   34.7050   40.2450 O   0  0  0  0  0  0  0  0  0  0  0  0
   49.3330   35.5190   42.2480 O   0  0  0  0  0  0  0  0  0  0  0  0
   48.7490   34.2840   41.6390 P   0  0  2  0  0  0  0  0  0  0  0  0
   50.0260   33.2720   41.2220 O   0  0  0  0  0  0  0  0  0  0  0  0
   47.6870   33.4990   42.7400 O   0  0  0  0  0  0  0  0  0  0  0  0
   46.1390   35.3170   42.7200 C   0  0  0  0  0  0  0  0  0  0  0  0
   46.6660   34.2200   43.3640 C   0  0  0  0  0  0  0  0  0  0  0  0
   46.1660   33.8530   44.6260 C   0  0  0  0  0  0  0  0  0  0  0  0
   45.1670   34.6260   45.1460 N   0  0  0  0  0  0  0  0  0  0  0  0
   44.6770   35.6900   44.4900 C   0  0  0  0  0  0  0  0  0  0  0  0
   45.1610   36.0240   43.2950 N   0  0  0  0  0  0  0  0  0  0  0  0
   45.3932   32.6073   37.5655 H   0  0  0  0  0  0  0  0  0  0  0  0
   46.0649   31.9296   35.2917 H   0  0  0  0  0  0  0  0  0  0  0  0
   47.7354   33.7927   33.0869 H   0  0  0  0  0  0  0  0  0  0  0  0
   49.1566   33.2324   31.0937 H   0  0  0  0  0  0  0  0  0  0  0  0
   50.9423   31.5197   31.2727 H   0  0  0  0  0  0  0  0  0  0  0  0
   51.3648   30.3236   33.4371 H   0  0  0  0  0  0  0  0  0  0  0  0
   49.9237   30.9054   35.4229 H   0  0  0  0  0  0  0  0  0  0  0  0
   50.4579   32.9297   42.0444 H   0  0  0  0  0  0  0  0  0  0  0  0
   46.5228   35.6117   41.7322 H   0  0  0  0  0  0  0  0  0  0  0  0
   46.5615   32.9826   45.1700 H   0  0  0  0  0  0  0  0  0  0  0  0
   43.8722   36.2886   44.9415 H   0  0  0  0  0  0  0  0  0  0  0  0
  1  2  2  0
  1 14  1  0
  3  1  1  0
  4  3  2  0
  5  4  1  0
  6  5  2  0
  6  7  1  0
  7  3  1  0
  8 13  1  0
  8  6  1  0
  9  8  2  0
 10 11  2  0
 10  9  1  0
 11 12  1  0
 12 13  2  0
 14 16  1  0
 16 15  2  0
 16 18  1  0
 17 16  1  0
 18 20  1  0
 19 24  2  0
 19 20  1  0
 20 21  2  0
 21 22  1  0
 23 22  2  0
 24 23  1  0
  4 25  1  0
  5 26  1  0
  9 27  1  0
 10 28  1  0
 11 29  1  0
 12 30  1  0
 13 31  1  0
 17 32  1  0
 19 33  1  0
 21 34  1  0
 23 35  1  0
M  ISO  8  25  14  26  14  27  14  28  14  29  14  30  14  31  14  32   3
M  ISO  3  33  14  34  14  35  14
M  END
>  <minimizedAffinity>  (1) 
-5.46136475

>  <minimizedRMSD>  (1) 
2.06496263

$$$$
