
     RDKit          3D

 41 43  0  0  0  0  0  0  0  0999 V2000
   48.0690   34.8000   40.3790 O   0  0  0  0  0  0  0  0  0  0  0  0
   49.3930   35.4920   42.4650 O   0  0  0  0  0  0  0  0  0  0  0  0
   48.8230   34.2870   41.7690 P   0  0  2  0  0  0  0  0  0  0  0  0
   50.0840   33.2720   41.3620 O   0  0  0  0  0  0  0  0  0  0  0  0
   47.6920   33.4910   42.7860 O   0  0  0  0  0  0  0  0  0  0  0  0
   46.1520   35.3130   42.7850 C   0  0  0  0  0  0  0  0  0  0  0  0
   46.6720   34.2080   43.4190 C   0  0  0  0  0  0  0  0  0  0  0  0
   46.1710   33.8290   44.6770 C   0  0  0  0  0  0  0  0  0  0  0  0
   45.1750   34.5960   45.2060 N   0  0  0  0  0  0  0  0  0  0  0  0
   44.6880   35.6700   44.5630 C   0  0  0  0  0  0  0  0  0  0  0  0
   45.1730   36.0220   43.3640 N   0  0  0  0  0  0  0  0  0  0  0  0
   47.4690   34.0390   39.4510 C   0  0  0  0  0  0  0  0  0  0  0  0
   46.2960   33.6280   39.8460 O   0  0  0  0  0  0  0  0  0  0  0  0
   47.6480   33.4750   38.1090 C   0  0  0  0  0  0  0  0  0  0  0  0
   48.6660   33.7810   37.1690 C   0  0  0  0  0  0  0  0  0  0  0  0
   48.6040   33.1210   35.9930 C   0  0  0  0  0  0  0  0  0  0  0  0
   47.6420   32.2280   35.7180 C   0  0  0  0  0  0  0  0  0  0  0  0
   46.6150   32.2640   37.3290 S   0  0  0  0  0  0  0  0  0  0  0  0
   47.0280   31.2600   34.7750 C   0  0  0  0  0  0  0  0  0  0  0  0
   45.6780   31.7770   34.3130 C   0  0  0  0  0  0  0  0  0  0  0  0
   44.9410   30.5660   33.7480 C   0  0  0  0  0  0  0  0  0  0  0  0
   45.9060   29.5550   33.1760 C   0  0  0  0  0  0  0  0  0  0  0  0
   47.1230   30.1940   32.5710 C   0  0  0  0  0  0  0  0  0  0  0  0
   47.8540   31.1130   33.4890 C   0  0  0  0  0  0  0  0  0  0  0  0
   50.5106   32.9286   42.1867 H   0  0  0  0  0  0  0  0  0  0  0  0
   46.5405   35.6150   41.8012 H   0  0  0  0  0  0  0  0  0  0  0  0
   46.5653   32.9520   45.2113 H   0  0  0  0  0  0  0  0  0  0  0  0
   43.8855   36.2649   45.0236 H   0  0  0  0  0  0  0  0  0  0  0  0
   49.4585   34.5125   37.3857 H   0  0  0  0  0  0  0  0  0  0  0  0
   49.3716   33.3233   35.2315 H   0  0  0  0  0  0  0  0  0  0  0  0
   46.9619   30.3039   35.3150 H   0  0  0  0  0  0  0  0  0  0  0  0
   45.1208   32.2038   35.1600 H   0  0  0  0  0  0  0  0  0  0  0  0
   45.7846   32.5733   33.5616 H   0  0  0  0  0  0  0  0  0  0  0  0
   44.3606   30.0919   34.5532 H   0  0  0  0  0  0  0  0  0  0  0  0
   44.2775   30.9087   32.9403 H   0  0  0  0  0  0  0  0  0  0  0  0
   46.2272   28.8795   33.9825 H   0  0  0  0  0  0  0  0  0  0  0  0
   45.3827   29.0120   32.3752 H   0  0  0  0  0  0  0  0  0  0  0  0
   47.8133   29.3956   32.2613 H   0  0  0  0  0  0  0  0  0  0  0  0
   46.7709   30.8059   31.7274 H   0  0  0  0  0  0  0  0  0  0  0  0
   48.8427   30.6935   33.7269 H   0  0  0  0  0  0  0  0  0  0  0  0
   47.9950   32.0944   33.0126 H   0  0  0  0  0  0  0  0  0  0  0  0
  1  3  1  0
  3  2  2  0
  3  5  1  0
  4  3  1  0
  5  7  1  0
  6 11  2  0
  6  7  1  0
  7  8  2  0
  8  9  1  0
 10  9  2  0
 11 10  1  0
 12 13  2  0
 12  1  1  0
 14 12  1  0
 15 14  2  0
 16 15  1  0
 17 16  2  0
 17 18  1  0
 18 14  1  0
 19 17  1  0
 20 19  1  0
 21 20  1  0
 22 21  1  0
 23 22  1  0
 23 24  1  0
 24 19  1  0
  4 25  1  0
  6 26  1  0
  8 27  1  0
 10 28  1  0
 15 29  1  0
 16 30  1  0
 19 31  1  0
 20 32  1  0
 20 33  1  0
 21 34  1  0
 21 35  1  0
 22 36  1  0
 22 37  1  0
 23 38  1  0
 23 39  1  0
 24 40  1  0
 24 41  1  0
M  ISO  8  25   3  26  14  27  14  28  14  29  14  30  14  31  13  32  13
M  ISO  8  33  13  34  13  35  13  36  13  37  13  38  13  39  13  40  13
M  ISO  1  41  13
M  END
>  <minimizedAffinity>  (1) 
-5.32921982

>  <minimizedRMSD>  (1) 
0.28847611

$$$$
