
     RDKit          3D

 36 38  0  0  0  0  0  0  0  0999 V2000
   47.5010   34.1170   39.6800 C   0  0  0  0  0  0  0  0  0  0  0  0
   46.2730   33.8570   40.0020 O   0  0  0  0  0  0  0  0  0  0  0  0
   47.6660   33.6020   38.3010 C   0  0  0  0  0  0  0  0  0  0  0  0
   48.6460   33.9990   37.3680 C   0  0  0  0  0  0  0  0  0  0  0  0
   48.5620   33.3540   36.1630 C   0  0  0  0  0  0  0  0  0  0  0  0
   47.6310   32.4340   35.9050 C   0  0  0  0  0  0  0  0  0  0  0  0
   46.6690   32.3820   37.5310 S   0  0  0  0  0  0  0  0  0  0  0  0
   47.2320   31.5750   34.8200 C   0  0  0  0  0  0  0  0  0  0  0  0
   45.9740   31.0540   34.7480 C   0  0  0  0  0  0  0  0  0  0  0  0
   45.7660   30.2470   33.6300 C   0  0  0  0  0  0  0  0  0  0  0  0
   46.7570   30.0250   32.7140 C   0  0  0  0  0  0  0  0  0  0  0  0
   48.0080   30.5750   32.8310 C   0  0  0  0  0  0  0  0  0  0  0  0
   48.2070   31.3620   33.9250 N   0  0  0  0  0  0  0  0  0  0  0  0
   48.1410   34.7310   40.6750 O   0  0  0  0  0  0  0  0  0  0  0  0
   49.4670   35.1030   42.8580 O   0  0  0  0  0  0  0  0  0  0  0  0
   48.9570   34.0190   41.9490 P   0  0  2  0  0  0  0  0  0  0  0  0
   50.2690   33.1970   41.3510 O   0  0  0  0  0  0  0  0  0  0  0  0
   47.8750   32.9720   42.8020 O   0  0  0  0  0  0  0  0  0  0  0  0
   46.1540   34.5160   43.3550 C   0  0  0  0  0  0  0  0  0  0  0  0
   46.9870   33.4820   43.7340 C   0  0  0  0  0  0  0  0  0  0  0  0
   46.8830   33.0090   45.0480 C   0  0  0  0  0  0  0  0  0  0  0  0
   45.9780   33.5830   45.8790 N   0  0  0  0  0  0  0  0  0  0  0  0
   45.1850   34.5880   45.4710 C   0  0  0  0  0  0  0  0  0  0  0  0
   45.2700   35.0520   44.2230 N   0  0  0  0  0  0  0  0  0  0  0  0
   44.2430   35.1670   46.3780 N   0  0  0  0  0  0  0  0  0  0  0  0
   49.4099   34.7591   37.5885 H   0  0  0  0  0  0  0  0  0  0  0  0
   49.2903   33.6041   35.3775 H   0  0  0  0  0  0  0  0  0  0  0  0
   45.1966   31.2516   35.5008 H   0  0  0  0  0  0  0  0  0  0  0  0
   44.7821   29.7781   33.4814 H   0  0  0  0  0  0  0  0  0  0  0  0
   46.5423   29.3799   31.8493 H   0  0  0  0  0  0  0  0  0  0  0  0
   48.7996   30.3924   32.0893 H   0  0  0  0  0  0  0  0  0  0  0  0
   50.8149   32.8550   42.1028 H   0  0  0  0  0  0  0  0  0  0  0  0
   46.2117   34.9092   42.3293 H   0  0  0  0  0  0  0  0  0  0  0  0
   47.5237   32.1869   45.3996 H   0  0  0  0  0  0  0  0  0  0  0  0
   43.6346   35.9375   46.0663 H   0  0  0  0  0  0  0  0  0  0  0  0
   44.1730   34.8135   47.3429 H   0  0  0  0  0  0  0  0  0  0  0  0
  1  2  2  0
  1 14  1  0
  3  1  1  0
  4  3  2  0
  5  4  1  0
  6  5  2  0
  6  7  1  0
  7  3  1  0
  8  6  1  0
  9  8  2  0
 10  9  1  0
 11 12  1  0
 11 10  2  0
 12 13  2  0
 13  8  1  0
 14 16  1  0
 16 18  1  0
 16 15  2  0
 17 16  1  0
 18 20  1  0
 19 20  2  0
 19 24  1  0
 20 21  1  0
 21 22  2  0
 23 22  1  0
 23 25  1  0
 24 23  2  0
  4 26  1  0
  5 27  1  0
  9 28  1  0
 10 29  1  0
 11 30  1  0
 12 31  1  0
 17 32  1  0
 19 33  1  0
 21 34  1  0
 25 35  1  0
 25 36  1  0
M  ISO  8  26  14  27  14  28  14  29  14  30  14  31  14  32   3  33  14
M  ISO  1  34  14
M  END
>  <minimizedAffinity>  (1) 
-5.78290224

>  <minimizedRMSD>  (1) 
0.783412218

$$$$
