
     RDKit          3D

 40 42  0  0  0  0  0  0  0  0999 V2000
   47.2250   32.7280   36.6190 C   0  0  0  0  0  0  0  0  0  0  0  0
   46.3340   31.8370   36.8920 O   0  0  0  0  0  0  0  0  0  0  0  0
   47.8460   32.3040   35.3430 C   0  0  0  0  0  0  0  0  0  0  0  0
   49.2160   32.0660   35.1130 C   0  0  0  0  0  0  0  0  0  0  0  0
   49.5010   31.6810   33.8190 C   0  0  0  0  0  0  0  0  0  0  0  0
   48.5580   31.5520   32.8850 C   0  0  0  0  0  0  0  0  0  0  0  0
   46.9960   32.0090   33.8380 S   0  0  0  0  0  0  0  0  0  0  0  0
   48.4580   31.1930   31.4950 C   0  0  0  0  0  0  0  0  0  0  0  0
   47.9470   29.9850   31.1080 C   0  0  0  0  0  0  0  0  0  0  0  0
   47.9260   29.8120   29.7140 C   0  0  0  0  0  0  0  0  0  0  0  0
   48.3850   30.7830   28.8660 C   0  0  0  0  0  0  0  0  0  0  0  0
   48.8860   31.9760   29.3170 C   0  0  0  0  0  0  0  0  0  0  0  0
   48.9100   32.1510   30.6700 N   0  0  0  0  0  0  0  0  0  0  0  0
   47.2600   33.6800   37.5580 O   0  0  0  0  0  0  0  0  0  0  0  0
   48.3850   35.0090   39.4570 O   0  0  0  0  0  0  0  0  0  0  0  0
   48.0110   33.6180   39.0450 P   0  0  2  0  0  0  0  0  0  0  0  0
   49.4070   32.7330   38.9000 O   0  0  0  0  0  0  0  0  0  0  0  0
   46.9310   32.9140   40.1990 O   0  0  0  0  0  0  0  0  0  0  0  0
   45.1960   34.3450   40.9990 C   0  0  0  0  0  0  0  0  0  0  0  0
   46.3960   33.6840   41.2280 C   0  0  0  0  0  0  0  0  0  0  0  0
   47.0090   33.8230   42.4800 C   0  0  0  0  0  0  0  0  0  0  0  0
   46.3950   34.6010   43.4100 N   0  0  0  0  0  0  0  0  0  0  0  0
   45.2410   35.2240   43.1610 C   0  0  0  0  0  0  0  0  0  0  0  0
   44.6330   35.1030   41.9620 N   0  0  0  0  0  0  0  0  0  0  0  0
   44.6560   36.0540   44.2600 C   0  0  0  0  0  0  0  0  0  0  0  0
   44.5950   35.3340   45.5730 C   0  0  0  0  0  0  0  0  0  0  0  0
   49.9853   32.1767   35.8914 H   0  0  0  0  0  0  0  0  0  0  0  0
   50.5463   31.4725   33.5474 H   0  0  0  0  0  0  0  0  0  0  0  0
   47.5882   29.2247   31.8174 H   0  0  0  0  0  0  0  0  0  0  0  0
   47.5316   28.8747   29.2946 H   0  0  0  0  0  0  0  0  0  0  0  0
   48.3505   30.5990   27.7820 H   0  0  0  0  0  0  0  0  0  0  0  0
   49.2492   32.7507   28.6257 H   0  0  0  0  0  0  0  0  0  0  0  0
   49.7535   32.5133   39.8010 H   0  0  0  0  0  0  0  0  0  0  0  0
   44.6997   34.2492   40.0220 H   0  0  0  0  0  0  0  0  0  0  0  0
   47.9598   33.3171   42.7039 H   0  0  0  0  0  0  0  0  0  0  0  0
   45.2734   36.9559   44.3839 H   0  0  0  0  0  0  0  0  0  0  0  0
   43.6228   36.2979   43.9718 H   0  0  0  0  0  0  0  0  0  0  0  0
   44.6568   36.0632   46.3943 H   0  0  0  0  0  0  0  0  0  0  0  0
   43.6468   34.7810   45.6442 H   0  0  0  0  0  0  0  0  0  0  0  0
   45.4367   34.6294   45.6442 H   0  0  0  0  0  0  0  0  0  0  0  0
  1  2  2  0
  1 14  1  0
  3  1  1  0
  4  3  2  0
  5  4  1  0
  6  5  2  0
  6  7  1  0
  7  3  1  0
  8  6  1  0
  9  8  2  0
 10  9  1  0
 11 12  1  0
 11 10  2  0
 12 13  2  0
 13  8  1  0
 14 16  1  0
 16 15  2  0
 16 18  1  0
 17 16  1  0
 18 20  1  0
 19 20  2  0
 19 24  1  0
 20 21  1  0
 21 22  2  0
 23 22  1  0
 23 25  1  0
 24 23  2  0
 25 26  1  0
  4 27  1  0
  5 28  1  0
  9 29  1  0
 10 30  1  0
 11 31  1  0
 12 32  1  0
 17 33  1  0
 19 34  1  0
 21 35  1  0
 25 36  1  0
 25 37  1  0
 26 38  1  0
 26 39  1  0
 26 40  1  0
M  ISO  8  27  14  28  14  29  14  30  14  31  14  32  14  33   3  34  14
M  ISO  6  35  14  36   8  37   8  38   8  39   8  40   8
M  END
>  <minimizedAffinity>  (1) 
-5.75022936

>  <minimizedRMSD>  (1) 
2.91507745

$$$$
