
     RDKit          3D

 35 37  0  0  0  0  0  0  0  0999 V2000
   47.4490   34.1180   39.7000 C   0  0  0  0  0  0  0  0  0  0  0  0
   46.2200   33.8440   40.0110 O   0  0  0  0  0  0  0  0  0  0  0  0
   47.6280   33.6030   38.3140 C   0  0  0  0  0  0  0  0  0  0  0  0
   48.6210   34.0080   37.3970 C   0  0  0  0  0  0  0  0  0  0  0  0
   48.5530   33.3720   36.1940 C   0  0  0  0  0  0  0  0  0  0  0  0
   47.6350   32.4490   35.9010 C   0  0  0  0  0  0  0  0  0  0  0  0
   46.6540   32.3950   37.5240 S   0  0  0  0  0  0  0  0  0  0  0  0
   47.2400   31.5900   34.8200 C   0  0  0  0  0  0  0  0  0  0  0  0
   45.9840   31.0630   34.7380 C   0  0  0  0  0  0  0  0  0  0  0  0
   45.8060   30.2540   33.6120 C   0  0  0  0  0  0  0  0  0  0  0  0
   46.8100   30.0360   32.7070 C   0  0  0  0  0  0  0  0  0  0  0  0
   48.0540   30.5980   32.8470 C   0  0  0  0  0  0  0  0  0  0  0  0
   48.2410   31.3890   33.9420 N   0  0  0  0  0  0  0  0  0  0  0  0
   48.0870   34.7430   40.7020 O   0  0  0  0  0  0  0  0  0  0  0  0
   49.4060   35.1230   42.8700 O   0  0  0  0  0  0  0  0  0  0  0  0
   48.8740   34.0310   41.9820 P   0  0  2  0  0  0  0  0  0  0  0  0
   50.1630   33.1480   41.3970 O   0  0  0  0  0  0  0  0  0  0  0  0
   47.7900   33.0270   42.8580 O   0  0  0  0  0  0  0  0  0  0  0  0
   46.0820   34.5990   43.3840 C   0  0  0  0  0  0  0  0  0  0  0  0
   46.9050   33.5640   43.7820 C   0  0  0  0  0  0  0  0  0  0  0  0
   46.7930   33.1170   45.1030 C   0  0  0  0  0  0  0  0  0  0  0  0
   45.8880   33.7180   45.9240 N   0  0  0  0  0  0  0  0  0  0  0  0
   45.1140   34.7140   45.4970 C   0  0  0  0  0  0  0  0  0  0  0  0
   45.2050   35.1550   44.2420 N   0  0  0  0  0  0  0  0  0  0  0  0
   44.2550   35.2020   46.4720 O   0  0  0  0  0  0  0  0  0  0  0  0
   49.3808   34.7680   37.6320 H   0  0  0  0  0  0  0  0  0  0  0  0
   49.2938   33.6331   35.4239 H   0  0  0  0  0  0  0  0  0  0  0  0
   45.1947   31.2546   35.4798 H   0  0  0  0  0  0  0  0  0  0  0  0
   44.8283   29.7774   33.4478 H   0  0  0  0  0  0  0  0  0  0  0  0
   46.6130   29.3892   31.8393 H   0  0  0  0  0  0  0  0  0  0  0  0
   48.8565   30.4202   32.1160 H   0  0  0  0  0  0  0  0  0  0  0  0
   50.6880   32.7884   42.1554 H   0  0  0  0  0  0  0  0  0  0  0  0
   46.1435   34.9746   42.3519 H   0  0  0  0  0  0  0  0  0  0  0  0
   47.4244   32.2952   45.4716 H   0  0  0  0  0  0  0  0  0  0  0  0
   43.6354   35.9443   46.2593 H   0  0  0  0  0  0  0  0  0  0  0  0
  1  2  2  0
  1 14  1  0
  3  1  1  0
  4  3  2  0
  5  4  1  0
  6  5  2  0
  6  7  1  0
  7  3  1  0
  8  6  1  0
  9  8  2  0
 10  9  1  0
 11 12  1  0
 11 10  2  0
 12 13  2  0
 13  8  1  0
 14 16  1  0
 16 18  1  0
 16 15  2  0
 17 16  1  0
 18 20  1  0
 19 20  2  0
 19 24  1  0
 20 21  1  0
 21 22  2  0
 23 22  1  0
 23 25  1  0
 24 23  2  0
  4 26  1  0
  5 27  1  0
  9 28  1  0
 10 29  1  0
 11 30  1  0
 12 31  1  0
 17 32  1  0
 19 33  1  0
 21 34  1  0
 25 35  1  0
M  ISO  8  26  14  27  14  28  14  29  14  30  14  31  14  32   3  33  14
M  ISO  2  34  14  35   3
M  END
>  <minimizedAffinity>  (1) 
-5.74842644

>  <minimizedRMSD>  (1) 
0.735496044

$$$$
