
     RDKit          3D

 40 42  0  0  0  0  0  0  0  0999 V2000
   48.1770   34.5530   41.0040 O   0  0  0  0  0  0  0  0  0  0  0  0
   47.4940   34.1370   39.9290 C   0  0  0  0  0  0  0  0  0  0  0  0
   46.2200   34.0890   40.1570 O   0  0  0  0  0  0  0  0  0  0  0  0
   47.6620   33.6960   38.5250 C   0  0  0  0  0  0  0  0  0  0  0  0
   48.5100   34.2740   37.5600 C   0  0  0  0  0  0  0  0  0  0  0  0
   48.4620   33.6550   36.3350 C   0  0  0  0  0  0  0  0  0  0  0  0
   47.6780   32.6010   36.0920 C   0  0  0  0  0  0  0  0  0  0  0  0
   46.8330   32.3500   37.7620 S   0  0  0  0  0  0  0  0  0  0  0  0
   47.3660   31.7240   34.9920 C   0  0  0  0  0  0  0  0  0  0  0  0
   46.3430   30.8090   35.0990 C   0  0  0  0  0  0  0  0  0  0  0  0
   46.1660   30.0420   33.9340 C   0  0  0  0  0  0  0  0  0  0  0  0
   46.9620   30.2280   32.8310 C   0  0  0  0  0  0  0  0  0  0  0  0
   47.9680   31.1650   32.7970 C   0  0  0  0  0  0  0  0  0  0  0  0
   48.1430   31.9130   33.9270 N   0  0  0  0  0  0  0  0  0  0  0  0
   49.5160   34.4750   43.1970 O   0  0  0  0  0  0  0  0  0  0  0  0
   49.0760   33.6200   42.0520 P   0  0  2  0  0  0  0  0  0  0  0  0
   50.4400   33.0870   41.2460 O   0  0  0  0  0  0  0  0  0  0  0  0
   48.1290   32.2890   42.6140 O   0  0  0  0  0  0  0  0  0  0  0  0
   46.7860   33.5290   44.1600 C   0  0  0  0  0  0  0  0  0  0  0  0
   47.4770   32.3590   43.8360 C   0  0  0  0  0  0  0  0  0  0  0  0
   47.4700   31.3200   44.7720 C   0  0  0  0  0  0  0  0  0  0  0  0
   46.7990   31.4950   45.9380 N   0  0  0  0  0  0  0  0  0  0  0  0
   46.1480   32.6310   46.2100 C   0  0  0  0  0  0  0  0  0  0  0  0
   46.1450   33.6320   45.3310 N   0  0  0  0  0  0  0  0  0  0  0  0
   45.5010   32.6730   47.4480 O   0  0  0  0  0  0  0  0  0  0  0  0
   47.4990   31.7940   48.9400 O   0  0  0  0  0  0  0  0  0  0  0  0
   46.0360   31.5990   48.6820 P   0  0  0  0  0  0  0  0  0  0  0  0
   45.6940   30.0320   48.1240 O   0  0  0  0  0  0  0  0  0  0  0  0
   45.2080   31.8750   50.1290 O   0  0  0  0  0  0  0  0  0  0  0  0
   49.1523   35.1423   37.7687 H   0  0  0  0  0  0  0  0  0  0  0  0
   49.0938   34.0422   35.5221 H   0  0  0  0  0  0  0  0  0  0  0  0
   45.7275   30.6902   36.0029 H   0  0  0  0  0  0  0  0  0  0  0  0
   45.3747   29.2784   33.9058 H   0  0  0  0  0  0  0  0  0  0  0  0
   46.7887   29.6045   31.9415 H   0  0  0  0  0  0  0  0  0  0  0  0
   48.5988   31.3050   31.9067 H   0  0  0  0  0  0  0  0  0  0  0  0
   51.1285   32.8180   41.9046 H   0  0  0  0  0  0  0  0  0  0  0  0
   46.7684   34.3691   43.4502 H   0  0  0  0  0  0  0  0  0  0  0  0
   47.9991   30.3777   44.5665 H   0  0  0  0  0  0  0  0  0  0  0  0
   45.5621   29.4279   48.8971 H   0  0  0  0  0  0  0  0  0  0  0  0
   45.8045   31.6762   50.8937 H   0  0  0  0  0  0  0  0  0  0  0  0
  1 16  1  0
  2  3  2  0
  2  1  1  0
  4  2  1  0
  5  4  2  0
  6  5  1  0
  7  6  2  0
  7  8  1  0
  8  4  1  0
  9 10  2  0
  9  7  1  0
 11 10  1  0
 12 11  2  0
 13 12  1  0
 13 14  2  0
 14  9  1  0
 16 18  1  0
 16 15  2  0
 17 16  1  0
 18 20  1  0
 19 24  2  0
 20 19  1  0
 20 21  2  0
 21 22  1  0
 22 23  2  0
 23 25  1  0
 24 23  1  0
 25 27  1  0
 27 26  2  0
 27 29  1  0
 28 27  1  0
  5 30  1  0
  6 31  1  0
 10 32  1  0
 11 33  1  0
 12 34  1  0
 13 35  1  0
 17 36  1  0
 19 37  1  0
 21 38  1  0
 28 39  1  0
 29 40  1  0
M  ISO  8  30  14  31  14  32  14  33  14  34  14  35  14  36   3  37  14
M  ISO  3  38  14  39   3  40   3
M  END
>  <minimizedAffinity>  (1) 
-5.59812307

>  <minimizedRMSD>  (1) 
2.7990284

$$$$
