
     RDKit          3D

 37 39  0  0  0  0  0  0  0  0999 V2000
   47.6310   33.8280   39.2270 C   0  0  0  0  0  0  0  0  0  0  0  0
   46.3960   33.6290   39.5600 O   0  0  0  0  0  0  0  0  0  0  0  0
   47.7660   33.2930   37.8540 C   0  0  0  0  0  0  0  0  0  0  0  0
   48.7340   33.6740   36.9010 C   0  0  0  0  0  0  0  0  0  0  0  0
   48.6130   33.0030   35.6960 C   0  0  0  0  0  0  0  0  0  0  0  0
   47.6670   32.0890   35.4740 C   0  0  0  0  0  0  0  0  0  0  0  0
   46.7470   32.0770   37.1250 S   0  0  0  0  0  0  0  0  0  0  0  0
   47.2360   31.2150   34.4150 C   0  0  0  0  0  0  0  0  0  0  0  0
   46.0610   30.5250   34.4930 C   0  0  0  0  0  0  0  0  0  0  0  0
   45.8060   29.7270   33.3810 C   0  0  0  0  0  0  0  0  0  0  0  0
   46.6800   29.6710   32.3300 C   0  0  0  0  0  0  0  0  0  0  0  0
   47.8600   30.3910   32.2980 C   0  0  0  0  0  0  0  0  0  0  0  0
   48.1070   31.1710   33.3900 N   0  0  0  0  0  0  0  0  0  0  0  0
   48.3050   34.4240   40.2170 O   0  0  0  0  0  0  0  0  0  0  0  0
   49.6500   34.7600   42.3880 O   0  0  0  0  0  0  0  0  0  0  0  0
   49.0720   33.7030   41.5080 P   0  0  2  0  0  0  0  0  0  0  0  0
   50.3340   32.7780   40.9270 O   0  0  0  0  0  0  0  0  0  0  0  0
   47.9320   32.7300   42.3780 O   0  0  0  0  0  0  0  0  0  0  0  0
   46.2940   34.3640   42.9170 C   0  0  0  0  0  0  0  0  0  0  0  0
   47.0890   33.3080   43.3160 C   0  0  0  0  0  0  0  0  0  0  0  0
   46.9900   32.8910   44.6450 C   0  0  0  0  0  0  0  0  0  0  0  0
   46.1260   33.5360   45.4710 N   0  0  0  0  0  0  0  0  0  0  0  0
   45.3750   34.5530   45.0480 C   0  0  0  0  0  0  0  0  0  0  0  0
   45.4540   34.9660   43.7860 N   0  0  0  0  0  0  0  0  0  0  0  0
   44.4580   35.1950   46.0320 C   0  0  0  0  0  0  0  0  0  0  0  0
   49.5088   34.4300   37.0962 H   0  0  0  0  0  0  0  0  0  0  0  0
   49.3252   33.2327   34.8897 H   0  0  0  0  0  0  0  0  0  0  0  0
   45.3794   30.5930   35.3537 H   0  0  0  0  0  0  0  0  0  0  0  0
   44.8831   29.1294   33.3468 H   0  0  0  0  0  0  0  0  0  0  0  0
   46.4335   29.0257   31.4739 H   0  0  0  0  0  0  0  0  0  0  0  0
   48.5549   30.3384   31.4470 H   0  0  0  0  0  0  0  0  0  0  0  0
   50.8456   32.4030   41.6871 H   0  0  0  0  0  0  0  0  0  0  0  0
   46.3456   34.7196   41.8773 H   0  0  0  0  0  0  0  0  0  0  0  0
   47.6009   32.0550   45.0164 H   0  0  0  0  0  0  0  0  0  0  0  0
   44.7933   34.9602   47.0530 H   0  0  0  0  0  0  0  0  0  0  0  0
   44.4671   36.2850   45.8846 H   0  0  0  0  0  0  0  0  0  0  0  0
   43.4368   34.8135   45.8846 H   0  0  0  0  0  0  0  0  0  0  0  0
  1  2  2  0
  1 14  1  0
  3  1  1  0
  4  3  2  0
  5  4  1  0
  6  5  2  0
  6  7  1  0
  7  3  1  0
  8  9  2  0
  8  6  1  0
 10  9  1  0
 11 10  2  0
 12 11  1  0
 12 13  2  0
 13  8  1  0
 14 16  1  0
 16 18  1  0
 16 15  2  0
 17 16  1  0
 18 20  1  0
 19 20  2  0
 19 24  1  0
 20 21  1  0
 21 22  2  0
 23 22  1  0
 23 25  1  0
 24 23  2  0
  4 26  1  0
  5 27  1  0
  9 28  1  0
 10 29  1  0
 11 30  1  0
 12 31  1  0
 17 32  1  0
 19 33  1  0
 21 34  1  0
 25 35  1  0
 25 36  1  0
 25 37  1  0
M  ISO  8  26  14  27  14  28  14  29  14  30  14  31  14  32   3  33  14
M  ISO  4  34  14  35   8  36   8  37   8
M  END
>  <minimizedAffinity>  (1) 
-4.91565609

>  <minimizedRMSD>  (1) 
0.792574227

$$$$
