
     RDKit          3D

 24 25  0  0  0  0  0  0  0  0999 V2000
   44.5030   35.9000   44.6920 C   0  0  0  0  0  0  0  0  0  0  0  0
   45.2040   35.9210   43.4660 C   0  0  0  0  0  0  0  0  0  0  0  0
   46.1490   34.9060   43.2350 C   0  0  0  0  0  0  0  0  0  0  0  0
   46.3280   33.9630   44.2120 N   0  0  0  0  0  0  0  0  0  0  0  0
   45.6280   33.9870   45.3750 C   0  0  0  0  0  0  0  0  0  0  0  0
   44.7200   34.9540   45.6090 N   0  0  0  0  0  0  0  0  0  0  0  0
   46.9210   34.8130   42.0440 N   0  0  0  0  0  0  0  0  0  0  0  0
   46.3550   34.2410   40.8370 C   0  0  0  0  0  0  0  0  0  0  0  0
   47.4020   33.7480   39.8860 C   0  0  0  0  0  0  0  0  0  0  0  0
   48.4350   34.6880   39.6090 N   0  0  0  0  0  0  0  0  0  0  0  0
   48.8480   35.5160   40.6800 C   0  0  0  0  0  0  0  0  0  0  0  0
   48.2690   35.2790   42.0150 C   0  0  0  0  0  0  0  0  0  0  0  0
   43.7587   36.6836   44.8968 H   0  0  0  0  0  0  0  0  0  0  0  0
   45.0169   36.7049   42.7173 H   0  0  0  0  0  0  0  0  0  0  0  0
   45.8040   33.2096   46.1331 H   0  0  0  0  0  0  0  0  0  0  0  0
   45.7083   33.3965   41.1173 H   0  0  0  0  0  0  0  0  0  0  0  0
   45.7891   35.0343   40.3267 H   0  0  0  0  0  0  0  0  0  0  0  0
   47.8630   32.8478   40.3185 H   0  0  0  0  0  0  0  0  0  0  0  0
   46.8917   33.5523   38.9314 H   0  0  0  0  0  0  0  0  0  0  0  0
   49.2589   34.1600   39.2877 H   0  0  0  0  0  0  0  0  0  0  0  0
   49.9383   35.4054   40.7744 H   0  0  0  0  0  0  0  0  0  0  0  0
   48.4854   36.5168   40.4025 H   0  0  0  0  0  0  0  0  0  0  0  0
   48.8939   34.5300   42.5235 H   0  0  0  0  0  0  0  0  0  0  0  0
   48.2506   36.2630   42.5064 H   0  0  0  0  0  0  0  0  0  0  0  0
  1  6  2  0
  2  1  1  0
  3  2  2  0
  3  4  1  0
  4  5  2  0
  5  6  1  0
  7  3  1  0
  8  7  1  0
  9  8  1  0
 10  9  1  0
 10 11  1  0
 11 12  1  0
 12  7  1  0
  1 13  1  0
  2 14  1  0
  5 15  1  0
  8 16  1  0
  8 17  1  0
  9 18  1  0
  9 19  1  0
 10 20  1  0
 11 21  1  0
 11 22  1  0
 12 23  1  0
 12 24  1  0
M  ISO  8  13  14  14  14  15  14  16  13  17  13  18  13  19  13  20   5
M  ISO  4  21  13  22  13  23  13  24  13
M  END
>  <minimizedAffinity>  (1) 
-4.44566441

>  <minimizedRMSD>  (1) 
1.05804622

$$$$
