
     RDKit          3D

 27 28  0  0  1  0  0  0  0  0999 V2000
   46.0410   34.1920   41.6180 N   0  0  0  0  0  0  0  0  0  0  0  0
   45.0220   34.0260   40.5850 C   0  0  0  0  0  0  0  0  0  0  0  0
   45.5360   33.2580   39.3990 C   0  0  0  0  0  0  0  0  0  0  0  0
   46.7640   33.7340   38.8740 N   0  0  0  0  0  0  0  0  0  0  0  0
   47.7060   34.2040   39.8110 C   0  0  0  0  0  0  0  0  0  0  0  0
   47.4050   34.1110   41.2560 C   0  0  1  0  0  0  0  0  0  0  0  0
   44.5500   35.6230   44.7270 C   0  0  0  0  0  0  0  0  0  0  0  0
   44.8600   35.4880   43.3650 C   0  0  0  0  0  0  0  0  0  0  0  0
   45.6620   34.4240   42.9570 C   0  0  0  0  0  0  0  0  0  0  0  0
   46.0930   33.5760   43.9430 N   0  0  0  0  0  0  0  0  0  0  0  0
   45.7760   33.7340   45.2460 C   0  0  0  0  0  0  0  0  0  0  0  0
   45.0000   34.7650   45.6310 N   0  0  0  0  0  0  0  0  0  0  0  0
   48.1620   35.2210   41.9530 C   0  0  0  0  0  0  0  0  0  0  0  0
   48.8420   34.7040   43.0250 F   0  0  0  0  0  0  0  0  0  0  0  0
   47.2990   36.2450   42.3350 F   0  0  0  0  0  0  0  0  0  0  0  0
   49.1150   35.7420   41.0890 F   0  0  0  0  0  0  0  0  0  0  0  0
   44.1669   33.4837   41.0147 H   0  0  0  0  0  0  0  0  0  0  0  0
   44.7271   35.0271   40.2373 H   0  0  0  0  0  0  0  0  0  0  0  0
   45.6763   32.2103   39.7034 H   0  0  0  0  0  0  0  0  0  0  0  0
   44.7883   33.3795   38.6014 H   0  0  0  0  0  0  0  0  0  0  0  0
   47.2011   32.9622   38.3504 H   0  0  0  0  0  0  0  0  0  0  0  0
   48.6351   33.6403   39.6409 H   0  0  0  0  0  0  0  0  0  0  0  0
   47.7385   35.2874   39.6232 H   0  0  0  0  0  0  0  0  0  0  0  0
   47.7141   33.1013   41.5641 H   0  0  0  0  0  0  0  0  0  0  0  0
   43.9176   36.4622   45.0523 H   0  0  0  0  0  0  0  0  0  0  0  0
   44.4757   36.2112   42.6306 H   0  0  0  0  0  0  0  0  0  0  0  0
   46.1519   33.0200   45.9936 H   0  0  0  0  0  0  0  0  0  0  0  0
  1  9  1  0
  2  1  1  0
  3  2  1  0
  4  3  1  0
  4  5  1  0
  5  6  1  0
  6  1  1  0
  6 13  1  0
  7 12  2  0
  8  7  1  0
  9  8  2  0
  9 10  1  0
 10 11  2  0
 11 12  1  0
 13 15  1  0
 13 14  1  0
 16 13  1  0
  2 17  1  0
  2 18  1  0
  3 19  1  0
  3 20  1  0
  4 21  1  0
  5 22  1  0
  5 23  1  0
  6 24  1  1
  7 25  1  0
  8 26  1  0
 11 27  1  0
M  ISO  8  17  13  18  13  19  13  20  13  21   5  22  13  23  13  24  13
M  ISO  3  25  14  26  14  27  14
M  END
>  <minimizedAffinity>  (1) 
-4.99352312

>  <minimizedRMSD>  (1) 
1.39795601

$$$$
