
     RDKit          3D

 34 36  0  0  1  0  0  0  0  0999 V2000
   46.2490   33.1200   39.5030 N   0  0  0  0  0  0  0  0  0  0  0  0
   45.2930   33.2460   38.4030 C   0  0  0  0  0  0  0  0  0  0  0  0
   45.9700   33.0770   37.0650 C   0  0  0  0  0  0  0  0  0  0  0  0
   47.1170   33.9010   36.8880 N   0  0  0  0  0  0  0  0  0  0  0  0
   47.9000   34.1500   38.0280 C   0  0  0  0  0  0  0  0  0  0  0  0
   47.6250   33.3530   39.2590 C   0  0  1  0  0  0  0  0  0  0  0  0
   44.7500   33.1310   42.9390 C   0  0  0  0  0  0  0  0  0  0  0  0
   45.1610   33.6170   41.6910 C   0  0  0  0  0  0  0  0  0  0  0  0
   45.7850   32.7580   40.7910 C   0  0  0  0  0  0  0  0  0  0  0  0
   45.9430   31.4810   41.2220 N   0  0  0  0  0  0  0  0  0  0  0  0
   45.5450   31.0240   42.4250 C   0  0  0  0  0  0  0  0  0  0  0  0
   44.9460   31.8550   43.2840 N   0  0  0  0  0  0  0  0  0  0  0  0
   48.3940   33.9560   40.3590 C   0  0  0  0  0  0  0  0  0  0  0  0
   48.4270   35.2820   40.7120 C   0  0  0  0  0  0  0  0  0  0  0  0
   49.1570   35.7950   41.7520 C   0  0  0  0  0  0  0  0  0  0  0  0
   49.9200   34.9580   42.5190 C   0  0  0  0  0  0  0  0  0  0  0  0
   49.9490   33.6120   42.2400 C   0  0  0  0  0  0  0  0  0  0  0  0
   49.2020   33.1690   41.1930 C   0  0  0  0  0  0  0  0  0  0  0  0
   44.5176   32.4735   38.5122 H   0  0  0  0  0  0  0  0  0  0  0  0
   44.8493   34.2518   38.4426 H   0  0  0  0  0  0  0  0  0  0  0  0
   46.2801   32.0264   36.9646 H   0  0  0  0  0  0  0  0  0  0  0  0
   45.2404   33.3786   36.2990 H   0  0  0  0  0  0  0  0  0  0  0  0
   47.7213   33.4477   36.1878 H   0  0  0  0  0  0  0  0  0  0  0  0
   48.9487   33.9690   37.7495 H   0  0  0  0  0  0  0  0  0  0  0  0
   47.6501   35.1834   38.3104 H   0  0  0  0  0  0  0  0  0  0  0  0
   47.9759   32.3181   39.1332 H   0  0  0  0  0  0  0  0  0  0  0  0
   44.2569   33.8123   43.6480 H   0  0  0  0  0  0  0  0  0  0  0  0
   44.9917   34.6706   41.4241 H   0  0  0  0  0  0  0  0  0  0  0  0
   45.7121   29.9719   42.6993 H   0  0  0  0  0  0  0  0  0  0  0  0
   47.8238   35.9836   40.1170 H   0  0  0  0  0  0  0  0  0  0  0  0
   49.1296   36.8731   41.9687 H   0  0  0  0  0  0  0  0  0  0  0  0
   50.5086   35.3606   43.3565 H   0  0  0  0  0  0  0  0  0  0  0  0
   50.5545   32.9183   42.8418 H   0  0  0  0  0  0  0  0  0  0  0  0
   49.2347   32.0903   40.9799 H   0  0  0  0  0  0  0  0  0  0  0  0
  1  9  1  0
  2  1  1  0
  3  2  1  0
  4  3  1  0
  4  5  1  0
  5  6  1  0
  6  1  1  0
  6 13  1  0
  7 12  2  0
  8  7  1  0
  9 10  1  0
  9  8  2  0
 10 11  2  0
 11 12  1  0
 13 14  2  0
 13 18  1  0
 14 15  1  0
 15 16  2  0
 17 16  1  0
 18 17  2  0
  2 19  1  0
  2 20  1  0
  3 21  1  0
  3 22  1  0
  4 23  1  0
  5 24  1  0
  5 25  1  0
  6 26  1  6
  7 27  1  0
  8 28  1  0
 11 29  1  0
 14 30  1  0
 15 31  1  0
 16 32  1  0
 17 33  1  0
 18 34  1  0
M  ISO  8  19  13  20  13  21  13  22  13  23   5  24  13  25  13  26  13
M  ISO  8  27  14  28  14  29  14  30  14  31  14  32  14  33  14  34  14
M  END
>  <minimizedAffinity>  (1) 
-4.97893524

>  <minimizedRMSD>  (1) 
3.55384731

$$$$
