
     RDKit          3D

 27 28  0  0  1  0  0  0  0  0999 V2000
   46.2120   34.3260   41.4090 N   0  0  0  0  0  0  0  0  0  0  0  0
   45.3010   33.9670   40.3530 C   0  0  0  0  0  0  0  0  0  0  0  0
   45.9710   33.2010   39.2530 C   0  0  0  0  0  0  0  0  0  0  0  0
   47.1750   33.8030   38.7570 N   0  0  0  0  0  0  0  0  0  0  0  0
   47.9930   34.4580   39.7020 C   0  0  0  0  0  0  0  0  0  0  0  0
   47.6100   34.3510   41.1290 C   0  0  1  0  0  0  0  0  0  0  0  0
   44.6640   36.0630   44.3510 C   0  0  0  0  0  0  0  0  0  0  0  0
   45.0910   35.8330   43.0370 C   0  0  0  0  0  0  0  0  0  0  0  0
   45.7440   34.6490   42.7040 C   0  0  0  0  0  0  0  0  0  0  0  0
   45.9370   33.7420   43.7210 N   0  0  0  0  0  0  0  0  0  0  0  0
   45.5060   34.0040   44.9850 C   0  0  0  0  0  0  0  0  0  0  0  0
   44.8800   35.1440   45.2980 N   0  0  0  0  0  0  0  0  0  0  0  0
   48.2410   35.4540   41.9540 C   0  0  0  0  0  0  0  0  0  0  0  0
   44.4973   33.3465   40.7762 H   0  0  0  0  0  0  0  0  0  0  0  0
   44.9074   34.8984   39.9200 H   0  0  0  0  0  0  0  0  0  0  0  0
   46.2193   32.1993   39.6337 H   0  0  0  0  0  0  0  0  0  0  0  0
   45.2630   33.1779   38.4115 H   0  0  0  0  0  0  0  0  0  0  0  0
   47.7379   33.0598   38.3191 H   0  0  0  0  0  0  0  0  0  0  0  0
   49.0078   34.0456   39.6014 H   0  0  0  0  0  0  0  0  0  0  0  0
   47.8941   35.5275   39.4647 H   0  0  0  0  0  0  0  0  0  0  0  0
   47.9965   33.3603   41.4105 H   0  0  0  0  0  0  0  0  0  0  0  0
   44.1498   37.0018   44.6045 H   0  0  0  0  0  0  0  0  0  0  0  0
   44.9093   36.5929   42.2627 H   0  0  0  0  0  0  0  0  0  0  0  0
   45.6775   33.2559   45.7730 H   0  0  0  0  0  0  0  0  0  0  0  0
   48.1133   35.2308   43.0235 H   0  0  0  0  0  0  0  0  0  0  0  0
   49.3135   35.5201   41.7187 H   0  0  0  0  0  0  0  0  0  0  0  0
   47.7543   36.4120   41.7187 H   0  0  0  0  0  0  0  0  0  0  0  0
  1  9  1  0
  2  1  1  0
  3  2  1  0
  4  3  1  0
  4  5  1  0
  5  6  1  0
  6  1  1  0
  6 13  1  0
  7 12  2  0
  8  7  1  0
  9  8  2  0
  9 10  1  0
 10 11  2  0
 11 12  1  0
  2 14  1  0
  2 15  1  0
  3 16  1  0
  3 17  1  0
  4 18  1  0
  5 19  1  0
  5 20  1  0
  6 21  1  1
  7 22  1  0
  8 23  1  0
 11 24  1  0
 13 25  1  0
 13 26  1  0
 13 27  1  0
M  ISO  8  14  13  15  13  16  13  17  13  18   5  19  13  20  13  21  13
M  ISO  6  22  14  23  14  24  14  25   8  26   8  27   8
M  END
>  <minimizedAffinity>  (1) 
-4.40043402

>  <minimizedRMSD>  (1) 
1.14024043

$$$$
