
     RDKit          3D

 23 24  0  0  0  0  0  0  0  0999 V2000
   45.9610   33.9280   44.2350 C   0  0  0  0  0  0  0  0  0  0  0  0
   45.8130   34.8670   43.2170 C   0  0  0  0  0  0  0  0  0  0  0  0
   45.0550   36.0290   43.4540 C   0  0  0  0  0  0  0  0  0  0  0  0
   44.5000   36.1650   44.6950 N   0  0  0  0  0  0  0  0  0  0  0  0
   44.6610   35.2340   45.6630 C   0  0  0  0  0  0  0  0  0  0  0  0
   45.3970   34.1140   45.4220 N   0  0  0  0  0  0  0  0  0  0  0  0
   46.4180   34.6690   41.9410 N   0  0  0  0  0  0  0  0  0  0  0  0
   47.6860   35.1670   41.9080 C   0  0  0  0  0  0  0  0  0  0  0  0
   48.4790   35.0960   40.7780 C   0  0  0  0  0  0  0  0  0  0  0  0
   47.9160   34.4840   39.6590 C   0  0  0  0  0  0  0  0  0  0  0  0
   48.5710   34.3750   38.5790 O   0  0  0  0  0  0  0  0  0  0  0  0
   46.6650   34.0070   39.7300 N   0  0  0  0  0  0  0  0  0  0  0  0
   45.9090   34.0870   40.8390 C   0  0  0  0  0  0  0  0  0  0  0  0
   44.7410   33.6700   40.9900 O   0  0  0  0  0  0  0  0  0  0  0  0
   46.7700   32.7080   43.9490 C   0  0  0  0  0  0  0  0  0  0  0  0
   44.9157   36.7932   42.6752 H   0  0  0  0  0  0  0  0  0  0  0  0
   44.1956   35.3822   46.6486 H   0  0  0  0  0  0  0  0  0  0  0  0
   48.0930   35.6424   42.8127 H   0  0  0  0  0  0  0  0  0  0  0  0
   49.5014   35.5014   40.7625 H   0  0  0  0  0  0  0  0  0  0  0  0
   46.2637   33.5576   38.8946 H   0  0  0  0  0  0  0  0  0  0  0  0
   47.0788   32.2424   44.8965 H   0  0  0  0  0  0  0  0  0  0  0  0
   46.1654   31.9946   43.3698 H   0  0  0  0  0  0  0  0  0  0  0  0
   47.6625   32.9873   43.3698 H   0  0  0  0  0  0  0  0  0  0  0  0
  1  6  2  0
  2  3  2  0
  2  1  1  0
  3  4  1  0
  4  5  2  0
  6  5  1  0
  7  2  1  0
  8  7  1  0
  9  8  2  0
 10 12  1  0
 10  9  1  0
 11 10  2  0
 12 13  1  0
 13 14  2  0
 13  7  1  0
 15  1  1  0
  3 16  1  0
  5 17  1  0
  8 18  1  0
  9 19  1  0
 12 20  1  0
 15 21  1  0
 15 22  1  0
 15 23  1  0
M  ISO  8  16  14  17  14  18  14  19  14  20   9  21   8  22   8  23   8
M  END
>  <minimizedAffinity>  (1) 
-5.07407761

>  <minimizedRMSD>  (1) 
2.46691537

$$$$
