
     RDKit          3D

 23 24  0  0  0  0  0  0  0  0999 V2000
   45.4390   35.1260   43.9640 C   0  0  0  0  0  0  0  0  0  0  0  0
   46.5150   34.3480   43.5230 C   0  0  0  0  0  0  0  0  0  0  0  0
   46.9990   33.3450   44.3820 C   0  0  0  0  0  0  0  0  0  0  0  0
   46.3850   33.2070   45.5770 N   0  0  0  0  0  0  0  0  0  0  0  0
   45.3470   33.9780   45.9740 C   0  0  0  0  0  0  0  0  0  0  0  0
   44.8730   34.9490   45.1500 N   0  0  0  0  0  0  0  0  0  0  0  0
   45.2210   32.6990   41.4690 Cl  0  0  0  0  0  0  0  0  0  0  0  0
   46.5940   33.7750   41.2080 C   0  0  0  0  0  0  0  0  0  0  0  0
   47.1540   34.5240   42.2230 C   0  0  0  0  0  0  0  0  0  0  0  0
   48.2420   35.3650   41.9800 C   0  0  0  0  0  0  0  0  0  0  0  0
   48.7350   35.4220   40.6900 C   0  0  0  0  0  0  0  0  0  0  0  0
   48.1600   34.6600   39.6760 C   0  0  0  0  0  0  0  0  0  0  0  0
   47.0880   33.8340   39.9250 C   0  0  0  0  0  0  0  0  0  0  0  0
   44.9620   36.1830   43.0070 C   0  0  0  0  0  0  0  0  0  0  0  0
   47.8420   32.7002   44.0928 H   0  0  0  0  0  0  0  0  0  0  0  0
   44.8879   33.8195   46.9610 H   0  0  0  0  0  0  0  0  0  0  0  0
   48.6913   35.9617   42.7876 H   0  0  0  0  0  0  0  0  0  0  0  0
   49.5899   36.0756   40.4620 H   0  0  0  0  0  0  0  0  0  0  0  0
   48.5704   34.7195   38.6572 H   0  0  0  0  0  0  0  0  0  0  0  0
   46.6374   33.2361   39.1191 H   0  0  0  0  0  0  0  0  0  0  0  0
   44.5742   37.0424   43.5735 H   0  0  0  0  0  0  0  0  0  0  0  0
   45.8001   36.5094   42.3737 H   0  0  0  0  0  0  0  0  0  0  0  0
   44.1628   35.7705   42.3737 H   0  0  0  0  0  0  0  0  0  0  0  0
  1  6  2  0
  2  1  1  0
  2  3  2  0
  3  4  1  0
  4  5  2  0
  6  5  1  0
  8  7  1  0
  8  9  2  0
  9  2  1  0
 10  9  1  0
 11 10  2  0
 12 13  2  0
 12 11  1  0
 13  8  1  0
 14  1  1  0
  3 15  1  0
  5 16  1  0
 10 17  1  0
 11 18  1  0
 12 19  1  0
 13 20  1  0
 14 21  1  0
 14 22  1  0
 14 23  1  0
M  ISO  8  15  14  16  14  17  14  18  14  19  14  20  14  21   8  22   8
M  ISO  1  23   8
M  END
>  <minimizedAffinity>  (1) 
-5.02127838

>  <minimizedRMSD>  (1) 
0.291015446

$$$$
