
     RDKit          3D

 23 24  0  0  0  0  0  0  0  0999 V2000
   45.4490   35.0970   44.0360 C   0  0  0  0  0  0  0  0  0  0  0  0
   46.5180   34.3450   43.5520 C   0  0  0  0  0  0  0  0  0  0  0  0
   47.0110   33.3150   44.3920 C   0  0  0  0  0  0  0  0  0  0  0  0
   46.4250   33.1230   45.5950 N   0  0  0  0  0  0  0  0  0  0  0  0
   45.3800   33.8940   46.0100 C   0  0  0  0  0  0  0  0  0  0  0  0
   44.9000   34.8760   45.2270 N   0  0  0  0  0  0  0  0  0  0  0  0
   47.1660   34.5340   42.2600 C   0  0  0  0  0  0  0  0  0  0  0  0
   46.6010   33.7570   41.2440 C   0  0  0  0  0  0  0  0  0  0  0  0
   47.1220   33.8390   39.9680 C   0  0  0  0  0  0  0  0  0  0  0  0
   48.1810   34.6560   39.6300 C   0  0  0  0  0  0  0  0  0  0  0  0
   48.7110   35.4060   40.6560 C   0  0  0  0  0  0  0  0  0  0  0  0
   48.2280   35.3590   41.9470 C   0  0  0  0  0  0  0  0  0  0  0  0
   44.9330   36.1830   43.1420 C   0  0  0  0  0  0  0  0  0  0  0  0
   47.8535   32.6846   44.0714 H   0  0  0  0  0  0  0  0  0  0  0  0
   44.9252   33.7110   46.9947 H   0  0  0  0  0  0  0  0  0  0  0  0
   45.7532   33.0897   41.4583 H   0  0  0  0  0  0  0  0  0  0  0  0
   46.6688   33.2203   39.1794 H   0  0  0  0  0  0  0  0  0  0  0  0
   48.5772   34.7052   38.6050 H   0  0  0  0  0  0  0  0  0  0  0  0
   49.5578   36.0727   40.4360 H   0  0  0  0  0  0  0  0  0  0  0  0
   48.6897   35.9800   42.7288 H   0  0  0  0  0  0  0  0  0  0  0  0
   44.5412   37.0077   43.7555 H   0  0  0  0  0  0  0  0  0  0  0  0
   45.7507   36.5548   42.5071 H   0  0  0  0  0  0  0  0  0  0  0  0
   44.1283   35.7839   42.5071 H   0  0  0  0  0  0  0  0  0  0  0  0
  1  6  2  0
  2  1  1  0
  2  3  2  0
  3  4  1  0
  4  5  2  0
  6  5  1  0
  7  2  1  0
  8  7  2  0
  9  8  1  0
 10  9  2  0
 10 11  1  0
 11 12  2  0
 12  7  1  0
 13  1  1  0
  3 14  1  0
  5 15  1  0
  8 16  1  0
  9 17  1  0
 10 18  1  0
 11 19  1  0
 12 20  1  0
 13 21  1  0
 13 22  1  0
 13 23  1  0
M  ISO  8  14  14  15  14  16  14  17  14  18  14  19  14  20  14  21   8
M  ISO  2  22   8  23   8
M  END
>  <minimizedAffinity>  (1) 
-4.93162298

>  <minimizedRMSD>  (1) 
0.372663707

$$$$
