
     RDKit          3D

 27 28  0  0  0  0  0  0  0  0999 V2000
   45.4760   35.2800   43.8180 C   0  0  0  0  0  0  0  0  0  0  0  0
   46.4830   34.3240   43.6850 C   0  0  0  0  0  0  0  0  0  0  0  0
   46.7030   33.4130   44.7420 C   0  0  0  0  0  0  0  0  0  0  0  0
   45.9010   33.5290   45.8430 N   0  0  0  0  0  0  0  0  0  0  0  0
   44.9340   34.4710   45.9330 C   0  0  0  0  0  0  0  0  0  0  0  0
   44.7290   35.3430   44.9140 N   0  0  0  0  0  0  0  0  0  0  0  0
   47.3340   34.1840   42.5420 N   0  0  0  0  0  0  0  0  0  0  0  0
   48.7600   33.9500   42.7810 C   0  0  0  0  0  0  0  0  0  0  0  0
   49.5960   35.0820   42.2250 C   0  0  0  0  0  0  0  0  0  0  0  0
   48.8500   35.7120   41.1490 N   0  0  0  0  0  0  0  0  0  0  0  0
   48.2500   34.6100   40.3940 C   0  0  0  0  0  0  0  0  0  0  0  0
   46.9820   34.2410   41.1350 C   0  0  0  0  0  0  0  0  0  0  0  0
   45.2820   36.2200   42.6770 C   0  0  0  0  0  0  0  0  0  0  0  0
   47.4863   32.6431   44.6817 H   0  0  0  0  0  0  0  0  0  0  0  0
   44.3106   34.5302   46.8373 H   0  0  0  0  0  0  0  0  0  0  0  0
   48.9351   33.8719   43.8642 H   0  0  0  0  0  0  0  0  0  0  0  0
   49.0517   33.0178   42.2752 H   0  0  0  0  0  0  0  0  0  0  0  0
   49.8002   35.8177   43.0169 H   0  0  0  0  0  0  0  0  0  0  0  0
   50.5545   34.6963   41.8474 H   0  0  0  0  0  0  0  0  0  0  0  0
   48.1179   36.3279   41.5306 H   0  0  0  0  0  0  0  0  0  0  0  0
   48.9367   33.7513   40.3596 H   0  0  0  0  0  0  0  0  0  0  0  0
   48.0400   34.9003   39.3540 H   0  0  0  0  0  0  0  0  0  0  0  0
   46.2071   35.0034   40.9669 H   0  0  0  0  0  0  0  0  0  0  0  0
   46.5797   33.2791   40.7844 H   0  0  0  0  0  0  0  0  0  0  0  0
   45.0739   37.2284   43.0640 H   0  0  0  0  0  0  0  0  0  0  0  0
   46.1941   36.2441   42.0626 H   0  0  0  0  0  0  0  0  0  0  0  0
   44.4349   35.8810   42.0626 H   0  0  0  0  0  0  0  0  0  0  0  0
  1  6  2  0
  2  1  1  0
  2  3  2  0
  3  4  1  0
  4  5  2  0
  6  5  1  0
  7  8  1  0
  7  2  1  0
  9  8  1  0
 10  9  1  0
 11 12  1  0
 11 10  1  0
 12  7  1  0
 13  1  1  0
  3 14  1  0
  5 15  1  0
  8 16  1  0
  8 17  1  0
  9 18  1  0
  9 19  1  0
 10 20  1  0
 11 21  1  0
 11 22  1  0
 12 23  1  0
 12 24  1  0
 13 25  1  0
 13 26  1  0
 13 27  1  0
M  ISO  8  14  14  15  14  16  13  17  13  18  13  19  13  20   5  21  13
M  ISO  6  22  13  23  13  24  13  25   8  26   8  27   8
M  END
>  <minimizedAffinity>  (1) 
-4.38927889

>  <minimizedRMSD>  (1) 
0.665494204

$$$$
