
     RDKit          3D

 25 26  0  0  1  0  0  0  0  0999 V2000
   45.6050   34.9950   43.8720 C   0  0  0  0  0  0  0  0  0  0  0  0
   46.6800   34.4030   43.2150 C   0  0  0  0  0  0  0  0  0  0  0  0
   47.3320   33.3440   43.8510 C   0  0  0  0  0  0  0  0  0  0  0  0
   46.9000   32.9360   45.0700 N   0  0  0  0  0  0  0  0  0  0  0  0
   45.8380   33.5490   45.6750 C   0  0  0  0  0  0  0  0  0  0  0  0
   45.1960   34.5700   45.0810 N   0  0  0  0  0  0  0  0  0  0  0  0
   47.1290   33.7250   40.9340 C   0  0  2  0  0  0  0  0  0  0  0  0
   47.0880   34.9030   41.8940 C   0  0  2  0  0  0  0  0  0  0  0  0
   48.4810   35.4240   41.8160 C   0  0  0  0  0  0  0  0  0  0  0  0
   49.2550   34.2890   41.7330 O   0  0  0  0  0  0  0  0  0  0  0  0
   48.6000   33.5140   40.7800 C   0  0  0  0  0  0  0  0  0  0  0  0
   46.5090   34.1200   39.7560 O   0  0  0  0  0  0  0  0  0  0  0  0
   44.9130   36.1260   43.1870 C   0  0  0  0  0  0  0  0  0  0  0  0
   48.1863   32.8466   43.3685 H   0  0  0  0  0  0  0  0  0  0  0  0
   45.5036   33.2012   46.6635 H   0  0  0  0  0  0  0  0  0  0  0  0
   46.6172   32.8056   41.2544 H   0  0  0  0  0  0  0  0  0  0  0  0
   46.3699   35.7053   41.6689 H   0  0  0  0  0  0  0  0  0  0  0  0
   48.6137   36.0542   40.9243 H   0  0  0  0  0  0  0  0  0  0  0  0
   48.7462   36.0562   42.6763 H   0  0  0  0  0  0  0  0  0  0  0  0
   48.8416   32.4520   40.9343 H   0  0  0  0  0  0  0  0  0  0  0  0
   48.9208   33.8054   39.7690 H   0  0  0  0  0  0  0  0  0  0  0  0
   45.6938   34.6393   39.9702 H   0  0  0  0  0  0  0  0  0  0  0  0
   44.4945   36.8099   43.9401 H   0  0  0  0  0  0  0  0  0  0  0  0
   45.6333   36.6696   42.5580 H   0  0  0  0  0  0  0  0  0  0  0  0
   44.1011   35.7321   42.5580 H   0  0  0  0  0  0  0  0  0  0  0  0
  1  6  2  0
  2  3  2  0
  2  1  1  0
  3  4  1  0
  4  5  2  0
  6  5  1  0
  7 12  1  0
  7  8  1  0
  8  2  1  0
  9  8  1  0
 10  9  1  0
 11  7  1  0
 11 10  1  0
 13  1  1  0
  3 14  1  0
  5 15  1  0
  7 16  1  1
  8 17  1  6
  9 18  1  0
  9 19  1  0
 11 20  1  0
 11 21  1  0
 12 22  1  0
 13 23  1  0
 13 24  1  0
 13 25  1  0
M  ISO  8  14  14  15  14  16  13  17  13  18  13  19  13  20  13  21  13
M  ISO  4  22   3  23   8  24   8  25   8
M  END
>  <minimizedAffinity>  (1) 
-4.37650585

>  <minimizedRMSD>  (1) 
2.13944483

$$$$
