
     RDKit          3D

 21 22  0  0  0  0  0  0  0  0999 V2000
   45.4160   35.0630   44.0030 C   0  0  0  0  0  0  0  0  0  0  0  0
   46.4650   34.2510   43.5850 C   0  0  0  0  0  0  0  0  0  0  0  0
   46.9230   33.2960   44.4930 C   0  0  0  0  0  0  0  0  0  0  0  0
   46.3420   33.2090   45.7060 N   0  0  0  0  0  0  0  0  0  0  0  0
   45.3230   34.0140   46.0830 C   0  0  0  0  0  0  0  0  0  0  0  0
   44.8660   34.9380   45.2270 N   0  0  0  0  0  0  0  0  0  0  0  0
   47.0430   34.4020   42.2610 C   0  0  0  0  0  0  0  0  0  0  0  0
   48.1240   35.2210   42.0280 C   0  0  0  0  0  0  0  0  0  0  0  0
   48.7230   35.4080   40.7870 C   0  0  0  0  0  0  0  0  0  0  0  0
   48.1830   34.7200   39.7380 N   0  0  0  0  0  0  0  0  0  0  0  0
   47.1210   33.9070   39.9330 C   0  0  0  0  0  0  0  0  0  0  0  0
   46.6150   33.7910   41.1550 N   0  0  0  0  0  0  0  0  0  0  0  0
   44.8810   36.1110   43.0630 C   0  0  0  0  0  0  0  0  0  0  0  0
   47.7488   32.6218   44.2221 H   0  0  0  0  0  0  0  0  0  0  0  0
   44.8740   33.9114   47.0819 H   0  0  0  0  0  0  0  0  0  0  0  0
   48.5446   35.7671   42.8852 H   0  0  0  0  0  0  0  0  0  0  0  0
   49.5874   36.0758   40.6569 H   0  0  0  0  0  0  0  0  0  0  0  0
   46.6825   33.3499   39.0920 H   0  0  0  0  0  0  0  0  0  0  0  0
   44.4564   36.9427   43.6444 H   0  0  0  0  0  0  0  0  0  0  0  0
   45.6978   36.4863   42.4290 H   0  0  0  0  0  0  0  0  0  0  0  0
   44.0980   35.6695   42.4290 H   0  0  0  0  0  0  0  0  0  0  0  0
  1  6  2  0
  2  1  1  0
  2  3  2  0
  3  4  1  0
  4  5  2  0
  6  5  1  0
  7  2  1  0
  8  7  2  0
  9  8  1  0
 10 11  1  0
 10  9  2  0
 11 12  2  0
 12  7  1  0
 13  1  1  0
  3 14  1  0
  5 15  1  0
  8 16  1  0
  9 17  1  0
 11 18  1  0
 13 19  1  0
 13 20  1  0
 13 21  1  0
M  ISO  8  14  14  15  14  16  14  17  14  18  14  19   8  20   8  21   8
M  END
>  <minimizedAffinity>  (1) 
-4.36759043

>  <minimizedRMSD>  (1) 
0.781950533

$$$$
