
     RDKit          3D

 20 21  0  0  0  0  0  0  0  0999 V2000
   45.7810   34.9730   43.6300 C   0  0  0  0  0  0  0  0  0  0  0  0
   46.8910   34.4780   42.9530 C   0  0  0  0  0  0  0  0  0  0  0  0
   47.5880   33.3970   43.5310 C   0  0  0  0  0  0  0  0  0  0  0  0
   47.1300   32.9100   44.7130 N   0  0  0  0  0  0  0  0  0  0  0  0
   46.0380   33.4210   45.3480 C   0  0  0  0  0  0  0  0  0  0  0  0
   45.3580   34.4630   44.8010 N   0  0  0  0  0  0  0  0  0  0  0  0
   45.0510   36.1280   42.9960 C   0  0  0  0  0  0  0  0  0  0  0  0
   47.3350   35.0540   41.6710 C   0  0  0  0  0  0  0  0  0  0  0  0
   48.7090   35.6730   41.7210 C   0  0  0  0  0  0  0  0  0  0  0  0
   48.3960   34.4790   40.8630 C   0  0  0  0  0  0  0  0  0  0  0  0
   48.4723   32.9632   43.0413 H   0  0  0  0  0  0  0  0  0  0  0  0
   45.7065   32.9898   46.3041 H   0  0  0  0  0  0  0  0  0  0  0  0
   44.6401   36.7781   43.7824 H   0  0  0  0  0  0  0  0  0  0  0  0
   45.7491   36.7045   42.3713 H   0  0  0  0  0  0  0  0  0  0  0  0
   44.2307   35.7448   42.3713 H   0  0  0  0  0  0  0  0  0  0  0  0
   46.3073   35.3424   41.4053 H   0  0  0  0  0  0  0  0  0  0  0  0
   48.8938   36.6552   41.2615 H   0  0  0  0  0  0  0  0  0  0  0  0
   49.4407   35.9128   42.5066 H   0  0  0  0  0  0  0  0  0  0  0  0
   48.8099   33.4942   41.1254 H   0  0  0  0  0  0  0  0  0  0  0  0
   48.5104   34.2481   39.7936 H   0  0  0  0  0  0  0  0  0  0  0  0
  1  6  2  0
  2  3  2  0
  2  1  1  0
  3  4  1  0
  4  5  2  0
  6  5  1  0
  7  1  1  0
  8  9  1  0
  8  2  1  0
 10  8  1  0
 10  9  1  0
  3 11  1  0
  5 12  1  0
  7 13  1  0
  7 14  1  0
  7 15  1  0
  8 16  1  0
  9 17  1  0
  9 18  1  0
 10 19  1  0
 10 20  1  0
M  ISO  8  11  14  12  14  13   8  14   8  15   8  16  13  17  13  18  13
M  ISO  2  19  13  20  13
M  END
>  <minimizedAffinity>  (1) 
-3.89563775

>  <minimizedRMSD>  (1) 
1.05149341

$$$$
