
     RDKit          3D

 19 19  0  0  0  0  0  0  0  0999 V2000
   45.7210   34.9920   43.6480 C   0  0  0  0  0  0  0  0  0  0  0  0
   46.8290   34.4700   42.9910 C   0  0  0  0  0  0  0  0  0  0  0  0
   47.5320   33.3980   43.6000 C   0  0  0  0  0  0  0  0  0  0  0  0
   47.0520   32.9580   44.8030 N   0  0  0  0  0  0  0  0  0  0  0  0
   45.9730   33.4910   45.4090 C   0  0  0  0  0  0  0  0  0  0  0  0
   45.3200   34.5040   44.8200 N   0  0  0  0  0  0  0  0  0  0  0  0
   45.0060   36.1240   42.9900 C   0  0  0  0  0  0  0  0  0  0  0  0
   47.3510   34.9370   41.6850 C   0  0  0  0  0  0  0  0  0  0  0  0
   48.7160   35.5330   41.7370 C   0  0  0  0  0  0  0  0  0  0  0  0
   48.4167   32.9446   43.1292 H   0  0  0  0  0  0  0  0  0  0  0  0
   45.6307   33.0990   46.3781 H   0  0  0  0  0  0  0  0  0  0  0  0
   44.5860   36.7890   43.7590 H   0  0  0  0  0  0  0  0  0  0  0  0
   45.7118   36.6885   42.3629 H   0  0  0  0  0  0  0  0  0  0  0  0
   44.1930   35.7292   42.3629 H   0  0  0  0  0  0  0  0  0  0  0  0
   46.6600   35.6972   41.2918 H   0  0  0  0  0  0  0  0  0  0  0  0
   47.4251   34.0464   41.0436 H   0  0  0  0  0  0  0  0  0  0  0  0
   49.0187   35.6652   42.7863 H   0  0  0  0  0  0  0  0  0  0  0  0
   49.4278   34.8638   41.2316 H   0  0  0  0  0  0  0  0  0  0  0  0
   48.7090   36.5100   41.2316 H   0  0  0  0  0  0  0  0  0  0  0  0
  1  6  2  0
  2  3  2  0
  2  1  1  0
  3  4  1  0
  4  5  2  0
  6  5  1  0
  7  1  1  0
  8  9  1  0
  8  2  1  0
  3 10  1  0
  5 11  1  0
  7 12  1  0
  7 13  1  0
  7 14  1  0
  8 15  1  0
  8 16  1  0
  9 17  1  0
  9 18  1  0
  9 19  1  0
M  ISO  8  10  14  11  14  12   8  13   8  14   8  15   8  16   8  17   8
M  ISO  2  18   8  19   8
M  END
>  <minimizedAffinity>  (1) 
-3.50019193

>  <minimizedRMSD>  (1) 
1.08418155

$$$$
