
     RDKit          3D

 16 16  0  0  0  0  0  0  0  0999 V2000
   44.5470   35.6630   44.8450 C   0  0  0  0  0  0  0  0  0  0  0  0
   45.1620   35.6860   43.5630 C   0  0  0  0  0  0  0  0  0  0  0  0
   46.1400   34.7200   43.3230 C   0  0  0  0  0  0  0  0  0  0  0  0
   46.4530   33.8250   44.2920 N   0  0  0  0  0  0  0  0  0  0  0  0
   45.8330   33.8430   45.5060 C   0  0  0  0  0  0  0  0  0  0  0  0
   44.8900   34.7540   45.7780 N   0  0  0  0  0  0  0  0  0  0  0  0
   46.2730   32.8040   46.4790 C   0  0  0  0  0  0  0  0  0  0  0  0
   45.2560   32.8420   47.6100 C   0  0  0  0  0  0  0  0  0  0  0  0
   43.7714   36.4065   45.0808 H   0  0  0  0  0  0  0  0  0  0  0  0
   44.8813   36.4270   42.8000 H   0  0  0  0  0  0  0  0  0  0  0  0
   46.6549   34.6848   42.3516 H   0  0  0  0  0  0  0  0  0  0  0  0
   46.2809   31.8121   46.0035 H   0  0  0  0  0  0  0  0  0  0  0  0
   47.2930   32.9953   46.8436 H   0  0  0  0  0  0  0  0  0  0  0  0
   45.7813   32.8224   48.5763 H   0  0  0  0  0  0  0  0  0  0  0  0
   44.6592   33.7631   47.5357 H   0  0  0  0  0  0  0  0  0  0  0  0
   44.5922   31.9680   47.5357 H   0  0  0  0  0  0  0  0  0  0  0  0
  1  6  2  0
  2  1  1  0
  3  2  2  0
  3  4  1  0
  4  5  2  0
  5  6  1  0
  5  7  1  0
  7  8  1  0
  1  9  1  0
  2 10  1  0
  3 11  1  0
  7 12  1  0
  7 13  1  0
  8 14  1  0
  8 15  1  0
  8 16  1  0
M  ISO  8   9  14  10  14  11  14  12   8  13   8  14   8  15   8  16   8
M  END
>  <minimizedAffinity>  (1) 
-3.16763735

>  <minimizedRMSD>  (1) 
0.722507238

$$$$
