
     RDKit          3D

 32 33  0  0  1  0  0  0  0  0999 V2000
   45.8860   34.1640   44.4520 C   0  0  0  0  0  0  0  0  0  0  0  0
   46.3590   34.7900   43.2910 C   0  0  0  0  0  0  0  0  0  0  0  0
   45.8020   36.0180   42.9240 C   0  0  0  0  0  0  0  0  0  0  0  0
   44.8320   36.5490   43.7100 N   0  0  0  0  0  0  0  0  0  0  0  0
   44.4030   35.9190   44.8200 C   0  0  0  0  0  0  0  0  0  0  0  0
   44.9170   34.7320   45.2040 N   0  0  0  0  0  0  0  0  0  0  0  0
   46.9640   33.7900   41.0690 C   0  0  2  0  0  0  0  0  0  0  0  0
   47.4440   34.1640   42.4600 C   0  0  1  0  0  0  0  0  0  0  0  0
   48.5630   34.9320   42.3260 O   0  0  0  0  0  0  0  0  0  0  0  0
   48.6790   35.3820   41.0320 C   0  0  0  0  0  0  0  0  0  0  0  0
   48.1720   34.2090   40.2320 C   0  0  1  0  0  0  0  0  0  0  0  0
   45.8430   34.4420   40.6450 O   0  0  0  0  0  0  0  0  0  0  0  0
   49.1500   33.2390   40.2200 O   0  0  0  0  0  0  0  0  0  0  0  0
   46.4810   32.8470   44.8290 C   0  0  0  0  0  0  0  0  0  0  0  0
   47.0700   32.8990   46.0680 O   0  0  0  0  0  0  0  0  0  0  0  0
   45.5450   30.9070   46.9770 O   0  0  0  0  0  0  0  0  0  0  0  0
   46.1630   32.2470   47.3080 P   0  0  0  0  0  0  0  0  0  0  0  0
   45.0100   33.3380   47.8890 O   0  0  0  0  0  0  0  0  0  0  0  0
   47.2290   31.9660   48.6190 O   0  0  0  0  0  0  0  0  0  0  0  0
   46.1422   36.5420   42.0187 H   0  0  0  0  0  0  0  0  0  0  0  0
   43.6136   36.3837   45.4291 H   0  0  0  0  0  0  0  0  0  0  0  0
   46.6625   32.7339   41.0080 H   0  0  0  0  0  0  0  0  0  0  0  0
   47.7117   33.2611   43.0284 H   0  0  0  0  0  0  0  0  0  0  0  0
   48.0590   36.2751   40.8646 H   0  0  0  0  0  0  0  0  0  0  0  0
   49.7013   35.6868   40.7637 H   0  0  0  0  0  0  0  0  0  0  0  0
   47.9203   34.4061   39.1795 H   0  0  0  0  0  0  0  0  0  0  0  0
   45.3211   34.7455   41.4296 H   0  0  0  0  0  0  0  0  0  0  0  0
   49.3901   33.0009   41.1505 H   0  0  0  0  0  0  0  0  0  0  0  0
   45.6867   32.0862   44.8421 H   0  0  0  0  0  0  0  0  0  0  0  0
   47.2539   32.5921   44.0890 H   0  0  0  0  0  0  0  0  0  0  0  0
   45.0179   33.3305   48.8789 H   0  0  0  0  0  0  0  0  0  0  0  0
   46.7436   32.0940   49.4723 H   0  0  0  0  0  0  0  0  0  0  0  0
  1 14  1  0
  1  6  2  0
  2  1  1  0
  3  2  2  0
  3  4  1  0
  4  5  2  0
  5  6  1  0
  7  8  1  0
  8  2  1  0
  9  8  1  0
 10  9  1  0
 11 10  1  0
 11  7  1  0
 12  7  1  0
 13 11  1  0
 14 15  1  0
 15 17  1  0
 16 17  2  0
 17 18  1  0
 17 19  1  0
  3 20  1  0
  5 21  1  0
  7 22  1  1
  8 23  1  1
 10 24  1  0
 10 25  1  0
 11 26  1  6
 12 27  1  0
 13 28  1  0
 14 29  1  0
 14 30  1  0
 18 31  1  0
 19 32  1  0
M  ISO  8  20  14  21  14  22  13  23  13  24  13  25  13  26  13  27   3
M  ISO  5  28   3  29   8  30   8  31   3  32   3
M  END
>  <minimizedAffinity>  (1) 
-5.53755188

>  <minimizedRMSD>  (1) 
4.86263895

$$$$
