
     RDKit          3D

 30 31  0  0  1  0  0  0  0  0999 V2000
   45.4610   34.8160   44.1570 C   0  0  0  0  0  0  0  0  0  0  0  0
   46.4970   34.1070   43.5570 C   0  0  0  0  0  0  0  0  0  0  0  0
   47.1190   33.0980   44.2870 C   0  0  0  0  0  0  0  0  0  0  0  0
   46.6830   32.8510   45.5530 N   0  0  0  0  0  0  0  0  0  0  0  0
   45.6670   33.5660   46.1000 C   0  0  0  0  0  0  0  0  0  0  0  0
   45.0640   34.5380   45.4090 N   0  0  0  0  0  0  0  0  0  0  0  0
   48.3280   34.9920   42.0910 C   0  0  2  0  0  0  0  0  0  0  0  0
   46.9280   34.4050   42.1550 C   0  0  1  0  0  0  0  0  0  0  0  0
   46.8840   33.3410   41.3070 O   0  0  0  0  0  0  0  0  0  0  0  0
   48.1450   32.9600   40.9560 C   0  0  0  0  0  0  0  0  0  0  0  0
   48.9150   34.2660   40.8840 C   0  0  1  0  0  0  0  0  0  0  0  0
   49.1110   34.7400   43.1840 O   0  0  0  0  0  0  0  0  0  0  0  0
   48.5270   34.8830   39.7030 O   0  0  0  0  0  0  0  0  0  0  0  0
   44.8040   35.9150   43.3610 C   0  0  0  0  0  0  0  0  0  0  0  0
   42.9320   35.3520   41.8040 C   0  0  0  0  0  0  0  0  0  0  0  0
   43.8680   35.3790   40.9330 O   0  0  0  0  0  0  0  0  0  0  0  0
   43.4060   35.6390   43.1370 N   0  0  0  0  0  0  0  0  0  0  0  0
   47.9432   32.5141   43.8514 H   0  0  0  0  0  0  0  0  0  0  0  0
   45.3359   33.3425   47.1249 H   0  0  0  0  0  0  0  0  0  0  0  0
   48.2906   36.0901   42.0384 H   0  0  0  0  0  0  0  0  0  0  0  0
   46.1833   35.1413   41.8185 H   0  0  0  0  0  0  0  0  0  0  0  0
   48.5776   32.2921   41.7155 H   0  0  0  0  0  0  0  0  0  0  0  0
   48.1707   32.4000   40.0096 H   0  0  0  0  0  0  0  0  0  0  0  0
   50.0135   34.2098   40.8958 H   0  0  0  0  0  0  0  0  0  0  0  0
   48.5900   34.9077   44.0089 H   0  0  0  0  0  0  0  0  0  0  0  0
   48.0119   35.7021   39.9124 H   0  0  0  0  0  0  0  0  0  0  0  0
   44.8979   36.8619   43.9129 H   0  0  0  0  0  0  0  0  0  0  0  0
   45.3047   35.9815   42.3838 H   0  0  0  0  0  0  0  0  0  0  0  0
   41.8809   35.1340   41.5638 H   0  0  0  0  0  0  0  0  0  0  0  0
   42.7462   35.6467   43.9279 H   0  0  0  0  0  0  0  0  0  0  0  0
  1  6  2  0
  2  1  1  0
  2  3  2  0
  3  4  1  0
  4  5  2  0
  6  5  1  0
  7  8  1  0
  7 12  1  0
  8  2  1  0
  9  8  1  0
 10  9  1  0
 11 10  1  0
 11  7  1  0
 13 11  1  0
 14  1  1  0
 15 17  1  0
 16 15  2  0
 17 14  1  0
  3 18  1  0
  5 19  1  0
  7 20  1  6
  8 21  1  6
 10 22  1  0
 10 23  1  0
 11 24  1  1
 12 25  1  0
 13 26  1  0
 14 27  1  0
 14 28  1  0
 15 29  1  0
 17 30  1  0
M  ISO  8  18  14  19  14  20  13  21  13  22  13  23  13  24  13  25   3
M  ISO  4  26   3  27   8  28   8  29   6
M  END
>  <minimizedAffinity>  (1) 
-5.21990442

>  <minimizedRMSD>  (1) 
0.824546158

$$$$
