
     RDKit          3D

 33 34  0  0  1  0  0  0  0  0999 V2000
   45.4550   34.8970   44.0860 C   0  0  0  0  0  0  0  0  0  0  0  0
   46.4950   34.1280   43.5380 C   0  0  0  0  0  0  0  0  0  0  0  0
   47.0480   33.1310   44.3230 C   0  0  0  0  0  0  0  0  0  0  0  0
   46.5730   32.9260   45.5920 N   0  0  0  0  0  0  0  0  0  0  0  0
   45.5660   33.6940   46.0800 C   0  0  0  0  0  0  0  0  0  0  0  0
   45.0080   34.6720   45.3350 N   0  0  0  0  0  0  0  0  0  0  0  0
   48.4050   34.9000   42.1120 C   0  0  2  0  0  0  0  0  0  0  0  0
   46.9820   34.3650   42.1400 C   0  0  1  0  0  0  0  0  0  0  0  0
   46.9430   33.2630   41.3430 O   0  0  0  0  0  0  0  0  0  0  0  0
   48.2010   32.8370   41.0430 C   0  0  0  0  0  0  0  0  0  0  0  0
   49.0100   34.1180   40.9480 C   0  0  1  0  0  0  0  0  0  0  0  0
   49.1370   34.6710   43.2430 O   0  0  0  0  0  0  0  0  0  0  0  0
   48.6780   34.6960   39.7290 O   0  0  0  0  0  0  0  0  0  0  0  0
   44.8690   35.9720   43.2350 C   0  0  0  0  0  0  0  0  0  0  0  0
   43.6680   35.5110   42.4940 C   0  0  0  0  0  0  0  0  0  0  0  0
   43.6360   35.5120   41.1400 C   0  0  0  0  0  0  0  0  0  0  0  0
   42.5220   35.0860   40.2110 C   0  0  0  0  0  0  0  0  0  0  0  0
   47.8642   32.5067   43.9304 H   0  0  0  0  0  0  0  0  0  0  0  0
   45.1977   33.5164   47.1012 H   0  0  0  0  0  0  0  0  0  0  0  0
   48.4093   35.9964   42.0228 H   0  0  0  0  0  0  0  0  0  0  0  0
   46.2774   35.1105   41.7428 H   0  0  0  0  0  0  0  0  0  0  0  0
   48.5929   32.1851   41.8377 H   0  0  0  0  0  0  0  0  0  0  0  0
   48.2375   32.2438   40.1174 H   0  0  0  0  0  0  0  0  0  0  0  0
   50.1060   34.0390   40.9974 H   0  0  0  0  0  0  0  0  0  0  0  0
   48.5765   34.8463   44.0400 H   0  0  0  0  0  0  0  0  0  0  0  0
   48.1912   35.5434   39.8873 H   0  0  0  0  0  0  0  0  0  0  0  0
   44.5848   36.8175   43.8787 H   0  0  0  0  0  0  0  0  0  0  0  0
   45.6280   36.2678   42.4958 H   0  0  0  0  0  0  0  0  0  0  0  0
   42.7882   35.1623   43.0548 H   0  0  0  0  0  0  0  0  0  0  0  0
   44.5499   35.8740   40.6464 H   0  0  0  0  0  0  0  0  0  0  0  0
   41.6566   34.7551   40.8039 H   0  0  0  0  0  0  0  0  0  0  0  0
   42.2286   35.9354   39.5766 H   0  0  0  0  0  0  0  0  0  0  0  0
   42.8702   34.2576   39.5766 H   0  0  0  0  0  0  0  0  0  0  0  0
  1  6  2  0
  2  1  1  0
  2  3  2  0
  3  4  1  0
  4  5  2  0
  6  5  1  0
  7  8  1  0
  7 12  1  0
  8  2  1  0
  9  8  1  0
 10  9  1  0
 11 10  1  0
 11  7  1  0
 13 11  1  0
 14  1  1  0
 15 14  1  0
 16 15  2  0
 17 16  1  0
  3 18  1  0
  5 19  1  0
  7 20  1  6
  8 21  1  6
 10 22  1  0
 10 23  1  0
 11 24  1  1
 12 25  1  0
 13 26  1  0
 14 27  1  0
 14 28  1  0
 15 29  1  0
 16 30  1  0
 17 31  1  0
 17 32  1  0
 17 33  1  0
M  ISO  8  18  14  19  14  20  13  21  13  22  13  23  13  24  13  25   3
M  ISO  6  26   3  27   8  28   8  31   8  32   8  33   8
M  END
>  <minimizedAffinity>  (1) 
-5.03219271

>  <minimizedRMSD>  (1) 
0.37950024

$$$$
