
     RDKit          3D

 28 29  0  0  1  0  0  0  0  0999 V2000
   45.4450   34.9540   44.1010 C   0  0  0  0  0  0  0  0  0  0  0  0
   46.4480   34.1650   43.5150 C   0  0  0  0  0  0  0  0  0  0  0  0
   46.9860   33.1260   44.2660 C   0  0  0  0  0  0  0  0  0  0  0  0
   46.5190   32.9160   45.5390 N   0  0  0  0  0  0  0  0  0  0  0  0
   45.5490   33.7060   46.0600 C   0  0  0  0  0  0  0  0  0  0  0  0
   45.0270   34.7030   45.3530 N   0  0  0  0  0  0  0  0  0  0  0  0
   48.3360   34.9820   42.0670 C   0  0  2  0  0  0  0  0  0  0  0  0
   46.9180   34.4260   42.1180 C   0  0  1  0  0  0  0  0  0  0  0  0
   46.8860   33.3320   41.3050 O   0  0  0  0  0  0  0  0  0  0  0  0
   48.1500   32.9160   40.9920 C   0  0  0  0  0  0  0  0  0  0  0  0
   48.9220   34.2090   40.8860 C   0  0  1  0  0  0  0  0  0  0  0  0
   49.0840   34.7460   43.1870 O   0  0  0  0  0  0  0  0  0  0  0  0
   48.5660   34.7970   39.6840 O   0  0  0  0  0  0  0  0  0  0  0  0
   44.8660   36.0660   43.2920 C   0  0  0  0  0  0  0  0  0  0  0  0
   44.8880   37.3320   43.9700 N   0  0  0  0  0  0  0  0  0  0  0  0
   47.7734   32.4826   43.8464 H   0  0  0  0  0  0  0  0  0  0  0  0
   45.1886   33.5195   47.0824 H   0  0  0  0  0  0  0  0  0  0  0  0
   48.3360   36.0788   41.9831 H   0  0  0  0  0  0  0  0  0  0  0  0
   46.1969   35.1701   41.7489 H   0  0  0  0  0  0  0  0  0  0  0  0
   48.5619   32.2745   41.7850 H   0  0  0  0  0  0  0  0  0  0  0  0
   48.1906   32.3126   40.0731 H   0  0  0  0  0  0  0  0  0  0  0  0
   50.0195   34.1385   40.9099 H   0  0  0  0  0  0  0  0  0  0  0  0
   48.5354   34.9191   43.9927 H   0  0  0  0  0  0  0  0  0  0  0  0
   48.0615   35.6303   39.8609 H   0  0  0  0  0  0  0  0  0  0  0  0
   43.8219   35.8164   43.0520 H   0  0  0  0  0  0  0  0  0  0  0  0
   45.4853   36.1690   42.3887 H   0  0  0  0  0  0  0  0  0  0  0  0
   44.8853   37.1763   44.9882 H   0  0  0  0  0  0  0  0  0  0  0  0
   45.7381   37.8492   43.7040 H   0  0  0  0  0  0  0  0  0  0  0  0
  1  6  2  0
  2  1  1  0
  2  3  2  0
  3  4  1  0
  4  5  2  0
  6  5  1  0
  7  8  1  0
  7 12  1  0
  8  2  1  0
  9  8  1  0
 10  9  1  0
 11 10  1  0
 11  7  1  0
 13 11  1  0
 14 15  1  0
 14  1  1  0
  3 16  1  0
  5 17  1  0
  7 18  1  6
  8 19  1  6
 10 20  1  0
 10 21  1  0
 11 22  1  1
 12 23  1  0
 13 24  1  0
 14 25  1  0
 14 26  1  0
 15 27  1  0
 15 28  1  0
M  ISO  8  16  14  17  14  18  13  19  13  20  13  21  13  22  13  23   3
M  ISO  5  24   3  25   8  26   8  27   5  28   5
M  END
>  <minimizedAffinity>  (1) 
-4.76777315

>  <minimizedRMSD>  (1) 
0.311731249

$$$$
