
     RDKit          3D

 27 28  0  0  1  0  0  0  0  0999 V2000
   48.3250   35.0000   42.1580 C   0  0  2  0  0  0  0  0  0  0  0  0
   46.8790   34.5310   42.1910 C   0  0  1  0  0  0  0  0  0  0  0  0
   46.7400   33.5080   41.3030 O   0  0  0  0  0  0  0  0  0  0  0  0
   47.9700   33.0300   40.9360 C   0  0  0  0  0  0  0  0  0  0  0  0
   48.8350   34.2560   40.9160 C   0  0  1  0  0  0  0  0  0  0  0  0
   45.4580   35.0080   44.2280 C   0  0  0  0  0  0  0  0  0  0  0  0
   46.4150   34.2230   43.5790 C   0  0  0  0  0  0  0  0  0  0  0  0
   46.9150   33.1140   44.2670 C   0  0  0  0  0  0  0  0  0  0  0  0
   46.4500   32.8560   45.5220 N   0  0  0  0  0  0  0  0  0  0  0  0
   45.5210   33.6560   46.0990 C   0  0  0  0  0  0  0  0  0  0  0  0
   45.0310   34.7180   45.4600 N   0  0  0  0  0  0  0  0  0  0  0  0
   44.9400   36.2070   43.4850 C   0  0  0  0  0  0  0  0  0  0  0  0
   43.6830   36.0190   42.9710 O   0  0  0  0  0  0  0  0  0  0  0  0
   49.0740   34.6320   43.2430 O   0  0  0  0  0  0  0  0  0  0  0  0
   48.5120   34.9530   39.7590 O   0  0  0  0  0  0  0  0  0  0  0  0
   48.3989   36.0975   42.1526 H   0  0  0  0  0  0  0  0  0  0  0  0
   46.2062   35.3412   41.8734 H   0  0  0  0  0  0  0  0  0  0  0  0
   48.3419   32.2992   41.6693 H   0  0  0  0  0  0  0  0  0  0  0  0
   47.9527   32.5040   39.9701 H   0  0  0  0  0  0  0  0  0  0  0  0
   49.9230   34.0944   40.9261 H   0  0  0  0  0  0  0  0  0  0  0  0
   47.6699   32.4614   43.8042 H   0  0  0  0  0  0  0  0  0  0  0  0
   45.1646   33.4246   47.1136 H   0  0  0  0  0  0  0  0  0  0  0  0
   44.9113   37.0620   44.1765 H   0  0  0  0  0  0  0  0  0  0  0  0
   45.6178   36.3858   42.6373 H   0  0  0  0  0  0  0  0  0  0  0  0
   43.0344   35.9220   43.7126 H   0  0  0  0  0  0  0  0  0  0  0  0
   48.5905   34.8695   44.0736 H   0  0  0  0  0  0  0  0  0  0  0  0
   48.1083   35.8241   40.0004 H   0  0  0  0  0  0  0  0  0  0  0  0
  1  2  1  0
  1 14  1  0
  2  7  1  0
  3  2  1  0
  4  3  1  0
  5  4  1  0
  5  1  1  0
  6 11  2  0
  7  6  1  0
  7  8  2  0
  8  9  1  0
  9 10  2  0
 11 10  1  0
 12  6  1  0
 13 12  1  0
 15  5  1  0
  1 16  1  6
  2 17  1  6
  4 18  1  0
  4 19  1  0
  5 20  1  1
  8 21  1  0
 10 22  1  0
 12 23  1  0
 12 24  1  0
 13 25  1  0
 14 26  1  0
 15 27  1  0
M  ISO  8  16  13  17  13  18  13  19  13  20  13  21  14  22  14  23   8
M  ISO  4  24   8  25   3  26   3  27   3
M  END
>  <minimizedAffinity>  (1) 
-4.76194668

>  <minimizedRMSD>  (1) 
0.163072065

$$$$
