
     RDKit          3D

 34 35  0  0  1  0  0  0  0  0999 V2000
   46.3310   32.7640   43.9130 C   0  0  0  0  0  0  0  0  0  0  0  0
   47.4020   31.9440   43.5800 C   0  0  0  0  0  0  0  0  0  0  0  0
   47.8530   31.0390   44.5420 C   0  0  0  0  0  0  0  0  0  0  0  0
   47.2240   30.9960   45.7520 N   0  0  0  0  0  0  0  0  0  0  0  0
   46.1810   31.8130   46.0290 C   0  0  0  0  0  0  0  0  0  0  0  0
   45.7280   32.6940   45.1250 N   0  0  0  0  0  0  0  0  0  0  0  0
   48.9110   33.2560   42.0710 C   0  0  2  0  0  0  0  0  0  0  0  0
   48.0540   32.0280   42.2430 C   0  0  1  0  0  0  0  0  0  0  0  0
   48.8270   30.9300   41.9390 O   0  0  0  0  0  0  0  0  0  0  0  0
   50.1470   31.2750   41.9100 C   0  0  0  0  0  0  0  0  0  0  0  0
   50.1360   32.6800   41.3530 C   0  0  1  0  0  0  0  0  0  0  0  0
   49.3220   33.8340   43.2510 O   0  0  0  0  0  0  0  0  0  0  0  0
   49.9030   32.5700   39.9920 O   0  0  0  0  0  0  0  0  0  0  0  0
   45.8290   33.7440   42.8930 C   0  0  0  0  0  0  0  0  0  0  0  0
   46.2620   35.0880   43.1760 N   0  0  0  0  0  0  0  0  0  0  0  0
   44.8360   35.9860   43.6040 S   0  0  0  0  0  0  0  0  0  0  0  0
   43.6390   35.5220   42.8110 O   0  0  0  0  0  0  0  0  0  0  0  0
   44.4820   35.7760   45.0550 O   0  0  0  0  0  0  0  0  0  0  0  0
   45.0130   37.6210   43.2990 O   0  0  0  0  0  0  0  0  0  0  0  0
   48.7011   30.3718   44.3283 H   0  0  0  0  0  0  0  0  0  0  0  0
   45.6957   31.7532   47.0143 H   0  0  0  0  0  0  0  0  0  0  0  0
   48.3624   34.0546   41.5502 H   0  0  0  0  0  0  0  0  0  0  0  0
   47.2010   32.0763   41.5501 H   0  0  0  0  0  0  0  0  0  0  0  0
   50.5798   31.2569   42.9211 H   0  0  0  0  0  0  0  0  0  0  0  0
   50.7562   30.5827   41.3104 H   0  0  0  0  0  0  0  0  0  0  0  0
   51.0472   33.2806   41.4910 H   0  0  0  0  0  0  0  0  0  0  0  0
   48.9569   33.3206   44.0147 H   0  0  0  0  0  0  0  0  0  0  0  0
   49.0182   32.1523   39.8414 H   0  0  0  0  0  0  0  0  0  0  0  0
   44.7293   33.7190   42.8879 H   0  0  0  0  0  0  0  0  0  0  0  0
   46.2386   33.4546   41.9140 H   0  0  0  0  0  0  0  0  0  0  0  0
   46.9314   35.0888   43.9588 H   0  0  0  0  0  0  0  0  0  0  0  0
   42.9199   35.2432   43.4317 H   0  0  0  0  0  0  0  0  0  0  0  0
   45.1768   36.1882   45.6272 H   0  0  0  0  0  0  0  0  0  0  0  0
   45.0662   38.1128   44.1566 H   0  0  0  0  0  0  0  0  0  0  0  0
  1  6  2  0
  2  1  1  0
  2  3  2  0
  3  4  1  0
  4  5  2  0
  6  5  1  0
  7  8  1  0
  7 12  1  0
  8  2  1  0
  9  8  1  0
 10  9  1  0
 11 10  1  0
 11  7  1  0
 13 11  1  0
 14 15  1  0
 14  1  1  0
 15 16  1  0
 16 18  1  0
 17 16  1  0
 19 16  1  0
  3 20  1  0
  5 21  1  0
  7 22  1  6
  8 23  1  6
 10 24  1  0
 10 25  1  0
 11 26  1  6
 12 27  1  0
 13 28  1  0
 14 29  1  0
 14 30  1  0
 15 31  1  0
 17 32  1  0
 18 33  1  0
 19 34  1  0
M  ISO  8  20  14  21  14  22  13  23  13  24  13  25  13  26  13  27   3
M  ISO  7  28   3  29   8  30   8  31   5  32   3  33   3  34   3
M  END
>  <minimizedAffinity>  (1) 
-4.24997377

>  <minimizedRMSD>  (1) 
2.54724884

$$$$
