
     RDKit          3D

 52 56  0  0  1  0  0  0  0  0999 V2000
   46.0340   35.1200   42.1520 C   0  0  0  0  0  0  0  0  0  0  0  0
   45.5910   32.7660   40.5700 F   0  0  0  0  0  0  0  0  0  0  0  0
   44.6400   33.6820   40.6880 C   0  0  0  0  0  0  0  0  0  0  0  0
   44.7770   34.8210   41.4380 C   0  0  0  0  0  0  0  0  0  0  0  0
   43.7310   35.7230   41.5390 C   0  0  0  0  0  0  0  0  0  0  0  0
   42.5750   35.4110   40.8580 C   0  0  0  0  0  0  0  0  0  0  0  0
   42.3660   34.2800   40.0810 C   0  0  0  0  0  0  0  0  0  0  0  0
   43.4440   33.3900   40.0000 C   0  0  0  0  0  0  0  0  0  0  0  0
   43.2900   32.1800   39.1970 C   0  0  0  0  0  0  0  0  0  0  0  0
   42.4880   31.1430   39.6570 C   0  0  0  0  0  0  0  0  0  0  0  0
   42.3330   29.9830   38.9000 C   0  0  0  0  0  0  0  0  0  0  0  0
   42.9920   29.8710   37.6730 C   0  0  0  0  0  0  0  0  0  0  0  0
   43.7940   30.8990   37.2020 C   0  0  0  0  0  0  0  0  0  0  0  0
   44.4340   30.7740   35.9960 C   0  0  0  0  0  0  0  0  0  0  0  0
   45.2270   31.8390   35.5740 C   0  0  0  0  0  0  0  0  0  0  0  0
   45.3970   33.0010   36.3080 C   0  0  0  0  0  0  0  0  0  0  0  0
   44.7300   33.0830   37.5230 C   0  0  0  0  0  0  0  0  0  0  0  0
   43.9360   32.0390   37.9650 C   0  0  0  0  0  0  0  0  0  0  0  0
   46.1570   34.3880   43.4390 C   0  0  0  0  0  0  0  0  0  0  0  0
   47.1320   33.4070   43.5200 C   0  0  0  0  0  0  0  0  0  0  0  0
   47.2460   32.7310   44.7510 C   0  0  0  0  0  0  0  0  0  0  0  0
   46.4160   33.0660   45.7720 N   0  0  0  0  0  0  0  0  0  0  0  0
   45.4900   34.0260   45.6360 C   0  0  0  0  0  0  0  0  0  0  0  0
   45.3720   34.6660   44.4880 N   0  0  0  0  0  0  0  0  0  0  0  0
   49.2080   33.9770   42.2620 C   0  0  2  0  0  0  0  0  0  0  0  0
   48.0010   33.0030   42.3820 C   0  0  1  0  0  0  0  0  0  0  0  0
   48.4580   31.7440   42.4000 O   0  0  0  0  0  0  0  0  0  0  0  0
   49.8120   31.7210   42.6020 C   0  0  0  0  0  0  0  0  0  0  0  0
   50.3020   32.9470   41.8910 C   0  0  1  0  0  0  0  0  0  0  0  0
   49.5320   34.6240   43.3840 O   0  0  0  0  0  0  0  0  0  0  0  0
   50.2840   32.6560   40.5460 O   0  0  0  0  0  0  0  0  0  0  0  0
   46.0724   36.1999   42.3576 H   0  0  0  0  0  0  0  0  0  0  0  0
   46.8644   34.7958   41.5076 H   0  0  0  0  0  0  0  0  0  0  0  0
   43.8190   36.6439   42.1342 H   0  0  0  0  0  0  0  0  0  0  0  0
   41.7408   36.1237   40.9372 H   0  0  0  0  0  0  0  0  0  0  0  0
   41.4141   34.0946   39.5619 H   0  0  0  0  0  0  0  0  0  0  0  0
   41.9725   31.2380   40.6241 H   0  0  0  0  0  0  0  0  0  0  0  0
   41.6974   29.1629   39.2653 H   0  0  0  0  0  0  0  0  0  0  0  0
   42.8730   28.9563   37.0737 H   0  0  0  0  0  0  0  0  0  0  0  0
   44.3254   29.8663   35.3841 H   0  0  0  0  0  0  0  0  0  0  0  0
   45.7450   31.7524   34.6075 H   0  0  0  0  0  0  0  0  0  0  0  0
   46.0321   33.8223   35.9447 H   0  0  0  0  0  0  0  0  0  0  0  0
   44.8337   33.9872   38.1408 H   0  0  0  0  0  0  0  0  0  0  0  0
   47.9993   31.9404   44.8834 H   0  0  0  0  0  0  0  0  0  0  0  0
   44.8304   34.2795   46.4790 H   0  0  0  0  0  0  0  0  0  0  0  0
   49.0292   34.8081   41.5639 H   0  0  0  0  0  0  0  0  0  0  0  0
   47.3361   33.0557   41.5073 H   0  0  0  0  0  0  0  0  0  0  0  0
   50.0488   31.7697   43.6751 H   0  0  0  0  0  0  0  0  0  0  0  0
   50.2814   30.7982   42.2303 H   0  0  0  0  0  0  0  0  0  0  0  0
   51.3129   33.2981   42.1455 H   0  0  0  0  0  0  0  0  0  0  0  0
   49.2609   34.0825   44.1672 H   0  0  0  0  0  0  0  0  0  0  0  0
   50.2234   31.6758   40.4212 H   0  0  0  0  0  0  0  0  0  0  0  0
  1 19  1  0
  2  3  1  0
  3  4  2  0
  4  5  1  0
  4  1  1  0
  6  5  2  0
  7  6  1  0
  8  7  2  0
  8  3  1  0
  9 10  2  0
  9  8  1  0
 11 10  1  0
 12 11  2  0
 13 12  1  0
 13 18  2  0
 14 13  1  0
 15 14  2  0
 15 16  1  0
 16 17  2  0
 17 18  1  0
 18  9  1  0
 19 20  1  0
 19 24  2  0
 20 21  2  0
 21 22  1  0
 23 22  2  0
 24 23  1  0
 25 26  1  0
 25 30  1  0
 26 27  1  0
 26 20  1  0
 27 28  1  0
 29 25  1  0
 29 28  1  0
 31 29  1  0
  1 32  1  0
  1 33  1  0
  5 34  1  0
  6 35  1  0
  7 36  1  0
 10 37  1  0
 11 38  1  0
 12 39  1  0
 14 40  1  0
 15 41  1  0
 16 42  1  0
 17 43  1  0
 21 44  1  0
 23 45  1  0
 25 46  1  6
 26 47  1  6
 28 48  1  0
 28 49  1  0
 29 50  1  1
 30 51  1  0
 31 52  1  0
M  ISO  8  32   8  33   8  34  14  35  14  36  14  37  14  38  14  39  14
M  ISO  8  40  14  41  14  42  14  43  14  44  14  45  14  46  13  47  13
M  ISO  5  48  13  49  13  50  13  51   3  52   3
M  END
>  <minimizedAffinity>  (1) 
-6.35602331

>  <minimizedRMSD>  (1) 
0.7370978

$$$$
