
     RDKit          3D

 33 34  0  0  1  0  0  0  0  0999 V2000
   46.5480   34.2160   41.8390 C   0  0  1  0  0  0  0  0  0  0  0  0
   47.7480   35.0700   41.5220 C   0  0  0  0  0  0  0  0  0  0  0  0
   48.2110   34.6660   40.1400 C   0  0  0  0  0  0  0  0  0  0  0  0
   48.7730   33.2830   40.2620 C   0  0  0  0  0  0  0  0  0  0  0  0
   47.8800   32.3050   40.8910 C   0  0  0  0  0  0  0  0  0  0  0  0
   46.9610   32.7810   41.9840 C   0  0  1  0  0  0  0  0  0  0  0  0
   44.6510   36.2290   44.4770 C   0  0  0  0  0  0  0  0  0  0  0  0
   45.2460   35.8870   43.2730 C   0  0  0  0  0  0  0  0  0  0  0  0
   45.8770   34.6540   43.0770 C   0  0  0  0  0  0  0  0  0  0  0  0
   45.8610   33.8320   44.1410 N   0  0  0  0  0  0  0  0  0  0  0  0
   45.2950   34.1350   45.3100 C   0  0  0  0  0  0  0  0  0  0  0  0
   44.6840   35.3380   45.4940 N   0  0  0  0  0  0  0  0  0  0  0  0
   47.5360   32.5940   43.2160 O   0  0  0  0  0  0  0  0  0  0  0  0
   48.2650   31.4740   43.4370 C   0  0  0  0  0  0  0  0  0  0  0  0
   47.6570   30.7070   44.6290 C   0  0  0  0  0  0  0  0  0  0  0  0
   45.8390   34.3225   41.0047 H   0  0  0  0  0  0  0  0  0  0  0  0
   47.4704   36.1343   41.5335 H   0  0  0  0  0  0  0  0  0  0  0  0
   48.5455   34.9265   42.2659 H   0  0  0  0  0  0  0  0  0  0  0  0
   48.9857   35.3599   39.7817 H   0  0  0  0  0  0  0  0  0  0  0  0
   47.3796   34.6934   39.4203 H   0  0  0  0  0  0  0  0  0  0  0  0
   49.0159   32.9229   39.2514 H   0  0  0  0  0  0  0  0  0  0  0  0
   49.6514   33.3648   40.9191 H   0  0  0  0  0  0  0  0  0  0  0  0
   47.2491   31.8808   40.0960 H   0  0  0  0  0  0  0  0  0  0  0  0
   48.5585   31.5997   41.3932 H   0  0  0  0  0  0  0  0  0  0  0  0
   46.0495   32.1719   41.8934 H   0  0  0  0  0  0  0  0  0  0  0  0
   44.1615   37.2060   44.6030 H   0  0  0  0  0  0  0  0  0  0  0  0
   45.2213   36.6093   42.4437 H   0  0  0  0  0  0  0  0  0  0  0  0
   45.3220   33.4062   46.1334 H   0  0  0  0  0  0  0  0  0  0  0  0
   48.2448   30.8377   42.5399 H   0  0  0  0  0  0  0  0  0  0  0  0
   49.3065   31.7466   43.6625 H   0  0  0  0  0  0  0  0  0  0  0  0
   48.0104   31.1528   45.5705 H   0  0  0  0  0  0  0  0  0  0  0  0
   46.5597   30.7685   44.5833 H   0  0  0  0  0  0  0  0  0  0  0  0
   47.9673   29.6527   44.5833 H   0  0  0  0  0  0  0  0  0  0  0  0
  1  6  1  0
  1  9  1  0
  2  1  1  0
  3  4  1  0
  3  2  1  0
  4  5  1  0
  5  6  1  0
  6 13  1  0
  7 12  2  0
  8  7  1  0
  9  8  2  0
  9 10  1  0
 10 11  2  0
 11 12  1  0
 13 14  1  0
 14 15  1  0
  1 16  1  6
  2 17  1  0
  2 18  1  0
  3 19  1  0
  3 20  1  0
  4 21  1  0
  4 22  1  0
  5 23  1  0
  5 24  1  0
  6 25  1  1
  7 26  1  0
  8 27  1  0
 11 28  1  0
 14 29  1  0
 14 30  1  0
 15 31  1  0
 15 32  1  0
 15 33  1  0
M  ISO  8  16  13  17  13  18  13  19  13  20  13  21  13  22  13  23  13
M  ISO  8  24  13  25  13  26  14  27  14  28  14  29   8  30   8  31   8
M  ISO  2  32   8  33   8
M  END
>  <minimizedAffinity>  (1) 
-4.15025759

>  <minimizedRMSD>  (1) 
1.34057081

$$$$
