
     RDKit          3D

 46 49  0  0  1  0  0  0  0  0999 V2000
   46.0230   35.2010   42.1030 C   0  0  0  0  0  0  0  0  0  0  0  0
   45.6630   33.2380   40.0230 F   0  0  0  0  0  0  0  0  0  0  0  0
   44.6420   33.9970   40.4060 C   0  0  0  0  0  0  0  0  0  0  0  0
   44.7500   34.9620   41.3880 C   0  0  0  0  0  0  0  0  0  0  0  0
   43.6490   35.7100   41.7200 C   0  0  0  0  0  0  0  0  0  0  0  0
   42.4660   35.4550   41.0420 C   0  0  0  0  0  0  0  0  0  0  0  0
   42.2950   34.5070   40.0540 C   0  0  0  0  0  0  0  0  0  0  0  0
   43.4310   33.7850   39.7610 C   0  0  0  0  0  0  0  0  0  0  0  0
   43.3030   32.7810   38.7360 N   0  0  0  0  0  0  0  0  0  0  0  0
   44.4240   32.2190   38.2470 C   0  0  0  0  0  0  0  0  0  0  0  0
   44.3180   31.2550   37.2650 C   0  0  0  0  0  0  0  0  0  0  0  0
   43.0350   30.9480   36.8630 C   0  0  0  0  0  0  0  0  0  0  0  0
   42.8790   30.0620   35.9550 O   0  0  0  0  0  0  0  0  0  0  0  0
   41.8960   31.4920   37.3310 N   0  0  0  0  0  0  0  0  0  0  0  0
   42.0770   32.4330   38.2960 C   0  0  0  0  0  0  0  0  0  0  0  0
   41.0540   32.9910   38.7870 O   0  0  0  0  0  0  0  0  0  0  0  0
   46.1360   34.4100   43.3570 C   0  0  0  0  0  0  0  0  0  0  0  0
   47.0920   33.4080   43.3960 C   0  0  0  0  0  0  0  0  0  0  0  0
   47.2000   32.6810   44.5950 C   0  0  0  0  0  0  0  0  0  0  0  0
   46.3860   32.9830   45.6330 N   0  0  0  0  0  0  0  0  0  0  0  0
   45.4750   33.9650   45.5420 C   0  0  0  0  0  0  0  0  0  0  0  0
   45.3610   34.6580   44.4210 N   0  0  0  0  0  0  0  0  0  0  0  0
   49.1990   33.9590   42.1760 C   0  0  2  0  0  0  0  0  0  0  0  0
   47.9500   33.0340   42.2330 C   0  0  1  0  0  0  0  0  0  0  0  0
   48.3490   31.7580   42.1780 O   0  0  0  0  0  0  0  0  0  0  0  0
   49.7020   31.6620   42.3940 C   0  0  0  0  0  0  0  0  0  0  0  0
   50.2460   32.9040   41.7470 C   0  0  1  0  0  0  0  0  0  0  0  0
   49.5420   34.5260   43.3340 O   0  0  0  0  0  0  0  0  0  0  0  0
   50.2230   32.6980   40.3860 O   0  0  0  0  0  0  0  0  0  0  0  0
   46.0898   36.2698   42.3543 H   0  0  0  0  0  0  0  0  0  0  0  0
   46.8408   34.8867   41.4379 H   0  0  0  0  0  0  0  0  0  0  0  0
   43.7025   36.4860   42.4978 H   0  0  0  0  0  0  0  0  0  0  0  0
   41.5891   36.0603   41.3154 H   0  0  0  0  0  0  0  0  0  0  0  0
   41.3343   34.3420   39.5443 H   0  0  0  0  0  0  0  0  0  0  0  0
   45.4111   32.5238   38.6248 H   0  0  0  0  0  0  0  0  0  0  0  0
   45.2007   30.7629   36.8306 H   0  0  0  0  0  0  0  0  0  0  0  0
   40.9646   31.2182   36.9867 H   0  0  0  0  0  0  0  0  0  0  0  0
   47.9405   31.8730   44.6884 H   0  0  0  0  0  0  0  0  0  0  0  0
   44.8240   34.1931   46.3988 H   0  0  0  0  0  0  0  0  0  0  0  0
   49.0640   34.8380   41.5286 H   0  0  0  0  0  0  0  0  0  0  0  0
   47.2945   33.1689   41.3600 H   0  0  0  0  0  0  0  0  0  0  0  0
   49.9288   31.6470   43.4703 H   0  0  0  0  0  0  0  0  0  0  0  0
   50.1380   30.7384   41.9855 H   0  0  0  0  0  0  0  0  0  0  0  0
   51.2724   33.1902   42.0199 H   0  0  0  0  0  0  0  0  0  0  0  0
   49.2075   33.9731   44.0840 H   0  0  0  0  0  0  0  0  0  0  0  0
   50.1151   31.7316   40.2003 H   0  0  0  0  0  0  0  0  0  0  0  0
  1 17  1  0
  2  3  1  0
  3  4  2  0
  4  5  1  0
  4  1  1  0
  6  5  2  0
  7  6  1  0
  8  7  2  0
  8  3  1  0
  9  8  1  0
 10  9  1  0
 11 10  2  0
 12 11  1  0
 12 14  1  0
 13 12  2  0
 14 15  1  0
 15  9  1  0
 15 16  2  0
 17 18  1  0
 17 22  2  0
 18 19  2  0
 19 20  1  0
 21 20  2  0
 22 21  1  0
 23 24  1  0
 23 28  1  0
 24 18  1  0
 25 24  1  0
 25 26  1  0
 27 23  1  0
 27 26  1  0
 29 27  1  0
  1 30  1  0
  1 31  1  0
  5 32  1  0
  6 33  1  0
  7 34  1  0
 10 35  1  0
 11 36  1  0
 14 37  1  0
 19 38  1  0
 21 39  1  0
 23 40  1  6
 24 41  1  6
 26 42  1  0
 26 43  1  0
 27 44  1  1
 28 45  1  0
 29 46  1  0
M  ISO  8  30   8  31   8  32  14  33  14  34  14  35  14  36  14  37   9
M  ISO  8  38  14  39  14  40  13  41  13  42  13  43  13  44  13  45   3
M  ISO  1  46   3
M  END
>  <minimizedAffinity>  (1) 
-6.32722616

>  <minimizedRMSD>  (1) 
0.16360943

$$$$
