
     RDKit          3D

 43 46  0  0  1  0  0  0  0  0999 V2000
   46.1910   34.3970   43.5550 C   0  0  0  0  0  0  0  0  0  0  0  0
   47.1220   33.3720   43.5470 C   0  0  0  0  0  0  0  0  0  0  0  0
   47.2220   32.6010   44.7210 C   0  0  0  0  0  0  0  0  0  0  0  0
   46.4230   32.8890   45.7790 N   0  0  0  0  0  0  0  0  0  0  0  0
   45.5370   33.8980   45.7270 C   0  0  0  0  0  0  0  0  0  0  0  0
   45.4310   34.6290   44.6320 N   0  0  0  0  0  0  0  0  0  0  0  0
   49.1640   33.9930   42.2550 C   0  0  2  0  0  0  0  0  0  0  0  0
   47.9590   33.0170   42.3650 C   0  0  1  0  0  0  0  0  0  0  0  0
   48.4090   31.7580   42.3130 O   0  0  0  0  0  0  0  0  0  0  0  0
   49.7720   31.7250   42.4870 C   0  0  0  0  0  0  0  0  0  0  0  0
   50.2430   32.9780   41.8070 C   0  0  1  0  0  0  0  0  0  0  0  0
   49.5180   34.5950   43.3910 O   0  0  0  0  0  0  0  0  0  0  0  0
   50.1820   32.7460   40.4500 O   0  0  0  0  0  0  0  0  0  0  0  0
   46.0850   35.2340   42.3280 C   0  0  0  0  0  0  0  0  0  0  0  0
   45.8630   33.4820   40.0570 F   0  0  0  0  0  0  0  0  0  0  0  0
   44.8010   34.1510   40.4900 C   0  0  0  0  0  0  0  0  0  0  0  0
   44.8430   35.0050   41.5770 C   0  0  0  0  0  0  0  0  0  0  0  0
   43.6970   35.6570   41.9700 C   0  0  0  0  0  0  0  0  0  0  0  0
   42.5410   35.4190   41.2440 C   0  0  0  0  0  0  0  0  0  0  0  0
   42.4400   34.5820   40.1570 C   0  0  0  0  0  0  0  0  0  0  0  0
   43.6180   33.9380   39.7860 C   0  0  0  0  0  0  0  0  0  0  0  0
   43.5960   33.0300   38.6400 C   0  0  0  0  0  0  0  0  0  0  0  0
   42.4960   32.3570   38.1540 C   0  0  0  0  0  0  0  0  0  0  0  0
   42.8830   31.6190   37.0850 N   0  0  0  0  0  0  0  0  0  0  0  0
   44.2150   31.8130   36.8860 C   0  0  0  0  0  0  0  0  0  0  0  0
   44.6360   32.6810   37.8490 N   0  0  0  0  0  0  0  0  0  0  0  0
   47.9423   31.7717   44.7799 H   0  0  0  0  0  0  0  0  0  0  0  0
   44.8997   34.1153   46.5968 H   0  0  0  0  0  0  0  0  0  0  0  0
   48.9698   34.8547   41.5994 H   0  0  0  0  0  0  0  0  0  0  0  0
   47.2715   33.1108   41.5115 H   0  0  0  0  0  0  0  0  0  0  0  0
   50.0323   31.7361   43.5557 H   0  0  0  0  0  0  0  0  0  0  0  0
   50.2343   30.8152   42.0764 H   0  0  0  0  0  0  0  0  0  0  0  0
   51.2639   33.3138   42.0415 H   0  0  0  0  0  0  0  0  0  0  0  0
   49.2025   34.0586   44.1609 H   0  0  0  0  0  0  0  0  0  0  0  0
   49.9337   31.8015   40.2875 H   0  0  0  0  0  0  0  0  0  0  0  0
   46.1253   36.2931   42.6226 H   0  0  0  0  0  0  0  0  0  0  0  0
   46.9212   34.9564   41.6695 H   0  0  0  0  0  0  0  0  0  0  0  0
   43.6984   36.3429   42.8300 H   0  0  0  0  0  0  0  0  0  0  0  0
   41.6281   35.9430   41.5635 H   0  0  0  0  0  0  0  0  0  0  0  0
   41.4933   34.4315   39.6175 H   0  0  0  0  0  0  0  0  0  0  0  0
   41.4767   32.4098   38.5641 H   0  0  0  0  0  0  0  0  0  0  0  0
   42.2718   31.0134   36.5187 H   0  0  0  0  0  0  0  0  0  0  0  0
   44.8335   31.3569   36.0990 H   0  0  0  0  0  0  0  0  0  0  0  0
  1  6  2  0
  2  1  1  0
  2  3  2  0
  3  4  1  0
  5  4  2  0
  6  5  1  0
  7  8  1  0
  7 12  1  0
  8  2  1  0
  9  8  1  0
  9 10  1  0
 11  7  1  0
 11 10  1  0
 13 11  1  0
 14  1  1  0
 15 16  1  0
 16 17  2  0
 17 18  1  0
 17 14  1  0
 19 18  2  0
 20 19  1  0
 21 20  2  0
 21 16  1  0
 22 21  1  0
 23 22  2  0
 24 23  1  0
 25 24  1  0
 25 26  2  0
 26 22  1  0
  3 27  1  0
  5 28  1  0
  7 29  1  6
  8 30  1  6
 10 31  1  0
 10 32  1  0
 11 33  1  1
 12 34  1  0
 13 35  1  0
 14 36  1  0
 14 37  1  0
 18 38  1  0
 19 39  1  0
 20 40  1  0
 23 41  1  0
 24 42  1  0
 25 43  1  0
M  ISO  8  27  14  28  14  29  13  30  13  31  13  32  13  33  13  34   3
M  ISO  8  35   3  36   8  37   8  38  14  39  14  40  14  41  14  42   9
M  ISO  1  43  14
M  END
>  <minimizedAffinity>  (1) 
-6.19637012

>  <minimizedRMSD>  (1) 
0.385353863

$$$$
