
     RDKit          3D

 45 48  0  0  1  0  0  0  0  0999 V2000
   46.1890   34.4420   43.4520 C   0  0  0  0  0  0  0  0  0  0  0  0
   47.1290   33.4250   43.4920 C   0  0  0  0  0  0  0  0  0  0  0  0
   47.2100   32.6900   44.6890 C   0  0  0  0  0  0  0  0  0  0  0  0
   46.3860   33.0030   45.7210 N   0  0  0  0  0  0  0  0  0  0  0  0
   45.4950   34.0010   45.6260 C   0  0  0  0  0  0  0  0  0  0  0  0
   45.4080   34.6980   44.5100 N   0  0  0  0  0  0  0  0  0  0  0  0
   49.2080   34.0080   42.2440 C   0  0  2  0  0  0  0  0  0  0  0  0
   47.9900   33.0440   42.3380 C   0  0  1  0  0  0  0  0  0  0  0  0
   48.4320   31.7810   42.3190 O   0  0  0  0  0  0  0  0  0  0  0  0
   49.7880   31.7370   42.5230 C   0  0  0  0  0  0  0  0  0  0  0  0
   50.2900   32.9760   41.8420 C   0  0  1  0  0  0  0  0  0  0  0  0
   49.5410   34.6210   43.3820 O   0  0  0  0  0  0  0  0  0  0  0  0
   50.2620   32.7250   40.4870 O   0  0  0  0  0  0  0  0  0  0  0  0
   46.1000   35.2380   42.1990 C   0  0  0  0  0  0  0  0  0  0  0  0
   45.9690   33.4020   39.9970 F   0  0  0  0  0  0  0  0  0  0  0  0
   44.8880   34.0730   40.3690 C   0  0  0  0  0  0  0  0  0  0  0  0
   44.8770   34.9560   41.4220 C   0  0  0  0  0  0  0  0  0  0  0  0
   43.7080   35.6080   41.7770 C   0  0  0  0  0  0  0  0  0  0  0  0
   42.5860   35.3230   41.0290 C   0  0  0  0  0  0  0  0  0  0  0  0
   42.5280   34.4460   39.9560 C   0  0  0  0  0  0  0  0  0  0  0  0
   43.7260   33.8060   39.6270 C   0  0  0  0  0  0  0  0  0  0  0  0
   43.7930   32.8610   38.5200 C   0  0  0  0  0  0  0  0  0  0  0  0
   42.9150   31.8230   38.3430 C   0  0  0  0  0  0  0  0  0  0  0  0
   42.9440   30.9120   37.3170 C   0  0  0  0  0  0  0  0  0  0  0  0
   43.9570   31.0550   36.3670 C   0  0  0  0  0  0  0  0  0  0  0  0
   44.8400   32.0990   36.5440 C   0  0  0  0  0  0  0  0  0  0  0  0
   44.7450   32.9510   37.5800 N   0  0  0  0  0  0  0  0  0  0  0  0
   47.9350   31.8686   44.7876 H   0  0  0  0  0  0  0  0  0  0  0  0
   44.8387   34.2374   46.4766 H   0  0  0  0  0  0  0  0  0  0  0  0
   49.0372   34.8606   41.5703 H   0  0  0  0  0  0  0  0  0  0  0  0
   47.3243   33.1292   41.4665 H   0  0  0  0  0  0  0  0  0  0  0  0
   50.0240   31.7567   43.5972 H   0  0  0  0  0  0  0  0  0  0  0  0
   50.2487   30.8183   42.1308 H   0  0  0  0  0  0  0  0  0  0  0  0
   51.3068   33.3054   42.1021 H   0  0  0  0  0  0  0  0  0  0  0  0
   49.2435   34.0733   44.1512 H   0  0  0  0  0  0  0  0  0  0  0  0
   50.1536   31.7530   40.3336 H   0  0  0  0  0  0  0  0  0  0  0  0
   46.1103   36.3063   42.4609 H   0  0  0  0  0  0  0  0  0  0  0  0
   46.9597   34.9607   41.5713 H   0  0  0  0  0  0  0  0  0  0  0  0
   43.6764   36.3191   42.6156 H   0  0  0  0  0  0  0  0  0  0  0  0
   41.6540   35.8365   41.3077 H   0  0  0  0  0  0  0  0  0  0  0  0
   41.5970   34.2655   39.3987 H   0  0  0  0  0  0  0  0  0  0  0  0
   42.1157   31.7103   39.0903 H   0  0  0  0  0  0  0  0  0  0  0  0
   42.2011   30.1039   37.2462 H   0  0  0  0  0  0  0  0  0  0  0  0
   44.0467   30.3652   35.5149 H   0  0  0  0  0  0  0  0  0  0  0  0
   45.6497   32.2398   35.8129 H   0  0  0  0  0  0  0  0  0  0  0  0
  1  2  1  0
  1  6  2  0
  2  3  2  0
  3  4  1  0
  5  4  2  0
  6  5  1  0
  7  8  1  0
  7 12  1  0
  8  2  1  0
  9  8  1  0
  9 10  1  0
 11  7  1  0
 11 10  1  0
 13 11  1  0
 14  1  1  0
 15 16  1  0
 16 17  2  0
 17 18  1  0
 17 14  1  0
 19 18  2  0
 20 19  1  0
 21 20  2  0
 21 16  1  0
 22 21  1  0
 23 22  2  0
 24 23  1  0
 25 26  1  0
 25 24  2  0
 26 27  2  0
 27 22  1  0
  3 28  1  0
  5 29  1  0
  7 30  1  6
  8 31  1  6
 10 32  1  0
 10 33  1  0
 11 34  1  1
 12 35  1  0
 13 36  1  0
 14 37  1  0
 14 38  1  0
 18 39  1  0
 19 40  1  0
 20 41  1  0
 23 42  1  0
 24 43  1  0
 25 44  1  0
 26 45  1  0
M  ISO  8  28  14  29  14  30  13  31  13  32  13  33  13  34  13  35   3
M  ISO  8  36   3  37   8  38   8  39  14  40  14  41  14  42  14  43  14
M  ISO  2  44  14  45  14
M  END
>  <minimizedAffinity>  (1) 
-6.17207336

>  <minimizedRMSD>  (1) 
0.364943802

$$$$
