
     RDKit          3D

 46 49  0  0  1  0  0  0  0  0999 V2000
   46.1690   34.4420   43.4130 C   0  0  0  0  0  0  0  0  0  0  0  0
   47.1330   33.4490   43.4760 C   0  0  0  0  0  0  0  0  0  0  0  0
   47.2350   32.7440   44.6910 C   0  0  0  0  0  0  0  0  0  0  0  0
   46.4050   33.0640   45.7170 N   0  0  0  0  0  0  0  0  0  0  0  0
   45.4890   34.0360   45.5990 C   0  0  0  0  0  0  0  0  0  0  0  0
   45.3830   34.7030   44.4650 N   0  0  0  0  0  0  0  0  0  0  0  0
   49.2220   34.0230   42.2410 C   0  0  2  0  0  0  0  0  0  0  0  0
   48.0030   33.0610   42.3320 C   0  0  1  0  0  0  0  0  0  0  0  0
   48.4440   31.7980   42.3220 O   0  0  0  0  0  0  0  0  0  0  0  0
   49.7990   31.7530   42.5310 C   0  0  0  0  0  0  0  0  0  0  0  0
   50.3060   32.9900   41.8510 C   0  0  1  0  0  0  0  0  0  0  0  0
   49.5480   34.6400   43.3800 O   0  0  0  0  0  0  0  0  0  0  0  0
   50.2890   32.7330   40.4980 O   0  0  0  0  0  0  0  0  0  0  0  0
   46.0590   35.2050   42.1430 C   0  0  0  0  0  0  0  0  0  0  0  0
   45.7660   33.1000   40.2120 F   0  0  0  0  0  0  0  0  0  0  0  0
   44.7470   33.9040   40.4870 C   0  0  0  0  0  0  0  0  0  0  0  0
   44.8130   34.9190   41.4050 C   0  0  0  0  0  0  0  0  0  0  0  0
   43.7020   35.7050   41.6610 C   0  0  0  0  0  0  0  0  0  0  0  0
   42.5570   35.4100   40.9540 C   0  0  0  0  0  0  0  0  0  0  0  0
   42.4190   34.4000   40.0110 C   0  0  0  0  0  0  0  0  0  0  0  0
   43.5610   33.6240   39.7760 C   0  0  0  0  0  0  0  0  0  0  0  0
   44.9180   33.5270   37.2750 F   0  0  0  0  0  0  0  0  0  0  0  0
   44.1410   32.4840   37.5810 C   0  0  0  0  0  0  0  0  0  0  0  0
   43.4890   32.5440   38.7970 C   0  0  0  0  0  0  0  0  0  0  0  0
   42.6560   31.4980   39.1990 C   0  0  0  0  0  0  0  0  0  0  0  0
   42.4900   30.4030   38.3690 C   0  0  0  0  0  0  0  0  0  0  0  0
   43.1340   30.3060   37.1300 C   0  0  0  0  0  0  0  0  0  0  0  0
   43.9440   31.3700   36.7900 C   0  0  0  0  0  0  0  0  0  0  0  0
   47.9793   31.9425   44.8076 H   0  0  0  0  0  0  0  0  0  0  0  0
   44.8279   34.2768   46.4446 H   0  0  0  0  0  0  0  0  0  0  0  0
   49.0561   34.8722   41.5618 H   0  0  0  0  0  0  0  0  0  0  0  0
   47.3432   33.1421   41.4556 H   0  0  0  0  0  0  0  0  0  0  0  0
   50.0308   31.7736   43.6061 H   0  0  0  0  0  0  0  0  0  0  0  0
   50.2597   30.8334   42.1410 H   0  0  0  0  0  0  0  0  0  0  0  0
   51.3202   33.3217   42.1183 H   0  0  0  0  0  0  0  0  0  0  0  0
   49.2567   34.0887   44.1490 H   0  0  0  0  0  0  0  0  0  0  0  0
   50.2244   31.7565   40.3484 H   0  0  0  0  0  0  0  0  0  0  0  0
   46.0898   36.2796   42.3758 H   0  0  0  0  0  0  0  0  0  0  0  0
   46.8990   34.8998   41.5017 H   0  0  0  0  0  0  0  0  0  0  0  0
   43.7323   36.5252   42.3934 H   0  0  0  0  0  0  0  0  0  0  0  0
   41.6715   36.0310   41.1547 H   0  0  0  0  0  0  0  0  0  0  0  0
   41.4717   34.2206   39.4815 H   0  0  0  0  0  0  0  0  0  0  0  0
   42.1360   31.5439   40.1673 H   0  0  0  0  0  0  0  0  0  0  0  0
   41.8316   29.5836   38.6930 H   0  0  0  0  0  0  0  0  0  0  0  0
   43.0026   29.4365   36.4692 H   0  0  0  0  0  0  0  0  0  0  0  0
   44.4680   31.3277   35.8237 H   0  0  0  0  0  0  0  0  0  0  0  0
  1  2  1  0
  1  6  2  0
  2  3  2  0
  3  4  1  0
  5  4  2  0
  6  5  1  0
  7  8  1  0
  7 12  1  0
  8  2  1  0
  9  8  1  0
  9 10  1  0
 11  7  1  0
 11 10  1  0
 13 11  1  0
 14  1  1  0
 15 16  1  0
 16 17  2  0
 17 18  1  0
 17 14  1  0
 19 18  2  0
 20 19  1  0
 21 20  2  0
 21 16  1  0
 22 23  1  0
 23 24  2  0
 24 25  1  0
 24 21  1  0
 26 25  2  0
 27 26  1  0
 28 27  2  0
 28 23  1  0
  3 29  1  0
  5 30  1  0
  7 31  1  6
  8 32  1  6
 10 33  1  0
 10 34  1  0
 11 35  1  1
 12 36  1  0
 13 37  1  0
 14 38  1  0
 14 39  1  0
 18 40  1  0
 19 41  1  0
 20 42  1  0
 25 43  1  0
 26 44  1  0
 27 45  1  0
 28 46  1  0
M  ISO  8  29  14  30  14  31  13  32  13  33  13  34  13  35  13  36   3
M  ISO  8  37   3  38   8  39   8  40  14  41  14  42  14  43  14  44  14
M  ISO  2  45  14  46  14
M  END
>  <minimizedAffinity>  (1) 
-6.12461376

>  <minimizedRMSD>  (1) 
0.115779288

$$$$
