
     RDKit          3D

 34 35  0  0  1  0  0  0  0  0999 V2000
   47.0140   34.0790   40.2370 C   0  0  1  0  0  0  0  0  0  0  0  0
   46.7850   32.8690   39.4040 C   0  0  0  0  0  0  0  0  0  0  0  0
   45.5750   33.1540   38.5420 C   0  0  0  0  0  0  0  0  0  0  0  0
   44.3830   33.2340   39.4210 C   0  0  0  0  0  0  0  0  0  0  0  0
   44.5150   34.1230   40.5930 C   0  0  0  0  0  0  0  0  0  0  0  0
   45.8460   34.2440   41.2140 C   0  0  1  0  0  0  0  0  0  0  0  0
   50.2860   32.9210   41.8110 C   0  0  0  0  0  0  0  0  0  0  0  0
   49.1160   32.9410   41.0640 C   0  0  0  0  0  0  0  0  0  0  0  0
   48.2580   34.0460   41.0060 C   0  0  0  0  0  0  0  0  0  0  0  0
   48.6580   35.1020   41.7390 N   0  0  0  0  0  0  0  0  0  0  0  0
   49.7770   35.1120   42.4680 C   0  0  0  0  0  0  0  0  0  0  0  0
   50.5930   34.0230   42.5060 N   0  0  0  0  0  0  0  0  0  0  0  0
   46.0380   33.3800   42.2690 O   0  0  0  0  0  0  0  0  0  0  0  0
   45.4210   33.5980   43.4950 C   0  0  0  0  0  0  0  0  0  0  0  0
   46.1590   33.6630   44.5830 C   0  0  0  0  0  0  0  0  0  0  0  0
   45.5030   33.8970   45.8990 C   0  0  0  0  0  0  0  0  0  0  0  0
   47.0908   34.9242   39.5372 H   0  0  0  0  0  0  0  0  0  0  0  0
   47.6631   32.6733   38.7711 H   0  0  0  0  0  0  0  0  0  0  0  0
   46.6209   31.9819   40.0334 H   0  0  0  0  0  0  0  0  0  0  0  0
   45.7118   34.1090   38.0136 H   0  0  0  0  0  0  0  0  0  0  0  0
   45.4435   32.3541   37.7984 H   0  0  0  0  0  0  0  0  0  0  0  0
   43.5389   33.5952   38.8151 H   0  0  0  0  0  0  0  0  0  0  0  0
   44.2377   32.2214   39.8253 H   0  0  0  0  0  0  0  0  0  0  0  0
   44.2068   35.1307   40.2775 H   0  0  0  0  0  0  0  0  0  0  0  0
   43.8879   33.6573   41.3675 H   0  0  0  0  0  0  0  0  0  0  0  0
   45.8475   35.2794   41.5854 H   0  0  0  0  0  0  0  0  0  0  0  0
   50.9358   32.0337   41.8310 H   0  0  0  0  0  0  0  0  0  0  0  0
   48.8493   32.0426   40.4881 H   0  0  0  0  0  0  0  0  0  0  0  0
   50.0423   36.0105   43.0444 H   0  0  0  0  0  0  0  0  0  0  0  0
   44.3289   33.7148   43.5555 H   0  0  0  0  0  0  0  0  0  0  0  0
   47.2509   33.5455   44.5205 H   0  0  0  0  0  0  0  0  0  0  0  0
   46.2048   33.6467   46.7082 H   0  0  0  0  0  0  0  0  0  0  0  0
   45.2115   34.9545   45.9805 H   0  0  0  0  0  0  0  0  0  0  0  0
   44.6080   33.2627   45.9805 H   0  0  0  0  0  0  0  0  0  0  0  0
  1  9  1  0
  1  6  1  0
  2  1  1  0
  3  2  1  0
  3  4  1  0
  4  5  1  0
  5  6  1  0
  6 13  1  0
  7 12  2  0
  8  7  1  0
  9  8  2  0
  9 10  1  0
 10 11  2  0
 11 12  1  0
 13 14  1  0
 14 15  2  0
 15 16  1  0
  1 17  1  6
  2 18  1  0
  2 19  1  0
  3 20  1  0
  3 21  1  0
  4 22  1  0
  4 23  1  0
  5 24  1  0
  5 25  1  0
  6 26  1  1
  7 27  1  0
  8 28  1  0
 11 29  1  0
 14 30  1  0
 15 31  1  0
 16 32  1  0
 16 33  1  0
 16 34  1  0
M  ISO  8  17  13  18  13  19  13  20  13  21  13  22  13  23  13  24  13
M  ISO  8  25  13  26  13  27  14  28  14  29  14  32   8  33   8  34   8
M  END
>  <minimizedAffinity>  (1) 
-3.97087598

>  <minimizedRMSD>  (1) 
4.69005489

$$$$
