
     RDKit          3D

 43 45  0  0  1  0  0  0  0  0999 V2000
   46.1540   34.4380   43.4740 C   0  0  0  0  0  0  0  0  0  0  0  0
   47.1070   33.4330   43.5010 C   0  0  0  0  0  0  0  0  0  0  0  0
   47.2160   32.7020   44.6990 C   0  0  0  0  0  0  0  0  0  0  0  0
   46.4040   33.0110   45.7430 N   0  0  0  0  0  0  0  0  0  0  0  0
   45.5000   33.9970   45.6590 C   0  0  0  0  0  0  0  0  0  0  0  0
   45.3870   34.6890   44.5420 N   0  0  0  0  0  0  0  0  0  0  0  0
   49.1750   34.0170   42.2330 C   0  0  2  0  0  0  0  0  0  0  0  0
   47.9540   33.0600   42.3340 C   0  0  1  0  0  0  0  0  0  0  0  0
   48.3880   31.7940   42.2970 O   0  0  0  0  0  0  0  0  0  0  0  0
   49.7460   31.7410   42.4880 C   0  0  0  0  0  0  0  0  0  0  0  0
   50.2480   32.9840   41.8140 C   0  0  1  0  0  0  0  0  0  0  0  0
   49.5230   34.6190   43.3760 O   0  0  0  0  0  0  0  0  0  0  0  0
   50.2070   32.7510   40.4560 O   0  0  0  0  0  0  0  0  0  0  0  0
   46.0340   35.2300   42.2190 C   0  0  0  0  0  0  0  0  0  0  0  0
   45.7870   33.4370   39.9930 F   0  0  0  0  0  0  0  0  0  0  0  0
   44.7310   34.1110   40.4260 C   0  0  0  0  0  0  0  0  0  0  0  0
   44.7760   34.9700   41.4900 C   0  0  0  0  0  0  0  0  0  0  0  0
   43.6300   35.6180   41.9020 C   0  0  0  0  0  0  0  0  0  0  0  0
   42.4720   35.3620   41.2020 C   0  0  0  0  0  0  0  0  0  0  0  0
   42.3580   34.5180   40.1290 C   0  0  0  0  0  0  0  0  0  0  0  0
   43.5330   33.8720   39.7310 C   0  0  0  0  0  0  0  0  0  0  0  0
   43.4290   32.9710   38.5900 C   0  0  0  0  0  0  0  0  0  0  0  0
   42.4810   32.0750   38.3770 C   0  0  0  0  0  0  0  0  0  0  0  0
   42.4730   31.1970   37.1620 C   0  0  0  0  0  0  0  0  0  0  0  0
   47.9513   31.8888   44.7887 H   0  0  0  0  0  0  0  0  0  0  0  0
   44.8544   34.2283   46.5190 H   0  0  0  0  0  0  0  0  0  0  0  0
   49.0019   34.8743   41.5658 H   0  0  0  0  0  0  0  0  0  0  0  0
   47.2787   33.1594   41.4714 H   0  0  0  0  0  0  0  0  0  0  0  0
   49.9921   31.7493   43.5601 H   0  0  0  0  0  0  0  0  0  0  0  0
   50.1983   30.8238   42.0829 H   0  0  0  0  0  0  0  0  0  0  0  0
   51.2693   33.3024   42.0700 H   0  0  0  0  0  0  0  0  0  0  0  0
   49.2098   34.0771   44.1430 H   0  0  0  0  0  0  0  0  0  0  0  0
   50.0378   31.7896   40.2911 H   0  0  0  0  0  0  0  0  0  0  0  0
   46.0767   36.2992   42.4739 H   0  0  0  0  0  0  0  0  0  0  0  0
   46.8632   34.9310   41.5609 H   0  0  0  0  0  0  0  0  0  0  0  0
   43.6407   36.3116   42.7557 H   0  0  0  0  0  0  0  0  0  0  0  0
   41.5598   35.8800   41.5330 H   0  0  0  0  0  0  0  0  0  0  0  0
   41.4005   34.3580   39.6118 H   0  0  0  0  0  0  0  0  0  0  0  0
   44.2198   33.0442   37.8289 H   0  0  0  0  0  0  0  0  0  0  0  0
   41.6720   31.9702   39.1149 H   0  0  0  0  0  0  0  0  0  0  0  0
   42.4634   30.1417   37.4723 H   0  0  0  0  0  0  0  0  0  0  0  0
   41.5768   31.4107   36.5611 H   0  0  0  0  0  0  0  0  0  0  0  0
   43.3730   31.3943   36.5611 H   0  0  0  0  0  0  0  0  0  0  0  0
  1  2  1  0
  1  6  2  0
  2  3  2  0
  3  4  1  0
  5  4  2  0
  6  5  1  0
  7  8  1  0
  7 12  1  0
  8  2  1  0
  9  8  1  0
  9 10  1  0
 11  7  1  0
 11 10  1  0
 13 11  1  0
 14  1  1  0
 15 16  1  0
 16 17  2  0
 17 18  1  0
 17 14  1  0
 19 18  2  0
 20 19  1  0
 21 20  2  0
 21 16  1  0
 22 21  1  0
 23 22  2  0
 24 23  1  0
  3 25  1  0
  5 26  1  0
  7 27  1  6
  8 28  1  6
 10 29  1  0
 10 30  1  0
 11 31  1  1
 12 32  1  0
 13 33  1  0
 14 34  1  0
 14 35  1  0
 18 36  1  0
 19 37  1  0
 20 38  1  0
 22 39  1  0
 23 40  1  0
 24 41  1  0
 24 42  1  0
 24 43  1  0
M  ISO  8  25  14  26  14  27  13  28  13  29  13  30  13  31  13  32   3
M  ISO  8  33   3  34   8  35   8  36  14  37  14  38  14  41   8  42   8
M  ISO  1  43   8
M  END
>  <minimizedAffinity>  (1) 
-5.83252668

>  <minimizedRMSD>  (1) 
0.299189329

$$$$
