
     RDKit          3D

 43 46  0  0  1  0  0  0  0  0999 V2000
   46.1330   34.4250   43.4250 C   0  0  0  0  0  0  0  0  0  0  0  0
   47.1030   33.4380   43.4710 C   0  0  0  0  0  0  0  0  0  0  0  0
   47.2260   32.7290   44.6810 C   0  0  0  0  0  0  0  0  0  0  0  0
   46.4100   33.0370   45.7190 N   0  0  0  0  0  0  0  0  0  0  0  0
   45.4870   34.0050   45.6170 C   0  0  0  0  0  0  0  0  0  0  0  0
   45.3600   34.6790   44.4890 N   0  0  0  0  0  0  0  0  0  0  0  0
   49.1890   34.0050   42.2240 C   0  0  2  0  0  0  0  0  0  0  0  0
   47.9580   33.0590   42.3100 C   0  0  1  0  0  0  0  0  0  0  0  0
   48.3800   31.7890   42.2740 O   0  0  0  0  0  0  0  0  0  0  0  0
   49.7390   31.7270   42.4830 C   0  0  0  0  0  0  0  0  0  0  0  0
   50.2540   32.9630   41.8080 C   0  0  1  0  0  0  0  0  0  0  0  0
   49.5280   34.6060   43.3650 O   0  0  0  0  0  0  0  0  0  0  0  0
   50.2220   32.7270   40.4520 O   0  0  0  0  0  0  0  0  0  0  0  0
   46.0020   35.1960   42.1590 C   0  0  0  0  0  0  0  0  0  0  0  0
   45.5830   33.3750   39.9790 F   0  0  0  0  0  0  0  0  0  0  0  0
   44.5730   34.0980   40.4480 C   0  0  0  0  0  0  0  0  0  0  0  0
   44.7110   34.9890   41.4850 C   0  0  0  0  0  0  0  0  0  0  0  0
   43.6180   35.7060   41.9130 C   0  0  0  0  0  0  0  0  0  0  0  0
   42.4160   35.4940   41.2690 C   0  0  0  0  0  0  0  0  0  0  0  0
   42.2160   34.6230   40.2320 C   0  0  0  0  0  0  0  0  0  0  0  0
   43.3410   33.9030   39.8130 C   0  0  0  0  0  0  0  0  0  0  0  0
   43.2240   32.9410   38.6990 C   0  0  0  0  0  0  0  0  0  0  0  0
   42.8030   31.5660   38.8130 C   0  0  0  0  0  0  0  0  0  0  0  0
   41.7610   32.5460   38.4080 C   0  0  0  0  0  0  0  0  0  0  0  0
   47.9775   31.9322   44.7834 H   0  0  0  0  0  0  0  0  0  0  0  0
   44.8362   34.2371   46.4729 H   0  0  0  0  0  0  0  0  0  0  0  0
   49.0325   34.8667   41.5584 H   0  0  0  0  0  0  0  0  0  0  0  0
   47.2924   33.1663   41.4408 H   0  0  0  0  0  0  0  0  0  0  0  0
   49.9724   31.7398   43.5579 H   0  0  0  0  0  0  0  0  0  0  0  0
   50.1911   30.8044   42.0901 H   0  0  0  0  0  0  0  0  0  0  0  0
   51.2768   33.2752   42.0657 H   0  0  0  0  0  0  0  0  0  0  0  0
   49.2195   34.0591   44.1304 H   0  0  0  0  0  0  0  0  0  0  0  0
   50.0908   31.7595   40.2884 H   0  0  0  0  0  0  0  0  0  0  0  0
   46.1086   36.2664   42.3890 H   0  0  0  0  0  0  0  0  0  0  0  0
   46.7877   34.8396   41.4766 H   0  0  0  0  0  0  0  0  0  0  0  0
   43.6993   36.4249   42.7416 H   0  0  0  0  0  0  0  0  0  0  0  0
   41.5475   36.0722   41.6175 H   0  0  0  0  0  0  0  0  0  0  0  0
   41.2318   34.4967   39.7572 H   0  0  0  0  0  0  0  0  0  0  0  0
   44.1105   33.3669   38.2064 H   0  0  0  0  0  0  0  0  0  0  0  0
   43.1640   30.8284   38.0811 H   0  0  0  0  0  0  0  0  0  0  0  0
   42.8671   30.8198   39.6186 H   0  0  0  0  0  0  0  0  0  0  0  0
   40.9574   32.8269   39.1047 H   0  0  0  0  0  0  0  0  0  0  0  0
   41.0576   32.6592   37.5699 H   0  0  0  0  0  0  0  0  0  0  0  0
  1  2  1  0
  1  6  2  0
  2  3  2  0
  3  4  1  0
  5  4  2  0
  6  5  1  0
  7  8  1  0
  7 12  1  0
  8  2  1  0
  9  8  1  0
  9 10  1  0
 11  7  1  0
 11 10  1  0
 13 11  1  0
 14  1  1  0
 15 16  1  0
 16 17  2  0
 17 18  1  0
 17 14  1  0
 19 18  2  0
 20 19  1  0
 21 20  2  0
 21 16  1  0
 22 23  1  0
 22 21  1  0
 24 22  1  0
 24 23  1  0
  3 25  1  0
  5 26  1  0
  7 27  1  6
  8 28  1  6
 10 29  1  0
 10 30  1  0
 11 31  1  1
 12 32  1  0
 13 33  1  0
 14 34  1  0
 14 35  1  0
 18 36  1  0
 19 37  1  0
 20 38  1  0
 22 39  1  0
 23 40  1  0
 23 41  1  0
 24 42  1  0
 24 43  1  0
M  ISO  8  25  14  26  14  27  13  28  13  29  13  30  13  31  13  32   3
M  ISO  8  33   3  34   8  35   8  36  14  37  14  38  14  39  13  40  13
M  ISO  3  41  13  42  13  43  13
M  END
>  <minimizedAffinity>  (1) 
-5.76738167

>  <minimizedRMSD>  (1) 
0.188905776

$$$$
