
     RDKit          3D

 39 41  0  0  1  0  0  0  0  0999 V2000
   46.1490   34.4440   43.4180 C   0  0  0  0  0  0  0  0  0  0  0  0
   47.1180   33.4550   43.4750 C   0  0  0  0  0  0  0  0  0  0  0  0
   47.2310   32.7490   44.6880 C   0  0  0  0  0  0  0  0  0  0  0  0
   46.4080   33.0610   45.7190 N   0  0  0  0  0  0  0  0  0  0  0  0
   45.4860   34.0310   45.6070 C   0  0  0  0  0  0  0  0  0  0  0  0
   45.3670   34.7020   44.4740 N   0  0  0  0  0  0  0  0  0  0  0  0
   49.2050   34.0240   42.2310 C   0  0  2  0  0  0  0  0  0  0  0  0
   47.9800   33.0710   42.3210 C   0  0  1  0  0  0  0  0  0  0  0  0
   48.4100   31.8030   42.3010 O   0  0  0  0  0  0  0  0  0  0  0  0
   49.7680   31.7480   42.5140 C   0  0  0  0  0  0  0  0  0  0  0  0
   50.2770   32.9820   41.8300 C   0  0  1  0  0  0  0  0  0  0  0  0
   49.5370   34.6330   43.3710 O   0  0  0  0  0  0  0  0  0  0  0  0
   50.2540   32.7360   40.4760 O   0  0  0  0  0  0  0  0  0  0  0  0
   46.0300   35.2110   42.1500 C   0  0  0  0  0  0  0  0  0  0  0  0
   45.7400   33.2530   40.0540 F   0  0  0  0  0  0  0  0  0  0  0  0
   44.6980   33.9850   40.4330 C   0  0  0  0  0  0  0  0  0  0  0  0
   44.7730   34.9410   41.4280 C   0  0  0  0  0  0  0  0  0  0  0  0
   43.6490   35.6570   41.7640 C   0  0  0  0  0  0  0  0  0  0  0  0
   42.4790   35.3820   41.0790 C   0  0  0  0  0  0  0  0  0  0  0  0
   42.3410   34.4420   40.0790 C   0  0  0  0  0  0  0  0  0  0  0  0
   43.4970   33.7430   39.7720 C   0  0  0  0  0  0  0  0  0  0  0  0
   43.4260   32.6970   38.6880 C   0  0  0  0  0  0  0  0  0  0  0  0
   47.9804   31.9514   44.7980 H   0  0  0  0  0  0  0  0  0  0  0  0
   44.8299   34.2672   46.4577 H   0  0  0  0  0  0  0  0  0  0  0  0
   49.0468   34.8794   41.5578 H   0  0  0  0  0  0  0  0  0  0  0  0
   47.3186   33.1661   41.4472 H   0  0  0  0  0  0  0  0  0  0  0  0
   49.9991   31.7702   43.5892 H   0  0  0  0  0  0  0  0  0  0  0  0
   50.2259   30.8243   42.1304 H   0  0  0  0  0  0  0  0  0  0  0  0
   51.2967   33.3012   42.0912 H   0  0  0  0  0  0  0  0  0  0  0  0
   49.2374   34.0835   44.1381 H   0  0  0  0  0  0  0  0  0  0  0  0
   50.1630   31.7628   40.3189 H   0  0  0  0  0  0  0  0  0  0  0  0
   46.0757   36.2848   42.3845 H   0  0  0  0  0  0  0  0  0  0  0  0
   46.8578   34.8971   41.4972 H   0  0  0  0  0  0  0  0  0  0  0  0
   43.6788   36.4239   42.5521 H   0  0  0  0  0  0  0  0  0  0  0  0
   41.5850   35.9607   41.3545 H   0  0  0  0  0  0  0  0  0  0  0  0
   41.3857   34.2612   39.5644 H   0  0  0  0  0  0  0  0  0  0  0  0
   43.3583   31.6989   39.1454 H   0  0  0  0  0  0  0  0  0  0  0  0
   42.5379   32.8754   38.0639 H   0  0  0  0  0  0  0  0  0  0  0  0
   44.3301   32.7537   38.0639 H   0  0  0  0  0  0  0  0  0  0  0  0
  1  2  1  0
  1  6  2  0
  2  3  2  0
  3  4  1  0
  5  4  2  0
  6  5  1  0
  7  8  1  0
  7 12  1  0
  8  2  1  0
  9  8  1  0
  9 10  1  0
 11  7  1  0
 11 10  1  0
 13 11  1  0
 14  1  1  0
 15 16  1  0
 16 17  2  0
 17 18  1  0
 17 14  1  0
 19 18  2  0
 20 19  1  0
 21 20  2  0
 21 16  1  0
 22 21  1  0
  3 23  1  0
  5 24  1  0
  7 25  1  6
  8 26  1  6
 10 27  1  0
 10 28  1  0
 11 29  1  1
 12 30  1  0
 13 31  1  0
 14 32  1  0
 14 33  1  0
 18 34  1  0
 19 35  1  0
 20 36  1  0
 22 37  1  0
 22 38  1  0
 22 39  1  0
M  ISO  8  23  14  24  14  25  13  26  13  27  13  28  13  29  13  30   3
M  ISO  8  31   3  32   8  33   8  34  14  35  14  36  14  37   8  38   8
M  ISO  1  39   8
M  END
>  <minimizedAffinity>  (1) 
-5.73890066

>  <minimizedRMSD>  (1) 
0.0639667809

$$$$
