
     RDKit          3D

 38 40  0  0  1  0  0  0  0  0999 V2000
   46.1620   34.4420   43.4030 C   0  0  0  0  0  0  0  0  0  0  0  0
   47.1330   33.4550   43.4710 C   0  0  0  0  0  0  0  0  0  0  0  0
   47.2380   32.7590   44.6900 C   0  0  0  0  0  0  0  0  0  0  0  0
   46.4050   33.0800   45.7150 N   0  0  0  0  0  0  0  0  0  0  0  0
   45.4850   34.0460   45.5900 C   0  0  0  0  0  0  0  0  0  0  0  0
   45.3760   34.7050   44.4550 N   0  0  0  0  0  0  0  0  0  0  0  0
   49.2250   34.0200   42.2380 C   0  0  2  0  0  0  0  0  0  0  0  0
   48.0040   33.0640   42.3290 C   0  0  1  0  0  0  0  0  0  0  0  0
   48.4410   31.7980   42.3230 O   0  0  0  0  0  0  0  0  0  0  0  0
   49.7940   31.7500   42.5360 C   0  0  0  0  0  0  0  0  0  0  0  0
   50.3060   32.9830   41.8530 C   0  0  1  0  0  0  0  0  0  0  0  0
   49.5490   34.6400   43.3760 O   0  0  0  0  0  0  0  0  0  0  0  0
   50.2920   32.7300   40.4960 O   0  0  0  0  0  0  0  0  0  0  0  0
   46.0480   35.1950   42.1270 C   0  0  0  0  0  0  0  0  0  0  0  0
   45.8000   33.1510   40.1270 F   0  0  0  0  0  0  0  0  0  0  0  0
   44.7610   33.9120   40.4370 C   0  0  0  0  0  0  0  0  0  0  0  0
   44.8060   34.8990   41.3900 C   0  0  0  0  0  0  0  0  0  0  0  0
   43.6770   35.6410   41.6810 C   0  0  0  0  0  0  0  0  0  0  0  0
   42.5300   35.3390   40.9730 C   0  0  0  0  0  0  0  0  0  0  0  0
   42.4160   34.3600   40.0000 C   0  0  0  0  0  0  0  0  0  0  0  0
   43.5770   33.6270   39.7300 C   0  0  0  0  0  0  0  0  0  0  0  0
   43.5200   32.6070   38.7390 N   0  0  0  0  0  0  0  0  0  0  0  0
   47.9871   31.9628   44.8120 H   0  0  0  0  0  0  0  0  0  0  0  0
   44.8220   34.2882   46.4337 H   0  0  0  0  0  0  0  0  0  0  0  0
   49.0646   34.8677   41.5556 H   0  0  0  0  0  0  0  0  0  0  0  0
   47.3467   33.1477   41.4510 H   0  0  0  0  0  0  0  0  0  0  0  0
   50.0227   31.7739   43.6117 H   0  0  0  0  0  0  0  0  0  0  0  0
   50.2534   30.8277   42.1509 H   0  0  0  0  0  0  0  0  0  0  0  0
   51.3221   33.3070   42.1225 H   0  0  0  0  0  0  0  0  0  0  0  0
   49.2608   34.0884   44.1459 H   0  0  0  0  0  0  0  0  0  0  0  0
   50.2380   31.7534   40.3429 H   0  0  0  0  0  0  0  0  0  0  0  0
   46.0734   36.2714   42.3522 H   0  0  0  0  0  0  0  0  0  0  0  0
   46.8895   34.8879   41.4885 H   0  0  0  0  0  0  0  0  0  0  0  0
   43.6911   36.4356   42.4415 H   0  0  0  0  0  0  0  0  0  0  0  0
   41.6290   35.9271   41.2018 H   0  0  0  0  0  0  0  0  0  0  0  0
   41.4701   34.1702   39.4715 H   0  0  0  0  0  0  0  0  0  0  0  0
   44.3605   32.0529   38.5213 H   0  0  0  0  0  0  0  0  0  0  0  0
   42.6382   32.4229   38.2395 H   0  0  0  0  0  0  0  0  0  0  0  0
  1  2  1  0
  1  6  2  0
  2  3  2  0
  3  4  1  0
  5  4  2  0
  6  5  1  0
  7  8  1  0
  7 12  1  0
  8  2  1  0
  9  8  1  0
  9 10  1  0
 11  7  1  0
 11 10  1  0
 13 11  1  0
 14  1  1  0
 15 16  1  0
 16 17  2  0
 17 18  1  0
 17 14  1  0
 19 18  2  0
 20 19  1  0
 21 20  2  0
 21 16  1  0
 22 21  1  0
  3 23  1  0
  5 24  1  0
  7 25  1  6
  8 26  1  6
 10 27  1  0
 10 28  1  0
 11 29  1  1
 12 30  1  0
 13 31  1  0
 14 32  1  0
 14 33  1  0
 18 34  1  0
 19 35  1  0
 20 36  1  0
 22 37  1  0
 22 38  1  0
M  ISO  8  23  14  24  14  25  13  26  13  27  13  28  13  29  13  30   3
M  ISO  6  31   3  32   8  33   8  34  14  35  14  36  14
M  END
>  <minimizedAffinity>  (1) 
-5.71873045

>  <minimizedRMSD>  (1) 
0.0666750968

$$$$
