
     RDKit          3D

 38 40  0  0  1  0  0  0  0  0999 V2000
   46.1900   34.4520   43.4600 C   0  0  0  0  0  0  0  0  0  0  0  0
   47.1360   33.4410   43.4990 C   0  0  0  0  0  0  0  0  0  0  0  0
   47.2260   32.7100   44.7000 C   0  0  0  0  0  0  0  0  0  0  0  0
   46.4030   33.0210   45.7320 N   0  0  0  0  0  0  0  0  0  0  0  0
   45.5060   34.0130   45.6360 C   0  0  0  0  0  0  0  0  0  0  0  0
   45.4100   34.7050   44.5190 N   0  0  0  0  0  0  0  0  0  0  0  0
   49.2130   34.0240   42.2470 C   0  0  2  0  0  0  0  0  0  0  0  0
   47.9960   33.0600   42.3460 C   0  0  1  0  0  0  0  0  0  0  0  0
   48.4390   31.7970   42.3260 O   0  0  0  0  0  0  0  0  0  0  0  0
   49.7950   31.7530   42.5220 C   0  0  0  0  0  0  0  0  0  0  0  0
   50.2930   32.9930   41.8420 C   0  0  1  0  0  0  0  0  0  0  0  0
   49.5470   34.6370   43.3840 O   0  0  0  0  0  0  0  0  0  0  0  0
   50.2640   32.7430   40.4870 O   0  0  0  0  0  0  0  0  0  0  0  0
   46.0940   35.2430   42.2030 C   0  0  0  0  0  0  0  0  0  0  0  0
   45.9830   33.3710   40.0300 F   0  0  0  0  0  0  0  0  0  0  0  0
   44.8990   34.0450   40.3890 C   0  0  0  0  0  0  0  0  0  0  0  0
   44.8790   34.9460   41.4250 C   0  0  0  0  0  0  0  0  0  0  0  0
   43.7070   35.5960   41.7560 C   0  0  0  0  0  0  0  0  0  0  0  0
   42.5860   35.2960   41.0070 C   0  0  0  0  0  0  0  0  0  0  0  0
   42.5380   34.4010   39.9520 C   0  0  0  0  0  0  0  0  0  0  0  0
   43.7420   33.7590   39.6410 C   0  0  0  0  0  0  0  0  0  0  0  0
   43.7740   32.8000   38.5420 C   0  0  0  0  0  0  0  0  0  0  0  0
   44.3800   33.0830   37.4760 O   0  0  0  0  0  0  0  0  0  0  0  0
   47.9573   31.8943   44.7997 H   0  0  0  0  0  0  0  0  0  0  0  0
   44.8516   34.2486   46.4882 H   0  0  0  0  0  0  0  0  0  0  0  0
   49.0417   34.8761   41.5728 H   0  0  0  0  0  0  0  0  0  0  0  0
   47.3276   33.1447   41.4765 H   0  0  0  0  0  0  0  0  0  0  0  0
   50.0370   31.7699   43.5949 H   0  0  0  0  0  0  0  0  0  0  0  0
   50.2535   30.8355   42.1245 H   0  0  0  0  0  0  0  0  0  0  0  0
   51.3096   33.3237   42.1010 H   0  0  0  0  0  0  0  0  0  0  0  0
   49.2490   34.0901   44.1536 H   0  0  0  0  0  0  0  0  0  0  0  0
   50.1513   31.7716   40.3330 H   0  0  0  0  0  0  0  0  0  0  0  0
   46.0916   36.3122   42.4615 H   0  0  0  0  0  0  0  0  0  0  0  0
   46.9580   34.9723   41.5782 H   0  0  0  0  0  0  0  0  0  0  0  0
   43.6676   36.3221   42.5813 H   0  0  0  0  0  0  0  0  0  0  0  0
   41.6514   35.8124   41.2714 H   0  0  0  0  0  0  0  0  0  0  0  0
   41.6109   34.2065   39.3928 H   0  0  0  0  0  0  0  0  0  0  0  0
   43.2680   31.8288   38.6453 H   0  0  0  0  0  0  0  0  0  0  0  0
  1  2  1  0
  1  6  2  0
  2  3  2  0
  3  4  1  0
  5  4  2  0
  6  5  1  0
  7  8  1  0
  7 12  1  0
  8  2  1  0
  9  8  1  0
  9 10  1  0
 11  7  1  0
 11 10  1  0
 13 11  1  0
 14  1  1  0
 15 16  1  0
 16 17  2  0
 17 18  1  0
 17 14  1  0
 19 18  2  0
 20 19  1  0
 21 20  2  0
 21 16  1  0
 22 21  1  0
 23 22  2  0
  3 24  1  0
  5 25  1  0
  7 26  1  6
  8 27  1  6
 10 28  1  0
 10 29  1  0
 11 30  1  1
 12 31  1  0
 13 32  1  0
 14 33  1  0
 14 34  1  0
 18 35  1  0
 19 36  1  0
 20 37  1  0
 22 38  1  0
M  ISO  8  24  14  25  14  26  13  27  13  28  13  29  13  30  13  31   3
M  ISO  7  32   3  33   8  34   8  35  14  36  14  37  14  38   6
M  END
>  <minimizedAffinity>  (1) 
-5.65416288

>  <minimizedRMSD>  (1) 
0.216010362

$$$$
