
     RDKit          3D

 24 25  0  0  0  0  0  0  0  0999 V2000
   44.5870   35.1110   44.2320 C   0  0  0  0  0  0  0  0  0  0  0  0
   44.7510   34.0980   43.2790 C   0  0  0  0  0  0  0  0  0  0  0  0
   45.3770   32.9200   43.6750 C   0  0  0  0  0  0  0  0  0  0  0  0
   45.8030   32.7930   44.9640 N   0  0  0  0  0  0  0  0  0  0  0  0
   45.6290   33.7920   45.8650 C   0  0  0  0  0  0  0  0  0  0  0  0
   45.0310   34.9310   45.5010 N   0  0  0  0  0  0  0  0  0  0  0  0
   44.2620   34.3590   41.9750 N   0  0  0  0  0  0  0  0  0  0  0  0
   44.3510   33.3280   40.9950 C   0  0  0  0  0  0  0  0  0  0  0  0
   43.8210   33.7240   39.6560 C   0  0  0  0  0  0  0  0  0  0  0  0
   42.5970   34.4340   39.6850 N   0  0  0  0  0  0  0  0  0  0  0  0
   42.4030   35.3500   40.7430 C   0  0  0  0  0  0  0  0  0  0  0  0
   43.6670   35.6000   41.5280 C   0  0  0  0  0  0  0  0  0  0  0  0
   44.0970   36.0548   43.9508 H   0  0  0  0  0  0  0  0  0  0  0  0
   45.5265   32.1007   42.9564 H   0  0  0  0  0  0  0  0  0  0  0  0
   45.9813   33.6645   46.8992 H   0  0  0  0  0  0  0  0  0  0  0  0
   45.4086   33.0480   40.8808 H   0  0  0  0  0  0  0  0  0  0  0  0
   43.7312   32.4920   41.3512 H   0  0  0  0  0  0  0  0  0  0  0  0
   43.6713   32.8092   39.0638 H   0  0  0  0  0  0  0  0  0  0  0  0
   44.5640   34.4084   39.2206 H   0  0  0  0  0  0  0  0  0  0  0  0
   42.5241   34.9606   38.8028 H   0  0  0  0  0  0  0  0  0  0  0  0
   42.0532   36.3049   40.3236 H   0  0  0  0  0  0  0  0  0  0  0  0
   41.6623   34.9156   41.4305 H   0  0  0  0  0  0  0  0  0  0  0  0
   44.3865   36.1326   40.8887 H   0  0  0  0  0  0  0  0  0  0  0  0
   43.4130   36.2020   42.4129 H   0  0  0  0  0  0  0  0  0  0  0  0
  1  6  2  0
  2  3  2  0
  2  1  1  0
  3  4  1  0
  4  5  2  0
  6  5  1  0
  7  2  1  0
  8  7  1  0
  9 10  1  0
  9  8  1  0
 10 11  1  0
 11 12  1  0
 12  7  1  0
  1 13  1  0
  3 14  1  0
  5 15  1  0
  8 16  1  0
  8 17  1  0
  9 18  1  0
  9 19  1  0
 10 20  1  0
 11 21  1  0
 11 22  1  0
 12 23  1  0
 12 24  1  0
M  ISO  8  13  14  14  14  15  14  16  13  17  13  18  13  19  13  20   5
M  ISO  4  21  13  22  13  23  13  24  13
M  END
>  <minimizedAffinity>  (1) 
-3.2435379

>  <minimizedRMSD>  (1) 
2.70131159

$$$$
