
     RDKit          3D

 30 31  0  0  1  0  0  0  0  0999 V2000
   42.5630   33.9170   40.4830 N   0  0  0  0  0  0  0  0  0  0  0  0
   43.0520   33.3090   39.3010 C   0  0  0  0  0  0  0  0  0  0  0  0
   42.0360   32.8380   38.3340 C   0  0  0  0  0  0  0  0  0  0  0  0
   40.7570   32.5470   38.7930 N   0  0  0  0  0  0  0  0  0  0  0  0
   40.3720   32.9370   40.0750 C   0  0  0  0  0  0  0  0  0  0  0  0
   41.1560   34.1580   40.4910 C   0  0  2  0  0  0  0  0  0  0  0  0
   43.7910   35.5570   41.7130 C   0  0  0  0  0  0  0  0  0  0  0  0
   43.4900   34.2130   41.5240 C   0  0  0  0  0  0  0  0  0  0  0  0
   44.0980   33.2600   42.3530 C   0  0  0  0  0  0  0  0  0  0  0  0
   44.9620   33.6880   43.3160 N   0  0  0  0  0  0  0  0  0  0  0  0
   45.2310   35.0080   43.4710 C   0  0  0  0  0  0  0  0  0  0  0  0
   44.6530   35.9350   42.6790 N   0  0  0  0  0  0  0  0  0  0  0  0
   40.7080   35.4000   39.7890 C   0  0  0  0  0  0  0  0  0  0  0  0
   40.2060   36.4720   40.7040 C   0  0  0  0  0  0  0  0  0  0  0  0
   43.6890   34.0432   38.7860 H   0  0  0  0  0  0  0  0  0  0  0  0
   43.5790   32.4031   39.6352 H   0  0  0  0  0  0  0  0  0  0  0  0
   42.4301   31.9205   37.8727 H   0  0  0  0  0  0  0  0  0  0  0  0
   41.8882   33.6982   37.6645 H   0  0  0  0  0  0  0  0  0  0  0  0
   40.0976   32.9892   38.1368 H   0  0  0  0  0  0  0  0  0  0  0  0
   39.2977   33.1734   40.0784 H   0  0  0  0  0  0  0  0  0  0  0  0
   40.5715   32.1174   40.7810 H   0  0  0  0  0  0  0  0  0  0  0  0
   40.9218   34.3647   41.5457 H   0  0  0  0  0  0  0  0  0  0  0  0
   43.3230   36.3173   41.0704 H   0  0  0  0  0  0  0  0  0  0  0  0
   43.8821   32.1886   42.2287 H   0  0  0  0  0  0  0  0  0  0  0  0
   45.9322   35.3285   44.2556 H   0  0  0  0  0  0  0  0  0  0  0  0
   41.5598   35.8019   39.2208 H   0  0  0  0  0  0  0  0  0  0  0  0
   39.8644   35.1129   39.1441 H   0  0  0  0  0  0  0  0  0  0  0  0
   40.3520   36.1603   41.7488 H   0  0  0  0  0  0  0  0  0  0  0  0
   40.7619   37.4028   40.5180 H   0  0  0  0  0  0  0  0  0  0  0  0
   39.1351   36.6410   40.5180 H   0  0  0  0  0  0  0  0  0  0  0  0
  1  6  1  0
  1  8  1  0
  2  1  1  0
  3  4  1  0
  3  2  1  0
  4  5  1  0
  5  6  1  0
  7 12  2  0
  8  7  1  0
  8  9  2  0
  9 10  1  0
 10 11  2  0
 12 11  1  0
 13  6  1  0
 13 14  1  0
  2 15  1  0
  2 16  1  0
  3 17  1  0
  3 18  1  0
  4 19  1  0
  5 20  1  0
  5 21  1  0
  6 22  1  1
  7 23  1  0
  9 24  1  0
 11 25  1  0
 13 26  1  0
 13 27  1  0
 14 28  1  0
 14 29  1  0
 14 30  1  0
M  ISO  8  15  13  16  13  17  13  18  13  19   5  20  13  21  13  22  13
M  ISO  8  23  14  24  14  25  14  26   8  27   8  28   8  29   8  30   8
M  END
>  <minimizedAffinity>  (1) 
-3.74942303

>  <minimizedRMSD>  (1) 
2.87207985

$$$$
