
     RDKit          3D

 27 28  0  0  1  0  0  0  0  0999 V2000
   45.4340   33.8350   43.1830 N   0  0  0  0  0  0  0  0  0  0  0  0
   46.2400   33.4080   42.0660 C   0  0  0  0  0  0  0  0  0  0  0  0
   46.0700   34.2580   40.8410 C   0  0  0  0  0  0  0  0  0  0  0  0
   44.7390   34.6080   40.5560 N   0  0  0  0  0  0  0  0  0  0  0  0
   43.8450   34.7830   41.6180 C   0  0  0  0  0  0  0  0  0  0  0  0
   44.5460   34.9180   42.9480 C   0  0  2  0  0  0  0  0  0  0  0  0
   45.4610   33.8840   45.5680 C   0  0  0  0  0  0  0  0  0  0  0  0
   45.6060   33.1500   44.3950 C   0  0  0  0  0  0  0  0  0  0  0  0
   45.9220   31.7850   44.5100 C   0  0  0  0  0  0  0  0  0  0  0  0
   46.0710   31.2470   45.7510 N   0  0  0  0  0  0  0  0  0  0  0  0
   45.9220   31.9980   46.8600 C   0  0  0  0  0  0  0  0  0  0  0  0
   45.6190   33.3080   46.7750 N   0  0  0  0  0  0  0  0  0  0  0  0
   45.1700   36.2770   43.1400 C   0  0  0  0  0  0  0  0  0  0  0  0
   47.2973   33.4408   42.3677 H   0  0  0  0  0  0  0  0  0  0  0  0
   45.9111   32.3923   41.8013 H   0  0  0  0  0  0  0  0  0  0  0  0
   46.6463   35.1842   40.9825 H   0  0  0  0  0  0  0  0  0  0  0  0
   46.4249   33.6570   39.9908 H   0  0  0  0  0  0  0  0  0  0  0  0
   44.7648   35.4949   40.0329 H   0  0  0  0  0  0  0  0  0  0  0  0
   43.2552   35.6936   41.4361 H   0  0  0  0  0  0  0  0  0  0  0  0
   43.2052   33.8895   41.6668 H   0  0  0  0  0  0  0  0  0  0  0  0
   43.7786   34.8522   43.7334 H   0  0  0  0  0  0  0  0  0  0  0  0
   45.2129   34.9540   45.5084 H   0  0  0  0  0  0  0  0  0  0  0  0
   46.0467   31.1623   43.6119 H   0  0  0  0  0  0  0  0  0  0  0  0
   46.0497   31.5345   47.8494 H   0  0  0  0  0  0  0  0  0  0  0  0
   45.2666   36.4875   44.2153 H   0  0  0  0  0  0  0  0  0  0  0  0
   46.1655   36.2927   42.6724 H   0  0  0  0  0  0  0  0  0  0  0  0
   44.5331   37.0423   42.6724 H   0  0  0  0  0  0  0  0  0  0  0  0
  1  8  1  0
  2  1  1  0
  3  2  1  0
  4  3  1  0
  4  5  1  0
  5  6  1  0
  6 13  1  0
  6  1  1  0
  7 12  2  0
  8  9  2  0
  8  7  1  0
  9 10  1  0
 10 11  2  0
 12 11  1  0
  2 14  1  0
  2 15  1  0
  3 16  1  0
  3 17  1  0
  4 18  1  0
  5 19  1  0
  5 20  1  0
  6 21  1  1
  7 22  1  0
  9 23  1  0
 11 24  1  0
 13 25  1  0
 13 26  1  0
 13 27  1  0
M  ISO  8  14  13  15  13  16  13  17  13  18   5  19  13  20  13  21  13
M  ISO  6  22  14  23  14  24  14  25   8  26   8  27   8
M  END
>  <minimizedAffinity>  (1) 
-3.69139457

>  <minimizedRMSD>  (1) 
2.03019571

$$$$
