
     RDKit          3D

 25 26  0  0  1  0  0  0  0  0999 V2000
   44.3000   34.1300   42.3700 N   0  0  0  0  0  0  0  0  0  0  0  0
   44.5340   33.5190   41.0910 C   0  0  0  0  0  0  0  0  0  0  0  0
   43.8620   34.2050   39.9570 C   0  0  0  0  0  0  0  0  0  0  0  0
   42.5070   34.5160   40.2250 N   0  0  0  0  0  0  0  0  0  0  0  0
   42.1890   35.0010   41.4960 C   0  0  0  0  0  0  0  0  0  0  0  0
   43.4200   35.2570   42.3420 C   0  0  2  0  0  0  0  0  0  0  0  0
   45.1290   34.4220   44.5800 C   0  0  0  0  0  0  0  0  0  0  0  0
   44.9410   33.5760   43.4910 C   0  0  0  0  0  0  0  0  0  0  0  0
   45.4000   32.2780   43.6150 C   0  0  0  0  0  0  0  0  0  0  0  0
   46.0060   31.8710   44.7640 N   0  0  0  0  0  0  0  0  0  0  0  0
   46.1700   32.7190   45.7990 C   0  0  0  0  0  0  0  0  0  0  0  0
   45.7310   33.9920   45.7050 N   0  0  0  0  0  0  0  0  0  0  0  0
   44.0560   36.4280   41.9300 O   0  0  0  0  0  0  0  0  0  0  0  0
   45.6175   33.5194   40.9014 H   0  0  0  0  0  0  0  0  0  0  0  0
   44.1112   32.5048   41.1427 H   0  0  0  0  0  0  0  0  0  0  0  0
   43.9035   33.5483   39.0755 H   0  0  0  0  0  0  0  0  0  0  0  0
   44.3906   35.1544   39.7861 H   0  0  0  0  0  0  0  0  0  0  0  0
   42.2147   35.2294   39.5420 H   0  0  0  0  0  0  0  0  0  0  0  0
   41.6341   35.9443   41.3854 H   0  0  0  0  0  0  0  0  0  0  0  0
   41.5855   34.2354   42.0055 H   0  0  0  0  0  0  0  0  0  0  0  0
   43.0967   35.4036   43.3831 H   0  0  0  0  0  0  0  0  0  0  0  0
   44.7787   35.4630   44.5204 H   0  0  0  0  0  0  0  0  0  0  0  0
   45.2750   31.5710   42.7816 H   0  0  0  0  0  0  0  0  0  0  0  0
   46.6617   32.3735   46.7204 H   0  0  0  0  0  0  0  0  0  0  0  0
   44.3381   36.9473   42.7243 H   0  0  0  0  0  0  0  0  0  0  0  0
  1  8  1  0
  2  1  1  0
  3  4  1  0
  3  2  1  0
  4  5  1  0
  5  6  1  0
  6  1  1  0
  7 12  2  0
  8  9  2  0
  8  7  1  0
  9 10  1  0
 10 11  2  0
 12 11  1  0
 13  6  1  0
  2 14  1  0
  2 15  1  0
  3 16  1  0
  3 17  1  0
  4 18  1  0
  5 19  1  0
  5 20  1  0
  6 21  1  1
  7 22  1  0
  9 23  1  0
 11 24  1  0
 13 25  1  0
M  ISO  8  14  13  15  13  16  13  17  13  18   5  19  13  20  13  21  13
M  ISO  4  22  14  23  14  24  14  25   3
M  END
>  <minimizedAffinity>  (1) 
-3.31558371

>  <minimizedRMSD>  (1) 
0.841159582

$$$$
