
     RDKit          3D

 39 41  0  0  1  0  0  0  0  0999 V2000
   46.0580   33.5660   44.1010 N   0  0  0  0  0  0  0  0  0  0  0  0
   45.6700   33.6200   45.5090 C   0  0  0  0  0  0  0  0  0  0  0  0
   46.6830   32.9630   46.4110 C   0  0  0  0  0  0  0  0  0  0  0  0
   47.1150   31.7100   45.9570 N   0  0  0  0  0  0  0  0  0  0  0  0
   47.2460   31.5090   44.5650 C   0  0  0  0  0  0  0  0  0  0  0  0
   47.2500   32.8690   43.8500 C   0  0  1  0  0  0  0  0  0  0  0  0
   47.8690   32.7910   42.5940 N   0  0  0  0  0  0  0  0  0  0  0  0
   47.4770   31.7920   41.6450 C   0  0  0  0  0  0  0  0  0  0  0  0
   48.4920   32.0300   40.5550 C   0  0  0  0  0  0  0  0  0  0  0  0
   49.7620   32.0310   41.3900 C   0  0  0  0  0  0  0  0  0  0  0  0
   49.3120   32.8350   42.5890 C   0  0  1  0  0  0  0  0  0  0  0  0
   49.8070   34.2380   42.4090 C   0  0  0  0  0  0  0  0  0  0  0  0
   49.4450   35.0840   43.4200 F   0  0  0  0  0  0  0  0  0  0  0  0
   49.3160   34.7740   41.2170 F   0  0  0  0  0  0  0  0  0  0  0  0
   51.1750   34.1690   42.2460 F   0  0  0  0  0  0  0  0  0  0  0  0
   44.3130   33.4140   42.4860 C   0  0  0  0  0  0  0  0  0  0  0  0
   45.1970   34.2130   43.1970 C   0  0  0  0  0  0  0  0  0  0  0  0
   45.1640   35.5720   42.9630 C   0  0  0  0  0  0  0  0  0  0  0  0
   44.2950   36.0970   42.0700 N   0  0  0  0  0  0  0  0  0  0  0  0
   43.4380   35.2910   41.3870 C   0  0  0  0  0  0  0  0  0  0  0  0
   43.4580   33.9530   41.6050 N   0  0  0  0  0  0  0  0  0  0  0  0
   45.5640   34.6739   45.8058 H   0  0  0  0  0  0  0  0  0  0  0  0
   44.7217   33.0731   45.6162 H   0  0  0  0  0  0  0  0  0  0  0  0
   47.5585   33.6244   46.4892 H   0  0  0  0  0  0  0  0  0  0  0  0
   46.1907   32.8003   47.3811 H   0  0  0  0  0  0  0  0  0  0  0  0
   48.0385   31.5352   46.3783 H   0  0  0  0  0  0  0  0  0  0  0  0
   48.1894   30.9828   44.3576 H   0  0  0  0  0  0  0  0  0  0  0  0
   46.4019   30.9052   44.2004 H   0  0  0  0  0  0  0  0  0  0  0  0
   47.9395   33.6149   44.2722 H   0  0  0  0  0  0  0  0  0  0  0  0
   47.5623   30.7786   42.0643 H   0  0  0  0  0  0  0  0  0  0  0  0
   46.4293   31.8596   41.3166 H   0  0  0  0  0  0  0  0  0  0  0  0
   48.3327   32.9938   40.0494 H   0  0  0  0  0  0  0  0  0  0  0  0
   48.4740   31.3010   39.7314 H   0  0  0  0  0  0  0  0  0  0  0  0
   50.0599   31.0112   41.6751 H   0  0  0  0  0  0  0  0  0  0  0  0
   50.6453   32.4367   40.8751 H   0  0  0  0  0  0  0  0  0  0  0  0
   49.7008   32.4437   43.5407 H   0  0  0  0  0  0  0  0  0  0  0  0
   44.3137   32.3258   42.6470 H   0  0  0  0  0  0  0  0  0  0  0  0
   45.8515   36.2353   43.5083 H   0  0  0  0  0  0  0  0  0  0  0  0
   42.7325   35.7225   40.6617 H   0  0  0  0  0  0  0  0  0  0  0  0
  1  2  1  0
  2  3  1  0
  4  3  1  0
  5  4  1  0
  6  1  1  0
  6  5  1  0
  7  8  1  0
  7  6  1  0
  9 10  1  0
  9  8  1  0
 10 11  1  0
 11  7  1  0
 12 11  1  0
 12 13  1  0
 14 12  1  0
 15 12  1  0
 16 17  2  0
 17  1  1  0
 18 17  1  0
 19 18  2  0
 20 21  2  0
 20 19  1  0
 21 16  1  0
  2 22  1  0
  2 23  1  0
  3 24  1  0
  3 25  1  0
  4 26  1  0
  5 27  1  0
  5 28  1  0
  6 29  1  1
  8 30  1  0
  8 31  1  0
  9 32  1  0
  9 33  1  0
 10 34  1  0
 10 35  1  0
 11 36  1  1
 16 37  1  0
 18 38  1  0
 20 39  1  0
M  ISO  8  22  13  23  13  24  13  25  13  26   5  27  13  28  13  29  13
M  ISO  8  30  13  31  13  32  13  33  13  34  13  35  13  36  13  37  14
M  ISO  2  38  14  39  14
M  END
>  <minimizedAffinity>  (1) 
-4.7731781

>  <minimizedRMSD>  (1) 
3.65640306

$$$$
