
     RDKit          3D

 40 42  0  0  1  0  0  0  0  0999 V2000
   45.5580   34.0910   42.3380 N   0  0  0  0  0  0  0  0  0  0  0  0
   46.0100   34.6220   43.6110 C   0  0  0  0  0  0  0  0  0  0  0  0
   44.8690   35.0420   44.5030 C   0  0  0  0  0  0  0  0  0  0  0  0
   43.9180   35.8300   43.8520 N   0  0  0  0  0  0  0  0  0  0  0  0
   43.6540   35.5700   42.4860 C   0  0  0  0  0  0  0  0  0  0  0  0
   44.1600   34.1620   42.1310 C   0  0  1  0  0  0  0  0  0  0  0  0
   43.4950   33.6000   41.0340 N   0  0  0  0  0  0  0  0  0  0  0  0
   43.6370   34.2000   39.7400 C   0  0  0  0  0  0  0  0  0  0  0  0
   42.6470   33.3860   38.9390 C   0  0  0  0  0  0  0  0  0  0  0  0
   41.4360   33.4990   39.8600 C   0  0  0  0  0  0  0  0  0  0  0  0
   42.0800   33.3580   41.2130 C   0  0  1  0  0  0  0  0  0  0  0  0
   40.5160   31.5910   42.2420 C   0  0  0  0  0  0  0  0  0  0  0  0
   39.4890   32.2910   42.0120 O   0  0  0  0  0  0  0  0  0  0  0  0
   41.7610   32.1220   41.8490 N   0  0  0  0  0  0  0  0  0  0  0  0
   47.3100   34.5090   40.7850 C   0  0  0  0  0  0  0  0  0  0  0  0
   46.5440   33.5840   41.4860 C   0  0  0  0  0  0  0  0  0  0  0  0
   46.8230   32.2480   41.2780 C   0  0  0  0  0  0  0  0  0  0  0  0
   47.8040   31.8690   40.4270 N   0  0  0  0  0  0  0  0  0  0  0  0
   48.5290   32.8080   39.7620 C   0  0  0  0  0  0  0  0  0  0  0  0
   48.2790   34.1140   39.9450 N   0  0  0  0  0  0  0  0  0  0  0  0
   46.5945   33.8469   44.1283 H   0  0  0  0  0  0  0  0  0  0  0  0
   46.6159   35.5161   43.4024 H   0  0  0  0  0  0  0  0  0  0  0  0
   44.3716   34.1372   44.8824 H   0  0  0  0  0  0  0  0  0  0  0  0
   45.2968   35.6515   45.3126 H   0  0  0  0  0  0  0  0  0  0  0  0
   43.0295   35.7189   44.3610 H   0  0  0  0  0  0  0  0  0  0  0  0
   42.5709   35.6284   42.3033 H   0  0  0  0  0  0  0  0  0  0  0  0
   44.1690   36.3154   41.8622 H   0  0  0  0  0  0  0  0  0  0  0  0
   43.8454   33.3687   42.8251 H   0  0  0  0  0  0  0  0  0  0  0  0
   43.3653   35.2658   39.7562 H   0  0  0  0  0  0  0  0  0  0  0  0
   44.6628   34.1880   39.3430 H   0  0  0  0  0  0  0  0  0  0  0  0
   42.4549   33.8284   37.9504 H   0  0  0  0  0  0  0  0  0  0  0  0
   42.9639   32.3598   38.7015 H   0  0  0  0  0  0  0  0  0  0  0  0
   40.9369   34.4732   39.7512 H   0  0  0  0  0  0  0  0  0  0  0  0
   40.6461   32.7606   39.6580 H   0  0  0  0  0  0  0  0  0  0  0  0
   41.6799   34.1001   41.9196 H   0  0  0  0  0  0  0  0  0  0  0  0
   40.4411   30.6075   42.7290 H   0  0  0  0  0  0  0  0  0  0  0  0
   42.5713   31.5202   42.0543 H   0  0  0  0  0  0  0  0  0  0  0  0
   47.1182   35.5835   40.9215 H   0  0  0  0  0  0  0  0  0  0  0  0
   46.2404   31.4821   41.8109 H   0  0  0  0  0  0  0  0  0  0  0  0
   49.3249   32.4954   39.0701 H   0  0  0  0  0  0  0  0  0  0  0  0
  1  2  1  0
  2  3  1  0
  4  3  1  0
  5  4  1  0
  6  1  1  0
  6  5  1  0
  7  8  1  0
  7 11  1  0
  7  6  1  0
  9  8  1  0
  9 10  1  0
 10 11  1  0
 11 14  1  0
 13 12  2  0
 14 12  1  0
 15 16  2  0
 16  1  1  0
 17 16  1  0
 18 17  2  0
 19 20  2  0
 19 18  1  0
 20 15  1  0
  2 21  1  0
  2 22  1  0
  3 23  1  0
  3 24  1  0
  4 25  1  0
  5 26  1  0
  5 27  1  0
  6 28  1  1
  8 29  1  0
  8 30  1  0
  9 31  1  0
  9 32  1  0
 10 33  1  0
 10 34  1  0
 11 35  1  1
 12 36  1  0
 14 37  1  0
 15 38  1  0
 17 39  1  0
 19 40  1  0
M  ISO  8  21  13  22  13  23  13  24  13  25   5  26  13  27  13  28  13
M  ISO  8  29  13  30  13  31  13  32  13  33  13  34  13  35  13  36   6
M  ISO  3  38  14  39  14  40  14
M  END
>  <minimizedAffinity>  (1) 
-4.751194

>  <minimizedRMSD>  (1) 
5.58493471

$$$$
