
     RDKit          3D

 23 24  0  0  1  0  0  0  0  0999 V2000
   46.5320   32.4820   43.5590 S   0  0  0  0  0  0  0  0  0  0  0  0
   48.1030   33.1920   43.0550 C   0  0  0  0  0  0  0  0  0  0  0  0
   49.0640   32.2430   42.7140 C   0  0  0  0  0  0  0  0  0  0  0  0
   50.3460   32.6870   42.3010 C   0  0  0  0  0  0  0  0  0  0  0  0
   50.5410   34.0360   42.2690 N   0  0  0  0  0  0  0  0  0  0  0  0
   49.5880   34.9220   42.6050 C   0  0  0  0  0  0  0  0  0  0  0  0
   48.3710   34.5080   42.9970 N   0  0  0  0  0  0  0  0  0  0  0  0
   45.6400   35.1050   43.3530 C   0  0  2  0  0  0  0  0  0  0  0  0
   45.3230   33.7450   43.9340 C   0  0  2  0  0  0  0  0  0  0  0  0
   45.2890   34.1300   45.4180 C   0  0  0  0  0  0  0  0  0  0  0  0
   44.7180   35.3720   45.4830 O   0  0  0  0  0  0  0  0  0  0  0  0
   44.7590   35.9810   44.2480 C   0  0  0  0  0  0  0  0  0  0  0  0
   45.2390   35.2010   42.0230 O   0  0  0  0  0  0  0  0  0  0  0  0
   48.8327   31.1688   42.7641 H   0  0  0  0  0  0  0  0  0  0  0  0
   51.1411   31.9803   42.0212 H   0  0  0  0  0  0  0  0  0  0  0  0
   49.8067   35.9990   42.5586 H   0  0  0  0  0  0  0  0  0  0  0  0
   46.7094   35.3623   43.3396 H   0  0  0  0  0  0  0  0  0  0  0  0
   44.4100   33.2757   43.5387 H   0  0  0  0  0  0  0  0  0  0  0  0
   44.6873   33.4047   45.9853 H   0  0  0  0  0  0  0  0  0  0  0  0
   46.2998   34.1331   45.8520 H   0  0  0  0  0  0  0  0  0  0  0  0
   45.1920   36.9883   44.3365 H   0  0  0  0  0  0  0  0  0  0  0  0
   43.7487   36.0869   43.8259 H   0  0  0  0  0  0  0  0  0  0  0  0
   44.2769   35.4313   41.9842 H   0  0  0  0  0  0  0  0  0  0  0  0
  2  1  1  0
  3  2  2  0
  4  3  1  0
  5  4  2  0
  5  6  1  0
  6  7  2  0
  7  2  1  0
  8 13  1  0
  8  9  1  0
  8 12  1  0
  9  1  1  0
  9 10  1  0
 10 11  1  0
 12 11  1  0
  3 14  1  0
  4 15  1  0
  6 16  1  0
  8 17  1  6
  9 18  1  6
 10 19  1  0
 10 20  1  0
 12 21  1  0
 12 22  1  0
 13 23  1  0
M  ISO  8  14  14  15  14  16  14  17  13  18  13  19  13  20  13  21  13
M  ISO  2  22  13  23   3
M  END
>  <minimizedAffinity>  (1) 
-3.93677211

>  <minimizedRMSD>  (1) 
4.06639624

$$$$
