
     RDKit          3D

 14 14  0  0  0  0  0  0  0  0999 V2000
   45.6080   34.7090   44.2550 C   0  0  0  0  0  0  0  0  0  0  0  0
   46.6330   33.8940   43.7910 C   0  0  0  0  0  0  0  0  0  0  0  0
   47.1170   32.8800   44.6250 C   0  0  0  0  0  0  0  0  0  0  0  0
   46.5450   32.7520   45.8540 N   0  0  0  0  0  0  0  0  0  0  0  0
   45.5560   33.5480   46.2830 C   0  0  0  0  0  0  0  0  0  0  0  0
   45.0830   34.5310   45.4850 N   0  0  0  0  0  0  0  0  0  0  0  0
   45.0630   35.9760   43.1130 S   0  0  0  0  0  0  0  0  0  0  0  0
   44.3660   35.1010   41.6840 C   0  0  0  0  0  0  0  0  0  0  0  0
   43.4820   35.9660   41.0390 F   0  0  0  0  0  0  0  0  0  0  0  0
   45.3630   34.6860   40.8160 F   0  0  0  0  0  0  0  0  0  0  0  0
   43.6550   33.9860   42.1560 F   0  0  0  0  0  0  0  0  0  0  0  0
   47.0562   34.0431   42.7867 H   0  0  0  0  0  0  0  0  0  0  0  0
   47.9284   32.2120   44.3003 H   0  0  0  0  0  0  0  0  0  0  0  0
   45.1286   33.4012   47.2859 H   0  0  0  0  0  0  0  0  0  0  0  0
  1  6  2  0
  2  1  1  0
  2  3  2  0
  3  4  1  0
  4  5  2  0
  6  5  1  0
  7  1  1  0
  8 11  1  0
  8  7  1  0
  9  8  1  0
 10  8  1  0
  2 12  1  0
  3 13  1  0
  5 14  1  0
M  ISO  3  12  14  13  14  14  14
M  END
>  <minimizedAffinity>  (1) 
-3.36003017

>  <minimizedRMSD>  (1) 
0.678714573

$$$$
