
     RDKit          3D

 27 28  0  0  0  0  0  0  0  0999 V2000
   42.8400   34.7960   41.5090 C   0  0  0  0  0  0  0  0  0  0  0  0
   41.5810   35.6040   41.3680 C   0  0  0  0  0  0  0  0  0  0  0  0
   40.8090   35.2090   40.1540 C   0  0  0  0  0  0  0  0  0  0  0  0
   41.2190   35.4210   38.8520 C   0  0  0  0  0  0  0  0  0  0  0  0
   40.4050   35.0030   37.7940 C   0  0  0  0  0  0  0  0  0  0  0  0
   39.2020   34.3850   38.0680 C   0  0  0  0  0  0  0  0  0  0  0  0
   38.7690   34.1600   39.3620 C   0  0  0  0  0  0  0  0  0  0  0  0
   39.5960   34.5850   40.3980 C   0  0  0  0  0  0  0  0  0  0  0  0
   44.2430   35.6860   42.1330 S   0  0  0  0  0  0  0  0  0  0  0  0
   45.0640   34.8570   43.5040 C   0  0  0  0  0  0  0  0  0  0  0  0
   46.1750   34.0820   43.1530 C   0  0  0  0  0  0  0  0  0  0  0  0
   46.8460   33.4160   44.1950 C   0  0  0  0  0  0  0  0  0  0  0  0
   46.3870   33.5600   45.4660 N   0  0  0  0  0  0  0  0  0  0  0  0
   45.3120   34.3180   45.7570 C   0  0  0  0  0  0  0  0  0  0  0  0
   44.6400   34.9730   44.7860 N   0  0  0  0  0  0  0  0  0  0  0  0
   43.1024   34.3990   40.5173 H   0  0  0  0  0  0  0  0  0  0  0  0
   42.6196   34.0144   42.2509 H   0  0  0  0  0  0  0  0  0  0  0  0
   40.9535   35.4456   42.2575 H   0  0  0  0  0  0  0  0  0  0  0  0
   41.8608   36.6632   41.2687 H   0  0  0  0  0  0  0  0  0  0  0  0
   42.1801   35.9157   38.6484 H   0  0  0  0  0  0  0  0  0  0  0  0
   40.7210   35.1655   36.7530 H   0  0  0  0  0  0  0  0  0  0  0  0
   38.5671   34.0609   37.2303 H   0  0  0  0  0  0  0  0  0  0  0  0
   37.8082   33.6643   39.5648 H   0  0  0  0  0  0  0  0  0  0  0  0
   39.2781   34.4211   41.4382 H   0  0  0  0  0  0  0  0  0  0  0  0
   46.5090   33.9972   42.1084 H   0  0  0  0  0  0  0  0  0  0  0  0
   47.7259   32.7903   43.9848 H   0  0  0  0  0  0  0  0  0  0  0  0
   44.9767   34.4046   46.8011 H   0  0  0  0  0  0  0  0  0  0  0  0
  1  9  1  0
  2  1  1  0
  3  8  1  0
  3  2  1  0
  4  3  2  0
  5  6  2  0
  5  4  1  0
  6  7  1  0
  7  8  2  0
  9 10  1  0
 10 15  1  0
 11 10  2  0
 11 12  1  0
 12 13  2  0
 13 14  1  0
 15 14  2  0
  1 16  1  0
  1 17  1  0
  2 18  1  0
  2 19  1  0
  4 20  1  0
  5 21  1  0
  6 22  1  0
  7 23  1  0
  8 24  1  0
 11 25  1  0
 12 26  1  0
 14 27  1  0
M  ISO  8  16   8  17   8  18   8  19   8  20  14  21  14  22  14  23  14
M  ISO  4  24  14  25  14  26  14  27  14
M  END
>  <minimizedAffinity>  (1) 
-4.76202869

>  <minimizedRMSD>  (1) 
1.35679018

$$$$
