
     RDKit          3D

 32 33  0  0  0  0  0  0  0  0999 V2000
   43.2750   34.7090   41.5680 C   0  0  0  0  0  0  0  0  0  0  0  0
   41.9250   35.3410   41.3980 C   0  0  0  0  0  0  0  0  0  0  0  0
   41.2150   34.7130   40.2950 N   0  0  0  0  0  0  0  0  0  0  0  0
   39.9160   34.2150   40.7640 C   0  0  0  0  0  0  0  0  0  0  0  0
   38.7970   34.4410   39.8090 C   0  0  0  0  0  0  0  0  0  0  0  0
   39.2020   34.0860   38.4140 C   0  0  0  0  0  0  0  0  0  0  0  0
   40.4430   34.8990   38.0530 C   0  0  0  0  0  0  0  0  0  0  0  0
   40.8810   35.6850   39.2680 C   0  0  0  0  0  0  0  0  0  0  0  0
   44.4340   35.6310   42.5360 S   0  0  0  0  0  0  0  0  0  0  0  0
   45.3440   34.6300   43.7260 C   0  0  0  0  0  0  0  0  0  0  0  0
   46.4710   33.9610   43.2190 C   0  0  0  0  0  0  0  0  0  0  0  0
   47.1940   33.1770   44.1260 C   0  0  0  0  0  0  0  0  0  0  0  0
   46.7860   33.0990   45.4260 N   0  0  0  0  0  0  0  0  0  0  0  0
   45.6860   33.7690   45.8610 C   0  0  0  0  0  0  0  0  0  0  0  0
   44.9820   34.5210   45.0160 N   0  0  0  0  0  0  0  0  0  0  0  0
   43.7092   34.5639   40.5678 H   0  0  0  0  0  0  0  0  0  0  0  0
   43.1017   33.7721   42.1177 H   0  0  0  0  0  0  0  0  0  0  0  0
   41.3446   35.2140   42.3237 H   0  0  0  0  0  0  0  0  0  0  0  0
   42.0533   36.4117   41.1808 H   0  0  0  0  0  0  0  0  0  0  0  0
   40.0048   33.1332   40.9421 H   0  0  0  0  0  0  0  0  0  0  0  0
   39.6718   34.7777   41.6771 H   0  0  0  0  0  0  0  0  0  0  0  0
   37.9405   33.8172   40.1045 H   0  0  0  0  0  0  0  0  0  0  0  0
   38.5251   35.5066   39.8342 H   0  0  0  0  0  0  0  0  0  0  0  0
   39.4312   33.0117   38.3553 H   0  0  0  0  0  0  0  0  0  0  0  0
   38.3845   34.3113   37.7133 H   0  0  0  0  0  0  0  0  0  0  0  0
   41.2509   34.2212   37.7402 H   0  0  0  0  0  0  0  0  0  0  0  0
   40.2117   35.5868   37.2263 H   0  0  0  0  0  0  0  0  0  0  0  0
   41.7614   36.2984   39.0257 H   0  0  0  0  0  0  0  0  0  0  0  0
   40.0850   36.3635   39.6088 H   0  0  0  0  0  0  0  0  0  0  0  0
   46.7697   34.0488   42.1640 H   0  0  0  0  0  0  0  0  0  0  0  0
   48.0862   32.6268   43.7926 H   0  0  0  0  0  0  0  0  0  0  0  0
   45.3763   33.6900   46.9135 H   0  0  0  0  0  0  0  0  0  0  0  0
  1  9  1  0
  2  1  1  0
  3  4  1  0
  3  2  1  0
  5  4  1  0
  6  5  1  0
  7  6  1  0
  7  8  1  0
  8  3  1  0
  9 10  1  0
 10 15  1  0
 11 10  2  0
 11 12  1  0
 12 13  2  0
 13 14  1  0
 15 14  2  0
  1 16  1  0
  1 17  1  0
  2 18  1  0
  2 19  1  0
  4 20  1  0
  4 21  1  0
  5 22  1  0
  5 23  1  0
  6 24  1  0
  6 25  1  0
  7 26  1  0
  7 27  1  0
  8 28  1  0
  8 29  1  0
 11 30  1  0
 12 31  1  0
 14 32  1  0
M  ISO  8  16   8  17   8  18   8  19   8  20  13  21  13  22  13  23  13
M  ISO  8  24  13  25  13  26  13  27  13  28  13  29  13  30  14  31  14
M  ISO  1  32  14
M  END
>  <minimizedAffinity>  (1) 
-4.45560694

>  <minimizedRMSD>  (1) 
0.939842999

$$$$
