
     RDKit          3D

 24 25  0  0  0  0  0  0  0  0999 V2000
   44.6400   35.9520   42.9400 S   0  0  0  0  0  0  0  0  0  0  0  0
   45.4700   34.7480   43.9790 C   0  0  0  0  0  0  0  0  0  0  0  0
   46.5470   34.0870   43.3810 C   0  0  0  0  0  0  0  0  0  0  0  0
   47.2310   33.1390   44.1370 C   0  0  0  0  0  0  0  0  0  0  0  0
   46.8240   32.8990   45.4240 N   0  0  0  0  0  0  0  0  0  0  0  0
   45.7760   33.5560   45.9750 C   0  0  0  0  0  0  0  0  0  0  0  0
   45.1040   34.4730   45.2620 N   0  0  0  0  0  0  0  0  0  0  0  0
   44.0820   35.3020   41.3930 C   0  0  0  0  0  0  0  0  0  0  0  0
   42.8090   34.5520   41.4050 C   0  0  0  0  0  0  0  0  0  0  0  0
   41.5670   35.3140   41.6670 C   0  0  0  0  0  0  0  0  0  0  0  0
   40.2170   34.7080   41.3950 C   0  0  0  0  0  0  0  0  0  0  0  0
   40.7210   35.9620   40.6730 C   0  0  0  0  0  0  0  0  0  0  0  0
   46.8446   34.3090   42.3456 H   0  0  0  0  0  0  0  0  0  0  0  0
   48.0837   32.5917   43.7089 H   0  0  0  0  0  0  0  0  0  0  0  0
   45.4746   33.3374   47.0101 H   0  0  0  0  0  0  0  0  0  0  0  0
   44.8630   34.6257   41.0152 H   0  0  0  0  0  0  0  0  0  0  0  0
   43.8906   36.1833   40.7631 H   0  0  0  0  0  0  0  0  0  0  0  0
   42.6999   34.0731   40.4207 H   0  0  0  0  0  0  0  0  0  0  0  0
   42.8989   33.8627   42.2575 H   0  0  0  0  0  0  0  0  0  0  0  0
   42.1040   35.7114   42.5409 H   0  0  0  0  0  0  0  0  0  0  0  0
   40.1335   33.7516   40.8581 H   0  0  0  0  0  0  0  0  0  0  0  0
   39.3339   34.4380   41.9927 H   0  0  0  0  0  0  0  0  0  0  0  0
   40.9889   35.9115   39.6073 H   0  0  0  0  0  0  0  0  0  0  0  0
   40.3352   36.9820   40.5292 H   0  0  0  0  0  0  0  0  0  0  0  0
  1  2  1  0
  2  7  1  0
  3  2  2  0
  3  4  1  0
  4  5  2  0
  5  6  1  0
  7  6  2  0
  8  9  1  0
  8  1  1  0
  9 10  1  0
 11 10  1  0
 12 11  1  0
 12 10  1  0
  3 13  1  0
  4 14  1  0
  6 15  1  0
  8 16  1  0
  8 17  1  0
  9 18  1  0
  9 19  1  0
 10 20  1  0
 11 21  1  0
 11 22  1  0
 12 23  1  0
 12 24  1  0
M  ISO  8  13  14  14  14  15  14  16   8  17   8  18   8  19   8  20  13
M  ISO  4  21  13  22  13  23  13  24  13
M  END
>  <minimizedAffinity>  (1) 
-3.56590557

>  <minimizedRMSD>  (1) 
0.878860354

$$$$
