
     RDKit          3D

 19 19  0  0  0  0  0  0  0  0999 V2000
   44.8410   35.8800   42.8960 S   0  0  0  0  0  0  0  0  0  0  0  0
   45.5100   34.7230   44.0950 C   0  0  0  0  0  0  0  0  0  0  0  0
   46.5890   33.9370   43.6600 C   0  0  0  0  0  0  0  0  0  0  0  0
   47.1350   33.0270   44.5600 C   0  0  0  0  0  0  0  0  0  0  0  0
   46.6020   32.9440   45.8050 N   0  0  0  0  0  0  0  0  0  0  0  0
   45.5650   33.7110   46.1970 C   0  0  0  0  0  0  0  0  0  0  0  0
   45.0200   34.5910   45.3580 N   0  0  0  0  0  0  0  0  0  0  0  0
   44.1730   35.0990   41.4540 C   0  0  0  0  0  0  0  0  0  0  0  0
   42.7330   35.4300   41.1700 C   0  0  0  0  0  0  0  0  0  0  0  0
   41.8460   34.9730   42.1970 N   0  0  0  0  0  0  0  0  0  0  0  0
   46.9898   34.0373   42.6406 H   0  0  0  0  0  0  0  0  0  0  0  0
   47.9814   32.3880   44.2681 H   0  0  0  0  0  0  0  0  0  0  0  0
   45.1658   33.6096   47.2170 H   0  0  0  0  0  0  0  0  0  0  0  0
   44.7736   35.4100   40.5865 H   0  0  0  0  0  0  0  0  0  0  0  0
   44.2118   34.0157   41.6411 H   0  0  0  0  0  0  0  0  0  0  0  0
   42.6343   36.5219   41.0806 H   0  0  0  0  0  0  0  0  0  0  0  0
   42.4528   34.9174   40.2379 H   0  0  0  0  0  0  0  0  0  0  0  0
   42.2525   35.1824   43.1199 H   0  0  0  0  0  0  0  0  0  0  0  0
   40.9386   35.4515   42.1049 H   0  0  0  0  0  0  0  0  0  0  0  0
  1  2  1  0
  2  7  2  0
  3  2  1  0
  3  4  2  0
  4  5  1  0
  5  6  2  0
  7  6  1  0
  8  1  1  0
  9  8  1  0
  9 10  1  0
  3 11  1  0
  4 12  1  0
  6 13  1  0
  8 14  1  0
  8 15  1  0
  9 16  1  0
  9 17  1  0
 10 18  1  0
 10 19  1  0
M  ISO  8  11  14  12  14  13  14  14   8  15   8  16   8  17   8  18   5
M  ISO  1  19   5
M  END
>  <minimizedAffinity>  (1) 
-3.05488777

>  <minimizedRMSD>  (1) 
0.365290552

$$$$
