
     RDKit          3D

 18 18  0  0  0  0  0  0  0  0999 V2000
   45.6050   34.6350   44.1320 C   0  0  0  0  0  0  0  0  0  0  0  0
   46.6520   33.9020   43.5340 C   0  0  0  0  0  0  0  0  0  0  0  0
   47.2630   32.9050   44.2930 C   0  0  0  0  0  0  0  0  0  0  0  0
   46.8090   32.7090   45.5540 N   0  0  0  0  0  0  0  0  0  0  0  0
   45.8090   33.4180   46.1050 C   0  0  0  0  0  0  0  0  0  0  0  0
   45.2030   34.3790   45.4080 N   0  0  0  0  0  0  0  0  0  0  0  0
   44.8630   35.9030   43.0770 S   0  0  0  0  0  0  0  0  0  0  0  0
   44.1290   35.2350   41.6080 C   0  0  0  0  0  0  0  0  0  0  0  0
   42.6290   35.2960   41.5760 C   0  0  0  0  0  0  0  0  0  0  0  0
   41.9450   33.7290   40.9820 S   0  0  0  0  0  0  0  0  0  0  0  0
   46.9753   34.1103   42.5034 H   0  0  0  0  0  0  0  0  0  0  0  0
   48.0843   32.2992   43.8826 H   0  0  0  0  0  0  0  0  0  0  0  0
   45.4893   33.2043   47.1356 H   0  0  0  0  0  0  0  0  0  0  0  0
   44.5139   35.7985   40.7453 H   0  0  0  0  0  0  0  0  0  0  0  0
   44.3985   34.1689   41.5816 H   0  0  0  0  0  0  0  0  0  0  0  0
   42.2528   35.4941   42.5905 H   0  0  0  0  0  0  0  0  0  0  0  0
   42.3196   36.1013   40.8936 H   0  0  0  0  0  0  0  0  0  0  0  0
   41.6029   32.9452   42.0523 H   0  0  0  0  0  0  0  0  0  0  0  0
  1  6  2  0
  2  1  1  0
  2  3  2  0
  3  4  1  0
  4  5  2  0
  6  5  1  0
  7  1  1  0
  8  7  1  0
  9  8  1  0
 10  9  1  0
  2 11  1  0
  3 12  1  0
  5 13  1  0
  8 14  1  0
  8 15  1  0
  9 16  1  0
  9 17  1  0
 10 18  1  0
M  ISO  8  11  14  12  14  13  14  14   8  15   8  16   8  17   8  18  11
M  END
>  <minimizedAffinity>  (1) 
-2.87034178

>  <minimizedRMSD>  (1) 
0.651429296

$$$$
