
     RDKit          3D

 31 32  0  0  0  0  0  0  0  0999 V2000
   42.3060   34.8660   41.3960 C   0  0  0  0  0  0  0  0  0  0  0  0
   41.1740   35.7760   40.9830 C   0  0  0  0  0  0  0  0  0  0  0  0
   42.0780   36.0650   38.0860 Cl  0  0  0  0  0  0  0  0  0  0  0  0
   40.6700   35.2040   38.5820 C   0  0  0  0  0  0  0  0  0  0  0  0
   40.3330   35.1250   39.9460 C   0  0  0  0  0  0  0  0  0  0  0  0
   39.1910   34.4180   40.2490 C   0  0  0  0  0  0  0  0  0  0  0  0
   38.3410   33.7770   39.3710 C   0  0  0  0  0  0  0  0  0  0  0  0
   38.6930   33.8680   38.0340 C   0  0  0  0  0  0  0  0  0  0  0  0
   37.6720   33.0840   36.8250 Cl  0  0  0  0  0  0  0  0  0  0  0  0
   39.8420   34.5740   37.6630 C   0  0  0  0  0  0  0  0  0  0  0  0
   43.8580   35.7320   41.6710 S   0  0  0  0  0  0  0  0  0  0  0  0
   44.9740   34.7980   42.7400 C   0  0  0  0  0  0  0  0  0  0  0  0
   46.1140   34.2800   42.1040 C   0  0  0  0  0  0  0  0  0  0  0  0
   46.9890   33.5490   42.9350 C   0  0  0  0  0  0  0  0  0  0  0  0
   46.7110   33.3880   44.2360 N   0  0  0  0  0  0  0  0  0  0  0  0
   45.5980   33.9050   44.8200 C   0  0  0  0  0  0  0  0  0  0  0  0
   44.7570   34.5990   44.0490 N   0  0  0  0  0  0  0  0  0  0  0  0
   45.9910   33.0800   47.1670 C   0  0  0  0  0  0  0  0  0  0  0  0
   47.0590   32.5400   46.7860 O   0  0  0  0  0  0  0  0  0  0  0  0
   45.2470   33.7720   46.1820 N   0  0  0  0  0  0  0  0  0  0  0  0
   42.4596   34.1193   40.6030 H   0  0  0  0  0  0  0  0  0  0  0  0
   42.0185   34.4052   42.3526 H   0  0  0  0  0  0  0  0  0  0  0  0
   40.5531   36.0029   41.8622 H   0  0  0  0  0  0  0  0  0  0  0  0
   41.5968   36.7024   40.5671 H   0  0  0  0  0  0  0  0  0  0  0  0
   38.9254   34.3571   41.3147 H   0  0  0  0  0  0  0  0  0  0  0  0
   37.4470   33.2322   39.7087 H   0  0  0  0  0  0  0  0  0  0  0  0
   40.1011   34.6326   36.5955 H   0  0  0  0  0  0  0  0  0  0  0  0
   46.3109   34.4335   41.0327 H   0  0  0  0  0  0  0  0  0  0  0  0
   47.9044   33.1088   42.5127 H   0  0  0  0  0  0  0  0  0  0  0  0
   45.6517   33.0183   48.2115 H   0  0  0  0  0  0  0  0  0  0  0  0
   44.3702   34.2192   46.4855 H   0  0  0  0  0  0  0  0  0  0  0  0
  1 11  1  0
  2  1  1  0
  3  4  1  0
  4  5  2  0
  5  6  1  0
  5  2  1  0
  7  6  2  0
  8  7  1  0
  9  8  1  0
 10  8  2  0
 10  4  1  0
 11 12  1  0
 12 17  1  0
 13 12  2  0
 13 14  1  0
 14 15  2  0
 15 16  1  0
 16 20  1  0
 17 16  2  0
 19 18  2  0
 20 18  1  0
  1 21  1  0
  1 22  1  0
  2 23  1  0
  2 24  1  0
  6 25  1  0
  7 26  1  0
 10 27  1  0
 13 28  1  0
 14 29  1  0
 18 30  1  0
 20 31  1  0
M  ISO  8  21   8  22   8  23   8  24   8  25  14  26  14  27  14  28  14
M  ISO  2  29  14  30   6
M  END
>  <minimizedAffinity>  (1) 
-6.02892876

>  <minimizedRMSD>  (1) 
1.53027058

$$$$
