
     RDKit          3D

 44 46  0  0  0  0  0  0  0  0999 V2000
   43.5360   34.9580   40.7540 S   0  0  0  0  0  0  0  0  0  0  0  0
   44.8090   34.6770   41.9900 C   0  0  0  0  0  0  0  0  0  0  0  0
   46.1210   34.5870   41.5230 C   0  0  0  0  0  0  0  0  0  0  0  0
   47.1430   34.3680   42.4480 C   0  0  0  0  0  0  0  0  0  0  0  0
   46.8070   34.2550   43.7590 N   0  0  0  0  0  0  0  0  0  0  0  0
   45.5480   34.3440   44.1920 C   0  0  0  0  0  0  0  0  0  0  0  0
   44.5620   34.5530   43.3060 N   0  0  0  0  0  0  0  0  0  0  0  0
   45.2790   34.2110   45.6070 C   0  0  0  0  0  0  0  0  0  0  0  0
   44.5910   35.0840   46.1870 O   0  0  0  0  0  0  0  0  0  0  0  0
   45.7350   33.1510   46.4390 N   0  0  0  0  0  0  0  0  0  0  0  0
   45.1440   32.9650   47.7260 C   0  0  0  0  0  0  0  0  0  0  0  0
   45.4530   31.6700   48.3850 C   0  0  0  0  0  0  0  0  0  0  0  0
   45.6470   30.4910   47.5060 C   0  0  0  0  0  0  0  0  0  0  0  0
   46.0420   30.8440   46.0960 C   0  0  0  0  0  0  0  0  0  0  0  0
   46.7670   32.1710   46.1650 C   0  0  0  0  0  0  0  0  0  0  0  0
   41.9020   35.0650   41.4630 C   0  0  0  0  0  0  0  0  0  0  0  0
   40.9870   35.9750   40.7090 C   0  0  0  0  0  0  0  0  0  0  0  0
   41.8190   36.2600   37.8030 Cl  0  0  0  0  0  0  0  0  0  0  0  0
   40.4780   35.2900   38.3540 C   0  0  0  0  0  0  0  0  0  0  0  0
   40.1850   35.2320   39.7150 C   0  0  0  0  0  0  0  0  0  0  0  0
   39.1080   34.4420   40.0690 C   0  0  0  0  0  0  0  0  0  0  0  0
   38.2960   33.7090   39.2120 C   0  0  0  0  0  0  0  0  0  0  0  0
   38.6230   33.7960   37.8700 C   0  0  0  0  0  0  0  0  0  0  0  0
   37.6430   32.8940   36.7090 Cl  0  0  0  0  0  0  0  0  0  0  0  0
   39.6860   34.5670   37.4610 C   0  0  0  0  0  0  0  0  0  0  0  0
   46.3446   34.6864   40.4506 H   0  0  0  0  0  0  0  0  0  0  0  0
   48.1913   34.2891   42.1242 H   0  0  0  0  0  0  0  0  0  0  0  0
   45.4979   33.7735   48.3826 H   0  0  0  0  0  0  0  0  0  0  0  0
   44.0559   32.9726   47.5651 H   0  0  0  0  0  0  0  0  0  0  0  0
   46.3778   31.8062   48.9648 H   0  0  0  0  0  0  0  0  0  0  0  0
   44.5589   31.4350   48.9812 H   0  0  0  0  0  0  0  0  0  0  0  0
   46.4370   29.8606   47.9402 H   0  0  0  0  0  0  0  0  0  0  0  0
   44.6792   29.9714   47.4477 H   0  0  0  0  0  0  0  0  0  0  0  0
   45.1469   30.9338   45.4630 H   0  0  0  0  0  0  0  0  0  0  0  0
   46.6843   30.0652   45.6590 H   0  0  0  0  0  0  0  0  0  0  0  0
   47.5144   32.1613   46.9720 H   0  0  0  0  0  0  0  0  0  0  0  0
   47.3098   32.3931   45.2344 H   0  0  0  0  0  0  0  0  0  0  0  0
   41.4602   34.0577   41.4748 H   0  0  0  0  0  0  0  0  0  0  0  0
   42.0134   35.4816   42.4749 H   0  0  0  0  0  0  0  0  0  0  0  0
   40.3079   36.4686   41.4198 H   0  0  0  0  0  0  0  0  0  0  0  0
   41.5996   36.7162   40.1747 H   0  0  0  0  0  0  0  0  0  0  0  0
   38.8684   34.3877   41.1412 H   0  0  0  0  0  0  0  0  0  0  0  0
   37.4530   33.1025   39.5746 H   0  0  0  0  0  0  0  0  0  0  0  0
   39.9212   34.6157   36.3875 H   0  0  0  0  0  0  0  0  0  0  0  0
  1 16  1  0
  1  2  1  0
  2  7  1  0
  3  2  2  0
  3  4  1  0
  4  5  2  0
  5  6  1  0
  6  8  1  0
  7  6  2  0
  8  9  2  0
  8 10  1  0
 10 11  1  0
 11 12  1  0
 13 12  1  0
 14 15  1  0
 14 13  1  0
 15 10  1  0
 17 16  1  0
 18 19  1  0
 19 20  2  0
 20 21  1  0
 20 17  1  0
 22 21  2  0
 23 22  1  0
 24 23  1  0
 25 23  2  0
 25 19  1  0
  3 26  1  0
  4 27  1  0
 11 28  1  0
 11 29  1  0
 12 30  1  0
 12 31  1  0
 13 32  1  0
 13 33  1  0
 14 34  1  0
 14 35  1  0
 15 36  1  0
 15 37  1  0
 16 38  1  0
 16 39  1  0
 17 40  1  0
 17 41  1  0
 21 42  1  0
 22 43  1  0
 25 44  1  0
M  ISO  8  26  14  27  14  28  13  29  13  30  13  31  13  32  13  33  13
M  ISO  8  34  13  35  13  36  13  37  13  38   8  39   8  40   8  41   8
M  ISO  3  42  14  43  14  44  14
M  END
>  <minimizedAffinity>  (1) 
-7.22438955

>  <minimizedRMSD>  (1) 
0.278127819

$$$$
