
     RDKit          3D

 31 32  0  0  0  0  0  0  0  0999 V2000
   41.8710   35.2550   41.5150 C   0  0  0  0  0  0  0  0  0  0  0  0
   40.9410   36.1050   40.7220 C   0  0  0  0  0  0  0  0  0  0  0  0
   41.7540   36.2840   37.7990 Cl  0  0  0  0  0  0  0  0  0  0  0  0
   40.4480   35.3020   38.3890 C   0  0  0  0  0  0  0  0  0  0  0  0
   40.1610   35.2960   39.7560 C   0  0  0  0  0  0  0  0  0  0  0  0
   39.1150   34.4950   40.1430 C   0  0  0  0  0  0  0  0  0  0  0  0
   38.3240   33.7000   39.3230 C   0  0  0  0  0  0  0  0  0  0  0  0
   38.6340   33.7310   37.9840 C   0  0  0  0  0  0  0  0  0  0  0  0
   37.6940   32.7600   36.8520 Cl  0  0  0  0  0  0  0  0  0  0  0  0
   39.6730   34.5150   37.5330 C   0  0  0  0  0  0  0  0  0  0  0  0
   43.5020   35.0720   40.7790 S   0  0  0  0  0  0  0  0  0  0  0  0
   44.7710   34.7390   41.9910 C   0  0  0  0  0  0  0  0  0  0  0  0
   46.0630   34.5130   41.4950 C   0  0  0  0  0  0  0  0  0  0  0  0
   47.0940   34.2480   42.4010 C   0  0  0  0  0  0  0  0  0  0  0  0
   46.7800   34.2250   43.7190 N   0  0  0  0  0  0  0  0  0  0  0  0
   45.5280   34.4450   44.1840 C   0  0  0  0  0  0  0  0  0  0  0  0
   44.5570   34.6950   43.3130 N   0  0  0  0  0  0  0  0  0  0  0  0
   45.3330   34.3900   45.6160 C   0  0  0  0  0  0  0  0  0  0  0  0
   44.4690   35.1510   46.1120 O   0  0  0  0  0  0  0  0  0  0  0  0
   46.1440   33.4660   46.3650 N   0  0  0  0  0  0  0  0  0  0  0  0
   41.9895   35.7076   42.5106 H   0  0  0  0  0  0  0  0  0  0  0  0
   41.4261   34.2499   41.5570 H   0  0  0  0  0  0  0  0  0  0  0  0
   40.2462   36.6118   41.4079 H   0  0  0  0  0  0  0  0  0  0  0  0
   41.5368   36.8381   40.1585 H   0  0  0  0  0  0  0  0  0  0  0  0
   38.8780   34.4813   41.2171 H   0  0  0  0  0  0  0  0  0  0  0  0
   37.5025   33.0853   39.7196 H   0  0  0  0  0  0  0  0  0  0  0  0
   39.9015   34.5218   36.4570 H   0  0  0  0  0  0  0  0  0  0  0  0
   46.2614   34.5437   40.4135 H   0  0  0  0  0  0  0  0  0  0  0  0
   48.1225   34.0648   42.0567 H   0  0  0  0  0  0  0  0  0  0  0  0
   46.0355   33.3967   47.3869 H   0  0  0  0  0  0  0  0  0  0  0  0
   46.8328   32.8742   45.8790 H   0  0  0  0  0  0  0  0  0  0  0  0
  2  1  1  0
  3  4  1  0
  4  5  2  0
  5  6  1  0
  5  2  1  0
  7  6  2  0
  8  7  1  0
  9  8  1  0
 10  8  2  0
 10  4  1  0
 11  1  1  0
 11 12  1  0
 12 17  1  0
 13 12  2  0
 13 14  1  0
 14 15  2  0
 15 16  1  0
 16 18  1  0
 17 16  2  0
 18 19  2  0
 18 20  1  0
  1 21  1  0
  1 22  1  0
  2 23  1  0
  2 24  1  0
  6 25  1  0
  7 26  1  0
 10 27  1  0
 13 28  1  0
 14 29  1  0
 20 30  1  0
 20 31  1  0
M  ISO  8  21   8  22   8  23   8  24   8  25  14  26  14  27  14  28  14
M  ISO  1  29  14
M  END
>  <minimizedAffinity>  (1) 
-6.19342899

>  <minimizedRMSD>  (1) 
0.0771992281

$$$$
