
     RDKit          3D

 46 48  0  0  0  0  0  0  0  0999 V2000
   44.5360   34.8230   41.9090 C   0  0  0  0  0  0  0  0  0  0  0  0
   45.8020   34.5520   41.3780 C   0  0  0  0  0  0  0  0  0  0  0  0
   46.8480   34.2800   42.2450 C   0  0  0  0  0  0  0  0  0  0  0  0
   46.5840   34.2940   43.5630 N   0  0  0  0  0  0  0  0  0  0  0  0
   45.3710   34.5540   44.0780 C   0  0  0  0  0  0  0  0  0  0  0  0
   44.3730   34.8130   43.2340 N   0  0  0  0  0  0  0  0  0  0  0  0
   48.1710   33.9920   41.8130 N   0  0  0  0  0  0  0  0  0  0  0  0
   48.6290   32.7700   41.2330 C   0  0  0  0  0  0  0  0  0  0  0  0
   49.6710   32.1890   42.2000 C   0  0  0  0  0  0  0  0  0  0  0  0
   50.8810   33.0980   42.1110 C   0  0  0  0  0  0  0  0  0  0  0  0
   50.4380   34.4430   42.6400 C   0  0  0  0  0  0  0  0  0  0  0  0
   49.2120   34.9570   41.9290 C   0  0  0  0  0  0  0  0  0  0  0  0
   45.2290   34.5340   45.5120 C   0  0  0  0  0  0  0  0  0  0  0  0
   44.4120   35.3500   46.0250 O   0  0  0  0  0  0  0  0  0  0  0  0
   46.0160   33.6010   46.2580 N   0  0  0  0  0  0  0  0  0  0  0  0
   43.2380   35.1640   40.7240 S   0  0  0  0  0  0  0  0  0  0  0  0
   41.6280   35.3690   41.5180 C   0  0  0  0  0  0  0  0  0  0  0  0
   40.6420   36.1220   40.6950 C   0  0  0  0  0  0  0  0  0  0  0  0
   41.4940   36.3570   37.7850 Cl  0  0  0  0  0  0  0  0  0  0  0  0
   40.2820   35.2560   38.3590 C   0  0  0  0  0  0  0  0  0  0  0  0
   39.9690   35.2320   39.7140 C   0  0  0  0  0  0  0  0  0  0  0  0
   39.0010   34.3360   40.0860 C   0  0  0  0  0  0  0  0  0  0  0  0
   38.3130   33.4630   39.2620 C   0  0  0  0  0  0  0  0  0  0  0  0
   38.6400   33.5080   37.9310 C   0  0  0  0  0  0  0  0  0  0  0  0
   37.8160   32.4340   36.8030 Cl  0  0  0  0  0  0  0  0  0  0  0  0
   39.6090   34.3910   37.4850 C   0  0  0  0  0  0  0  0  0  0  0  0
   45.9641   34.5549   40.2900 H   0  0  0  0  0  0  0  0  0  0  0  0
   47.7899   32.0689   41.1131 H   0  0  0  0  0  0  0  0  0  0  0  0
   49.0640   32.9419   40.2374 H   0  0  0  0  0  0  0  0  0  0  0  0
   49.2756   32.1794   43.2264 H   0  0  0  0  0  0  0  0  0  0  0  0
   49.9277   31.1519   41.9381 H   0  0  0  0  0  0  0  0  0  0  0  0
   51.7032   32.6994   42.7234 H   0  0  0  0  0  0  0  0  0  0  0  0
   51.2490   33.1753   41.0773 H   0  0  0  0  0  0  0  0  0  0  0  0
   50.2113   34.3452   43.7119 H   0  0  0  0  0  0  0  0  0  0  0  0
   51.2544   35.1599   42.4681 H   0  0  0  0  0  0  0  0  0  0  0  0
   49.5049   35.2752   40.9176 H   0  0  0  0  0  0  0  0  0  0  0  0
   48.8152   35.7873   42.5316 H   0  0  0  0  0  0  0  0  0  0  0  0
   45.9355   33.5640   47.2842 H   0  0  0  0  0  0  0  0  0  0  0  0
   46.6631   32.9662   45.7689 H   0  0  0  0  0  0  0  0  0  0  0  0
   41.2150   34.3711   41.7266 H   0  0  0  0  0  0  0  0  0  0  0  0
   41.7953   35.9561   42.4331 H   0  0  0  0  0  0  0  0  0  0  0  0
   39.8835   36.5631   41.3584 H   0  0  0  0  0  0  0  0  0  0  0  0
   41.1779   36.9074   40.1419 H   0  0  0  0  0  0  0  0  0  0  0  0
   38.7432   34.3078   41.1550 H   0  0  0  0  0  0  0  0  0  0  0  0
   37.5492   32.7739   39.6514 H   0  0  0  0  0  0  0  0  0  0  0  0
   39.8579   34.4143   36.4138 H   0  0  0  0  0  0  0  0  0  0  0  0
  1  6  1  0
  2  1  2  0
  2  3  1  0
  3  4  2  0
  4  5  1  0
  5 13  1  0
  6  5  2  0
  7 12  1  0
  7  3  1  0
  8  7  1  0
  8  9  1  0
 10  9  1  0
 10 11  1  0
 12 11  1  0
 13 14  2  0
 13 15  1  0
 16 17  1  0
 16  1  1  0
 18 17  1  0
 19 20  1  0
 20 21  2  0
 21 22  1  0
 21 18  1  0
 23 22  2  0
 24 23  1  0
 25 24  1  0
 26 24  2  0
 26 20  1  0
  2 27  1  0
  8 28  1  0
  8 29  1  0
  9 30  1  0
  9 31  1  0
 10 32  1  0
 10 33  1  0
 11 34  1  0
 11 35  1  0
 12 36  1  0
 12 37  1  0
 15 38  1  0
 15 39  1  0
 17 40  1  0
 17 41  1  0
 18 42  1  0
 18 43  1  0
 22 44  1  0
 23 45  1  0
 26 46  1  0
M  ISO  8  27  14  28  13  29  13  30  13  31  13  32  13  33  13  34  13
M  ISO  8  35  13  36  13  37  13  40   8  41   8  42   8  43   8  44  14
M  ISO  2  45  14  46  14
M  END
>  <minimizedAffinity>  (1) 
-7.65758848

>  <minimizedRMSD>  (1) 
0.274972916

$$$$
