
     RDKit          3D

 41 43  0  0  0  0  0  0  0  0999 V2000
   44.8960   34.7130   42.2320 C   0  0  0  0  0  0  0  0  0  0  0  0
   46.1480   34.2870   41.7930 C   0  0  0  0  0  0  0  0  0  0  0  0
   47.1000   33.8700   42.7070 C   0  0  0  0  0  0  0  0  0  0  0  0
   46.7440   33.9020   44.0120 N   0  0  0  0  0  0  0  0  0  0  0  0
   45.5260   34.3160   44.4410 C   0  0  0  0  0  0  0  0  0  0  0  0
   44.6380   34.7090   43.5450 N   0  0  0  0  0  0  0  0  0  0  0  0
   49.5950   35.2920   43.1100 F   0  0  0  0  0  0  0  0  0  0  0  0
   49.6190   34.0590   42.5950 C   0  0  0  0  0  0  0  0  0  0  0  0
   48.4290   33.4040   42.4130 C   0  0  0  0  0  0  0  0  0  0  0  0
   48.5780   32.1430   41.8760 C   0  0  0  0  0  0  0  0  0  0  0  0
   49.8080   31.5940   41.5550 C   0  0  0  0  0  0  0  0  0  0  0  0
   50.9700   32.2970   41.7580 C   0  0  0  0  0  0  0  0  0  0  0  0
   50.8670   33.5630   42.2930 C   0  0  0  0  0  0  0  0  0  0  0  0
   45.2920   34.2930   45.8760 C   0  0  0  0  0  0  0  0  0  0  0  0
   44.4000   35.0710   46.3210 O   0  0  0  0  0  0  0  0  0  0  0  0
   46.0730   33.4050   46.6780 N   0  0  0  0  0  0  0  0  0  0  0  0
   43.7420   35.2300   40.9740 S   0  0  0  0  0  0  0  0  0  0  0  0
   42.0270   35.0780   41.5130 C   0  0  0  0  0  0  0  0  0  0  0  0
   41.0960   35.9940   40.7950 C   0  0  0  0  0  0  0  0  0  0  0  0
   41.9460   36.1760   37.8890 Cl  0  0  0  0  0  0  0  0  0  0  0  0
   40.5790   35.2750   38.4410 C   0  0  0  0  0  0  0  0  0  0  0  0
   40.2780   35.2610   39.8010 C   0  0  0  0  0  0  0  0  0  0  0  0
   39.1690   34.5190   40.1670 C   0  0  0  0  0  0  0  0  0  0  0  0
   38.3360   33.7970   39.3250 C   0  0  0  0  0  0  0  0  0  0  0  0
   38.6580   33.8320   37.9910 C   0  0  0  0  0  0  0  0  0  0  0  0
   37.6660   32.9500   36.8370 Cl  0  0  0  0  0  0  0  0  0  0  0  0
   39.7600   34.5590   37.5650 C   0  0  0  0  0  0  0  0  0  0  0  0
   46.3802   34.2821   40.7178 H   0  0  0  0  0  0  0  0  0  0  0  0
   47.6744   31.5429   41.6934 H   0  0  0  0  0  0  0  0  0  0  0  0
   49.8550   30.5800   41.1312 H   0  0  0  0  0  0  0  0  0  0  0  0
   51.9488   31.8649   41.5026 H   0  0  0  0  0  0  0  0  0  0  0  0
   51.7677   34.1674   42.4757 H   0  0  0  0  0  0  0  0  0  0  0  0
   45.9276   33.3688   47.6970 H   0  0  0  0  0  0  0  0  0  0  0  0
   46.7814   32.8011   46.2371 H   0  0  0  0  0  0  0  0  0  0  0  0
   41.6983   34.0424   41.3413 H   0  0  0  0  0  0  0  0  0  0  0  0
   41.9962   35.3537   42.5774 H   0  0  0  0  0  0  0  0  0  0  0  0
   40.4276   36.4711   41.5269 H   0  0  0  0  0  0  0  0  0  0  0  0
   41.6938   36.7488   40.2631 H   0  0  0  0  0  0  0  0  0  0  0  0
   38.9218   34.4996   41.2387 H   0  0  0  0  0  0  0  0  0  0  0  0
   37.4713   33.2316   39.7027 H   0  0  0  0  0  0  0  0  0  0  0  0
   39.9990   34.5721   36.4914 H   0  0  0  0  0  0  0  0  0  0  0  0
  1  6  1  0
  2  1  2  0
  2  3  1  0
  3  4  2  0
  4  5  1  0
  5 14  1  0
  6  5  2  0
  8  7  1  0
  9  8  2  0
  9  3  1  0
 10  9  1  0
 11 12  1  0
 11 10  2  0
 12 13  2  0
 13  8  1  0
 14 15  2  0
 14 16  1  0
 17 18  1  0
 17  1  1  0
 19 18  1  0
 20 21  1  0
 21 22  2  0
 22 23  1  0
 22 19  1  0
 24 23  2  0
 25 24  1  0
 26 25  1  0
 27 25  2  0
 27 21  1  0
  2 28  1  0
 10 29  1  0
 11 30  1  0
 12 31  1  0
 13 32  1  0
 16 33  1  0
 16 34  1  0
 18 35  1  0
 18 36  1  0
 19 37  1  0
 19 38  1  0
 23 39  1  0
 24 40  1  0
 27 41  1  0
M  ISO  8  28  14  29  14  30  14  31  14  32  14  35   8  36   8  37   8
M  ISO  4  38   8  39  14  40  14  41  14
M  END
>  <minimizedAffinity>  (1) 
-7.49223089

>  <minimizedRMSD>  (1) 
0.848663032

$$$$
