
     RDKit          3D

 41 43  0  0  0  0  0  0  0  0999 V2000
   44.9510   34.5730   42.3160 C   0  0  0  0  0  0  0  0  0  0  0  0
   46.2050   34.1170   41.9290 C   0  0  0  0  0  0  0  0  0  0  0  0
   47.1260   33.7110   42.8770 C   0  0  0  0  0  0  0  0  0  0  0  0
   46.7290   33.7890   44.1690 N   0  0  0  0  0  0  0  0  0  0  0  0
   45.5010   34.2350   44.5520 C   0  0  0  0  0  0  0  0  0  0  0  0
   44.6570   34.6120   43.6130 N   0  0  0  0  0  0  0  0  0  0  0  0
   49.5380   35.6300   42.2110 Cl  0  0  0  0  0  0  0  0  0  0  0  0
   49.6120   33.9150   42.3670 C   0  0  0  0  0  0  0  0  0  0  0  0
   48.4680   33.2270   42.6580 C   0  0  0  0  0  0  0  0  0  0  0  0
   48.6670   31.8620   42.7310 C   0  0  0  0  0  0  0  0  0  0  0  0
   49.8890   31.2610   42.5330 C   0  0  0  0  0  0  0  0  0  0  0  0
   51.0110   32.0000   42.2430 C   0  0  0  0  0  0  0  0  0  0  0  0
   50.8540   33.3650   42.1600 C   0  0  0  0  0  0  0  0  0  0  0  0
   45.2270   34.2560   45.9770 C   0  0  0  0  0  0  0  0  0  0  0  0
   44.3730   35.0780   46.3810 O   0  0  0  0  0  0  0  0  0  0  0  0
   45.9450   33.3420   46.8190 N   0  0  0  0  0  0  0  0  0  0  0  0
   43.8380   35.0750   41.0110 S   0  0  0  0  0  0  0  0  0  0  0  0
   42.1040   34.9420   41.4910 C   0  0  0  0  0  0  0  0  0  0  0  0
   41.2060   35.8940   40.7870 C   0  0  0  0  0  0  0  0  0  0  0  0
   42.0390   36.0970   37.8780 Cl  0  0  0  0  0  0  0  0  0  0  0  0
   40.6440   35.2400   38.4290 C   0  0  0  0  0  0  0  0  0  0  0  0
   40.3560   35.2130   39.7890 C   0  0  0  0  0  0  0  0  0  0  0  0
   39.2220   34.5090   40.1540 C   0  0  0  0  0  0  0  0  0  0  0  0
   38.3500   33.8320   39.3110 C   0  0  0  0  0  0  0  0  0  0  0  0
   38.6690   33.8840   37.9790 C   0  0  0  0  0  0  0  0  0  0  0  0
   37.6280   33.0590   36.8100 Cl  0  0  0  0  0  0  0  0  0  0  0  0
   39.7830   34.5670   37.5480 C   0  0  0  0  0  0  0  0  0  0  0  0
   46.4669   34.0787   40.8613 H   0  0  0  0  0  0  0  0  0  0  0  0
   47.8026   31.2213   42.9596 H   0  0  0  0  0  0  0  0  0  0  0  0
   49.9695   30.1665   42.6084 H   0  0  0  0  0  0  0  0  0  0  0  0
   51.9893   31.5227   42.0845 H   0  0  0  0  0  0  0  0  0  0  0  0
   51.7151   34.0097   41.9300 H   0  0  0  0  0  0  0  0  0  0  0  0
   45.7724   33.3331   47.8344 H   0  0  0  0  0  0  0  0  0  0  0  0
   46.6329   32.6949   46.4079 H   0  0  0  0  0  0  0  0  0  0  0  0
   41.7625   33.9193   41.2732 H   0  0  0  0  0  0  0  0  0  0  0  0
   42.0510   35.1880   42.5618 H   0  0  0  0  0  0  0  0  0  0  0  0
   40.5594   36.3872   41.5277 H   0  0  0  0  0  0  0  0  0  0  0  0
   41.8330   36.6268   40.2580 H   0  0  0  0  0  0  0  0  0  0  0  0
   38.9855   34.4827   41.2280 H   0  0  0  0  0  0  0  0  0  0  0  0
   37.4672   33.2930   39.6854 H   0  0  0  0  0  0  0  0  0  0  0  0
   40.0076   34.5864   36.4713 H   0  0  0  0  0  0  0  0  0  0  0  0
  1  6  1  0
  2  1  2  0
  2  3  1  0
  3  4  2  0
  4  5  1  0
  5 14  1  0
  6  5  2  0
  7  8  1  0
  8  9  2  0
  9 10  1  0
  9  3  1  0
 11 10  2  0
 12 11  1  0
 13 12  2  0
 13  8  1  0
 14 15  2  0
 14 16  1  0
 17 18  1  0
 17  1  1  0
 19 18  1  0
 20 21  1  0
 21 22  2  0
 22 23  1  0
 22 19  1  0
 24 23  2  0
 25 24  1  0
 26 25  1  0
 27 25  2  0
 27 21  1  0
  2 28  1  0
 10 29  1  0
 11 30  1  0
 12 31  1  0
 13 32  1  0
 16 33  1  0
 16 34  1  0
 18 35  1  0
 18 36  1  0
 19 37  1  0
 19 38  1  0
 23 39  1  0
 24 40  1  0
 27 41  1  0
M  ISO  8  28  14  29  14  30  14  31  14  32  14  35   8  36   8  37   8
M  ISO  4  38   8  39  14  40  14  41  14
M  END
>  <minimizedAffinity>  (1) 
-7.43380499

>  <minimizedRMSD>  (1) 
1.04568338

$$$$
