
     RDKit          3D

 34 35  0  0  0  0  0  0  0  0999 V2000
   41.8130   34.9910   41.5720 C   0  0  0  0  0  0  0  0  0  0  0  0
   41.0340   35.9270   40.7260 C   0  0  0  0  0  0  0  0  0  0  0  0
   41.8800   36.1860   37.8270 Cl  0  0  0  0  0  0  0  0  0  0  0  0
   40.5130   35.2580   38.3570 C   0  0  0  0  0  0  0  0  0  0  0  0
   40.2050   35.2010   39.7240 C   0  0  0  0  0  0  0  0  0  0  0  0
   39.1130   34.4500   40.0740 C   0  0  0  0  0  0  0  0  0  0  0  0
   38.2920   33.7490   39.2110 C   0  0  0  0  0  0  0  0  0  0  0  0
   38.6180   33.8200   37.8780 C   0  0  0  0  0  0  0  0  0  0  0  0
   37.6270   32.9550   36.6930 Cl  0  0  0  0  0  0  0  0  0  0  0  0
   39.6980   34.5560   37.4670 C   0  0  0  0  0  0  0  0  0  0  0  0
   43.3260   34.3900   40.7900 S   0  0  0  0  0  0  0  0  0  0  0  0
   44.7350   34.4680   41.8960 C   0  0  0  0  0  0  0  0  0  0  0  0
   45.9780   34.7260   41.2880 C   0  0  0  0  0  0  0  0  0  0  0  0
   47.1070   34.7980   42.0980 C   0  0  0  0  0  0  0  0  0  0  0  0
   46.9530   34.6170   43.4300 N   0  0  0  0  0  0  0  0  0  0  0  0
   45.7420   34.3680   44.0050 C   0  0  0  0  0  0  0  0  0  0  0  0
   44.6760   34.3040   43.2140 N   0  0  0  0  0  0  0  0  0  0  0  0
   45.7080   34.1940   45.4310 C   0  0  0  0  0  0  0  0  0  0  0  0
   44.7520   34.7280   46.0570 O   0  0  0  0  0  0  0  0  0  0  0  0
   46.7570   33.4320   46.0400 N   0  0  0  0  0  0  0  0  0  0  0  0
   48.4190   35.0650   41.4960 C   0  0  0  0  0  0  0  0  0  0  0  0
   48.9050   36.3120   41.8650 F   0  0  0  0  0  0  0  0  0  0  0  0
   49.3310   34.0690   41.7610 F   0  0  0  0  0  0  0  0  0  0  0  0
   48.2280   35.0800   40.1100 F   0  0  0  0  0  0  0  0  0  0  0  0
   42.0860   35.5098   42.5027 H   0  0  0  0  0  0  0  0  0  0  0  0
   41.1743   34.1135   41.7513 H   0  0  0  0  0  0  0  0  0  0  0  0
   40.3727   36.5245   41.3706 H   0  0  0  0  0  0  0  0  0  0  0  0
   41.7421   36.5713   40.1843 H   0  0  0  0  0  0  0  0  0  0  0  0
   38.8664   34.4005   41.1448 H   0  0  0  0  0  0  0  0  0  0  0  0
   37.4291   33.1688   39.5698 H   0  0  0  0  0  0  0  0  0  0  0  0
   39.9323   34.5954   36.3930 H   0  0  0  0  0  0  0  0  0  0  0  0
   46.0549   34.8672   40.1998 H   0  0  0  0  0  0  0  0  0  0  0  0
   46.7634   33.2877   47.0598 H   0  0  0  0  0  0  0  0  0  0  0  0
   47.5049   33.0284   45.4581 H   0  0  0  0  0  0  0  0  0  0  0  0
  2  1  1  0
  3  4  1  0
  4  5  2  0
  5  6  1  0
  5  2  1  0
  7  6  2  0
  8  7  1  0
  9  8  1  0
 10  8  2  0
 10  4  1  0
 11  1  1  0
 11 12  1  0
 12 17  1  0
 13 12  2  0
 13 14  1  0
 14 15  2  0
 15 16  1  0
 16 18  1  0
 17 16  2  0
 18 20  1  0
 18 19  2  0
 21 23  1  0
 21 22  1  0
 21 14  1  0
 24 21  1  0
  1 25  1  0
  1 26  1  0
  2 27  1  0
  2 28  1  0
  6 29  1  0
  7 30  1  0
 10 31  1  0
 13 32  1  0
 20 33  1  0
 20 34  1  0
M  ISO  8  25   8  26   8  27   8  28   8  29  14  30  14  31  14  32  14
M  END
>  <minimizedAffinity>  (1) 
-7.13760805

>  <minimizedRMSD>  (1) 
0.645318747

$$$$
