
     RDKit          3D

 38 40  0  0  0  0  0  0  0  0999 V2000
   45.1040   34.5050   42.2950 C   0  0  0  0  0  0  0  0  0  0  0  0
   46.4080   34.1760   41.9260 C   0  0  0  0  0  0  0  0  0  0  0  0
   47.3370   33.8550   42.9310 C   0  0  0  0  0  0  0  0  0  0  0  0
   46.8960   33.8870   44.2040 N   0  0  0  0  0  0  0  0  0  0  0  0
   45.6320   34.2060   44.5420 C   0  0  0  0  0  0  0  0  0  0  0  0
   44.7650   34.5080   43.5830 N   0  0  0  0  0  0  0  0  0  0  0  0
   48.7150   33.5030   42.6080 C   0  0  0  0  0  0  0  0  0  0  0  0
   49.7690   34.3900   42.6750 C   0  0  0  0  0  0  0  0  0  0  0  0
   50.8540   33.5980   42.2810 C   0  0  0  0  0  0  0  0  0  0  0  0
   50.4040   32.3070   42.0040 C   0  0  0  0  0  0  0  0  0  0  0  0
   49.1040   32.3220   42.2230 O   0  0  0  0  0  0  0  0  0  0  0  0
   45.2870   34.2020   45.9510 C   0  0  0  0  0  0  0  0  0  0  0  0
   44.4070   34.9970   46.3450 O   0  0  0  0  0  0  0  0  0  0  0  0
   45.9920   33.2730   46.7960 N   0  0  0  0  0  0  0  0  0  0  0  0
   43.9900   34.9030   40.9580 S   0  0  0  0  0  0  0  0  0  0  0  0
   42.2610   34.7650   41.4290 C   0  0  0  0  0  0  0  0  0  0  0  0
   41.3720   35.7810   40.7980 C   0  0  0  0  0  0  0  0  0  0  0  0
   42.0890   36.0280   37.8590 Cl  0  0  0  0  0  0  0  0  0  0  0  0
   40.6830   35.2080   38.4540 C   0  0  0  0  0  0  0  0  0  0  0  0
   40.4490   35.1550   39.8320 C   0  0  0  0  0  0  0  0  0  0  0  0
   39.3100   34.4840   40.2270 C   0  0  0  0  0  0  0  0  0  0  0  0
   38.3800   33.8630   39.4000 C   0  0  0  0  0  0  0  0  0  0  0  0
   38.6490   33.9390   38.0460 C   0  0  0  0  0  0  0  0  0  0  0  0
   37.5290   33.1810   36.9140 Cl  0  0  0  0  0  0  0  0  0  0  0  0
   39.7710   34.5940   37.5920 C   0  0  0  0  0  0  0  0  0  0  0  0
   46.7045   34.1678   40.8667 H   0  0  0  0  0  0  0  0  0  0  0  0
   49.7595   35.4511   42.9647 H   0  0  0  0  0  0  0  0  0  0  0  0
   51.8966   33.9397   42.2023 H   0  0  0  0  0  0  0  0  0  0  0  0
   51.0099   31.4514   41.6710 H   0  0  0  0  0  0  0  0  0  0  0  0
   45.7826   33.2322   47.8037 H   0  0  0  0  0  0  0  0  0  0  0  0
   46.7056   32.6493   46.3927 H   0  0  0  0  0  0  0  0  0  0  0  0
   41.9033   33.7661   41.1388 H   0  0  0  0  0  0  0  0  0  0  0  0
   42.2150   34.9360   42.5146 H   0  0  0  0  0  0  0  0  0  0  0  0
   40.7853   36.2814   41.5825 H   0  0  0  0  0  0  0  0  0  0  0  0
   41.9993   36.5074   40.2605 H   0  0  0  0  0  0  0  0  0  0  0  0
   39.1173   34.4351   41.3089 H   0  0  0  0  0  0  0  0  0  0  0  0
   37.4925   33.3474   39.7956 H   0  0  0  0  0  0  0  0  0  0  0  0
   39.9569   34.6357   36.5086 H   0  0  0  0  0  0  0  0  0  0  0  0
  1  6  1  0
  2  1  2  0
  2  3  1  0
  3  4  2  0
  4  5  1  0
  5 12  1  0
  6  5  2  0
  7  8  2  0
  7  3  1  0
  9  8  1  0
 10 11  1  0
 10  9  2  0
 11  7  1  0
 12 13  2  0
 12 14  1  0
 15 16  1  0
 15  1  1  0
 17 16  1  0
 18 19  1  0
 19 20  2  0
 20 21  1  0
 20 17  1  0
 22 21  2  0
 23 22  1  0
 24 23  1  0
 25 23  2  0
 25 19  1  0
  2 26  1  0
  8 27  1  0
  9 28  1  0
 10 29  1  0
 14 30  1  0
 14 31  1  0
 16 32  1  0
 16 33  1  0
 17 34  1  0
 17 35  1  0
 21 36  1  0
 22 37  1  0
 25 38  1  0
M  ISO  8  26  14  27  14  28  14  29  14  32   8  33   8  34   8  35   8
M  ISO  3  36  14  37  14  38  14
M  END
>  <minimizedAffinity>  (1) 
-6.9875741

>  <minimizedRMSD>  (1) 
0.656900823

$$$$
