
     RDKit          3D

 22 23  0  0  0  0  0  0  0  0999 V2000
   46.2380   32.6630   46.6240 C   0  0  0  0  0  0  0  0  0  0  0  0
   47.1420   31.6370   46.7020 C   0  0  0  0  0  0  0  0  0  0  0  0
   47.2360   30.8370   47.8370 C   0  0  0  0  0  0  0  0  0  0  0  0
   46.4140   31.0640   48.9170 C   0  0  0  0  0  0  0  0  0  0  0  0
   45.5060   32.0810   48.8630 C   0  0  0  0  0  0  0  0  0  0  0  0
   45.4390   32.8540   47.7250 C   0  0  0  0  0  0  0  0  0  0  0  0
   44.9850   35.1860   44.2970 C   0  0  0  0  0  0  0  0  0  0  0  0
   45.8750   35.1230   43.2170 C   0  0  0  0  0  0  0  0  0  0  0  0
   46.9340   34.1880   43.2890 C   0  0  0  0  0  0  0  0  0  0  0  0
   47.0410   33.3990   44.3960 N   0  0  0  0  0  0  0  0  0  0  0  0
   46.1520   33.4940   45.4250 C   0  0  0  0  0  0  0  0  0  0  0  0
   45.1230   34.3890   45.3720 N   0  0  0  0  0  0  0  0  0  0  0  0
   44.4730   33.9030   47.7210 N   0  0  0  0  0  0  0  0  0  0  0  0
   47.8083   31.4410   45.8490 H   0  0  0  0  0  0  0  0  0  0  0  0
   47.9710   30.0193   47.8709 H   0  0  0  0  0  0  0  0  0  0  0  0
   46.4882   30.4322   49.8144 H   0  0  0  0  0  0  0  0  0  0  0  0
   44.8385   32.2803   49.7143 H   0  0  0  0  0  0  0  0  0  0  0  0
   44.1529   35.9048   44.2653 H   0  0  0  0  0  0  0  0  0  0  0  0
   45.7543   35.7788   42.3421 H   0  0  0  0  0  0  0  0  0  0  0  0
   47.6587   34.0989   42.4662 H   0  0  0  0  0  0  0  0  0  0  0  0
   43.8708   34.0516   48.5433 H   0  0  0  0  0  0  0  0  0  0  0  0
   44.3775   34.5120   46.8959 H   0  0  0  0  0  0  0  0  0  0  0  0
  1  2  2  0
  1  6  1  0
  2  3  1  0
  3  4  2  0
  5  4  1  0
  6  5  2  0
  7 12  2  0
  8  9  2  0
  8  7  1  0
  9 10  1  0
 10 11  2  0
 11  1  1  0
 12 11  1  0
 13  6  1  0
  2 14  1  0
  3 15  1  0
  4 16  1  0
  5 17  1  0
  7 18  1  0
  8 19  1  0
  9 20  1  0
 13 21  1  0
 13 22  1  0
M  ISO  7  14  14  15  14  16  14  17  14  18  14  19  14  20  14
M  END
>  <minimizedAffinity>  (1) 
-5.22197676

>  <minimizedRMSD>  (1) 
0.694397748

$$$$
