
     RDKit          3D

 21 22  0  0  0  0  0  0  0  0999 V2000
   46.6290   34.0620   43.6460 C   0  0  0  0  0  0  0  0  0  0  0  0
   47.1220   33.0520   44.4550 C   0  0  0  0  0  0  0  0  0  0  0  0
   46.5850   32.8310   45.7100 C   0  0  0  0  0  0  0  0  0  0  0  0
   45.5580   33.5940   46.2030 C   0  0  0  0  0  0  0  0  0  0  0  0
   45.0630   34.5950   45.4150 C   0  0  0  0  0  0  0  0  0  0  0  0
   45.5900   34.8190   44.1640 C   0  0  0  0  0  0  0  0  0  0  0  0
   47.1300   33.8000   40.0380 C   0  0  0  0  0  0  0  0  0  0  0  0
   48.1890   34.7020   39.7940 C   0  0  0  0  0  0  0  0  0  0  0  0
   48.7350   35.4030   40.8720 C   0  0  0  0  0  0  0  0  0  0  0  0
   48.2040   35.1680   42.0950 N   0  0  0  0  0  0  0  0  0  0  0  0
   47.1900   34.3020   42.3150 C   0  0  0  0  0  0  0  0  0  0  0  0
   46.6470   33.6120   41.2800 N   0  0  0  0  0  0  0  0  0  0  0  0
   44.8980   36.1550   43.1650 S   0  0  0  0  0  0  0  0  0  0  0  0
   47.9478   32.4201   44.0962 H   0  0  0  0  0  0  0  0  0  0  0  0
   46.9935   32.0198   46.3306 H   0  0  0  0  0  0  0  0  0  0  0  0
   45.1441   33.4058   47.2046 H   0  0  0  0  0  0  0  0  0  0  0  0
   44.2393   35.2246   45.7827 H   0  0  0  0  0  0  0  0  0  0  0  0
   46.6921   33.2411   39.1978 H   0  0  0  0  0  0  0  0  0  0  0  0
   48.5763   34.8497   38.7751 H   0  0  0  0  0  0  0  0  0  0  0  0
   49.5613   36.1157   40.7330 H   0  0  0  0  0  0  0  0  0  0  0  0
   44.3944   37.1272   43.9885 H   0  0  0  0  0  0  0  0  0  0  0  0
  1  6  1  0
  1  2  2  0
  2  3  1  0
  3  4  2  0
  5  4  1  0
  6  5  2  0
  7 12  2  0
  8  7  1  0
  8  9  2  0
  9 10  1  0
 10 11  2  0
 11  1  1  0
 12 11  1  0
 13  6  1  0
  2 14  1  0
  3 15  1  0
  4 16  1  0
  5 17  1  0
  7 18  1  0
  8 19  1  0
  9 20  1  0
 13 21  1  0
M  ISO  8  14  14  15  14  16  14  17  14  18  14  19  14  20  14  21  11
M  END
>  <minimizedAffinity>  (1) 
-4.27548885

>  <minimizedRMSD>  (1) 
4.34576797

$$$$
