
     RDKit          3D

 45 47  0  0  1  0  0  0  0  0999 V2000
   44.0180   33.5670   42.1700 C   0  0  1  0  0  0  0  0  0  0  0  0
   43.3740   34.9610   42.3670 C   0  0  0  0  0  0  0  0  0  0  0  0
   42.2510   35.0550   41.3810 C   0  0  0  0  0  0  0  0  0  0  0  0
   42.9280   35.1980   40.0280 C   0  0  0  0  0  0  0  0  0  0  0  0
   43.8300   34.1000   39.7540 C   0  0  0  0  0  0  0  0  0  0  0  0
   44.7080   33.5140   40.9040 C   0  0  1  0  0  0  0  0  0  0  0  0
   46.1970   33.8770   45.3310 C   0  0  0  0  0  0  0  0  0  0  0  0
   45.2340   34.1840   44.3920 C   0  0  0  0  0  0  0  0  0  0  0  0
   44.9960   33.3640   43.2830 C   0  0  0  0  0  0  0  0  0  0  0  0
   45.7680   32.2780   43.2120 N   0  0  0  0  0  0  0  0  0  0  0  0
   46.7020   31.9560   44.0950 C   0  0  0  0  0  0  0  0  0  0  0  0
   46.9290   32.7630   45.1800 N   0  0  0  0  0  0  0  0  0  0  0  0
   45.8760   34.2760   40.9430 O   0  0  0  0  0  0  0  0  0  0  0  0
   46.7750   33.8480   40.0280 C   0  0  0  0  0  0  0  0  0  0  0  0
   48.1420   33.8700   40.3210 N   0  0  0  0  0  0  0  0  0  0  0  0
   48.7250   35.1570   40.2280 C   0  0  0  0  0  0  0  0  0  0  0  0
   48.8930   35.7910   41.5830 C   0  0  0  0  0  0  0  0  0  0  0  0
   49.1450   34.7260   42.6510 C   0  0  0  0  0  0  0  0  0  0  0  0
   49.7840   33.5520   41.9870 C   0  0  0  0  0  0  0  0  0  0  0  0
   48.7530   32.8800   41.0680 C   0  0  0  0  0  0  0  0  0  0  0  0
   43.2465   32.7829   42.1764 H   0  0  0  0  0  0  0  0  0  0  0  0
   42.9883   35.0597   43.3924 H   0  0  0  0  0  0  0  0  0  0  0  0
   44.1091   35.7641   42.2097 H   0  0  0  0  0  0  0  0  0  0  0  0
   41.6334   34.1452   41.4103 H   0  0  0  0  0  0  0  0  0  0  0  0
   41.5791   35.8983   41.5985 H   0  0  0  0  0  0  0  0  0  0  0  0
   42.1553   35.2265   39.2456 H   0  0  0  0  0  0  0  0  0  0  0  0
   43.5173   36.1268   40.0396 H   0  0  0  0  0  0  0  0  0  0  0  0
   43.2169   33.2725   39.3677 H   0  0  0  0  0  0  0  0  0  0  0  0
   44.5682   34.5405   39.0677 H   0  0  0  0  0  0  0  0  0  0  0  0
   44.9332   32.4536   40.7173 H   0  0  0  0  0  0  0  0  0  0  0  0
   46.3628   34.5385   46.1941 H   0  0  0  0  0  0  0  0  0  0  0  0
   44.6365   35.0989   44.5185 H   0  0  0  0  0  0  0  0  0  0  0  0
   47.2959   31.0403   43.9574 H   0  0  0  0  0  0  0  0  0  0  0  0
   46.6335   34.4687   39.1309 H   0  0  0  0  0  0  0  0  0  0  0  0
   46.5542   32.7737   39.9433 H   0  0  0  0  0  0  0  0  0  0  0  0
   49.7123   35.0676   39.7513 H   0  0  0  0  0  0  0  0  0  0  0  0
   48.0558   35.7945   39.6316 H   0  0  0  0  0  0  0  0  0  0  0  0
   49.7477   36.4829   41.5544 H   0  0  0  0  0  0  0  0  0  0  0  0
   47.9704   36.3340   41.8360 H   0  0  0  0  0  0  0  0  0  0  0  0
   49.8139   35.1261   43.4272 H   0  0  0  0  0  0  0  0  0  0  0  0
   48.1986   34.4289   43.1264 H   0  0  0  0  0  0  0  0  0  0  0  0
   50.6459   33.8880   41.3919 H   0  0  0  0  0  0  0  0  0  0  0  0
   50.1296   32.8357   42.7469 H   0  0  0  0  0  0  0  0  0  0  0  0
   48.0020   32.3506   41.6727 H   0  0  0  0  0  0  0  0  0  0  0  0
   49.2452   32.1502   40.4083 H   0  0  0  0  0  0  0  0  0  0  0  0
  1  2  1  0
  1  9  1  0
  3  2  1  0
  4  3  1  0
  5  4  1  0
  5  6  1  0
  6 13  1  0
  6  1  1  0
  8  7  2  0
  9  8  1  0
 10  9  2  0
 10 11  1  0
 11 12  2  0
 12  7  1  0
 14 15  1  0
 14 13  1  0
 15 20  1  0
 16 15  1  0
 16 17  1  0
 17 18  1  0
 19 18  1  0
 20 19  1  0
  1 21  1  6
  2 22  1  0
  2 23  1  0
  3 24  1  0
  3 25  1  0
  4 26  1  0
  4 27  1  0
  5 28  1  0
  5 29  1  0
  6 30  1  6
  7 31  1  0
  8 32  1  0
 11 33  1  0
 14 34  1  0
 14 35  1  0
 16 36  1  0
 16 37  1  0
 17 38  1  0
 17 39  1  0
 18 40  1  0
 18 41  1  0
 19 42  1  0
 19 43  1  0
 20 44  1  0
 20 45  1  0
M  ISO  8  21  13  22  13  23  13  24  13  25  13  26  13  27  13  28  13
M  ISO  8  29  13  30  13  31  14  32  14  33  14  34   8  35   8  36  13
M  ISO  8  37  13  38  13  39  13  40  13  41  13  42  13  43  13  44  13
M  ISO  1  45  13
M  END
>  <minimizedAffinity>  (1) 
-4.68199682

>  <minimizedRMSD>  (1) 
3.61071563

$$$$
