
     RDKit          3D

 32 33  0  0  1  0  0  0  0  0999 V2000
   46.1360   33.3710   42.0920 C   0  0  1  0  0  0  0  0  0  0  0  0
   45.9330   34.2730   40.8500 C   0  0  0  0  0  0  0  0  0  0  0  0
   46.2800   33.4380   39.6560 C   0  0  0  0  0  0  0  0  0  0  0  0
   47.7930   33.2800   39.7090 C   0  0  0  0  0  0  0  0  0  0  0  0
   48.2340   32.6920   40.9570 C   0  0  0  0  0  0  0  0  0  0  0  0
   47.5440   33.1200   42.2870 C   0  0  1  0  0  0  0  0  0  0  0  0
   44.5840   35.9460   44.5010 C   0  0  0  0  0  0  0  0  0  0  0  0
   45.0040   35.3890   43.3120 C   0  0  0  0  0  0  0  0  0  0  0  0
   45.5990   34.1130   43.2750 C   0  0  0  0  0  0  0  0  0  0  0  0
   45.7160   33.5110   44.4620 N   0  0  0  0  0  0  0  0  0  0  0  0
   45.3190   34.0310   45.6130 C   0  0  0  0  0  0  0  0  0  0  0  0
   44.7410   35.2700   45.6480 N   0  0  0  0  0  0  0  0  0  0  0  0
   48.2050   34.2730   42.7300 O   0  0  0  0  0  0  0  0  0  0  0  0
   49.5730   34.0250   42.7070 C   0  0  0  0  0  0  0  0  0  0  0  0
   50.1800   35.3210   43.0620 N   0  0  0  0  0  0  0  0  0  0  0  0
   45.6196   32.4087   41.9605 H   0  0  0  0  0  0  0  0  0  0  0  0
   44.8864   34.6062   40.7894 H   0  0  0  0  0  0  0  0  0  0  0  0
   46.5649   35.1718   40.9038 H   0  0  0  0  0  0  0  0  0  0  0  0
   45.9770   33.9457   38.7284 H   0  0  0  0  0  0  0  0  0  0  0  0
   45.7635   32.4669   39.6679 H   0  0  0  0  0  0  0  0  0  0  0  0
   48.1116   32.6322   38.8791 H   0  0  0  0  0  0  0  0  0  0  0  0
   48.2421   34.2809   39.6277 H   0  0  0  0  0  0  0  0  0  0  0  0
   48.1030   31.6039   40.8631 H   0  0  0  0  0  0  0  0  0  0  0  0
   49.2649   33.0592   41.0682 H   0  0  0  0  0  0  0  0  0  0  0  0
   47.6117   32.3164   43.0351 H   0  0  0  0  0  0  0  0  0  0  0  0
   44.1207   36.9437   44.5086 H   0  0  0  0  0  0  0  0  0  0  0  0
   44.8721   35.9510   42.3757 H   0  0  0  0  0  0  0  0  0  0  0  0
   45.4547   33.4638   46.5457 H   0  0  0  0  0  0  0  0  0  0  0  0
   49.8423   33.2531   43.4430 H   0  0  0  0  0  0  0  0  0  0  0  0
   49.9176   33.6507   41.7318 H   0  0  0  0  0  0  0  0  0  0  0  0
   50.2222   35.4110   44.0872 H   0  0  0  0  0  0  0  0  0  0  0  0
   51.1325   35.3719   42.6734 H   0  0  0  0  0  0  0  0  0  0  0  0
  1  6  1  0
  1  9  1  0
  2  1  1  0
  3  4  1  0
  3  2  1  0
  4  5  1  0
  5  6  1  0
  6 13  1  0
  7 12  2  0
  8  7  1  0
  9  8  2  0
  9 10  1  0
 10 11  2  0
 11 12  1  0
 14 13  1  0
 14 15  1  0
  1 16  1  6
  2 17  1  0
  2 18  1  0
  3 19  1  0
  3 20  1  0
  4 21  1  0
  4 22  1  0
  5 23  1  0
  5 24  1  0
  6 25  1  1
  7 26  1  0
  8 27  1  0
 11 28  1  0
 14 29  1  0
 14 30  1  0
 15 31  1  0
 15 32  1  0
M  ISO  8  16  13  17  13  18  13  19  13  20  13  21  13  22  13  23  13
M  ISO  8  24  13  25  13  26  14  27  14  28  14  29   8  30   8  31   5
M  ISO  1  32   5
M  END
>  <minimizedAffinity>  (1) 
-4.64782333

>  <minimizedRMSD>  (1) 
0.532988966

$$$$
