
     RDKit          3D

 31 32  0  0  0  0  0  0  0  0999 V2000
   45.7300   34.1410   45.2250 C   0  0  0  0  0  0  0  0  0  0  0  0
   44.7200   35.0410   45.3660 C   0  0  0  0  0  0  0  0  0  0  0  0
   44.3860   36.0120   44.4400 C   0  0  0  0  0  0  0  0  0  0  0  0
   45.1190   36.0860   43.2870 C   0  0  0  0  0  0  0  0  0  0  0  0
   46.1450   35.1970   43.1060 C   0  0  0  0  0  0  0  0  0  0  0  0
   46.4520   34.2370   44.0550 C   0  0  0  0  0  0  0  0  0  0  0  0
   47.3730   31.3390   46.9100 C   0  0  0  0  0  0  0  0  0  0  0  0
   46.6650   31.2270   48.1060 C   0  0  0  0  0  0  0  0  0  0  0  0
   45.6250   32.1130   48.3330 C   0  0  0  0  0  0  0  0  0  0  0  0
   45.3160   33.0620   47.4010 N   0  0  0  0  0  0  0  0  0  0  0  0
   46.0270   33.1500   46.2360 C   0  0  0  0  0  0  0  0  0  0  0  0
   47.0370   32.2840   46.0220 N   0  0  0  0  0  0  0  0  0  0  0  0
   47.5350   33.4040   43.7130 N   0  0  0  0  0  0  0  0  0  0  0  0
   48.9360   33.6460   42.7590 S   0  0  0  0  0  0  0  0  0  0  0  0
   48.4800   33.9420   41.3290 O   0  0  0  0  0  0  0  0  0  0  0  0
   49.8080   34.7480   43.2080 O   0  0  0  0  0  0  0  0  0  0  0  0
   49.7140   32.1550   42.6680 O   0  0  0  0  0  0  0  0  0  0  0  0
   50.8380   32.2100   41.8650 C   0  0  0  0  0  0  0  0  0  0  0  0
   51.4380   33.4490   42.1140 F   0  0  0  0  0  0  0  0  0  0  0  0
   50.4650   32.2610   40.5160 F   0  0  0  0  0  0  0  0  0  0  0  0
   51.7690   31.2480   42.1130 F   0  0  0  0  0  0  0  0  0  0  0  0
   44.1225   34.9926   46.2883 H   0  0  0  0  0  0  0  0  0  0  0  0
   43.5533   36.7064   44.6253 H   0  0  0  0  0  0  0  0  0  0  0  0
   44.8893   36.8427   42.5224 H   0  0  0  0  0  0  0  0  0  0  0  0
   46.7406   35.2471   42.1825 H   0  0  0  0  0  0  0  0  0  0  0  0
   48.2057   30.6528   46.6961 H   0  0  0  0  0  0  0  0  0  0  0  0
   46.9249   30.4573   48.8477 H   0  0  0  0  0  0  0  0  0  0  0  0
   45.0464   32.0521   49.2665 H   0  0  0  0  0  0  0  0  0  0  0  0
   47.4714   32.4592   44.1183 H   0  0  0  0  0  0  0  0  0  0  0  0
   47.6498   34.4809   41.3522 H   0  0  0  0  0  0  0  0  0  0  0  0
   49.8268   34.7717   44.1975 H   0  0  0  0  0  0  0  0  0  0  0  0
  1  2  2  0
  1 11  1  0
  3  2  1  0
  4  3  2  0
  5  4  1  0
  5  6  2  0
  6  1  1  0
  7  8  2  0
  8  9  1  0
 10  9  2  0
 11 10  1  0
 12 11  2  0
 12  7  1  0
 13  6  1  0
 14 16  1  0
 14 13  1  0
 15 14  1  0
 17 14  1  0
 18 21  1  0
 18 19  1  0
 18 17  1  0
 20 18  1  0
  2 22  1  0
  3 23  1  0
  4 24  1  0
  5 25  1  0
  7 26  1  0
  8 27  1  0
  9 28  1  0
 13 29  1  0
 15 30  1  0
 16 31  1  0
M  ISO  8  22  14  23  14  24  14  25  14  26  14  27  14  28  14  30   3
M  ISO  1  31   3
M  END
>  <minimizedAffinity>  (1) 
-5.81197548

>  <minimizedRMSD>  (1) 
1.86075199

$$$$
