
     RDKit          3D

 41 43  0  0  0  0  0  0  0  0999 V2000
   47.5100   33.3500   43.4210 N   0  0  0  0  0  0  0  0  0  0  0  0
   45.7810   34.0910   45.0110 C   0  0  0  0  0  0  0  0  0  0  0  0
   44.8010   35.0310   45.2170 C   0  0  0  0  0  0  0  0  0  0  0  0
   44.4770   36.0390   44.3500 C   0  0  0  0  0  0  0  0  0  0  0  0
   45.1830   36.1340   43.1680 C   0  0  0  0  0  0  0  0  0  0  0  0
   46.1730   35.2190   42.9160 C   0  0  0  0  0  0  0  0  0  0  0  0
   46.4670   34.2080   43.8280 C   0  0  0  0  0  0  0  0  0  0  0  0
   47.3000   31.1060   46.4780 C   0  0  0  0  0  0  0  0  0  0  0  0
   46.6920   31.0240   47.7360 C   0  0  0  0  0  0  0  0  0  0  0  0
   45.7550   32.0060   48.0730 C   0  0  0  0  0  0  0  0  0  0  0  0
   45.4610   32.9990   47.1920 N   0  0  0  0  0  0  0  0  0  0  0  0
   46.0720   33.0480   45.9710 C   0  0  0  0  0  0  0  0  0  0  0  0
   46.9730   32.0990   45.6560 N   0  0  0  0  0  0  0  0  0  0  0  0
   48.9850   33.6210   42.5960 S   0  0  0  0  0  0  0  0  0  0  0  0
   48.6660   34.0220   41.1670 O   0  0  0  0  0  0  0  0  0  0  0  0
   49.8460   34.6680   43.2100 O   0  0  0  0  0  0  0  0  0  0  0  0
   49.7540   32.1240   42.4940 O   0  0  0  0  0  0  0  0  0  0  0  0
   49.6740   30.8140   40.4110 C   0  0  0  0  0  0  0  0  0  0  0  0
   50.2980   31.6130   41.3490 C   0  0  0  0  0  0  0  0  0  0  0  0
   51.6270   31.9340   41.1080 C   0  0  0  0  0  0  0  0  0  0  0  0
   52.2870   31.4740   39.9810 C   0  0  0  0  0  0  0  0  0  0  0  0
   51.6200   30.6740   39.0640 C   0  0  0  0  0  0  0  0  0  0  0  0
   50.2900   30.3360   39.2810 C   0  0  0  0  0  0  0  0  0  0  0  0
   48.0020   30.4130   40.7200 S   0  0  0  0  0  0  0  0  0  0  0  0
   47.5930   29.2370   39.8490 O   0  0  0  0  0  0  0  0  0  0  0  0
   47.1040   31.5570   40.3190 O   0  0  0  0  0  0  0  0  0  0  0  0
   47.3525   32.3631   43.6701 H   0  0  0  0  0  0  0  0  0  0  0  0
   44.2301   34.9685   46.1552 H   0  0  0  0  0  0  0  0  0  0  0  0
   43.6758   36.7539   44.5887 H   0  0  0  0  0  0  0  0  0  0  0  0
   44.9560   36.9285   42.4419 H   0  0  0  0  0  0  0  0  0  0  0  0
   46.7443   35.2846   41.9783 H   0  0  0  0  0  0  0  0  0  0  0  0
   48.0427   30.3547   46.1715 H   0  0  0  0  0  0  0  0  0  0  0  0
   46.9429   30.2139   48.4365 H   0  0  0  0  0  0  0  0  0  0  0  0
   45.2551   31.9750   49.0523 H   0  0  0  0  0  0  0  0  0  0  0  0
   48.0497   34.7967   41.1714 H   0  0  0  0  0  0  0  0  0  0  0  0
   49.7923   34.6027   44.1964 H   0  0  0  0  0  0  0  0  0  0  0  0
   52.1670   32.5671   41.8274 H   0  0  0  0  0  0  0  0  0  0  0  0
   53.3403   31.7428   39.8125 H   0  0  0  0  0  0  0  0  0  0  0  0
   52.1428   30.3085   38.1679 H   0  0  0  0  0  0  0  0  0  0  0  0
   49.7449   29.7021   38.5662 H   0  0  0  0  0  0  0  0  0  0  0  0
   47.8802   30.1318   42.0553 H   0  0  0  0  0  0  0  0  0  0  0  0
  1  7  1  0
  2  3  2  0
  2 12  1  0
  4  3  1  0
  5  4  2  0
  6  5  1  0
  6  7  2  0
  7  2  1  0
  8  9  2  0
  9 10  1  0
 11 10  2  0
 12 11  1  0
 13 12  2  0
 13  8  1  0
 14 16  1  0
 14  1  1  0
 15 14  1  0
 17 14  1  0
 18 24  1  0
 18 19  2  0
 19 17  1  0
 20 19  1  0
 21 20  2  0
 22 23  2  0
 22 21  1  0
 23 18  1  0
 25 24  2  0
 26 24  2  0
  1 27  1  0
  3 28  1  0
  4 29  1  0
  5 30  1  0
  6 31  1  0
  8 32  1  0
  9 33  1  0
 10 34  1  0
 15 35  1  0
 16 36  1  0
 20 37  1  0
 21 38  1  0
 22 39  1  0
 23 40  1  0
 24 41  1  0
M  ISO  8  28  14  29  14  30  14  31  14  32  14  33  14  34  14  35   3
M  ISO  6  36   3  37  14  38  14  39  14  40  14  41  11
M  END
>  <minimizedAffinity>  (1) 
-5.61733055

>  <minimizedRMSD>  (1) 
2.60800648

$$$$
