
     RDKit          3D

 30 31  0  0  0  0  0  0  0  0999 V2000
   46.3580   33.6980   44.7490 C   0  0  0  0  0  0  0  0  0  0  0  0
   45.1890   34.3600   44.9580 C   0  0  0  0  0  0  0  0  0  0  0  0
   44.7000   35.3580   44.1550 C   0  0  0  0  0  0  0  0  0  0  0  0
   45.4370   35.7290   43.0490 C   0  0  0  0  0  0  0  0  0  0  0  0
   46.6070   35.0880   42.8150 C   0  0  0  0  0  0  0  0  0  0  0  0
   47.0800   34.0790   43.6450 C   0  0  0  0  0  0  0  0  0  0  0  0
   47.6320   30.4530   45.8750 C   0  0  0  0  0  0  0  0  0  0  0  0
   47.7250   30.5980   47.2590 C   0  0  0  0  0  0  0  0  0  0  0  0
   47.3450   31.8220   47.8080 C   0  0  0  0  0  0  0  0  0  0  0  0
   46.9010   32.8300   46.9930 N   0  0  0  0  0  0  0  0  0  0  0  0
   46.8270   32.6420   45.6420 C   0  0  0  0  0  0  0  0  0  0  0  0
   47.1940   31.4620   45.1200 N   0  0  0  0  0  0  0  0  0  0  0  0
   48.3180   33.5190   43.2510 N   0  0  0  0  0  0  0  0  0  0  0  0
   49.6980   34.1810   42.5110 S   0  0  0  0  0  0  0  0  0  0  0  0
   49.3560   34.5170   41.0670 O   0  0  0  0  0  0  0  0  0  0  0  0
   50.2420   35.3960   43.1840 O   0  0  0  0  0  0  0  0  0  0  0  0
   50.8470   32.9380   42.4290 O   0  0  0  0  0  0  0  0  0  0  0  0
   50.3430   31.6850   42.1040 C   0  0  0  0  0  0  0  0  0  0  0  0
   49.4850   31.6230   41.1710 O   0  0  0  0  0  0  0  0  0  0  0  0
   44.5914   34.0738   45.8361 H   0  0  0  0  0  0  0  0  0  0  0  0
   43.7441   35.8506   44.3866 H   0  0  0  0  0  0  0  0  0  0  0  0
   45.0839   36.5238   42.3756 H   0  0  0  0  0  0  0  0  0  0  0  0
   47.2037   35.3763   41.9370 H   0  0  0  0  0  0  0  0  0  0  0  0
   47.9212   29.5021   45.4036 H   0  0  0  0  0  0  0  0  0  0  0  0
   48.0853   29.7759   47.8949 H   0  0  0  0  0  0  0  0  0  0  0  0
   47.4016   31.9784   48.8953 H   0  0  0  0  0  0  0  0  0  0  0  0
   48.3992   32.5121   43.4520 H   0  0  0  0  0  0  0  0  0  0  0  0
   48.6499   35.2107   41.0479 H   0  0  0  0  0  0  0  0  0  0  0  0
   50.1903   35.2804   44.1659 H   0  0  0  0  0  0  0  0  0  0  0  0
   50.6750   30.7808   42.6352 H   0  0  0  0  0  0  0  0  0  0  0  0
  1  2  2  0
  1 11  1  0
  3  2  1  0
  4  3  2  0
  5  4  1  0
  5  6  2  0
  6  1  1  0
  7  8  2  0
  8  9  1  0
 10  9  2  0
 11 10  1  0
 12 11  2  0
 12  7  1  0
 13  6  1  0
 14 16  1  0
 14 13  1  0
 15 14  1  0
 17 14  1  0
 18 17  1  0
 19 18  2  0
  2 20  1  0
  3 21  1  0
  4 22  1  0
  5 23  1  0
  7 24  1  0
  8 25  1  0
  9 26  1  0
 13 27  1  0
 15 28  1  0
 16 29  1  0
 18 30  1  0
M  ISO  8  20  14  21  14  22  14  23  14  24  14  25  14  26  14  28   3
M  ISO  2  29   3  30   6
M  END
>  <minimizedAffinity>  (1) 
-5.5420413

>  <minimizedRMSD>  (1) 
2.05185342

$$$$
