
     RDKit          3D

 36 38  0  0  1  0  0  0  0  0999 V2000
   46.6040   33.1000   45.3260 C   0  0  2  0  0  0  0  0  0  0  0  0
   46.8360   33.1590   43.8350 C   0  0  1  0  0  0  0  0  0  0  0  0
   46.6780   31.7910   43.4340 O   0  0  0  0  0  0  0  0  0  0  0  0
   47.6350   31.2420   44.3180 C   0  0  0  0  0  0  0  0  0  0  0  0
   47.0270   31.6590   45.6530 C   0  0  2  0  0  0  0  0  0  0  0  0
   44.8260   36.1110   43.0100 C   0  0  0  0  0  0  0  0  0  0  0  0
   44.1350   35.7210   41.8310 C   0  0  0  0  0  0  0  0  0  0  0  0
   44.3700   34.4130   41.3280 C   0  0  0  0  0  0  0  0  0  0  0  0
   45.2360   33.6010   41.9900 N   0  0  0  0  0  0  0  0  0  0  0  0
   45.8790   34.0130   43.1190 C   0  0  0  0  0  0  0  0  0  0  0  0
   45.6740   35.2520   43.6210 N   0  0  0  0  0  0  0  0  0  0  0  0
   45.2380   33.2760   45.6190 O   0  0  0  0  0  0  0  0  0  0  0  0
   45.9070   30.8780   45.8660 O   0  0  0  0  0  0  0  0  0  0  0  0
   47.1200   29.3280   47.2530 C   0  0  2  0  0  0  0  0  0  0  0  0
   45.9980   30.3270   47.1410 C   0  0  2  0  0  0  0  0  0  0  0  0
   44.8210   29.7190   47.5320 O   0  0  0  0  0  0  0  0  0  0  0  0
   45.0620   28.4230   47.8990 C   0  0  0  0  0  0  0  0  0  0  0  0
   46.3970   28.0210   47.3290 C   0  0  2  0  0  0  0  0  0  0  0  0
   47.7650   29.5140   48.4760 O   0  0  0  0  0  0  0  0  0  0  0  0
   46.9930   27.1490   48.2440 O   0  0  0  0  0  0  0  0  0  0  0  0
   47.1448   33.8728   45.8920 H   0  0  0  0  0  0  0  0  0  0  0  0
   47.8159   33.5996   43.5991 H   0  0  0  0  0  0  0  0  0  0  0  0
   47.6998   30.1481   44.2222 H   0  0  0  0  0  0  0  0  0  0  0  0
   48.6685   31.5802   44.1523 H   0  0  0  0  0  0  0  0  0  0  0  0
   47.6764   31.5655   46.5359 H   0  0  0  0  0  0  0  0  0  0  0  0
   44.6706   37.1166   43.4280 H   0  0  0  0  0  0  0  0  0  0  0  0
   43.4415   36.4086   41.3248 H   0  0  0  0  0  0  0  0  0  0  0  0
   43.8598   34.0635   40.4183 H   0  0  0  0  0  0  0  0  0  0  0  0
   45.1105   33.2924   46.6006 H   0  0  0  0  0  0  0  0  0  0  0  0
   47.8532   29.4021   46.4363 H   0  0  0  0  0  0  0  0  0  0  0  0
   46.2050   31.1749   47.8105 H   0  0  0  0  0  0  0  0  0  0  0  0
   45.0846   28.3432   48.9959 H   0  0  0  0  0  0  0  0  0  0  0  0
   44.2685   27.7631   47.5184 H   0  0  0  0  0  0  0  0  0  0  0  0
   46.3736   27.5090   46.3557 H   0  0  0  0  0  0  0  0  0  0  0  0
   47.1314   29.3313   49.2144 H   0  0  0  0  0  0  0  0  0  0  0  0
   46.7889   27.4476   49.1655 H   0  0  0  0  0  0  0  0  0  0  0  0
  1 12  1  0
  1  5  1  0
  2  1  1  0
  3  2  1  0
  3  4  1  0
  4  5  1  0
  5 13  1  0
  6 11  2  0
  7  6  1  0
  8  7  2  0
  8  9  1  0
  9 10  2  0
 10 11  1  0
 10  2  1  0
 14 18  1  0
 14 19  1  0
 15 13  1  0
 15 14  1  0
 15 16  1  0
 16 17  1  0
 18 17  1  0
 18 20  1  0
  1 21  1  1
  2 22  1  1
  4 23  1  0
  4 24  1  0
  5 25  1  1
  6 26  1  0
  7 27  1  0
  8 28  1  0
 12 29  1  0
 14 30  1  6
 15 31  1  1
 17 32  1  0
 17 33  1  0
 18 34  1  6
 19 35  1  0
 20 36  1  0
M  ISO  8  21  13  22  13  23  13  24  13  25  13  26  14  27  14  28  14
M  ISO  8  29   3  30  13  31  13  32  13  33  13  34  13  35   3  36   3
M  END
>  <minimizedAffinity>  (1) 
-4.57597589

>  <minimizedRMSD>  (1) 
3.03461742

$$$$
