
     RDKit          3D

 27 28  0  0  0  0  0  0  0  0999 V2000
   46.9390   32.6830   45.1650 C   0  0  0  0  0  0  0  0  0  0  0  0
   45.2820   35.1320   42.8630 C   0  0  0  0  0  0  0  0  0  0  0  0
   46.3860   35.4800   42.0470 C   0  0  0  0  0  0  0  0  0  0  0  0
   47.6090   34.8590   42.3300 C   0  0  0  0  0  0  0  0  0  0  0  0
   47.6720   33.9710   43.3570 N   0  0  0  0  0  0  0  0  0  0  0  0
   46.5700   33.6800   44.1060 C   0  0  0  0  0  0  0  0  0  0  0  0
   45.3890   34.2560   43.8570 N   0  0  0  0  0  0  0  0  0  0  0  0
   48.7120   35.2460   41.4650 C   0  0  0  0  0  0  0  0  0  0  0  0
   49.8050   34.4200   41.7420 F   0  0  0  0  0  0  0  0  0  0  0  0
   49.1140   36.5070   41.8660 F   0  0  0  0  0  0  0  0  0  0  0  0
   48.4240   35.1570   40.1340 F   0  0  0  0  0  0  0  0  0  0  0  0
   46.5830   33.1410   46.5400 C   0  0  0  0  0  0  0  0  0  0  0  0
   46.0230   32.0800   47.3860 C   0  0  0  0  0  0  0  0  0  0  0  0
   45.8370   32.3210   48.7240 C   0  0  0  0  0  0  0  0  0  0  0  0
   45.3060   31.2780   49.4690 C   0  0  0  0  0  0  0  0  0  0  0  0
   44.9990   30.0990   48.8780 N   0  0  0  0  0  0  0  0  0  0  0  0
   45.1960   29.8940   47.5480 C   0  0  0  0  0  0  0  0  0  0  0  0
   45.7130   30.8960   46.8060 N   0  0  0  0  0  0  0  0  0  0  0  0
   48.0245   32.5104   45.1222 H   0  0  0  0  0  0  0  0  0  0  0  0
   46.3711   31.7624   44.9653 H   0  0  0  0  0  0  0  0  0  0  0  0
   44.3062   35.6009   42.6683 H   0  0  0  0  0  0  0  0  0  0  0  0
   46.2872   36.2063   41.2268 H   0  0  0  0  0  0  0  0  0  0  0  0
   47.4918   33.5283   47.0238 H   0  0  0  0  0  0  0  0  0  0  0  0
   45.8057   33.9118   46.4322 H   0  0  0  0  0  0  0  0  0  0  0  0
   46.0947   33.2879   49.1808 H   0  0  0  0  0  0  0  0  0  0  0  0
   45.1332   31.4097   50.5473 H   0  0  0  0  0  0  0  0  0  0  0  0
   44.9388   28.9296   47.0856 H   0  0  0  0  0  0  0  0  0  0  0  0
  1 12  1  0
  2  7  2  0
  3  4  2  0
  3  2  1  0
  4  5  1  0
  5  6  2  0
  6  1  1  0
  7  6  1  0
  8  9  1  0
  8 10  1  0
  8  4  1  0
 11  8  1  0
 12 13  1  0
 13 14  2  0
 14 15  1  0
 16 15  2  0
 17 16  1  0
 18 13  1  0
 18 17  2  0
  1 19  1  0
  1 20  1  0
  2 21  1  0
  3 22  1  0
 12 23  1  0
 12 24  1  0
 14 25  1  0
 15 26  1  0
 17 27  1  0
M  ISO  8  19   8  20   8  21  14  22  14  23   8  24   8  25  14  26  14
M  ISO  1  27  14
M  END
>  <minimizedAffinity>  (1) 
-5.45545578

>  <minimizedRMSD>  (1) 
1.86746371

$$$$
