
     RDKit          3D

 35 36  0  0  0  0  0  0  0  0999 V2000
   44.5250   35.8770   44.3270 C   0  0  0  0  0  0  0  0  0  0  0  0
   45.2690   35.7800   43.1230 C   0  0  0  0  0  0  0  0  0  0  0  0
   46.2690   34.8160   43.0740 C   0  0  0  0  0  0  0  0  0  0  0  0
   46.4560   34.0460   44.1760 N   0  0  0  0  0  0  0  0  0  0  0  0
   45.7230   34.1700   45.3050 C   0  0  0  0  0  0  0  0  0  0  0  0
   44.7610   35.0850   45.3770 N   0  0  0  0  0  0  0  0  0  0  0  0
   47.0230   34.7300   41.8310 C   0  0  0  0  0  0  0  0  0  0  0  0
   47.8290   33.5940   41.8610 F   0  0  0  0  0  0  0  0  0  0  0  0
   47.9130   35.8070   41.8460 F   0  0  0  0  0  0  0  0  0  0  0  0
   46.2450   34.6870   40.7280 F   0  0  0  0  0  0  0  0  0  0  0  0
   46.1770   33.1790   46.3410 C   0  0  0  0  0  0  0  0  0  0  0  0
   45.2000   33.0210   47.4360 C   0  0  0  0  0  0  0  0  0  0  0  0
   45.1500   31.6370   48.0020 C   0  0  0  0  0  0  0  0  0  0  0  0
   45.6810   30.6340   46.9680 C   0  0  0  0  0  0  0  0  0  0  0  0
   46.3280   29.4370   47.6470 C   0  0  0  0  0  0  0  0  0  0  0  0
   47.5560   29.7890   48.4310 C   0  0  0  0  0  0  0  0  0  0  0  0
   47.4360   31.2780   48.7760 C   0  0  0  0  0  0  0  0  0  0  0  0
   45.9920   31.4560   49.2240 C   0  0  0  0  0  0  0  0  0  0  0  0
   43.7264   36.6301   44.3986 H   0  0  0  0  0  0  0  0  0  0  0  0
   45.0635   36.4385   42.2662 H   0  0  0  0  0  0  0  0  0  0  0  0
   46.3241   32.2030   45.8555 H   0  0  0  0  0  0  0  0  0  0  0  0
   47.1127   33.5570   46.7788 H   0  0  0  0  0  0  0  0  0  0  0  0
   45.4685   33.7173   48.2442 H   0  0  0  0  0  0  0  0  0  0  0  0
   44.2065   33.2317   47.0134 H   0  0  0  0  0  0  0  0  0  0  0  0
   44.0951   31.4683   48.2644 H   0  0  0  0  0  0  0  0  0  0  0  0
   46.4277   31.1338   46.3335 H   0  0  0  0  0  0  0  0  0  0  0  0
   44.8352   30.2765   46.3623 H   0  0  0  0  0  0  0  0  0  0  0  0
   45.5946   28.9861   48.3317 H   0  0  0  0  0  0  0  0  0  0  0  0
   46.6380   28.7417   46.8530 H   0  0  0  0  0  0  0  0  0  0  0  0
   47.6055   29.1879   49.3509 H   0  0  0  0  0  0  0  0  0  0  0  0
   48.4700   29.5854   47.8539 H   0  0  0  0  0  0  0  0  0  0  0  0
   48.1295   31.5454   49.5869 H   0  0  0  0  0  0  0  0  0  0  0  0
   47.6897   31.9245   47.9230 H   0  0  0  0  0  0  0  0  0  0  0  0
   45.9079   32.3421   49.8703 H   0  0  0  0  0  0  0  0  0  0  0  0
   45.6566   30.5766   49.7933 H   0  0  0  0  0  0  0  0  0  0  0  0
  1  6  2  0
  2  1  1  0
  3  2  2  0
  3  4  1  0
  4  5  2  0
  5  6  1  0
  5 11  1  0
  7  9  1  0
  7  8  1  0
  7  3  1  0
 10  7  1  0
 11 12  1  0
 12 13  1  0
 13 18  1  0
 14 15  1  0
 14 13  1  0
 15 16  1  0
 16 17  1  0
 17 18  1  0
  1 19  1  0
  2 20  1  0
 11 21  1  0
 11 22  1  0
 12 23  1  0
 12 24  1  0
 13 25  1  0
 14 26  1  0
 14 27  1  0
 15 28  1  0
 15 29  1  0
 16 30  1  0
 16 31  1  0
 17 32  1  0
 17 33  1  0
 18 34  1  0
 18 35  1  0
M  ISO  8  19  14  20  14  21   8  22   8  23   8  24   8  25  13  26  13
M  ISO  8  27  13  28  13  29  13  30  13  31  13  32  13  33  13  34  13
M  ISO  1  35  13
M  END
>  <minimizedAffinity>  (1) 
-5.3590951

>  <minimizedRMSD>  (1) 
0.920313299

$$$$
