
     RDKit          3D

 32 33  0  0  0  0  0  0  0  0999 V2000
   46.9090   32.7470   45.2090 C   0  0  0  0  0  0  0  0  0  0  0  0
   45.2070   35.0690   42.8060 C   0  0  0  0  0  0  0  0  0  0  0  0
   46.3090   35.4270   41.9800 C   0  0  0  0  0  0  0  0  0  0  0  0
   47.5410   34.8510   42.3170 C   0  0  0  0  0  0  0  0  0  0  0  0
   47.6250   34.0040   43.3810 N   0  0  0  0  0  0  0  0  0  0  0  0
   46.5370   33.7000   44.1300 C   0  0  0  0  0  0  0  0  0  0  0  0
   45.3390   34.2300   43.8430 N   0  0  0  0  0  0  0  0  0  0  0  0
   48.6740   35.2180   41.4590 C   0  0  0  0  0  0  0  0  0  0  0  0
   49.7510   34.3880   41.7170 F   0  0  0  0  0  0  0  0  0  0  0  0
   49.0680   36.4830   41.8520 F   0  0  0  0  0  0  0  0  0  0  0  0
   48.3830   35.1580   40.1270 F   0  0  0  0  0  0  0  0  0  0  0  0
   46.4250   33.1860   46.5490 C   0  0  0  0  0  0  0  0  0  0  0  0
   45.9450   32.1100   47.3240 N   0  0  0  0  0  0  0  0  0  0  0  0
   45.9220   30.8170   46.7390 C   0  0  0  0  0  0  0  0  0  0  0  0
   44.9350   29.9670   47.5500 C   0  0  0  0  0  0  0  0  0  0  0  0
   45.1290   30.0520   48.9030 O   0  0  0  0  0  0  0  0  0  0  0  0
   45.2250   31.3240   49.4240 C   0  0  0  0  0  0  0  0  0  0  0  0
   46.3720   32.0290   48.6830 C   0  0  0  0  0  0  0  0  0  0  0  0
   48.0051   32.6601   45.2407 H   0  0  0  0  0  0  0  0  0  0  0  0
   46.4337   31.7815   44.9813 H   0  0  0  0  0  0  0  0  0  0  0  0
   44.2163   35.4938   42.5868 H   0  0  0  0  0  0  0  0  0  0  0  0
   46.2002   36.1145   41.1282 H   0  0  0  0  0  0  0  0  0  0  0  0
   47.2569   33.6652   47.0860 H   0  0  0  0  0  0  0  0  0  0  0  0
   45.5912   33.8862   46.3926 H   0  0  0  0  0  0  0  0  0  0  0  0
   45.5902   30.8832   45.6923 H   0  0  0  0  0  0  0  0  0  0  0  0
   46.9253   30.3663   46.7507 H   0  0  0  0  0  0  0  0  0  0  0  0
   43.9136   30.3059   47.3221 H   0  0  0  0  0  0  0  0  0  0  0  0
   45.0981   28.9176   47.2635 H   0  0  0  0  0  0  0  0  0  0  0  0
   44.2824   31.8687   49.2663 H   0  0  0  0  0  0  0  0  0  0  0  0
   45.4193   31.2908   50.5062 H   0  0  0  0  0  0  0  0  0  0  0  0
   47.2997   31.4432   48.7616 H   0  0  0  0  0  0  0  0  0  0  0  0
   46.5867   33.0213   49.1065 H   0  0  0  0  0  0  0  0  0  0  0  0
  1 12  1  0
  2  7  2  0
  3  4  2  0
  3  2  1  0
  4  5  1  0
  5  6  2  0
  6  1  1  0
  7  6  1  0
  8  9  1  0
  8 10  1  0
  8  4  1  0
 11  8  1  0
 12 13  1  0
 13 18  1  0
 14 13  1  0
 14 15  1  0
 15 16  1  0
 16 17  1  0
 18 17  1  0
  1 19  1  0
  1 20  1  0
  2 21  1  0
  3 22  1  0
 12 23  1  0
 12 24  1  0
 14 25  1  0
 14 26  1  0
 15 27  1  0
 15 28  1  0
 17 29  1  0
 17 30  1  0
 18 31  1  0
 18 32  1  0
M  ISO  8  19   8  20   8  21  14  22  14  23   8  24   8  25  13  26  13
M  ISO  6  27  13  28  13  29  13  30  13  31  13  32  13
M  END
>  <minimizedAffinity>  (1) 
-5.29148769

>  <minimizedRMSD>  (1) 
1.82625198

$$$$
