
     RDKit          3D

 30 32  0  0  0  0  0  0  0  0999 V2000
   47.0440   32.7760   45.0240 C   0  0  0  0  0  0  0  0  0  0  0  0
   45.4510   35.3230   42.8220 C   0  0  0  0  0  0  0  0  0  0  0  0
   46.5480   35.6920   42.0140 C   0  0  0  0  0  0  0  0  0  0  0  0
   47.7580   35.0440   42.2760 C   0  0  0  0  0  0  0  0  0  0  0  0
   47.7990   34.1210   43.2740 N   0  0  0  0  0  0  0  0  0  0  0  0
   46.7190   33.8060   44.0140 C   0  0  0  0  0  0  0  0  0  0  0  0
   45.5610   34.4000   43.7900 N   0  0  0  0  0  0  0  0  0  0  0  0
   48.8810   35.4380   41.4300 C   0  0  0  0  0  0  0  0  0  0  0  0
   49.9690   34.6020   41.6920 F   0  0  0  0  0  0  0  0  0  0  0  0
   49.2630   36.6990   41.8500 F   0  0  0  0  0  0  0  0  0  0  0  0
   48.6130   35.3690   40.0920 F   0  0  0  0  0  0  0  0  0  0  0  0
   46.1140   31.6480   45.1120 C   0  0  0  0  0  0  0  0  0  0  0  0
   45.7890   31.1010   46.3810 N   0  0  0  0  0  0  0  0  0  0  0  0
   45.7760   32.0230   47.3910 C   0  0  0  0  0  0  0  0  0  0  0  0
   45.4310   31.4650   48.5840 N   0  0  0  0  0  0  0  0  0  0  0  0
   45.2130   30.1580   48.3710 C   0  0  0  0  0  0  0  0  0  0  0  0
   44.8580   29.0110   49.0730 C   0  0  0  0  0  0  0  0  0  0  0  0
   44.7590   27.8280   48.4360 N   0  0  0  0  0  0  0  0  0  0  0  0
   44.9920   27.6880   47.1110 C   0  0  0  0  0  0  0  0  0  0  0  0
   45.3310   28.8040   46.4510 N   0  0  0  0  0  0  0  0  0  0  0  0
   45.4420   29.9910   47.0300 C   0  0  0  0  0  0  0  0  0  0  0  0
   47.0723   33.2666   46.0081 H   0  0  0  0  0  0  0  0  0  0  0  0
   48.0054   32.3442   44.7089 H   0  0  0  0  0  0  0  0  0  0  0  0
   44.4773   35.8062   42.6533 H   0  0  0  0  0  0  0  0  0  0  0  0
   46.4554   36.4487   41.2210 H   0  0  0  0  0  0  0  0  0  0  0  0
   45.1691   31.9774   44.6553 H   0  0  0  0  0  0  0  0  0  0  0  0
   46.6548   30.8309   44.6121 H   0  0  0  0  0  0  0  0  0  0  0  0
   46.0156   33.0880   47.2557 H   0  0  0  0  0  0  0  0  0  0  0  0
   44.6572   29.0700   50.1529 H   0  0  0  0  0  0  0  0  0  0  0  0
   44.9081   26.7150   46.6048 H   0  0  0  0  0  0  0  0  0  0  0  0
  1 12  1  0
  2  7  2  0
  3  4  2  0
  3  2  1  0
  4  5  1  0
  5  6  2  0
  6  1  1  0
  7  6  1  0
  8  9  1  0
  8 10  1  0
  8  4  1  0
 11  8  1  0
 12 13  1  0
 13 21  1  0
 13 14  1  0
 14 15  2  0
 16 15  1  0
 16 17  2  0
 18 17  1  0
 19 18  2  0
 20 21  2  0
 20 19  1  0
 21 16  1  0
  1 22  1  0
  1 23  1  0
  2 24  1  0
  3 25  1  0
 12 26  1  0
 12 27  1  0
 14 28  1  0
 17 29  1  0
 19 30  1  0
M  ISO  8  22   8  23   8  24  14  25  14  26   8  27   8  28  14  29  14
M  ISO  1  30  14
M  END
>  <minimizedAffinity>  (1) 
-4.66008472

>  <minimizedRMSD>  (1) 
4.30793142

$$$$
