
     RDKit          3D

 20 20  0  0  0  0  0  0  0  0999 V2000
   44.5630   35.8820   44.3450 C   0  0  0  0  0  0  0  0  0  0  0  0
   45.3240   35.7890   43.1530 C   0  0  0  0  0  0  0  0  0  0  0  0
   46.2970   34.7970   43.1000 C   0  0  0  0  0  0  0  0  0  0  0  0
   46.4540   33.9860   44.1880 N   0  0  0  0  0  0  0  0  0  0  0  0
   45.6980   34.1210   45.2990 C   0  0  0  0  0  0  0  0  0  0  0  0
   44.7560   35.0660   45.3770 N   0  0  0  0  0  0  0  0  0  0  0  0
   47.0600   34.7230   41.8620 C   0  0  0  0  0  0  0  0  0  0  0  0
   47.8730   33.5850   41.8930 F   0  0  0  0  0  0  0  0  0  0  0  0
   47.9300   35.7970   41.8710 F   0  0  0  0  0  0  0  0  0  0  0  0
   46.2810   34.6590   40.7430 F   0  0  0  0  0  0  0  0  0  0  0  0
   46.1110   33.1040   46.3210 C   0  0  0  0  0  0  0  0  0  0  0  0
   46.0810   31.7130   45.7910 C   0  0  0  0  0  0  0  0  0  0  0  0
   45.6760   30.4450   46.9860 S   0  0  0  0  0  0  0  0  0  0  0  0
   43.7853   36.6565   44.4190 H   0  0  0  0  0  0  0  0  0  0  0  0
   45.1526   36.4712   42.3073 H   0  0  0  0  0  0  0  0  0  0  0  0
   47.1349   33.3328   46.6515 H   0  0  0  0  0  0  0  0  0  0  0  0
   45.3936   33.1584   47.1531 H   0  0  0  0  0  0  0  0  0  0  0  0
   45.3321   31.6725   44.9863 H   0  0  0  0  0  0  0  0  0  0  0  0
   47.1050   31.4952   45.4534 H   0  0  0  0  0  0  0  0  0  0  0  0
   45.8351   30.9433   48.2522 H   0  0  0  0  0  0  0  0  0  0  0  0
  1  6  2  0
  2  1  1  0
  3  2  2  0
  3  4  1  0
  4  5  2  0
  5  6  1  0
  5 11  1  0
  7  9  1  0
  7  8  1  0
  7  3  1  0
 10  7  1  0
 12 11  1  0
 12 13  1  0
  1 14  1  0
  2 15  1  0
 11 16  1  0
 11 17  1  0
 12 18  1  0
 12 19  1  0
 13 20  1  0
M  ISO  7  14  14  15  14  16   8  17   8  18   8  19   8  20  11
M  END
>  <minimizedAffinity>  (1) 
-4.1679287

>  <minimizedRMSD>  (1) 
1.34661162

$$$$
