
     RDKit          3D

 33 35  0  0  0  0  0  0  0  0999 V2000
   45.6820   32.3500   47.1170 C   0  0  0  0  0  0  0  0  0  0  0  0
   45.9350   30.9000   47.2100 C   0  0  0  0  0  0  0  0  0  0  0  0
   47.1110   30.2070   47.2410 C   0  0  0  0  0  0  0  0  0  0  0  0
   46.7840   28.8690   47.3350 C   0  0  0  0  0  0  0  0  0  0  0  0
   45.4550   28.7710   47.3620 N   0  0  0  0  0  0  0  0  0  0  0  0
   44.9570   30.0010   47.2860 N   0  0  0  0  0  0  0  0  0  0  0  0
   44.6420   27.5990   47.4530 C   0  0  0  0  0  0  0  0  0  0  0  0
   44.5480   26.7770   48.4990 C   0  0  0  0  0  0  0  0  0  0  0  0
   43.7280   25.6840   48.4560 C   0  0  0  0  0  0  0  0  0  0  0  0
   43.0090   25.5220   47.2150 C   0  0  0  0  0  0  0  0  0  0  0  0
   43.6010   27.0010   46.2060 S   0  0  0  0  0  0  0  0  0  0  0  0
   46.7410   33.0390   46.2950 C   0  0  0  0  0  0  0  0  0  0  0  0
   44.6620   35.4630   44.3160 C   0  0  0  0  0  0  0  0  0  0  0  0
   45.3980   35.4850   43.1030 C   0  0  0  0  0  0  0  0  0  0  0  0
   46.5480   34.6770   43.0380 C   0  0  0  0  0  0  0  0  0  0  0  0
   46.8750   33.9360   44.1300 N   0  0  0  0  0  0  0  0  0  0  0  0
   46.1350   33.9520   45.2680 C   0  0  0  0  0  0  0  0  0  0  0  0
   45.0440   34.7080   45.3540 N   0  0  0  0  0  0  0  0  0  0  0  0
   47.2730   34.7260   41.7820 C   0  0  0  0  0  0  0  0  0  0  0  0
   48.1950   33.6860   41.7590 F   0  0  0  0  0  0  0  0  0  0  0  0
   48.0380   35.8900   41.8110 F   0  0  0  0  0  0  0  0  0  0  0  0
   46.4730   34.6310   40.6850 F   0  0  0  0  0  0  0  0  0  0  0  0
   44.7010   32.5132   46.6469 H   0  0  0  0  0  0  0  0  0  0  0  0
   45.7018   32.7718   48.1327 H   0  0  0  0  0  0  0  0  0  0  0  0
   48.1243   30.6329   47.1991 H   0  0  0  0  0  0  0  0  0  0  0  0
   47.4953   28.0311   47.3797 H   0  0  0  0  0  0  0  0  0  0  0  0
   45.1364   26.9806   49.4058 H   0  0  0  0  0  0  0  0  0  0  0  0
   43.6245   24.9847   49.2988 H   0  0  0  0  0  0  0  0  0  0  0  0
   42.2958   24.7346   46.9298 H   0  0  0  0  0  0  0  0  0  0  0  0
   47.3838   33.6303   46.9637 H   0  0  0  0  0  0  0  0  0  0  0  0
   47.3248   32.2688   45.7697 H   0  0  0  0  0  0  0  0  0  0  0  0
   43.7563   36.0807   44.4058 H   0  0  0  0  0  0  0  0  0  0  0  0
   45.0834   36.1061   42.2514 H   0  0  0  0  0  0  0  0  0  0  0  0
  1  2  1  0
  2  3  1  0
  2  6  2  0
  3  4  2  0
  4  5  1  0
  5  7  1  0
  6  5  1  0
  7  8  2  0
  9  8  1  0
 10  9  2  0
 11 10  1  0
 11  7  1  0
 12  1  1  0
 13 18  2  0
 14 13  1  0
 15 14  2  0
 15 16  1  0
 16 17  2  0
 17 18  1  0
 17 12  1  0
 19 21  1  0
 19 15  1  0
 20 19  1  0
 22 19  1  0
  1 23  1  0
  1 24  1  0
  3 25  1  0
  4 26  1  0
  8 27  1  0
  9 28  1  0
 10 29  1  0
 12 30  1  0
 12 31  1  0
 13 32  1  0
 14 33  1  0
M  ISO  8  23   8  24   8  25  14  26  14  27  14  28  14  29  14  30   8
M  ISO  3  31   8  32  14  33  14
M  END
>  <minimizedAffinity>  (1) 
-5.40989685

>  <minimizedRMSD>  (1) 
2.3946681

$$$$
