
     RDKit          3D

 32 33  0  0  0  0  0  0  0  0999 V2000
   46.6060   32.8960   46.4540 C   0  0  0  0  0  0  0  0  0  0  0  0
   44.5430   35.5510   44.7910 C   0  0  0  0  0  0  0  0  0  0  0  0
   45.1450   35.5570   43.5050 C   0  0  0  0  0  0  0  0  0  0  0  0
   46.1970   34.6700   43.2990 C   0  0  0  0  0  0  0  0  0  0  0  0
   46.5680   33.8700   44.3280 N   0  0  0  0  0  0  0  0  0  0  0  0
   45.9690   33.8980   45.5310 C   0  0  0  0  0  0  0  0  0  0  0  0
   44.9580   34.7360   45.7620 N   0  0  0  0  0  0  0  0  0  0  0  0
   46.7930   34.6970   41.9780 C   0  0  0  0  0  0  0  0  0  0  0  0
   47.5710   33.5420   41.7970 F   0  0  0  0  0  0  0  0  0  0  0  0
   47.6820   35.7560   41.9630 F   0  0  0  0  0  0  0  0  0  0  0  0
   45.8790   34.7450   40.9590 F   0  0  0  0  0  0  0  0  0  0  0  0
   45.5880   32.1990   47.3180 C   0  0  0  0  0  0  0  0  0  0  0  0
   45.8100   30.7400   47.3310 C   0  0  0  0  0  0  0  0  0  0  0  0
   46.9640   30.0180   47.4320 C   0  0  0  0  0  0  0  0  0  0  0  0
   46.6120   28.6920   47.3950 C   0  0  0  0  0  0  0  0  0  0  0  0
   45.2760   28.6080   47.2760 N   0  0  0  0  0  0  0  0  0  0  0  0
   44.8250   29.8560   47.2400 N   0  0  0  0  0  0  0  0  0  0  0  0
   44.4710   27.4210   47.1990 C   0  0  0  0  0  0  0  0  0  0  0  0
   44.5580   26.6570   48.5240 C   0  0  0  0  0  0  0  0  0  0  0  0
   47.3252   33.4175   47.1027 H   0  0  0  0  0  0  0  0  0  0  0  0
   47.1064   32.1352   45.8369 H   0  0  0  0  0  0  0  0  0  0  0  0
   43.7090   36.2394   44.9926 H   0  0  0  0  0  0  0  0  0  0  0  0
   44.7960   36.2312   42.7090 H   0  0  0  0  0  0  0  0  0  0  0  0
   45.6660   32.5832   48.3458 H   0  0  0  0  0  0  0  0  0  0  0  0
   44.5873   32.3959   46.9059 H   0  0  0  0  0  0  0  0  0  0  0  0
   47.9828   30.4222   47.5253 H   0  0  0  0  0  0  0  0  0  0  0  0
   47.3066   27.8410   47.4530 H   0  0  0  0  0  0  0  0  0  0  0  0
   43.4248   27.6997   47.0046 H   0  0  0  0  0  0  0  0  0  0  0  0
   44.8383   26.7816   46.3827 H   0  0  0  0  0  0  0  0  0  0  0  0
   44.4773   27.3654   49.3617 H   0  0  0  0  0  0  0  0  0  0  0  0
   43.7372   25.9269   48.5809 H   0  0  0  0  0  0  0  0  0  0  0  0
   45.5219   26.1301   48.5809 H   0  0  0  0  0  0  0  0  0  0  0  0
  1 12  1  0
  2  7  2  0
  3  2  1  0
  4  3  2  0
  4  5  1  0
  5  6  2  0
  6  7  1  0
  6  1  1  0
  8  4  1  0
  9  8  1  0
 10  8  1  0
 11  8  1  0
 12 13  1  0
 13 14  1  0
 15 14  2  0
 16 15  1  0
 17 16  1  0
 17 13  2  0
 18 16  1  0
 18 19  1  0
  1 20  1  0
  1 21  1  0
  2 22  1  0
  3 23  1  0
 12 24  1  0
 12 25  1  0
 14 26  1  0
 15 27  1  0
 18 28  1  0
 18 29  1  0
 19 30  1  0
 19 31  1  0
 19 32  1  0
M  ISO  8  20   8  21   8  22  14  23  14  24   8  25   8  26  14  27  14
M  ISO  5  28   8  29   8  30   8  31   8  32   8
M  END
>  <minimizedAffinity>  (1) 
-4.89719057

>  <minimizedRMSD>  (1) 
1.60815597

$$$$
