
     RDKit          3D

 39 41  0  0  0  0  0  0  0  0999 V2000
   45.4190   30.5570   47.2570 C   0  0  0  0  0  0  0  0  0  0  0  0
   45.2090   29.9470   46.0410 C   0  0  0  0  0  0  0  0  0  0  0  0
   44.8970   28.6200   46.2930 C   0  0  0  0  0  0  0  0  0  0  0  0
   44.9200   28.4460   47.6060 N   0  0  0  0  0  0  0  0  0  0  0  0
   45.2350   29.6160   48.1680 N   0  0  0  0  0  0  0  0  0  0  0  0
   46.9150   26.3640   45.1930 Cl  0  0  0  0  0  0  0  0  0  0  0  0
   45.4140   26.8510   44.4430 C   0  0  0  0  0  0  0  0  0  0  0  0
   44.6900   27.7900   45.1270 C   0  0  0  0  0  0  0  0  0  0  0  0
   43.4640   28.0660   44.4950 C   0  0  0  0  0  0  0  0  0  0  0  0
   43.0160   27.4860   43.3280 C   0  0  0  0  0  0  0  0  0  0  0  0
   43.8010   26.5560   42.6990 C   0  0  0  0  0  0  0  0  0  0  0  0
   43.4110   25.7140   41.2170 Cl  0  0  0  0  0  0  0  0  0  0  0  0
   45.0040   26.2510   43.2790 C   0  0  0  0  0  0  0  0  0  0  0  0
   44.6830   27.1950   48.3260 C   0  0  0  0  0  0  0  0  0  0  0  0
   44.2960   27.4990   49.6500 F   0  0  0  0  0  0  0  0  0  0  0  0
   45.8010   26.4070   48.3180 F   0  0  0  0  0  0  0  0  0  0  0  0
   43.6320   26.5430   47.7700 F   0  0  0  0  0  0  0  0  0  0  0  0
   45.7700   31.9480   47.5470 C   0  0  0  0  0  0  0  0  0  0  0  0
   46.6850   32.5260   46.5070 C   0  0  0  0  0  0  0  0  0  0  0  0
   44.6110   35.3280   45.1850 C   0  0  0  0  0  0  0  0  0  0  0  0
   45.1100   35.4250   43.8710 C   0  0  0  0  0  0  0  0  0  0  0  0
   46.1100   34.5440   43.5140 C   0  0  0  0  0  0  0  0  0  0  0  0
   46.5130   33.6760   44.4530 N   0  0  0  0  0  0  0  0  0  0  0  0
   46.0390   33.5890   45.6930 C   0  0  0  0  0  0  0  0  0  0  0  0
   45.0820   34.4260   46.0460 N   0  0  0  0  0  0  0  0  0  0  0  0
   46.6260   34.6520   42.1500 C   0  0  0  0  0  0  0  0  0  0  0  0
   47.3940   33.5240   41.8570 F   0  0  0  0  0  0  0  0  0  0  0  0
   47.5340   35.7080   42.1650 F   0  0  0  0  0  0  0  0  0  0  0  0
   45.6400   34.8070   41.2220 F   0  0  0  0  0  0  0  0  0  0  0  0
   45.2763   30.4242   45.0522 H   0  0  0  0  0  0  0  0  0  0  0  0
   42.8071   28.8077   44.9729 H   0  0  0  0  0  0  0  0  0  0  0  0
   42.0395   27.7665   42.9064 H   0  0  0  0  0  0  0  0  0  0  0  0
   45.6573   25.5069   42.7999 H   0  0  0  0  0  0  0  0  0  0  0  0
   44.8481   32.5471   47.5813 H   0  0  0  0  0  0  0  0  0  0  0  0
   46.2960   31.9712   48.5128 H   0  0  0  0  0  0  0  0  0  0  0  0
   47.5629   32.9555   47.0118 H   0  0  0  0  0  0  0  0  0  0  0  0
   46.9635   31.7106   45.8232 H   0  0  0  0  0  0  0  0  0  0  0  0
   43.8135   36.0132   45.5082 H   0  0  0  0  0  0  0  0  0  0  0  0
   44.7199   36.1697   43.1616 H   0  0  0  0  0  0  0  0  0  0  0  0
  1 18  1  0
  1  5  2  0
  2  3  2  0
  2  1  1  0
  3  4  1  0
  4  5  1  0
  4 14  1  0
  7  8  2  0
  7  6  1  0
  8  3  1  0
  9  8  1  0
 10  9  2  0
 11 13  2  0
 11 10  1  0
 12 11  1  0
 13  7  1  0
 14 15  1  0
 16 14  1  0
 17 14  1  0
 19 18  1  0
 20 25  2  0
 21 20  1  0
 22 21  2  0
 22 23  1  0
 23 24  2  0
 24 25  1  0
 24 19  1  0
 26 28  1  0
 26 22  1  0
 27 26  1  0
 29 26  1  0
  2 30  1  0
  9 31  1  0
 10 32  1  0
 13 33  1  0
 18 34  1  0
 18 35  1  0
 19 36  1  0
 19 37  1  0
 20 38  1  0
 21 39  1  0
M  ISO  8  30  14  31  14  32  14  33  14  34   8  35   8  36   8  37   8
M  ISO  2  38  14  39  14
M  END
>  <minimizedAffinity>  (1) 
-5.27244854

>  <minimizedRMSD>  (1) 
1.00101948

$$$$
