
     RDKit          3D

 45 47  0  0  0  0  0  0  0  0999 V2000
   45.6280   32.0860   47.4630 C   0  0  0  0  0  0  0  0  0  0  0  0
   45.4380   30.6630   47.1540 C   0  0  0  0  0  0  0  0  0  0  0  0
   45.5080   30.0100   45.9540 C   0  0  0  0  0  0  0  0  0  0  0  0
   45.2520   28.6870   46.2030 C   0  0  0  0  0  0  0  0  0  0  0  0
   45.0350   28.5410   47.5080 N   0  0  0  0  0  0  0  0  0  0  0  0
   45.1520   29.7400   48.0610 N   0  0  0  0  0  0  0  0  0  0  0  0
   45.2330   27.6460   45.1670 C   0  0  0  0  0  0  0  0  0  0  0  0
   43.8440   27.0320   45.0940 C   0  0  0  0  0  0  0  0  0  0  0  0
   43.7400   25.9080   44.1270 C   0  0  0  0  0  0  0  0  0  0  0  0
   44.9170   25.0070   44.0220 C   0  0  0  0  0  0  0  0  0  0  0  0
   46.2520   25.6740   44.2470 C   0  0  0  0  0  0  0  0  0  0  0  0
   46.1610   26.4790   45.5300 C   0  0  0  0  0  0  0  0  0  0  0  0
   44.7240   27.3030   48.2370 C   0  0  0  0  0  0  0  0  0  0  0  0
   44.3350   27.6170   49.5470 F   0  0  0  0  0  0  0  0  0  0  0  0
   45.8050   26.4600   48.1970 F   0  0  0  0  0  0  0  0  0  0  0  0
   43.6510   26.6960   47.6390 F   0  0  0  0  0  0  0  0  0  0  0  0
   46.6230   32.7370   46.5320 C   0  0  0  0  0  0  0  0  0  0  0  0
   44.5580   35.4420   45.0160 C   0  0  0  0  0  0  0  0  0  0  0  0
   45.1040   35.4840   43.7090 C   0  0  0  0  0  0  0  0  0  0  0  0
   46.1300   34.6010   43.4250 C   0  0  0  0  0  0  0  0  0  0  0  0
   46.5130   33.7850   44.4150 N   0  0  0  0  0  0  0  0  0  0  0  0
   46.0010   33.7440   45.6420 C   0  0  0  0  0  0  0  0  0  0  0  0
   45.0200   34.5800   45.9310 N   0  0  0  0  0  0  0  0  0  0  0  0
   46.6930   34.6460   42.0770 C   0  0  0  0  0  0  0  0  0  0  0  0
   47.4850   33.5160   41.8620 F   0  0  0  0  0  0  0  0  0  0  0  0
   47.6040   35.7030   42.0710 F   0  0  0  0  0  0  0  0  0  0  0  0
   45.7460   34.7540   41.1040 F   0  0  0  0  0  0  0  0  0  0  0  0
   44.6615   32.6026   47.3680 H   0  0  0  0  0  0  0  0  0  0  0  0
   46.0198   32.1627   48.4880 H   0  0  0  0  0  0  0  0  0  0  0  0
   45.7280   30.4612   44.9752 H   0  0  0  0  0  0  0  0  0  0  0  0
   45.5442   28.1251   44.2270 H   0  0  0  0  0  0  0  0  0  0  0  0
   43.5766   26.6571   46.0930 H   0  0  0  0  0  0  0  0  0  0  0  0
   43.1607   27.8208   44.7463 H   0  0  0  0  0  0  0  0  0  0  0  0
   42.8756   25.2944   44.4209 H   0  0  0  0  0  0  0  0  0  0  0  0
   43.6511   26.3837   43.1392 H   0  0  0  0  0  0  0  0  0  0  0  0
   44.8037   24.2088   44.7704 H   0  0  0  0  0  0  0  0  0  0  0  0
   44.9290   24.6358   42.9866 H   0  0  0  0  0  0  0  0  0  0  0  0
   47.0398   24.9118   44.3391 H   0  0  0  0  0  0  0  0  0  0  0  0
   46.5000   26.3303   43.3998 H   0  0  0  0  0  0  0  0  0  0  0  0
   47.1525   26.8467   45.8327 H   0  0  0  0  0  0  0  0  0  0  0  0
   45.7864   25.8863   46.3776 H   0  0  0  0  0  0  0  0  0  0  0  0
   47.3977   33.2321   47.1358 H   0  0  0  0  0  0  0  0  0  0  0  0
   47.0463   31.9471   45.8942 H   0  0  0  0  0  0  0  0  0  0  0  0
   43.7413   36.1287   45.2834 H   0  0  0  0  0  0  0  0  0  0  0  0
   44.7279   36.1887   42.9527 H   0  0  0  0  0  0  0  0  0  0  0  0
  2  1  1  0
  2  6  2  0
  3  4  2  0
  3  2  1  0
  4  5  1  0
  5  6  1  0
  5 13  1  0
  7 12  1  0
  7  4  1  0
  8  7  1  0
  9  8  1  0
 10  9  1  0
 10 11  1  0
 11 12  1  0
 13 14  1  0
 15 13  1  0
 16 13  1  0
 17  1  1  0
 18 23  2  0
 19 18  1  0
 20 19  2  0
 20 21  1  0
 21 22  2  0
 22 23  1  0
 22 17  1  0
 24 20  1  0
 25 24  1  0
 26 24  1  0
 27 24  1  0
  1 28  1  0
  1 29  1  0
  3 30  1  0
  7 31  1  0
  8 32  1  0
  8 33  1  0
  9 34  1  0
  9 35  1  0
 10 36  1  0
 10 37  1  0
 11 38  1  0
 11 39  1  0
 12 40  1  0
 12 41  1  0
 17 42  1  0
 17 43  1  0
 18 44  1  0
 19 45  1  0
M  ISO  8  28   8  29   8  30  14  31  13  32  13  33  13  34  13  35  13
M  ISO  8  36  13  37  13  38  13  39  13  40  13  41  13  42   8  43   8
M  ISO  2  44  14  45  14
M  END
>  <minimizedAffinity>  (1) 
-5.25944614

>  <minimizedRMSD>  (1) 
0.408925563

$$$$
