
     RDKit          3D

 32 33  0  0  0  0  0  0  0  0999 V2000
   46.6280   32.8070   46.5090 C   0  0  0  0  0  0  0  0  0  0  0  0
   44.5490   35.4730   44.9390 C   0  0  0  0  0  0  0  0  0  0  0  0
   45.1060   35.5020   43.6410 C   0  0  0  0  0  0  0  0  0  0  0  0
   46.1390   34.6290   43.3750 C   0  0  0  0  0  0  0  0  0  0  0  0
   46.5230   33.8280   44.3790 N   0  0  0  0  0  0  0  0  0  0  0  0
   46.0020   33.7990   45.6020 C   0  0  0  0  0  0  0  0  0  0  0  0
   45.0120   34.6290   45.8700 N   0  0  0  0  0  0  0  0  0  0  0  0
   46.7140   34.6610   42.0300 C   0  0  0  0  0  0  0  0  0  0  0  0
   47.5040   33.5280   41.8300 F   0  0  0  0  0  0  0  0  0  0  0  0
   47.6250   35.7220   42.0290 F   0  0  0  0  0  0  0  0  0  0  0  0
   45.7680   34.7530   41.0490 F   0  0  0  0  0  0  0  0  0  0  0  0
   45.6330   32.1340   47.4170 C   0  0  0  0  0  0  0  0  0  0  0  0
   45.4860   30.7080   47.1030 C   0  0  0  0  0  0  0  0  0  0  0  0
   45.6460   30.0510   45.9060 C   0  0  0  0  0  0  0  0  0  0  0  0
   45.3960   28.7290   46.1470 C   0  0  0  0  0  0  0  0  0  0  0  0
   45.0950   28.5760   47.4270 N   0  0  0  0  0  0  0  0  0  0  0  0
   45.1550   29.7790   47.9880 N   0  0  0  0  0  0  0  0  0  0  0  0
   44.7550   27.3330   48.1370 C   0  0  0  0  0  0  0  0  0  0  0  0
   44.3340   27.6370   49.4410 F   0  0  0  0  0  0  0  0  0  0  0  0
   45.8150   26.4740   48.1010 F   0  0  0  0  0  0  0  0  0  0  0  0
   43.6700   26.7580   47.5090 F   0  0  0  0  0  0  0  0  0  0  0  0
   45.4540   27.6630   45.1310 C   0  0  0  0  0  0  0  0  0  0  0  0
   47.3769   33.3217   47.1289 H   0  0  0  0  0  0  0  0  0  0  0  0
   47.0829   32.0265   45.8813 H   0  0  0  0  0  0  0  0  0  0  0  0
   43.7222   36.1542   45.1888 H   0  0  0  0  0  0  0  0  0  0  0  0
   44.7302   36.1940   42.8729 H   0  0  0  0  0  0  0  0  0  0  0  0
   45.9748   32.2360   48.4576 H   0  0  0  0  0  0  0  0  0  0  0  0
   44.6560   32.6184   47.2724 H   0  0  0  0  0  0  0  0  0  0  0  0
   45.9218   30.5019   44.9413 H   0  0  0  0  0  0  0  0  0  0  0  0
   45.5073   26.6839   45.6295 H   0  0  0  0  0  0  0  0  0  0  0  0
   44.5522   27.7059   44.5026 H   0  0  0  0  0  0  0  0  0  0  0  0
   46.3458   27.8035   44.5026 H   0  0  0  0  0  0  0  0  0  0  0  0
  1 12  1  0
  2  7  2  0
  3  2  1  0
  4  3  2  0
  4  5  1  0
  5  6  2  0
  6  7  1  0
  6  1  1  0
  8  4  1  0
  9  8  1  0
 10  8  1  0
 11  8  1  0
 13 12  1  0
 13 17  2  0
 14 15  2  0
 14 13  1  0
 15 16  1  0
 16 17  1  0
 16 18  1  0
 18 19  1  0
 20 18  1  0
 21 18  1  0
 22 15  1  0
  1 23  1  0
  1 24  1  0
  2 25  1  0
  3 26  1  0
 12 27  1  0
 12 28  1  0
 14 29  1  0
 22 30  1  0
 22 31  1  0
 22 32  1  0
M  ISO  8  23   8  24   8  25  14  26  14  27   8  28   8  29  14  30   8
M  ISO  2  31   8  32   8
M  END
>  <minimizedAffinity>  (1) 
-5.24454594

>  <minimizedRMSD>  (1) 
0.0236938577

$$$$
