
     RDKit          3D

 41 43  0  0  0  0  0  0  0  0999 V2000
   45.6500   32.1100   47.4690 C   0  0  0  0  0  0  0  0  0  0  0  0
   45.4510   30.6800   47.1460 C   0  0  0  0  0  0  0  0  0  0  0  0
   45.5040   30.0390   45.9360 C   0  0  0  0  0  0  0  0  0  0  0  0
   45.2460   28.7250   46.1870 C   0  0  0  0  0  0  0  0  0  0  0  0
   45.0430   28.5550   47.4870 N   0  0  0  0  0  0  0  0  0  0  0  0
   45.1720   29.7580   48.0580 N   0  0  0  0  0  0  0  0  0  0  0  0
   45.2150   27.7460   45.1580 N   0  0  0  0  0  0  0  0  0  0  0  0
   46.1600   26.7060   44.7690 C   0  0  0  0  0  0  0  0  0  0  0  0
   45.4020   25.8310   43.8190 C   0  0  0  0  0  0  0  0  0  0  0  0
   43.9720   26.3150   43.7710 C   0  0  0  0  0  0  0  0  0  0  0  0
   44.0590   27.7210   44.2860 C   0  0  0  0  0  0  0  0  0  0  0  0
   44.7370   27.3090   48.1940 C   0  0  0  0  0  0  0  0  0  0  0  0
   44.3190   27.6080   49.5030 F   0  0  0  0  0  0  0  0  0  0  0  0
   45.8040   26.4780   48.1670 F   0  0  0  0  0  0  0  0  0  0  0  0
   43.6660   26.7070   47.5850 F   0  0  0  0  0  0  0  0  0  0  0  0
   46.6270   32.7590   46.5310 C   0  0  0  0  0  0  0  0  0  0  0  0
   44.5620   35.4460   44.9850 C   0  0  0  0  0  0  0  0  0  0  0  0
   45.1150   35.4810   43.6770 C   0  0  0  0  0  0  0  0  0  0  0  0
   46.1460   34.5930   43.4100 C   0  0  0  0  0  0  0  0  0  0  0  0
   46.5230   33.7860   44.4100 N   0  0  0  0  0  0  0  0  0  0  0  0
   46.0000   33.7610   45.6310 C   0  0  0  0  0  0  0  0  0  0  0  0
   45.0160   34.6010   45.9050 N   0  0  0  0  0  0  0  0  0  0  0  0
   46.7190   34.6270   42.0590 C   0  0  0  0  0  0  0  0  0  0  0  0
   47.5020   33.5100   41.8570 F   0  0  0  0  0  0  0  0  0  0  0  0
   47.6120   35.7020   42.0520 F   0  0  0  0  0  0  0  0  0  0  0  0
   45.7610   34.7410   41.0940 F   0  0  0  0  0  0  0  0  0  0  0  0
   44.6838   32.6305   47.3940 H   0  0  0  0  0  0  0  0  0  0  0  0
   46.0557   32.1786   48.4891 H   0  0  0  0  0  0  0  0  0  0  0  0
   45.7132   30.4947   44.9569 H   0  0  0  0  0  0  0  0  0  0  0  0
   47.0375   27.1465   44.2730 H   0  0  0  0  0  0  0  0  0  0  0  0
   46.5379   26.1449   45.6364 H   0  0  0  0  0  0  0  0  0  0  0  0
   45.8503   25.8937   42.8164 H   0  0  0  0  0  0  0  0  0  0  0  0
   45.4380   24.7842   44.1551 H   0  0  0  0  0  0  0  0  0  0  0  0
   43.5855   26.2970   42.7413 H   0  0  0  0  0  0  0  0  0  0  0  0
   43.2875   25.6857   44.3587 H   0  0  0  0  0  0  0  0  0  0  0  0
   44.1910   28.4274   43.4532 H   0  0  0  0  0  0  0  0  0  0  0  0
   43.1423   28.0172   44.8170 H   0  0  0  0  0  0  0  0  0  0  0  0
   47.4023   33.2621   47.1275 H   0  0  0  0  0  0  0  0  0  0  0  0
   47.0443   31.9650   45.8943 H   0  0  0  0  0  0  0  0  0  0  0  0
   43.7414   36.1321   45.2417 H   0  0  0  0  0  0  0  0  0  0  0  0
   44.7432   36.1791   42.9126 H   0  0  0  0  0  0  0  0  0  0  0  0
  2  1  1  0
  2  6  2  0
  3  4  2  0
  3  2  1  0
  4  5  1  0
  5  6  1  0
  5 12  1  0
  7  4  1  0
  8  7  1  0
  9  8  1  0
 10  9  1  0
 10 11  1  0
 11  7  1  0
 12 13  1  0
 14 12  1  0
 15 12  1  0
 16  1  1  0
 17 22  2  0
 18 17  1  0
 19 18  2  0
 19 20  1  0
 20 21  2  0
 21 22  1  0
 21 16  1  0
 23 19  1  0
 24 23  1  0
 25 23  1  0
 26 23  1  0
  1 27  1  0
  1 28  1  0
  3 29  1  0
  8 30  1  0
  8 31  1  0
  9 32  1  0
  9 33  1  0
 10 34  1  0
 10 35  1  0
 11 36  1  0
 11 37  1  0
 16 38  1  0
 16 39  1  0
 17 40  1  0
 18 41  1  0
M  ISO  8  27   8  28   8  29  14  30  13  31  13  32  13  33  13  34  13
M  ISO  7  35  13  36  13  37  13  38   8  39   8  40  14  41  14
M  END
>  <minimizedAffinity>  (1) 
-5.18279171

>  <minimizedRMSD>  (1) 
0.187211722

$$$$
