
     RDKit          3D

 38 40  0  0  0  0  0  0  0  0999 V2000
   45.6700   31.9820   47.5040 C   0  0  0  0  0  0  0  0  0  0  0  0
   45.4230   30.5590   47.2100 C   0  0  0  0  0  0  0  0  0  0  0  0
   45.3860   29.9160   46.0160 C   0  0  0  0  0  0  0  0  0  0  0  0
   45.1170   28.5830   46.2750 C   0  0  0  0  0  0  0  0  0  0  0  0
   44.9970   28.4400   47.5810 N   0  0  0  0  0  0  0  0  0  0  0  0
   45.1840   29.6440   48.1400 N   0  0  0  0  0  0  0  0  0  0  0  0
   45.0340   27.7080   45.1310 C   0  0  0  0  0  0  0  0  0  0  0  0
   44.0410   27.5280   44.2200 C   0  0  0  0  0  0  0  0  0  0  0  0
   43.9690   26.6760   43.1500 C   0  0  0  0  0  0  0  0  0  0  0  0
   45.0530   25.8570   42.9280 C   0  0  0  0  0  0  0  0  0  0  0  0
   46.0820   26.0040   43.8250 C   0  0  0  0  0  0  0  0  0  0  0  0
   46.0410   26.8720   44.8350 N   0  0  0  0  0  0  0  0  0  0  0  0
   44.7010   27.2050   48.3030 C   0  0  0  0  0  0  0  0  0  0  0  0
   44.2770   27.5470   49.6230 F   0  0  0  0  0  0  0  0  0  0  0  0
   45.7780   26.4020   48.3500 F   0  0  0  0  0  0  0  0  0  0  0  0
   43.6040   26.6030   47.7540 F   0  0  0  0  0  0  0  0  0  0  0  0
   46.6260   32.5870   46.5120 C   0  0  0  0  0  0  0  0  0  0  0  0
   44.5830   35.3780   45.1200 C   0  0  0  0  0  0  0  0  0  0  0  0
   45.1110   35.4490   43.8190 C   0  0  0  0  0  0  0  0  0  0  0  0
   46.1160   34.5630   43.4840 C   0  0  0  0  0  0  0  0  0  0  0  0
   46.4950   33.7100   44.4450 N   0  0  0  0  0  0  0  0  0  0  0  0
   45.9950   33.6420   45.6770 C   0  0  0  0  0  0  0  0  0  0  0  0
   45.0320   34.4900   46.0030 N   0  0  0  0  0  0  0  0  0  0  0  0
   46.6510   34.6580   42.1300 C   0  0  0  0  0  0  0  0  0  0  0  0
   47.4200   33.5320   41.8650 F   0  0  0  0  0  0  0  0  0  0  0  0
   47.5590   35.7200   42.1500 F   0  0  0  0  0  0  0  0  0  0  0  0
   45.6880   34.7820   41.1750 F   0  0  0  0  0  0  0  0  0  0  0  0
   44.7159   32.5277   47.4609 H   0  0  0  0  0  0  0  0  0  0  0  0
   46.1162   32.0571   48.5066 H   0  0  0  0  0  0  0  0  0  0  0  0
   45.5410   30.3696   45.0259 H   0  0  0  0  0  0  0  0  0  0  0  0
   43.1571   28.1665   44.3649 H   0  0  0  0  0  0  0  0  0  0  0  0
   43.0842   26.6474   42.4970 H   0  0  0  0  0  0  0  0  0  0  0  0
   45.0918   25.1394   42.0952 H   0  0  0  0  0  0  0  0  0  0  0  0
   46.9787   25.3783   43.7046 H   0  0  0  0  0  0  0  0  0  0  0  0
   47.4693   33.0307   47.0616 H   0  0  0  0  0  0  0  0  0  0  0  0
   46.9574   31.7836   45.8376 H   0  0  0  0  0  0  0  0  0  0  0  0
   43.7815   36.0715   45.4141 H   0  0  0  0  0  0  0  0  0  0  0  0
   44.7364   36.1852   43.0926 H   0  0  0  0  0  0  0  0  0  0  0  0
  2  1  1  0
  2  6  2  0
  3  4  2  0
  3  2  1  0
  4  5  1  0
  5  6  1  0
  5 13  1  0
  7  4  1  0
  8  7  2  0
  9  8  1  0
 10  9  2  0
 10 11  1  0
 11 12  2  0
 12  7  1  0
 13 15  1  0
 13 14  1  0
 16 13  1  0
 17  1  1  0
 18 23  2  0
 19 18  1  0
 20 19  2  0
 20 21  1  0
 21 22  2  0
 22 23  1  0
 22 17  1  0
 24 26  1  0
 24 20  1  0
 25 24  1  0
 27 24  1  0
  1 28  1  0
  1 29  1  0
  3 30  1  0
  8 31  1  0
  9 32  1  0
 10 33  1  0
 11 34  1  0
 17 35  1  0
 17 36  1  0
 18 37  1  0
 19 38  1  0
M  ISO  8  28   8  29   8  30  14  31  14  32  14  33  14  34  14  35   8
M  ISO  3  36   8  37  14  38  14
M  END
>  <minimizedAffinity>  (1) 
-5.17632532

>  <minimizedRMSD>  (1) 
0.623971164

$$$$
