
     RDKit          3D

 35 37  0  0  0  0  0  0  0  0999 V2000
   45.6340   32.1140   47.4750 C   0  0  0  0  0  0  0  0  0  0  0  0
   45.4440   30.6760   47.1570 C   0  0  0  0  0  0  0  0  0  0  0  0
   45.5190   30.0260   45.9470 C   0  0  0  0  0  0  0  0  0  0  0  0
   45.2630   28.7090   46.2010 C   0  0  0  0  0  0  0  0  0  0  0  0
   45.0410   28.5610   47.5100 N   0  0  0  0  0  0  0  0  0  0  0  0
   45.1540   29.7570   48.0720 N   0  0  0  0  0  0  0  0  0  0  0  0
   45.2370   27.6460   45.2010 C   0  0  0  0  0  0  0  0  0  0  0  0
   46.0960   26.6530   44.8990 N   0  0  0  0  0  0  0  0  0  0  0  0
   45.6030   25.9210   43.8690 C   0  0  0  0  0  0  0  0  0  0  0  0
   44.4100   26.4870   43.5380 N   0  0  0  0  0  0  0  0  0  0  0  0
   44.2130   27.5110   44.3420 N   0  0  0  0  0  0  0  0  0  0  0  0
   44.7270   27.3210   48.2360 C   0  0  0  0  0  0  0  0  0  0  0  0
   44.3120   27.6180   49.5330 F   0  0  0  0  0  0  0  0  0  0  0  0
   45.8080   26.4810   48.2040 F   0  0  0  0  0  0  0  0  0  0  0  0
   43.6810   26.7000   47.6030 F   0  0  0  0  0  0  0  0  0  0  0  0
   46.6210   32.7540   46.5390 C   0  0  0  0  0  0  0  0  0  0  0  0
   44.5570   35.4450   44.9950 C   0  0  0  0  0  0  0  0  0  0  0  0
   45.1050   35.4740   43.7020 C   0  0  0  0  0  0  0  0  0  0  0  0
   46.1330   34.5970   43.4170 C   0  0  0  0  0  0  0  0  0  0  0  0
   46.5100   33.7910   44.4200 N   0  0  0  0  0  0  0  0  0  0  0  0
   45.9940   33.7590   45.6450 C   0  0  0  0  0  0  0  0  0  0  0  0
   45.0130   34.5950   45.9220 N   0  0  0  0  0  0  0  0  0  0  0  0
   46.6920   34.6440   42.0730 C   0  0  0  0  0  0  0  0  0  0  0  0
   47.4830   33.5150   41.8640 F   0  0  0  0  0  0  0  0  0  0  0  0
   47.6050   35.7020   42.0720 F   0  0  0  0  0  0  0  0  0  0  0  0
   45.7430   34.7480   41.1040 F   0  0  0  0  0  0  0  0  0  0  0  0
   44.6675   32.6316   47.3855 H   0  0  0  0  0  0  0  0  0  0  0  0
   46.0248   32.1945   48.5001 H   0  0  0  0  0  0  0  0  0  0  0  0
   45.7411   30.4776   44.9689 H   0  0  0  0  0  0  0  0  0  0  0  0
   46.0728   25.0459   43.3962 H   0  0  0  0  0  0  0  0  0  0  0  0
   43.7746   26.1706   42.7916 H   0  0  0  0  0  0  0  0  0  0  0  0
   47.4002   33.2511   47.1354 H   0  0  0  0  0  0  0  0  0  0  0  0
   47.0397   31.9595   45.9037 H   0  0  0  0  0  0  0  0  0  0  0  0
   43.7380   36.1337   45.2500 H   0  0  0  0  0  0  0  0  0  0  0  0
   44.7275   36.1728   42.9409 H   0  0  0  0  0  0  0  0  0  0  0  0
  2  1  1  0
  2  6  2  0
  3  4  2  0
  3  2  1  0
  4  5  1  0
  5  6  1  0
  5 12  1  0
  7  4  1  0
  8  7  1  0
  9  8  2  0
 10  9  1  0
 10 11  1  0
 11  7  2  0
 12 13  1  0
 14 12  1  0
 15 12  1  0
 16  1  1  0
 17 22  2  0
 18 17  1  0
 19 18  2  0
 19 20  1  0
 20 21  2  0
 21 22  1  0
 21 16  1  0
 23 19  1  0
 24 23  1  0
 25 23  1  0
 26 23  1  0
  1 27  1  0
  1 28  1  0
  3 29  1  0
  9 30  1  0
 10 31  1  0
 16 32  1  0
 16 33  1  0
 17 34  1  0
 18 35  1  0
M  ISO  8  27   8  28   8  29  14  30  14  31   9  32   8  33   8  34  14
M  ISO  1  35  14
M  END
>  <minimizedAffinity>  (1) 
-5.1725564

>  <minimizedRMSD>  (1) 
0.139777586

$$$$
