
     RDKit          3D

 36 38  0  0  0  0  0  0  0  0999 V2000
   45.6270   32.1330   47.4290 C   0  0  0  0  0  0  0  0  0  0  0  0
   45.4850   30.6960   47.1060 C   0  0  0  0  0  0  0  0  0  0  0  0
   45.6560   30.0390   45.9180 C   0  0  0  0  0  0  0  0  0  0  0  0
   45.3990   28.7180   46.1640 C   0  0  0  0  0  0  0  0  0  0  0  0
   45.0860   28.5830   47.4500 N   0  0  0  0  0  0  0  0  0  0  0  0
   45.1410   29.7810   48.0030 N   0  0  0  0  0  0  0  0  0  0  0  0
   44.7360   27.3340   48.1530 C   0  0  0  0  0  0  0  0  0  0  0  0
   44.3430   27.6400   49.4720 F   0  0  0  0  0  0  0  0  0  0  0  0
   45.7960   26.4650   48.1120 F   0  0  0  0  0  0  0  0  0  0  0  0
   43.6540   26.7680   47.5310 F   0  0  0  0  0  0  0  0  0  0  0  0
   45.4490   27.5870   45.1950 C   0  0  0  0  0  0  0  0  0  0  0  0
   44.4590   26.4800   45.3430 C   0  0  0  0  0  0  0  0  0  0  0  0
   45.9380   26.2360   45.6350 C   0  0  0  0  0  0  0  0  0  0  0  0
   46.6130   32.8010   46.5180 C   0  0  0  0  0  0  0  0  0  0  0  0
   44.5500   35.4730   44.9420 C   0  0  0  0  0  0  0  0  0  0  0  0
   45.1000   35.5060   43.6490 C   0  0  0  0  0  0  0  0  0  0  0  0
   46.1290   34.6290   43.3870 C   0  0  0  0  0  0  0  0  0  0  0  0
   46.5120   33.8260   44.3890 N   0  0  0  0  0  0  0  0  0  0  0  0
   45.9870   33.7990   45.6120 C   0  0  0  0  0  0  0  0  0  0  0  0
   44.9980   34.6330   45.8820 N   0  0  0  0  0  0  0  0  0  0  0  0
   46.7100   34.6580   42.0420 C   0  0  0  0  0  0  0  0  0  0  0  0
   47.4970   33.5330   41.8420 F   0  0  0  0  0  0  0  0  0  0  0  0
   47.6210   35.7170   42.0410 F   0  0  0  0  0  0  0  0  0  0  0  0
   45.7590   34.7520   41.0610 F   0  0  0  0  0  0  0  0  0  0  0  0
   44.6485   32.6234   47.3193 H   0  0  0  0  0  0  0  0  0  0  0  0
   45.9932   32.2222   48.4624 H   0  0  0  0  0  0  0  0  0  0  0  0
   45.9436   30.4852   44.9546 H   0  0  0  0  0  0  0  0  0  0  0  0
   45.7378   28.2726   44.3847 H   0  0  0  0  0  0  0  0  0  0  0  0
   43.7306   26.4989   46.1670 H   0  0  0  0  0  0  0  0  0  0  0  0
   43.7061   26.0148   44.6898 H   0  0  0  0  0  0  0  0  0  0  0  0
   46.5412   25.6177   44.9539 H   0  0  0  0  0  0  0  0  0  0  0  0
   46.5150   25.8515   46.4889 H   0  0  0  0  0  0  0  0  0  0  0  0
   47.3678   33.3121   47.1337 H   0  0  0  0  0  0  0  0  0  0  0  0
   47.0579   32.0183   45.8861 H   0  0  0  0  0  0  0  0  0  0  0  0
   43.7260   36.1588   45.1886 H   0  0  0  0  0  0  0  0  0  0  0  0
   44.7259   36.2001   42.8820 H   0  0  0  0  0  0  0  0  0  0  0  0
  2  1  1  0
  2  6  2  0
  3  4  2  0
  3  2  1  0
  4  5  1  0
  5  6  1  0
  5  7  1  0
  7  8  1  0
  9  7  1  0
 10  7  1  0
 11 12  1  0
 11 13  1  0
 11  4  1  0
 12 13  1  0
 14  1  1  0
 15 20  2  0
 16 15  1  0
 17 16  2  0
 17 18  1  0
 18 19  2  0
 19 20  1  0
 19 14  1  0
 21 17  1  0
 22 21  1  0
 23 21  1  0
 24 21  1  0
  1 25  1  0
  1 26  1  0
  3 27  1  0
 11 28  1  0
 12 29  1  0
 12 30  1  0
 13 31  1  0
 13 32  1  0
 14 33  1  0
 14 34  1  0
 15 35  1  0
 16 36  1  0
M  ISO  8  25   8  26   8  27  14  28  13  29  13  30  13  31  13  32  13
M  ISO  4  33   8  34   8  35  14  36  14
M  END
>  <minimizedAffinity>  (1) 
-5.14791536

>  <minimizedRMSD>  (1) 
0.0477261581

$$$$
