
     RDKit          3D

 35 36  0  0  0  0  0  0  0  0999 V2000
   45.6750   32.1030   47.4520 C   0  0  0  0  0  0  0  0  0  0  0  0
   45.4660   30.6770   47.1110 C   0  0  0  0  0  0  0  0  0  0  0  0
   45.5170   30.0490   45.9040 C   0  0  0  0  0  0  0  0  0  0  0  0
   45.2500   28.7310   46.1440 C   0  0  0  0  0  0  0  0  0  0  0  0
   45.0460   28.5650   47.4440 N   0  0  0  0  0  0  0  0  0  0  0  0
   45.1810   29.7480   48.0130 N   0  0  0  0  0  0  0  0  0  0  0  0
   44.7300   27.3090   48.1490 C   0  0  0  0  0  0  0  0  0  0  0  0
   44.3590   27.6020   49.4720 F   0  0  0  0  0  0  0  0  0  0  0  0
   45.7990   26.4550   48.0730 F   0  0  0  0  0  0  0  0  0  0  0  0
   43.6380   26.7330   47.5500 F   0  0  0  0  0  0  0  0  0  0  0  0
   45.1840   27.6870   45.2540 O   0  0  0  0  0  0  0  0  0  0  0  0
   44.6700   27.3520   42.7400 O   0  0  0  0  0  0  0  0  0  0  0  0
   43.9820   27.3970   44.1070 P   0  0  0  0  0  0  0  0  0  0  0  0
   43.2440   25.8840   44.2980 O   0  0  0  0  0  0  0  0  0  0  0  0
   42.8270   28.6350   44.0020 O   0  0  0  0  0  0  0  0  0  0  0  0
   46.6540   32.7550   46.5150 C   0  0  0  0  0  0  0  0  0  0  0  0
   44.5650   35.4350   44.9920 C   0  0  0  0  0  0  0  0  0  0  0  0
   45.1090   35.4780   43.6860 C   0  0  0  0  0  0  0  0  0  0  0  0
   46.1400   34.6060   43.4020 C   0  0  0  0  0  0  0  0  0  0  0  0
   46.5330   33.7960   44.3950 N   0  0  0  0  0  0  0  0  0  0  0  0
   46.0230   33.7550   45.6230 C   0  0  0  0  0  0  0  0  0  0  0  0
   45.0340   34.5830   45.9100 N   0  0  0  0  0  0  0  0  0  0  0  0
   46.7000   34.6540   42.0540 C   0  0  0  0  0  0  0  0  0  0  0  0
   47.4920   33.5240   41.8370 F   0  0  0  0  0  0  0  0  0  0  0  0
   47.6100   35.7140   42.0520 F   0  0  0  0  0  0  0  0  0  0  0  0
   45.7520   34.7600   41.0820 F   0  0  0  0  0  0  0  0  0  0  0  0
   44.7122   32.6310   47.3873 H   0  0  0  0  0  0  0  0  0  0  0  0
   46.0836   32.1581   48.4718 H   0  0  0  0  0  0  0  0  0  0  0  0
   45.7308   30.5113   44.9290 H   0  0  0  0  0  0  0  0  0  0  0  0
   43.1464   25.6839   45.2626 H   0  0  0  0  0  0  0  0  0  0  0  0
   42.5629   28.9181   44.9132 H   0  0  0  0  0  0  0  0  0  0  0  0
   47.4293   33.2575   47.1120 H   0  0  0  0  0  0  0  0  0  0  0  0
   47.0754   31.9643   45.8769 H   0  0  0  0  0  0  0  0  0  0  0  0
   43.7416   36.1146   45.2567 H   0  0  0  0  0  0  0  0  0  0  0  0
   44.7257   36.1777   42.9287 H   0  0  0  0  0  0  0  0  0  0  0  0
  2  1  1  0
  2  6  2  0
  3  4  2  0
  3  2  1  0
  4  5  1  0
  5  6  1  0
  5  7  1  0
  7  8  1  0
  9  7  1  0
 10  7  1  0
 11  4  1  0
 12 13  2  0
 13 14  1  0
 13 11  1  0
 15 13  1  0
 16  1  1  0
 17 22  2  0
 18 17  1  0
 19 18  2  0
 19 20  1  0
 20 21  2  0
 21 22  1  0
 21 16  1  0
 23 19  1  0
 24 23  1  0
 25 23  1  0
 26 23  1  0
  1 27  1  0
  1 28  1  0
  3 29  1  0
 14 30  1  0
 15 31  1  0
 16 32  1  0
 16 33  1  0
 17 34  1  0
 18 35  1  0
M  ISO  8  27   8  28   8  29  14  30   3  31   3  32   8  33   8  34  14
M  ISO  1  35  14
M  END
>  <minimizedAffinity>  (1) 
-5.00883961

>  <minimizedRMSD>  (1) 
0.512767434

$$$$
