
     RDKit          3D

 44 46  0  0  1  0  0  0  0  0999 V2000
   45.1290   34.5580   44.6660 C   0  0  0  0  0  0  0  0  0  0  0  0
   46.0090   34.3640   43.5650 C   0  0  0  0  0  0  0  0  0  0  0  0
   47.0720   33.5240   43.8030 C   0  0  0  0  0  0  0  0  0  0  0  0
   47.1830   32.9760   45.0120 N   0  0  0  0  0  0  0  0  0  0  0  0
   46.3550   33.1610   46.0400 C   0  0  0  0  0  0  0  0  0  0  0  0
   45.3330   33.9550   45.8530 N   0  0  0  0  0  0  0  0  0  0  0  0
   45.0910   34.0890   41.3650 C   0  0  1  0  0  0  0  0  0  0  0  0
   45.6970   35.0620   42.3190 C   0  0  1  0  0  0  0  0  0  0  0  0
   44.7610   36.0500   42.6090 O   0  0  0  0  0  0  0  0  0  0  0  0
   43.5900   35.7550   41.9660 C   0  0  0  0  0  0  0  0  0  0  0  0
   43.6070   34.3630   41.4540 C   0  0  2  0  0  0  0  0  0  0  0  0
   45.4320   34.2960   40.0270 O   0  0  0  0  0  0  0  0  0  0  0  0
   42.9240   33.4350   42.2290 O   0  0  0  0  0  0  0  0  0  0  0  0
   48.0030   33.2980   42.6990 C   0  0  0  0  0  0  0  0  0  0  0  0
   49.2130   32.7970   43.1790 F   0  0  0  0  0  0  0  0  0  0  0  0
   48.3610   34.5720   42.2240 F   0  0  0  0  0  0  0  0  0  0  0  0
   47.5330   32.4910   41.7330 F   0  0  0  0  0  0  0  0  0  0  0  0
   46.7000   32.4400   47.2740 C   0  0  0  0  0  0  0  0  0  0  0  0
   45.4920   31.8120   47.9530 C   0  0  0  0  0  0  0  0  0  0  0  0
   45.3100   30.4130   47.5800 C   0  0  0  0  0  0  0  0  0  0  0  0
   45.3900   29.8220   46.3590 C   0  0  0  0  0  0  0  0  0  0  0  0
   45.1370   28.4820   46.5390 C   0  0  0  0  0  0  0  0  0  0  0  0
   44.9130   28.2790   47.8370 N   0  0  0  0  0  0  0  0  0  0  0  0
   45.0220   29.4520   48.4470 N   0  0  0  0  0  0  0  0  0  0  0  0
   44.6010   27.0130   48.5180 C   0  0  0  0  0  0  0  0  0  0  0  0
   44.1810   27.2670   49.8330 F   0  0  0  0  0  0  0  0  0  0  0  0
   45.6760   26.1680   48.4380 F   0  0  0  0  0  0  0  0  0  0  0  0
   43.5300   26.4290   47.8620 F   0  0  0  0  0  0  0  0  0  0  0  0
   45.1200   27.4680   45.4900 C   0  0  0  0  0  0  0  0  0  0  0  0
   44.1250   27.2010   44.7780 O   0  0  0  0  0  0  0  0  0  0  0  0
   44.2580   35.2187   44.5445 H   0  0  0  0  0  0  0  0  0  0  0  0
   45.4319   33.0779   41.6324 H   0  0  0  0  0  0  0  0  0  0  0  0
   46.6037   35.5018   41.8780 H   0  0  0  0  0  0  0  0  0  0  0  0
   42.7529   35.8701   42.6702 H   0  0  0  0  0  0  0  0  0  0  0  0
   43.4717   36.4424   41.1154 H   0  0  0  0  0  0  0  0  0  0  0  0
   43.0671   34.2626   40.5009 H   0  0  0  0  0  0  0  0  0  0  0  0
   46.2772   34.8091   39.9774 H   0  0  0  0  0  0  0  0  0  0  0  0
   43.0705   33.6340   43.1877 H   0  0  0  0  0  0  0  0  0  0  0  0
   47.4163   31.6429   47.0257 H   0  0  0  0  0  0  0  0  0  0  0  0
   47.1274   33.1725   47.9746 H   0  0  0  0  0  0  0  0  0  0  0  0
   45.6281   31.8723   49.0429 H   0  0  0  0  0  0  0  0  0  0  0  0
   44.5986   32.3652   47.6276 H   0  0  0  0  0  0  0  0  0  0  0  0
   45.6150   30.3217   45.4052 H   0  0  0  0  0  0  0  0  0  0  0  0
   46.0445   26.8991   45.3124 H   0  0  0  0  0  0  0  0  0  0  0  0
  1  6  2  0
  2  3  2  0
  2  1  1  0
  3  4  1  0
  4  5  2  0
  5 18  1  0
  6  5  1  0
  7 12  1  0
  7 11  1  0
  7  8  1  0
  8  9  1  0
  8  2  1  0
 10  9  1  0
 11 10  1  0
 11 13  1  0
 14 15  1  0
 14  3  1  0
 16 14  1  0
 17 14  1  0
 18 19  1  0
 20 19  1  0
 20 24  2  0
 21 22  2  0
 21 20  1  0
 22 23  1  0
 23 24  1  0
 23 25  1  0
 25 26  1  0
 27 25  1  0
 28 25  1  0
 29 22  1  0
 30 29  2  0
  1 31  1  0
  7 32  1  1
  8 33  1  6
 10 34  1  0
 10 35  1  0
 11 36  1  6
 12 37  1  0
 13 38  1  0
 18 39  1  0
 18 40  1  0
 19 41  1  0
 19 42  1  0
 21 43  1  0
 29 44  1  0
M  ISO  8  31  14  32  13  33  13  34  13  35  13  36  13  37   3  38   3
M  ISO  6  39   8  40   8  41   8  42   8  43  14  44   6
M  END
>  <minimizedAffinity>  (1) 
-6.04069757

>  <minimizedRMSD>  (1) 
1.34388137

$$$$
