
     RDKit          3D

 41 43  0  0  0  0  0  0  0  0999 V2000
   46.6610   33.7890   44.7220 C   0  0  0  0  0  0  0  0  0  0  0  0
   47.3600   32.9190   43.8230 C   0  0  0  0  0  0  0  0  0  0  0  0
   47.7030   31.6840   44.3060 C   0  0  0  0  0  0  0  0  0  0  0  0
   47.3590   31.4010   45.5600 N   0  0  0  0  0  0  0  0  0  0  0  0
   46.7120   32.1980   46.4030 C   0  0  0  0  0  0  0  0  0  0  0  0
   46.3670   33.3870   45.9770 N   0  0  0  0  0  0  0  0  0  0  0  0
   47.5100   33.5610   42.5350 C   0  0  0  0  0  0  0  0  0  0  0  0
   46.9370   33.4130   41.3030 C   0  0  0  0  0  0  0  0  0  0  0  0
   47.3220   34.1630   40.2160 C   0  0  0  0  0  0  0  0  0  0  0  0
   48.3140   35.1170   40.3010 C   0  0  0  0  0  0  0  0  0  0  0  0
   48.9160   35.2970   41.5280 C   0  0  0  0  0  0  0  0  0  0  0  0
   48.5200   34.5320   42.6250 C   0  0  0  0  0  0  0  0  0  0  0  0
   48.4330   30.8200   43.3980 C   0  0  0  0  0  0  0  0  0  0  0  0
   48.9080   29.6990   44.1020 F   0  0  0  0  0  0  0  0  0  0  0  0
   49.6260   31.4920   43.0670 F   0  0  0  0  0  0  0  0  0  0  0  0
   47.7430   30.4250   42.3200 F   0  0  0  0  0  0  0  0  0  0  0  0
   46.4440   31.6530   47.7460 C   0  0  0  0  0  0  0  0  0  0  0  0
   45.0170   31.1940   47.9380 C   0  0  0  0  0  0  0  0  0  0  0  0
   44.8730   29.7460   47.7210 C   0  0  0  0  0  0  0  0  0  0  0  0
   44.8720   29.0310   46.5720 C   0  0  0  0  0  0  0  0  0  0  0  0
   44.7040   27.7130   46.9140 C   0  0  0  0  0  0  0  0  0  0  0  0
   44.6050   27.6380   48.2350 N   0  0  0  0  0  0  0  0  0  0  0  0
   44.7100   28.8760   48.7080 N   0  0  0  0  0  0  0  0  0  0  0  0
   44.4160   26.4370   49.0650 C   0  0  0  0  0  0  0  0  0  0  0  0
   44.0940   26.8160   50.3840 F   0  0  0  0  0  0  0  0  0  0  0  0
   45.5360   25.6510   48.9930 F   0  0  0  0  0  0  0  0  0  0  0  0
   43.3370   25.7440   48.5750 F   0  0  0  0  0  0  0  0  0  0  0  0
   44.6440   26.5930   45.9740 C   0  0  0  0  0  0  0  0  0  0  0  0
   43.5680   26.1940   45.4290 O   0  0  0  0  0  0  0  0  0  0  0  0
   46.3614   34.7929   44.3867 H   0  0  0  0  0  0  0  0  0  0  0  0
   46.1388   32.6669   41.1760 H   0  0  0  0  0  0  0  0  0  0  0  0
   46.8234   33.9967   39.2497 H   0  0  0  0  0  0  0  0  0  0  0  0
   48.6131   35.7107   39.4246 H   0  0  0  0  0  0  0  0  0  0  0  0
   49.7122   36.0473   41.6425 H   0  0  0  0  0  0  0  0  0  0  0  0
   49.0158   34.6950   43.5933 H   0  0  0  0  0  0  0  0  0  0  0  0
   47.1111   30.7943   47.9125 H   0  0  0  0  0  0  0  0  0  0  0  0
   46.6214   32.4658   48.4657 H   0  0  0  0  0  0  0  0  0  0  0  0
   44.7015   31.4330   48.9643 H   0  0  0  0  0  0  0  0  0  0  0  0
   44.3892   31.7137   47.1992 H   0  0  0  0  0  0  0  0  0  0  0  0
   44.9848   29.4318   45.5538 H   0  0  0  0  0  0  0  0  0  0  0  0
   45.5792   26.0694   45.7265 H   0  0  0  0  0  0  0  0  0  0  0  0
  1  6  2  0
  2  3  2  0
  2  1  1  0
  3  4  1  0
  4  5  2  0
  5 17  1  0
  6  5  1  0
  7 12  1  0
  7  2  1  0
  8  7  2  0
  9 10  2  0
  9  8  1  0
 10 11  1  0
 11 12  2  0
 13 14  1  0
 13  3  1  0
 15 13  1  0
 16 13  1  0
 17 18  1  0
 19 18  1  0
 19 23  2  0
 20 21  2  0
 20 19  1  0
 21 22  1  0
 22 23  1  0
 22 24  1  0
 24 25  1  0
 26 24  1  0
 27 24  1  0
 28 21  1  0
 29 28  2  0
  1 30  1  0
  8 31  1  0
  9 32  1  0
 10 33  1  0
 11 34  1  0
 12 35  1  0
 17 36  1  0
 17 37  1  0
 18 38  1  0
 18 39  1  0
 20 40  1  0
 28 41  1  0
M  ISO  8  30  14  31  14  32  14  33  14  34  14  35  14  36   8  37   8
M  ISO  4  38   8  39   8  40  14  41   6
M  END
>  <minimizedAffinity>  (1) 
-5.39356184

>  <minimizedRMSD>  (1) 
3.4032135

$$$$
