
     RDKit          3D

 37 38  0  0  0  0  0  0  0  0999 V2000
   46.6730   32.5660   46.8760 C   0  0  0  0  0  0  0  0  0  0  0  0
   44.7610   35.1180   44.9660 C   0  0  0  0  0  0  0  0  0  0  0  0
   45.4540   35.1020   43.7310 C   0  0  0  0  0  0  0  0  0  0  0  0
   46.5100   34.2490   43.6200 C   0  0  0  0  0  0  0  0  0  0  0  0
   46.7960   33.4970   44.6990 N   0  0  0  0  0  0  0  0  0  0  0  0
   46.1550   33.5020   45.8570 C   0  0  0  0  0  0  0  0  0  0  0  0
   45.1390   34.3160   45.9790 N   0  0  0  0  0  0  0  0  0  0  0  0
   47.2240   34.2450   42.3600 C   0  0  0  0  0  0  0  0  0  0  0  0
   48.4140   33.4980   42.4970 F   0  0  0  0  0  0  0  0  0  0  0  0
   47.7260   35.5490   42.1950 F   0  0  0  0  0  0  0  0  0  0  0  0
   46.5450   33.7690   41.3130 F   0  0  0  0  0  0  0  0  0  0  0  0
   44.9000   36.0410   42.7660 C   0  0  0  0  0  0  0  0  0  0  0  0
   43.8030   35.5520   41.8920 C   0  0  0  0  0  0  0  0  0  0  0  0
   45.5700   31.9230   47.7020 C   0  0  0  0  0  0  0  0  0  0  0  0
   45.3680   30.5150   47.3480 C   0  0  0  0  0  0  0  0  0  0  0  0
   45.4230   29.9070   46.1250 C   0  0  0  0  0  0  0  0  0  0  0  0
   45.1620   28.5710   46.3180 C   0  0  0  0  0  0  0  0  0  0  0  0
   44.9540   28.3830   47.6180 N   0  0  0  0  0  0  0  0  0  0  0  0
   45.0820   29.5640   48.2190 N   0  0  0  0  0  0  0  0  0  0  0  0
   44.6370   27.1230   48.3150 C   0  0  0  0  0  0  0  0  0  0  0  0
   44.2720   27.3890   49.6460 F   0  0  0  0  0  0  0  0  0  0  0  0
   45.7090   26.2700   48.2240 F   0  0  0  0  0  0  0  0  0  0  0  0
   43.5620   26.5440   47.6960 F   0  0  0  0  0  0  0  0  0  0  0  0
   45.1190   27.5520   45.2890 C   0  0  0  0  0  0  0  0  0  0  0  0
   44.0860   27.2610   44.6170 O   0  0  0  0  0  0  0  0  0  0  0  0
   47.3419   33.1182   47.5525 H   0  0  0  0  0  0  0  0  0  0  0  0
   47.2021   31.7601   46.3463 H   0  0  0  0  0  0  0  0  0  0  0  0
   43.9035   35.7940   45.0991 H   0  0  0  0  0  0  0  0  0  0  0  0
   44.5144   36.9040   43.3286 H   0  0  0  0  0  0  0  0  0  0  0  0
   45.7303   36.2631   42.0795 H   0  0  0  0  0  0  0  0  0  0  0  0
   42.9749   35.1828   42.5148 H   0  0  0  0  0  0  0  0  0  0  0  0
   43.4452   36.3758   41.2570 H   0  0  0  0  0  0  0  0  0  0  0  0
   44.1766   34.7352   41.2570 H   0  0  0  0  0  0  0  0  0  0  0  0
   45.8407   31.9862   48.7663 H   0  0  0  0  0  0  0  0  0  0  0  0
   44.6336   32.4625   47.4966 H   0  0  0  0  0  0  0  0  0  0  0  0
   45.6367   30.3965   45.1634 H   0  0  0  0  0  0  0  0  0  0  0  0
   46.0437   26.9950   45.0778 H   0  0  0  0  0  0  0  0  0  0  0  0
  1 14  1  0
  2  7  2  0
  3  2  1  0
  4  3  2  0
  4  5  1  0
  5  6  2  0
  6  7  1  0
  6  1  1  0
  8  9  1  0
  8  4  1  0
 10  8  1  0
 11  8  1  0
 12  3  1  0
 13 12  1  0
 15 14  1  0
 15 19  2  0
 16 17  2  0
 16 15  1  0
 17 18  1  0
 18 19  1  0
 18 20  1  0
 20 21  1  0
 22 20  1  0
 23 20  1  0
 24 17  1  0
 25 24  2  0
  1 26  1  0
  1 27  1  0
  2 28  1  0
 12 29  1  0
 12 30  1  0
 13 31  1  0
 13 32  1  0
 13 33  1  0
 14 34  1  0
 14 35  1  0
 16 36  1  0
 24 37  1  0
M  ISO  8  26   8  27   8  28  14  29   8  30   8  31   8  32   8  33   8
M  ISO  4  34   8  35   8  36  14  37   6
M  END
>  <minimizedAffinity>  (1) 
-5.35189962

>  <minimizedRMSD>  (1) 
0.6874367

$$$$
