
     RDKit          3D

 38 40  0  0  0  0  0  0  0  0999 V2000
   46.5550   31.9490   48.3140 C   0  0  0  0  0  0  0  0  0  0  0  0
   44.8370   34.3310   46.0510 C   0  0  0  0  0  0  0  0  0  0  0  0
   45.5740   34.1310   44.8410 C   0  0  0  0  0  0  0  0  0  0  0  0
   46.5830   33.2190   44.8710 C   0  0  0  0  0  0  0  0  0  0  0  0
   46.7960   32.5900   46.0340 N   0  0  0  0  0  0  0  0  0  0  0  0
   46.1290   32.7600   47.1650 C   0  0  0  0  0  0  0  0  0  0  0  0
   45.1440   33.6410   47.1580 N   0  0  0  0  0  0  0  0  0  0  0  0
   45.0570   34.9900   43.7920 C   0  0  0  0  0  0  0  0  0  0  0  0
   45.1090   36.3370   43.5410 C   0  0  0  0  0  0  0  0  0  0  0  0
   44.4310   36.7190   42.4750 N   0  0  0  0  0  0  0  0  0  0  0  0
   43.9010   35.6140   41.9820 C   0  0  0  0  0  0  0  0  0  0  0  0
   44.2770   34.5990   42.7690 N   0  0  0  0  0  0  0  0  0  0  0  0
   47.3140   33.0150   43.6350 C   0  0  0  0  0  0  0  0  0  0  0  0
   48.3500   32.0750   43.8580 F   0  0  0  0  0  0  0  0  0  0  0  0
   48.0290   34.1940   43.4040 F   0  0  0  0  0  0  0  0  0  0  0  0
   46.5640   32.5880   42.5970 F   0  0  0  0  0  0  0  0  0  0  0  0
   45.4270   31.2240   48.9890 C   0  0  0  0  0  0  0  0  0  0  0  0
   45.1260   29.9360   48.3540 C   0  0  0  0  0  0  0  0  0  0  0  0
   44.9860   29.6330   47.0370 C   0  0  0  0  0  0  0  0  0  0  0  0
   44.7040   28.2890   46.9620 C   0  0  0  0  0  0  0  0  0  0  0  0
   44.6760   27.8050   48.2000 N   0  0  0  0  0  0  0  0  0  0  0  0
   44.9310   28.8080   49.0290 N   0  0  0  0  0  0  0  0  0  0  0  0
   44.4140   26.4230   48.6280 C   0  0  0  0  0  0  0  0  0  0  0  0
   44.3170   26.3600   50.0240 F   0  0  0  0  0  0  0  0  0  0  0  0
   45.3650   25.5900   48.1120 F   0  0  0  0  0  0  0  0  0  0  0  0
   43.1720   26.0510   48.1310 F   0  0  0  0  0  0  0  0  0  0  0  0
   44.4770   27.5390   45.7350 C   0  0  0  0  0  0  0  0  0  0  0  0
   43.3300   27.4010   45.2050 O   0  0  0  0  0  0  0  0  0  0  0  0
   47.0319   32.6126   49.0503 H   0  0  0  0  0  0  0  0  0  0  0  0
   47.2464   31.1842   47.9305 H   0  0  0  0  0  0  0  0  0  0  0  0
   44.0113   35.0574   46.0727 H   0  0  0  0  0  0  0  0  0  0  0  0
   45.6689   37.0403   44.1750 H   0  0  0  0  0  0  0  0  0  0  0  0
   44.3354   37.6758   42.1058 H   0  0  0  0  0  0  0  0  0  0  0  0
   43.2658   35.5413   41.0869 H   0  0  0  0  0  0  0  0  0  0  0  0
   45.7017   31.0439   50.0388 H   0  0  0  0  0  0  0  0  0  0  0  0
   44.5291   31.8542   48.9078 H   0  0  0  0  0  0  0  0  0  0  0  0
   45.0803   30.3302   46.1914 H   0  0  0  0  0  0  0  0  0  0  0  0
   45.3407   27.0686   45.2423 H   0  0  0  0  0  0  0  0  0  0  0  0
  1 17  1  0
  2  7  2  0
  3  4  2  0
  3  2  1  0
  4  5  1  0
  5  6  2  0
  6  1  1  0
  7  6  1  0
  8  3  1  0
  9  8  2  0
 10  9  1  0
 11 10  1  0
 11 12  2  0
 12  8  1  0
 13 14  1  0
 13  4  1  0
 15 13  1  0
 16 13  1  0
 18 17  1  0
 18 22  2  0
 19 18  1  0
 20 19  2  0
 20 21  1  0
 21 23  1  0
 21 22  1  0
 23 24  1  0
 25 23  1  0
 26 23  1  0
 27 20  1  0
 28 27  2  0
  1 29  1  0
  1 30  1  0
  2 31  1  0
  9 32  1  0
 10 33  1  0
 11 34  1  0
 17 35  1  0
 17 36  1  0
 19 37  1  0
 27 38  1  0
M  ISO  8  29   8  30   8  31  14  32  14  33   9  34  14  35   8  36   8
M  ISO  2  37  14  38   6
M  END
>  <minimizedAffinity>  (1) 
-5.31131315

>  <minimizedRMSD>  (1) 
1.77858925

$$$$
