
     RDKit          3D

 47 49  0  0  0  0  0  0  0  0999 V2000
   47.1620   32.4430   47.5000 C   0  0  0  0  0  0  0  0  0  0  0  0
   45.0620   34.1500   44.9650 C   0  0  0  0  0  0  0  0  0  0  0  0
   45.7970   33.9230   43.7740 C   0  0  0  0  0  0  0  0  0  0  0  0
   46.9620   33.2000   43.9210 C   0  0  0  0  0  0  0  0  0  0  0  0
   47.2830   32.7880   45.1600 N   0  0  0  0  0  0  0  0  0  0  0  0
   46.5920   33.0030   46.2670 C   0  0  0  0  0  0  0  0  0  0  0  0
   45.4820   33.6860   46.1630 N   0  0  0  0  0  0  0  0  0  0  0  0
   45.2830   34.4560   42.5030 C   0  0  0  0  0  0  0  0  0  0  0  0
   44.5650   33.4510   41.6470 C   0  0  0  0  0  0  0  0  0  0  0  0
   43.0830   33.7680   41.5330 C   0  0  0  0  0  0  0  0  0  0  0  0
   42.8470   35.0990   40.8700 C   0  0  0  0  0  0  0  0  0  0  0  0
   43.9310   36.0990   41.2970 C   0  0  0  0  0  0  0  0  0  0  0  0
   44.3520   35.6520   42.6840 C   0  0  0  0  0  0  0  0  0  0  0  0
   47.7570   32.9400   42.7240 C   0  0  0  0  0  0  0  0  0  0  0  0
   49.0710   32.6290   43.0640 F   0  0  0  0  0  0  0  0  0  0  0  0
   47.8870   34.1730   42.0630 F   0  0  0  0  0  0  0  0  0  0  0  0
   47.2330   31.9740   41.9370 F   0  0  0  0  0  0  0  0  0  0  0  0
   46.1390   31.6890   48.3370 C   0  0  0  0  0  0  0  0  0  0  0  0
   45.9740   30.3070   47.8910 C   0  0  0  0  0  0  0  0  0  0  0  0
   46.4610   29.6910   46.7790 C   0  0  0  0  0  0  0  0  0  0  0  0
   46.0270   28.3890   46.8140 C   0  0  0  0  0  0  0  0  0  0  0  0
   45.3000   28.2310   47.9190 N   0  0  0  0  0  0  0  0  0  0  0  0
   45.2790   29.3970   48.5560 N   0  0  0  0  0  0  0  0  0  0  0  0
   44.6240   27.0120   48.3920 C   0  0  0  0  0  0  0  0  0  0  0  0
   44.0750   27.2310   49.6590 F   0  0  0  0  0  0  0  0  0  0  0  0
   45.5130   25.9600   48.3770 F   0  0  0  0  0  0  0  0  0  0  0  0
   43.5940   26.7240   47.5260 F   0  0  0  0  0  0  0  0  0  0  0  0
   46.3170   27.3680   45.8140 C   0  0  0  0  0  0  0  0  0  0  0  0
   45.4980   26.9950   44.9310 O   0  0  0  0  0  0  0  0  0  0  0  0
   47.5704   33.2670   48.1035 H   0  0  0  0  0  0  0  0  0  0  0  0
   47.9416   31.7247   47.2063 H   0  0  0  0  0  0  0  0  0  0  0  0
   44.1228   34.7202   44.9125 H   0  0  0  0  0  0  0  0  0  0  0  0
   46.2043   34.7650   41.9876 H   0  0  0  0  0  0  0  0  0  0  0  0
   45.0095   33.4571   40.6408 H   0  0  0  0  0  0  0  0  0  0  0  0
   44.6694   32.4622   42.1175 H   0  0  0  0  0  0  0  0  0  0  0  0
   42.5952   32.9820   40.9379 H   0  0  0  0  0  0  0  0  0  0  0  0
   42.6629   33.8119   42.5487 H   0  0  0  0  0  0  0  0  0  0  0  0
   41.8599   35.4835   41.1663 H   0  0  0  0  0  0  0  0  0  0  0  0
   42.8852   34.9699   39.7783 H   0  0  0  0  0  0  0  0  0  0  0  0
   44.7843   36.0639   40.6037 H   0  0  0  0  0  0  0  0  0  0  0  0
   43.5629   37.1356   41.2906 H   0  0  0  0  0  0  0  0  0  0  0  0
   43.4691   35.3583   43.2706 H   0  0  0  0  0  0  0  0  0  0  0  0
   44.8587   36.4665   43.2224 H   0  0  0  0  0  0  0  0  0  0  0  0
   46.4717   31.6859   49.3855 H   0  0  0  0  0  0  0  0  0  0  0  0
   45.1702   32.1982   48.2269 H   0  0  0  0  0  0  0  0  0  0  0  0
   47.0854   30.1504   45.9985 H   0  0  0  0  0  0  0  0  0  0  0  0
   47.3099   26.8949   45.8311 H   0  0  0  0  0  0  0  0  0  0  0  0
  1 18  1  0
  2  7  2  0
  3  4  2  0
  3  2  1  0
  4  5  1  0
  5  6  2  0
  6  1  1  0
  7  6  1  0
  8 13  1  0
  8  3  1  0
  9  8  1  0
 10  9  1  0
 11 12  1  0
 11 10  1  0
 12 13  1  0
 14 15  1  0
 14  4  1  0
 16 14  1  0
 17 14  1  0
 19 18  1  0
 19 23  2  0
 20 21  2  0
 20 19  1  0
 21 22  1  0
 22 24  1  0
 22 23  1  0
 24 25  1  0
 26 24  1  0
 27 24  1  0
 28 21  1  0
 29 28  2  0
  1 30  1  0
  1 31  1  0
  2 32  1  0
  8 33  1  0
  9 34  1  0
  9 35  1  0
 10 36  1  0
 10 37  1  0
 11 38  1  0
 11 39  1  0
 12 40  1  0
 12 41  1  0
 13 42  1  0
 13 43  1  0
 18 44  1  0
 18 45  1  0
 20 46  1  0
 28 47  1  0
M  ISO  8  30   8  31   8  32  14  33  13  34  13  35  13  36  13  37  13
M  ISO  8  38  13  39  13  40  13  41  13  42  13  43  13  44   8  45   8
M  ISO  2  46  14  47   6
M  END
>  <minimizedAffinity>  (1) 
-4.91778946

>  <minimizedRMSD>  (1) 
1.66399908

$$$$
