
     RDKit          3D

 43 45  0  0  0  0  0  0  0  0999 V2000
   46.7760   32.0360   48.0820 C   0  0  0  0  0  0  0  0  0  0  0  0
   44.9280   34.2590   45.7480 C   0  0  0  0  0  0  0  0  0  0  0  0
   45.6900   34.0740   44.5510 C   0  0  0  0  0  0  0  0  0  0  0  0
   46.7630   33.2230   44.6160 C   0  0  0  0  0  0  0  0  0  0  0  0
   46.9900   32.6480   45.7950 N   0  0  0  0  0  0  0  0  0  0  0  0
   46.2990   32.8050   46.9110 C   0  0  0  0  0  0  0  0  0  0  0  0
   45.2650   33.6150   46.8790 N   0  0  0  0  0  0  0  0  0  0  0  0
   45.2010   34.8330   43.4510 N   0  0  0  0  0  0  0  0  0  0  0  0
   45.5060   36.2040   43.0200 C   0  0  0  0  0  0  0  0  0  0  0  0
   44.3980   36.4210   41.9980 C   0  0  0  0  0  0  0  0  0  0  0  0
   44.1590   35.0260   41.4040 C   0  0  0  0  0  0  0  0  0  0  0  0
   44.2380   34.1510   42.6060 C   0  0  0  0  0  0  0  0  0  0  0  0
   47.5250   33.0470   43.3940 C   0  0  0  0  0  0  0  0  0  0  0  0
   48.5850   32.1500   43.6310 F   0  0  0  0  0  0  0  0  0  0  0  0
   48.1980   34.2600   43.1730 F   0  0  0  0  0  0  0  0  0  0  0  0
   46.8050   32.6170   42.3370 F   0  0  0  0  0  0  0  0  0  0  0  0
   45.6500   31.3260   48.8190 C   0  0  0  0  0  0  0  0  0  0  0  0
   45.4320   29.9660   48.3030 C   0  0  0  0  0  0  0  0  0  0  0  0
   45.6500   29.4520   47.0700 C   0  0  0  0  0  0  0  0  0  0  0  0
   45.2800   28.1300   47.1100 C   0  0  0  0  0  0  0  0  0  0  0  0
   44.8540   27.8570   48.3350 N   0  0  0  0  0  0  0  0  0  0  0  0
   44.9510   28.9760   49.0430 N   0  0  0  0  0  0  0  0  0  0  0  0
   44.3550   26.5770   48.8630 C   0  0  0  0  0  0  0  0  0  0  0  0
   43.8540   26.7530   50.1570 F   0  0  0  0  0  0  0  0  0  0  0  0
   45.3600   25.6350   48.8050 F   0  0  0  0  0  0  0  0  0  0  0  0
   43.3050   26.1670   48.0800 F   0  0  0  0  0  0  0  0  0  0  0  0
   45.3510   27.1930   45.9940 C   0  0  0  0  0  0  0  0  0  0  0  0
   44.3990   26.9470   45.2180 O   0  0  0  0  0  0  0  0  0  0  0  0
   47.2709   32.7281   48.7792 H   0  0  0  0  0  0  0  0  0  0  0  0
   47.4681   31.2650   47.7125 H   0  0  0  0  0  0  0  0  0  0  0  0
   44.0593   34.9338   45.7427 H   0  0  0  0  0  0  0  0  0  0  0  0
   45.4359   36.9179   43.8540 H   0  0  0  0  0  0  0  0  0  0  0  0
   46.5250   36.3486   42.6319 H   0  0  0  0  0  0  0  0  0  0  0  0
   43.4869   36.7998   42.4842 H   0  0  0  0  0  0  0  0  0  0  0  0
   44.6678   37.1649   41.2339 H   0  0  0  0  0  0  0  0  0  0  0  0
   43.1697   34.9601   40.9277 H   0  0  0  0  0  0  0  0  0  0  0  0
   44.8753   34.7551   40.6144 H   0  0  0  0  0  0  0  0  0  0  0  0
   43.2600   34.0758   43.1039 H   0  0  0  0  0  0  0  0  0  0  0  0
   44.5291   33.1172   42.3682 H   0  0  0  0  0  0  0  0  0  0  0  0
   45.9064   31.2648   49.8870 H   0  0  0  0  0  0  0  0  0  0  0  0
   44.7252   31.9018   48.6669 H   0  0  0  0  0  0  0  0  0  0  0  0
   46.0489   29.9922   46.1988 H   0  0  0  0  0  0  0  0  0  0  0  0
   46.3026   26.6684   45.8229 H   0  0  0  0  0  0  0  0  0  0  0  0
  1 17  1  0
  2  7  2  0
  3  4  2  0
  3  2  1  0
  4  5  1  0
  5  6  2  0
  6  1  1  0
  7  6  1  0
  8  3  1  0
  9  8  1  0
 10  9  1  0
 11 10  1  0
 11 12  1  0
 12  8  1  0
 13 14  1  0
 13  4  1  0
 15 13  1  0
 16 13  1  0
 18 17  1  0
 18 22  2  0
 19 20  2  0
 19 18  1  0
 20 21  1  0
 21 23  1  0
 21 22  1  0
 23 24  1  0
 25 23  1  0
 26 23  1  0
 27 20  1  0
 28 27  2  0
  1 29  1  0
  1 30  1  0
  2 31  1  0
  9 32  1  0
  9 33  1  0
 10 34  1  0
 10 35  1  0
 11 36  1  0
 11 37  1  0
 12 38  1  0
 12 39  1  0
 17 40  1  0
 17 41  1  0
 19 42  1  0
 27 43  1  0
M  ISO  8  29   8  30   8  31  14  32  13  33  13  34  13  35  13  36  13
M  ISO  7  37  13  38  13  39  13  40   8  41   8  42  14  43   6
M  END
>  <minimizedAffinity>  (1) 
-4.74674368

>  <minimizedRMSD>  (1) 
1.70698988

$$$$
