
     RDKit          3D

 26 27  0  0  0  0  0  0  0  0999 V2000
   44.3570   35.8960   43.7400 C   0  0  0  0  0  0  0  0  0  0  0  0
   44.2590   35.0820   42.6200 C   0  0  0  0  0  0  0  0  0  0  0  0
   44.6890   33.7580   42.7440 C   0  0  0  0  0  0  0  0  0  0  0  0
   45.1730   33.3610   43.9410 N   0  0  0  0  0  0  0  0  0  0  0  0
   45.2580   34.1710   45.0120 C   0  0  0  0  0  0  0  0  0  0  0  0
   44.8490   35.4640   44.9350 N   0  0  0  0  0  0  0  0  0  0  0  0
   43.7020   35.7200   41.4170 C   0  0  0  0  0  0  0  0  0  0  0  0
   42.4390   35.0150   41.0010 C   0  0  0  0  0  0  0  0  0  0  0  0
   42.2140   35.0630   39.5020 C   0  0  0  0  0  0  0  0  0  0  0  0
   40.8180   34.4660   39.4310 C   0  0  0  0  0  0  0  0  0  0  0  0
   40.1040   35.2210   40.5350 C   0  0  0  0  0  0  0  0  0  0  0  0
   41.1980   35.7180   41.4870 C   0  0  0  0  0  0  0  0  0  0  0  0
   44.0212   36.9404   43.6590 H   0  0  0  0  0  0  0  0  0  0  0  0
   44.6350   33.0616   41.8942 H   0  0  0  0  0  0  0  0  0  0  0  0
   45.6623   33.7826   45.9584 H   0  0  0  0  0  0  0  0  0  0  0  0
   43.4763   36.7744   41.6347 H   0  0  0  0  0  0  0  0  0  0  0  0
   44.4370   35.6577   40.6009 H   0  0  0  0  0  0  0  0  0  0  0  0
   42.5780   34.0029   41.4088 H   0  0  0  0  0  0  0  0  0  0  0  0
   42.2384   36.0933   39.1174 H   0  0  0  0  0  0  0  0  0  0  0  0
   42.9738   34.5426   38.9005 H   0  0  0  0  0  0  0  0  0  0  0  0
   40.3519   34.6516   38.4521 H   0  0  0  0  0  0  0  0  0  0  0  0
   40.7935   33.3727   39.5497 H   0  0  0  0  0  0  0  0  0  0  0  0
   39.5465   36.0720   40.1167 H   0  0  0  0  0  0  0  0  0  0  0  0
   39.3788   34.5791   41.0566 H   0  0  0  0  0  0  0  0  0  0  0  0
   40.9704   35.4388   42.5263 H   0  0  0  0  0  0  0  0  0  0  0  0
   41.2997   36.8133   41.4856 H   0  0  0  0  0  0  0  0  0  0  0  0
  1  6  2  0
  2  3  2  0
  2  1  1  0
  3  4  1  0
  4  5  2  0
  6  5  1  0
  7  2  1  0
  8  7  1  0
  8 12  1  0
  9  8  1  0
 10  9  1  0
 10 11  1  0
 11 12  1  0
  1 13  1  0
  3 14  1  0
  5 15  1  0
  7 16  1  0
  7 17  1  0
  8 18  1  0
  9 19  1  0
  9 20  1  0
 10 21  1  0
 10 22  1  0
 11 23  1  0
 11 24  1  0
 12 25  1  0
 12 26  1  0
M  ISO  8  13  14  14  14  15  14  16   8  17   8  18  13  19  13  20  13
M  ISO  6  21  13  22  13  23  13  24  13  25  13  26  13
M  END
>  <minimizedAffinity>  (1) 
-4.08007145

>  <minimizedRMSD>  (1) 
0.931712449

$$$$
