
     RDKit          3D

 21 21  0  0  0  0  0  0  0  0999 V2000
   43.3830   35.3490   41.9190 C   0  0  0  0  0  0  0  0  0  0  0  0
   44.2320   35.5700   44.1850 C   0  0  0  0  0  0  0  0  0  0  0  0
   44.1760   34.7760   43.0440 C   0  0  0  0  0  0  0  0  0  0  0  0
   44.8440   33.5460   43.0440 C   0  0  0  0  0  0  0  0  0  0  0  0
   45.5020   33.2190   44.1700 N   0  0  0  0  0  0  0  0  0  0  0  0
   45.5490   33.9950   45.2640 C   0  0  0  0  0  0  0  0  0  0  0  0
   44.9150   35.1860   45.2970 N   0  0  0  0  0  0  0  0  0  0  0  0
   42.0700   35.7450   42.3310 N   0  0  0  0  0  0  0  0  0  0  0  0
   40.8920   34.8660   41.4400 S   0  0  0  0  0  0  0  0  0  0  0  0
   40.0330   35.8480   40.6550 O   0  0  0  0  0  0  0  0  0  0  0  0
   41.5240   33.9240   40.4640 O   0  0  0  0  0  0  0  0  0  0  0  0
   39.8780   34.0060   42.4780 O   0  0  0  0  0  0  0  0  0  0  0  0
   43.2925   34.5910   41.1270 H   0  0  0  0  0  0  0  0  0  0  0  0
   43.9084   36.2449   41.5567 H   0  0  0  0  0  0  0  0  0  0  0  0
   43.7083   36.5373   44.1881 H   0  0  0  0  0  0  0  0  0  0  0  0
   44.8313   32.8811   42.1678 H   0  0  0  0  0  0  0  0  0  0  0  0
   46.1120   33.6556   46.1459 H   0  0  0  0  0  0  0  0  0  0  0  0
   41.9537   35.5513   43.3359 H   0  0  0  0  0  0  0  0  0  0  0  0
   39.5300   36.4230   41.2846 H   0  0  0  0  0  0  0  0  0  0  0  0
   42.0025   33.2107   40.9563 H   0  0  0  0  0  0  0  0  0  0  0  0
   40.1177   34.2093   43.4168 H   0  0  0  0  0  0  0  0  0  0  0  0
  1  8  1  0
  1  3  1  0
  2  7  2  0
  3  4  2  0
  3  2  1  0
  4  5  1  0
  5  6  2  0
  6  7  1  0
  9  8  1  0
  9 12  1  0
 10  9  1  0
 11  9  1  0
  1 13  1  0
  1 14  1  0
  2 15  1  0
  4 16  1  0
  6 17  1  0
  8 18  1  0
 10 19  1  0
 11 20  1  0
 12 21  1  0
M  ISO  8  13   8  14   8  15  14  16  14  17  14  18   5  19   3  20   3
M  ISO  1  21   3
M  END
>  <minimizedAffinity>  (1) 
-4.07519579

>  <minimizedRMSD>  (1) 
1.83334339

$$$$
