
     RDKit          3D

 21 22  0  0  0  0  0  0  0  0999 V2000
   44.0640   35.7070   41.7710 C   0  0  0  0  0  0  0  0  0  0  0  0
   44.3260   35.8580   44.1940 C   0  0  0  0  0  0  0  0  0  0  0  0
   44.5060   35.0860   43.0310 C   0  0  0  0  0  0  0  0  0  0  0  0
   45.0750   33.8330   43.1870 C   0  0  0  0  0  0  0  0  0  0  0  0
   45.4290   33.4100   44.4290 N   0  0  0  0  0  0  0  0  0  0  0  0
   45.2360   34.1870   45.5130 C   0  0  0  0  0  0  0  0  0  0  0  0
   44.6830   35.4230   45.4150 N   0  0  0  0  0  0  0  0  0  0  0  0
   42.7990   35.0460   41.3140 C   0  0  0  0  0  0  0  0  0  0  0  0
   42.8550   34.0910   40.3070 C   0  0  0  0  0  0  0  0  0  0  0  0
   41.6550   33.5100   39.9210 C   0  0  0  0  0  0  0  0  0  0  0  0
   40.4960   33.8610   40.4990 N   0  0  0  0  0  0  0  0  0  0  0  0
   40.4550   34.7920   41.4760 C   0  0  0  0  0  0  0  0  0  0  0  0
   41.5980   35.3530   41.8530 N   0  0  0  0  0  0  0  0  0  0  0  0
   43.8809   36.7794   41.9336 H   0  0  0  0  0  0  0  0  0  0  0  0
   44.8434   35.5839   41.0046 H   0  0  0  0  0  0  0  0  0  0  0  0
   43.8753   36.8570   44.1002 H   0  0  0  0  0  0  0  0  0  0  0  0
   45.2390   33.1856   42.3129 H   0  0  0  0  0  0  0  0  0  0  0  0
   45.5341   33.8102   46.5025 H   0  0  0  0  0  0  0  0  0  0  0  0
   43.8080   33.8077   39.8363 H   0  0  0  0  0  0  0  0  0  0  0  0
   41.6541   32.7484   39.1273 H   0  0  0  0  0  0  0  0  0  0  0  0
   39.5024   35.0775   41.9461 H   0  0  0  0  0  0  0  0  0  0  0  0
  1  3  1  0
  2  7  2  0
  3  4  2  0
  3  2  1  0
  4  5  1  0
  5  6  2  0
  7  6  1  0
  8  1  1  0
  8 13  1  0
  9  8  2  0
 10  9  1  0
 10 11  2  0
 11 12  1  0
 12 13  2  0
  1 14  1  0
  1 15  1  0
  2 16  1  0
  4 17  1  0
  6 18  1  0
  9 19  1  0
 10 20  1  0
 12 21  1  0
M  ISO  8  14   8  15   8  16  14  17  14  18  14  19  14  20  14  21  14
M  END
>  <minimizedAffinity>  (1) 
-4.00635052

>  <minimizedRMSD>  (1) 
0.628585577

$$$$
