
     RDKit          3D

 36 39  0  0  0  0  0  0  0  0999 V2000
   44.3320   35.4420   42.9560 C   0  0  0  0  0  0  0  0  0  0  0  0
   43.9040   34.8580   41.7610 C   0  0  0  0  0  0  0  0  0  0  0  0
   44.1390   33.5130   41.5930 C   0  0  0  0  0  0  0  0  0  0  0  0
   44.7580   32.8300   42.5680 N   0  0  0  0  0  0  0  0  0  0  0  0
   45.1610   33.4260   43.7190 C   0  0  0  0  0  0  0  0  0  0  0  0
   44.9540   34.7530   43.9360 N   0  0  0  0  0  0  0  0  0  0  0  0
   45.9460   31.2780   44.6030 C   0  0  0  0  0  0  0  0  0  0  0  0
   45.8400   32.6430   44.7700 C   0  0  0  0  0  0  0  0  0  0  0  0
   46.3520   33.2670   45.8880 C   0  0  0  0  0  0  0  0  0  0  0  0
   46.9840   32.4790   46.8500 C   0  0  0  0  0  0  0  0  0  0  0  0
   47.5330   32.9290   47.9890 N   0  0  0  0  0  0  0  0  0  0  0  0
   48.0270   31.8300   48.6130 C   0  0  0  0  0  0  0  0  0  0  0  0
   47.7650   30.7480   47.8380 N   0  0  0  0  0  0  0  0  0  0  0  0
   47.1100   31.1090   46.7190 C   0  0  0  0  0  0  0  0  0  0  0  0
   46.5800   30.5620   45.5890 C   0  0  0  0  0  0  0  0  0  0  0  0
   43.2450   35.7550   40.8090 C   0  0  0  0  0  0  0  0  0  0  0  0
   41.8900   35.2670   40.5640 N   0  0  0  0  0  0  0  0  0  0  0  0
   41.0520   35.0630   41.5830 C   0  0  0  0  0  0  0  0  0  0  0  0
   39.7790   34.6010   41.3000 C   0  0  0  0  0  0  0  0  0  0  0  0
   39.3890   34.3590   39.9980 C   0  0  0  0  0  0  0  0  0  0  0  0
   38.2290   33.9380   39.7630 O   0  0  0  0  0  0  0  0  0  0  0  0
   40.2700   34.5800   39.0090 N   0  0  0  0  0  0  0  0  0  0  0  0
   41.5160   35.0310   39.2740 C   0  0  0  0  0  0  0  0  0  0  0  0
   42.2860   35.2150   38.2880 O   0  0  0  0  0  0  0  0  0  0  0  0
   44.1531   36.5170   43.1056 H   0  0  0  0  0  0  0  0  0  0  0  0
   43.8233   33.0037   40.6706 H   0  0  0  0  0  0  0  0  0  0  0  0
   45.5371   30.7802   43.7114 H   0  0  0  0  0  0  0  0  0  0  0  0
   46.2645   34.3558   46.0176 H   0  0  0  0  0  0  0  0  0  0  0  0
   47.5713   33.9036   48.3199 H   0  0  0  0  0  0  0  0  0  0  0  0
   48.5499   31.8185   49.5807 H   0  0  0  0  0  0  0  0  0  0  0  0
   46.6657   29.4733   45.4575 H   0  0  0  0  0  0  0  0  0  0  0  0
   43.2020   36.7714   41.2274 H   0  0  0  0  0  0  0  0  0  0  0  0
   43.8100   35.7796   39.8655 H   0  0  0  0  0  0  0  0  0  0  0  0
   41.3652   35.2570   42.6195 H   0  0  0  0  0  0  0  0  0  0  0  0
   39.0695   34.4245   42.1218 H   0  0  0  0  0  0  0  0  0  0  0  0
   39.9917   34.4030   38.0332 H   0  0  0  0  0  0  0  0  0  0  0  0
  1  6  2  0
  2  1  1  0
  3  2  2  0
  3  4  1  0
  4  5  2  0
  5  6  1  0
  5  8  1  0
  7  8  2  0
  7 15  1  0
  8  9  1  0
  9 10  2  0
 10 11  1  0
 11 12  1  0
 13 12  2  0
 14 10  1  0
 14 13  1  0
 15 14  2  0
 16  2  1  0
 17 16  1  0
 17 18  1  0
 19 18  2  0
 20 19  1  0
 21 20  2  0
 22 23  1  0
 22 20  1  0
 23 17  1  0
 24 23  2  0
  1 25  1  0
  3 26  1  0
  7 27  1  0
  9 28  1  0
 11 29  1  0
 12 30  1  0
 15 31  1  0
 16 32  1  0
 16 33  1  0
 18 34  1  0
 19 35  1  0
 22 36  1  0
M  ISO  8  25  14  26  14  27  14  28  14  29   9  30  14  31  14  32   8
M  ISO  4  33   8  34  14  35  14  36   9
M  END
>  <minimizedAffinity>  (1) 
-6.35140419

>  <minimizedRMSD>  (1) 
2.55192733

$$$$
