
     RDKit          3D

 33 35  0  0  0  0  0  0  0  0999 V2000
   44.5980   35.6180   43.8530 C   0  0  0  0  0  0  0  0  0  0  0  0
   44.4160   34.9140   42.6600 C   0  0  0  0  0  0  0  0  0  0  0  0
   44.7320   33.5740   42.6930 C   0  0  0  0  0  0  0  0  0  0  0  0
   45.1860   33.0300   43.8340 N   0  0  0  0  0  0  0  0  0  0  0  0
   45.3490   33.7440   44.9660 C   0  0  0  0  0  0  0  0  0  0  0  0
   45.0620   35.0520   45.0080 N   0  0  0  0  0  0  0  0  0  0  0  0
   44.2060   34.1100   47.5250 F   0  0  0  0  0  0  0  0  0  0  0  0
   45.2660   33.2620   47.3880 C   0  0  0  0  0  0  0  0  0  0  0  0
   45.8490   33.0590   46.1540 C   0  0  0  0  0  0  0  0  0  0  0  0
   46.9180   32.1940   46.0520 C   0  0  0  0  0  0  0  0  0  0  0  0
   47.4160   31.5330   47.1440 C   0  0  0  0  0  0  0  0  0  0  0  0
   46.8600   31.7090   48.3980 C   0  0  0  0  0  0  0  0  0  0  0  0
   45.7930   32.5780   48.4650 C   0  0  0  0  0  0  0  0  0  0  0  0
   43.9130   35.6770   41.5280 C   0  0  0  0  0  0  0  0  0  0  0  0
   42.6220   35.1360   41.1330 N   0  0  0  0  0  0  0  0  0  0  0  0
   41.5290   35.4200   41.8400 C   0  0  0  0  0  0  0  0  0  0  0  0
   40.3240   34.8820   41.4260 C   0  0  0  0  0  0  0  0  0  0  0  0
   40.2640   34.0750   40.3130 C   0  0  0  0  0  0  0  0  0  0  0  0
   39.1500   33.5950   39.9560 O   0  0  0  0  0  0  0  0  0  0  0  0
   41.3880   33.8080   39.6240 N   0  0  0  0  0  0  0  0  0  0  0  0
   42.5760   34.3350   40.0270 C   0  0  0  0  0  0  0  0  0  0  0  0
   43.5880   34.0460   39.3390 O   0  0  0  0  0  0  0  0  0  0  0  0
   44.3537   36.6905   43.8637 H   0  0  0  0  0  0  0  0  0  0  0  0
   44.6135   32.9541   41.7920 H   0  0  0  0  0  0  0  0  0  0  0  0
   47.3830   32.0304   45.0686 H   0  0  0  0  0  0  0  0  0  0  0  0
   48.2711   30.8520   47.0214 H   0  0  0  0  0  0  0  0  0  0  0  0
   47.2456   31.1877   49.2865 H   0  0  0  0  0  0  0  0  0  0  0  0
   45.3271   32.7385   49.4484 H   0  0  0  0  0  0  0  0  0  0  0  0
   43.7989   36.7327   41.8154 H   0  0  0  0  0  0  0  0  0  0  0  0
   44.6195   35.6078   40.6878 H   0  0  0  0  0  0  0  0  0  0  0  0
   41.5835   36.0652   42.7293 H   0  0  0  0  0  0  0  0  0  0  0  0
   39.4060   35.1010   41.9911 H   0  0  0  0  0  0  0  0  0  0  0  0
   41.3494   33.2040   38.7905 H   0  0  0  0  0  0  0  0  0  0  0  0
  1  6  2  0
  2  3  2  0
  2  1  1  0
  3  4  1  0
  4  5  2  0
  5  6  1  0
  5  9  1  0
  8  7  1  0
  8 13  2  0
  9  8  1  0
 10  9  2  0
 10 11  1  0
 11 12  2  0
 12 13  1  0
 14  2  1  0
 15 14  1  0
 15 16  1  0
 17 16  2  0
 18 17  1  0
 19 18  2  0
 20 21  1  0
 20 18  1  0
 21 15  1  0
 22 21  2  0
  1 23  1  0
  3 24  1  0
 10 25  1  0
 11 26  1  0
 12 27  1  0
 13 28  1  0
 14 29  1  0
 14 30  1  0
 16 31  1  0
 17 32  1  0
 20 33  1  0
M  ISO  8  23  14  24  14  25  14  26  14  27  14  28  14  29   8  30   8
M  ISO  3  31  14  32  14  33   9
M  END
>  <minimizedAffinity>  (1) 
-5.88985872

>  <minimizedRMSD>  (1) 
1.16820955

$$$$
