
     RDKit          3D

 36 38  0  0  0  0  0  0  0  0999 V2000
   43.7420   35.6170   42.7180 C   0  0  0  0  0  0  0  0  0  0  0  0
   43.1260   35.1940   41.5210 C   0  0  0  0  0  0  0  0  0  0  0  0
   43.9240   34.5700   40.5680 C   0  0  0  0  0  0  0  0  0  0  0  0
   45.2440   34.4010   40.8390 N   0  0  0  0  0  0  0  0  0  0  0  0
   45.7820   34.8250   42.0020 C   0  0  0  0  0  0  0  0  0  0  0  0
   45.0670   35.4380   42.9710 N   0  0  0  0  0  0  0  0  0  0  0  0
   47.6680   33.4390   42.8160 C   0  0  0  0  0  0  0  0  0  0  0  0
   47.2290   34.5940   42.2040 C   0  0  0  0  0  0  0  0  0  0  0  0
   48.0940   35.5710   41.7580 C   0  0  0  0  0  0  0  0  0  0  0  0
   49.4740   35.4410   41.9040 C   0  0  0  0  0  0  0  0  0  0  0  0
   49.9080   34.2870   42.5160 C   0  0  0  0  0  0  0  0  0  0  0  0
   49.0550   33.3120   42.9610 C   0  0  0  0  0  0  0  0  0  0  0  0
   46.5850   32.2170   43.3730 S   0  0  0  0  0  0  0  0  0  0  0  0
   47.4010   30.9720   43.7000 O   0  0  0  0  0  0  0  0  0  0  0  0
   45.9370   32.5700   44.7050 O   0  0  0  0  0  0  0  0  0  0  0  0
   41.6910   35.4640   41.4180 C   0  0  0  0  0  0  0  0  0  0  0  0
   41.0550   34.3300   40.7470 N   0  0  0  0  0  0  0  0  0  0  0  0
   40.8800   33.1780   41.3980 C   0  0  0  0  0  0  0  0  0  0  0  0
   40.2700   32.1370   40.7020 C   0  0  0  0  0  0  0  0  0  0  0  0
   39.8640   32.2790   39.4080 C   0  0  0  0  0  0  0  0  0  0  0  0
   39.3210   31.3200   38.8200 O   0  0  0  0  0  0  0  0  0  0  0  0
   40.0640   33.4600   38.7950 N   0  0  0  0  0  0  0  0  0  0  0  0
   40.6560   34.4890   39.4560 C   0  0  0  0  0  0  0  0  0  0  0  0
   40.8090   35.5660   38.8140 O   0  0  0  0  0  0  0  0  0  0  0  0
   43.1237   36.1135   43.4804 H   0  0  0  0  0  0  0  0  0  0  0  0
   43.4958   34.2214   39.6166 H   0  0  0  0  0  0  0  0  0  0  0  0
   47.6862   36.4721   41.2767 H   0  0  0  0  0  0  0  0  0  0  0  0
   50.1735   36.2134   41.5517 H   0  0  0  0  0  0  0  0  0  0  0  0
   50.9895   34.1411   42.6541 H   0  0  0  0  0  0  0  0  0  0  0  0
   49.4673   32.4124   43.4413 H   0  0  0  0  0  0  0  0  0  0  0  0
   45.6413   32.0593   42.3924 H   0  0  0  0  0  0  0  0  0  0  0  0
   41.2632   35.5882   42.4237 H   0  0  0  0  0  0  0  0  0  0  0  0
   41.5202   36.3870   40.8445 H   0  0  0  0  0  0  0  0  0  0  0  0
   41.2044   33.0556   42.4419 H   0  0  0  0  0  0  0  0  0  0  0  0
   40.1115   31.1743   41.2100 H   0  0  0  0  0  0  0  0  0  0  0  0
   39.7660   33.5850   37.8170 H   0  0  0  0  0  0  0  0  0  0  0  0
  1  6  2  0
  2  1  1  0
  3  4  1  0
  3  2  2  0
  4  5  2  0
  5  8  1  0
  5  6  1  0
  7 12  2  0
  7 13  1  0
  8  7  1  0
  9 10  1  0
  9  8  2  0
 10 11  2  0
 11 12  1  0
 13 14  2  0
 13 15  2  0
 16  2  1  0
 17 18  1  0
 17 16  1  0
 19 18  2  0
 20 19  1  0
 21 20  2  0
 22 20  1  0
 22 23  1  0
 23 17  1  0
 24 23  2  0
  1 25  1  0
  3 26  1  0
  9 27  1  0
 10 28  1  0
 11 29  1  0
 12 30  1  0
 13 31  1  0
 16 32  1  0
 16 33  1  0
 18 34  1  0
 19 35  1  0
 22 36  1  0
M  ISO  8  25  14  26  14  27  14  28  14  29  14  30  14  31  11  32   8
M  ISO  4  33   8  34  14  35  14  36   9
M  END
>  <minimizedAffinity>  (1) 
-5.61334181

>  <minimizedRMSD>  (1) 
4.38617086

$$$$
