
     RDKit          3D

 36 38  0  0  1  0  0  0  0  0999 V2000
   44.4220   35.6490   43.9170 C   0  0  0  0  0  0  0  0  0  0  0  0
   44.4150   34.9090   42.7370 C   0  0  0  0  0  0  0  0  0  0  0  0
   45.0060   33.6670   42.7790 C   0  0  0  0  0  0  0  0  0  0  0  0
   45.5510   33.2410   43.9420 N   0  0  0  0  0  0  0  0  0  0  0  0
   45.5330   33.9920   45.0610 C   0  0  0  0  0  0  0  0  0  0  0  0
   44.9680   35.2210   45.0830 N   0  0  0  0  0  0  0  0  0  0  0  0
   45.1590   32.9310   47.2940 C   0  0  1  0  0  0  0  0  0  0  0  0
   46.1550   33.4550   46.3140 C   0  0  1  0  0  0  0  0  0  0  0  0
   47.0840   32.4540   46.0630 O   0  0  0  0  0  0  0  0  0  0  0  0
   46.4090   31.2450   46.1470 C   0  0  0  0  0  0  0  0  0  0  0  0
   45.2720   31.4370   47.1170 C   0  0  1  0  0  0  0  0  0  0  0  0
   45.5990   33.2170   48.5960 O   0  0  0  0  0  0  0  0  0  0  0  0
   45.6050   30.7890   48.3060 O   0  0  0  0  0  0  0  0  0  0  0  0
   43.7780   35.5420   41.5870 C   0  0  0  0  0  0  0  0  0  0  0  0
   42.5130   34.8670   41.3240 N   0  0  0  0  0  0  0  0  0  0  0  0
   41.4170   35.2000   42.0190 C   0  0  0  0  0  0  0  0  0  0  0  0
   40.2420   34.5310   41.7330 C   0  0  0  0  0  0  0  0  0  0  0  0
   40.1970   33.5520   40.7630 C   0  0  0  0  0  0  0  0  0  0  0  0
   39.1040   32.9690   40.5350 O   0  0  0  0  0  0  0  0  0  0  0  0
   41.3190   33.2480   40.0880 N   0  0  0  0  0  0  0  0  0  0  0  0
   42.4730   33.8930   40.3580 C   0  0  0  0  0  0  0  0  0  0  0  0
   43.4890   33.5590   39.6880 O   0  0  0  0  0  0  0  0  0  0  0  0
   43.9547   36.6447   43.9026 H   0  0  0  0  0  0  0  0  0  0  0  0
   45.0349   33.0310   41.8820 H   0  0  0  0  0  0  0  0  0  0  0  0
   44.1511   33.3466   47.1475 H   0  0  0  0  0  0  0  0  0  0  0  0
   46.6603   34.3272   46.7543 H   0  0  0  0  0  0  0  0  0  0  0  0
   46.0177   30.9622   45.1586 H   0  0  0  0  0  0  0  0  0  0  0  0
   47.0821   30.4443   46.4873 H   0  0  0  0  0  0  0  0  0  0  0  0
   44.3124   31.0210   46.7762 H   0  0  0  0  0  0  0  0  0  0  0  0
   44.9766   32.8124   49.2510 H   0  0  0  0  0  0  0  0  0  0  0  0
   45.3200   31.3435   49.0750 H   0  0  0  0  0  0  0  0  0  0  0  0
   43.5927   36.6042   41.8046 H   0  0  0  0  0  0  0  0  0  0  0  0
   44.4333   35.4668   40.7067 H   0  0  0  0  0  0  0  0  0  0  0  0
   41.4513   35.9811   42.7927 H   0  0  0  0  0  0  0  0  0  0  0  0
   39.3270   34.7838   42.2887 H   0  0  0  0  0  0  0  0  0  0  0  0
   41.2977   32.5188   39.3608 H   0  0  0  0  0  0  0  0  0  0  0  0
  1  6  2  0
  2  3  2  0
  2  1  1  0
  3  4  1  0
  4  5  2  0
  5  6  1  0
  7 12  1  0
  8  5  1  0
  8  7  1  0
  9 10  1  0
  9  8  1  0
 10 11  1  0
 11  7  1  0
 11 13  1  0
 14  2  1  0
 15 14  1  0
 15 16  1  0
 17 16  2  0
 18 17  1  0
 19 18  2  0
 20 21  1  0
 20 18  1  0
 21 15  1  0
 22 21  2  0
  1 23  1  0
  3 24  1  0
  7 25  1  6
  8 26  1  1
 10 27  1  0
 10 28  1  0
 11 29  1  6
 12 30  1  0
 13 31  1  0
 14 32  1  0
 14 33  1  0
 16 34  1  0
 17 35  1  0
 20 36  1  0
M  ISO  8  23  14  24  14  25  13  26  13  27  13  28  13  29  13  30   3
M  ISO  6  31   3  32   8  33   8  34  14  35  14  36   9
M  END
>  <minimizedAffinity>  (1) 
-5.53232002

>  <minimizedRMSD>  (1) 
0.71150279

$$$$
