
     RDKit          3D

 26 27  0  0  0  0  0  0  0  0999 V2000
   43.8970   35.7050   41.5250 C   0  0  0  0  0  0  0  0  0  0  0  0
   42.6220   35.1470   41.1120 N   0  0  0  0  0  0  0  0  0  0  0  0
   41.5090   35.4540   41.7990 C   0  0  0  0  0  0  0  0  0  0  0  0
   40.3090   34.8960   41.3650 C   0  0  0  0  0  0  0  0  0  0  0  0
   40.2600   34.0680   40.2830 C   0  0  0  0  0  0  0  0  0  0  0  0
   39.1660   33.5770   39.9120 O   0  0  0  0  0  0  0  0  0  0  0  0
   41.4010   33.7860   39.6210 N   0  0  0  0  0  0  0  0  0  0  0  0
   42.5860   34.3230   40.0310 C   0  0  0  0  0  0  0  0  0  0  0  0
   43.6120   34.0190   39.3690 O   0  0  0  0  0  0  0  0  0  0  0  0
   44.4620   35.6820   43.8860 C   0  0  0  0  0  0  0  0  0  0  0  0
   44.3800   34.9670   42.6880 C   0  0  0  0  0  0  0  0  0  0  0  0
   44.7640   33.6410   42.7290 C   0  0  0  0  0  0  0  0  0  0  0  0
   45.1900   33.1140   43.8970 N   0  0  0  0  0  0  0  0  0  0  0  0
   45.2500   33.8480   45.0260 C   0  0  0  0  0  0  0  0  0  0  0  0
   44.8920   35.1410   45.0610 N   0  0  0  0  0  0  0  0  0  0  0  0
   45.7330   33.1640   46.2560 C   0  0  0  0  0  0  0  0  0  0  0  0
   45.6870   31.7760   46.0700 F   0  0  0  0  0  0  0  0  0  0  0  0
   47.0470   33.4770   46.5270 F   0  0  0  0  0  0  0  0  0  0  0  0
   44.9890   33.4400   47.3680 F   0  0  0  0  0  0  0  0  0  0  0  0
   43.7686   36.7655   41.7875 H   0  0  0  0  0  0  0  0  0  0  0  0
   44.6237   35.6239   40.7032 H   0  0  0  0  0  0  0  0  0  0  0  0
   41.5442   36.1217   42.6724 H   0  0  0  0  0  0  0  0  0  0  0  0
   39.3805   35.1284   41.9071 H   0  0  0  0  0  0  0  0  0  0  0  0
   41.3773   33.1621   38.8018 H   0  0  0  0  0  0  0  0  0  0  0  0
   44.1628   36.7405   43.8805 H   0  0  0  0  0  0  0  0  0  0  0  0
   44.7233   33.0215   41.8209 H   0  0  0  0  0  0  0  0  0  0  0  0
  1 11  1  0
  2  1  1  0
  2  3  1  0
  4  3  2  0
  5  4  1  0
  6  5  2  0
  7  8  1  0
  7  5  1  0
  8  2  1  0
  9  8  2  0
 10 15  2  0
 11 12  2  0
 11 10  1  0
 12 13  1  0
 13 14  2  0
 14 15  1  0
 14 16  1  0
 16 18  1  0
 16 19  1  0
 17 16  1  0
  1 20  1  0
  1 21  1  0
  3 22  1  0
  4 23  1  0
  7 24  1  0
 10 25  1  0
 12 26  1  0
M  ISO  7  20   8  21   8  22  14  23  14  24   9  25  14  26  14
M  END
>  <minimizedAffinity>  (1) 
-5.04208708

>  <minimizedRMSD>  (1) 
0.886102021

$$$$
