
     RDKit          3D

 25 26  0  0  0  0  0  0  0  0999 V2000
   43.8900   35.6860   41.4970 C   0  0  0  0  0  0  0  0  0  0  0  0
   42.6290   35.0650   41.1340 N   0  0  0  0  0  0  0  0  0  0  0  0
   41.5070   35.4080   41.7810 C   0  0  0  0  0  0  0  0  0  0  0  0
   40.3270   34.7860   41.3990 C   0  0  0  0  0  0  0  0  0  0  0  0
   40.3120   33.8530   40.3920 C   0  0  0  0  0  0  0  0  0  0  0  0
   39.2310   33.2990   40.0580 O   0  0  0  0  0  0  0  0  0  0  0  0
   41.4680   33.5310   39.7600 N   0  0  0  0  0  0  0  0  0  0  0  0
   42.6270   34.1380   40.1310 C   0  0  0  0  0  0  0  0  0  0  0  0
   43.6600   33.7970   39.5090 O   0  0  0  0  0  0  0  0  0  0  0  0
   44.3560   35.9300   43.8700 C   0  0  0  0  0  0  0  0  0  0  0  0
   44.3760   35.0870   42.7460 C   0  0  0  0  0  0  0  0  0  0  0  0
   44.8390   33.8020   42.9120 C   0  0  0  0  0  0  0  0  0  0  0  0
   45.2460   33.4210   44.1380 N   0  0  0  0  0  0  0  0  0  0  0  0
   45.2150   34.2600   45.2050 C   0  0  0  0  0  0  0  0  0  0  0  0
   44.7670   35.5400   45.0980 N   0  0  0  0  0  0  0  0  0  0  0  0
   45.6640   33.7820   46.4670 N   0  0  0  0  0  0  0  0  0  0  0  0
   43.7413   36.7665   41.6397 H   0  0  0  0  0  0  0  0  0  0  0  0
   44.6272   35.5255   40.6965 H   0  0  0  0  0  0  0  0  0  0  0  0
   41.5208   36.1566   42.5869 H   0  0  0  0  0  0  0  0  0  0  0  0
   39.3885   35.0446   41.9112 H   0  0  0  0  0  0  0  0  0  0  0  0
   41.4681   32.8314   39.0041 H   0  0  0  0  0  0  0  0  0  0  0  0
   43.9875   36.9589   43.7448 H   0  0  0  0  0  0  0  0  0  0  0  0
   44.8759   33.1026   42.0637 H   0  0  0  0  0  0  0  0  0  0  0  0
   45.6482   34.4033   47.2883 H   0  0  0  0  0  0  0  0  0  0  0  0
   46.0049   32.8145   46.5596 H   0  0  0  0  0  0  0  0  0  0  0  0
  1 11  1  0
  2  1  1  0
  2  3  1  0
  4  3  2  0
  5  4  1  0
  6  5  2  0
  7  8  1  0
  7  5  1  0
  8  2  1  0
  9  8  2  0
 10 15  2  0
 11 12  2  0
 11 10  1  0
 12 13  1  0
 13 14  2  0
 14 16  1  0
 15 14  1  0
  1 17  1  0
  1 18  1  0
  3 19  1  0
  4 20  1  0
  7 21  1  0
 10 22  1  0
 12 23  1  0
 16 24  1  0
 16 25  1  0
M  ISO  7  17   8  18   8  19  14  20  14  21   9  22  14  23  14
M  END
>  <minimizedAffinity>  (1) 
-4.77593184

>  <minimizedRMSD>  (1) 
0.434565902

$$$$
