
     RDKit          3D

 30 32  0  0  0  0  0  0  0  0999 V2000
   44.5520   35.7560   43.2350 C   0  0  0  0  0  0  0  0  0  0  0  0
   44.3030   34.7510   42.2730 C   0  0  0  0  0  0  0  0  0  0  0  0
   44.6150   33.4730   42.6480 C   0  0  0  0  0  0  0  0  0  0  0  0
   45.1240   33.2170   43.8650 N   0  0  0  0  0  0  0  0  0  0  0  0
   45.3460   34.2210   44.7570 C   0  0  0  0  0  0  0  0  0  0  0  0
   45.0640   35.5130   44.4600 N   0  0  0  0  0  0  0  0  0  0  0  0
   43.7470   35.1760   40.9900 C   0  0  0  0  0  0  0  0  0  0  0  0
   42.3720   34.7080   40.9090 N   0  0  0  0  0  0  0  0  0  0  0  0
   41.4180   35.2940   41.6250 C   0  0  0  0  0  0  0  0  0  0  0  0
   40.1370   34.7960   41.4980 C   0  0  0  0  0  0  0  0  0  0  0  0
   39.8330   33.7300   40.6630 C   0  0  0  0  0  0  0  0  0  0  0  0
   38.6590   33.3420   40.6040 O   0  0  0  0  0  0  0  0  0  0  0  0
   40.8410   33.1660   39.9550 N   0  0  0  0  0  0  0  0  0  0  0  0
   42.0950   33.6510   40.0780 C   0  0  0  0  0  0  0  0  0  0  0  0
   42.9870   33.0770   39.3860 O   0  0  0  0  0  0  0  0  0  0  0  0
   45.8690   33.9910   46.0120 O   0  0  0  0  0  0  0  0  0  0  0  0
   45.7740   32.6740   46.5050 C   0  0  0  0  0  0  0  0  0  0  0  0
   45.1760   32.5960   47.8010 C   0  0  0  0  0  0  0  0  0  0  0  0
   45.1970   30.8080   48.1520 S   0  0  0  0  0  0  0  0  0  0  0  0
   46.0210   30.4530   46.4660 C   0  0  0  0  0  0  0  0  0  0  0  0
   46.1380   31.4960   45.9840 N   0  0  0  0  0  0  0  0  0  0  0  0
   44.3147   36.7969   42.9700 H   0  0  0  0  0  0  0  0  0  0  0  0
   44.4471   32.6443   41.9444 H   0  0  0  0  0  0  0  0  0  0  0  0
   43.7708   36.2735   40.9198 H   0  0  0  0  0  0  0  0  0  0  0  0
   44.3389   34.7561   40.1634 H   0  0  0  0  0  0  0  0  0  0  0  0
   41.6400   36.1407   42.2912 H   0  0  0  0  0  0  0  0  0  0  0  0
   39.3275   35.2610   42.0798 H   0  0  0  0  0  0  0  0  0  0  0  0
   40.6518   32.3720   39.3267 H   0  0  0  0  0  0  0  0  0  0  0  0
   44.7966   33.4139   48.4312 H   0  0  0  0  0  0  0  0  0  0  0  0
   46.3164   29.4787   46.0496 H   0  0  0  0  0  0  0  0  0  0  0  0
  1  6  2  0
  2  3  2  0
  2  1  1  0
  3  4  1  0
  4  5  2  0
  5 16  1  0
  6  5  1  0
  7  2  1  0
  8  7  1  0
  8  9  1  0
 10  9  2  0
 11 10  1  0
 12 11  2  0
 13 14  1  0
 13 11  1  0
 14  8  1  0
 15 14  2  0
 16 17  1  0
 17 18  2  0
 18 19  1  0
 20 19  1  0
 21 20  2  0
 21 17  1  0
  1 22  1  0
  3 23  1  0
  7 24  1  0
  7 25  1  0
  9 26  1  0
 10 27  1  0
 13 28  1  0
 18 29  1  0
 20 30  1  0
M  ISO  8  22  14  23  14  24   8  25   8  26  14  27  14  28   9  29  14
M  ISO  1  30  14
M  END
>  <minimizedAffinity>  (1) 
-5.1591363

>  <minimizedRMSD>  (1) 
0.662360609

$$$$
