
     RDKit          3D

 39 41  0  0  1  0  0  0  0  0999 V2000
   47.3950   33.7200   43.8850 C   0  0  1  0  0  0  0  0  0  0  0  0
   47.9020   32.7880   42.7230 C   0  0  0  0  0  0  0  0  0  0  0  0
   48.6160   33.6180   41.7360 C   0  0  0  0  0  0  0  0  0  0  0  0
   47.5420   34.4680   41.0610 C   0  0  0  0  0  0  0  0  0  0  0  0
   46.8540   35.2500   42.0420 C   0  0  0  0  0  0  0  0  0  0  0  0
   46.3870   34.5610   43.4060 C   0  0  1  0  0  0  0  0  0  0  0  0
   46.0890   30.6980   45.9290 C   0  0  0  0  0  0  0  0  0  0  0  0
   46.6740   31.3690   44.8800 C   0  0  0  0  0  0  0  0  0  0  0  0
   46.8260   32.7780   44.9190 C   0  0  0  0  0  0  0  0  0  0  0  0
   46.3730   33.3790   46.0180 N   0  0  0  0  0  0  0  0  0  0  0  0
   45.8090   32.7290   47.0290 C   0  0  0  0  0  0  0  0  0  0  0  0
   45.6590   31.3680   46.9950 N   0  0  0  0  0  0  0  0  0  0  0  0
   45.2100   33.8470   43.0750 O   0  0  0  0  0  0  0  0  0  0  0  0
   44.2750   34.8170   42.6890 C   0  0  0  0  0  0  0  0  0  0  0  0
   43.4600   34.0470   41.7990 O   0  0  0  0  0  0  0  0  0  0  0  0
   42.5280   34.6420   40.9710 C   0  0  0  0  0  0  0  0  0  0  0  0
   41.5270   35.3400   41.6150 C   0  0  0  0  0  0  0  0  0  0  0  0
   40.5340   35.9800   40.8660 C   0  0  0  0  0  0  0  0  0  0  0  0
   40.5540   35.9160   39.5100 N   0  0  0  0  0  0  0  0  0  0  0  0
   41.5420   35.2280   38.9160 C   0  0  0  0  0  0  0  0  0  0  0  0
   42.5290   34.5900   39.6090 N   0  0  0  0  0  0  0  0  0  0  0  0
   48.1956   34.3538   44.2941 H   0  0  0  0  0  0  0  0  0  0  0  0
   48.5832   32.0257   43.1291 H   0  0  0  0  0  0  0  0  0  0  0  0
   47.0494   32.2835   42.2450 H   0  0  0  0  0  0  0  0  0  0  0  0
   49.3552   34.2602   42.2372 H   0  0  0  0  0  0  0  0  0  0  0  0
   49.1655   33.0029   41.0082 H   0  0  0  0  0  0  0  0  0  0  0  0
   48.0142   35.1370   40.3265 H   0  0  0  0  0  0  0  0  0  0  0  0
   46.8229   33.8082   40.5535 H   0  0  0  0  0  0  0  0  0  0  0  0
   47.5207   36.0814   42.3146 H   0  0  0  0  0  0  0  0  0  0  0  0
   45.9079   35.5142   41.5470 H   0  0  0  0  0  0  0  0  0  0  0  0
   46.1907   35.2879   44.2079 H   0  0  0  0  0  0  0  0  0  0  0  0
   45.9765   29.6046   45.8862 H   0  0  0  0  0  0  0  0  0  0  0  0
   47.0271   30.8070   44.0028 H   0  0  0  0  0  0  0  0  0  0  0  0
   45.4572   33.2915   47.9064 H   0  0  0  0  0  0  0  0  0  0  0  0
   43.6985   35.1910   43.5479 H   0  0  0  0  0  0  0  0  0  0  0  0
   44.7099   35.7249   42.2457 H   0  0  0  0  0  0  0  0  0  0  0  0
   41.5099   35.3930   42.7136 H   0  0  0  0  0  0  0  0  0  0  0  0
   39.7347   36.5367   41.3771 H   0  0  0  0  0  0  0  0  0  0  0  0
   41.5565   35.1761   37.8173 H   0  0  0  0  0  0  0  0  0  0  0  0
  1  9  1  0
  2  1  1  0
  3  2  1  0
  4  3  1  0
  4  5  1  0
  5  6  1  0
  6  1  1  0
  7 12  2  0
  8  9  2  0
  8  7  1  0
  9 10  1  0
 10 11  2  0
 12 11  1  0
 13  6  1  0
 14 13  1  0
 15 14  1  0
 16 17  2  0
 16 15  1  0
 18 17  1  0
 19 18  2  0
 20 19  1  0
 20 21  2  0
 21 16  1  0
  1 22  1  1
  2 23  1  0
  2 24  1  0
  3 25  1  0
  3 26  1  0
  4 27  1  0
  4 28  1  0
  5 29  1  0
  5 30  1  0
  6 31  1  1
  7 32  1  0
  8 33  1  0
 11 34  1  0
 14 35  1  0
 14 36  1  0
 17 37  1  0
 18 38  1  0
 20 39  1  0
M  ISO  8  22  13  23  13  24  13  25  13  26  13  27  13  28  13  29  13
M  ISO  8  30  13  31  13  32  14  33  14  34  14  35   8  36   8  37  14
M  ISO  2  38  14  39  14
M  END
>  <minimizedAffinity>  (1) 
-4.99975824

>  <minimizedRMSD>  (1) 
5.7066555

$$$$
