
     RDKit          3D

 47 50  0  0  1  0  0  0  0  0999 V2000
   43.4220   35.1910   39.9780 F   0  0  0  0  0  0  0  0  0  0  0  0
   43.5290   33.8430   40.2610 C   0  0  0  0  0  0  0  0  0  0  0  0
   44.7290   33.4140   40.7630 C   0  0  0  0  0  0  0  0  0  0  0  0
   44.7900   32.0560   41.0470 C   0  0  0  0  0  0  0  0  0  0  0  0
   43.7030   31.2350   40.8240 C   0  0  0  0  0  0  0  0  0  0  0  0
   42.4990   31.7380   40.3040 C   0  0  0  0  0  0  0  0  0  0  0  0
   42.4230   33.1070   40.0150 C   0  0  0  0  0  0  0  0  0  0  0  0
   46.4970   34.1040   42.3130 N   0  0  0  0  0  0  0  0  0  0  0  0
   47.7760   33.4880   42.1150 C   0  0  0  0  0  0  0  0  0  0  0  0
   48.2430   34.3020   40.9320 C   0  0  0  0  0  0  0  0  0  0  0  0
   47.0290   34.0870   40.0150 C   0  0  0  0  0  0  0  0  0  0  0  0
   45.9050   34.2510   40.9790 C   0  0  1  0  0  0  0  0  0  0  0  0
   44.4780   36.0700   44.7470 C   0  0  0  0  0  0  0  0  0  0  0  0
   45.0930   35.7170   43.5530 C   0  0  0  0  0  0  0  0  0  0  0  0
   45.8370   34.5330   43.4890 C   0  0  0  0  0  0  0  0  0  0  0  0
   45.9120   33.7950   44.6090 N   0  0  0  0  0  0  0  0  0  0  0  0
   45.3150   34.1380   45.7640 C   0  0  0  0  0  0  0  0  0  0  0  0
   44.5910   35.2910   45.8290 N   0  0  0  0  0  0  0  0  0  0  0  0
   40.2160   34.1960   40.3090 C   0  0  0  0  0  0  0  0  0  0  0  0
   41.1770   33.6360   39.4770 C   0  0  0  0  0  0  0  0  0  0  0  0
   40.9160   33.5970   38.1090 C   0  0  0  0  0  0  0  0  0  0  0  0
   39.7470   34.0860   37.5400 C   0  0  0  0  0  0  0  0  0  0  0  0
   38.7960   34.6400   38.3690 C   0  0  0  0  0  0  0  0  0  0  0  0
   39.0660   34.6750   39.7300 C   0  0  0  0  0  0  0  0  0  0  0  0
   39.9600   33.3740   42.5620 N   0  0  0  0  0  0  0  0  0  0  0  0
   40.4250   34.2700   41.7500 C   0  0  0  0  0  0  0  0  0  0  0  0
   41.1700   35.3790   42.2310 N   0  0  0  0  0  0  0  0  0  0  0  0
   40.1770   33.5360   43.5760 H   0  0  0  0  0  0  0  0  0  0  0  0
   45.7176   31.6286   41.4554 H   0  0  0  0  0  0  0  0  0  0  0  0
   43.7814   30.1632   41.0587 H   0  0  0  0  0  0  0  0  0  0  0  0
   41.6390   31.0751   40.1284 H   0  0  0  0  0  0  0  0  0  0  0  0
   48.4341   33.6119   42.9877 H   0  0  0  0  0  0  0  0  0  0  0  0
   47.7607   32.3983   41.9658 H   0  0  0  0  0  0  0  0  0  0  0  0
   48.3861   35.3620   41.1887 H   0  0  0  0  0  0  0  0  0  0  0  0
   49.2176   34.0158   40.5097 H   0  0  0  0  0  0  0  0  0  0  0  0
   46.9884   34.8423   39.2163 H   0  0  0  0  0  0  0  0  0  0  0  0
   47.0303   33.1243   39.4828 H   0  0  0  0  0  0  0  0  0  0  0  0
   45.4580   35.2455   40.8339 H   0  0  0  0  0  0  0  0  0  0  0  0
   43.8921   36.9993   44.8038 H   0  0  0  0  0  0  0  0  0  0  0  0
   44.9965   36.3612   42.6666 H   0  0  0  0  0  0  0  0  0  0  0  0
   45.4102   33.4929   46.6498 H   0  0  0  0  0  0  0  0  0  0  0  0
   41.6746   33.1563   37.4454 H   0  0  0  0  0  0  0  0  0  0  0  0
   39.5843   34.0322   36.4534 H   0  0  0  0  0  0  0  0  0  0  0  0
   37.8544   35.0411   37.9657 H   0  0  0  0  0  0  0  0  0  0  0  0
   38.3061   35.1171   40.3911 H   0  0  0  0  0  0  0  0  0  0  0  0
   41.3478   35.4812   43.2404 H   0  0  0  0  0  0  0  0  0  0  0  0
   41.5326   36.0812   41.5705 H   0  0  0  0  0  0  0  0  0  0  0  0
  1  2  1  0
  2  3  2  0
  3 12  1  0
  3  4  1  0
  5  4  2  0
  6  5  1  0
  7  2  1  0
  7  6  2  0
  8 15  1  0
  9  8  1  0
 10  9  1  0
 11 10  1  0
 11 12  1  0
 12  8  1  0
 13 18  2  0
 14 13  1  0
 15 14  2  0
 15 16  1  0
 16 17  2  0
 17 18  1  0
 19 26  1  0
 20  7  1  0
 20 19  2  0
 21 20  1  0
 22 21  2  0
 22 23  1  0
 23 24  2  0
 24 19  1  0
 25 28  1  0
 26 27  1  0
 26 25  2  0
  4 29  1  0
  5 30  1  0
  6 31  1  0
  9 32  1  0
  9 33  1  0
 10 34  1  0
 10 35  1  0
 11 36  1  0
 11 37  1  0
 12 38  1  1
 13 39  1  0
 14 40  1  0
 17 41  1  0
 21 42  1  0
 22 43  1  0
 23 44  1  0
 24 45  1  0
 27 46  1  0
 27 47  1  0
M  ISO  8  29  14  30  14  31  14  32  13  33  13  34  13  35  13  36  13
M  ISO  8  37  13  38  13  39  14  40  14  41  14  42  14  43  14  44  14
M  ISO  1  45  14
M  END
>  <minimizedAffinity>  (1) 
-7.27249336

>  <minimizedRMSD>  (1) 
1.3885082

$$$$
