
     RDKit          3D

 42 45  0  0  1  0  0  0  0  0999 V2000
   47.1950   34.3890   42.6660 N   0  0  0  0  0  0  0  0  0  0  0  0
   48.5370   33.8840   42.6100 C   0  0  0  0  0  0  0  0  0  0  0  0
   49.1300   34.9250   41.6760 C   0  0  0  0  0  0  0  0  0  0  0  0
   48.1110   34.8140   40.5350 C   0  0  0  0  0  0  0  0  0  0  0  0
   46.8290   34.7360   41.2900 C   0  0  1  0  0  0  0  0  0  0  0  0
   44.0910   35.4530   41.1160 F   0  0  0  0  0  0  0  0  0  0  0  0
   44.4630   34.2190   40.6150 C   0  0  0  0  0  0  0  0  0  0  0  0
   45.7870   33.8860   40.7270 C   0  0  0  0  0  0  0  0  0  0  0  0
   46.1120   32.6350   40.2230 C   0  0  0  0  0  0  0  0  0  0  0  0
   45.1560   31.8160   39.6590 C   0  0  0  0  0  0  0  0  0  0  0  0
   43.8180   32.2210   39.5760 C   0  0  0  0  0  0  0  0  0  0  0  0
   43.4630   33.4840   40.0800 C   0  0  0  0  0  0  0  0  0  0  0  0
   42.7580   35.0420   37.9540 F   0  0  0  0  0  0  0  0  0  0  0  0
   41.8280   34.7510   38.8950 C   0  0  0  0  0  0  0  0  0  0  0  0
   42.0860   33.9620   40.0220 C   0  0  0  0  0  0  0  0  0  0  0  0
   41.1080   33.6890   40.9570 C   0  0  0  0  0  0  0  0  0  0  0  0
   39.8300   34.1980   40.7990 C   0  0  0  0  0  0  0  0  0  0  0  0
   39.5190   34.9830   39.7050 C   0  0  0  0  0  0  0  0  0  0  0  0
   40.5250   35.2440   38.7730 C   0  0  0  0  0  0  0  0  0  0  0  0
   44.5520   35.7370   44.9170 C   0  0  0  0  0  0  0  0  0  0  0  0
   45.3830   35.6310   43.8090 C   0  0  0  0  0  0  0  0  0  0  0  0
   46.3070   34.5730   43.7560 C   0  0  0  0  0  0  0  0  0  0  0  0
   46.3340   33.7140   44.7900 N   0  0  0  0  0  0  0  0  0  0  0  0
   45.5200   33.8300   45.8600 C   0  0  0  0  0  0  0  0  0  0  0  0
   44.6230   34.8520   45.9200 N   0  0  0  0  0  0  0  0  0  0  0  0
   49.0228   33.8878   43.5969 H   0  0  0  0  0  0  0  0  0  0  0  0
   48.6407   32.8377   42.2869 H   0  0  0  0  0  0  0  0  0  0  0  0
   49.1399   35.9284   42.1266 H   0  0  0  0  0  0  0  0  0  0  0  0
   50.1818   34.7696   41.3938 H   0  0  0  0  0  0  0  0  0  0  0  0
   48.2787   33.9088   39.9329 H   0  0  0  0  0  0  0  0  0  0  0  0
   48.1560   35.6408   39.8108 H   0  0  0  0  0  0  0  0  0  0  0  0
   46.3259   35.7124   41.2315 H   0  0  0  0  0  0  0  0  0  0  0  0
   47.1548   32.2886   40.2743 H   0  0  0  0  0  0  0  0  0  0  0  0
   45.4490   30.8302   39.2687 H   0  0  0  0  0  0  0  0  0  0  0  0
   43.0599   31.5636   39.1253 H   0  0  0  0  0  0  0  0  0  0  0  0
   41.3448   33.0646   41.8311 H   0  0  0  0  0  0  0  0  0  0  0  0
   39.0570   33.9760   41.5494 H   0  0  0  0  0  0  0  0  0  0  0  0
   38.5062   35.3911   39.5722 H   0  0  0  0  0  0  0  0  0  0  0  0
   40.2810   35.8677   37.9004 H   0  0  0  0  0  0  0  0  0  0  0  0
   43.8245   36.5603   44.9716 H   0  0  0  0  0  0  0  0  0  0  0  0
   45.3192   36.3611   42.9887 H   0  0  0  0  0  0  0  0  0  0  0  0
   45.5812   33.1008   46.6813 H   0  0  0  0  0  0  0  0  0  0  0  0
  1 22  1  0
  2  1  1  0
  3  2  1  0
  4  5  1  0
  4  3  1  0
  5  1  1  0
  7  8  2  0
  7  6  1  0
  8  5  1  0
  9  8  1  0
 10  9  2  0
 11 10  1  0
 11 12  2  0
 12  7  1  0
 13 14  1  0
 14 15  2  0
 15 12  1  0
 15 16  1  0
 17 16  2  0
 18 17  1  0
 19 14  1  0
 19 18  2  0
 20 25  2  0
 21 20  1  0
 22 21  2  0
 22 23  1  0
 23 24  2  0
 24 25  1  0
  2 26  1  0
  2 27  1  0
  3 28  1  0
  3 29  1  0
  4 30  1  0
  4 31  1  0
  5 32  1  1
  9 33  1  0
 10 34  1  0
 11 35  1  0
 16 36  1  0
 17 37  1  0
 18 38  1  0
 19 39  1  0
 20 40  1  0
 21 41  1  0
 24 42  1  0
M  ISO  8  26  13  27  13  28  13  29  13  30  13  31  13  32  13  33  14
M  ISO  8  34  14  35  14  36  14  37  14  38  14  39  14  40  14  41  14
M  ISO  1  42  14
M  END
>  <minimizedAffinity>  (1) 
-6.92794943

>  <minimizedRMSD>  (1) 
1.33491755

$$$$
