
     RDKit          3D

 47 50  0  0  1  0  0  0  0  0999 V2000
   46.8710   34.2330   42.4470 N   0  0  0  0  0  0  0  0  0  0  0  0
   48.1440   33.5880   42.3250 C   0  0  0  0  0  0  0  0  0  0  0  0
   48.7700   34.5240   41.3050 C   0  0  0  0  0  0  0  0  0  0  0  0
   47.6720   34.4710   40.2410 C   0  0  0  0  0  0  0  0  0  0  0  0
   46.4460   34.5670   41.0830 C   0  0  1  0  0  0  0  0  0  0  0  0
   43.8580   35.6630   40.7170 F   0  0  0  0  0  0  0  0  0  0  0  0
   44.0270   34.3390   40.4350 C   0  0  0  0  0  0  0  0  0  0  0  0
   45.2750   33.8100   40.6320 C   0  0  0  0  0  0  0  0  0  0  0  0
   45.4040   32.4560   40.3430 C   0  0  0  0  0  0  0  0  0  0  0  0
   44.3240   31.7280   39.8880 C   0  0  0  0  0  0  0  0  0  0  0  0
   43.0790   32.3180   39.7050 C   0  0  0  0  0  0  0  0  0  0  0  0
   42.9290   33.6670   39.9880 C   0  0  0  0  0  0  0  0  0  0  0  0
   41.6450   34.2460   39.7960 N   0  0  0  0  0  0  0  0  0  0  0  0
   41.3070   35.2570   38.8240 C   0  0  0  0  0  0  0  0  0  0  0  0
   40.2980   34.5960   37.8810 C   0  0  0  0  0  0  0  0  0  0  0  0
   39.0340   34.3770   38.6740 C   0  0  0  0  0  0  0  0  0  0  0  0
   39.2610   34.5140   40.1410 C   0  0  0  0  0  0  0  0  0  0  0  0
   40.5130   33.8440   40.6040 C   0  0  0  0  0  0  0  0  0  0  0  0
   44.5300   35.9270   44.7980 C   0  0  0  0  0  0  0  0  0  0  0  0
   45.2620   35.6880   43.6410 C   0  0  0  0  0  0  0  0  0  0  0  0
   46.0900   34.5500   43.5840 C   0  0  0  0  0  0  0  0  0  0  0  0
   46.1240   33.7530   44.6640 N   0  0  0  0  0  0  0  0  0  0  0  0
   45.4070   33.9970   45.7810 C   0  0  0  0  0  0  0  0  0  0  0  0
   44.6040   35.0950   45.8440 N   0  0  0  0  0  0  0  0  0  0  0  0
   48.6978   33.5797   43.2754 H   0  0  0  0  0  0  0  0  0  0  0  0
   48.1172   32.5243   42.0459 H   0  0  0  0  0  0  0  0  0  0  0  0
   48.9099   35.5389   41.7054 H   0  0  0  0  0  0  0  0  0  0  0  0
   49.7790   34.2503   40.9629 H   0  0  0  0  0  0  0  0  0  0  0  0
   47.7014   33.5262   39.6785 H   0  0  0  0  0  0  0  0  0  0  0  0
   47.7524   35.2523   39.4708 H   0  0  0  0  0  0  0  0  0  0  0  0
   46.0495   35.5905   41.0109 H   0  0  0  0  0  0  0  0  0  0  0  0
   46.3767   31.9605   40.4785 H   0  0  0  0  0  0  0  0  0  0  0  0
   44.4509   30.6583   39.6654 H   0  0  0  0  0  0  0  0  0  0  0  0
   42.2269   31.7247   39.3417 H   0  0  0  0  0  0  0  0  0  0  0  0
   40.8564   36.1303   39.3183 H   0  0  0  0  0  0  0  0  0  0  0  0
   42.1950   35.6174   38.2841 H   0  0  0  0  0  0  0  0  0  0  0  0
   40.6906   33.6333   37.5219 H   0  0  0  0  0  0  0  0  0  0  0  0
   40.1065   35.2302   37.0028 H   0  0  0  0  0  0  0  0  0  0  0  0
   38.2854   35.1193   38.3602 H   0  0  0  0  0  0  0  0  0  0  0  0
   38.6857   33.3519   38.4796 H   0  0  0  0  0  0  0  0  0  0  0  0
   39.3248   35.5842   40.3872 H   0  0  0  0  0  0  0  0  0  0  0  0
   38.4184   34.0242   40.6510 H   0  0  0  0  0  0  0  0  0  0  0  0
   40.3866   32.7539   40.5292 H   0  0  0  0  0  0  0  0  0  0  0  0
   40.7038   34.1389   41.6464 H   0  0  0  0  0  0  0  0  0  0  0  0
   43.8803   36.8128   44.8550 H   0  0  0  0  0  0  0  0  0  0  0  0
   45.1959   36.3755   42.7849 H   0  0  0  0  0  0  0  0  0  0  0  0
   45.4711   33.3107   46.6383 H   0  0  0  0  0  0  0  0  0  0  0  0
  1 21  1  0
  2  1  1  0
  3  2  1  0
  4  5  1  0
  4  3  1  0
  5  1  1  0
  7  8  2  0
  7  6  1  0
  8  5  1  0
  9  8  1  0
 10  9  2  0
 11 10  1  0
 11 12  2  0
 12  7  1  0
 13 12  1  0
 13 18  1  0
 14 13  1  0
 15 16  1  0
 15 14  1  0
 16 17  1  0
 17 18  1  0
 19 24  2  0
 20 19  1  0
 21 20  2  0
 21 22  1  0
 22 23  2  0
 23 24  1  0
  2 25  1  0
  2 26  1  0
  3 27  1  0
  3 28  1  0
  4 29  1  0
  4 30  1  0
  5 31  1  1
  9 32  1  0
 10 33  1  0
 11 34  1  0
 14 35  1  0
 14 36  1  0
 15 37  1  0
 15 38  1  0
 16 39  1  0
 16 40  1  0
 17 41  1  0
 17 42  1  0
 18 43  1  0
 18 44  1  0
 19 45  1  0
 20 46  1  0
 23 47  1  0
M  ISO  8  25  13  26  13  27  13  28  13  29  13  30  13  31  13  32  14
M  ISO  8  33  14  34  14  35  13  36  13  37  13  38  13  39  13  40  13
M  ISO  7  41  13  42  13  43  13  44  13  45  14  46  14  47  14
M  END
>  <minimizedAffinity>  (1) 
-6.81807995

>  <minimizedRMSD>  (1) 
1.09969962

$$$$
