
     RDKit          3D

 45 48  0  0  1  0  0  0  0  0999 V2000
   43.8510   35.4400   40.8550 F   0  0  0  0  0  0  0  0  0  0  0  0
   44.1330   34.1370   40.4950 C   0  0  0  0  0  0  0  0  0  0  0  0
   45.4370   33.7350   40.6190 C   0  0  0  0  0  0  0  0  0  0  0  0
   45.6760   32.4200   40.2560 C   0  0  0  0  0  0  0  0  0  0  0  0
   44.6610   31.6010   39.8080 C   0  0  0  0  0  0  0  0  0  0  0  0
   43.3440   32.0780   39.7060 C   0  0  0  0  0  0  0  0  0  0  0  0
   43.0760   33.4100   40.0680 C   0  0  0  0  0  0  0  0  0  0  0  0
   46.9700   34.3150   42.4410 N   0  0  0  0  0  0  0  0  0  0  0  0
   48.2900   33.7500   42.3460 C   0  0  0  0  0  0  0  0  0  0  0  0
   48.8670   34.6980   41.3090 C   0  0  0  0  0  0  0  0  0  0  0  0
   47.7860   34.5380   40.2380 C   0  0  0  0  0  0  0  0  0  0  0  0
   46.5460   34.5780   41.0630 C   0  0  1  0  0  0  0  0  0  0  0  0
   44.5480   35.9510   44.7470 C   0  0  0  0  0  0  0  0  0  0  0  0
   45.3170   35.7270   43.6140 C   0  0  0  0  0  0  0  0  0  0  0  0
   46.1530   34.6080   43.5600 C   0  0  0  0  0  0  0  0  0  0  0  0
   46.1670   33.7960   44.6290 N   0  0  0  0  0  0  0  0  0  0  0  0
   45.4170   34.0170   45.7300 C   0  0  0  0  0  0  0  0  0  0  0  0
   44.6060   35.0990   45.7860 N   0  0  0  0  0  0  0  0  0  0  0  0
   40.6620   33.1930   39.5750 C   0  0  0  0  0  0  0  0  0  0  0  0
   41.7290   33.9660   39.9840 C   0  0  0  0  0  0  0  0  0  0  0  0
   41.6110   35.2950   40.3380 C   0  0  0  0  0  0  0  0  0  0  0  0
   40.3900   35.9340   40.2990 C   0  0  0  0  0  0  0  0  0  0  0  0
   39.2880   35.1810   39.8900 C   0  0  0  0  0  0  0  0  0  0  0  0
   39.4200   33.8400   39.5360 C   0  0  0  0  0  0  0  0  0  0  0  0
   40.8580   31.5330   39.1420 S   0  0  0  0  0  0  0  0  0  0  0  0
   39.8680   30.6440   39.8750 O   0  0  0  0  0  0  0  0  0  0  0  0
   40.5090   31.4000   37.6700 O   0  0  0  0  0  0  0  0  0  0  0  0
   46.6982   32.0199   40.3266 H   0  0  0  0  0  0  0  0  0  0  0  0
   44.8856   30.5615   39.5271 H   0  0  0  0  0  0  0  0  0  0  0  0
   42.5367   31.4214   39.3494 H   0  0  0  0  0  0  0  0  0  0  0  0
   48.8324   33.8012   43.3016 H   0  0  0  0  0  0  0  0  0  0  0  0
   48.3346   32.6805   42.0926 H   0  0  0  0  0  0  0  0  0  0  0  0
   48.9331   35.7309   41.6815 H   0  0  0  0  0  0  0  0  0  0  0  0
   49.8972   34.4869   40.9863 H   0  0  0  0  0  0  0  0  0  0  0  0
   47.8849   33.5800   39.7066 H   0  0  0  0  0  0  0  0  0  0  0  0
   47.8229   35.2992   39.4448 H   0  0  0  0  0  0  0  0  0  0  0  0
   46.0853   35.5713   40.9579 H   0  0  0  0  0  0  0  0  0  0  0  0
   43.8878   36.8295   44.7956 H   0  0  0  0  0  0  0  0  0  0  0  0
   45.2691   36.4246   42.7648 H   0  0  0  0  0  0  0  0  0  0  0  0
   45.4651   33.3194   46.5791 H   0  0  0  0  0  0  0  0  0  0  0  0
   42.5044   35.8525   40.6559 H   0  0  0  0  0  0  0  0  0  0  0  0
   40.2884   36.9930   40.5785 H   0  0  0  0  0  0  0  0  0  0  0  0
   38.2965   35.6555   39.8464 H   0  0  0  0  0  0  0  0  0  0  0  0
   38.5297   33.2770   39.2190 H   0  0  0  0  0  0  0  0  0  0  0  0
   42.1409   31.1609   39.4463 H   0  0  0  0  0  0  0  0  0  0  0  0
  2  3  2  0
  2  1  1  0
  3 12  1  0
  4  3  1  0
  5  4  2  0
  6  5  1  0
  6  7  2  0
  7  2  1  0
  8 15  1  0
  9  8  1  0
 10  9  1  0
 11 12  1  0
 11 10  1  0
 12  8  1  0
 13 18  2  0
 14 13  1  0
 15 14  2  0
 15 16  1  0
 16 17  2  0
 17 18  1  0
 19 20  2  0
 20  7  1  0
 20 21  1  0
 22 21  2  0
 23 22  1  0
 24 19  1  0
 24 23  2  0
 25 19  1  0
 25 26  2  0
 27 25  2  0
  4 28  1  0
  5 29  1  0
  6 30  1  0
  9 31  1  0
  9 32  1  0
 10 33  1  0
 10 34  1  0
 11 35  1  0
 11 36  1  0
 12 37  1  1
 13 38  1  0
 14 39  1  0
 17 40  1  0
 21 41  1  0
 22 42  1  0
 23 43  1  0
 24 44  1  0
 25 45  1  0
M  ISO  8  28  14  29  14  30  14  31  13  32  13  33  13  34  13  35  13
M  ISO  8  36  13  37  13  38  14  39  14  40  14  41  14  42  14  43  14
M  ISO  2  44  14  45  11
M  END
>  <minimizedAffinity>  (1) 
-6.77711058

>  <minimizedRMSD>  (1) 
1.0216608

$$$$
