
     RDKit          3D

 44 47  0  0  1  0  0  0  0  0999 V2000
   46.6920   34.1400   42.3450 N   0  0  0  0  0  0  0  0  0  0  0  0
   47.9340   33.4460   42.1740 C   0  0  0  0  0  0  0  0  0  0  0  0
   48.5440   34.3400   41.1070 C   0  0  0  0  0  0  0  0  0  0  0  0
   47.3910   34.2830   40.0940 C   0  0  0  0  0  0  0  0  0  0  0  0
   46.2150   34.4510   40.9910 C   0  0  1  0  0  0  0  0  0  0  0  0
   43.6310   35.6160   40.8410 F   0  0  0  0  0  0  0  0  0  0  0  0
   43.7470   34.2790   40.5250 C   0  0  0  0  0  0  0  0  0  0  0  0
   44.9960   33.7290   40.6210 C   0  0  0  0  0  0  0  0  0  0  0  0
   45.0700   32.3820   40.3020 C   0  0  0  0  0  0  0  0  0  0  0  0
   43.9520   31.6720   39.9220 C   0  0  0  0  0  0  0  0  0  0  0  0
   42.6940   32.2970   39.8430 C   0  0  0  0  0  0  0  0  0  0  0  0
   42.5980   33.6650   40.1630 C   0  0  0  0  0  0  0  0  0  0  0  0
   41.3310   34.3110   40.0890 N   0  0  0  0  0  0  0  0  0  0  0  0
   40.6440   35.0360   39.0150 C   0  0  0  0  0  0  0  0  0  0  0  0
   39.2010   34.5500   39.1260 C   0  0  0  0  0  0  0  0  0  0  0  0
   39.1090   33.8650   40.4730 C   0  0  0  0  0  0  0  0  0  0  0  0
   40.3460   34.4000   41.1700 C   0  0  0  0  0  0  0  0  0  0  0  0
   44.5530   35.9870   44.7680 C   0  0  0  0  0  0  0  0  0  0  0  0
   45.2220   35.6860   43.5910 C   0  0  0  0  0  0  0  0  0  0  0  0
   45.9790   34.5130   43.5080 C   0  0  0  0  0  0  0  0  0  0  0  0
   46.0130   33.7290   44.5970 N   0  0  0  0  0  0  0  0  0  0  0  0
   45.3630   34.0220   45.7390 C   0  0  0  0  0  0  0  0  0  0  0  0
   44.6300   35.1580   45.8250 N   0  0  0  0  0  0  0  0  0  0  0  0
   48.5327   33.4336   43.0967 H   0  0  0  0  0  0  0  0  0  0  0  0
   47.8547   32.3795   41.9166 H   0  0  0  0  0  0  0  0  0  0  0  0
   48.7263   35.3610   41.4735 H   0  0  0  0  0  0  0  0  0  0  0  0
   49.5321   34.0366   40.7307 H   0  0  0  0  0  0  0  0  0  0  0  0
   47.3630   33.3173   39.5680 H   0  0  0  0  0  0  0  0  0  0  0  0
   47.4575   35.0301   39.2894 H   0  0  0  0  0  0  0  0  0  0  0  0
   45.8571   35.4877   40.9067 H   0  0  0  0  0  0  0  0  0  0  0  0
   46.0418   31.8691   40.3533 H   0  0  0  0  0  0  0  0  0  0  0  0
   44.0441   30.6035   39.6774 H   0  0  0  0  0  0  0  0  0  0  0  0
   41.8033   31.7285   39.5374 H   0  0  0  0  0  0  0  0  0  0  0  0
   41.0704   34.7819   38.0334 H   0  0  0  0  0  0  0  0  0  0  0  0
   40.7373   36.1282   39.1065 H   0  0  0  0  0  0  0  0  0  0  0  0
   38.5041   35.3997   39.0781 H   0  0  0  0  0  0  0  0  0  0  0  0
   38.9341   33.8708   38.3030 H   0  0  0  0  0  0  0  0  0  0  0  0
   38.1912   34.1513   41.0075 H   0  0  0  0  0  0  0  0  0  0  0  0
   39.0661   32.7673   40.4158 H   0  0  0  0  0  0  0  0  0  0  0  0
   40.6296   33.7736   42.0286 H   0  0  0  0  0  0  0  0  0  0  0  0
   40.2283   35.4069   41.5969 H   0  0  0  0  0  0  0  0  0  0  0  0
   43.9562   36.9084   44.8378 H   0  0  0  0  0  0  0  0  0  0  0  0
   45.1576   36.3655   42.7284 H   0  0  0  0  0  0  0  0  0  0  0  0
   45.4270   33.3406   46.6002 H   0  0  0  0  0  0  0  0  0  0  0  0
  1 20  1  0
  2  1  1  0
  3  2  1  0
  4  5  1  0
  4  3  1  0
  5  1  1  0
  7  8  2  0
  7  6  1  0
  8  5  1  0
  9  8  1  0
 10  9  2  0
 11 10  1  0
 11 12  2  0
 12  7  1  0
 13 12  1  0
 13 17  1  0
 14 15  1  0
 14 13  1  0
 15 16  1  0
 16 17  1  0
 18 23  2  0
 19 18  1  0
 20 19  2  0
 20 21  1  0
 21 22  2  0
 22 23  1  0
  2 24  1  0
  2 25  1  0
  3 26  1  0
  3 27  1  0
  4 28  1  0
  4 29  1  0
  5 30  1  1
  9 31  1  0
 10 32  1  0
 11 33  1  0
 14 34  1  0
 14 35  1  0
 15 36  1  0
 15 37  1  0
 16 38  1  0
 16 39  1  0
 17 40  1  0
 17 41  1  0
 18 42  1  0
 19 43  1  0
 22 44  1  0
M  ISO  8  24  13  25  13  26  13  27  13  28  13  29  13  30  13  31  14
M  ISO  8  32  14  33  14  34  13  35  13  36  13  37  13  38  13  39  13
M  ISO  5  40  13  41  13  42  14  43  14  44  14
M  END
>  <minimizedAffinity>  (1) 
-6.35865736

>  <minimizedRMSD>  (1) 
1.29554725

$$$$
