
     RDKit          3D

 38 40  0  0  1  0  0  0  0  0999 V2000
   46.8740   34.1260   42.5370 N   0  0  0  0  0  0  0  0  0  0  0  0
   48.0960   33.3890   42.3820 C   0  0  0  0  0  0  0  0  0  0  0  0
   48.7980   34.3300   41.4190 C   0  0  0  0  0  0  0  0  0  0  0  0
   47.7090   34.4320   40.3510 C   0  0  0  0  0  0  0  0  0  0  0  0
   46.4880   34.5620   41.1910 C   0  0  1  0  0  0  0  0  0  0  0  0
   43.9980   35.8870   40.8670 F   0  0  0  0  0  0  0  0  0  0  0  0
   44.0650   34.5570   40.5120 C   0  0  0  0  0  0  0  0  0  0  0  0
   45.2680   33.9310   40.6940 C   0  0  0  0  0  0  0  0  0  0  0  0
   45.2920   32.5900   40.3360 C   0  0  0  0  0  0  0  0  0  0  0  0
   44.1680   31.9660   39.8370 C   0  0  0  0  0  0  0  0  0  0  0  0
   42.9620   32.6660   39.6740 C   0  0  0  0  0  0  0  0  0  0  0  0
   42.9230   34.0090   40.0280 C   0  0  0  0  0  0  0  0  0  0  0  0
   41.7110   34.6570   39.8500 O   0  0  0  0  0  0  0  0  0  0  0  0
   39.6710   34.0570   41.3550 O   0  0  0  0  0  0  0  0  0  0  0  0
   40.6880   35.1470   41.1080 P   0  0  0  0  0  0  0  0  0  0  0  0
   39.9150   36.6020   40.6720 O   0  0  0  0  0  0  0  0  0  0  0  0
   41.5590   35.4770   42.5330 O   0  0  0  0  0  0  0  0  0  0  0  0
   44.5650   35.8080   44.9250 C   0  0  0  0  0  0  0  0  0  0  0  0
   45.2760   35.5730   43.7550 C   0  0  0  0  0  0  0  0  0  0  0  0
   46.1080   34.4410   43.6870 C   0  0  0  0  0  0  0  0  0  0  0  0
   46.1700   33.6440   44.7660 N   0  0  0  0  0  0  0  0  0  0  0  0
   45.4710   33.8860   45.8970 C   0  0  0  0  0  0  0  0  0  0  0  0
   44.6640   34.9790   45.9710 N   0  0  0  0  0  0  0  0  0  0  0  0
   48.6411   33.2837   43.3316 H   0  0  0  0  0  0  0  0  0  0  0  0
   47.9891   32.3478   42.0437 H   0  0  0  0  0  0  0  0  0  0  0  0
   49.0168   35.3045   41.8799 H   0  0  0  0  0  0  0  0  0  0  0  0
   49.7825   33.9941   41.0613 H   0  0  0  0  0  0  0  0  0  0  0  0
   47.6728   33.5281   39.7252 H   0  0  0  0  0  0  0  0  0  0  0  0
   47.8542   35.2560   39.6369 H   0  0  0  0  0  0  0  0  0  0  0  0
   46.1676   35.6142   41.1744 H   0  0  0  0  0  0  0  0  0  0  0  0
   46.2229   32.0157   40.4523 H   0  0  0  0  0  0  0  0  0  0  0  0
   44.2172   30.9020   39.5621 H   0  0  0  0  0  0  0  0  0  0  0  0
   42.0687   32.1629   39.2753 H   0  0  0  0  0  0  0  0  0  0  0  0
   39.6533   37.0946   41.4899 H   0  0  0  0  0  0  0  0  0  0  0  0
   40.9972   35.2642   43.3199 H   0  0  0  0  0  0  0  0  0  0  0  0
   43.9103   36.6893   44.9928 H   0  0  0  0  0  0  0  0  0  0  0  0
   45.1901   36.2584   42.8989 H   0  0  0  0  0  0  0  0  0  0  0  0
   45.5541   33.2020   46.7545 H   0  0  0  0  0  0  0  0  0  0  0  0
  1 20  1  0
  2  1  1  0
  3  2  1  0
  4  5  1  0
  4  3  1  0
  5  1  1  0
  7  8  2  0
  7  6  1  0
  8  5  1  0
  9  8  1  0
 10  9  2  0
 11 10  1  0
 11 12  2  0
 12  7  1  0
 13 12  1  0
 13 15  1  0
 15 14  2  0
 15 17  1  0
 16 15  1  0
 18 23  2  0
 19 18  1  0
 20 19  2  0
 20 21  1  0
 21 22  2  0
 22 23  1  0
  2 24  1  0
  2 25  1  0
  3 26  1  0
  3 27  1  0
  4 28  1  0
  4 29  1  0
  5 30  1  1
  9 31  1  0
 10 32  1  0
 11 33  1  0
 16 34  1  0
 17 35  1  0
 18 36  1  0
 19 37  1  0
 22 38  1  0
M  ISO  8  24  13  25  13  26  13  27  13  28  13  29  13  30  13  31  14
M  ISO  7  32  14  33  14  34   3  35   3  36  14  37  14  38  14
M  END
>  <minimizedAffinity>  (1) 
-6.27577829

>  <minimizedRMSD>  (1) 
1.57285309

$$$$
