
     RDKit          3D

 36 38  0  0  1  0  0  0  0  0999 V2000
   46.6910   34.1020   42.4090 N   0  0  0  0  0  0  0  0  0  0  0  0
   47.8910   33.3420   42.2120 C   0  0  0  0  0  0  0  0  0  0  0  0
   48.5690   34.2530   41.2030 C   0  0  0  0  0  0  0  0  0  0  0  0
   47.4270   34.3310   40.1810 C   0  0  0  0  0  0  0  0  0  0  0  0
   46.2490   34.5230   41.0740 C   0  0  1  0  0  0  0  0  0  0  0  0
   43.7550   35.8650   40.9310 F   0  0  0  0  0  0  0  0  0  0  0  0
   43.7890   34.5360   40.5510 C   0  0  0  0  0  0  0  0  0  0  0  0
   44.9990   33.9030   40.6500 C   0  0  0  0  0  0  0  0  0  0  0  0
   44.9850   32.5670   40.2700 C   0  0  0  0  0  0  0  0  0  0  0  0
   43.8270   31.9580   39.8340 C   0  0  0  0  0  0  0  0  0  0  0  0
   42.6200   32.6720   39.7580 C   0  0  0  0  0  0  0  0  0  0  0  0
   42.6120   34.0170   40.1350 C   0  0  0  0  0  0  0  0  0  0  0  0
   41.3220   35.4650   38.8330 C   0  0  0  0  0  0  0  0  0  0  0  0
   42.3180   35.2650   38.0720 O   0  0  0  0  0  0  0  0  0  0  0  0
   41.4060   34.7700   40.0720 N   0  0  0  0  0  0  0  0  0  0  0  0
   44.5600   35.8800   44.8910 C   0  0  0  0  0  0  0  0  0  0  0  0
   45.2150   35.6130   43.6960 C   0  0  0  0  0  0  0  0  0  0  0  0
   45.9860   34.4490   43.5880 C   0  0  0  0  0  0  0  0  0  0  0  0
   46.0500   33.6440   44.6610 N   0  0  0  0  0  0  0  0  0  0  0  0
   45.4090   33.9110   45.8200 C   0  0  0  0  0  0  0  0  0  0  0  0
   44.6580   35.0420   45.9300 N   0  0  0  0  0  0  0  0  0  0  0  0
   48.4753   33.2418   43.1386 H   0  0  0  0  0  0  0  0  0  0  0  0
   47.7496   32.2982   41.8949 H   0  0  0  0  0  0  0  0  0  0  0  0
   48.8140   35.2370   41.6293 H   0  0  0  0  0  0  0  0  0  0  0  0
   49.5388   33.9066   40.8164 H   0  0  0  0  0  0  0  0  0  0  0  0
   47.3436   33.4016   39.5985 H   0  0  0  0  0  0  0  0  0  0  0  0
   47.5523   35.1197   39.4245 H   0  0  0  0  0  0  0  0  0  0  0  0
   45.9539   35.5824   41.0493 H   0  0  0  0  0  0  0  0  0  0  0  0
   45.9161   31.9832   40.3178 H   0  0  0  0  0  0  0  0  0  0  0  0
   43.8490   30.8978   39.5416 H   0  0  0  0  0  0  0  0  0  0  0  0
   41.6993   32.1819   39.4086 H   0  0  0  0  0  0  0  0  0  0  0  0
   40.4757   36.1129   38.5611 H   0  0  0  0  0  0  0  0  0  0  0  0
   40.6955   34.8067   40.8168 H   0  0  0  0  0  0  0  0  0  0  0  0
   43.9526   36.7923   44.9849 H   0  0  0  0  0  0  0  0  0  0  0  0
   45.1294   36.3061   42.8461 H   0  0  0  0  0  0  0  0  0  0  0  0
   45.4932   33.2185   46.6705 H   0  0  0  0  0  0  0  0  0  0  0  0
  1 18  1  0
  2  1  1  0
  3  2  1  0
  4  5  1  0
  4  3  1  0
  5  1  1  0
  7  8  2  0
  7  6  1  0
  8  5  1  0
  9  8  1  0
 10  9  2  0
 11 10  1  0
 11 12  2  0
 12  7  1  0
 13 15  1  0
 14 13  2  0
 15 12  1  0
 16 21  2  0
 17 16  1  0
 18 17  2  0
 18 19  1  0
 19 20  2  0
 20 21  1  0
  2 22  1  0
  2 23  1  0
  3 24  1  0
  3 25  1  0
  4 26  1  0
  4 27  1  0
  5 28  1  1
  9 29  1  0
 10 30  1  0
 11 31  1  0
 13 32  1  0
 15 33  1  0
 16 34  1  0
 17 35  1  0
 20 36  1  0
M  ISO  8  22  13  23  13  24  13  25  13  26  13  27  13  28  13  29  14
M  ISO  6  30  14  31  14  32   6  34  14  35  14  36  14
M  END
>  <minimizedAffinity>  (1) 
-5.48630571

>  <minimizedRMSD>  (1) 
1.59647143

$$$$
