
     RDKit          3D

 38 40  0  0  1  0  0  0  0  0999 V2000
   46.6910   34.1030   42.3580 N   0  0  0  0  0  0  0  0  0  0  0  0
   47.9110   33.3530   42.1860 C   0  0  0  0  0  0  0  0  0  0  0  0
   48.5720   34.2430   41.1430 C   0  0  0  0  0  0  0  0  0  0  0  0
   47.4350   34.2760   40.1140 C   0  0  0  0  0  0  0  0  0  0  0  0
   46.2540   34.4580   41.0030 C   0  0  1  0  0  0  0  0  0  0  0  0
   43.7560   35.7760   40.6790 F   0  0  0  0  0  0  0  0  0  0  0  0
   43.7980   34.4300   40.4220 C   0  0  0  0  0  0  0  0  0  0  0  0
   45.0090   33.8030   40.5950 C   0  0  0  0  0  0  0  0  0  0  0  0
   45.0160   32.4420   40.3270 C   0  0  0  0  0  0  0  0  0  0  0  0
   43.8710   31.7910   39.9170 C   0  0  0  0  0  0  0  0  0  0  0  0
   42.6660   32.4760   39.7580 C   0  0  0  0  0  0  0  0  0  0  0  0
   42.6440   33.8450   40.0230 C   0  0  0  0  0  0  0  0  0  0  0  0
   41.3300   34.5070   39.8140 C   0  0  0  0  0  0  0  0  0  0  0  0
   41.2480   35.2300   38.4920 C   0  0  0  0  0  0  0  0  0  0  0  0
   44.5510   35.9540   44.7650 C   0  0  0  0  0  0  0  0  0  0  0  0
   45.2180   35.6570   43.5810 C   0  0  0  0  0  0  0  0  0  0  0  0
   45.9740   34.4880   43.5220 C   0  0  0  0  0  0  0  0  0  0  0  0
   46.0200   33.7040   44.6130 N   0  0  0  0  0  0  0  0  0  0  0  0
   45.3730   33.9950   45.7540 C   0  0  0  0  0  0  0  0  0  0  0  0
   44.6300   35.1370   45.8220 N   0  0  0  0  0  0  0  0  0  0  0  0
   48.4976   33.2956   43.1148 H   0  0  0  0  0  0  0  0  0  0  0  0
   47.7888   32.2961   41.9065 H   0  0  0  0  0  0  0  0  0  0  0  0
   48.8017   35.2435   41.5382 H   0  0  0  0  0  0  0  0  0  0  0  0
   49.5451   33.8943   40.7668 H   0  0  0  0  0  0  0  0  0  0  0  0
   47.3740   33.3343   39.5487 H   0  0  0  0  0  0  0  0  0  0  0  0
   47.5448   35.0507   39.3409 H   0  0  0  0  0  0  0  0  0  0  0  0
   45.9415   35.5108   40.9407 H   0  0  0  0  0  0  0  0  0  0  0  0
   45.9499   31.8725   40.4433 H   0  0  0  0  0  0  0  0  0  0  0  0
   43.9087   30.7110   39.7115 H   0  0  0  0  0  0  0  0  0  0  0  0
   41.7567   31.9498   39.4320 H   0  0  0  0  0  0  0  0  0  0  0  0
   40.5408   33.7415   39.8464 H   0  0  0  0  0  0  0  0  0  0  0  0
   41.2032   35.2546   40.6109 H   0  0  0  0  0  0  0  0  0  0  0  0
   41.1257   36.3084   38.6709 H   0  0  0  0  0  0  0  0  0  0  0  0
   42.1717   35.0555   37.9207 H   0  0  0  0  0  0  0  0  0  0  0  0
   40.3868   34.8531   37.9207 H   0  0  0  0  0  0  0  0  0  0  0  0
   43.9504   36.8730   44.8334 H   0  0  0  0  0  0  0  0  0  0  0  0
   45.1503   36.3286   42.7125 H   0  0  0  0  0  0  0  0  0  0  0  0
   45.4415   33.3218   46.6212 H   0  0  0  0  0  0  0  0  0  0  0  0
  1 17  1  0
  2  1  1  0
  3  2  1  0
  4  5  1  0
  4  3  1  0
  5  1  1  0
  7  8  2  0
  7  6  1  0
  8  5  1  0
  9  8  1  0
 10  9  2  0
 11 10  1  0
 11 12  2  0
 12  7  1  0
 13 12  1  0
 14 13  1  0
 15 20  2  0
 16 15  1  0
 17 16  2  0
 17 18  1  0
 18 19  2  0
 19 20  1  0
  2 21  1  0
  2 22  1  0
  3 23  1  0
  3 24  1  0
  4 25  1  0
  4 26  1  0
  5 27  1  1
  9 28  1  0
 10 29  1  0
 11 30  1  0
 13 31  1  0
 13 32  1  0
 14 33  1  0
 14 34  1  0
 14 35  1  0
 15 36  1  0
 16 37  1  0
 19 38  1  0
M  ISO  8  21  13  22  13  23  13  24  13  25  13  26  13  27  13  28  14
M  ISO  8  29  14  30  14  31   8  32   8  33   8  34   8  35   8  36  14
M  ISO  2  37  14  38  14
M  END
>  <minimizedAffinity>  (1) 
-5.36376095

>  <minimizedRMSD>  (1) 
1.1451087

$$$$
