
     RDKit          3D

 33 35  0  0  1  0  0  0  0  0999 V2000
   46.5070   34.6190   42.4470 C   0  0  0  0  0  0  0  0  0  0  0  0
   47.2630   34.8030   41.2650 C   0  0  0  0  0  0  0  0  0  0  0  0
   48.3050   33.8790   41.0000 C   0  0  0  0  0  0  0  0  0  0  0  0
   48.5290   32.8690   41.8830 N   0  0  0  0  0  0  0  0  0  0  0  0
   47.7780   32.7350   43.0010 C   0  0  0  0  0  0  0  0  0  0  0  0
   46.7820   33.5920   43.2850 N   0  0  0  0  0  0  0  0  0  0  0  0
   47.9320   31.7240   43.9740 N   0  0  0  0  0  0  0  0  0  0  0  0
   48.6460   30.6610   43.5400 C   0  0  0  0  0  0  0  0  0  0  0  0
   48.8660   29.5950   44.4060 C   0  0  0  0  0  0  0  0  0  0  0  0
   48.3170   29.7180   45.6810 C   0  0  0  0  0  0  0  0  0  0  0  0
   48.5080   28.7610   46.4730 O   0  0  0  0  0  0  0  0  0  0  0  0
   47.6140   30.7930   46.0700 N   0  0  0  0  0  0  0  0  0  0  0  0
   47.4230   31.8000   45.2070 C   0  0  0  0  0  0  0  0  0  0  0  0
   46.7810   32.8600   45.4580 O   0  0  0  0  0  0  0  0  0  0  0  0
   45.7140   30.2640   47.5680 C   0  0  1  0  0  0  0  0  0  0  0  0
   47.0470   30.9260   47.3790 C   0  0  2  0  0  0  0  0  0  0  0  0
   46.9010   32.2530   47.7620 O   0  0  0  0  0  0  0  0  0  0  0  0
   45.6950   32.3980   48.4160 C   0  0  0  0  0  0  0  0  0  0  0  0
   45.3000   30.9830   48.8650 C   0  0  2  0  0  0  0  0  0  0  0  0
   44.7610   30.6610   46.6420 O   0  0  0  0  0  0  0  0  0  0  0  0
   46.1310   30.6650   49.9240 O   0  0  0  0  0  0  0  0  0  0  0  0
   45.6900   35.3155   42.6866 H   0  0  0  0  0  0  0  0  0  0  0  0
   47.0497   35.6336   40.5761 H   0  0  0  0  0  0  0  0  0  0  0  0
   48.9224   33.9773   40.0949 H   0  0  0  0  0  0  0  0  0  0  0  0
   49.0474   30.6395   42.5161 H   0  0  0  0  0  0  0  0  0  0  0  0
   49.4397   28.7069   44.1023 H   0  0  0  0  0  0  0  0  0  0  0  0
   45.7761   29.1667   47.5233 H   0  0  0  0  0  0  0  0  0  0  0  0
   47.7836   30.4068   48.0097 H   0  0  0  0  0  0  0  0  0  0  0  0
   45.8070   33.0606   49.2869 H   0  0  0  0  0  0  0  0  0  0  0  0
   44.9300   32.8491   47.7669 H   0  0  0  0  0  0  0  0  0  0  0  0
   44.2728   30.7786   49.2014 H   0  0  0  0  0  0  0  0  0  0  0  0
   43.9589   30.9951   47.1165 H   0  0  0  0  0  0  0  0  0  0  0  0
   45.6618   30.8445   50.7771 H   0  0  0  0  0  0  0  0  0  0  0  0
  1  6  2  0
  2  1  1  0
  3  2  2  0
  3  4  1  0
  4  5  2  0
  5  6  1  0
  5  7  1  0
  7 13  1  0
  8  7  1  0
  8  9  2  0
  9 10  1  0
 10 12  1  0
 10 11  2  0
 13 14  2  0
 13 12  1  0
 15 20  1  0
 15 19  1  0
 16 12  1  0
 16 15  1  0
 16 17  1  0
 17 18  1  0
 18 19  1  0
 19 21  1  0
  1 22  1  0
  2 23  1  0
  3 24  1  0
  8 25  1  0
  9 26  1  0
 15 27  1  1
 16 28  1  1
 18 29  1  0
 18 30  1  0
 19 31  1  1
 20 32  1  0
 21 33  1  0
M  ISO  8  22  14  23  14  24  14  25  14  26  14  27  13  28  13  29  13
M  ISO  4  30  13  31  13  32   3  33   3
M  END
>  <minimizedAffinity>  (1) 
-5.10245419

>  <minimizedRMSD>  (1) 
3.7733655

$$$$
