
     RDKit          3D

 37 41  0  0  0  0  0  0  0  0999 V2000
   46.0740   34.7440   41.6600 C   0  0  0  0  0  0  0  0  0  0  0  0
   46.1930   35.1980   42.9680 C   0  0  0  0  0  0  0  0  0  0  0  0
   45.0320   35.6170   43.6320 C   0  0  0  0  0  0  0  0  0  0  0  0
   43.8750   35.5460   42.9410 N   0  0  0  0  0  0  0  0  0  0  0  0
   43.7700   35.1070   41.6810 C   0  0  0  0  0  0  0  0  0  0  0  0
   44.8910   34.7040   41.0450 N   0  0  0  0  0  0  0  0  0  0  0  0
   41.4050   35.7490   41.4150 C   0  0  0  0  0  0  0  0  0  0  0  0
   42.5030   35.0440   40.9600 C   0  0  0  0  0  0  0  0  0  0  0  0
   42.3640   34.2850   39.8130 C   0  0  0  0  0  0  0  0  0  0  0  0
   41.1850   34.1990   39.1020 C   0  0  0  0  0  0  0  0  0  0  0  0
   40.1500   34.9220   39.6140 C   0  0  0  0  0  0  0  0  0  0  0  0
   40.1700   35.7180   40.7560 C   0  0  0  0  0  0  0  0  0  0  0  0
   39.0650   34.7140   38.7790 O   0  0  0  0  0  0  0  0  0  0  0  0
   39.4360   33.9420   37.6750 C   0  0  0  0  0  0  0  0  0  0  0  0
   40.7650   33.5430   37.9610 O   0  0  0  0  0  0  0  0  0  0  0  0
   47.6330   34.2220   40.8860 S   0  0  0  0  0  0  0  0  0  0  0  0
   46.0960   32.9570   39.0610 C   0  0  0  0  0  0  0  0  0  0  0  0
   47.3030   33.6120   39.2310 C   0  0  0  0  0  0  0  0  0  0  0  0
   48.1870   33.7760   38.1840 C   0  0  0  0  0  0  0  0  0  0  0  0
   47.8660   33.2770   36.9280 C   0  0  0  0  0  0  0  0  0  0  0  0
   46.6480   32.6110   36.7340 C   0  0  0  0  0  0  0  0  0  0  0  0
   45.7740   32.4560   37.7920 C   0  0  0  0  0  0  0  0  0  0  0  0
   46.5880   32.2210   35.3920 O   0  0  0  0  0  0  0  0  0  0  0  0
   47.9280   32.3080   34.9020 C   0  0  0  0  0  0  0  0  0  0  0  0
   48.5560   33.2930   35.6940 O   0  0  0  0  0  0  0  0  0  0  0  0
   47.1720   35.2277   43.4687 H   0  0  0  0  0  0  0  0  0  0  0  0
   45.0625   35.9864   44.6677 H   0  0  0  0  0  0  0  0  0  0  0  0
   41.5047   36.3559   42.3270 H   0  0  0  0  0  0  0  0  0  0  0  0
   43.2363   33.7220   39.4494 H   0  0  0  0  0  0  0  0  0  0  0  0
   39.2903   36.2752   41.1105 H   0  0  0  0  0  0  0  0  0  0  0  0
   39.3978   34.5383   36.7514 H   0  0  0  0  0  0  0  0  0  0  0  0
   38.7642   33.0858   37.5146 H   0  0  0  0  0  0  0  0  0  0  0  0
   45.4024   32.8318   39.9055 H   0  0  0  0  0  0  0  0  0  0  0  0
   49.1413   34.2994   38.3433 H   0  0  0  0  0  0  0  0  0  0  0  0
   44.8175   31.9352   37.6377 H   0  0  0  0  0  0  0  0  0  0  0  0
   48.4412   31.3413   35.0123 H   0  0  0  0  0  0  0  0  0  0  0  0
   47.9556   32.5654   33.8329 H   0  0  0  0  0  0  0  0  0  0  0  0
  1  2  2  0
  2  3  1  0
  4  3  2  0
  5  4  1  0
  6  1  1  0
  6  5  2  0
  8  7  2  0
  8  5  1  0
  9  8  1  0
 10 11  1  0
 10  9  2  0
 11 12  2  0
 12  7  1  0
 13 11  1  0
 14 15  1  0
 14 13  1  0
 15 10  1  0
 16  1  1  0
 17 18  2  0
 18 16  1  0
 19 18  1  0
 20 19  2  0
 21 20  1  0
 21 22  2  0
 22 17  1  0
 23 21  1  0
 24 23  1  0
 24 25  1  0
 25 20  1  0
  2 26  1  0
  3 27  1  0
  7 28  1  0
  9 29  1  0
 12 30  1  0
 14 31  1  0
 14 32  1  0
 17 33  1  0
 19 34  1  0
 22 35  1  0
 24 36  1  0
 24 37  1  0
M  ISO  8  26  14  27  14  28  14  29  14  30  14  31  13  32  13  33  14
M  ISO  4  34  14  35  14  36  13  37  13
M  END
>  <minimizedAffinity>  (1) 
-6.40967798

>  <minimizedRMSD>  (1) 
7.29896069

$$$$
