
     RDKit          3D

 32 35  0  0  0  0  0  0  0  0999 V2000
   44.9060   34.3140   40.9460 S   0  0  0  0  0  0  0  0  0  0  0  0
   42.3360   33.5420   41.2820 C   0  0  0  0  0  0  0  0  0  0  0  0
   43.1880   34.2340   40.4300 C   0  0  0  0  0  0  0  0  0  0  0  0
   42.7070   34.8090   39.2700 C   0  0  0  0  0  0  0  0  0  0  0  0
   41.3660   34.6990   38.9480 C   0  0  0  0  0  0  0  0  0  0  0  0
   40.5060   34.0120   39.7910 C   0  0  0  0  0  0  0  0  0  0  0  0
   40.9890   33.4380   40.9510 C   0  0  0  0  0  0  0  0  0  0  0  0
   39.2140   34.0580   39.2240 O   0  0  0  0  0  0  0  0  0  0  0  0
   39.4180   34.4470   37.8650 C   0  0  0  0  0  0  0  0  0  0  0  0
   40.6240   35.1840   37.8430 O   0  0  0  0  0  0  0  0  0  0  0  0
   44.9940   34.4490   42.7550 C   0  0  0  0  0  0  0  0  0  0  0  0
   44.4630   35.6290   43.2570 C   0  0  0  0  0  0  0  0  0  0  0  0
   44.4970   35.8030   44.6560 C   0  0  0  0  0  0  0  0  0  0  0  0
   45.0390   34.8210   45.4120 N   0  0  0  0  0  0  0  0  0  0  0  0
   45.5400   33.6960   44.8730 C   0  0  0  0  0  0  0  0  0  0  0  0
   45.5150   33.5180   43.5530 N   0  0  0  0  0  0  0  0  0  0  0  0
   46.1160   32.6620   45.7290 C   0  0  0  0  0  0  0  0  0  0  0  0
   46.0520   31.3260   45.3930 C   0  0  0  0  0  0  0  0  0  0  0  0
   46.5930   30.3170   46.1910 C   0  0  0  0  0  0  0  0  0  0  0  0
   47.2090   30.6670   47.3490 N   0  0  0  0  0  0  0  0  0  0  0  0
   47.2650   31.9680   47.6650 C   0  0  0  0  0  0  0  0  0  0  0  0
   46.7440   32.9730   46.9010 N   0  0  0  0  0  0  0  0  0  0  0  0
   42.7210   33.0832   42.2046 H   0  0  0  0  0  0  0  0  0  0  0  0
   43.3901   35.3544   38.6022 H   0  0  0  0  0  0  0  0  0  0  0  0
   40.3033   32.8947   41.6178 H   0  0  0  0  0  0  0  0  0  0  0  0
   39.5024   33.5582   37.2224 H   0  0  0  0  0  0  0  0  0  0  0  0
   38.5754   35.0454   37.4884 H   0  0  0  0  0  0  0  0  0  0  0  0
   44.0347   36.3944   42.5931 H   0  0  0  0  0  0  0  0  0  0  0  0
   44.0929   36.7144   45.1208 H   0  0  0  0  0  0  0  0  0  0  0  0
   45.5525   31.0432   44.4546 H   0  0  0  0  0  0  0  0  0  0  0  0
   46.5219   29.2618   45.8885 H   0  0  0  0  0  0  0  0  0  0  0  0
   47.7651   32.2457   48.6046 H   0  0  0  0  0  0  0  0  0  0  0  0
  1 11  1  0
  3  1  1  0
  3  2  2  0
  4  3  1  0
  5  4  2  0
  5  6  1  0
  6  7  2  0
  7  2  1  0
  8  6  1  0
  9  8  1  0
 10  9  1  0
 10  5  1  0
 11 12  2  0
 11 16  1  0
 12 13  1  0
 13 14  2  0
 15 14  1  0
 15 17  1  0
 16 15  2  0
 17 22  1  0
 18 17  2  0
 18 19  1  0
 19 20  2  0
 20 21  1  0
 22 21  2  0
  2 23  1  0
  4 24  1  0
  7 25  1  0
  9 26  1  0
  9 27  1  0
 12 28  1  0
 13 29  1  0
 18 30  1  0
 19 31  1  0
 21 32  1  0
M  ISO  8  23  14  24  14  25  14  26  13  27  13  28  14  29  14  30  14
M  ISO  2  31  14  32  14
M  END
>  <minimizedAffinity>  (1) 
-5.78391504

>  <minimizedRMSD>  (1) 
3.99314165

$$$$
