
     RDKit          3D

 26 28  0  0  0  0  0  0  0  0999 V2000
   42.5750   35.2980   41.8230 C   0  0  0  0  0  0  0  0  0  0  0  0
   43.4370   34.8400   40.8460 C   0  0  0  0  0  0  0  0  0  0  0  0
   42.9770   34.5360   39.5860 C   0  0  0  0  0  0  0  0  0  0  0  0
   41.6380   34.6860   39.2760 C   0  0  0  0  0  0  0  0  0  0  0  0
   40.7600   35.1480   40.2550 C   0  0  0  0  0  0  0  0  0  0  0  0
   41.2120   35.4580   41.5320 C   0  0  0  0  0  0  0  0  0  0  0  0
   39.4660   35.2130   39.6960 O   0  0  0  0  0  0  0  0  0  0  0  0
   39.5440   34.4310   38.5040 C   0  0  0  0  0  0  0  0  0  0  0  0
   40.8900   34.4630   38.1040 O   0  0  0  0  0  0  0  0  0  0  0  0
   45.1480   34.6790   41.3440 S   0  0  0  0  0  0  0  0  0  0  0  0
   45.2480   34.3340   43.1170 C   0  0  0  0  0  0  0  0  0  0  0  0
   45.8710   33.1350   43.4320 C   0  0  0  0  0  0  0  0  0  0  0  0
   45.9920   32.7870   44.7860 C   0  0  0  0  0  0  0  0  0  0  0  0
   45.4920   33.6460   45.6970 N   0  0  0  0  0  0  0  0  0  0  0  0
   44.8960   34.7960   45.3580 C   0  0  0  0  0  0  0  0  0  0  0  0
   44.7720   35.1450   44.0630 N   0  0  0  0  0  0  0  0  0  0  0  0
   44.3990   35.6390   46.3910 N   0  0  0  0  0  0  0  0  0  0  0  0
   42.9562   35.5367   42.8268 H   0  0  0  0  0  0  0  0  0  0  0  0
   43.6782   34.1716   38.8208 H   0  0  0  0  0  0  0  0  0  0  0  0
   40.5141   35.8221   42.3003 H   0  0  0  0  0  0  0  0  0  0  0  0
   39.2301   33.3961   38.7052 H   0  0  0  0  0  0  0  0  0  0  0  0
   38.8823   34.8272   37.7196 H   0  0  0  0  0  0  0  0  0  0  0  0
   46.2594   32.4753   42.6421 H   0  0  0  0  0  0  0  0  0  0  0  0
   46.4767   31.8484   45.0927 H   0  0  0  0  0  0  0  0  0  0  0  0
   43.9371   36.5282   46.1525 H   0  0  0  0  0  0  0  0  0  0  0  0
   44.5012   35.3600   47.3772 H   0  0  0  0  0  0  0  0  0  0  0  0
  2 10  1  0
  2  1  2  0
  3  2  1  0
  4  3  2  0
  4  5  1  0
  5  6  2  0
  6  1  1  0
  7  5  1  0
  8  7  1  0
  9  8  1  0
  9  4  1  0
 10 11  1  0
 11 12  2  0
 11 16  1  0
 12 13  1  0
 13 14  2  0
 15 14  1  0
 15 17  1  0
 16 15  2  0
  1 18  1  0
  3 19  1  0
  6 20  1  0
  8 21  1  0
  8 22  1  0
 12 23  1  0
 13 24  1  0
 17 25  1  0
 17 26  1  0
M  ISO  7  18  14  19  14  20  14  21  13  22  13  23  14  24  14
M  END
>  <minimizedAffinity>  (1) 
-5.46051311

>  <minimizedRMSD>  (1) 
0.716706038

$$$$
