
     RDKit          3D

 27 29  0  0  0  0  0  0  0  0999 V2000
   42.7630   35.1090   40.3510 C   0  0  0  0  0  0  0  0  0  0  0  0
   43.1810   33.9620   39.6690 C   0  0  0  0  0  0  0  0  0  0  0  0
   42.2890   33.2300   38.9380 C   0  0  0  0  0  0  0  0  0  0  0  0
   40.9630   33.5960   38.8510 C   0  0  0  0  0  0  0  0  0  0  0  0
   40.5500   34.7320   39.5290 C   0  0  0  0  0  0  0  0  0  0  0  0
   41.4320   35.4950   40.2780 C   0  0  0  0  0  0  0  0  0  0  0  0
   39.1630   34.9040   39.2960 O   0  0  0  0  0  0  0  0  0  0  0  0
   38.7300   33.7320   38.6650 C   0  0  0  0  0  0  0  0  0  0  0  0
   39.8460   33.0570   38.1900 O   0  0  0  0  0  0  0  0  0  0  0  0
   44.9160   33.5350   39.8190 S   0  0  0  0  0  0  0  0  0  0  0  0
   45.4810   33.9260   41.5050 C   0  0  0  0  0  0  0  0  0  0  0  0
   46.6920   33.3250   41.8580 C   0  0  0  0  0  0  0  0  0  0  0  0
   47.1860   33.5920   43.1550 C   0  0  0  0  0  0  0  0  0  0  0  0
   46.4660   34.3980   43.9550 N   0  0  0  0  0  0  0  0  0  0  0  0
   45.3080   34.9550   43.5800 C   0  0  0  0  0  0  0  0  0  0  0  0
   44.8000   34.7260   42.3470 N   0  0  0  0  0  0  0  0  0  0  0  0
   44.5660   35.8370   44.5200 C   0  0  0  0  0  0  0  0  0  0  0  0
   45.0320   37.1370   44.4030 F   0  0  0  0  0  0  0  0  0  0  0  0
   44.7130   35.4180   45.8090 F   0  0  0  0  0  0  0  0  0  0  0  0
   43.2340   35.8270   44.0880 F   0  0  0  0  0  0  0  0  0  0  0  0
   43.4815   35.6990   40.9390 H   0  0  0  0  0  0  0  0  0  0  0  0
   42.6358   32.3305   38.4082 H   0  0  0  0  0  0  0  0  0  0  0  0
   41.0820   36.3937   40.8070 H   0  0  0  0  0  0  0  0  0  0  0  0
   38.1906   33.0990   39.3850 H   0  0  0  0  0  0  0  0  0  0  0  0
   38.0518   33.9763   37.8342 H   0  0  0  0  0  0  0  0  0  0  0  0
   47.2362   32.6737   41.1583 H   0  0  0  0  0  0  0  0  0  0  0  0
   48.1334   33.1526   43.5005 H   0  0  0  0  0  0  0  0  0  0  0  0
  2 10  1  0
  2  1  2  0
  3  2  1  0
  4  3  2  0
  4  5  1  0
  5  6  2  0
  6  1  1  0
  7  5  1  0
  8  7  1  0
  9  8  1  0
  9  4  1  0
 10 11  1  0
 11 12  2  0
 11 16  1  0
 12 13  1  0
 13 14  2  0
 15 14  1  0
 15 17  1  0
 16 15  2  0
 17 19  1  0
 18 17  1  0
 20 17  1  0
  1 21  1  0
  3 22  1  0
  6 23  1  0
  8 24  1  0
  8 25  1  0
 12 26  1  0
 13 27  1  0
M  ISO  7  21  14  22  14  23  14  24  13  25  13  26  14  27  14
M  END
>  <minimizedAffinity>  (1) 
-5.15207767

>  <minimizedRMSD>  (1) 
1.70315599

$$$$
