
     RDKit          3D

 31 34  0  0  0  0  0  0  0  0999 V2000
   43.3170   34.4170   40.4350 C   0  0  0  0  0  0  0  0  0  0  0  0
   42.9840   35.2220   41.5100 C   0  0  0  0  0  0  0  0  0  0  0  0
   43.9350   35.5680   42.4390 C   0  0  0  0  0  0  0  0  0  0  0  0
   45.2370   35.1270   42.3230 C   0  0  0  0  0  0  0  0  0  0  0  0
   45.5800   34.3180   41.2440 C   0  0  0  0  0  0  0  0  0  0  0  0
   44.6270   33.9660   40.3080 C   0  0  0  0  0  0  0  0  0  0  0  0
   46.9580   34.0010   41.3470 O   0  0  0  0  0  0  0  0  0  0  0  0
   47.2950   34.3150   42.6860 C   0  0  0  0  0  0  0  0  0  0  0  0
   46.3840   35.3200   43.1060 O   0  0  0  0  0  0  0  0  0  0  0  0
   41.2830   35.7570   41.5850 S   0  0  0  0  0  0  0  0  0  0  0  0
   40.2190   34.5230   40.7960 C   0  0  0  0  0  0  0  0  0  0  0  0
   39.7710   33.5480   41.6660 C   0  0  0  0  0  0  0  0  0  0  0  0
   38.9370   32.5330   41.1240 C   0  0  0  0  0  0  0  0  0  0  0  0
   38.6380   32.5880   39.7990 N   0  0  0  0  0  0  0  0  0  0  0  0
   39.1000   33.5620   38.9840 C   0  0  0  0  0  0  0  0  0  0  0  0
   39.8760   34.5010   39.5100 N   0  0  0  0  0  0  0  0  0  0  0  0
   38.7640   33.6100   37.5360 C   0  0  0  0  0  0  0  0  0  0  0  0
   37.3980   33.3920   37.0390 C   0  0  0  0  0  0  0  0  0  0  0  0
   38.3620   32.2810   36.8740 C   0  0  0  0  0  0  0  0  0  0  0  0
   42.5565   34.1375   39.6911 H   0  0  0  0  0  0  0  0  0  0  0  0
   43.6538   36.2070   43.2891 H   0  0  0  0  0  0  0  0  0  0  0  0
   44.9053   33.3258   39.4579 H   0  0  0  0  0  0  0  0  0  0  0  0
   47.1963   33.4229   43.3219 H   0  0  0  0  0  0  0  0  0  0  0  0
   48.3354   34.6639   42.7630 H   0  0  0  0  0  0  0  0  0  0  0  0
   40.0474   33.5569   42.7307 H   0  0  0  0  0  0  0  0  0  0  0  0
   38.5443   31.7252   41.7590 H   0  0  0  0  0  0  0  0  0  0  0  0
   39.5027   34.4098   37.3790 H   0  0  0  0  0  0  0  0  0  0  0  0
   36.5703   33.2893   37.7562 H   0  0  0  0  0  0  0  0  0  0  0  0
   36.7443   33.9411   36.3454 H   0  0  0  0  0  0  0  0  0  0  0  0
   38.2643   31.3673   37.4786 H   0  0  0  0  0  0  0  0  0  0  0  0
   38.7312   31.6765   36.0324 H   0  0  0  0  0  0  0  0  0  0  0  0
  1  2  2  0
  2 10  1  0
  2  3  1  0
  4  3  2  0
  4  9  1  0
  5  7  1  0
  5  4  1  0
  6  1  1  0
  6  5  2  0
  7  8  1  0
  8  9  1  0
 11 10  1  0
 11 12  2  0
 13 12  1  0
 14 13  2  0
 15 16  2  0
 15 14  1  0
 16 11  1  0
 17 15  1  0
 18 17  1  0
 19 18  1  0
 19 17  1  0
  1 20  1  0
  3 21  1  0
  6 22  1  0
  8 23  1  0
  8 24  1  0
 12 25  1  0
 13 26  1  0
 17 27  1  0
 18 28  1  0
 18 29  1  0
 19 30  1  0
 19 31  1  0
M  ISO  8  20  14  21  14  22  14  23  13  24  13  25  14  26  14  27  13
M  ISO  4  28  13  29  13  30  13  31  13
M  END
>  <minimizedAffinity>  (1) 
-5.00882196

>  <minimizedRMSD>  (1) 
7.46307564

$$$$
