
     RDKit          3D

 26 28  0  0  0  0  0  0  0  0999 V2000
   40.9010   34.5870   41.4280 C   0  0  0  0  0  0  0  0  0  0  0  0
   41.7850   35.0550   40.4710 C   0  0  0  0  0  0  0  0  0  0  0  0
   41.4360   35.0600   39.1390 C   0  0  0  0  0  0  0  0  0  0  0  0
   40.2080   34.6000   38.7300 C   0  0  0  0  0  0  0  0  0  0  0  0
   39.3060   34.1250   39.6770 C   0  0  0  0  0  0  0  0  0  0  0  0
   39.6410   34.1130   41.0330 C   0  0  0  0  0  0  0  0  0  0  0  0
   38.1370   33.7180   39.0150 O   0  0  0  0  0  0  0  0  0  0  0  0
   38.5120   33.6000   37.6450 C   0  0  0  0  0  0  0  0  0  0  0  0
   39.5920   34.4870   37.4690 O   0  0  0  0  0  0  0  0  0  0  0  0
   43.3630   35.6360   41.0840 S   0  0  0  0  0  0  0  0  0  0  0  0
   44.1260   34.3600   42.1170 C   0  0  0  0  0  0  0  0  0  0  0  0
   44.1670   33.0910   41.5490 C   0  0  0  0  0  0  0  0  0  0  0  0
   44.7600   32.0630   42.3320 C   0  0  0  0  0  0  0  0  0  0  0  0
   45.2390   32.3820   43.5600 N   0  0  0  0  0  0  0  0  0  0  0  0
   45.1730   33.6210   44.0540 C   0  0  0  0  0  0  0  0  0  0  0  0
   44.6230   34.6090   43.3470 N   0  0  0  0  0  0  0  0  0  0  0  0
   45.7200   33.8430   45.3840 C   0  0  0  0  0  0  0  0  0  0  0  0
   44.9940   34.3320   46.2740 O   0  0  0  0  0  0  0  0  0  0  0  0
   41.1845   34.5868   42.4908 H   0  0  0  0  0  0  0  0  0  0  0  0
   42.1502   35.4375   38.3924 H   0  0  0  0  0  0  0  0  0  0  0  0
   38.9270   33.7372   41.7806 H   0  0  0  0  0  0  0  0  0  0  0  0
   38.8215   32.5689   37.4193 H   0  0  0  0  0  0  0  0  0  0  0  0
   37.6753   33.8397   36.9724 H   0  0  0  0  0  0  0  0  0  0  0  0
   43.7616   32.8930   40.5458 H   0  0  0  0  0  0  0  0  0  0  0  0
   44.8286   31.0334   41.9508 H   0  0  0  0  0  0  0  0  0  0  0  0
   46.7657   33.5818   45.6036 H   0  0  0  0  0  0  0  0  0  0  0  0
  2 10  1  0
  2  1  2  0
  3  2  1  0
  4  3  2  0
  4  5  1  0
  5  6  2  0
  6  1  1  0
  7  5  1  0
  8  7  1  0
  9  8  1  0
  9  4  1  0
 10 11  1  0
 11 16  1  0
 12 11  2  0
 12 13  1  0
 13 14  2  0
 14 15  1  0
 15 17  1  0
 16 15  2  0
 17 18  2  0
  1 19  1  0
  3 20  1  0
  6 21  1  0
  8 22  1  0
  8 23  1  0
 12 24  1  0
 13 25  1  0
 17 26  1  0
M  ISO  8  19  14  20  14  21  14  22  13  23  13  24  14  25  14  26   6
M  END
>  <minimizedAffinity>  (1) 
-4.61055899

>  <minimizedRMSD>  (1) 
2.02307987

$$$$
