
     RDKit          3D

 28 30  0  0  0  0  0  0  0  0999 V2000
   39.9710   34.8770   40.2400 C   0  0  0  0  0  0  0  0  0  0  0  0
   40.9830   34.3920   41.0590 C   0  0  0  0  0  0  0  0  0  0  0  0
   40.9140   33.1240   41.5820 C   0  0  0  0  0  0  0  0  0  0  0  0
   39.8490   32.2850   41.3190 C   0  0  0  0  0  0  0  0  0  0  0  0
   38.8250   32.7750   40.4900 C   0  0  0  0  0  0  0  0  0  0  0  0
   38.8740   34.0550   39.9500 C   0  0  0  0  0  0  0  0  0  0  0  0
   37.8630   31.7490   40.3720 O   0  0  0  0  0  0  0  0  0  0  0  0
   38.1430   30.8310   41.3970 C   0  0  0  0  0  0  0  0  0  0  0  0
   39.5180   30.9860   41.6990 O   0  0  0  0  0  0  0  0  0  0  0  0
   42.3290   35.5270   41.3580 S   0  0  0  0  0  0  0  0  0  0  0  0
   43.9140   34.7520   40.9350 C   0  0  0  0  0  0  0  0  0  0  0  0
   43.8640   33.8020   39.9370 C   0  0  0  0  0  0  0  0  0  0  0  0
   45.0790   33.1870   39.5910 C   0  0  0  0  0  0  0  0  0  0  0  0
   46.2070   33.5530   40.2440 N   0  0  0  0  0  0  0  0  0  0  0  0
   46.2080   34.4840   41.2110 C   0  0  0  0  0  0  0  0  0  0  0  0
   45.0570   35.0650   41.5360 N   0  0  0  0  0  0  0  0  0  0  0  0
   47.3110   34.9020   41.9110 O   0  0  0  0  0  0  0  0  0  0  0  0
   48.5310   35.0480   41.2270 C   0  0  0  0  0  0  0  0  0  0  0  0
   49.3590   33.9710   41.3740 F   0  0  0  0  0  0  0  0  0  0  0  0
   48.1880   35.2940   39.8920 F   0  0  0  0  0  0  0  0  0  0  0  0
   49.1740   36.1580   41.7670 F   0  0  0  0  0  0  0  0  0  0  0  0
   40.0302   35.8937   39.8244 H   0  0  0  0  0  0  0  0  0  0  0  0
   41.7294   32.7668   42.2281 H   0  0  0  0  0  0  0  0  0  0  0  0
   38.0617   34.4180   39.3031 H   0  0  0  0  0  0  0  0  0  0  0  0
   37.5304   31.0505   42.2838 H   0  0  0  0  0  0  0  0  0  0  0  0
   37.9135   29.8008   41.0872 H   0  0  0  0  0  0  0  0  0  0  0  0
   42.9203   33.5388   39.4368 H   0  0  0  0  0  0  0  0  0  0  0  0
   45.1131   32.4208   38.8025 H   0  0  0  0  0  0  0  0  0  0  0  0
  1  2  2  0
  2 10  1  0
  2  3  1  0
  4  3  2  0
  4  9  1  0
  5  4  1  0
  6  1  1  0
  6  5  2  0
  7  5  1  0
  7  8  1  0
  8  9  1  0
 11 10  1  0
 11 16  1  0
 12 11  2  0
 13 12  1  0
 13 14  2  0
 14 15  1  0
 15 16  2  0
 15 17  1  0
 18 19  1  0
 18 21  1  0
 18 17  1  0
 20 18  1  0
  1 22  1  0
  3 23  1  0
  6 24  1  0
  8 25  1  0
  8 26  1  0
 12 27  1  0
 13 28  1  0
M  ISO  7  22  14  23  14  24  14  25  13  26  13  27  14  28  14
M  END
>  <minimizedAffinity>  (1) 
-5.54854345

>  <minimizedRMSD>  (1) 
5.11952496

$$$$
