
     RDKit          3D

 39 43  0  0  0  0  0  0  0  0999 V2000
   43.8400   34.6910   40.8860 C   0  0  0  0  0  0  0  0  0  0  0  0
   43.7600   33.9520   39.7160 C   0  0  0  0  0  0  0  0  0  0  0  0
   44.9540   33.3800   39.2370 C   0  0  0  0  0  0  0  0  0  0  0  0
   46.1020   33.5850   39.9440 N   0  0  0  0  0  0  0  0  0  0  0  0
   46.1290   34.3070   41.0690 C   0  0  0  0  0  0  0  0  0  0  0  0
   44.9960   34.8420   41.5100 N   0  0  0  0  0  0  0  0  0  0  0  0
   44.8800   32.6240   38.0440 N   0  0  0  0  0  0  0  0  0  0  0  0
   43.7620   31.9330   37.7050 C   0  0  0  0  0  0  0  0  0  0  0  0
   43.9400   31.2880   36.5160 N   0  0  0  0  0  0  0  0  0  0  0  0
   45.1720   31.5610   36.0850 C   0  0  0  0  0  0  0  0  0  0  0  0
   45.9210   31.2050   34.9630 C   0  0  0  0  0  0  0  0  0  0  0  0
   47.1730   31.7000   34.8820 N   0  0  0  0  0  0  0  0  0  0  0  0
   47.7250   32.5030   35.8100 C   0  0  0  0  0  0  0  0  0  0  0  0
   47.0100   32.8640   36.9160 N   0  0  0  0  0  0  0  0  0  0  0  0
   45.7390   32.3840   37.0350 C   0  0  0  0  0  0  0  0  0  0  0  0
   42.2780   35.4090   41.4640 S   0  0  0  0  0  0  0  0  0  0  0  0
   39.9230   34.8240   40.2970 C   0  0  0  0  0  0  0  0  0  0  0  0
   40.9170   34.2930   41.1110 C   0  0  0  0  0  0  0  0  0  0  0  0
   40.8200   33.0140   41.5820 C   0  0  0  0  0  0  0  0  0  0  0  0
   39.7430   32.2050   41.2710 C   0  0  0  0  0  0  0  0  0  0  0  0
   38.7390   32.7420   40.4480 C   0  0  0  0  0  0  0  0  0  0  0  0
   38.8190   34.0360   39.9600 C   0  0  0  0  0  0  0  0  0  0  0  0
   37.7700   31.7260   40.2880 O   0  0  0  0  0  0  0  0  0  0  0  0
   38.0160   30.7780   41.2800 C   0  0  0  0  0  0  0  0  0  0  0  0
   39.3970   30.8940   41.6060 O   0  0  0  0  0  0  0  0  0  0  0  0
   47.2500   34.5410   41.8090 O   0  0  0  0  0  0  0  0  0  0  0  0
   48.4270   34.9690   41.1750 C   0  0  0  0  0  0  0  0  0  0  0  0
   49.4660   34.1030   41.3640 F   0  0  0  0  0  0  0  0  0  0  0  0
   48.0850   35.1330   39.8310 F   0  0  0  0  0  0  0  0  0  0  0  0
   48.7760   36.1990   41.7380 F   0  0  0  0  0  0  0  0  0  0  0  0
   42.8058   33.8184   39.1852 H   0  0  0  0  0  0  0  0  0  0  0  0
   42.8409   31.8979   38.3052 H   0  0  0  0  0  0  0  0  0  0  0  0
   45.5093   30.5507   34.1804 H   0  0  0  0  0  0  0  0  0  0  0  0
   48.7538   32.8692   35.6775 H   0  0  0  0  0  0  0  0  0  0  0  0
   40.0046   35.8548   39.9216 H   0  0  0  0  0  0  0  0  0  0  0  0
   41.6195   32.6178   42.2253 H   0  0  0  0  0  0  0  0  0  0  0  0
   38.0236   34.4383   39.3154 H   0  0  0  0  0  0  0  0  0  0  0  0
   37.3965   30.9831   42.1656 H   0  0  0  0  0  0  0  0  0  0  0  0
   37.7693   29.7631   40.9348 H   0  0  0  0  0  0  0  0  0  0  0  0
  1 16  1  0
  1  6  1  0
  2  1  2  0
  3  2  1  0
  3  4  2  0
  4  5  1  0
  5  6  2  0
  5 26  1  0
  7  3  1  0
  8  7  1  0
  9  8  2  0
 10  9  1  0
 10 15  2  0
 11 10  1  0
 12 11  2  0
 12 13  1  0
 13 14  2  0
 14 15  1  0
 15  7  1  0
 17 18  2  0
 18 16  1  0
 18 19  1  0
 20 19  2  0
 20 25  1  0
 21 20  1  0
 22 17  1  0
 22 21  2  0
 23 21  1  0
 23 24  1  0
 24 25  1  0
 27 28  1  0
 27 30  1  0
 27 26  1  0
 29 27  1  0
  2 31  1  0
  8 32  1  0
 11 33  1  0
 13 34  1  0
 17 35  1  0
 19 36  1  0
 22 37  1  0
 24 38  1  0
 24 39  1  0
M  ISO  8  31  14  32  14  33  14  34  14  35  14  36  14  37  14  38  13
M  ISO  1  39  13
M  END
>  <minimizedAffinity>  (1) 
-6.72449636

>  <minimizedRMSD>  (1) 
0.605421126

$$$$
