
     RDKit          3D

 38 41  0  0  0  0  0  0  0  0999 V2000
   44.0260   34.8070   41.0670 C   0  0  0  0  0  0  0  0  0  0  0  0
   43.9740   33.9260   40.0010 C   0  0  0  0  0  0  0  0  0  0  0  0
   45.1710   33.3400   39.5910 C   0  0  0  0  0  0  0  0  0  0  0  0
   46.3090   33.6740   40.2630 N   0  0  0  0  0  0  0  0  0  0  0  0
   46.3240   34.5280   41.2840 C   0  0  0  0  0  0  0  0  0  0  0  0
   45.1830   35.0740   41.6630 N   0  0  0  0  0  0  0  0  0  0  0  0
   42.5580   32.8320   38.3010 Cl  0  0  0  0  0  0  0  0  0  0  0  0
   44.0800   32.0880   37.8100 C   0  0  0  0  0  0  0  0  0  0  0  0
   45.2240   32.4120   38.4960 C   0  0  0  0  0  0  0  0  0  0  0  0
   46.3600   31.7800   38.0400 C   0  0  0  0  0  0  0  0  0  0  0  0
   46.3500   30.8830   36.9660 C   0  0  0  0  0  0  0  0  0  0  0  0
   45.1480   30.6100   36.3250 C   0  0  0  0  0  0  0  0  0  0  0  0
   45.1950   29.4830   34.9930 Cl  0  0  0  0  0  0  0  0  0  0  0  0
   43.9840   31.2250   36.7550 C   0  0  0  0  0  0  0  0  0  0  0  0
   42.4540   35.5480   41.5700 S   0  0  0  0  0  0  0  0  0  0  0  0
   40.2570   35.0280   40.0910 C   0  0  0  0  0  0  0  0  0  0  0  0
   41.0920   34.4990   41.0800 C   0  0  0  0  0  0  0  0  0  0  0  0
   40.8510   33.2470   41.6170 C   0  0  0  0  0  0  0  0  0  0  0  0
   39.7820   32.4720   41.2050 C   0  0  0  0  0  0  0  0  0  0  0  0
   38.9420   33.0100   40.2070 C   0  0  0  0  0  0  0  0  0  0  0  0
   39.1750   34.2660   39.6590 C   0  0  0  0  0  0  0  0  0  0  0  0
   37.9390   32.0400   39.9610 O   0  0  0  0  0  0  0  0  0  0  0  0
   37.9810   31.1570   41.0530 C   0  0  0  0  0  0  0  0  0  0  0  0
   39.3090   31.2190   41.5550 O   0  0  0  0  0  0  0  0  0  0  0  0
   47.4540   34.8780   41.9740 O   0  0  0  0  0  0  0  0  0  0  0  0
   48.6340   35.1690   41.2880 C   0  0  0  0  0  0  0  0  0  0  0  0
   49.6100   34.2310   41.4880 F   0  0  0  0  0  0  0  0  0  0  0  0
   48.2600   35.2850   39.9400 F   0  0  0  0  0  0  0  0  0  0  0  0
   49.1080   36.3790   41.7720 F   0  0  0  0  0  0  0  0  0  0  0  0
   43.0240   33.6966   39.4961 H   0  0  0  0  0  0  0  0  0  0  0  0
   47.3162   31.9895   38.5418 H   0  0  0  0  0  0  0  0  0  0  0  0
   47.2811   30.4006   36.6338 H   0  0  0  0  0  0  0  0  0  0  0  0
   43.0190   31.0263   36.2659 H   0  0  0  0  0  0  0  0  0  0  0  0
   40.4506   36.0232   39.6642 H   0  0  0  0  0  0  0  0  0  0  0  0
   41.5274   32.8576   42.3921 H   0  0  0  0  0  0  0  0  0  0  0  0
   38.5027   34.6588   38.8820 H   0  0  0  0  0  0  0  0  0  0  0  0
   37.2648   31.4712   41.8265 H   0  0  0  0  0  0  0  0  0  0  0  0
   37.7101   30.1335   40.7546 H   0  0  0  0  0  0  0  0  0  0  0  0
  1 15  1  0
  1  6  1  0
  2  1  2  0
  3  2  1  0
  3  4  2  0
  4  5  1  0
  5  6  2  0
  5 25  1  0
  8  7  1  0
  8  9  2  0
  9  3  1  0
 10  9  1  0
 11 10  2  0
 12 14  2  0
 12 11  1  0
 13 12  1  0
 14  8  1  0
 16 17  2  0
 17 15  1  0
 17 18  1  0
 19 24  1  0
 19 18  2  0
 20 19  1  0
 21 16  1  0
 21 20  2  0
 22 20  1  0
 22 23  1  0
 23 24  1  0
 26 27  1  0
 26 29  1  0
 26 25  1  0
 28 26  1  0
  2 30  1  0
 10 31  1  0
 11 32  1  0
 14 33  1  0
 16 34  1  0
 18 35  1  0
 21 36  1  0
 23 37  1  0
 23 38  1  0
M  ISO  8  30  14  31  14  32  14  33  14  34  14  35  14  36  14  37  13
M  ISO  1  38  13
M  END
>  <minimizedAffinity>  (1) 
-6.19436979

>  <minimizedRMSD>  (1) 
0.31544432

$$$$
