
     RDKit          3D

 40 43  0  0  0  0  0  0  0  0999 V2000
   44.0570   34.8040   41.0680 C   0  0  0  0  0  0  0  0  0  0  0  0
   44.0010   33.9220   39.9980 C   0  0  0  0  0  0  0  0  0  0  0  0
   45.2150   33.3540   39.6080 C   0  0  0  0  0  0  0  0  0  0  0  0
   46.3510   33.6650   40.2520 N   0  0  0  0  0  0  0  0  0  0  0  0
   46.3620   34.5300   41.2900 C   0  0  0  0  0  0  0  0  0  0  0  0
   45.2100   35.0710   41.6640 N   0  0  0  0  0  0  0  0  0  0  0  0
   45.2480   32.4370   38.5180 N   0  0  0  0  0  0  0  0  0  0  0  0
   44.1850   31.5410   38.1110 C   0  0  0  0  0  0  0  0  0  0  0  0
   44.3630   31.4160   36.6010 C   0  0  0  0  0  0  0  0  0  0  0  0
   45.6030   32.2290   36.2670 C   0  0  0  0  0  0  0  0  0  0  0  0
   46.3350   32.2200   37.6140 C   0  0  0  0  0  0  0  0  0  0  0  0
   42.4790   35.5350   41.5680 S   0  0  0  0  0  0  0  0  0  0  0  0
   40.3350   34.9940   40.0360 C   0  0  0  0  0  0  0  0  0  0  0  0
   41.1220   34.4900   41.0630 C   0  0  0  0  0  0  0  0  0  0  0  0
   40.8390   33.2760   41.6200 C   0  0  0  0  0  0  0  0  0  0  0  0
   39.7810   32.5020   41.1990 C   0  0  0  0  0  0  0  0  0  0  0  0
   38.9900   33.0070   40.1660 C   0  0  0  0  0  0  0  0  0  0  0  0
   39.2470   34.2470   39.5720 C   0  0  0  0  0  0  0  0  0  0  0  0
   37.9730   32.0490   39.9050 O   0  0  0  0  0  0  0  0  0  0  0  0
   37.9640   31.2040   41.0140 C   0  0  0  0  0  0  0  0  0  0  0  0
   39.2680   31.2630   41.5690 O   0  0  0  0  0  0  0  0  0  0  0  0
   47.4700   34.9050   42.0050 O   0  0  0  0  0  0  0  0  0  0  0  0
   48.6620   35.1800   41.2990 C   0  0  0  0  0  0  0  0  0  0  0  0
   49.6280   34.2430   41.5030 F   0  0  0  0  0  0  0  0  0  0  0  0
   48.2780   35.3260   39.9700 F   0  0  0  0  0  0  0  0  0  0  0  0
   49.1350   36.4030   41.7890 F   0  0  0  0  0  0  0  0  0  0  0  0
   43.0560   33.6846   39.4875 H   0  0  0  0  0  0  0  0  0  0  0  0
   44.2915   30.5611   38.5994 H   0  0  0  0  0  0  0  0  0  0  0  0
   43.1883   31.9137   38.3896 H   0  0  0  0  0  0  0  0  0  0  0  0
   44.5063   30.3630   36.3171 H   0  0  0  0  0  0  0  0  0  0  0  0
   43.4793   31.7787   36.0555 H   0  0  0  0  0  0  0  0  0  0  0  0
   46.2012   31.7472   35.4796 H   0  0  0  0  0  0  0  0  0  0  0  0
   45.3919   33.2345   35.8740 H   0  0  0  0  0  0  0  0  0  0  0  0
   46.8277   31.2541   37.7994 H   0  0  0  0  0  0  0  0  0  0  0  0
   47.1454   32.9595   37.6941 H   0  0  0  0  0  0  0  0  0  0  0  0
   40.5653   35.9731   39.5907 H   0  0  0  0  0  0  0  0  0  0  0  0
   41.4787   32.9033   42.4336 H   0  0  0  0  0  0  0  0  0  0  0  0
   38.6091   34.6256   38.7597 H   0  0  0  0  0  0  0  0  0  0  0  0
   37.2212   31.5477   41.7489 H   0  0  0  0  0  0  0  0  0  0  0  0
   37.6956   30.1754   40.7312 H   0  0  0  0  0  0  0  0  0  0  0  0
  1 12  1  0
  1  6  1  0
  2  1  2  0
  3  2  1  0
  3  4  2  0
  4  5  1  0
  5  6  2  0
  5 22  1  0
  7  3  1  0
  8  7  1  0
  9  8  1  0
 10  9  1  0
 10 11  1  0
 11  7  1  0
 13 14  2  0
 14 12  1  0
 14 15  1  0
 16 21  1  0
 16 15  2  0
 17 16  1  0
 18 13  1  0
 18 17  2  0
 19 17  1  0
 19 20  1  0
 20 21  1  0
 23 24  1  0
 23 26  1  0
 23 22  1  0
 25 23  1  0
  2 27  1  0
  8 28  1  0
  8 29  1  0
  9 30  1  0
  9 31  1  0
 10 32  1  0
 10 33  1  0
 11 34  1  0
 11 35  1  0
 13 36  1  0
 15 37  1  0
 18 38  1  0
 20 39  1  0
 20 40  1  0
M  ISO  8  27  14  28  13  29  13  30  13  31  13  32  13  33  13  34  13
M  ISO  6  35  13  36  14  37  14  38  14  39  13  40  13
M  END
>  <minimizedAffinity>  (1) 
-6.17496729

>  <minimizedRMSD>  (1) 
0.327205837

$$$$
