
     RDKit          3D

 37 40  0  0  0  0  0  0  0  0999 V2000
   44.0620   34.8300   41.0760 C   0  0  0  0  0  0  0  0  0  0  0  0
   44.0020   34.0330   39.9650 C   0  0  0  0  0  0  0  0  0  0  0  0
   45.2050   33.4640   39.5070 C   0  0  0  0  0  0  0  0  0  0  0  0
   46.3410   33.7390   40.1900 N   0  0  0  0  0  0  0  0  0  0  0  0
   46.3600   34.5220   41.2700 C   0  0  0  0  0  0  0  0  0  0  0  0
   45.2160   35.0420   41.6780 N   0  0  0  0  0  0  0  0  0  0  0  0
   45.2850   32.6080   38.3540 C   0  0  0  0  0  0  0  0  0  0  0  0
   45.4310   33.0550   37.0640 C   0  0  0  0  0  0  0  0  0  0  0  0
   45.5110   32.2650   35.9330 C   0  0  0  0  0  0  0  0  0  0  0  0
   45.4390   30.8950   36.1080 C   0  0  0  0  0  0  0  0  0  0  0  0
   45.2930   30.4470   37.4010 C   0  0  0  0  0  0  0  0  0  0  0  0
   45.2200   31.2710   38.4590 N   0  0  0  0  0  0  0  0  0  0  0  0
   42.4830   35.5260   41.6050 S   0  0  0  0  0  0  0  0  0  0  0  0
   40.3400   35.0100   40.0500 C   0  0  0  0  0  0  0  0  0  0  0  0
   41.1270   34.4910   41.0820 C   0  0  0  0  0  0  0  0  0  0  0  0
   40.8430   33.2700   41.6260 C   0  0  0  0  0  0  0  0  0  0  0  0
   39.7800   32.4980   41.1890 C   0  0  0  0  0  0  0  0  0  0  0  0
   38.9920   33.0240   40.1530 C   0  0  0  0  0  0  0  0  0  0  0  0
   39.2510   34.2620   39.5750 C   0  0  0  0  0  0  0  0  0  0  0  0
   37.9900   32.0680   39.8900 O   0  0  0  0  0  0  0  0  0  0  0  0
   37.9800   31.1820   40.9750 C   0  0  0  0  0  0  0  0  0  0  0  0
   39.2660   31.2510   41.5470 O   0  0  0  0  0  0  0  0  0  0  0  0
   47.4700   34.8470   42.0160 O   0  0  0  0  0  0  0  0  0  0  0  0
   48.6600   35.1800   41.3370 C   0  0  0  0  0  0  0  0  0  0  0  0
   49.6680   34.2830   41.5240 F   0  0  0  0  0  0  0  0  0  0  0  0
   48.2980   35.3050   39.9880 F   0  0  0  0  0  0  0  0  0  0  0  0
   49.0850   36.4020   41.8340 F   0  0  0  0  0  0  0  0  0  0  0  0
   43.0490   33.8442   39.4492 H   0  0  0  0  0  0  0  0  0  0  0  0
   45.4898   34.1436   36.9171 H   0  0  0  0  0  0  0  0  0  0  0  0
   45.6274   32.7083   34.9330 H   0  0  0  0  0  0  0  0  0  0  0  0
   45.4955   30.1994   35.2577 H   0  0  0  0  0  0  0  0  0  0  0  0
   45.2333   29.3627   37.5762 H   0  0  0  0  0  0  0  0  0  0  0  0
   40.5713   35.9935   39.6149 H   0  0  0  0  0  0  0  0  0  0  0  0
   41.4797   32.8880   42.4376 H   0  0  0  0  0  0  0  0  0  0  0  0
   38.6163   34.6469   38.7632 H   0  0  0  0  0  0  0  0  0  0  0  0
   37.2189   31.4855   41.7089 H   0  0  0  0  0  0  0  0  0  0  0  0
   37.7363   30.1580   40.6557 H   0  0  0  0  0  0  0  0  0  0  0  0
  1 13  1  0
  1  6  1  0
  2  1  2  0
  3  2  1  0
  3  4  2  0
  4  5  1  0
  5  6  2  0
  5 23  1  0
  7 12  1  0
  7  3  1  0
  8  7  2  0
  9 10  2  0
  9  8  1  0
 10 11  1  0
 11 12  2  0
 14 15  2  0
 15 13  1  0
 15 16  1  0
 17 22  1  0
 17 16  2  0
 18 17  1  0
 19 14  1  0
 19 18  2  0
 20 18  1  0
 20 21  1  0
 21 22  1  0
 24 25  1  0
 24 27  1  0
 24 23  1  0
 26 24  1  0
  2 28  1  0
  8 29  1  0
  9 30  1  0
 10 31  1  0
 11 32  1  0
 14 33  1  0
 16 34  1  0
 19 35  1  0
 21 36  1  0
 21 37  1  0
M  ISO  8  28  14  29  14  30  14  31  14  32  14  33  14  34  14  35  14
M  ISO  2  36  13  37  13
M  END
>  <minimizedAffinity>  (1) 
-6.01355219

>  <minimizedRMSD>  (1) 
0.521744132

$$$$
