
     RDKit          3D

 41 44  0  0  0  0  0  0  0  0999 V2000
   43.7960   34.6460   40.7920 C   0  0  0  0  0  0  0  0  0  0  0  0
   43.7180   33.9780   39.5980 C   0  0  0  0  0  0  0  0  0  0  0  0
   44.8770   33.4090   39.0770 C   0  0  0  0  0  0  0  0  0  0  0  0
   46.0230   33.5590   39.8040 N   0  0  0  0  0  0  0  0  0  0  0  0
   46.0700   34.2160   40.9680 C   0  0  0  0  0  0  0  0  0  0  0  0
   44.9540   34.7450   41.4330 N   0  0  0  0  0  0  0  0  0  0  0  0
   44.2500   31.5720   37.4250 C   0  0  0  0  0  0  0  0  0  0  0  0
   45.0130   32.6190   37.8770 C   0  0  0  0  0  0  0  0  0  0  0  0
   46.0500   32.9800   37.0090 C   0  0  0  0  0  0  0  0  0  0  0  0
   46.3480   32.3910   35.8030 C   0  0  0  0  0  0  0  0  0  0  0  0
   45.5720   31.3450   35.3770 C   0  0  0  0  0  0  0  0  0  0  0  0
   44.5440   30.9630   36.1980 C   0  0  0  0  0  0  0  0  0  0  0  0
   42.8510   31.0190   38.2890 S   0  0  0  0  0  0  0  0  0  0  0  0
   43.1150   30.6260   39.6880 O   0  0  0  0  0  0  0  0  0  0  0  0
   41.6750   31.9380   38.1950 O   0  0  0  0  0  0  0  0  0  0  0  0
   42.2550   35.3650   41.4120 S   0  0  0  0  0  0  0  0  0  0  0  0
   39.8690   34.8270   40.2970 C   0  0  0  0  0  0  0  0  0  0  0  0
   40.8840   34.2840   41.0840 C   0  0  0  0  0  0  0  0  0  0  0  0
   40.7960   33.0000   41.5560 C   0  0  0  0  0  0  0  0  0  0  0  0
   39.7100   32.1900   41.2770 C   0  0  0  0  0  0  0  0  0  0  0  0
   38.6820   32.7430   40.4780 C   0  0  0  0  0  0  0  0  0  0  0  0
   38.7540   34.0420   39.9920 C   0  0  0  0  0  0  0  0  0  0  0  0
   37.6930   31.7430   40.3320 O   0  0  0  0  0  0  0  0  0  0  0  0
   37.9820   30.7580   41.2910 C   0  0  0  0  0  0  0  0  0  0  0  0
   39.3560   30.8830   41.6100 O   0  0  0  0  0  0  0  0  0  0  0  0
   47.2080   34.3840   41.7230 O   0  0  0  0  0  0  0  0  0  0  0  0
   48.3670   34.8900   41.1320 C   0  0  0  0  0  0  0  0  0  0  0  0
   49.4640   34.1130   41.3380 F   0  0  0  0  0  0  0  0  0  0  0  0
   48.0430   35.0530   39.7730 F   0  0  0  0  0  0  0  0  0  0  0  0
   48.6120   36.1320   41.7140 F   0  0  0  0  0  0  0  0  0  0  0  0
   42.7607   33.8932   39.0629 H   0  0  0  0  0  0  0  0  0  0  0  0
   46.6899   33.8179   37.3228 H   0  0  0  0  0  0  0  0  0  0  0  0
   47.1902   32.7512   35.1939 H   0  0  0  0  0  0  0  0  0  0  0  0
   45.7653   30.8362   34.4211 H   0  0  0  0  0  0  0  0  0  0  0  0
   43.9093   30.1252   35.8734 H   0  0  0  0  0  0  0  0  0  0  0  0
   42.5089   29.8710   37.6243 H   0  0  0  0  0  0  0  0  0  0  0  0
   39.9450   35.8582   39.9218 H   0  0  0  0  0  0  0  0  0  0  0  0
   41.6134   32.6019   42.1751 H   0  0  0  0  0  0  0  0  0  0  0  0
   37.9410   34.4490   39.3728 H   0  0  0  0  0  0  0  0  0  0  0  0
   37.3692   30.9152   42.1909 H   0  0  0  0  0  0  0  0  0  0  0  0
   37.7585   29.7535   40.9024 H   0  0  0  0  0  0  0  0  0  0  0  0
  1 16  1  0
  1  6  1  0
  2  1  2  0
  3  2  1  0
  3  4  2  0
  4  5  1  0
  5  6  2  0
  5 26  1  0
  7  8  2  0
  7 13  1  0
  8  3  1  0
  9  8  1  0
 10  9  2  0
 11 10  1  0
 11 12  2  0
 12  7  1  0
 13 14  2  0
 15 13  2  0
 17 18  2  0
 18 16  1  0
 18 19  1  0
 20 19  2  0
 20 25  1  0
 21 20  1  0
 22 17  1  0
 22 21  2  0
 23 21  1  0
 23 24  1  0
 24 25  1  0
 27 28  1  0
 27 30  1  0
 27 26  1  0
 29 27  1  0
  2 31  1  0
  9 32  1  0
 10 33  1  0
 11 34  1  0
 12 35  1  0
 13 36  1  0
 17 37  1  0
 19 38  1  0
 22 39  1  0
 24 40  1  0
 24 41  1  0
M  ISO  8  31  14  32  14  33  14  34  14  35  14  36  11  37  14  38  14
M  ISO  3  39  14  40  13  41  13
M  END
>  <minimizedAffinity>  (1) 
-5.91110945

>  <minimizedRMSD>  (1) 
0.929787099

$$$$
