
     RDKit          3D

 29 31  0  0  0  0  0  0  0  0999 V2000
   42.3180   35.5310   41.3570 S   0  0  0  0  0  0  0  0  0  0  0  0
   39.9640   34.8660   40.2440 C   0  0  0  0  0  0  0  0  0  0  0  0
   40.9740   34.3950   41.0580 C   0  0  0  0  0  0  0  0  0  0  0  0
   40.9110   33.1360   41.5790 C   0  0  0  0  0  0  0  0  0  0  0  0
   39.8470   32.2890   41.3200 C   0  0  0  0  0  0  0  0  0  0  0  0
   38.8170   32.7730   40.4890 C   0  0  0  0  0  0  0  0  0  0  0  0
   38.8670   34.0510   39.9500 C   0  0  0  0  0  0  0  0  0  0  0  0
   37.8620   31.7440   40.3740 O   0  0  0  0  0  0  0  0  0  0  0  0
   38.1490   30.8220   41.4040 C   0  0  0  0  0  0  0  0  0  0  0  0
   39.5200   30.9820   41.7050 O   0  0  0  0  0  0  0  0  0  0  0  0
   43.9150   34.7540   40.9410 C   0  0  0  0  0  0  0  0  0  0  0  0
   43.8580   33.7970   39.9380 C   0  0  0  0  0  0  0  0  0  0  0  0
   45.0760   33.1860   39.6010 C   0  0  0  0  0  0  0  0  0  0  0  0
   46.2040   33.5610   40.2610 N   0  0  0  0  0  0  0  0  0  0  0  0
   46.1990   34.4930   41.2240 C   0  0  0  0  0  0  0  0  0  0  0  0
   45.0490   35.0730   41.5450 N   0  0  0  0  0  0  0  0  0  0  0  0
   45.0890   32.2160   38.6020 O   0  0  0  0  0  0  0  0  0  0  0  0
   47.3080   34.9070   41.9200 O   0  0  0  0  0  0  0  0  0  0  0  0
   48.5310   35.0560   41.2260 C   0  0  0  0  0  0  0  0  0  0  0  0
   49.3550   33.9770   41.3720 F   0  0  0  0  0  0  0  0  0  0  0  0
   48.1820   35.2890   39.8890 F   0  0  0  0  0  0  0  0  0  0  0  0
   49.1710   36.1680   41.7590 F   0  0  0  0  0  0  0  0  0  0  0  0
   40.0222   35.8821   39.8268 H   0  0  0  0  0  0  0  0  0  0  0  0
   41.7295   32.7834   42.2238 H   0  0  0  0  0  0  0  0  0  0  0  0
   38.0567   34.4166   39.3021 H   0  0  0  0  0  0  0  0  0  0  0  0
   37.5359   31.0384   42.2913 H   0  0  0  0  0  0  0  0  0  0  0  0
   37.9243   29.7910   41.0933 H   0  0  0  0  0  0  0  0  0  0  0  0
   42.9150   33.5329   39.4370 H   0  0  0  0  0  0  0  0  0  0  0  0
   45.9391   31.7748   38.3515 H   0  0  0  0  0  0  0  0  0  0  0  0
  2  3  2  0
  3  1  1  0
  3  4  1  0
  5  4  2  0
  5 10  1  0
  6  5  1  0
  7  2  1  0
  7  6  2  0
  8  6  1  0
  8  9  1  0
  9 10  1  0
 11  1  1  0
 11 16  1  0
 12 11  2  0
 13 12  1  0
 13 14  2  0
 14 15  1  0
 15 16  2  0
 15 18  1  0
 17 13  1  0
 19 20  1  0
 19 22  1  0
 19 18  1  0
 21 19  1  0
  2 23  1  0
  4 24  1  0
  7 25  1  0
  9 26  1  0
  9 27  1  0
 12 28  1  0
 17 29  1  0
M  ISO  7  23  14  24  14  25  14  26  13  27  13  28  14  29   3
M  END
>  <minimizedAffinity>  (1) 
-5.6426897

>  <minimizedRMSD>  (1) 
0.0143119814

$$$$
