
     RDKit          3D

 30 32  0  0  0  0  0  0  0  0999 V2000
   42.3410   35.5350   41.4450 S   0  0  0  0  0  0  0  0  0  0  0  0
   39.9920   34.9210   40.2760 C   0  0  0  0  0  0  0  0  0  0  0  0
   40.9870   34.4280   41.1000 C   0  0  0  0  0  0  0  0  0  0  0  0
   40.8980   33.1450   41.6060 C   0  0  0  0  0  0  0  0  0  0  0  0
   39.8300   32.3200   41.3130 C   0  0  0  0  0  0  0  0  0  0  0  0
   38.8210   32.8230   40.4750 C   0  0  0  0  0  0  0  0  0  0  0  0
   38.8980   34.1110   39.9610 C   0  0  0  0  0  0  0  0  0  0  0  0
   37.8590   31.8110   40.3300 O   0  0  0  0  0  0  0  0  0  0  0  0
   38.1110   30.8860   41.3640 C   0  0  0  0  0  0  0  0  0  0  0  0
   39.4830   31.0170   41.6700 O   0  0  0  0  0  0  0  0  0  0  0  0
   43.9180   34.7810   40.9850 C   0  0  0  0  0  0  0  0  0  0  0  0
   43.8600   33.8890   39.9300 C   0  0  0  0  0  0  0  0  0  0  0  0
   45.0660   33.2860   39.5460 C   0  0  0  0  0  0  0  0  0  0  0  0
   46.2050   33.6000   40.2130 N   0  0  0  0  0  0  0  0  0  0  0  0
   46.2110   34.4740   41.2320 C   0  0  0  0  0  0  0  0  0  0  0  0
   45.0610   35.0410   41.5900 N   0  0  0  0  0  0  0  0  0  0  0  0
   45.0400   32.3490   38.4460 C   0  0  0  0  0  0  0  0  0  0  0  0
   44.8710   32.7220   37.2570 O   0  0  0  0  0  0  0  0  0  0  0  0
   47.3250   34.8300   41.9430 O   0  0  0  0  0  0  0  0  0  0  0  0
   48.5250   35.0730   41.2620 C   0  0  0  0  0  0  0  0  0  0  0  0
   49.4600   34.1020   41.4550 F   0  0  0  0  0  0  0  0  0  0  0  0
   48.1610   35.2390   39.9200 F   0  0  0  0  0  0  0  0  0  0  0  0
   49.0390   36.2740   41.7660 F   0  0  0  0  0  0  0  0  0  0  0  0
   40.0612   35.9418   39.8721 H   0  0  0  0  0  0  0  0  0  0  0  0
   41.6996   32.7708   42.2598 H   0  0  0  0  0  0  0  0  0  0  0  0
   38.0996   34.4925   39.3075 H   0  0  0  0  0  0  0  0  0  0  0  0
   37.4975   31.1209   42.2463 H   0  0  0  0  0  0  0  0  0  0  0  0
   37.8599   29.8593   41.0594 H   0  0  0  0  0  0  0  0  0  0  0  0
   42.9135   33.6635   39.4169 H   0  0  0  0  0  0  0  0  0  0  0  0
   45.1720   31.2772   38.6551 H   0  0  0  0  0  0  0  0  0  0  0  0
  2  3  2  0
  3  1  1  0
  3  4  1  0
  5  4  2  0
  5 10  1  0
  6  5  1  0
  7  2  1  0
  7  6  2  0
  8  6  1  0
  8  9  1  0
  9 10  1  0
 11  1  1  0
 11 16  1  0
 12 11  2  0
 13 12  1  0
 13 14  2  0
 14 15  1  0
 15 16  2  0
 15 19  1  0
 17 13  1  0
 18 17  2  0
 20 21  1  0
 20 23  1  0
 20 19  1  0
 22 20  1  0
  2 24  1  0
  4 25  1  0
  7 26  1  0
  9 27  1  0
  9 28  1  0
 12 29  1  0
 17 30  1  0
M  ISO  7  24  14  25  14  26  14  27  13  28  13  29  14  30   6
M  END
>  <minimizedAffinity>  (1) 
-5.58024883

>  <minimizedRMSD>  (1) 
0.434730113

$$$$
