
     RDKit          3D

 30 32  0  0  0  0  0  0  0  0999 V2000
   42.3240   35.5370   41.3380 S   0  0  0  0  0  0  0  0  0  0  0  0
   39.9750   34.8840   40.2350 C   0  0  0  0  0  0  0  0  0  0  0  0
   40.9850   34.3900   41.0580 C   0  0  0  0  0  0  0  0  0  0  0  0
   40.9120   33.1190   41.5850 C   0  0  0  0  0  0  0  0  0  0  0  0
   39.8450   32.2970   41.3200 C   0  0  0  0  0  0  0  0  0  0  0  0
   38.8230   32.7790   40.4960 C   0  0  0  0  0  0  0  0  0  0  0  0
   38.8730   34.0510   39.9540 C   0  0  0  0  0  0  0  0  0  0  0  0
   37.8600   31.7490   40.3860 O   0  0  0  0  0  0  0  0  0  0  0  0
   38.1500   30.8210   41.3870 C   0  0  0  0  0  0  0  0  0  0  0  0
   39.5130   30.9970   41.7070 O   0  0  0  0  0  0  0  0  0  0  0  0
   43.9130   34.7490   40.9260 C   0  0  0  0  0  0  0  0  0  0  0  0
   43.8670   33.7970   39.9430 C   0  0  0  0  0  0  0  0  0  0  0  0
   45.0820   33.1860   39.6170 C   0  0  0  0  0  0  0  0  0  0  0  0
   46.2090   33.5400   40.2560 N   0  0  0  0  0  0  0  0  0  0  0  0
   46.2120   34.4850   41.2210 C   0  0  0  0  0  0  0  0  0  0  0  0
   45.0560   35.0490   41.5120 N   0  0  0  0  0  0  0  0  0  0  0  0
   45.1560   32.1810   38.6100 N   0  0  0  0  0  0  0  0  0  0  0  0
   47.3080   34.9080   41.9220 O   0  0  0  0  0  0  0  0  0  0  0  0
   48.5130   35.1070   41.2380 C   0  0  0  0  0  0  0  0  0  0  0  0
   49.4140   34.0970   41.4410 F   0  0  0  0  0  0  0  0  0  0  0  0
   48.1680   35.2460   39.8780 F   0  0  0  0  0  0  0  0  0  0  0  0
   49.0730   36.2870   41.7170 F   0  0  0  0  0  0  0  0  0  0  0  0
   40.0360   35.8988   39.8150 H   0  0  0  0  0  0  0  0  0  0  0  0
   41.7249   32.7558   42.2309 H   0  0  0  0  0  0  0  0  0  0  0  0
   38.0582   34.4100   39.3081 H   0  0  0  0  0  0  0  0  0  0  0  0
   37.5238   31.0071   42.2720 H   0  0  0  0  0  0  0  0  0  0  0  0
   37.9476   29.7935   41.0505 H   0  0  0  0  0  0  0  0  0  0  0  0
   42.9274   33.5280   39.4382 H   0  0  0  0  0  0  0  0  0  0  0  0
   46.0607   31.7432   38.3848 H   0  0  0  0  0  0  0  0  0  0  0  0
   44.3048   31.8922   38.1071 H   0  0  0  0  0  0  0  0  0  0  0  0
  2  3  2  0
  3  1  1  0
  3  4  1  0
  5  4  2  0
  5 10  1  0
  6  5  1  0
  7  2  1  0
  7  6  2  0
  8  6  1  0
  8  9  1  0
  9 10  1  0
 11  1  1  0
 11 16  1  0
 12 11  2  0
 13 12  1  0
 13 14  2  0
 14 15  1  0
 15 16  2  0
 15 18  1  0
 17 13  1  0
 19 20  1  0
 19 22  1  0
 19 18  1  0
 21 19  1  0
  2 23  1  0
  4 24  1  0
  7 25  1  0
  9 26  1  0
  9 27  1  0
 12 28  1  0
 17 29  1  0
 17 30  1  0
M  ISO  6  23  14  24  14  25  14  26  13  27  13  28  14
M  END
>  <minimizedAffinity>  (1) 
-5.69609785

>  <minimizedRMSD>  (1) 
0.049134858

$$$$
