
     RDKit          3D

 44 48  0  0  0  0  0  0  0  0999 V2000
   44.7060   33.8070   40.2810 C   0  0  0  0  0  0  0  0  0  0  0  0
   45.1340   32.7310   39.5930 C   0  0  0  0  0  0  0  0  0  0  0  0
   46.5160   32.4420   39.6690 C   0  0  0  0  0  0  0  0  0  0  0  0
   47.3360   33.2360   40.4010 N   0  0  0  0  0  0  0  0  0  0  0  0
   46.8530   34.3110   41.0720 C   0  0  0  0  0  0  0  0  0  0  0  0
   45.5630   34.5330   40.9730 N   0  0  0  0  0  0  0  0  0  0  0  0
   44.1240   30.4140   38.8060 C   0  0  0  0  0  0  0  0  0  0  0  0
   44.6130   31.6940   38.7190 C   0  0  0  0  0  0  0  0  0  0  0  0
   44.6470   32.2450   37.4190 C   0  0  0  0  0  0  0  0  0  0  0  0
   44.2070   31.5290   36.2950 C   0  0  0  0  0  0  0  0  0  0  0  0
   44.0990   31.7290   34.9690 N   0  0  0  0  0  0  0  0  0  0  0  0
   43.5910   30.6560   34.3480 C   0  0  0  0  0  0  0  0  0  0  0  0
   43.3340   29.6670   35.2750 C   0  0  0  0  0  0  0  0  0  0  0  0
   43.7260   30.2410   36.4660 C   0  0  0  0  0  0  0  0  0  0  0  0
   43.6940   29.7050   37.7260 C   0  0  0  0  0  0  0  0  0  0  0  0
   47.1060   31.3140   39.0260 N   0  0  0  0  0  0  0  0  0  0  0  0
   42.9290   34.1190   40.1560 S   0  0  0  0  0  0  0  0  0  0  0  0
   40.6120   33.0470   40.9240 C   0  0  0  0  0  0  0  0  0  0  0  0
   42.0040   32.9070   41.0590 C   0  0  0  0  0  0  0  0  0  0  0  0
   42.5540   31.8790   41.8110 C   0  0  0  0  0  0  0  0  0  0  0  0
   41.7410   30.9700   42.4430 C   0  0  0  0  0  0  0  0  0  0  0  0
   40.3560   31.0920   42.3210 C   0  0  0  0  0  0  0  0  0  0  0  0
   39.7790   32.1140   41.5740 C   0  0  0  0  0  0  0  0  0  0  0  0
   39.7650   30.0450   43.0590 O   0  0  0  0  0  0  0  0  0  0  0  0
   40.7670   29.5190   43.8650 C   0  0  0  0  0  0  0  0  0  0  0  0
   41.9880   29.8620   43.2380 O   0  0  0  0  0  0  0  0  0  0  0  0
   47.5950   35.1750   41.8330 O   0  0  0  0  0  0  0  0  0  0  0  0
   48.8610   35.5590   41.3530 C   0  0  0  0  0  0  0  0  0  0  0  0
   49.8320   34.6590   41.7080 F   0  0  0  0  0  0  0  0  0  0  0  0
   48.7470   35.6740   39.9600 F   0  0  0  0  0  0  0  0  0  0  0  0
   49.1870   36.7780   41.9140 F   0  0  0  0  0  0  0  0  0  0  0  0
   44.0773   29.9380   39.7966 H   0  0  0  0  0  0  0  0  0  0  0  0
   45.0303   33.2671   37.2833 H   0  0  0  0  0  0  0  0  0  0  0  0
   44.3729   32.5991   34.4906 H   0  0  0  0  0  0  0  0  0  0  0  0
   43.4073   30.5759   33.2664 H   0  0  0  0  0  0  0  0  0  0  0  0
   42.9172   28.6633   35.1051 H   0  0  0  0  0  0  0  0  0  0  0  0
   43.3138   28.6826   37.8681 H   0  0  0  0  0  0  0  0  0  0  0  0
   48.1185   31.1445   39.1101 H   0  0  0  0  0  0  0  0  0  0  0  0
   46.5196   30.6688   38.4775 H   0  0  0  0  0  0  0  0  0  0  0  0
   40.1832   33.8645   40.3258 H   0  0  0  0  0  0  0  0  0  0  0  0
   43.6468   31.7914   41.9016 H   0  0  0  0  0  0  0  0  0  0  0  0
   38.6850   32.1931   41.4915 H   0  0  0  0  0  0  0  0  0  0  0  0
   40.7176   29.9577   44.8725 H   0  0  0  0  0  0  0  0  0  0  0  0
   40.6635   28.4299   43.9797 H   0  0  0  0  0  0  0  0  0  0  0  0
  1  6  2  0
  2  3  2  0
  2  1  1  0
  3  4  1  0
  4  5  2  0
  5 27  1  0
  6  5  1  0
  8  7  2  0
  8  2  1  0
  9  8  1  0
 10 14  1  0
 10  9  2  0
 11 10  1  0
 12 11  1  0
 12 13  2  0
 13 14  1  0
 14 15  2  0
 15  7  1  0
 16  3  1  0
 17  1  1  0
 17 19  1  0
 18 19  2  0
 18 23  1  0
 19 20  1  0
 20 21  2  0
 21 26  1  0
 22 21  1  0
 22 24  1  0
 23 22  2  0
 24 25  1  0
 26 25  1  0
 28 29  1  0
 28 27  1  0
 28 31  1  0
 30 28  1  0
  7 32  1  0
  9 33  1  0
 11 34  1  0
 12 35  1  0
 13 36  1  0
 15 37  1  0
 16 38  1  0
 16 39  1  0
 18 40  1  0
 20 41  1  0
 23 42  1  0
 25 43  1  0
 25 44  1  0
M  ISO  8  32  14  33  14  34   9  35  14  36  14  37  14  40  14  41  14
M  ISO  3  42  14  43  13  44  13
M  END
>  <minimizedAffinity>  (1) 
-6.0986228

>  <minimizedRMSD>  (1) 
2.18017507

$$$$
