
     RDKit          3D

 39 42  0  0  0  0  0  0  0  0999 V2000
   44.0510   34.0690   40.6980 C   0  0  0  0  0  0  0  0  0  0  0  0
   43.6560   33.7910   39.4400 C   0  0  0  0  0  0  0  0  0  0  0  0
   44.6720   33.3840   38.5650 C   0  0  0  0  0  0  0  0  0  0  0  0
   45.9560   33.2910   38.9770 N   0  0  0  0  0  0  0  0  0  0  0  0
   46.2940   33.5860   40.2340 C   0  0  0  0  0  0  0  0  0  0  0  0
   45.3330   33.9600   41.0420 N   0  0  0  0  0  0  0  0  0  0  0  0
   42.3920   33.8580   38.8360 C   0  0  0  0  0  0  0  0  0  0  0  0
   42.1090   35.2580   38.4660 C   0  0  0  0  0  0  0  0  0  0  0  0
   41.1080   36.0080   37.7930 C   0  0  0  0  0  0  0  0  0  0  0  0
   40.1150   35.1150   37.3660 C   0  0  0  0  0  0  0  0  0  0  0  0
   40.2630   33.7810   37.6470 C   0  0  0  0  0  0  0  0  0  0  0  0
   41.3420   33.7850   38.2540 N   0  0  0  0  0  0  0  0  0  0  0  0
   44.3630   33.1470   37.1810 N   0  0  0  0  0  0  0  0  0  0  0  0
   42.7480   34.5270   41.8790 S   0  0  0  0  0  0  0  0  0  0  0  0
   40.1680   34.1190   41.4280 C   0  0  0  0  0  0  0  0  0  0  0  0
   41.3520   33.4250   41.7010 C   0  0  0  0  0  0  0  0  0  0  0  0
   41.3780   32.0420   41.7830 C   0  0  0  0  0  0  0  0  0  0  0  0
   40.2390   31.3090   41.5940 C   0  0  0  0  0  0  0  0  0  0  0  0
   39.0500   31.9660   41.3200 C   0  0  0  0  0  0  0  0  0  0  0  0
   39.0020   33.3480   41.2370 C   0  0  0  0  0  0  0  0  0  0  0  0
   38.0510   30.9920   41.1690 O   0  0  0  0  0  0  0  0  0  0  0  0
   38.5680   29.8030   41.6580 C   0  0  0  0  0  0  0  0  0  0  0  0
   39.9700   29.9390   41.6170 O   0  0  0  0  0  0  0  0  0  0  0  0
   47.5680   33.5250   40.7270 O   0  0  0  0  0  0  0  0  0  0  0  0
   48.2860   34.7210   40.8990 C   0  0  0  0  0  0  0  0  0  0  0  0
   48.4900   35.3590   39.6980 F   0  0  0  0  0  0  0  0  0  0  0  0
   47.5540   35.5060   41.7960 F   0  0  0  0  0  0  0  0  0  0  0  0
   49.5310   34.4110   41.4210 F   0  0  0  0  0  0  0  0  0  0  0  0
   42.9151   35.9193   38.8165 H   0  0  0  0  0  0  0  0  0  0  0  0
   41.1113   37.0966   37.6348 H   0  0  0  0  0  0  0  0  0  0  0  0
   39.2340   35.4776   36.8161 H   0  0  0  0  0  0  0  0  0  0  0  0
   39.6025   32.9367   37.4002 H   0  0  0  0  0  0  0  0  0  0  0  0
   43.3893   33.2142   36.8519 H   0  0  0  0  0  0  0  0  0  0  0  0
   45.1153   32.9101   36.5186 H   0  0  0  0  0  0  0  0  0  0  0  0
   40.1473   35.2170   41.3651 H   0  0  0  0  0  0  0  0  0  0  0  0
   42.3254   31.5279   42.0026 H   0  0  0  0  0  0  0  0  0  0  0  0
   38.0467   33.8485   41.0203 H   0  0  0  0  0  0  0  0  0  0  0  0
   38.2308   29.6369   42.6918 H   0  0  0  0  0  0  0  0  0  0  0  0
   38.2305   28.9430   41.0610 H   0  0  0  0  0  0  0  0  0  0  0  0
  1  6  1  0
  1 14  1  0
  2  1  2  0
  3  4  2  0
  3  2  1  0
  4  5  1  0
  5 24  1  0
  5  6  2  0
  7  2  1  0
  8  7  2  0
  9  8  1  0
 10 11  1  0
 10  9  2  0
 11 12  2  0
 12  7  1  0
 13  3  1  0
 15 16  2  0
 16 17  1  0
 16 14  1  0
 18 23  1  0
 18 17  2  0
 19 18  1  0
 20 19  2  0
 20 15  1  0
 21 19  1  0
 21 22  1  0
 23 22  1  0
 24 25  1  0
 25 28  1  0
 25 27  1  0
 26 25  1  0
  8 29  1  0
  9 30  1  0
 10 31  1  0
 11 32  1  0
 13 33  1  0
 13 34  1  0
 15 35  1  0
 17 36  1  0
 20 37  1  0
 22 38  1  0
 22 39  1  0
M  ISO  8  29  14  30  14  31  14  32  14  35  14  36  14  37  14  38  13
M  ISO  1  39  13
M  END
>  <minimizedAffinity>  (1) 
-5.96699429

>  <minimizedRMSD>  (1) 
1.41163683

$$$$
