
     RDKit          3D

 43 47  0  0  0  0  0  0  0  0999 V2000
   44.8210   33.8980   40.3030 C   0  0  0  0  0  0  0  0  0  0  0  0
   45.2540   32.8430   39.5790 C   0  0  0  0  0  0  0  0  0  0  0  0
   46.6340   32.5510   39.6640 C   0  0  0  0  0  0  0  0  0  0  0  0
   47.4470   33.3110   40.4360 N   0  0  0  0  0  0  0  0  0  0  0  0
   46.9580   34.3630   41.1410 C   0  0  0  0  0  0  0  0  0  0  0  0
   45.6700   34.5950   41.0340 N   0  0  0  0  0  0  0  0  0  0  0  0
   44.9060   32.3810   37.3750 C   0  0  0  0  0  0  0  0  0  0  0  0
   44.7210   31.8500   38.6640 C   0  0  0  0  0  0  0  0  0  0  0  0
   44.1820   30.5980   38.7270 C   0  0  0  0  0  0  0  0  0  0  0  0
   43.8340   29.8900   37.6110 C   0  0  0  0  0  0  0  0  0  0  0  0
   43.2990   28.6580   37.5930 N   0  0  0  0  0  0  0  0  0  0  0  0
   43.1260   28.3630   36.3040 N   0  0  0  0  0  0  0  0  0  0  0  0
   43.5370   29.3780   35.5210 C   0  0  0  0  0  0  0  0  0  0  0  0
   44.0090   30.3980   36.3420 C   0  0  0  0  0  0  0  0  0  0  0  0
   44.5530   31.6610   36.2240 C   0  0  0  0  0  0  0  0  0  0  0  0
   47.2280   31.4510   38.9770 N   0  0  0  0  0  0  0  0  0  0  0  0
   43.0480   34.2300   40.1520 S   0  0  0  0  0  0  0  0  0  0  0  0
   40.7100   33.1760   40.8800 C   0  0  0  0  0  0  0  0  0  0  0  0
   42.0960   33.0150   41.0260 C   0  0  0  0  0  0  0  0  0  0  0  0
   42.6400   31.9770   41.7680 C   0  0  0  0  0  0  0  0  0  0  0  0
   41.8150   31.0630   42.3880 C   0  0  0  0  0  0  0  0  0  0  0  0
   40.4220   31.2000   42.2570 C   0  0  0  0  0  0  0  0  0  0  0  0
   39.8710   32.2360   41.5180 C   0  0  0  0  0  0  0  0  0  0  0  0
   39.8270   30.1510   42.9780 O   0  0  0  0  0  0  0  0  0  0  0  0
   40.8170   29.5750   43.7530 C   0  0  0  0  0  0  0  0  0  0  0  0
   42.0480   29.9450   43.1730 O   0  0  0  0  0  0  0  0  0  0  0  0
   47.6940   35.1950   41.9430 O   0  0  0  0  0  0  0  0  0  0  0  0
   48.9390   35.6500   41.4660 C   0  0  0  0  0  0  0  0  0  0  0  0
   49.9590   34.8180   41.8120 F   0  0  0  0  0  0  0  0  0  0  0  0
   48.8090   35.7700   40.0730 F   0  0  0  0  0  0  0  0  0  0  0  0
   49.1850   36.8880   42.0340 F   0  0  0  0  0  0  0  0  0  0  0  0
   45.3385   33.3866   37.2666 H   0  0  0  0  0  0  0  0  0  0  0  0
   44.0213   30.1408   39.7145 H   0  0  0  0  0  0  0  0  0  0  0  0
   43.0705   28.0658   38.4041 H   0  0  0  0  0  0  0  0  0  0  0  0
   43.5053   29.3978   34.4216 H   0  0  0  0  0  0  0  0  0  0  0  0
   44.7095   32.1024   35.2287 H   0  0  0  0  0  0  0  0  0  0  0  0
   48.2386   31.2733   39.0661 H   0  0  0  0  0  0  0  0  0  0  0  0
   46.6463   30.8345   38.3919 H   0  0  0  0  0  0  0  0  0  0  0  0
   40.2918   34.0047   40.2898 H   0  0  0  0  0  0  0  0  0  0  0  0
   43.7319   31.8829   41.8619 H   0  0  0  0  0  0  0  0  0  0  0  0
   38.7783   32.3258   41.4285 H   0  0  0  0  0  0  0  0  0  0  0  0
   40.7563   29.9487   44.7858 H   0  0  0  0  0  0  0  0  0  0  0  0
   40.7076   28.4810   43.7882 H   0  0  0  0  0  0  0  0  0  0  0  0
  1  6  2  0
  2  3  2  0
  2  1  1  0
  3  4  1  0
  4  5  2  0
  5 27  1  0
  6  5  1  0
  7  8  2  0
  8  9  1  0
  8  2  1  0
 10  9  2  0
 11 10  1  0
 12 11  1  0
 13 12  2  0
 13 14  1  0
 14 10  1  0
 15 14  2  0
 15  7  1  0
 16  3  1  0
 17  1  1  0
 17 19  1  0
 18 19  2  0
 18 23  1  0
 19 20  1  0
 20 21  2  0
 21 26  1  0
 22 21  1  0
 22 24  1  0
 23 22  2  0
 24 25  1  0
 26 25  1  0
 28 29  1  0
 28 27  1  0
 28 31  1  0
 30 28  1  0
  7 32  1  0
  9 33  1  0
 11 34  1  0
 13 35  1  0
 15 36  1  0
 16 37  1  0
 16 38  1  0
 18 39  1  0
 20 40  1  0
 23 41  1  0
 25 42  1  0
 25 43  1  0
M  ISO  8  32  14  33  14  34   9  35  14  36  14  39  14  40  14  41  14
M  ISO  2  42  13  43  13
M  END
>  <minimizedAffinity>  (1) 
-5.62156677

>  <minimizedRMSD>  (1) 
2.60123014

$$$$
