
     RDKit          3D

 40 44  0  0  1  0  0  0  0  0999 V2000
   43.8800   34.5870   40.9010 C   0  0  0  0  0  0  0  0  0  0  0  0
   43.9110   33.7270   39.8620 C   0  0  0  0  0  0  0  0  0  0  0  0
   45.1740   33.2400   39.5050 C   0  0  0  0  0  0  0  0  0  0  0  0
   46.2800   33.6300   40.1770 N   0  0  0  0  0  0  0  0  0  0  0  0
   46.1960   34.4870   41.1960 C   0  0  0  0  0  0  0  0  0  0  0  0
   45.0040   34.9280   41.5150 N   0  0  0  0  0  0  0  0  0  0  0  0
   42.8800   33.2260   39.0490 C   0  0  0  0  0  0  0  0  0  0  0  0
   42.8120   31.7540   39.0930 C   0  0  0  0  0  0  0  0  0  0  0  0
   41.9910   30.7500   38.5200 C   0  0  0  0  0  0  0  0  0  0  0  0
   41.0490   31.3670   37.7490 N   0  0  0  0  0  0  0  0  0  0  0  0
   40.9770   32.7020   37.6080 C   0  0  0  0  0  0  0  0  0  0  0  0
   41.9580   32.8340   38.3600 N   0  0  0  0  0  0  0  0  0  0  0  0
   45.3210   32.3720   38.3720 N   0  0  0  0  0  0  0  0  0  0  0  0
   42.2400   35.1760   41.4120 S   0  0  0  0  0  0  0  0  0  0  0  0
   39.8730   34.1390   40.8350 C   0  0  0  0  0  0  0  0  0  0  0  0
   41.0780   33.8110   41.4290 C   0  0  0  0  0  0  0  0  0  0  0  0
   41.3040   32.5500   41.9420 C   0  0  0  0  0  0  0  0  0  0  0  0
   40.3460   31.5840   41.8780 C   0  0  0  0  0  0  0  0  0  0  0  0
   39.1280   31.8880   41.2840 C   0  0  0  0  0  0  0  0  0  0  0  0
   38.8770   33.1460   40.7640 C   0  0  0  0  0  0  0  0  0  0  0  0
   38.3240   30.7290   41.3430 O   0  0  0  0  0  0  0  0  0  0  0  0
   38.9310   29.8720   42.2480 C   0  0  0  0  0  0  0  0  0  0  0  0
   40.2870   30.2550   42.3000 O   0  0  0  0  0  0  0  0  0  0  0  0
   47.2690   34.9320   41.9190 O   0  0  0  0  0  0  0  0  0  0  0  0
   48.4940   35.1350   41.2630 C   0  0  0  0  0  0  0  0  0  0  0  0
   49.3720   34.1010   41.4830 F   0  0  0  0  0  0  0  0  0  0  0  0
   48.2050   35.2820   39.9030 F   0  0  0  0  0  0  0  0  0  0  0  0
   49.0740   36.2840   41.7710 F   0  0  0  0  0  0  0  0  0  0  0  0
   42.1827   33.2836   39.8978 H   0  0  0  0  0  0  0  0  0  0  0  0
   42.1372   31.8111   39.9598 H   0  0  0  0  0  0  0  0  0  0  0  0
   42.6011   30.0783   37.8983 H   0  0  0  0  0  0  0  0  0  0  0  0
   41.5094   30.1531   39.3085 H   0  0  0  0  0  0  0  0  0  0  0  0
   40.3216   33.3917   37.0560 H   0  0  0  0  0  0  0  0  0  0  0  0
   46.2523   32.0162   38.1132 H   0  0  0  0  0  0  0  0  0  0  0  0
   44.4952   32.1047   37.8175 H   0  0  0  0  0  0  0  0  0  0  0  0
   39.6976   35.1464   40.4297 H   0  0  0  0  0  0  0  0  0  0  0  0
   42.2729   32.3215   42.4099 H   0  0  0  0  0  0  0  0  0  0  0  0
   37.9057   33.3687   40.2982 H   0  0  0  0  0  0  0  0  0  0  0  0
   38.4672   29.9737   43.2402 H   0  0  0  0  0  0  0  0  0  0  0  0
   38.8216   28.8211   41.9419 H   0  0  0  0  0  0  0  0  0  0  0  0
  1 14  1  0
  1  6  2  0
  2  1  1  0
  3  2  2  0
  3  4  1  0
  4  5  2  0
  5  6  1  0
  5 24  1  0
  7  8  1  0
  7  2  1  0
  8  9  1  0
 10  9  1  0
 11 10  2  0
 11 12  1  0
 12  7  1  0
 12  8  1  0
 13  3  1  0
 14 16  1  0
 15 16  2  0
 16 17  1  0
 18 17  2  0
 18 23  1  0
 19 21  1  0
 19 18  1  0
 20 15  1  0
 20 19  2  0
 21 22  1  0
 22 23  1  0
 25 26  1  0
 25 28  1  0
 25 24  1  0
 27 25  1  0
  7 29  1  0
  8 30  1  0
  9 31  1  0
  9 32  1  0
 11 33  1  0
 13 34  1  0
 13 35  1  0
 15 36  1  0
 17 37  1  0
 20 38  1  0
 22 39  1  0
 22 40  1  0
M  ISO  8  29  13  30  13  31  13  32  13  33  13  36  14  37  14  38  14
M  ISO  2  39  13  40  13
M  END
>  <minimizedAffinity>  (1) 
-5.53760767

>  <minimizedRMSD>  (1) 
0.687860608

$$$$
