
     RDKit          3D

 31 33  0  0  0  0  0  0  0  0999 V2000
   43.5620   34.3620   40.2380 C   0  0  0  0  0  0  0  0  0  0  0  0
   43.7050   33.7820   39.0090 C   0  0  0  0  0  0  0  0  0  0  0  0
   44.9370   33.1410   38.7800 C   0  0  0  0  0  0  0  0  0  0  0  0
   45.8760   33.1250   39.7330 N   0  0  0  0  0  0  0  0  0  0  0  0
   45.6880   33.7090   40.9240 C   0  0  0  0  0  0  0  0  0  0  0  0
   44.5330   34.3070   41.1310 N   0  0  0  0  0  0  0  0  0  0  0  0
   45.2070   32.4990   37.5350 N   0  0  0  0  0  0  0  0  0  0  0  0
   42.7450   33.7900   38.0140 O   0  0  0  0  0  0  0  0  0  0  0  0
   41.9700   35.1940   40.5430 S   0  0  0  0  0  0  0  0  0  0  0  0
   39.4420   34.3880   40.1010 C   0  0  0  0  0  0  0  0  0  0  0  0
   40.6600   33.9790   40.6510 C   0  0  0  0  0  0  0  0  0  0  0  0
   40.7960   32.7330   41.2200 C   0  0  0  0  0  0  0  0  0  0  0  0
   39.7490   31.8540   41.2680 C   0  0  0  0  0  0  0  0  0  0  0  0
   38.5220   32.2420   40.7240 C   0  0  0  0  0  0  0  0  0  0  0  0
   38.3580   33.4880   40.1470 C   0  0  0  0  0  0  0  0  0  0  0  0
   37.6240   31.1630   40.9020 O   0  0  0  0  0  0  0  0  0  0  0  0
   38.2140   30.2990   41.8110 C   0  0  0  0  0  0  0  0  0  0  0  0
   39.6000   30.5580   41.7700 O   0  0  0  0  0  0  0  0  0  0  0  0
   46.5990   33.7370   41.9530 O   0  0  0  0  0  0  0  0  0  0  0  0
   47.3600   34.8950   42.1540 C   0  0  0  0  0  0  0  0  0  0  0  0
   48.3710   34.7110   43.0710 F   0  0  0  0  0  0  0  0  0  0  0  0
   47.8510   35.2560   40.8870 F   0  0  0  0  0  0  0  0  0  0  0  0
   46.5050   35.8690   42.6440 F   0  0  0  0  0  0  0  0  0  0  0  0
   46.1130   32.0338   37.3813 H   0  0  0  0  0  0  0  0  0  0  0  0
   44.4959   32.5007   36.7898 H   0  0  0  0  0  0  0  0  0  0  0  0
   42.9260   33.3457   37.1480 H   0  0  0  0  0  0  0  0  0  0  0  0
   39.3324   35.3832   39.6455 H   0  0  0  0  0  0  0  0  0  0  0  0
   41.7668   32.4380   41.6449 H   0  0  0  0  0  0  0  0  0  0  0  0
   37.3839   33.7762   39.7249 H   0  0  0  0  0  0  0  0  0  0  0  0
   37.8225   30.4859   42.8218 H   0  0  0  0  0  0  0  0  0  0  0  0
   37.9983   29.2500   41.5597 H   0  0  0  0  0  0  0  0  0  0  0  0
  1  9  1  0
  1  6  1  0
  2  1  2  0
  3  2  1  0
  3  4  2  0
  4  5  1  0
  5  6  2  0
  5 19  1  0
  7  3  1  0
  8  2  1  0
  9 11  1  0
 10 15  2  0
 10 11  1  0
 11 12  2  0
 12 13  1  0
 13 18  1  0
 14 16  1  0
 14 13  2  0
 15 14  1  0
 16 17  1  0
 18 17  1  0
 19 20  1  0
 20 23  1  0
 20 21  1  0
 22 20  1  0
  7 24  1  0
  7 25  1  0
  8 26  1  0
 10 27  1  0
 12 28  1  0
 15 29  1  0
 17 30  1  0
 17 31  1  0
M  ISO  6  26   3  27  14  28  14  29  14  30  13  31  13
M  END
>  <minimizedAffinity>  (1) 
-5.48805046

>  <minimizedRMSD>  (1) 
1.13876796

$$$$
