
     RDKit          3D

 46 49  0  0  1  0  0  0  0  0999 V2000
   40.4940   35.2620   40.1880 C   0  0  0  0  0  0  0  0  0  0  0  0
   41.4480   34.5570   40.9310 C   0  0  0  0  0  0  0  0  0  0  0  0
   41.1910   33.2840   41.3980 C   0  0  0  0  0  0  0  0  0  0  0  0
   39.9890   32.6790   41.1420 C   0  0  0  0  0  0  0  0  0  0  0  0
   39.0370   33.3570   40.4120 C   0  0  0  0  0  0  0  0  0  0  0  0
   39.2570   34.6180   39.9330 C   0  0  0  0  0  0  0  0  0  0  0  0
   37.9260   32.4890   40.3150 O   0  0  0  0  0  0  0  0  0  0  0  0
   38.1020   31.4650   41.2110 C   0  0  2  0  0  0  0  0  0  0  0  0
   39.4810   31.4220   41.4890 O   0  0  0  0  0  0  0  0  0  0  0  0
   38.0800   28.9520   41.3830 C   0  0  2  0  0  0  0  0  0  0  0  0
   37.5770   30.1610   40.6730 C   0  0  2  0  0  0  0  0  0  0  0  0
   37.9170   30.0070   39.3360 O   0  0  0  0  0  0  0  0  0  0  0  0
   37.7300   28.6690   39.0260 C   0  0  0  0  0  0  0  0  0  0  0  0
   37.9330   27.8890   40.2970 C   0  0  1  0  0  0  0  0  0  0  0  0
   37.2040   28.6170   42.4030 O   0  0  0  0  0  0  0  0  0  0  0  0
   39.0500   27.0750   40.1890 O   0  0  0  0  0  0  0  0  0  0  0  0
   42.9590   35.4940   41.1510 S   0  0  0  0  0  0  0  0  0  0  0  0
   44.3720   34.5200   40.5330 C   0  0  0  0  0  0  0  0  0  0  0  0
   44.1570   33.8160   39.4050 C   0  0  0  0  0  0  0  0  0  0  0  0
   45.2430   33.0620   38.9580 C   0  0  0  0  0  0  0  0  0  0  0  0
   46.4120   33.0520   39.6160 N   0  0  0  0  0  0  0  0  0  0  0  0
   46.5820   33.7750   40.7420 C   0  0  0  0  0  0  0  0  0  0  0  0
   45.5410   34.4930   41.1650 N   0  0  0  0  0  0  0  0  0  0  0  0
   45.1110   32.2520   37.7680 N   0  0  0  0  0  0  0  0  0  0  0  0
   42.9950   33.6590   38.4700 C   0  0  0  0  0  0  0  0  0  0  0  0
   47.7450   33.8250   41.4760 O   0  0  0  0  0  0  0  0  0  0  0  0
   48.5700   34.9610   41.3270 C   0  0  0  0  0  0  0  0  0  0  0  0
   49.8390   34.7270   41.7600 F   0  0  0  0  0  0  0  0  0  0  0  0
   48.5400   35.3050   39.9600 F   0  0  0  0  0  0  0  0  0  0  0  0
   48.0380   35.9900   42.0940 F   0  0  0  0  0  0  0  0  0  0  0  0
   40.6964   36.2772   39.8160 H   0  0  0  0  0  0  0  0  0  0  0  0
   41.9572   32.7512   41.9802 H   0  0  0  0  0  0  0  0  0  0  0  0
   38.4770   35.1314   39.3516 H   0  0  0  0  0  0  0  0  0  0  0  0
   37.5305   31.6361   42.1352 H   0  0  0  0  0  0  0  0  0  0  0  0
   39.0868   29.0713   41.8097 H   0  0  0  0  0  0  0  0  0  0  0  0
   36.4894   30.2267   40.8237 H   0  0  0  0  0  0  0  0  0  0  0  0
   36.7112   28.5089   38.6434 H   0  0  0  0  0  0  0  0  0  0  0  0
   38.4378   28.3439   38.2492 H   0  0  0  0  0  0  0  0  0  0  0  0
   37.1002   27.2079   40.5262 H   0  0  0  0  0  0  0  0  0  0  0  0
   37.6371   28.7826   43.2777 H   0  0  0  0  0  0  0  0  0  0  0  0
   39.3746   26.8384   41.0938 H   0  0  0  0  0  0  0  0  0  0  0  0
   45.9095   31.6937   37.4339 H   0  0  0  0  0  0  0  0  0  0  0  0
   44.2185   32.2332   37.2542 H   0  0  0  0  0  0  0  0  0  0  0  0
   42.0701   33.5340   39.0523 H   0  0  0  0  0  0  0  0  0  0  0  0
   42.9110   34.5540   37.8360 H   0  0  0  0  0  0  0  0  0  0  0  0
   43.1515   32.7738   37.8360 H   0  0  0  0  0  0  0  0  0  0  0  0
  1  2  2  0
  2 17  1  0
  2  3  1  0
  4  3  2  0
  4  9  1  0
  5  4  1  0
  6  1  1  0
  6  5  2  0
  7  5  1  0
  7  8  1  0
  8  9  1  0
 10 15  1  0
 11 12  1  0
 11  8  1  0
 11 10  1  0
 13 12  1  0
 13 14  1  0
 14 16  1  0
 14 10  1  0
 18 17  1  0
 18 23  1  0
 19 18  2  0
 20 19  1  0
 20 21  2  0
 21 22  1  0
 22 23  2  0
 22 26  1  0
 24 20  1  0
 25 19  1  0
 27 26  1  0
 27 28  1  0
 27 30  1  0
 29 27  1  0
  1 31  1  0
  3 32  1  0
  6 33  1  0
  8 34  1  1
 10 35  1  1
 11 36  1  6
 13 37  1  0
 13 38  1  0
 14 39  1  1
 15 40  1  0
 16 41  1  0
 24 42  1  0
 24 43  1  0
 25 44  1  0
 25 45  1  0
 25 46  1  0
M  ISO  8  31  14  32  14  33  14  34  13  35  13  36  13  37  13  38  13
M  ISO  6  39  13  40   3  41   3  44   8  45   8  46   8
M  END
>  <minimizedAffinity>  (1) 
-6.54770136

>  <minimizedRMSD>  (1) 
1.08897948

$$$$
