
     RDKit          3D

 47 50  0  0  1  0  0  0  0  0999 V2000
   40.4130   35.2140   40.2340 C   0  0  0  0  0  0  0  0  0  0  0  0
   41.3710   34.5190   40.9730 C   0  0  0  0  0  0  0  0  0  0  0  0
   41.1350   33.2390   41.4310 C   0  0  0  0  0  0  0  0  0  0  0  0
   39.9350   32.6160   41.1620 C   0  0  0  0  0  0  0  0  0  0  0  0
   38.9790   33.2930   40.4320 C   0  0  0  0  0  0  0  0  0  0  0  0
   39.1870   34.5570   39.9680 C   0  0  0  0  0  0  0  0  0  0  0  0
   37.8800   32.4170   40.3190 O   0  0  0  0  0  0  0  0  0  0  0  0
   38.0600   31.3770   41.1930 C   0  0  2  0  0  0  0  0  0  0  0  0
   39.4380   31.3510   41.4940 O   0  0  0  0  0  0  0  0  0  0  0  0
   37.5390   30.0400   40.7500 C   0  0  0  0  0  0  0  0  0  0  0  0
   37.8540   29.0290   41.8220 C   0  0  0  0  0  0  0  0  0  0  0  0
   37.6150   27.6110   41.3690 C   0  0  0  0  0  0  0  0  0  0  0  0
   37.4860   27.4620   40.0060 O   0  0  0  0  0  0  0  0  0  0  0  0
   38.5170   28.1760   39.3940 C   0  0  0  0  0  0  0  0  0  0  0  0
   38.0730   29.6250   39.3990 C   0  0  0  0  0  0  0  0  0  0  0  0
   42.8780   35.4590   41.2100 S   0  0  0  0  0  0  0  0  0  0  0  0
   44.3050   34.5100   40.5800 C   0  0  0  0  0  0  0  0  0  0  0  0
   44.0910   33.8240   39.4410 C   0  0  0  0  0  0  0  0  0  0  0  0
   45.1820   33.0860   38.9800 C   0  0  0  0  0  0  0  0  0  0  0  0
   46.3530   33.0750   39.6350 N   0  0  0  0  0  0  0  0  0  0  0  0
   46.5160   33.7810   40.7720 C   0  0  0  0  0  0  0  0  0  0  0  0
   45.4710   34.4840   41.2120 N   0  0  0  0  0  0  0  0  0  0  0  0
   45.0660   32.2920   37.7790 N   0  0  0  0  0  0  0  0  0  0  0  0
   42.9370   33.6690   38.5020 C   0  0  0  0  0  0  0  0  0  0  0  0
   47.6790   33.8350   41.5160 O   0  0  0  0  0  0  0  0  0  0  0  0
   48.5170   34.9570   41.3350 C   0  0  0  0  0  0  0  0  0  0  0  0
   49.7910   34.7070   41.7650 F   0  0  0  0  0  0  0  0  0  0  0  0
   48.4870   35.2700   39.9620 F   0  0  0  0  0  0  0  0  0  0  0  0
   48.0110   36.0080   42.0810 F   0  0  0  0  0  0  0  0  0  0  0  0
   40.6031   36.2349   39.8713 H   0  0  0  0  0  0  0  0  0  0  0  0
   41.9069   32.7139   42.0127 H   0  0  0  0  0  0  0  0  0  0  0  0
   38.4037   35.0665   39.3876 H   0  0  0  0  0  0  0  0  0  0  0  0
   37.4425   31.5626   42.0842 H   0  0  0  0  0  0  0  0  0  0  0  0
   36.4493   30.1063   40.6156 H   0  0  0  0  0  0  0  0  0  0  0  0
   38.9114   29.1347   42.1063 H   0  0  0  0  0  0  0  0  0  0  0  0
   37.1841   29.2248   42.6722 H   0  0  0  0  0  0  0  0  0  0  0  0
   38.4633   26.9957   41.7033 H   0  0  0  0  0  0  0  0  0  0  0  0
   36.6572   27.2983   41.8104 H   0  0  0  0  0  0  0  0  0  0  0  0
   38.6669   27.8246   38.3625 H   0  0  0  0  0  0  0  0  0  0  0  0
   39.4722   28.0427   39.9229 H   0  0  0  0  0  0  0  0  0  0  0  0
   38.9326   30.2623   39.1441 H   0  0  0  0  0  0  0  0  0  0  0  0
   37.2656   29.7393   38.6607 H   0  0  0  0  0  0  0  0  0  0  0  0
   45.8729   31.7483   37.4411 H   0  0  0  0  0  0  0  0  0  0  0  0
   44.1763   32.2695   37.2604 H   0  0  0  0  0  0  0  0  0  0  0  0
   42.0089   33.5443   39.0791 H   0  0  0  0  0  0  0  0  0  0  0  0
   42.8572   34.5645   37.8682 H   0  0  0  0  0  0  0  0  0  0  0  0
   43.0963   32.7842   37.8682 H   0  0  0  0  0  0  0  0  0  0  0  0
  1  2  2  0
  2 16  1  0
  2  3  1  0
  4  3  2  0
  4  9  1  0
  5  4  1  0
  6  1  1  0
  6  5  2  0
  7  5  1  0
  7  8  1  0
  8  9  1  0
 10  8  1  0
 10 11  1  0
 12 11  1  0
 13 12  1  0
 14 15  1  0
 14 13  1  0
 15 10  1  0
 17 16  1  0
 17 22  1  0
 18 17  2  0
 19 18  1  0
 19 20  2  0
 20 21  1  0
 21 22  2  0
 21 25  1  0
 23 19  1  0
 24 18  1  0
 26 25  1  0
 26 27  1  0
 26 29  1  0
 28 26  1  0
  1 30  1  0
  3 31  1  0
  6 32  1  0
  8 33  1  1
 10 34  1  0
 11 35  1  0
 11 36  1  0
 12 37  1  0
 12 38  1  0
 14 39  1  0
 14 40  1  0
 15 41  1  0
 15 42  1  0
 23 43  1  0
 23 44  1  0
 24 45  1  0
 24 46  1  0
 24 47  1  0
M  ISO  8  30  14  31  14  32  14  33  13  34  13  35  13  36  13  37  13
M  ISO  8  38  13  39  13  40  13  41  13  42  13  45   8  46   8  47   8
M  END
>  <minimizedAffinity>  (1) 
-6.35436106

>  <minimizedRMSD>  (1) 
1.07224894

$$$$
