
     RDKit          3D

 42 45  0  0  1  0  0  0  0  0999 V2000
   40.1840   34.9710   40.3950 C   0  0  0  0  0  0  0  0  0  0  0  0
   41.2400   34.3230   41.0520 C   0  0  0  0  0  0  0  0  0  0  0  0
   41.1000   33.0310   41.5160 C   0  0  0  0  0  0  0  0  0  0  0  0
   39.9220   32.3550   41.3420 C   0  0  0  0  0  0  0  0  0  0  0  0
   38.8760   32.9790   40.6990 C   0  0  0  0  0  0  0  0  0  0  0  0
   38.9820   34.2700   40.2230 C   0  0  0  0  0  0  0  0  0  0  0  0
   37.8120   32.0630   40.6620 O   0  0  0  0  0  0  0  0  0  0  0  0
   38.1280   30.9970   41.4710 C   0  0  2  0  0  0  0  0  0  0  0  0
   39.5160   31.0670   41.7040 O   0  0  0  0  0  0  0  0  0  0  0  0
   37.8810   29.6870   40.7710 C   0  0  0  0  0  0  0  0  0  0  0  0
   37.7870   29.5410   39.4030 C   0  0  0  0  0  0  0  0  0  0  0  0
   37.5580   28.2870   38.8560 C   0  0  0  0  0  0  0  0  0  0  0  0
   37.4400   27.2560   39.7670 C   0  0  0  0  0  0  0  0  0  0  0  0
   37.5280   27.3650   41.1400 C   0  0  0  0  0  0  0  0  0  0  0  0
   37.7530   28.6210   41.6060 N   0  0  0  0  0  0  0  0  0  0  0  0
   42.7020   35.3500   41.1680 S   0  0  0  0  0  0  0  0  0  0  0  0
   44.1420   34.4340   40.5250 C   0  0  0  0  0  0  0  0  0  0  0  0
   43.9530   33.7720   39.3540 C   0  0  0  0  0  0  0  0  0  0  0  0
   45.0600   33.0640   38.9030 C   0  0  0  0  0  0  0  0  0  0  0  0
   46.2210   33.0450   39.5760 N   0  0  0  0  0  0  0  0  0  0  0  0
   46.3620   33.7210   40.7340 C   0  0  0  0  0  0  0  0  0  0  0  0
   45.3020   34.4010   41.1730 N   0  0  0  0  0  0  0  0  0  0  0  0
   44.9670   32.3050   37.6760 N   0  0  0  0  0  0  0  0  0  0  0  0
   42.8140   33.6450   38.4040 C   0  0  0  0  0  0  0  0  0  0  0  0
   47.5120   33.7620   41.4900 O   0  0  0  0  0  0  0  0  0  0  0  0
   48.3520   34.8950   41.3430 C   0  0  0  0  0  0  0  0  0  0  0  0
   49.6080   34.6680   41.7960 F   0  0  0  0  0  0  0  0  0  0  0  0
   48.3470   35.2260   39.9760 F   0  0  0  0  0  0  0  0  0  0  0  0
   47.8030   35.9330   42.0890 F   0  0  0  0  0  0  0  0  0  0  0  0
   40.2957   36.0008   40.0248 H   0  0  0  0  0  0  0  0  0  0  0  0
   41.9405   32.5408   42.0292 H   0  0  0  0  0  0  0  0  0  0  0  0
   38.1309   34.7449   39.7131 H   0  0  0  0  0  0  0  0  0  0  0  0
   37.5190   31.0435   42.3858 H   0  0  0  0  0  0  0  0  0  0  0  0
   37.8934   30.4173   38.7467 H   0  0  0  0  0  0  0  0  0  0  0  0
   37.4760   28.1250   37.7711 H   0  0  0  0  0  0  0  0  0  0  0  0
   37.2583   26.2508   39.3590 H   0  0  0  0  0  0  0  0  0  0  0  0
   37.4235   26.4977   41.8085 H   0  0  0  0  0  0  0  0  0  0  0  0
   45.7826   31.7771   37.3339 H   0  0  0  0  0  0  0  0  0  0  0  0
   44.0852   32.2922   37.1439 H   0  0  0  0  0  0  0  0  0  0  0  0
   41.8757   33.5404   38.9684 H   0  0  0  0  0  0  0  0  0  0  0  0
   42.7628   34.5430   37.7708 H   0  0  0  0  0  0  0  0  0  0  0  0
   42.9619   32.7578   37.7708 H   0  0  0  0  0  0  0  0  0  0  0  0
  1  2  2  0
  2 16  1  0
  2  3  1  0
  4  3  2  0
  4  9  1  0
  5  4  1  0
  6  1  1  0
  6  5  2  0
  7  5  1  0
  7  8  1  0
  8  9  1  0
 10  8  1  0
 10 15  1  0
 11 10  2  0
 12 11  1  0
 12 13  2  0
 13 14  1  0
 14 15  2  0
 17 16  1  0
 17 22  1  0
 18 17  2  0
 19 18  1  0
 19 20  2  0
 20 21  1  0
 21 22  2  0
 21 25  1  0
 23 19  1  0
 24 18  1  0
 26 25  1  0
 26 27  1  0
 26 29  1  0
 28 26  1  0
  1 30  1  0
  3 31  1  0
  6 32  1  0
  8 33  1  1
 11 34  1  0
 12 35  1  0
 13 36  1  0
 14 37  1  0
 23 38  1  0
 23 39  1  0
 24 40  1  0
 24 41  1  0
 24 42  1  0
M  ISO  8  30  14  31  14  32  14  33  13  34  14  35  14  36  14  37  14
M  ISO  3  40   8  41   8  42   8
M  END
>  <minimizedAffinity>  (1) 
-6.18528175

>  <minimizedRMSD>  (1) 
0.694531024

$$$$
