
     RDKit          3D

 40 43  0  0  1  0  0  0  0  0999 V2000
   44.0920   34.3960   40.5110 C   0  0  0  0  0  0  0  0  0  0  0  0
   43.9370   33.7800   39.3230 C   0  0  0  0  0  0  0  0  0  0  0  0
   45.0780   33.1180   38.8470 C   0  0  0  0  0  0  0  0  0  0  0  0
   46.2290   33.1120   39.5370 N   0  0  0  0  0  0  0  0  0  0  0  0
   46.3320   33.7450   40.7200 C   0  0  0  0  0  0  0  0  0  0  0  0
   45.2470   34.3720   41.1710 N   0  0  0  0  0  0  0  0  0  0  0  0
   45.0260   32.4080   37.5910 N   0  0  0  0  0  0  0  0  0  0  0  0
   42.8180   33.6350   38.3430 C   0  0  0  0  0  0  0  0  0  0  0  0
   42.6150   35.2470   41.1580 S   0  0  0  0  0  0  0  0  0  0  0  0
   40.0900   34.7510   40.4890 C   0  0  0  0  0  0  0  0  0  0  0  0
   41.2060   34.1430   41.0760 C   0  0  0  0  0  0  0  0  0  0  0  0
   41.1600   32.8340   41.5080 C   0  0  0  0  0  0  0  0  0  0  0  0
   40.0190   32.0930   41.3730 C   0  0  0  0  0  0  0  0  0  0  0  0
   38.9050   32.6870   40.7910 C   0  0  0  0  0  0  0  0  0  0  0  0
   38.9180   33.9850   40.3510 C   0  0  0  0  0  0  0  0  0  0  0  0
   37.8950   31.6960   40.7850 O   0  0  0  0  0  0  0  0  0  0  0  0
   38.3060   30.6390   41.5550 C   0  0  2  0  0  0  0  0  0  0  0  0
   39.7010   30.7760   41.7140 O   0  0  0  0  0  0  0  0  0  0  0  0
   37.9570   29.3470   40.8250 C   0  0  0  0  0  0  0  0  0  0  0  0
   37.8190   29.5080   39.2970 C   0  0  0  0  0  0  0  0  0  0  0  0
   36.6340   29.2330   40.1630 C   0  0  0  0  0  0  0  0  0  0  0  0
   47.4690   33.7940   41.4980 O   0  0  0  0  0  0  0  0  0  0  0  0
   48.3150   34.9220   41.3480 C   0  0  0  0  0  0  0  0  0  0  0  0
   49.5750   34.6770   41.8120 F   0  0  0  0  0  0  0  0  0  0  0  0
   48.3220   35.2420   39.9830 F   0  0  0  0  0  0  0  0  0  0  0  0
   47.7710   35.9650   42.0890 F   0  0  0  0  0  0  0  0  0  0  0  0
   45.8629   31.9211   37.2396 H   0  0  0  0  0  0  0  0  0  0  0  0
   44.1520   32.3883   37.0463 H   0  0  0  0  0  0  0  0  0  0  0  0
   41.8691   33.5120   38.8856 H   0  0  0  0  0  0  0  0  0  0  0  0
   42.7653   34.5338   37.7111 H   0  0  0  0  0  0  0  0  0  0  0  0
   42.9961   32.7524   37.7111 H   0  0  0  0  0  0  0  0  0  0  0  0
   40.1282   35.7955   40.1462 H   0  0  0  0  0  0  0  0  0  0  0  0
   42.0515   32.3810   41.9664 H   0  0  0  0  0  0  0  0  0  0  0  0
   38.0192   34.4243   39.8936 H   0  0  0  0  0  0  0  0  0  0  0  0
   37.8174   30.6170   42.5403 H   0  0  0  0  0  0  0  0  0  0  0  0
   38.5087   28.7051   41.5276 H   0  0  0  0  0  0  0  0  0  0  0  0
   38.2037   28.7303   38.6209 H   0  0  0  0  0  0  0  0  0  0  0  0
   38.0926   30.2766   38.5591 H   0  0  0  0  0  0  0  0  0  0  0  0
   35.8799   30.0188   40.3173 H   0  0  0  0  0  0  0  0  0  0  0  0
   35.8467   28.4648   40.1579 H   0  0  0  0  0  0  0  0  0  0  0  0
  1  9  1  0
  1  6  1  0
  2  1  2  0
  3  2  1  0
  3  4  2  0
  4  5  1  0
  5  6  2  0
  5 22  1  0
  7  3  1  0
  8  2  1  0
 10 11  2  0
 11  9  1  0
 11 12  1  0
 13 12  2  0
 13 18  1  0
 14 13  1  0
 15 10  1  0
 15 14  2  0
 16 14  1  0
 16 17  1  0
 17 18  1  0
 19 17  1  0
 20 21  1  0
 20 19  1  0
 21 19  1  0
 23 22  1  0
 23 24  1  0
 23 26  1  0
 25 23  1  0
  7 27  1  0
  7 28  1  0
  8 29  1  0
  8 30  1  0
  8 31  1  0
 10 32  1  0
 12 33  1  0
 15 34  1  0
 17 35  1  1
 19 36  1  0
 20 37  1  0
 20 38  1  0
 21 39  1  0
 21 40  1  0
M  ISO  8  29   8  30   8  31   8  32  14  33  14  34  14  35  13  36  13
M  ISO  4  37  13  38  13  39  13  40  13
M  END
>  <minimizedAffinity>  (1) 
-5.8525939

>  <minimizedRMSD>  (1) 
0.603636444

$$$$
