
     RDKit          3D

 36 38  0  0  1  0  0  0  0  0999 V2000
   43.7550   34.5960   40.5310 C   0  0  0  0  0  0  0  0  0  0  0  0
   43.7590   33.7740   39.4640 C   0  0  0  0  0  0  0  0  0  0  0  0
   44.9740   33.1570   39.1890 C   0  0  0  0  0  0  0  0  0  0  0  0
   46.0630   33.3770   39.9410 N   0  0  0  0  0  0  0  0  0  0  0  0
   46.0150   34.2120   41.0000 C   0  0  0  0  0  0  0  0  0  0  0  0
   44.8550   34.7920   41.2560 N   0  0  0  0  0  0  0  0  0  0  0  0
   45.0800   32.2400   38.0780 N   0  0  0  0  0  0  0  0  0  0  0  0
   42.7270   33.3660   38.4530 C   0  0  0  0  0  0  0  0  0  0  0  0
   42.1630   35.3960   40.9250 S   0  0  0  0  0  0  0  0  0  0  0  0
   39.7200   34.5940   40.2600 C   0  0  0  0  0  0  0  0  0  0  0  0
   40.8610   34.1660   40.9380 C   0  0  0  0  0  0  0  0  0  0  0  0
   40.9230   32.9160   41.5220 C   0  0  0  0  0  0  0  0  0  0  0  0
   39.8540   32.0580   41.4460 C   0  0  0  0  0  0  0  0  0  0  0  0
   38.7210   32.4660   40.7790 C   0  0  0  0  0  0  0  0  0  0  0  0
   38.6280   33.6970   40.1910 C   0  0  0  0  0  0  0  0  0  0  0  0
   37.8000   31.4000   40.8580 O   0  0  0  0  0  0  0  0  0  0  0  0
   38.2740   30.4900   41.7760 C   0  0  2  0  0  0  0  0  0  0  0  0
   39.6480   30.7650   41.9330 O   0  0  0  0  0  0  0  0  0  0  0  0
   37.9900   29.0680   41.3670 C   0  0  0  0  0  0  0  0  0  0  0  0
   47.0790   34.5010   41.8280 O   0  0  0  0  0  0  0  0  0  0  0  0
   48.2830   34.9260   41.2210 C   0  0  0  0  0  0  0  0  0  0  0  0
   49.2810   34.0150   41.4350 F   0  0  0  0  0  0  0  0  0  0  0  0
   48.0130   35.0950   39.8550 F   0  0  0  0  0  0  0  0  0  0  0  0
   48.6700   36.1200   41.7970 F   0  0  0  0  0  0  0  0  0  0  0  0
   45.9793   31.7817   37.8725 H   0  0  0  0  0  0  0  0  0  0  0  0
   44.2563   32.0444   37.4913 H   0  0  0  0  0  0  0  0  0  0  0  0
   41.8254   33.0096   38.9727 H   0  0  0  0  0  0  0  0  0  0  0  0
   42.4695   34.2300   37.8227 H   0  0  0  0  0  0  0  0  0  0  0  0
   43.1299   32.5595   37.8227 H   0  0  0  0  0  0  0  0  0  0  0  0
   39.6709   35.5905   39.7967 H   0  0  0  0  0  0  0  0  0  0  0  0
   41.8356   32.6056   42.0519 H   0  0  0  0  0  0  0  0  0  0  0  0
   37.7067   33.9891   39.6658 H   0  0  0  0  0  0  0  0  0  0  0  0
   37.7580   30.5926   42.7420 H   0  0  0  0  0  0  0  0  0  0  0  0
   37.8657   28.4459   42.2656 H   0  0  0  0  0  0  0  0  0  0  0  0
   37.0677   29.0359   40.7684 H   0  0  0  0  0  0  0  0  0  0  0  0
   38.8292   28.6841   40.7684 H   0  0  0  0  0  0  0  0  0  0  0  0
  1  9  1  0
  1  6  1  0
  2  1  2  0
  3  2  1  0
  3  4  2  0
  4  5  1  0
  5  6  2  0
  5 20  1  0
  7  3  1  0
  8  2  1  0
  9 11  1  0
 10 11  2  0
 11 12  1  0
 13 12  2  0
 13 18  1  0
 14 16  1  0
 14 13  1  0
 15 10  1  0
 15 14  2  0
 16 17  1  0
 17 18  1  0
 19 17  1  0
 21 22  1  0
 21 24  1  0
 21 20  1  0
 23 21  1  0
  7 25  1  0
  7 26  1  0
  8 27  1  0
  8 28  1  0
  8 29  1  0
 10 30  1  0
 12 31  1  0
 15 32  1  0
 17 33  1  1
 19 34  1  0
 19 35  1  0
 19 36  1  0
M  ISO  8  27   8  28   8  29   8  30  14  31  14  32  14  33  13  34   8
M  ISO  2  35   8  36   8
M  END
>  <minimizedAffinity>  (1) 
-5.84193945

>  <minimizedRMSD>  (1) 
0.0174853988

$$$$
