
     RDKit          3D

 34 36  0  0  1  0  0  0  0  0999 V2000
   44.0380   34.2800   40.4640 C   0  0  0  0  0  0  0  0  0  0  0  0
   44.2070   33.4250   39.4240 C   0  0  0  0  0  0  0  0  0  0  0  0
   45.5210   33.0280   39.2020 C   0  0  0  0  0  0  0  0  0  0  0  0
   46.5370   33.4660   39.9630 N   0  0  0  0  0  0  0  0  0  0  0  0
   46.3240   34.3170   40.9860 C   0  0  0  0  0  0  0  0  0  0  0  0
   45.0660   34.6970   41.2020 N   0  0  0  0  0  0  0  0  0  0  0  0
   45.8110   32.1010   38.1340 N   0  0  0  0  0  0  0  0  0  0  0  0
   43.2890   32.8130   38.4220 C   0  0  0  0  0  0  0  0  0  0  0  0
   42.3250   34.8000   40.8050 S   0  0  0  0  0  0  0  0  0  0  0  0
   39.9850   33.5280   40.8350 C   0  0  0  0  0  0  0  0  0  0  0  0
   41.3260   33.3670   41.1980 C   0  0  0  0  0  0  0  0  0  0  0  0
   41.7750   32.2010   41.7820 C   0  0  0  0  0  0  0  0  0  0  0  0
   40.9060   31.1630   42.0220 C   0  0  0  0  0  0  0  0  0  0  0  0
   39.5760   31.3070   41.6670 C   0  0  0  0  0  0  0  0  0  0  0  0
   39.1140   32.4530   41.0890 C   0  0  0  0  0  0  0  0  0  0  0  0
   38.9360   30.1080   42.0220 O   0  0  0  0  0  0  0  0  0  0  0  0
   39.7950   29.3580   42.7870 C   0  0  1  0  0  0  0  0  0  0  0  0
   41.0810   29.8990   42.5860 O   0  0  0  0  0  0  0  0  0  0  0  0
   39.4390   29.2510   44.1200 O   0  0  0  0  0  0  0  0  0  0  0  0
   47.2940   34.8210   41.8180 O   0  0  0  0  0  0  0  0  0  0  0  0
   48.5620   35.0900   41.2530 C   0  0  0  0  0  0  0  0  0  0  0  0
   49.4280   34.0630   41.4130 F   0  0  0  0  0  0  0  0  0  0  0  0
   48.3450   35.3850   39.8940 F   0  0  0  0  0  0  0  0  0  0  0  0
   49.0990   36.1950   41.9030 F   0  0  0  0  0  0  0  0  0  0  0  0
   46.7812   31.8010   37.9617 H   0  0  0  0  0  0  0  0  0  0  0  0
   45.0478   31.7396   37.5443 H   0  0  0  0  0  0  0  0  0  0  0  0
   42.4830   32.2757   38.9432 H   0  0  0  0  0  0  0  0  0  0  0  0
   42.8550   33.6031   37.7916 H   0  0  0  0  0  0  0  0  0  0  0  0
   43.8514   32.1085   37.7916 H   0  0  0  0  0  0  0  0  0  0  0  0
   39.6259   34.4578   40.3696 H   0  0  0  0  0  0  0  0  0  0  0  0
   42.8352   32.1009   42.0575 H   0  0  0  0  0  0  0  0  0  0  0  0
   38.0509   32.5372   40.8191 H   0  0  0  0  0  0  0  0  0  0  0  0
   39.7586   28.3076   42.4623 H   0  0  0  0  0  0  0  0  0  0  0  0
   40.2151   29.4843   44.6886 H   0  0  0  0  0  0  0  0  0  0  0  0
  1  9  1  0
  1  6  1  0
  2  1  2  0
  3  2  1  0
  3  4  2  0
  4  5  1  0
  5  6  2  0
  5 20  1  0
  7  3  1  0
  8  2  1  0
  9 11  1  0
 10 15  2  0
 10 11  1  0
 11 12  2  0
 12 13  1  0
 13 18  1  0
 14 16  1  0
 14 13  2  0
 15 14  1  0
 16 17  1  0
 17 19  1  0
 18 17  1  0
 21 22  1  0
 21 20  1  0
 21 24  1  0
 23 21  1  0
  7 25  1  0
  7 26  1  0
  8 27  1  0
  8 28  1  0
  8 29  1  0
 10 30  1  0
 12 31  1  0
 15 32  1  0
 17 33  1  6
 19 34  1  0
M  ISO  8  27   8  28   8  29   8  30  14  31  14  32  14  33  13  34   3
M  END
>  <minimizedAffinity>  (1) 
-5.7138319

>  <minimizedRMSD>  (1) 
1.1820637

$$$$
