
     RDKit          3D

 43 46  0  0  1  0  0  0  0  0999 V2000
   40.4520   33.6740   41.3020 C   0  0  0  0  0  0  0  0  0  0  0  0
   41.7920   33.2990   41.3860 C   0  0  0  0  0  0  0  0  0  0  0  0
   42.1490   31.9940   41.6540 C   0  0  0  0  0  0  0  0  0  0  0  0
   41.1970   31.0350   41.8440 C   0  0  0  0  0  0  0  0  0  0  0  0
   39.8640   31.3890   41.7640 C   0  0  0  0  0  0  0  0  0  0  0  0
   39.4790   32.6720   41.5010 C   0  0  0  0  0  0  0  0  0  0  0  0
   39.1150   30.2210   41.9970 O   0  0  0  0  0  0  0  0  0  0  0  0
   39.9780   29.2440   42.4560 C   0  0  1  0  0  0  0  0  0  0  0  0
   41.2810   29.6590   42.1260 O   0  0  0  0  0  0  0  0  0  0  0  0
   39.7830   29.0300   43.8580 N   0  0  0  0  0  0  0  0  0  0  0  0
   40.8210   28.1550   44.3060 C   0  0  0  0  0  0  0  0  0  0  0  0
   41.8170   28.5310   45.1790 C   0  0  0  0  0  0  0  0  0  0  0  0
   42.8430   27.7510   45.6370 C   0  0  0  0  0  0  0  0  0  0  0  0
   42.8190   26.5170   45.1550 N   0  0  0  0  0  0  0  0  0  0  0  0
   41.9060   26.0400   44.3070 C   0  0  0  0  0  0  0  0  0  0  0  0
   40.9040   26.8570   43.8800 N   0  0  0  0  0  0  0  0  0  0  0  0
   42.9130   34.6700   41.1060 S   0  0  0  0  0  0  0  0  0  0  0  0
   44.4820   34.0390   40.4320 C   0  0  0  0  0  0  0  0  0  0  0  0
   44.4000   33.4450   39.2240 C   0  0  0  0  0  0  0  0  0  0  0  0
   45.6200   32.9570   38.7440 C   0  0  0  0  0  0  0  0  0  0  0  0
   46.7680   33.0750   39.4280 N   0  0  0  0  0  0  0  0  0  0  0  0
   46.7870   33.6820   40.6330 C   0  0  0  0  0  0  0  0  0  0  0  0
   45.6310   34.1450   41.0920 N   0  0  0  0  0  0  0  0  0  0  0  0
   45.6540   32.2830   37.4550 N   0  0  0  0  0  0  0  0  0  0  0  0
   43.3130   33.1860   38.2380 C   0  0  0  0  0  0  0  0  0  0  0  0
   47.9130   33.8480   41.4080 O   0  0  0  0  0  0  0  0  0  0  0  0
   48.5530   35.1200   41.3460 C   0  0  0  0  0  0  0  0  0  0  0  0
   49.8060   35.0710   41.8640 F   0  0  0  0  0  0  0  0  0  0  0  0
   48.5490   35.5010   39.9950 F   0  0  0  0  0  0  0  0  0  0  0  0
   47.8110   36.0170   42.1030 F   0  0  0  0  0  0  0  0  0  0  0  0
   40.1636   34.7138   41.0882 H   0  0  0  0  0  0  0  0  0  0  0  0
   43.2134   31.7232   41.7153 H   0  0  0  0  0  0  0  0  0  0  0  0
   38.4099   32.9246   41.4442 H   0  0  0  0  0  0  0  0  0  0  0  0
   39.7885   28.2687   41.9839 H   0  0  0  0  0  0  0  0  0  0  0  0
   39.0326   29.4325   44.4375 H   0  0  0  0  0  0  0  0  0  0  0  0
   41.7842   29.5672   45.5467 H   0  0  0  0  0  0  0  0  0  0  0  0
   43.6117   28.1123   46.3360 H   0  0  0  0  0  0  0  0  0  0  0  0
   41.9622   24.9987   43.9569 H   0  0  0  0  0  0  0  0  0  0  0  0
   46.5445   31.9182   37.0880 H   0  0  0  0  0  0  0  0  0  0  0  0
   44.7875   32.1707   36.9095 H   0  0  0  0  0  0  0  0  0  0  0  0
   42.3781   32.9632   38.7730 H   0  0  0  0  0  0  0  0  0  0  0  0
   43.1711   34.0755   37.6066 H   0  0  0  0  0  0  0  0  0  0  0  0
   43.5875   32.3281   37.6066 H   0  0  0  0  0  0  0  0  0  0  0  0
  1  2  2  0
  1  6  1  0
  2  3  1  0
  3  4  2  0
  4  9  1  0
  5  4  1  0
  5  7  1  0
  6  5  2  0
  7  8  1  0
  8 10  1  0
  9  8  1  0
 10 11  1  0
 11 12  2  0
 12 13  1  0
 14 13  2  0
 15 14  1  0
 16 11  1  0
 16 15  2  0
 17  2  1  0
 18 23  1  0
 18 17  1  0
 19 18  2  0
 20 19  1  0
 20 21  2  0
 21 22  1  0
 22 23  2  0
 22 26  1  0
 24 20  1  0
 25 19  1  0
 27 26  1  0
 27 28  1  0
 27 30  1  0
 29 27  1  0
  1 31  1  0
  3 32  1  0
  6 33  1  0
  8 34  1  6
 10 35  1  0
 12 36  1  0
 13 37  1  0
 15 38  1  0
 24 39  1  0
 24 40  1  0
 25 41  1  0
 25 42  1  0
 25 43  1  0
M  ISO  8  31  14  32  14  33  14  34  13  36  14  37  14  38  14  41   8
M  ISO  2  42   8  43   8
M  END
>  <minimizedAffinity>  (1) 
-5.69353962

>  <minimizedRMSD>  (1) 
2.50949502

$$$$
