
     RDKit          3D

 49 52  0  0  1  0  0  0  0  0999 V2000
   41.0020   33.5550   41.2770 C   0  0  0  0  0  0  0  0  0  0  0  0
   42.3730   33.2740   41.2660 C   0  0  0  0  0  0  0  0  0  0  0  0
   42.8440   32.0720   41.7400 C   0  0  0  0  0  0  0  0  0  0  0  0
   41.9980   31.1270   42.2310 C   0  0  0  0  0  0  0  0  0  0  0  0
   40.6460   31.3910   42.2480 C   0  0  0  0  0  0  0  0  0  0  0  0
   40.1470   32.5740   41.7860 C   0  0  0  0  0  0  0  0  0  0  0  0
   40.0150   30.2600   42.7990 O   0  0  0  0  0  0  0  0  0  0  0  0
   40.9770   29.4330   43.3200 C   0  0  1  0  0  0  0  0  0  0  0  0
   42.2000   29.8490   42.7640 O   0  0  0  0  0  0  0  0  0  0  0  0
   40.9670   29.5210   44.7640 N   0  0  0  0  0  0  0  0  0  0  0  0
   41.2960   28.2040   45.2730 C   0  0  0  0  0  0  0  0  0  0  0  0
   42.7490   28.0970   45.6880 C   0  0  0  0  0  0  0  0  0  0  0  0
   43.0040   26.5970   45.8730 C   0  0  0  0  0  0  0  0  0  0  0  0
   42.9640   25.9270   44.6700 O   0  0  0  0  0  0  0  0  0  0  0  0
   42.1740   26.5420   43.7200 C   0  0  0  0  0  0  0  0  0  0  0  0
   40.9010   27.1090   44.3110 C   0  0  0  0  0  0  0  0  0  0  0  0
   43.3540   34.6190   40.5870 S   0  0  0  0  0  0  0  0  0  0  0  0
   45.0140   33.9780   40.1520 C   0  0  0  0  0  0  0  0  0  0  0  0
   45.0910   33.2510   39.0140 C   0  0  0  0  0  0  0  0  0  0  0  0
   46.3530   32.7760   38.7190 C   0  0  0  0  0  0  0  0  0  0  0  0
   47.4230   33.0130   39.4950 N   0  0  0  0  0  0  0  0  0  0  0  0
   47.2950   33.7430   40.6200 C   0  0  0  0  0  0  0  0  0  0  0  0
   46.0790   34.2080   40.9150 N   0  0  0  0  0  0  0  0  0  0  0  0
   46.5460   31.9770   37.5260 N   0  0  0  0  0  0  0  0  0  0  0  0
   44.1030   32.8380   37.9650 C   0  0  0  0  0  0  0  0  0  0  0  0
   48.3240   34.0480   41.4870 O   0  0  0  0  0  0  0  0  0  0  0  0
   48.7640   35.3990   41.5150 C   0  0  0  0  0  0  0  0  0  0  0  0
   49.9470   35.5210   42.1600 F   0  0  0  0  0  0  0  0  0  0  0  0
   48.8180   35.8460   40.1900 F   0  0  0  0  0  0  0  0  0  0  0  0
   47.8160   36.1480   42.2160 F   0  0  0  0  0  0  0  0  0  0  0  0
   40.6123   34.5118   40.8993 H   0  0  0  0  0  0  0  0  0  0  0  0
   43.9253   31.8711   41.7217 H   0  0  0  0  0  0  0  0  0  0  0  0
   39.0627   32.7569   41.8145 H   0  0  0  0  0  0  0  0  0  0  0  0
   40.7993   28.3756   43.0744 H   0  0  0  0  0  0  0  0  0  0  0  0
   41.6665   30.2073   45.0811 H   0  0  0  0  0  0  0  0  0  0  0  0
   40.6959   28.0603   46.1836 H   0  0  0  0  0  0  0  0  0  0  0  0
   43.4049   28.5063   44.9055 H   0  0  0  0  0  0  0  0  0  0  0  0
   42.9576   28.6660   46.6060 H   0  0  0  0  0  0  0  0  0  0  0  0
   43.9956   26.4562   46.3280 H   0  0  0  0  0  0  0  0  0  0  0  0
   42.2147   26.1897   46.5219 H   0  0  0  0  0  0  0  0  0  0  0  0
   41.9079   25.8036   42.9493 H   0  0  0  0  0  0  0  0  0  0  0  0
   42.7487   27.3777   43.2943 H   0  0  0  0  0  0  0  0  0  0  0  0
   40.2672   27.5214   43.5121 H   0  0  0  0  0  0  0  0  0  0  0  0
   40.3314   26.3240   44.8300 H   0  0  0  0  0  0  0  0  0  0  0  0
   47.4823   31.6161   37.2938 H   0  0  0  0  0  0  0  0  0  0  0  0
   45.7469   31.7698   36.9101 H   0  0  0  0  0  0  0  0  0  0  0  0
   43.1917   32.4571   38.4493 H   0  0  0  0  0  0  0  0  0  0  0  0
   43.8497   33.7056   37.3380 H   0  0  0  0  0  0  0  0  0  0  0  0
   44.5425   32.0483   37.3380 H   0  0  0  0  0  0  0  0  0  0  0  0
  1  6  2  0
  2  1  1  0
  2  3  2  0
  3  4  1  0
  4  5  2  0
  4  9  1  0
  5  7  1  0
  6  5  1  0
  7  8  1  0
  8 10  1  0
  9  8  1  0
 10 11  1  0
 11 12  1  0
 12 13  1  0
 14 13  1  0
 15 16  1  0
 15 14  1  0
 16 11  1  0
 17  2  1  0
 18 17  1  0
 18 23  1  0
 19 18  2  0
 20 19  1  0
 20 21  2  0
 21 22  1  0
 22 23  2  0
 22 26  1  0
 24 20  1  0
 25 19  1  0
 26 27  1  0
 27 28  1  0
 27 30  1  0
 29 27  1  0
  1 31  1  0
  3 32  1  0
  6 33  1  0
  8 34  1  1
 10 35  1  0
 11 36  1  0
 12 37  1  0
 12 38  1  0
 13 39  1  0
 13 40  1  0
 15 41  1  0
 15 42  1  0
 16 43  1  0
 16 44  1  0
 24 45  1  0
 24 46  1  0
 25 47  1  0
 25 48  1  0
 25 49  1  0
M  ISO  8  31  14  32  14  33  14  34  13  35   5  36  13  37  13  38  13
M  ISO  8  39  13  40  13  41  13  42  13  43  13  44  13  47   8  48   8
M  ISO  1  49   8
M  END
>  <minimizedAffinity>  (1) 
-5.69250488

>  <minimizedRMSD>  (1) 
2.95127702

$$$$
