
     RDKit          3D

 12 12  0  0  0  0  0  0  0  0999 V2000
   44.3840   35.8040   44.5970 C   0  0  0  0  0  0  0  0  0  0  0  0
   44.5650   35.3080   43.2970 C   0  0  0  0  0  0  0  0  0  0  0  0
   45.2070   34.0800   43.1490 C   0  0  0  0  0  0  0  0  0  0  0  0
   45.6160   33.4420   44.2780 N   0  0  0  0  0  0  0  0  0  0  0  0
   45.4290   33.9430   45.5170 C   0  0  0  0  0  0  0  0  0  0  0  0
   44.8090   35.1340   45.6780 N   0  0  0  0  0  0  0  0  0  0  0  0
   44.0620   36.1300   42.2350 N   0  0  0  0  0  0  0  0  0  0  0  0
   43.8784   36.7713   44.7334 H   0  0  0  0  0  0  0  0  0  0  0  0
   45.3769   33.6424   42.1542 H   0  0  0  0  0  0  0  0  0  0  0  0
   45.7808   33.3827   46.3958 H   0  0  0  0  0  0  0  0  0  0  0  0
   44.1619   35.8251   41.2563 H   0  0  0  0  0  0  0  0  0  0  0  0
   43.6008   37.0253   42.4510 H   0  0  0  0  0  0  0  0  0  0  0  0
  1  6  2  0
  2  1  1  0
  3  2  2  0
  3  4  1  0
  4  5  2  0
  5  6  1  0
  7  2  1  0
  1  8  1  0
  3  9  1  0
  5 10  1  0
  7 11  1  0
  7 12  1  0
M  ISO  3   8  14   9  14  10  14
M  END
>  <minimizedAffinity>  (1) 
-2.78347254

>  <minimizedRMSD>  (1) 
0.818344653

$$$$
