
     RDKit          3D

 19 20  0  0  0  0  0  0  0  0999 V2000
   44.4840   35.6480   45.1240 C   0  0  0  0  0  0  0  0  0  0  0  0
   45.1470   35.5170   43.8810 C   0  0  0  0  0  0  0  0  0  0  0  0
   46.0320   34.4660   43.6840 C   0  0  0  0  0  0  0  0  0  0  0  0
   46.2040   33.6160   44.7200 N   0  0  0  0  0  0  0  0  0  0  0  0
   45.5720   33.7460   45.8950 C   0  0  0  0  0  0  0  0  0  0  0  0
   44.7130   34.7580   46.1040 N   0  0  0  0  0  0  0  0  0  0  0  0
   45.8090   32.8140   46.9250 C   0  0  0  0  0  0  0  0  0  0  0  0
   45.1720   32.5820   48.1390 C   0  0  0  0  0  0  0  0  0  0  0  0
   45.5990   31.5980   48.9850 C   0  0  0  0  0  0  0  0  0  0  0  0
   46.7590   30.8440   48.4860 C   0  0  0  0  0  0  0  0  0  0  0  0
   47.1020   31.6450   46.8510 S   0  0  0  0  0  0  0  0  0  0  0  0
   44.8190   36.5340   42.9110 N   0  0  0  0  0  0  0  0  0  0  0  0
   43.7813   36.4783   45.2879 H   0  0  0  0  0  0  0  0  0  0  0  0
   46.5666   34.3319   42.7320 H   0  0  0  0  0  0  0  0  0  0  0  0
   44.3089   33.2018   48.4233 H   0  0  0  0  0  0  0  0  0  0  0  0
   45.1186   31.3885   49.9521 H   0  0  0  0  0  0  0  0  0  0  0  0
   47.2919   30.0097   48.9656 H   0  0  0  0  0  0  0  0  0  0  0  0
   45.2557   36.5161   41.9783 H   0  0  0  0  0  0  0  0  0  0  0  0
   44.1482   37.2777   43.1514 H   0  0  0  0  0  0  0  0  0  0  0  0
  1  6  2  0
  2  1  1  0
  3  2  2  0
  3  4  1  0
  4  5  2  0
  5  6  1  0
  5  7  1  0
  7  8  2  0
  8  9  1  0
 10  9  2  0
 11  7  1  0
 11 10  1  0
 12  2  1  0
  1 13  1  0
  3 14  1  0
  8 15  1  0
  9 16  1  0
 10 17  1  0
 12 18  1  0
 12 19  1  0
M  ISO  5  13  14  14  14  15  14  16  14  17  14
M  END
>  <minimizedAffinity>  (1) 
-4.48144102

>  <minimizedRMSD>  (1) 
0.807246983

$$$$
