
     RDKit          3D

 15 15  0  0  0  0  0  0  0  0999 V2000
   44.4620   35.7560   45.0520 C   0  0  0  0  0  0  0  0  0  0  0  0
   45.1090   35.6280   43.8050 C   0  0  0  0  0  0  0  0  0  0  0  0
   45.9800   34.5690   43.6100 C   0  0  0  0  0  0  0  0  0  0  0  0
   46.1600   33.7060   44.6480 N   0  0  0  0  0  0  0  0  0  0  0  0
   45.5330   33.8520   45.8240 C   0  0  0  0  0  0  0  0  0  0  0  0
   44.6820   34.8690   46.0450 N   0  0  0  0  0  0  0  0  0  0  0  0
   45.8990   32.7750   46.8030 C   0  0  0  0  0  0  0  0  0  0  0  0
   45.7210   31.5490   46.2270 F   0  0  0  0  0  0  0  0  0  0  0  0
   45.0450   32.8150   47.8970 F   0  0  0  0  0  0  0  0  0  0  0  0
   47.1890   32.8890   47.2470 F   0  0  0  0  0  0  0  0  0  0  0  0
   44.7720   36.6440   42.8610 N   0  0  0  0  0  0  0  0  0  0  0  0
   43.7669   36.5923   45.2177 H   0  0  0  0  0  0  0  0  0  0  0  0
   46.5059   34.4304   42.6539 H   0  0  0  0  0  0  0  0  0  0  0  0
   45.1945   36.6349   41.9217 H   0  0  0  0  0  0  0  0  0  0  0  0
   44.1063   37.3864   43.1190 H   0  0  0  0  0  0  0  0  0  0  0  0
  1  6  2  0
  2  1  1  0
  3  2  2  0
  3  4  1  0
  4  5  2  0
  5  6  1  0
  5  7  1  0
  7 10  1  0
  7  9  1  0
  8  7  1  0
 11  2  1  0
  1 12  1  0
  3 13  1  0
 11 14  1  0
 11 15  1  0
M  ISO  2  12  14  13  14
M  END
>  <minimizedAffinity>  (1) 
-4.13755894

>  <minimizedRMSD>  (1) 
0.818261325

$$$$
