
     RDKit          3D

 14 14  0  0  0  0  0  0  0  0999 V2000
   44.5090   35.6710   45.0600 C   0  0  0  0  0  0  0  0  0  0  0  0
   45.0890   35.7460   43.7780 C   0  0  0  0  0  0  0  0  0  0  0  0
   46.0180   34.7760   43.4290 C   0  0  0  0  0  0  0  0  0  0  0  0
   46.3110   33.8120   44.3470 N   0  0  0  0  0  0  0  0  0  0  0  0
   45.7380   33.7720   45.5600 C   0  0  0  0  0  0  0  0  0  0  0  0
   44.8360   34.6990   45.9210 N   0  0  0  0  0  0  0  0  0  0  0  0
   44.6570   36.8290   42.9530 N   0  0  0  0  0  0  0  0  0  0  0  0
   46.0850   32.7240   46.4990 C   0  0  0  0  0  0  0  0  0  0  0  0
   47.1120   32.7180   47.1980 O   0  0  0  0  0  0  0  0  0  0  0  0
   43.7703   36.4287   45.3605 H   0  0  0  0  0  0  0  0  0  0  0  0
   46.5031   34.7848   42.4418 H   0  0  0  0  0  0  0  0  0  0  0  0
   45.0431   36.9397   42.0045 H   0  0  0  0  0  0  0  0  0  0  0  0
   43.9594   37.4992   43.3065 H   0  0  0  0  0  0  0  0  0  0  0  0
   45.3917   31.8760   46.5996 H   0  0  0  0  0  0  0  0  0  0  0  0
  1  6  2  0
  2  1  1  0
  3  2  2  0
  3  4  1  0
  4  5  2  0
  5  6  1  0
  5  8  1  0
  7  2  1  0
  8  9  2  0
  1 10  1  0
  3 11  1  0
  7 12  1  0
  7 13  1  0
  8 14  1  0
M  ISO  3  10  14  11  14  14   6
M  END
>  <minimizedAffinity>  (1) 
-3.4844532

>  <minimizedRMSD>  (1) 
0.783218622

$$$$
