
     RDKit          3D

 13 13  0  0  0  0  0  0  0  0999 V2000
   44.3950   35.8160   44.6190 C   0  0  0  0  0  0  0  0  0  0  0  0
   44.5740   35.3250   43.3220 C   0  0  0  0  0  0  0  0  0  0  0  0
   45.1930   34.1010   43.1380 C   0  0  0  0  0  0  0  0  0  0  0  0
   45.5960   33.4410   44.2640 N   0  0  0  0  0  0  0  0  0  0  0  0
   45.4120   33.9330   45.5020 C   0  0  0  0  0  0  0  0  0  0  0  0
   44.8080   35.1300   45.6880 N   0  0  0  0  0  0  0  0  0  0  0  0
   44.0890   36.1530   42.2580 N   0  0  0  0  0  0  0  0  0  0  0  0
   45.9290   33.0320   46.4320 O   0  0  0  0  0  0  0  0  0  0  0  0
   43.9029   36.7893   44.7621 H   0  0  0  0  0  0  0  0  0  0  0  0
   45.3526   33.6802   42.1343 H   0  0  0  0  0  0  0  0  0  0  0  0
   44.1910   35.8469   41.2798 H   0  0  0  0  0  0  0  0  0  0  0  0
   43.6383   37.0543   42.4713 H   0  0  0  0  0  0  0  0  0  0  0  0
   45.8785   33.2357   47.3995 H   0  0  0  0  0  0  0  0  0  0  0  0
  1  6  2  0
  2  1  1  0
  3  2  2  0
  3  4  1  0
  4  5  2  0
  5  6  1  0
  5  8  1  0
  7  2  1  0
  1  9  1  0
  3 10  1  0
  7 11  1  0
  7 12  1  0
  8 13  1  0
M  ISO  3   9  14  10  14  13   3
M  END
>  <minimizedAffinity>  (1) 
-3.0997088

>  <minimizedRMSD>  (1) 
0.0283244681

$$$$
