
     RDKit          3D

 28 30  0  0  0  0  0  0  0  0999 V2000
   44.4950   35.6250   45.1820 C   0  0  0  0  0  0  0  0  0  0  0  0
   45.0550   35.6770   43.9110 C   0  0  0  0  0  0  0  0  0  0  0  0
   45.9490   34.6940   43.5440 C   0  0  0  0  0  0  0  0  0  0  0  0
   46.2330   33.7310   44.4400 N   0  0  0  0  0  0  0  0  0  0  0  0
   45.7050   33.6750   45.6520 C   0  0  0  0  0  0  0  0  0  0  0  0
   44.8420   34.6320   45.9950 N   0  0  0  0  0  0  0  0  0  0  0  0
   45.9060   32.7100   46.7280 C   0  0  0  0  0  0  0  0  0  0  0  0
   45.3680   32.8600   48.0080 C   0  0  0  0  0  0  0  0  0  0  0  0
   45.5410   31.9710   49.0340 C   0  0  0  0  0  0  0  0  0  0  0  0
   46.2790   30.8470   48.8490 C   0  0  0  0  0  0  0  0  0  0  0  0
   46.8420   30.6270   47.6160 C   0  0  0  0  0  0  0  0  0  0  0  0
   47.5840   29.4780   47.4650 C   0  0  0  0  0  0  0  0  0  0  0  0
   48.1830   29.1840   46.2590 C   0  0  0  0  0  0  0  0  0  0  0  0
   47.9950   30.0950   45.2360 C   0  0  0  0  0  0  0  0  0  0  0  0
   47.2450   31.2250   45.4450 C   0  0  0  0  0  0  0  0  0  0  0  0
   46.6400   31.5500   46.6150 C   0  0  0  0  0  0  0  0  0  0  0  0
   44.6590   36.7540   43.0740 N   0  0  0  0  0  0  0  0  0  0  0  0
   43.7775   36.3918   45.5094 H   0  0  0  0  0  0  0  0  0  0  0  0
   46.4164   34.6967   42.5482 H   0  0  0  0  0  0  0  0  0  0  0  0
   44.7620   33.7565   48.2056 H   0  0  0  0  0  0  0  0  0  0  0  0
   45.0799   32.1683   50.0130 H   0  0  0  0  0  0  0  0  0  0  0  0
   46.4230   30.1280   49.6689 H   0  0  0  0  0  0  0  0  0  0  0  0
   47.7001   28.7883   48.3140 H   0  0  0  0  0  0  0  0  0  0  0  0
   48.7802   28.2711   46.1176 H   0  0  0  0  0  0  0  0  0  0  0  0
   48.4485   29.9132   44.2505 H   0  0  0  0  0  0  0  0  0  0  0  0
   47.1253   31.9195   44.6004 H   0  0  0  0  0  0  0  0  0  0  0  0
   45.0460   36.8364   42.1231 H   0  0  0  0  0  0  0  0  0  0  0  0
   43.9848   37.4526   43.4180 H   0  0  0  0  0  0  0  0  0  0  0  0
  1  6  2  0
  2  1  1  0
  3  2  2  0
  3  4  1  0
  4  5  2  0
  5  6  1  0
  5  7  1  0
  7  8  2  0
  8  9  1  0
 10  9  2  0
 11 10  1  0
 12 11  2  0
 13 12  1  0
 14 15  1  0
 14 13  2  0
 15 16  2  0
 16  7  1  0
 16 11  1  0
 17  2  1  0
  1 18  1  0
  3 19  1  0
  8 20  1  0
  9 21  1  0
 10 22  1  0
 12 23  1  0
 13 24  1  0
 14 25  1  0
 15 26  1  0
 17 27  1  0
 17 28  1  0
M  ISO  8  18  14  19  14  20  14  21  14  22  14  23  14  24  14  25  14
M  ISO  1  26  14
M  END
>  <minimizedAffinity>  (1) 
-5.67021275

>  <minimizedRMSD>  (1) 
1.16071701

$$$$
