
     RDKit          3D

 39 42  0  0  0  0  0  0  0  0999 V2000
   45.9680   32.7960   46.2850 C   0  0  0  0  0  0  0  0  0  0  0  0
   45.4310   32.8860   47.5740 C   0  0  0  0  0  0  0  0  0  0  0  0
   45.6610   31.9510   48.5510 C   0  0  0  0  0  0  0  0  0  0  0  0
   46.4270   30.8780   48.3160 C   0  0  0  0  0  0  0  0  0  0  0  0
   46.9820   30.7350   47.0640 C   0  0  0  0  0  0  0  0  0  0  0  0
   47.7620   29.6330   46.8330 C   0  0  0  0  0  0  0  0  0  0  0  0
   48.3370   29.4300   45.6100 C   0  0  0  0  0  0  0  0  0  0  0  0
   48.0920   30.3840   44.6270 C   0  0  0  0  0  0  0  0  0  0  0  0
   47.3130   31.4450   44.9260 C   0  0  0  0  0  0  0  0  0  0  0  0
   46.7370   31.6840   46.1000 C   0  0  0  0  0  0  0  0  0  0  0  0
   44.4930   35.8130   45.0000 C   0  0  0  0  0  0  0  0  0  0  0  0
   45.1030   35.9520   43.7150 C   0  0  0  0  0  0  0  0  0  0  0  0
   46.0450   34.9740   43.2710 C   0  0  0  0  0  0  0  0  0  0  0  0
   46.2990   33.9630   44.1160 N   0  0  0  0  0  0  0  0  0  0  0  0
   45.7450   33.8320   45.2900 C   0  0  0  0  0  0  0  0  0  0  0  0
   44.8400   34.7690   45.7200 N   0  0  0  0  0  0  0  0  0  0  0  0
   44.7390   37.0740   42.9280 N   0  0  0  0  0  0  0  0  0  0  0  0
   47.2310   32.1960   43.8100 O   0  0  0  0  0  0  0  0  0  0  0  0
   46.6550   30.4700   41.6290 F   0  0  0  0  0  0  0  0  0  0  0  0
   47.8370   31.1740   41.5810 C   0  0  0  0  0  0  0  0  0  0  0  0
   48.0300   32.0000   42.6960 C   0  0  0  0  0  0  0  0  0  0  0  0
   49.1670   32.7700   42.7610 C   0  0  0  0  0  0  0  0  0  0  0  0
   50.1340   32.7600   41.7640 C   0  0  0  0  0  0  0  0  0  0  0  0
   49.9090   31.9260   40.6710 C   0  0  0  0  0  0  0  0  0  0  0  0
   48.7760   31.1450   40.5820 C   0  0  0  0  0  0  0  0  0  0  0  0
   44.7931   33.7489   47.8157 H   0  0  0  0  0  0  0  0  0  0  0  0
   45.2084   32.0849   49.5446 H   0  0  0  0  0  0  0  0  0  0  0  0
   46.6081   30.1305   49.1025 H   0  0  0  0  0  0  0  0  0  0  0  0
   47.9272   28.9041   47.6401 H   0  0  0  0  0  0  0  0  0  0  0  0
   48.9665   28.5502   45.4111 H   0  0  0  0  0  0  0  0  0  0  0  0
   48.5263   30.2752   43.6222 H   0  0  0  0  0  0  0  0  0  0  0  0
   43.7640   36.5484   45.3710 H   0  0  0  0  0  0  0  0  0  0  0  0
   46.5357   35.0459   42.2892 H   0  0  0  0  0  0  0  0  0  0  0  0
   45.1579   37.2074   41.9965 H   0  0  0  0  0  0  0  0  0  0  0  0
   44.0557   37.7556   43.2878 H   0  0  0  0  0  0  0  0  0  0  0  0
   49.3167   33.4191   43.6364 H   0  0  0  0  0  0  0  0  0  0  0  0
   51.0377   33.3832   41.8343 H   0  0  0  0  0  0  0  0  0  0  0  0
   50.6520   31.8897   39.8606 H   0  0  0  0  0  0  0  0  0  0  0  0
   48.6249   30.4964   39.7065 H   0  0  0  0  0  0  0  0  0  0  0  0
  1  2  2  0
  2  3  1  0
  4  3  2  0
  5  4  1  0
  6  5  2  0
  7  6  1  0
  8  9  1  0
  8  7  2  0
  9 10  2  0
 10  1  1  0
 10  5  1  0
 11 16  2  0
 12 11  1  0
 13 12  2  0
 13 14  1  0
 14 15  2  0
 15 16  1  0
 15  1  1  0
 17 12  1  0
 18  9  1  0
 20 19  1  0
 20 21  2  0
 21 22  1  0
 21 18  1  0
 23 22  2  0
 24 23  1  0
 25 24  2  0
 25 20  1  0
  2 26  1  0
  3 27  1  0
  4 28  1  0
  6 29  1  0
  7 30  1  0
  8 31  1  0
 11 32  1  0
 13 33  1  0
 17 34  1  0
 17 35  1  0
 22 36  1  0
 23 37  1  0
 24 38  1  0
 25 39  1  0
M  ISO  8  26  14  27  14  28  14  29  14  30  14  31  14  32  14  33  14
M  ISO  4  36  14  37  14  38  14  39  14
M  END
>  <minimizedAffinity>  (1) 
-6.01488447

>  <minimizedRMSD>  (1) 
1.02341199

$$$$
