
     RDKit          3D

 37 40  0  0  0  0  0  0  0  0999 V2000
   45.9610   32.7470   46.4780 C   0  0  0  0  0  0  0  0  0  0  0  0
   45.4210   32.8640   47.7810 C   0  0  0  0  0  0  0  0  0  0  0  0
   45.6420   31.9530   48.7860 C   0  0  0  0  0  0  0  0  0  0  0  0
   46.4100   30.8680   48.5630 C   0  0  0  0  0  0  0  0  0  0  0  0
   46.9640   30.6980   47.3070 C   0  0  0  0  0  0  0  0  0  0  0  0
   47.7370   29.5830   47.1190 C   0  0  0  0  0  0  0  0  0  0  0  0
   48.3160   29.3520   45.8870 C   0  0  0  0  0  0  0  0  0  0  0  0
   48.0720   30.2870   44.8940 C   0  0  0  0  0  0  0  0  0  0  0  0
   47.3000   31.3590   45.1550 C   0  0  0  0  0  0  0  0  0  0  0  0
   46.7260   31.6260   46.3230 C   0  0  0  0  0  0  0  0  0  0  0  0
   44.4590   35.7190   45.1230 C   0  0  0  0  0  0  0  0  0  0  0  0
   45.1030   35.8340   43.8500 C   0  0  0  0  0  0  0  0  0  0  0  0
   46.0680   34.8660   43.4400 C   0  0  0  0  0  0  0  0  0  0  0  0
   46.3160   33.8750   44.3120 N   0  0  0  0  0  0  0  0  0  0  0  0
   45.7420   33.7530   45.4730 C   0  0  0  0  0  0  0  0  0  0  0  0
   44.8170   34.6810   45.8660 N   0  0  0  0  0  0  0  0  0  0  0  0
   44.7190   36.9540   43.0560 N   0  0  0  0  0  0  0  0  0  0  0  0
   47.2270   32.0730   43.9980 O   0  0  0  0  0  0  0  0  0  0  0  0
   47.9540   31.9040   42.8240 C   0  0  0  0  0  0  0  0  0  0  0  0
   47.8590   31.1670   41.6760 C   0  0  0  0  0  0  0  0  0  0  0  0
   48.7030   31.1500   40.6010 C   0  0  0  0  0  0  0  0  0  0  0  0
   49.7740   31.9900   40.7100 N   0  0  0  0  0  0  0  0  0  0  0  0
   49.9300   32.7470   41.8110 C   0  0  0  0  0  0  0  0  0  0  0  0
   49.0420   32.6630   42.7690 N   0  0  0  0  0  0  0  0  0  0  0  0
   44.7871   33.7353   48.0023 H   0  0  0  0  0  0  0  0  0  0  0  0
   45.1902   32.1100   49.7766 H   0  0  0  0  0  0  0  0  0  0  0  0
   46.5921   30.1342   49.3619 H   0  0  0  0  0  0  0  0  0  0  0  0
   47.8958   28.8749   47.9457 H   0  0  0  0  0  0  0  0  0  0  0  0
   48.9421   28.4666   45.7024 H   0  0  0  0  0  0  0  0  0  0  0  0
   48.5086   30.1537   43.8932 H   0  0  0  0  0  0  0  0  0  0  0  0
   43.7107   36.4492   45.4649 H   0  0  0  0  0  0  0  0  0  0  0  0
   46.5784   34.9278   42.4676 H   0  0  0  0  0  0  0  0  0  0  0  0
   45.1434   37.0975   42.1285 H   0  0  0  0  0  0  0  0  0  0  0  0
   44.0171   37.6197   43.4098 H   0  0  0  0  0  0  0  0  0  0  0  0
   46.9876   30.4991   41.6088 H   0  0  0  0  0  0  0  0  0  0  0  0
   48.5335   30.5124   39.7208 H   0  0  0  0  0  0  0  0  0  0  0  0
   50.7903   33.4260   41.9048 H   0  0  0  0  0  0  0  0  0  0  0  0
  1  2  2  0
  2  3  1  0
  4  3  2  0
  5  4  1  0
  6  5  2  0
  7  6  1  0
  8  9  1  0
  8  7  2  0
  9 10  2  0
 10  1  1  0
 10  5  1  0
 11 16  2  0
 12 11  1  0
 13 12  2  0
 13 14  1  0
 14 15  2  0
 15 16  1  0
 15  1  1  0
 17 12  1  0
 18  9  1  0
 19 18  1  0
 20 19  2  0
 21 22  2  0
 21 20  1  0
 22 23  1  0
 23 24  2  0
 24 19  1  0
  2 25  1  0
  3 26  1  0
  4 27  1  0
  6 28  1  0
  7 29  1  0
  8 30  1  0
 11 31  1  0
 13 32  1  0
 17 33  1  0
 17 34  1  0
 20 35  1  0
 21 36  1  0
 23 37  1  0
M  ISO  8  25  14  26  14  27  14  28  14  29  14  30  14  31  14  32  14
M  ISO  3  35  14  36  14  37  14
M  END
>  <minimizedAffinity>  (1) 
-6.00359917

>  <minimizedRMSD>  (1) 
0.970573604

$$$$
