
     RDKit          3D

 41 44  0  0  1  0  0  0  0  0999 V2000
   45.9980   32.7740   46.5160 C   0  0  0  0  0  0  0  0  0  0  0  0
   45.5000   32.9370   47.8340 C   0  0  0  0  0  0  0  0  0  0  0  0
   45.7410   32.0480   48.8530 C   0  0  0  0  0  0  0  0  0  0  0  0
   46.4820   30.9500   48.6390 C   0  0  0  0  0  0  0  0  0  0  0  0
   46.9960   30.7330   47.3740 C   0  0  0  0  0  0  0  0  0  0  0  0
   47.7430   29.6020   47.1870 C   0  0  0  0  0  0  0  0  0  0  0  0
   48.2730   29.3310   45.9480 C   0  0  0  0  0  0  0  0  0  0  0  0
   48.0130   30.2450   44.9260 C   0  0  0  0  0  0  0  0  0  0  0  0
   47.2720   31.3310   45.1880 C   0  0  0  0  0  0  0  0  0  0  0  0
   46.7410   31.6350   46.3700 C   0  0  0  0  0  0  0  0  0  0  0  0
   44.4530   35.6970   45.1040 C   0  0  0  0  0  0  0  0  0  0  0  0
   45.0830   35.7970   43.8270 C   0  0  0  0  0  0  0  0  0  0  0  0
   46.0540   34.8290   43.4390 C   0  0  0  0  0  0  0  0  0  0  0  0
   46.3230   33.8560   44.3230 N   0  0  0  0  0  0  0  0  0  0  0  0
   45.7550   33.7540   45.4910 C   0  0  0  0  0  0  0  0  0  0  0  0
   44.8250   34.6780   45.8680 N   0  0  0  0  0  0  0  0  0  0  0  0
   44.6790   36.8960   43.0220 N   0  0  0  0  0  0  0  0  0  0  0  0
   47.1860   32.0220   44.0210 O   0  0  0  0  0  0  0  0  0  0  0  0
   48.9330   33.1790   42.9090 N   0  0  0  0  0  0  0  0  0  0  0  0
   50.2030   32.7990   42.3180 C   0  0  0  0  0  0  0  0  0  0  0  0
   50.0980   31.3220   41.9430 C   0  0  0  0  0  0  0  0  0  0  0  0
   49.1610   30.8640   43.0890 C   0  0  0  0  0  0  0  0  0  0  0  0
   48.1400   31.9410   42.9920 C   0  0  1  0  0  0  0  0  0  0  0  0
   44.8871   33.8240   48.0521 H   0  0  0  0  0  0  0  0  0  0  0  0
   45.3231   32.2378   49.8527 H   0  0  0  0  0  0  0  0  0  0  0  0
   46.6766   30.2369   49.4536 H   0  0  0  0  0  0  0  0  0  0  0  0
   47.9188   28.9119   48.0254 H   0  0  0  0  0  0  0  0  0  0  0  0
   48.8778   28.4298   45.7692 H   0  0  0  0  0  0  0  0  0  0  0  0
   48.4123   30.0759   43.9151 H   0  0  0  0  0  0  0  0  0  0  0  0
   43.6994   36.4258   45.4369 H   0  0  0  0  0  0  0  0  0  0  0  0
   46.5584   34.8770   42.4626 H   0  0  0  0  0  0  0  0  0  0  0  0
   45.0926   37.0300   42.0883 H   0  0  0  0  0  0  0  0  0  0  0  0
   43.9725   37.5587   43.3722 H   0  0  0  0  0  0  0  0  0  0  0  0
   48.4547   33.8718   42.3155 H   0  0  0  0  0  0  0  0  0  0  0  0
   50.3976   33.4037   41.4199 H   0  0  0  0  0  0  0  0  0  0  0  0
   51.0298   32.9666   43.0239 H   0  0  0  0  0  0  0  0  0  0  0  0
   49.6433   31.1767   40.9520 H   0  0  0  0  0  0  0  0  0  0  0  0
   51.0516   30.7803   41.8585 H   0  0  0  0  0  0  0  0  0  0  0  0
   48.7317   29.8692   42.8993 H   0  0  0  0  0  0  0  0  0  0  0  0
   49.6368   30.7477   44.0739 H   0  0  0  0  0  0  0  0  0  0  0  0
   47.4986   31.7365   42.1221 H   0  0  0  0  0  0  0  0  0  0  0  0
  1  2  2  0
  2  3  1  0
  4  3  2  0
  5  4  1  0
  6  5  2  0
  7  6  1  0
  8  9  1  0
  8  7  2  0
  9 10  2  0
 10  1  1  0
 10  5  1  0
 11 16  2  0
 12 11  1  0
 13 12  2  0
 13 14  1  0
 14 15  2  0
 15 16  1  0
 15  1  1  0
 17 12  1  0
 18  9  1  0
 19 23  1  0
 20 19  1  0
 21 20  1  0
 21 22  1  0
 23 22  1  0
 23 18  1  0
  2 24  1  0
  3 25  1  0
  4 26  1  0
  6 27  1  0
  7 28  1  0
  8 29  1  0
 11 30  1  0
 13 31  1  0
 17 32  1  0
 17 33  1  0
 19 34  1  0
 20 35  1  0
 20 36  1  0
 21 37  1  0
 21 38  1  0
 22 39  1  0
 22 40  1  0
 23 41  1  6
M  ISO  8  24  14  25  14  26  14  27  14  28  14  29  14  30  14  31  14
M  ISO  8  34   5  35  13  36  13  37  13  38  13  39  13  40  13  41  13
M  END
>  <minimizedAffinity>  (1) 
-5.95046091

>  <minimizedRMSD>  (1) 
0.647074103

$$$$
