
     RDKit          3D

 40 43  0  0  1  0  0  0  0  0999 V2000
   46.0190   32.6940   46.6800 C   0  0  0  0  0  0  0  0  0  0  0  0
   45.5090   32.9210   47.9880 C   0  0  0  0  0  0  0  0  0  0  0  0
   45.7160   32.0680   49.0450 C   0  0  0  0  0  0  0  0  0  0  0  0
   46.4360   30.9430   48.8790 C   0  0  0  0  0  0  0  0  0  0  0  0
   46.9590   30.6700   47.6210 C   0  0  0  0  0  0  0  0  0  0  0  0
   47.6800   29.5140   47.4950 C   0  0  0  0  0  0  0  0  0  0  0  0
   48.2180   29.1790   46.2710 C   0  0  0  0  0  0  0  0  0  0  0  0
   47.9900   30.0570   45.2130 C   0  0  0  0  0  0  0  0  0  0  0  0
   47.2670   31.1740   45.4350 C   0  0  0  0  0  0  0  0  0  0  0  0
   46.7320   31.5380   46.5930 C   0  0  0  0  0  0  0  0  0  0  0  0
   44.4820   35.5330   45.0970 C   0  0  0  0  0  0  0  0  0  0  0  0
   45.2170   35.6400   43.8770 C   0  0  0  0  0  0  0  0  0  0  0  0
   46.2530   34.7070   43.5850 C   0  0  0  0  0  0  0  0  0  0  0  0
   46.4820   33.7550   44.5020 N   0  0  0  0  0  0  0  0  0  0  0  0
   45.8190   33.6480   45.6200 C   0  0  0  0  0  0  0  0  0  0  0  0
   44.8230   34.5410   45.9040 N   0  0  0  0  0  0  0  0  0  0  0  0
   44.8460   36.7120   43.0180 N   0  0  0  0  0  0  0  0  0  0  0  0
   47.2080   31.8180   44.2320 O   0  0  0  0  0  0  0  0  0  0  0  0
   47.8670   31.3970   43.0530 C   0  0  2  0  0  0  0  0  0  0  0  0
   48.9160   32.2930   42.4940 C   0  0  0  0  0  0  0  0  0  0  0  0
   49.0040   31.6230   41.0880 C   0  0  0  0  0  0  0  0  0  0  0  0
   47.6790   31.4190   40.7330 O   0  0  0  0  0  0  0  0  0  0  0  0
   46.8800   31.4450   41.8660 C   0  0  0  0  0  0  0  0  0  0  0  0
   44.9156   33.8305   48.1633 H   0  0  0  0  0  0  0  0  0  0  0  0
   45.2913   32.3056   50.0315 H   0  0  0  0  0  0  0  0  0  0  0  0
   46.6066   30.2552   49.7203 H   0  0  0  0  0  0  0  0  0  0  0  0
   47.8292   28.8567   48.3643 H   0  0  0  0  0  0  0  0  0  0  0  0
   48.8028   28.2573   46.1350 H   0  0  0  0  0  0  0  0  0  0  0  0
   48.3934   29.8425   44.2124 H   0  0  0  0  0  0  0  0  0  0  0  0
   43.6762   36.2370   45.3520 H   0  0  0  0  0  0  0  0  0  0  0  0
   46.8362   34.7643   42.6541 H   0  0  0  0  0  0  0  0  0  0  0  0
   45.3356   36.8470   42.1219 H   0  0  0  0  0  0  0  0  0  0  0  0
   44.0879   37.3530   43.2923 H   0  0  0  0  0  0  0  0  0  0  0  0
   48.2824   30.4309   43.3756 H   0  0  0  0  0  0  0  0  0  0  0  0
   48.5896   33.3421   42.4411 H   0  0  0  0  0  0  0  0  0  0  0  0
   49.8539   32.3701   43.0635 H   0  0  0  0  0  0  0  0  0  0  0  0
   49.5043   32.2876   40.3682 H   0  0  0  0  0  0  0  0  0  0  0  0
   49.5892   30.6916   41.0975 H   0  0  0  0  0  0  0  0  0  0  0  0
   46.2830   32.3684   41.8968 H   0  0  0  0  0  0  0  0  0  0  0  0
   46.1669   30.6077   41.8877 H   0  0  0  0  0  0  0  0  0  0  0  0
  1  2  2  0
  2  3  1  0
  4  3  2  0
  5  4  1  0
  6  5  2  0
  7  6  1  0
  8  9  1  0
  8  7  2  0
  9 10  2  0
 10  1  1  0
 10  5  1  0
 11 16  2  0
 12 11  1  0
 13 12  2  0
 13 14  1  0
 14 15  2  0
 15 16  1  0
 15  1  1  0
 17 12  1  0
 18  9  1  0
 19 18  1  0
 20 19  1  0
 21 20  1  0
 22 21  1  0
 22 23  1  0
 23 19  1  0
  2 24  1  0
  3 25  1  0
  4 26  1  0
  6 27  1  0
  7 28  1  0
  8 29  1  0
 11 30  1  0
 13 31  1  0
 17 32  1  0
 17 33  1  0
 19 34  1  1
 20 35  1  0
 20 36  1  0
 21 37  1  0
 21 38  1  0
 23 39  1  0
 23 40  1  0
M  ISO  8  24  14  25  14  26  14  27  14  28  14  29  14  30  14  31  14
M  ISO  7  34  13  35  13  36  13  37  13  38  13  39  13  40  13
M  END
>  <minimizedAffinity>  (1) 
-5.67289019

>  <minimizedRMSD>  (1) 
0.0497113839

$$$$
