
     RDKit          3D

 41 44  0  0  1  0  0  0  0  0999 V2000
   46.0370   32.7090   46.6980 C   0  0  0  0  0  0  0  0  0  0  0  0
   45.5590   32.9520   47.9970 C   0  0  0  0  0  0  0  0  0  0  0  0
   45.7600   32.1000   49.0540 C   0  0  0  0  0  0  0  0  0  0  0  0
   46.4490   30.9580   48.8830 C   0  0  0  0  0  0  0  0  0  0  0  0
   46.9410   30.6650   47.6340 C   0  0  0  0  0  0  0  0  0  0  0  0
   47.6390   29.4910   47.4870 C   0  0  0  0  0  0  0  0  0  0  0  0
   48.1510   29.1430   46.2590 C   0  0  0  0  0  0  0  0  0  0  0  0
   47.9280   30.0210   45.2020 C   0  0  0  0  0  0  0  0  0  0  0  0
   47.2340   31.1570   45.4190 C   0  0  0  0  0  0  0  0  0  0  0  0
   46.7260   31.5310   46.5910 C   0  0  0  0  0  0  0  0  0  0  0  0
   44.4740   35.5070   45.0610 C   0  0  0  0  0  0  0  0  0  0  0  0
   45.2260   35.6320   43.8540 C   0  0  0  0  0  0  0  0  0  0  0  0
   46.2920   34.7230   43.5890 C   0  0  0  0  0  0  0  0  0  0  0  0
   46.5240   33.7880   44.5170 N   0  0  0  0  0  0  0  0  0  0  0  0
   45.8460   33.6620   45.6240 C   0  0  0  0  0  0  0  0  0  0  0  0
   44.8220   34.5290   45.8840 N   0  0  0  0  0  0  0  0  0  0  0  0
   44.8300   36.6920   42.9960 N   0  0  0  0  0  0  0  0  0  0  0  0
   47.1650   31.7970   44.2420 O   0  0  0  0  0  0  0  0  0  0  0  0
   48.6640   32.2540   42.3840 C   0  0  2  0  0  0  0  0  0  0  0  0
   47.6220   31.3350   43.0080 C   0  0  2  0  0  0  0  0  0  0  0  0
   46.5540   31.4510   41.9160 C   0  0  0  0  0  0  0  0  0  0  0  0
   47.3760   31.1310   40.8040 O   0  0  0  0  0  0  0  0  0  0  0  0
   48.3750   32.1000   40.9070 C   0  0  0  0  0  0  0  0  0  0  0  0
   49.9250   31.6500   42.5890 O   0  0  0  0  0  0  0  0  0  0  0  0
   44.9918   33.8772   48.1767 H   0  0  0  0  0  0  0  0  0  0  0  0
   45.3557   32.3524   50.0454 H   0  0  0  0  0  0  0  0  0  0  0  0
   46.6155   30.2718   49.7265 H   0  0  0  0  0  0  0  0  0  0  0  0
   47.7885   28.8286   48.3524 H   0  0  0  0  0  0  0  0  0  0  0  0
   48.7140   28.2086   46.1177 H   0  0  0  0  0  0  0  0  0  0  0  0
   48.3145   29.7903   44.1983 H   0  0  0  0  0  0  0  0  0  0  0  0
   43.6449   36.1904   45.2965 H   0  0  0  0  0  0  0  0  0  0  0  0
   46.8923   34.7872   42.6695 H   0  0  0  0  0  0  0  0  0  0  0  0
   45.3249   36.8464   42.1060 H   0  0  0  0  0  0  0  0  0  0  0  0
   44.0479   37.3064   43.2637 H   0  0  0  0  0  0  0  0  0  0  0  0
   48.6484   33.2848   42.7676 H   0  0  0  0  0  0  0  0  0  0  0  0
   47.9651   30.3177   43.2474 H   0  0  0  0  0  0  0  0  0  0  0  0
   45.7373   30.7270   42.0529 H   0  0  0  0  0  0  0  0  0  0  0  0
   46.0198   32.4111   41.8621 H   0  0  0  0  0  0  0  0  0  0  0  0
   49.2797   31.7729   40.3736 H   0  0  0  0  0  0  0  0  0  0  0  0
   48.0562   33.0531   40.4597 H   0  0  0  0  0  0  0  0  0  0  0  0
   50.0974   31.5674   43.5604 H   0  0  0  0  0  0  0  0  0  0  0  0
  1  2  2  0
  2  3  1  0
  4  3  2  0
  5  4  1  0
  6  5  2  0
  7  6  1  0
  8  9  1  0
  8  7  2  0
  9 10  2  0
 10  1  1  0
 10  5  1  0
 11 16  2  0
 12 11  1  0
 13 12  2  0
 13 14  1  0
 14 15  2  0
 15 16  1  0
 15  1  1  0
 17 12  1  0
 18  9  1  0
 19 24  1  0
 19 20  1  0
 20 18  1  0
 21 20  1  0
 22 23  1  0
 22 21  1  0
 23 19  1  0
  2 25  1  0
  3 26  1  0
  4 27  1  0
  6 28  1  0
  7 29  1  0
  8 30  1  0
 11 31  1  0
 13 32  1  0
 17 33  1  0
 17 34  1  0
 19 35  1  1
 20 36  1  1
 21 37  1  0
 21 38  1  0
 23 39  1  0
 23 40  1  0
 24 41  1  0
M  ISO  8  25  14  26  14  27  14  28  14  29  14  30  14  31  14  32  14
M  ISO  7  35  13  36  13  37  13  38  13  39  13  40  13  41   3
M  END
>  <minimizedAffinity>  (1) 
-5.66074228

>  <minimizedRMSD>  (1) 
0.055762589

$$$$
