
     RDKit          3D

 32 34  0  0  0  0  0  0  0  0999 V2000
   46.0100   32.6980   46.6990 C   0  0  0  0  0  0  0  0  0  0  0  0
   45.5060   32.9260   47.9970 C   0  0  0  0  0  0  0  0  0  0  0  0
   45.6900   32.0610   49.0420 C   0  0  0  0  0  0  0  0  0  0  0  0
   46.3800   30.9210   48.8780 C   0  0  0  0  0  0  0  0  0  0  0  0
   46.9040   30.6360   47.6170 C   0  0  0  0  0  0  0  0  0  0  0  0
   47.6000   29.4680   47.4840 C   0  0  0  0  0  0  0  0  0  0  0  0
   48.1370   29.1280   46.2750 C   0  0  0  0  0  0  0  0  0  0  0  0
   47.9310   30.0180   45.2390 C   0  0  0  0  0  0  0  0  0  0  0  0
   47.2360   31.1540   45.4370 C   0  0  0  0  0  0  0  0  0  0  0  0
   46.7000   31.5210   46.5990 C   0  0  0  0  0  0  0  0  0  0  0  0
   44.4890   35.5340   45.0940 C   0  0  0  0  0  0  0  0  0  0  0  0
   45.2040   35.6170   43.8590 C   0  0  0  0  0  0  0  0  0  0  0  0
   46.2310   34.6700   43.5650 C   0  0  0  0  0  0  0  0  0  0  0  0
   46.4610   33.7390   44.5010 N   0  0  0  0  0  0  0  0  0  0  0  0
   45.8240   33.6480   45.6280 C   0  0  0  0  0  0  0  0  0  0  0  0
   44.8400   34.5520   45.9120 N   0  0  0  0  0  0  0  0  0  0  0  0
   44.8250   36.6720   42.9830 N   0  0  0  0  0  0  0  0  0  0  0  0
   47.1960   31.8090   44.2610 O   0  0  0  0  0  0  0  0  0  0  0  0
   47.6590   31.3030   43.0270 C   0  0  0  0  0  0  0  0  0  0  0  0
   44.9346   33.8482   48.1790 H   0  0  0  0  0  0  0  0  0  0  0  0
   45.2673   32.3030   50.0283 H   0  0  0  0  0  0  0  0  0  0  0  0
   46.5287   30.2275   49.7188 H   0  0  0  0  0  0  0  0  0  0  0  0
   47.7279   28.8018   48.3499 H   0  0  0  0  0  0  0  0  0  0  0  0
   48.7031   28.1955   46.1340 H   0  0  0  0  0  0  0  0  0  0  0  0
   48.3390   29.7964   44.2418 H   0  0  0  0  0  0  0  0  0  0  0  0
   43.6911   36.2462   45.3514 H   0  0  0  0  0  0  0  0  0  0  0  0
   46.8006   34.7026   42.6245 H   0  0  0  0  0  0  0  0  0  0  0  0
   45.3022   36.7859   42.0773 H   0  0  0  0  0  0  0  0  0  0  0  0
   44.0734   37.3219   43.2545 H   0  0  0  0  0  0  0  0  0  0  0  0
   48.3912   30.5028   43.2103 H   0  0  0  0  0  0  0  0  0  0  0  0
   46.8107   30.8997   42.4546 H   0  0  0  0  0  0  0  0  0  0  0  0
   48.1359   32.1123   42.4546 H   0  0  0  0  0  0  0  0  0  0  0  0
  1  2  2  0
  2  3  1  0
  4  3  2  0
  5  4  1  0
  6  5  2  0
  7  6  1  0
  8  9  1  0
  8  7  2  0
  9 10  2  0
 10  1  1  0
 10  5  1  0
 11 16  2  0
 12 11  1  0
 13 12  2  0
 13 14  1  0
 14 15  2  0
 15 16  1  0
 15  1  1  0
 17 12  1  0
 18  9  1  0
 19 18  1  0
  2 20  1  0
  3 21  1  0
  4 22  1  0
  6 23  1  0
  7 24  1  0
  8 25  1  0
 11 26  1  0
 13 27  1  0
 17 28  1  0
 17 29  1  0
 19 30  1  0
 19 31  1  0
 19 32  1  0
M  ISO  8  20  14  21  14  22  14  23  14  24  14  25  14  26  14  27  14
M  ISO  3  30   8  31   8  32   8
M  END
>  <minimizedAffinity>  (1) 
-5.45484638

>  <minimizedRMSD>  (1) 
0.0634995252

$$$$
