
     RDKit          3D

 23 24  0  0  0  0  0  0  0  0999 V2000
   45.5670   33.8830   41.4690 C   0  0  0  0  0  0  0  0  0  0  0  0
   46.7080   34.5820   41.0100 C   0  0  0  0  0  0  0  0  0  0  0  0
   47.7080   34.8290   41.9780 C   0  0  0  0  0  0  0  0  0  0  0  0
   47.5200   34.3950   43.2460 N   0  0  0  0  0  0  0  0  0  0  0  0
   46.4020   33.7290   43.6210 C   0  0  0  0  0  0  0  0  0  0  0  0
   45.4290   33.4760   42.7250 N   0  0  0  0  0  0  0  0  0  0  0  0
   44.5800   35.4090   45.3620 Cl  0  0  0  0  0  0  0  0  0  0  0  0
   45.4140   33.9640   45.8740 C   0  0  0  0  0  0  0  0  0  0  0  0
   46.2240   33.2730   44.9940 C   0  0  0  0  0  0  0  0  0  0  0  0
   46.8580   32.1330   45.4600 C   0  0  0  0  0  0  0  0  0  0  0  0
   46.7080   31.6850   46.7390 C   0  0  0  0  0  0  0  0  0  0  0  0
   45.8790   32.4200   47.5850 C   0  0  0  0  0  0  0  0  0  0  0  0
   45.7020   31.8270   49.2170 Cl  0  0  0  0  0  0  0  0  0  0  0  0
   45.2170   33.5680   47.1760 C   0  0  0  0  0  0  0  0  0  0  0  0
   48.8710   35.5510   41.4790 C   0  0  0  0  0  0  0  0  0  0  0  0
   50.0300   34.8700   41.8550 F   0  0  0  0  0  0  0  0  0  0  0  0
   48.9390   36.7520   42.1820 F   0  0  0  0  0  0  0  0  0  0  0  0
   48.8910   35.7310   40.1300 F   0  0  0  0  0  0  0  0  0  0  0  0
   44.7592   33.6674   40.7542 H   0  0  0  0  0  0  0  0  0  0  0  0
   46.8105   34.9124   39.9658 H   0  0  0  0  0  0  0  0  0  0  0  0
   47.5060   31.5686   44.7733 H   0  0  0  0  0  0  0  0  0  0  0  0
   47.2217   30.7779   47.0900 H   0  0  0  0  0  0  0  0  0  0  0  0
   44.5666   34.1337   47.8593 H   0  0  0  0  0  0  0  0  0  0  0  0
  1  6  2  0
  2  1  1  0
  2  3  2  0
  3  4  1  0
  4  5  2  0
  5  9  1  0
  6  5  1  0
  7  8  1  0
  8 14  2  0
  9 10  2  0
  9  8  1  0
 10 11  1  0
 11 12  2  0
 12 13  1  0
 14 12  1  0
 15 16  1  0
 15  3  1  0
 15 17  1  0
 18 15  1  0
  1 19  1  0
  2 20  1  0
 10 21  1  0
 11 22  1  0
 14 23  1  0
M  ISO  5  19  14  20  14  21  14  22  14  23  14
M  END
>  <minimizedAffinity>  (1) 
-5.92763901

>  <minimizedRMSD>  (1) 
2.17992139

$$$$
