
     RDKit          3D

 31 33  0  0  0  0  0  0  0  0999 V2000
   45.9920   32.6860   46.6820 C   0  0  0  0  0  0  0  0  0  0  0  0
   45.4850   32.9130   47.9840 C   0  0  0  0  0  0  0  0  0  0  0  0
   45.7000   32.0640   49.0440 C   0  0  0  0  0  0  0  0  0  0  0  0
   46.4280   30.9390   48.8860 C   0  0  0  0  0  0  0  0  0  0  0  0
   46.9520   30.6630   47.6280 C   0  0  0  0  0  0  0  0  0  0  0  0
   47.6890   29.5200   47.4960 C   0  0  0  0  0  0  0  0  0  0  0  0
   48.2360   29.1870   46.2870 C   0  0  0  0  0  0  0  0  0  0  0  0
   47.9990   30.0560   45.2320 C   0  0  0  0  0  0  0  0  0  0  0  0
   47.2500   31.1700   45.4610 C   0  0  0  0  0  0  0  0  0  0  0  0
   46.7050   31.5380   46.6140 C   0  0  0  0  0  0  0  0  0  0  0  0
   44.4890   35.5550   45.1180 C   0  0  0  0  0  0  0  0  0  0  0  0
   45.2000   35.6260   43.8740 C   0  0  0  0  0  0  0  0  0  0  0  0
   46.2100   34.6660   43.5580 C   0  0  0  0  0  0  0  0  0  0  0  0
   46.4360   33.7240   44.4820 N   0  0  0  0  0  0  0  0  0  0  0  0
   45.7960   33.6440   45.6220 C   0  0  0  0  0  0  0  0  0  0  0  0
   44.8260   34.5620   45.9300 N   0  0  0  0  0  0  0  0  0  0  0  0
   44.8340   36.6980   43.0040 N   0  0  0  0  0  0  0  0  0  0  0  0
   47.1830   31.8140   44.2390 O   0  0  0  0  0  0  0  0  0  0  0  0
   47.9460   31.2420   43.1450 C   0  0  0  0  0  0  0  0  0  0  0  0
   48.3600   31.9290   42.1950 O   0  0  0  0  0  0  0  0  0  0  0  0
   44.8857   33.8190   48.1574 H   0  0  0  0  0  0  0  0  0  0  0  0
   45.2747   32.3041   50.0296 H   0  0  0  0  0  0  0  0  0  0  0  0
   46.6026   30.2572   49.7314 H   0  0  0  0  0  0  0  0  0  0  0  0
   47.8432   28.8645   48.3658 H   0  0  0  0  0  0  0  0  0  0  0  0
   48.8352   28.2736   46.1577 H   0  0  0  0  0  0  0  0  0  0  0  0
   48.4074   29.8496   44.2317 H   0  0  0  0  0  0  0  0  0  0  0  0
   43.7083   36.2831   45.3834 H   0  0  0  0  0  0  0  0  0  0  0  0
   46.7690   34.6990   42.6112 H   0  0  0  0  0  0  0  0  0  0  0  0
   45.3054   36.8071   42.0947 H   0  0  0  0  0  0  0  0  0  0  0  0
   44.0987   37.3619   43.2859 H   0  0  0  0  0  0  0  0  0  0  0  0
   48.1655   30.1642   43.1567 H   0  0  0  0  0  0  0  0  0  0  0  0
  1  2  2  0
  2  3  1  0
  4  3  2  0
  5  4  1  0
  6  5  2  0
  7  6  1  0
  8  9  1  0
  8  7  2  0
  9 10  2  0
 10  1  1  0
 10  5  1  0
 11 16  2  0
 12 11  1  0
 13 12  2  0
 13 14  1  0
 14 15  2  0
 15 16  1  0
 15  1  1  0
 17 12  1  0
 18  9  1  0
 19 18  1  0
 20 19  2  0
  2 21  1  0
  3 22  1  0
  4 23  1  0
  6 24  1  0
  7 25  1  0
  8 26  1  0
 11 27  1  0
 13 28  1  0
 17 29  1  0
 17 30  1  0
 19 31  1  0
M  ISO  8  21  14  22  14  23  14  24  14  25  14  26  14  27  14  28  14
M  ISO  1  31   6
M  END
>  <minimizedAffinity>  (1) 
-5.35743237

>  <minimizedRMSD>  (1) 
0.49426645

$$$$
