
     RDKit          3D

 26 27  0  0  0  0  0  0  0  0999 V2000
   44.8800   32.9740   41.3150 Cl  0  0  0  0  0  0  0  0  0  0  0  0
   46.3640   33.8780   41.0910 C   0  0  0  0  0  0  0  0  0  0  0  0
   46.8300   34.7060   42.0590 C   0  0  0  0  0  0  0  0  0  0  0  0
   48.0100   35.3750   41.7840 C   0  0  0  0  0  0  0  0  0  0  0  0
   48.6810   35.2290   40.6210 C   0  0  0  0  0  0  0  0  0  0  0  0
   48.2030   34.3910   39.6490 C   0  0  0  0  0  0  0  0  0  0  0  0
   47.0370   33.7210   39.9030 C   0  0  0  0  0  0  0  0  0  0  0  0
   44.4630   35.9610   44.7410 C   0  0  0  0  0  0  0  0  0  0  0  0
   45.1670   35.8650   43.5320 C   0  0  0  0  0  0  0  0  0  0  0  0
   46.0810   34.8390   43.2990 C   0  0  0  0  0  0  0  0  0  0  0  0
   46.2300   33.9560   44.3190 N   0  0  0  0  0  0  0  0  0  0  0  0
   45.5560   34.0510   45.4730 C   0  0  0  0  0  0  0  0  0  0  0  0
   44.6810   35.0400   45.6880 N   0  0  0  0  0  0  0  0  0  0  0  0
   46.5360   32.8670   38.9290 O   0  0  0  0  0  0  0  0  0  0  0  0
   46.4080   32.0990   36.4420 O   0  0  0  0  0  0  0  0  0  0  0  0
   46.2290   33.3330   37.3280 P   0  0  0  0  0  0  0  0  0  0  0  0
   44.6350   33.8390   37.2050 O   0  0  0  0  0  0  0  0  0  0  0  0
   47.3100   34.4940   36.7500 O   0  0  0  0  0  0  0  0  0  0  0  0
   48.4191   36.0551   42.5457 H   0  0  0  0  0  0  0  0  0  0  0  0
   49.6151   35.7854   40.4539 H   0  0  0  0  0  0  0  0  0  0  0  0
   48.7380   34.2609   38.6967 H   0  0  0  0  0  0  0  0  0  0  0  0
   43.7452   36.7776   44.9082 H   0  0  0  0  0  0  0  0  0  0  0  0
   44.9937   36.6176   42.7487 H   0  0  0  0  0  0  0  0  0  0  0  0
   45.7254   33.3008   46.2595 H   0  0  0  0  0  0  0  0  0  0  0  0
   44.2561   33.9593   38.1117 H   0  0  0  0  0  0  0  0  0  0  0  0
   47.7390   34.9548   37.5140 H   0  0  0  0  0  0  0  0  0  0  0  0
  2  1  1  0
  2  3  2  0
  3 10  1  0
  4  3  1  0
  5  4  2  0
  6  7  2  0
  6  5  1  0
  7  2  1  0
  8 13  2  0
  9  8  1  0
 10  9  2  0
 10 11  1  0
 11 12  2  0
 12 13  1  0
 14  7  1  0
 15 16  2  0
 16 14  1  0
 17 16  1  0
 18 16  1  0
  4 19  1  0
  5 20  1  0
  6 21  1  0
  8 22  1  0
  9 23  1  0
 12 24  1  0
 17 25  1  0
 18 26  1  0
M  ISO  8  19  14  20  14  21  14  22  14  23  14  24  14  25   3  26   3
M  END
>  <minimizedAffinity>  (1) 
-5.98503542

>  <minimizedRMSD>  (1) 
0.562173009

$$$$
