
     RDKit          3D

 34 36  0  0  0  0  0  0  0  0999 V2000
   44.7970   33.3220   41.1780 Cl  0  0  0  0  0  0  0  0  0  0  0  0
   46.3380   34.1190   41.0670 C   0  0  0  0  0  0  0  0  0  0  0  0
   46.8510   34.8020   42.1170 C   0  0  0  0  0  0  0  0  0  0  0  0
   48.0820   35.3990   41.9240 C   0  0  0  0  0  0  0  0  0  0  0  0
   48.7630   35.3140   40.7430 C   0  0  0  0  0  0  0  0  0  0  0  0
   48.2330   34.6190   39.6890 C   0  0  0  0  0  0  0  0  0  0  0  0
   46.9980   34.0150   39.8680 C   0  0  0  0  0  0  0  0  0  0  0  0
   44.4750   35.9100   44.8460 C   0  0  0  0  0  0  0  0  0  0  0  0
   45.1820   35.8710   43.6400 C   0  0  0  0  0  0  0  0  0  0  0  0
   46.1020   34.8720   43.3540 C   0  0  0  0  0  0  0  0  0  0  0  0
   46.2660   33.9350   44.3300 N   0  0  0  0  0  0  0  0  0  0  0  0
   45.5860   33.9730   45.4890 C   0  0  0  0  0  0  0  0  0  0  0  0
   44.6900   34.9580   45.7480 N   0  0  0  0  0  0  0  0  0  0  0  0
   46.4980   33.3070   38.7380 N   0  0  0  0  0  0  0  0  0  0  0  0
   47.1370   33.2450   37.4360 C   0  0  0  0  0  0  0  0  0  0  0  0
   46.2260   32.4300   36.5410 C   0  0  0  0  0  0  0  0  0  0  0  0
   44.9330   33.0460   36.5070 N   0  0  0  0  0  0  0  0  0  0  0  0
   44.3150   33.1270   37.7980 C   0  0  0  0  0  0  0  0  0  0  0  0
   45.2440   32.5700   38.8540 C   0  0  0  0  0  0  0  0  0  0  0  0
   48.5311   35.9647   42.7536 H   0  0  0  0  0  0  0  0  0  0  0  0
   49.7413   35.8059   40.6382 H   0  0  0  0  0  0  0  0  0  0  0  0
   48.7694   34.5424   38.7317 H   0  0  0  0  0  0  0  0  0  0  0  0
   43.7527   36.7155   45.0447 H   0  0  0  0  0  0  0  0  0  0  0  0
   45.0029   36.6585   42.8931 H   0  0  0  0  0  0  0  0  0  0  0  0
   45.7595   33.1901   46.2420 H   0  0  0  0  0  0  0  0  0  0  0  0
   47.2625   34.2583   37.0269 H   0  0  0  0  0  0  0  0  0  0  0  0
   48.1345   32.7868   37.5068 H   0  0  0  0  0  0  0  0  0  0  0  0
   46.6441   32.3937   35.5242 H   0  0  0  0  0  0  0  0  0  0  0  0
   46.1396   31.4057   36.9325 H   0  0  0  0  0  0  0  0  0  0  0  0
   45.0340   33.9997   36.1314 H   0  0  0  0  0  0  0  0  0  0  0  0
   44.0907   34.1789   38.0288 H   0  0  0  0  0  0  0  0  0  0  0  0
   43.3851   32.5395   37.7899 H   0  0  0  0  0  0  0  0  0  0  0  0
   45.4167   31.4977   38.6800 H   0  0  0  0  0  0  0  0  0  0  0  0
   44.8117   32.6791   39.8596 H   0  0  0  0  0  0  0  0  0  0  0  0
  2  1  1  0
  2  3  2  0
  3 10  1  0
  4  3  1  0
  5  4  2  0
  6  7  2  0
  6  5  1  0
  7  2  1  0
  8 13  2  0
  9  8  1  0
 10  9  2  0
 10 11  1  0
 11 12  2  0
 12 13  1  0
 14 19  1  0
 14  7  1  0
 15 14  1  0
 16 15  1  0
 17 16  1  0
 17 18  1  0
 18 19  1  0
  4 20  1  0
  5 21  1  0
  6 22  1  0
  8 23  1  0
  9 24  1  0
 12 25  1  0
 15 26  1  0
 15 27  1  0
 16 28  1  0
 16 29  1  0
 17 30  1  0
 18 31  1  0
 18 32  1  0
 19 33  1  0
 19 34  1  0
M  ISO  8  20  14  21  14  22  14  23  14  24  14  25  14  26  13  27  13
M  ISO  7  28  13  29  13  30   5  31  13  32  13  33  13  34  13
M  END
>  <minimizedAffinity>  (1) 
-5.95576334

>  <minimizedRMSD>  (1) 
0.252187967

$$$$
