
     RDKit          3D

 23 24  0  0  0  0  0  0  0  0999 V2000
   44.7400   33.1810   41.2360 Cl  0  0  0  0  0  0  0  0  0  0  0  0
   46.2770   34.0090   41.0580 C   0  0  0  0  0  0  0  0  0  0  0  0
   46.8170   34.7570   42.0710 C   0  0  0  0  0  0  0  0  0  0  0  0
   48.0190   35.3530   41.8110 C   0  0  0  0  0  0  0  0  0  0  0  0
   48.6690   35.2280   40.6250 C   0  0  0  0  0  0  0  0  0  0  0  0
   48.1340   34.4830   39.6120 C   0  0  0  0  0  0  0  0  0  0  0  0
   46.9290   33.8730   39.8420 C   0  0  0  0  0  0  0  0  0  0  0  0
   44.4700   35.9510   44.7930 C   0  0  0  0  0  0  0  0  0  0  0  0
   45.1680   35.8830   43.5770 C   0  0  0  0  0  0  0  0  0  0  0  0
   46.0760   34.8550   43.3220 C   0  0  0  0  0  0  0  0  0  0  0  0
   46.2400   33.9460   44.3060 N   0  0  0  0  0  0  0  0  0  0  0  0
   45.5740   34.0090   45.4700 C   0  0  0  0  0  0  0  0  0  0  0  0
   44.7010   34.9950   45.7140 N   0  0  0  0  0  0  0  0  0  0  0  0
   46.3290   33.0530   38.7480 C   0  0  0  0  0  0  0  0  0  0  0  0
   45.0460   33.4370   38.4900 F   0  0  0  0  0  0  0  0  0  0  0  0
   46.2970   31.7040   39.1140 F   0  0  0  0  0  0  0  0  0  0  0  0
   47.1160   33.2060   37.6260 F   0  0  0  0  0  0  0  0  0  0  0  0
   48.4824   35.9633   42.6002 H   0  0  0  0  0  0  0  0  0  0  0  0
   49.6359   35.7316   40.4784 H   0  0  0  0  0  0  0  0  0  0  0  0
   48.6518   34.3770   38.6473 H   0  0  0  0  0  0  0  0  0  0  0  0
   43.7539   36.7627   44.9887 H   0  0  0  0  0  0  0  0  0  0  0  0
   44.9960   36.6540   42.8115 H   0  0  0  0  0  0  0  0  0  0  0  0
   45.7481   33.2385   46.2355 H   0  0  0  0  0  0  0  0  0  0  0  0
  2  1  1  0
  2  3  2  0
  3 10  1  0
  4  3  1  0
  5  4  2  0
  6  7  2  0
  6  5  1  0
  7  2  1  0
  8 13  2  0
  9  8  1  0
 10  9  2  0
 10 11  1  0
 11 12  2  0
 12 13  1  0
 14 16  1  0
 14  7  1  0
 15 14  1  0
 17 14  1  0
  4 18  1  0
  5 19  1  0
  6 20  1  0
  8 21  1  0
  9 22  1  0
 12 23  1  0
M  ISO  6  18  14  19  14  20  14  21  14  22  14  23  14
M  END
>  <minimizedAffinity>  (1) 
-5.35890484

>  <minimizedRMSD>  (1) 
0.0753907338

$$$$
