
     RDKit          3D

 32 34  0  0  0  0  0  0  0  0999 V2000
   44.8380   32.9670   41.2360 Cl  0  0  0  0  0  0  0  0  0  0  0  0
   46.3190   33.8630   40.9960 C   0  0  0  0  0  0  0  0  0  0  0  0
   46.8170   34.6790   41.9710 C   0  0  0  0  0  0  0  0  0  0  0  0
   47.9920   35.3320   41.6740 C   0  0  0  0  0  0  0  0  0  0  0  0
   48.6390   35.1940   40.4910 C   0  0  0  0  0  0  0  0  0  0  0  0
   48.1210   34.3650   39.5170 C   0  0  0  0  0  0  0  0  0  0  0  0
   46.9540   33.7070   39.7910 C   0  0  0  0  0  0  0  0  0  0  0  0
   44.4910   35.9210   44.6900 C   0  0  0  0  0  0  0  0  0  0  0  0
   45.1730   35.8310   43.4670 C   0  0  0  0  0  0  0  0  0  0  0  0
   46.0940   34.8010   43.2240 C   0  0  0  0  0  0  0  0  0  0  0  0
   46.2700   33.9290   44.2340 N   0  0  0  0  0  0  0  0  0  0  0  0
   45.6120   34.0250   45.4030 C   0  0  0  0  0  0  0  0  0  0  0  0
   44.7340   35.0020   45.6360 N   0  0  0  0  0  0  0  0  0  0  0  0
   46.4550   32.8620   38.7550 N   0  0  0  0  0  0  0  0  0  0  0  0
   46.8410   31.4890   38.5080 C   0  0  0  0  0  0  0  0  0  0  0  0
   46.9260   31.4820   36.9960 C   0  0  0  0  0  0  0  0  0  0  0  0
   46.0110   32.5880   36.5110 C   0  0  0  0  0  0  0  0  0  0  0  0
   45.4660   33.2430   37.7640 C   0  0  0  0  0  0  0  0  0  0  0  0
   48.4269   35.9981   42.4337 H   0  0  0  0  0  0  0  0  0  0  0  0
   49.5751   35.7417   40.3077 H   0  0  0  0  0  0  0  0  0  0  0  0
   48.6308   34.2375   38.5506 H   0  0  0  0  0  0  0  0  0  0  0  0
   43.7694   36.7315   44.8697 H   0  0  0  0  0  0  0  0  0  0  0  0
   44.9822   36.5810   42.6853 H   0  0  0  0  0  0  0  0  0  0  0  0
   45.8028   33.2782   46.1878 H   0  0  0  0  0  0  0  0  0  0  0  0
   47.8116   31.2529   38.9685 H   0  0  0  0  0  0  0  0  0  0  0  0
   46.1520   30.7411   38.9275 H   0  0  0  0  0  0  0  0  0  0  0  0
   47.9596   31.6739   36.6722 H   0  0  0  0  0  0  0  0  0  0  0  0
   46.6261   30.5070   36.5842 H   0  0  0  0  0  0  0  0  0  0  0  0
   46.5745   33.3171   35.9103 H   0  0  0  0  0  0  0  0  0  0  0  0
   45.2053   32.1991   35.8710 H   0  0  0  0  0  0  0  0  0  0  0  0
   45.4115   34.3360   37.6528 H   0  0  0  0  0  0  0  0  0  0  0  0
   44.4411   32.9342   38.0172 H   0  0  0  0  0  0  0  0  0  0  0  0
  2  1  1  0
  2  3  2  0
  3 10  1  0
  4  3  1  0
  5  4  2  0
  6  7  2  0
  6  5  1  0
  7  2  1  0
  8 13  2  0
  9  8  1  0
 10  9  2  0
 10 11  1  0
 11 12  2  0
 12 13  1  0
 14  7  1  0
 15 14  1  0
 16 15  1  0
 17 16  1  0
 17 18  1  0
 18 14  1  0
  4 19  1  0
  5 20  1  0
  6 21  1  0
  8 22  1  0
  9 23  1  0
 12 24  1  0
 15 25  1  0
 15 26  1  0
 16 27  1  0
 16 28  1  0
 17 29  1  0
 17 30  1  0
 18 31  1  0
 18 32  1  0
M  ISO  8  19  14  20  14  21  14  22  14  23  14  24  14  25  13  26  13
M  ISO  6  27  13  28  13  29  13  30  13  31  13  32  13
M  END
>  <minimizedAffinity>  (1) 
-5.34398603

>  <minimizedRMSD>  (1) 
0.356068462

$$$$
