
     RDKit          3D

 28 29  0  0  0  0  0  0  0  0999 V2000
   44.5520   35.7560   44.7690 C   0  0  0  0  0  0  0  0  0  0  0  0
   45.2100   35.7370   43.5190 C   0  0  0  0  0  0  0  0  0  0  0  0
   46.1390   34.7080   43.3330 C   0  0  0  0  0  0  0  0  0  0  0  0
   46.3490   33.8140   44.3380 N   0  0  0  0  0  0  0  0  0  0  0  0
   45.6890   33.8850   45.5120 C   0  0  0  0  0  0  0  0  0  0  0  0
   44.7890   34.8600   45.7260 N   0  0  0  0  0  0  0  0  0  0  0  0
   45.9520   32.9190   46.5250 N   0  0  0  0  0  0  0  0  0  0  0  0
   45.2920   32.9340   47.7890 C   0  0  0  0  0  0  0  0  0  0  0  0
   44.8460   31.5700   48.2540 C   0  0  0  0  0  0  0  0  0  0  0  0
   45.7760   30.4570   47.8700 C   0  0  0  0  0  0  0  0  0  0  0  0
   46.1620   30.5620   46.4100 C   0  0  0  0  0  0  0  0  0  0  0  0
   46.9260   31.8710   46.2840 C   0  0  0  0  0  0  0  0  0  0  0  0
   46.8120   34.7030   42.0320 C   0  0  0  0  0  0  0  0  0  0  0  0
   47.5980   33.5680   41.9230 F   0  0  0  0  0  0  0  0  0  0  0  0
   47.6840   35.7810   42.0250 F   0  0  0  0  0  0  0  0  0  0  0  0
   45.9470   34.7170   40.9680 F   0  0  0  0  0  0  0  0  0  0  0  0
   43.8109   36.5459   44.9607 H   0  0  0  0  0  0  0  0  0  0  0  0
   45.0043   36.4856   42.7397 H   0  0  0  0  0  0  0  0  0  0  0  0
   45.9838   33.3475   48.5376 H   0  0  0  0  0  0  0  0  0  0  0  0
   44.3861   33.5471   47.6725 H   0  0  0  0  0  0  0  0  0  0  0  0
   44.7641   31.5887   49.3508 H   0  0  0  0  0  0  0  0  0  0  0  0
   43.8851   31.3650   47.7594 H   0  0  0  0  0  0  0  0  0  0  0  0
   46.6837   30.5153   48.4886 H   0  0  0  0  0  0  0  0  0  0  0  0
   45.2645   29.4968   48.0324 H   0  0  0  0  0  0  0  0  0  0  0  0
   46.8006   29.7148   46.1195 H   0  0  0  0  0  0  0  0  0  0  0  0
   45.2804   30.5395   45.7525 H   0  0  0  0  0  0  0  0  0  0  0  0
   47.7324   31.9178   47.0307 H   0  0  0  0  0  0  0  0  0  0  0  0
   47.3958   31.9732   45.2946 H   0  0  0  0  0  0  0  0  0  0  0  0
  1  6  2  0
  2  1  1  0
  3  2  2  0
  3  4  1  0
  4  5  2  0
  5  6  1  0
  5  7  1  0
  7  8  1  0
  8  9  1  0
 10  9  1  0
 11 10  1  0
 12 11  1  0
 12  7  1  0
 13  3  1  0
 14 13  1  0
 15 13  1  0
 16 13  1  0
  1 17  1  0
  2 18  1  0
  8 19  1  0
  8 20  1  0
  9 21  1  0
  9 22  1  0
 10 23  1  0
 10 24  1  0
 11 25  1  0
 11 26  1  0
 12 27  1  0
 12 28  1  0
M  ISO  8  17  14  18  14  19  13  20  13  21  13  22  13  23  13  24  13
M  ISO  4  25  13  26  13  27  13  28  13
M  END
>  <minimizedAffinity>  (1) 
-5.59309626

>  <minimizedRMSD>  (1) 
0.391807914

$$$$
