
     RDKit          3D

 27 29  0  0  0  0  0  0  0  0999 V2000
   44.7990   33.2560   41.2060 Cl  0  0  0  0  0  0  0  0  0  0  0  0
   46.3310   34.0760   41.0730 C   0  0  0  0  0  0  0  0  0  0  0  0
   46.8350   34.7900   42.1050 C   0  0  0  0  0  0  0  0  0  0  0  0
   48.0610   35.4010   41.8860 C   0  0  0  0  0  0  0  0  0  0  0  0
   48.7330   35.3030   40.7100 C   0  0  0  0  0  0  0  0  0  0  0  0
   48.2040   34.5730   39.6700 C   0  0  0  0  0  0  0  0  0  0  0  0
   46.9960   33.9630   39.8690 C   0  0  0  0  0  0  0  0  0  0  0  0
   44.4670   35.9300   44.8250 C   0  0  0  0  0  0  0  0  0  0  0  0
   45.1750   35.8770   43.6160 C   0  0  0  0  0  0  0  0  0  0  0  0
   46.0870   34.8720   43.3490 C   0  0  0  0  0  0  0  0  0  0  0  0
   46.2590   33.9340   44.3280 N   0  0  0  0  0  0  0  0  0  0  0  0
   45.5740   33.9970   45.4840 C   0  0  0  0  0  0  0  0  0  0  0  0
   44.6920   34.9760   45.7340 N   0  0  0  0  0  0  0  0  0  0  0  0
   46.4140   33.1710   38.7520 C   0  0  0  0  0  0  0  0  0  0  0  0
   47.0040   31.7740   38.5240 C   0  0  0  0  0  0  0  0  0  0  0  0
   47.2300   32.8420   37.5480 C   0  0  0  0  0  0  0  0  0  0  0  0
   48.5082   35.9903   42.7001 H   0  0  0  0  0  0  0  0  0  0  0  0
   49.7025   35.8083   40.5883 H   0  0  0  0  0  0  0  0  0  0  0  0
   48.7349   34.4831   38.7108 H   0  0  0  0  0  0  0  0  0  0  0  0
   43.7447   36.7362   45.0206 H   0  0  0  0  0  0  0  0  0  0  0  0
   45.0004   36.6559   42.8592 H   0  0  0  0  0  0  0  0  0  0  0  0
   45.7422   33.2226   46.2469 H   0  0  0  0  0  0  0  0  0  0  0  0
   45.4219   33.6204   38.9060 H   0  0  0  0  0  0  0  0  0  0  0  0
   47.8334   31.4169   39.1521 H   0  0  0  0  0  0  0  0  0  0  0  0
   46.5975   30.7527   38.4828 H   0  0  0  0  0  0  0  0  0  0  0  0
   48.2357   33.2741   37.4391 H   0  0  0  0  0  0  0  0  0  0  0  0
   47.0624   32.9333   36.4647 H   0  0  0  0  0  0  0  0  0  0  0  0
  2  1  1  0
  2  3  2  0
  3 10  1  0
  4  3  1  0
  5  4  2  0
  6  7  2  0
  6  5  1  0
  7  2  1  0
  8 13  2  0
  9  8  1  0
 10  9  2  0
 10 11  1  0
 11 12  2  0
 12 13  1  0
 14  7  1  0
 15 14  1  0
 16 15  1  0
 16 14  1  0
  4 17  1  0
  5 18  1  0
  6 19  1  0
  8 20  1  0
  9 21  1  0
 12 22  1  0
 14 23  1  0
 15 24  1  0
 15 25  1  0
 16 26  1  0
 16 27  1  0
M  ISO  8  17  14  18  14  19  14  20  14  21  14  22  14  23  13  24  13
M  ISO  3  25  13  26  13  27  13
M  END
>  <minimizedAffinity>  (1) 
-5.23707342

>  <minimizedRMSD>  (1) 
0.103518389

$$$$
