
     RDKit          3D

 29 31  0  0  0  0  0  0  0  0999 V2000
   45.3060   32.7900   41.3540 Cl  0  0  0  0  0  0  0  0  0  0  0  0
   46.6670   33.8710   41.1560 C   0  0  0  0  0  0  0  0  0  0  0  0
   47.0000   34.7920   42.0980 C   0  0  0  0  0  0  0  0  0  0  0  0
   48.0880   35.5760   41.8170 C   0  0  0  0  0  0  0  0  0  0  0  0
   48.8120   35.4690   40.6850 C   0  0  0  0  0  0  0  0  0  0  0  0
   48.4790   34.5460   39.7420 C   0  0  0  0  0  0  0  0  0  0  0  0
   47.3860   33.7330   39.9840 C   0  0  0  0  0  0  0  0  0  0  0  0
   44.4590   35.8900   44.6780 C   0  0  0  0  0  0  0  0  0  0  0  0
   45.2210   35.8430   43.5000 C   0  0  0  0  0  0  0  0  0  0  0  0
   46.1970   34.8710   43.2950 C   0  0  0  0  0  0  0  0  0  0  0  0
   46.3510   33.9740   44.3230 N   0  0  0  0  0  0  0  0  0  0  0  0
   45.6110   34.0380   45.4400 C   0  0  0  0  0  0  0  0  0  0  0  0
   44.6810   34.9700   45.6260 N   0  0  0  0  0  0  0  0  0  0  0  0
   47.0070   32.7200   38.9640 C   0  0  0  0  0  0  0  0  0  0  0  0
   47.3110   31.3500   39.1120 C   0  0  0  0  0  0  0  0  0  0  0  0
   46.6270   30.6000   37.6060 S   0  0  0  0  0  0  0  0  0  0  0  0
   46.0280   32.2920   37.0050 C   0  0  0  0  0  0  0  0  0  0  0  0
   46.3800   32.9250   37.8570 N   0  0  0  0  0  0  0  0  0  0  0  0
   45.2810   32.6100   35.7080 C   0  0  0  0  0  0  0  0  0  0  0  0
   48.3870   36.3343   42.5556 H   0  0  0  0  0  0  0  0  0  0  0  0
   49.6757   36.1306   40.5228 H   0  0  0  0  0  0  0  0  0  0  0  0
   49.0620   34.4491   38.8142 H   0  0  0  0  0  0  0  0  0  0  0  0
   43.6940   36.6676   44.8199 H   0  0  0  0  0  0  0  0  0  0  0  0
   45.0422   36.5948   42.7171 H   0  0  0  0  0  0  0  0  0  0  0  0
   45.7797   33.2923   46.2309 H   0  0  0  0  0  0  0  0  0  0  0  0
   47.8368   30.8546   39.9415 H   0  0  0  0  0  0  0  0  0  0  0  0
   44.2932   33.0305   35.9475 H   0  0  0  0  0  0  0  0  0  0  0  0
   45.8582   33.3404   35.1221 H   0  0  0  0  0  0  0  0  0  0  0  0
   45.1546   31.6877   35.1221 H   0  0  0  0  0  0  0  0  0  0  0  0
  2  1  1  0
  2  3  2  0
  3 10  1  0
  4  3  1  0
  5  4  2  0
  6  7  2  0
  6  5  1  0
  7  2  1  0
  8 13  2  0
  9  8  1  0
 10  9  2  0
 10 11  1  0
 11 12  2  0
 12 13  1  0
 14 15  2  0
 14  7  1  0
 16 15  1  0
 17 16  1  0
 17 18  2  0
 18 14  1  0
 19 17  1  0
  4 20  1  0
  5 21  1  0
  6 22  1  0
  8 23  1  0
  9 24  1  0
 12 25  1  0
 15 26  1  0
 19 27  1  0
 19 28  1  0
 19 29  1  0
M  ISO  8  20  14  21  14  22  14  23  14  24  14  25  14  26  14  27   8
M  ISO  2  28   8  29   8
M  END
>  <minimizedAffinity>  (1) 
-5.25310946

>  <minimizedRMSD>  (1) 
0.525894225

$$$$
