
     RDKit          3D

 28 30  0  0  0  0  0  0  0  0999 V2000
   44.9990   33.0800   41.0820 Cl  0  0  0  0  0  0  0  0  0  0  0  0
   46.4870   33.9880   40.9330 C   0  0  0  0  0  0  0  0  0  0  0  0
   46.9430   34.7950   41.9280 C   0  0  0  0  0  0  0  0  0  0  0  0
   48.1210   35.4520   41.6900 C   0  0  0  0  0  0  0  0  0  0  0  0
   48.8130   35.3260   40.5410 C   0  0  0  0  0  0  0  0  0  0  0  0
   48.3600   34.5160   39.5370 C   0  0  0  0  0  0  0  0  0  0  0  0
   47.1720   33.8390   39.7510 C   0  0  0  0  0  0  0  0  0  0  0  0
   44.4750   35.9790   44.5540 C   0  0  0  0  0  0  0  0  0  0  0  0
   45.2200   35.9050   43.3690 C   0  0  0  0  0  0  0  0  0  0  0  0
   46.1590   34.8960   43.1440 C   0  0  0  0  0  0  0  0  0  0  0  0
   46.2890   34.0020   44.1610 N   0  0  0  0  0  0  0  0  0  0  0  0
   45.5710   34.0830   45.2910 C   0  0  0  0  0  0  0  0  0  0  0  0
   44.6790   35.0550   45.4850 N   0  0  0  0  0  0  0  0  0  0  0  0
   46.6590   32.9520   38.6720 C   0  0  0  0  0  0  0  0  0  0  0  0
   46.6970   31.5450   38.7590 C   0  0  0  0  0  0  0  0  0  0  0  0
   45.9550   30.9980   37.1960 S   0  0  0  0  0  0  0  0  0  0  0  0
   45.7000   32.8090   36.6490 C   0  0  0  0  0  0  0  0  0  0  0  0
   46.1250   33.3340   37.5430 N   0  0  0  0  0  0  0  0  0  0  0  0
   45.1160   33.2400   35.4150 N   0  0  0  0  0  0  0  0  0  0  0  0
   48.5205   36.1131   42.4732 H   0  0  0  0  0  0  0  0  0  0  0  0
   49.7534   35.8812   40.4091 H   0  0  0  0  0  0  0  0  0  0  0  0
   48.9182   34.4066   38.5955 H   0  0  0  0  0  0  0  0  0  0  0  0
   43.7398   36.7825   44.7086 H   0  0  0  0  0  0  0  0  0  0  0  0
   45.0599   36.6662   42.5912 H   0  0  0  0  0  0  0  0  0  0  0  0
   45.7218   33.3287   46.0774 H   0  0  0  0  0  0  0  0  0  0  0  0
   47.0850   30.9251   39.5807 H   0  0  0  0  0  0  0  0  0  0  0  0
   45.0226   34.2457   35.2130 H   0  0  0  0  0  0  0  0  0  0  0  0
   44.7892   32.5444   34.7292 H   0  0  0  0  0  0  0  0  0  0  0  0
  2  1  1  0
  2  3  2  0
  3 10  1  0
  4  3  1  0
  5  4  2  0
  6  7  2  0
  6  5  1  0
  7  2  1  0
  8 13  2  0
  9  8  1  0
 10  9  2  0
 10 11  1  0
 11 12  2  0
 12 13  1  0
 14 15  2  0
 14  7  1  0
 16 15  1  0
 17 16  1  0
 17 18  2  0
 18 14  1  0
 19 17  1  0
  4 20  1  0
  5 21  1  0
  6 22  1  0
  8 23  1  0
  9 24  1  0
 12 25  1  0
 15 26  1  0
 19 27  1  0
 19 28  1  0
M  ISO  7  20  14  21  14  22  14  23  14  24  14  25  14  26  14
M  END
>  <minimizedAffinity>  (1) 
-6.05749416

>  <minimizedRMSD>  (1) 
0.260518283

$$$$
