
     RDKit          3D

 42 46  0  0  0  0  0  0  0  0999 V2000
   47.1850   33.1470   38.7610 C   0  0  0  0  0  0  0  0  0  0  0  0
   47.7410   31.8530   38.6120 C   0  0  0  0  0  0  0  0  0  0  0  0
   46.9480   31.2290   37.1010 S   0  0  0  0  0  0  0  0  0  0  0  0
   45.9730   32.8490   36.9100 C   0  0  0  0  0  0  0  0  0  0  0  0
   46.3420   33.4120   37.8020 N   0  0  0  0  0  0  0  0  0  0  0  0
   45.0470   33.1560   35.8490 N   0  0  0  0  0  0  0  0  0  0  0  0
   48.7290   31.2120   39.5080 C   0  0  0  0  0  0  0  0  0  0  0  0
   48.1810   30.6390   40.5880 N   0  0  0  0  0  0  0  0  0  0  0  0
   48.9560   30.0070   41.5090 C   0  0  0  0  0  0  0  0  0  0  0  0
   50.3040   29.9390   41.3620 N   0  0  0  0  0  0  0  0  0  0  0  0
   50.8630   30.5110   40.2790 C   0  0  0  0  0  0  0  0  0  0  0  0
   52.2280   30.4960   40.0360 C   0  0  0  0  0  0  0  0  0  0  0  0
   52.7550   31.0920   38.9220 C   0  0  0  0  0  0  0  0  0  0  0  0
   51.9390   31.7360   37.9870 C   0  0  0  0  0  0  0  0  0  0  0  0
   50.5700   31.7700   38.2000 C   0  0  0  0  0  0  0  0  0  0  0  0
   50.0960   31.1580   39.3320 C   0  0  0  0  0  0  0  0  0  0  0  0
   45.4670   32.9840   41.1130 Cl  0  0  0  0  0  0  0  0  0  0  0  0
   46.8320   34.0750   41.0470 C   0  0  0  0  0  0  0  0  0  0  0  0
   47.1640   34.9000   42.0860 C   0  0  0  0  0  0  0  0  0  0  0  0
   48.2510   35.7000   41.9040 C   0  0  0  0  0  0  0  0  0  0  0  0
   48.9810   35.7020   40.7740 C   0  0  0  0  0  0  0  0  0  0  0  0
   48.6600   34.8780   39.7200 C   0  0  0  0  0  0  0  0  0  0  0  0
   47.5510   34.0500   39.8840 C   0  0  0  0  0  0  0  0  0  0  0  0
   44.5240   35.6700   44.6850 C   0  0  0  0  0  0  0  0  0  0  0  0
   45.3070   35.7370   43.5260 C   0  0  0  0  0  0  0  0  0  0  0  0
   46.3440   34.8530   43.2720 C   0  0  0  0  0  0  0  0  0  0  0  0
   46.5340   33.9140   44.2440 N   0  0  0  0  0  0  0  0  0  0  0  0
   45.7850   33.8500   45.3530 C   0  0  0  0  0  0  0  0  0  0  0  0
   44.7890   34.7180   45.5750 N   0  0  0  0  0  0  0  0  0  0  0  0
   44.5653   34.0663   35.8332 H   0  0  0  0  0  0  0  0  0  0  0  0
   44.8669   32.4651   35.1066 H   0  0  0  0  0  0  0  0  0  0  0  0
   48.4833   29.5433   42.3874 H   0  0  0  0  0  0  0  0  0  0  0  0
   52.8989   29.9967   40.7506 H   0  0  0  0  0  0  0  0  0  0  0  0
   53.8425   31.0637   38.7592 H   0  0  0  0  0  0  0  0  0  0  0  0
   52.3771   32.2087   37.0956 H   0  0  0  0  0  0  0  0  0  0  0  0
   49.8919   32.2671   37.4907 H   0  0  0  0  0  0  0  0  0  0  0  0
   48.5461   36.3766   42.7196 H   0  0  0  0  0  0  0  0  0  0  0  0
   49.8485   36.3733   40.6914 H   0  0  0  0  0  0  0  0  0  0  0  0
   49.2506   34.8730   38.7920 H   0  0  0  0  0  0  0  0  0  0  0  0
   43.7085   36.3883   44.8554 H   0  0  0  0  0  0  0  0  0  0  0  0
   45.0904   36.5228   42.7874 H   0  0  0  0  0  0  0  0  0  0  0  0
   45.9924   33.0674   46.0977 H   0  0  0  0  0  0  0  0  0  0  0  0
  1 23  1  0
  2  1  2  0
  2  7  1  0
  3  2  1  0
  4  3  1  0
  4  5  2  0
  5  1  1  0
  6  4  1  0
  7  8  2  0
  8  9  1  0
 10  9  2  0
 11 10  1  0
 12 11  2  0
 13 12  1  0
 14 15  1  0
 14 13  2  0
 15 16  2  0
 16  7  1  0
 16 11  1  0
 18 17  1  0
 18 19  2  0
 19 26  1  0
 20 19  1  0
 21 20  2  0
 22 23  2  0
 22 21  1  0
 23 18  1  0
 24 29  2  0
 25 24  1  0
 26 25  2  0
 26 27  1  0
 27 28  2  0
 28 29  1  0
  6 30  1  0
  6 31  1  0
  9 32  1  0
 12 33  1  0
 13 34  1  0
 14 35  1  0
 15 36  1  0
 20 37  1  0
 21 38  1  0
 22 39  1  0
 24 40  1  0
 25 41  1  0
 28 42  1  0
M  ISO  8  32  14  33  14  34  14  35  14  36  14  37  14  38  14  39  14
M  ISO  3  40  14  41  14  42  14
M  END
>  <minimizedAffinity>  (1) 
-6.60482216

>  <minimizedRMSD>  (1) 
1.51401532

$$$$
