
     RDKit          3D

 41 45  0  0  0  0  0  0  0  0999 V2000
   47.3160   33.2510   38.7530 C   0  0  0  0  0  0  0  0  0  0  0  0
   47.9730   32.0460   38.5150 C   0  0  0  0  0  0  0  0  0  0  0  0
   47.1800   31.4010   37.0160 S   0  0  0  0  0  0  0  0  0  0  0  0
   46.0280   32.9320   36.9380 C   0  0  0  0  0  0  0  0  0  0  0  0
   46.3990   33.4750   37.8430 N   0  0  0  0  0  0  0  0  0  0  0  0
   45.0290   33.1800   35.9520 N   0  0  0  0  0  0  0  0  0  0  0  0
   48.8760   30.4440   40.2370 C   0  0  0  0  0  0  0  0  0  0  0  0
   49.0470   31.4020   39.2600 C   0  0  0  0  0  0  0  0  0  0  0  0
   50.3180   31.8440   38.9010 C   0  0  0  0  0  0  0  0  0  0  0  0
   51.3970   31.2920   39.5550 C   0  0  0  0  0  0  0  0  0  0  0  0
   52.7440   31.4950   39.4490 N   0  0  0  0  0  0  0  0  0  0  0  0
   53.4390   30.7290   40.2950 C   0  0  0  0  0  0  0  0  0  0  0  0
   52.5300   30.0060   40.9720 N   0  0  0  0  0  0  0  0  0  0  0  0
   51.3000   30.3170   40.5550 C   0  0  0  0  0  0  0  0  0  0  0  0
   49.9900   29.9280   40.8560 C   0  0  0  0  0  0  0  0  0  0  0  0
   45.5940   32.9560   41.1080 Cl  0  0  0  0  0  0  0  0  0  0  0  0
   46.9110   34.1040   41.0690 C   0  0  0  0  0  0  0  0  0  0  0  0
   47.2140   34.9200   42.1160 C   0  0  0  0  0  0  0  0  0  0  0  0
   48.2700   35.7730   41.9570 C   0  0  0  0  0  0  0  0  0  0  0  0
   49.0010   35.8310   40.8290 C   0  0  0  0  0  0  0  0  0  0  0  0
   48.7120   35.0190   39.7640 C   0  0  0  0  0  0  0  0  0  0  0  0
   47.6420   34.1380   39.8940 C   0  0  0  0  0  0  0  0  0  0  0  0
   44.5400   35.5410   44.7280 C   0  0  0  0  0  0  0  0  0  0  0  0
   45.3130   35.6650   43.5780 C   0  0  0  0  0  0  0  0  0  0  0  0
   46.3930   34.8150   43.3060 C   0  0  0  0  0  0  0  0  0  0  0  0
   46.6160   33.8660   44.2600 N   0  0  0  0  0  0  0  0  0  0  0  0
   45.8610   33.7590   45.3680 C   0  0  0  0  0  0  0  0  0  0  0  0
   44.8430   34.5740   45.6040 N   0  0  0  0  0  0  0  0  0  0  0  0
   44.4601   34.0373   35.9996 H   0  0  0  0  0  0  0  0  0  0  0  0
   44.8760   32.5019   35.1919 H   0  0  0  0  0  0  0  0  0  0  0  0
   47.8690   30.0997   40.5154 H   0  0  0  0  0  0  0  0  0  0  0  0
   50.4554   32.6080   38.1216 H   0  0  0  0  0  0  0  0  0  0  0  0
   53.1743   32.1618   38.7924 H   0  0  0  0  0  0  0  0  0  0  0  0
   54.5321   30.6966   40.4134 H   0  0  0  0  0  0  0  0  0  0  0  0
   49.8427   29.1642   41.6338 H   0  0  0  0  0  0  0  0  0  0  0  0
   48.5342   36.4424   42.7889 H   0  0  0  0  0  0  0  0  0  0  0  0
   49.8405   36.5386   40.7610 H   0  0  0  0  0  0  0  0  0  0  0  0
   49.3048   35.0617   38.8384 H   0  0  0  0  0  0  0  0  0  0  0  0
   43.6973   36.2230   44.9141 H   0  0  0  0  0  0  0  0  0  0  0  0
   45.0676   36.4585   42.8568 H   0  0  0  0  0  0  0  0  0  0  0  0
   46.0954   32.9719   46.0998 H   0  0  0  0  0  0  0  0  0  0  0  0
  1 22  1  0
  2  1  2  0
  2  8  1  0
  3  2  1  0
  4  3  1  0
  4  5  2  0
  5  1  1  0
  6  4  1  0
  7 15  2  0
  8  7  1  0
  9  8  2  0
  9 10  1  0
 10 14  2  0
 11 10  1  0
 11 12  1  0
 12 13  2  0
 14 15  1  0
 14 13  1  0
 17 16  1  0
 17 18  2  0
 18 25  1  0
 19 18  1  0
 20 19  2  0
 21 22  2  0
 21 20  1  0
 22 17  1  0
 23 28  2  0
 24 23  1  0
 25 24  2  0
 25 26  1  0
 26 27  2  0
 27 28  1  0
  6 29  1  0
  6 30  1  0
  7 31  1  0
  9 32  1  0
 11 33  1  0
 12 34  1  0
 15 35  1  0
 19 36  1  0
 20 37  1  0
 21 38  1  0
 23 39  1  0
 24 40  1  0
 27 41  1  0
M  ISO  8  31  14  32  14  33   9  34  14  35  14  36  14  37  14  38  14
M  ISO  3  39  14  40  14  41  14
M  END
>  <minimizedAffinity>  (1) 
-6.57388639

>  <minimizedRMSD>  (1) 
1.87674522

$$$$
