
     RDKit          3D

 31 33  0  0  0  0  0  0  0  0999 V2000
   45.0920   33.0720   41.0600 Cl  0  0  0  0  0  0  0  0  0  0  0  0
   46.5610   34.0020   40.9290 C   0  0  0  0  0  0  0  0  0  0  0  0
   46.9920   34.8160   41.9290 C   0  0  0  0  0  0  0  0  0  0  0  0
   48.1580   35.4970   41.7150 C   0  0  0  0  0  0  0  0  0  0  0  0
   48.8650   35.3850   40.5780 C   0  0  0  0  0  0  0  0  0  0  0  0
   48.4410   34.5670   39.5640 C   0  0  0  0  0  0  0  0  0  0  0  0
   47.2600   33.8690   39.7640 C   0  0  0  0  0  0  0  0  0  0  0  0
   44.4730   35.9600   44.5270 C   0  0  0  0  0  0  0  0  0  0  0  0
   45.2280   35.9040   43.3580 C   0  0  0  0  0  0  0  0  0  0  0  0
   46.1870   34.9010   43.1390 C   0  0  0  0  0  0  0  0  0  0  0  0
   46.3110   34.0070   44.1490 N   0  0  0  0  0  0  0  0  0  0  0  0
   45.5750   34.0750   45.2690 C   0  0  0  0  0  0  0  0  0  0  0  0
   44.6650   35.0440   45.4540 N   0  0  0  0  0  0  0  0  0  0  0  0
   46.7800   32.9730   38.6700 C   0  0  0  0  0  0  0  0  0  0  0  0
   46.9450   31.5710   38.7000 C   0  0  0  0  0  0  0  0  0  0  0  0
   46.1990   31.0150   37.1700 S   0  0  0  0  0  0  0  0  0  0  0  0
   45.7540   32.8190   36.6860 C   0  0  0  0  0  0  0  0  0  0  0  0
   46.1700   33.3330   37.5820 N   0  0  0  0  0  0  0  0  0  0  0  0
   45.0850   33.2250   35.4950 N   0  0  0  0  0  0  0  0  0  0  0  0
   47.5910   30.7830   39.7700 C   0  0  0  0  0  0  0  0  0  0  0  0
   48.5325   36.1637   42.5058 H   0  0  0  0  0  0  0  0  0  0  0  0
   49.7967   35.9577   40.4597 H   0  0  0  0  0  0  0  0  0  0  0  0
   49.0138   34.4682   38.6301 H   0  0  0  0  0  0  0  0  0  0  0  0
   43.7284   36.7563   44.6738 H   0  0  0  0  0  0  0  0  0  0  0  0
   45.0686   36.6681   42.5829 H   0  0  0  0  0  0  0  0  0  0  0  0
   45.7210   33.3185   46.0542 H   0  0  0  0  0  0  0  0  0  0  0  0
   44.8916   34.2227   35.3275 H   0  0  0  0  0  0  0  0  0  0  0  0
   44.7949   32.5207   34.8017 H   0  0  0  0  0  0  0  0  0  0  0  0
   47.2752   31.1683   40.7507 H   0  0  0  0  0  0  0  0  0  0  0  0
   47.2948   29.7276   39.6779 H   0  0  0  0  0  0  0  0  0  0  0  0
   48.6840   30.8665   39.6779 H   0  0  0  0  0  0  0  0  0  0  0  0
  2  1  1  0
  2  3  2  0
  3 10  1  0
  4  3  1  0
  5  4  2  0
  6  7  2  0
  6  5  1  0
  7  2  1  0
  8 13  2  0
  9  8  1  0
 10  9  2  0
 10 11  1  0
 11 12  2  0
 12 13  1  0
 14 15  2  0
 14  7  1  0
 15 20  1  0
 16 15  1  0
 17 16  1  0
 17 18  2  0
 18 14  1  0
 19 17  1  0
  4 21  1  0
  5 22  1  0
  6 23  1  0
  8 24  1  0
  9 25  1  0
 12 26  1  0
 19 27  1  0
 19 28  1  0
 20 29  1  0
 20 30  1  0
 20 31  1  0
M  ISO  8  21  14  22  14  23  14  24  14  25  14  26  14  29   8  30   8
M  ISO  1  31   8
M  END
>  <minimizedAffinity>  (1) 
-6.04539156

>  <minimizedRMSD>  (1) 
0.136124894

$$$$
