
     RDKit          3D

 39 42  0  0  0  0  0  0  0  0999 V2000
   45.1910   33.0450   41.1720 Cl  0  0  0  0  0  0  0  0  0  0  0  0
   46.6240   34.0330   41.0550 C   0  0  0  0  0  0  0  0  0  0  0  0
   47.0210   34.8740   42.0610 C   0  0  0  0  0  0  0  0  0  0  0  0
   48.1610   35.5940   41.8450 C   0  0  0  0  0  0  0  0  0  0  0  0
   48.8850   35.5100   40.7130 C   0  0  0  0  0  0  0  0  0  0  0  0
   48.4920   34.6730   39.7090 C   0  0  0  0  0  0  0  0  0  0  0  0
   47.3320   33.9200   39.8920 C   0  0  0  0  0  0  0  0  0  0  0  0
   44.4500   35.9290   44.6520 C   0  0  0  0  0  0  0  0  0  0  0  0
   45.2300   35.8950   43.4920 C   0  0  0  0  0  0  0  0  0  0  0  0
   46.1980   34.9260   43.2620 C   0  0  0  0  0  0  0  0  0  0  0  0
   46.3250   34.0150   44.2600 N   0  0  0  0  0  0  0  0  0  0  0  0
   45.5740   34.0540   45.3690 C   0  0  0  0  0  0  0  0  0  0  0  0
   44.6540   34.9930   45.5610 N   0  0  0  0  0  0  0  0  0  0  0  0
   46.9040   33.0100   38.8010 C   0  0  0  0  0  0  0  0  0  0  0  0
   47.2110   31.6450   38.7940 C   0  0  0  0  0  0  0  0  0  0  0  0
   46.4540   31.0420   37.2590 S   0  0  0  0  0  0  0  0  0  0  0  0
   45.8130   32.8040   36.8460 C   0  0  0  0  0  0  0  0  0  0  0  0
   46.2100   33.3460   37.7390 N   0  0  0  0  0  0  0  0  0  0  0  0
   45.0610   33.1700   35.6950 N   0  0  0  0  0  0  0  0  0  0  0  0
   49.3160   30.7280   39.5710 C   0  0  0  0  0  0  0  0  0  0  0  0
   47.9460   30.8260   39.7380 C   0  0  0  0  0  0  0  0  0  0  0  0
   47.3630   30.1420   40.7870 C   0  0  0  0  0  0  0  0  0  0  0  0
   48.1390   29.3740   41.6530 C   0  0  0  0  0  0  0  0  0  0  0  0
   49.5100   29.2880   41.4700 C   0  0  0  0  0  0  0  0  0  0  0  0
   50.1100   29.9760   40.4140 C   0  0  0  0  0  0  0  0  0  0  0  0
   50.5430   31.9780   37.6340 N   0  0  0  0  0  0  0  0  0  0  0  0
   49.9940   31.4150   38.4980 C   0  0  0  0  0  0  0  0  0  0  0  0
   48.5051   36.2770   42.6356 H   0  0  0  0  0  0  0  0  0  0  0  0
   49.7950   36.1171   40.5970 H   0  0  0  0  0  0  0  0  0  0  0  0
   49.0750   34.5942   38.7795 H   0  0  0  0  0  0  0  0  0  0  0  0
   43.6907   36.7105   44.8026 H   0  0  0  0  0  0  0  0  0  0  0  0
   45.0699   36.6699   42.7279 H   0  0  0  0  0  0  0  0  0  0  0  0
   45.7235   33.2865   46.1427 H   0  0  0  0  0  0  0  0  0  0  0  0
   44.7625   34.1471   35.5641 H   0  0  0  0  0  0  0  0  0  0  0  0
   44.8150   32.4579   34.9927 H   0  0  0  0  0  0  0  0  0  0  0  0
   46.2755   30.2042   40.9403 H   0  0  0  0  0  0  0  0  0  0  0  0
   47.6619   28.8344   42.4844 H   0  0  0  0  0  0  0  0  0  0  0  0
   50.1221   28.6809   42.1532 H   0  0  0  0  0  0  0  0  0  0  0  0
   51.1972   29.9200   40.2561 H   0  0  0  0  0  0  0  0  0  0  0  0
  2  1  1  0
  2  3  2  0
  3 10  1  0
  4  3  1  0
  5  4  2  0
  6  7  2  0
  6  5  1  0
  7  2  1  0
  8 13  2  0
  9  8  1  0
 10  9  2  0
 10 11  1  0
 11 12  2  0
 12 13  1  0
 14  7  1  0
 15 14  2  0
 15 21  1  0
 16 15  1  0
 17 16  1  0
 17 18  2  0
 18 14  1  0
 19 17  1  0
 20 21  2  0
 20 25  1  0
 21 22  1  0
 22 23  2  0
 24 23  1  0
 25 24  2  0
 26 27  3  0
 27 20  1  0
  4 28  1  0
  5 29  1  0
  6 30  1  0
  8 31  1  0
  9 32  1  0
 12 33  1  0
 19 34  1  0
 19 35  1  0
 22 36  1  0
 23 37  1  0
 24 38  1  0
 25 39  1  0
M  ISO  8  28  14  29  14  30  14  31  14  32  14  33  14  36  14  37  14
M  ISO  2  38  14  39  14
M  END
>  <minimizedAffinity>  (1) 
-6.02787209

>  <minimizedRMSD>  (1) 
1.49117637

$$$$
