
     RDKit          3D

 29 31  0  0  0  0  0  0  0  0999 V2000
   45.0960   33.0620   41.0420 Cl  0  0  0  0  0  0  0  0  0  0  0  0
   46.5590   33.9960   40.9210 C   0  0  0  0  0  0  0  0  0  0  0  0
   46.9890   34.8190   41.9250 C   0  0  0  0  0  0  0  0  0  0  0  0
   48.1600   35.5030   41.7070 C   0  0  0  0  0  0  0  0  0  0  0  0
   48.8750   35.3930   40.5730 C   0  0  0  0  0  0  0  0  0  0  0  0
   48.4560   34.5740   39.5590 C   0  0  0  0  0  0  0  0  0  0  0  0
   47.2860   33.8810   39.7580 C   0  0  0  0  0  0  0  0  0  0  0  0
   44.4730   35.9630   44.5140 C   0  0  0  0  0  0  0  0  0  0  0  0
   45.2380   35.8970   43.3470 C   0  0  0  0  0  0  0  0  0  0  0  0
   46.1870   34.9040   43.1270 C   0  0  0  0  0  0  0  0  0  0  0  0
   46.3050   34.0100   44.1370 N   0  0  0  0  0  0  0  0  0  0  0  0
   45.5760   34.0690   45.2560 C   0  0  0  0  0  0  0  0  0  0  0  0
   44.6730   35.0320   45.4390 N   0  0  0  0  0  0  0  0  0  0  0  0
   46.8090   32.9800   38.6670 C   0  0  0  0  0  0  0  0  0  0  0  0
   46.9790   31.5840   38.6830 C   0  0  0  0  0  0  0  0  0  0  0  0
   46.2180   31.0320   37.1360 S   0  0  0  0  0  0  0  0  0  0  0  0
   45.7630   32.8380   36.6760 C   0  0  0  0  0  0  0  0  0  0  0  0
   46.1850   33.3400   37.5750 N   0  0  0  0  0  0  0  0  0  0  0  0
   45.0840   33.2460   35.4910 N   0  0  0  0  0  0  0  0  0  0  0  0
   47.7780   30.6890   39.9880 S   0  0  0  0  0  0  0  0  0  0  0  0
   48.5306   36.1725   42.4972 H   0  0  0  0  0  0  0  0  0  0  0  0
   49.8063   35.9672   40.4591 H   0  0  0  0  0  0  0  0  0  0  0  0
   49.0305   34.4750   38.6262 H   0  0  0  0  0  0  0  0  0  0  0  0
   43.7294   36.7601   44.6616 H   0  0  0  0  0  0  0  0  0  0  0  0
   45.0837   36.6610   42.5708 H   0  0  0  0  0  0  0  0  0  0  0  0
   45.7239   33.3103   46.0386 H   0  0  0  0  0  0  0  0  0  0  0  0
   44.8825   34.2432   35.3303 H   0  0  0  0  0  0  0  0  0  0  0  0
   44.7948   32.5436   34.7954 H   0  0  0  0  0  0  0  0  0  0  0  0
   47.3506   31.1678   41.1984 H   0  0  0  0  0  0  0  0  0  0  0  0
  2  1  1  0
  2  3  2  0
  3 10  1  0
  4  3  1  0
  5  4  2  0
  6  7  2  0
  6  5  1  0
  7  2  1  0
  8 13  2  0
  9  8  1  0
 10  9  2  0
 10 11  1  0
 11 12  2  0
 12 13  1  0
 14 15  2  0
 14  7  1  0
 15 20  1  0
 16 15  1  0
 17 16  1  0
 17 18  2  0
 18 14  1  0
 19 17  1  0
  4 21  1  0
  5 22  1  0
  6 23  1  0
  8 24  1  0
  9 25  1  0
 12 26  1  0
 19 27  1  0
 19 28  1  0
 20 29  1  0
M  ISO  7  21  14  22  14  23  14  24  14  25  14  26  14  29  11
M  END
>  <minimizedAffinity>  (1) 
-6.02591991

>  <minimizedRMSD>  (1) 
0.152793542

$$$$
