
     RDKit          3D

 38 41  0  0  0  0  0  0  0  0999 V2000
   45.2390   33.0220   41.1670 Cl  0  0  0  0  0  0  0  0  0  0  0  0
   46.6550   34.0240   41.0500 C   0  0  0  0  0  0  0  0  0  0  0  0
   47.0330   34.8570   42.0680 C   0  0  0  0  0  0  0  0  0  0  0  0
   48.1730   35.6020   41.8560 C   0  0  0  0  0  0  0  0  0  0  0  0
   48.8920   35.5340   40.7220 C   0  0  0  0  0  0  0  0  0  0  0  0
   48.5140   34.7000   39.7000 C   0  0  0  0  0  0  0  0  0  0  0  0
   47.3660   33.9330   39.8820 C   0  0  0  0  0  0  0  0  0  0  0  0
   44.4700   35.8660   44.6610 C   0  0  0  0  0  0  0  0  0  0  0  0
   45.2370   35.8580   43.4880 C   0  0  0  0  0  0  0  0  0  0  0  0
   46.2270   34.8920   43.2670 C   0  0  0  0  0  0  0  0  0  0  0  0
   46.3840   33.9750   44.2680 N   0  0  0  0  0  0  0  0  0  0  0  0
   45.6360   34.0060   45.3840 C   0  0  0  0  0  0  0  0  0  0  0  0
   44.7030   34.9240   45.5810 N   0  0  0  0  0  0  0  0  0  0  0  0
   46.9430   33.0260   38.7850 C   0  0  0  0  0  0  0  0  0  0  0  0
   47.2710   31.6640   38.7590 C   0  0  0  0  0  0  0  0  0  0  0  0
   46.5080   31.0710   37.2240 S   0  0  0  0  0  0  0  0  0  0  0  0
   45.8360   32.8260   36.8420 C   0  0  0  0  0  0  0  0  0  0  0  0
   46.2370   33.3660   37.7450 N   0  0  0  0  0  0  0  0  0  0  0  0
   45.0670   33.1830   35.7010 N   0  0  0  0  0  0  0  0  0  0  0  0
   48.0450   30.8520   39.7130 C   0  0  0  0  0  0  0  0  0  0  0  0
   49.4220   30.8600   39.5000 C   0  0  0  0  0  0  0  0  0  0  0  0
   50.2400   30.1300   40.3410 C   0  0  0  0  0  0  0  0  0  0  0  0
   49.7270   29.3840   41.3990 C   0  0  0  0  0  0  0  0  0  0  0  0
   48.3550   29.3970   41.5860 C   0  0  0  0  0  0  0  0  0  0  0  0
   47.5090   30.1140   40.7660 C   0  0  0  0  0  0  0  0  0  0  0  0
   48.5100   36.2834   42.6510 H   0  0  0  0  0  0  0  0  0  0  0  0
   49.7938   36.1542   40.6122 H   0  0  0  0  0  0  0  0  0  0  0  0
   49.0974   34.6394   38.7694 H   0  0  0  0  0  0  0  0  0  0  0  0
   43.6944   36.6294   44.8211 H   0  0  0  0  0  0  0  0  0  0  0  0
   45.0574   36.6281   42.7233 H   0  0  0  0  0  0  0  0  0  0  0  0
   45.8046   33.2437   46.1589 H   0  0  0  0  0  0  0  0  0  0  0  0
   44.7479   34.1546   35.5785 H   0  0  0  0  0  0  0  0  0  0  0  0
   44.8289   32.4701   34.9968 H   0  0  0  0  0  0  0  0  0  0  0  0
   49.8531   31.4411   38.6715 H   0  0  0  0  0  0  0  0  0  0  0  0
   51.3266   30.1384   40.1700 H   0  0  0  0  0  0  0  0  0  0  0  0
   50.3874   28.8056   42.0619 H   0  0  0  0  0  0  0  0  0  0  0  0
   47.9257   28.8164   42.4158 H   0  0  0  0  0  0  0  0  0  0  0  0
   46.4231   30.1032   40.9415 H   0  0  0  0  0  0  0  0  0  0  0  0
  2  1  1  0
  2  3  2  0
  3 10  1  0
  4  3  1  0
  5  4  2  0
  6  7  2  0
  6  5  1  0
  7  2  1  0
  8 13  2  0
  9  8  1  0
 10  9  2  0
 10 11  1  0
 11 12  2  0
 12 13  1  0
 14  7  1  0
 15 14  2  0
 15 20  1  0
 16 15  1  0
 17 16  1  0
 17 18  2  0
 18 14  1  0
 19 17  1  0
 20 25  1  0
 21 20  2  0
 21 22  1  0
 22 23  2  0
 23 24  1  0
 25 24  2  0
  4 26  1  0
  5 27  1  0
  6 28  1  0
  8 29  1  0
  9 30  1  0
 12 31  1  0
 19 32  1  0
 19 33  1  0
 21 34  1  0
 22 35  1  0
 23 36  1  0
 24 37  1  0
 25 38  1  0
M  ISO  8  26  14  27  14  28  14  29  14  30  14  31  14  34  14  35  14
M  ISO  3  36  14  37  14  38  14
M  END
>  <minimizedAffinity>  (1) 
-6.01922989

>  <minimizedRMSD>  (1) 
0.6776039

$$$$
