
     RDKit          3D

 30 32  0  0  0  0  0  0  0  0999 V2000
   45.0540   33.0720   41.0610 Cl  0  0  0  0  0  0  0  0  0  0  0  0
   46.5360   34.0020   40.9390 C   0  0  0  0  0  0  0  0  0  0  0  0
   46.9650   34.8220   41.9330 C   0  0  0  0  0  0  0  0  0  0  0  0
   48.1360   35.4970   41.7120 C   0  0  0  0  0  0  0  0  0  0  0  0
   48.8520   35.3710   40.5690 C   0  0  0  0  0  0  0  0  0  0  0  0
   48.4280   34.5510   39.5710 C   0  0  0  0  0  0  0  0  0  0  0  0
   47.2470   33.8540   39.7610 C   0  0  0  0  0  0  0  0  0  0  0  0
   44.4680   35.9610   44.5410 C   0  0  0  0  0  0  0  0  0  0  0  0
   45.2210   35.9090   43.3560 C   0  0  0  0  0  0  0  0  0  0  0  0
   46.1660   34.9200   43.1350 C   0  0  0  0  0  0  0  0  0  0  0  0
   46.3010   34.0150   44.1510 N   0  0  0  0  0  0  0  0  0  0  0  0
   45.5740   34.0780   45.2770 C   0  0  0  0  0  0  0  0  0  0  0  0
   44.6740   35.0340   45.4700 N   0  0  0  0  0  0  0  0  0  0  0  0
   46.7650   32.9530   38.6840 C   0  0  0  0  0  0  0  0  0  0  0  0
   46.9000   31.5630   38.7310 C   0  0  0  0  0  0  0  0  0  0  0  0
   46.1520   30.9950   37.1940 S   0  0  0  0  0  0  0  0  0  0  0  0
   45.7430   32.8020   36.6810 C   0  0  0  0  0  0  0  0  0  0  0  0
   46.1640   33.3350   37.5790 N   0  0  0  0  0  0  0  0  0  0  0  0
   45.0920   33.2240   35.4810 N   0  0  0  0  0  0  0  0  0  0  0  0
   47.4910   30.6920   39.7230 C   0  0  0  0  0  0  0  0  0  0  0  0
   48.7240   30.6850   39.8120 O   0  0  0  0  0  0  0  0  0  0  0  0
   48.5113   36.1705   42.4965 H   0  0  0  0  0  0  0  0  0  0  0  0
   49.7865   35.9383   40.4470 H   0  0  0  0  0  0  0  0  0  0  0  0
   49.0056   34.4446   38.6409 H   0  0  0  0  0  0  0  0  0  0  0  0
   43.7220   36.7543   44.6966 H   0  0  0  0  0  0  0  0  0  0  0  0
   45.0559   36.6739   42.5829 H   0  0  0  0  0  0  0  0  0  0  0  0
   45.7276   33.3193   46.0586 H   0  0  0  0  0  0  0  0  0  0  0  0
   44.9242   34.2259   35.3112 H   0  0  0  0  0  0  0  0  0  0  0  0
   44.7906   32.5262   34.7859 H   0  0  0  0  0  0  0  0  0  0  0  0
   46.8676   30.0604   40.3730 H   0  0  0  0  0  0  0  0  0  0  0  0
  2  1  1  0
  2  3  2  0
  3 10  1  0
  4  3  1  0
  5  4  2  0
  6  7  2  0
  6  5  1  0
  7  2  1  0
  8 13  2  0
  9  8  1  0
 10  9  2  0
 10 11  1  0
 11 12  2  0
 12 13  1  0
 14 15  2  0
 14  7  1  0
 15 20  1  0
 16 15  1  0
 17 16  1  0
 17 18  2  0
 18 14  1  0
 19 17  1  0
 20 21  2  0
  4 22  1  0
  5 23  1  0
  6 24  1  0
  8 25  1  0
  9 26  1  0
 12 27  1  0
 19 28  1  0
 19 29  1  0
 20 30  1  0
M  ISO  7  22  14  23  14  24  14  25  14  26  14  27  14  30   6
M  END
>  <minimizedAffinity>  (1) 
-5.82102728

>  <minimizedRMSD>  (1) 
0.177206472

$$$$
