
     RDKit          3D

 27 29  0  0  0  0  0  0  0  0999 V2000
   48.0950   34.8020   41.6860 C   0  0  0  0  0  0  0  0  0  0  0  0
   49.0050   35.9610   41.5920 C   0  0  0  0  0  0  0  0  0  0  0  0
   49.5120   34.6520   42.0920 C   0  0  0  0  0  0  0  0  0  0  0  0
   45.9950   35.7160   42.6870 C   0  0  0  0  0  0  0  0  0  0  0  0
   47.0280   34.7740   42.7310 C   0  0  0  0  0  0  0  0  0  0  0  0
   47.0130   33.8340   43.7580 C   0  0  0  0  0  0  0  0  0  0  0  0
   45.9980   33.8800   44.6610 N   0  0  0  0  0  0  0  0  0  0  0  0
   45.0140   34.7870   44.6070 C   0  0  0  0  0  0  0  0  0  0  0  0
   45.0120   35.7090   43.6170 N   0  0  0  0  0  0  0  0  0  0  0  0
   47.6280   34.2780   40.3490 C   0  0  0  0  0  0  0  0  0  0  0  0
   46.5150   33.4980   40.1730 C   0  0  0  0  0  0  0  0  0  0  0  0
   46.2340   33.1120   38.8810 C   0  0  0  0  0  0  0  0  0  0  0  0
   47.0320   33.4950   37.8360 C   0  0  0  0  0  0  0  0  0  0  0  0
   48.1530   34.2830   38.0280 C   0  0  0  0  0  0  0  0  0  0  0  0
   48.4500   34.6800   39.3190 C   0  0  0  0  0  0  0  0  0  0  0  0
   49.3215   36.3335   40.6066 H   0  0  0  0  0  0  0  0  0  0  0  0
   48.9959   36.9910   41.9781 H   0  0  0  0  0  0  0  0  0  0  0  0
   49.7711   34.5306   43.1541 H   0  0  0  0  0  0  0  0  0  0  0  0
   50.3356   33.9772   41.8157 H   0  0  0  0  0  0  0  0  0  0  0  0
   45.9815   36.4712   41.8873 H   0  0  0  0  0  0  0  0  0  0  0  0
   47.8032   33.0728   43.8367 H   0  0  0  0  0  0  0  0  0  0  0  0
   44.2137   34.7823   45.3617 H   0  0  0  0  0  0  0  0  0  0  0  0
   45.8797   33.1962   41.0187 H   0  0  0  0  0  0  0  0  0  0  0  0
   45.3522   32.4844   38.6849 H   0  0  0  0  0  0  0  0  0  0  0  0
   46.7751   33.1677   36.8177 H   0  0  0  0  0  0  0  0  0  0  0  0
   48.7874   34.5839   37.1812 H   0  0  0  0  0  0  0  0  0  0  0  0
   49.3303   35.3080   39.5207 H   0  0  0  0  0  0  0  0  0  0  0  0
  1  3  1  0
  1  5  1  0
  2  1  1  0
  2  3  1  0
  4  5  2  0
  4  9  1  0
  5  6  1  0
  6  7  2  0
  8  7  1  0
  9  8  2  0
 10  1  1  0
 11 10  2  0
 12 11  1  0
 13 14  1  0
 13 12  2  0
 14 15  2  0
 15 10  1  0
  2 16  1  0
  2 17  1  0
  3 18  1  0
  3 19  1  0
  4 20  1  0
  6 21  1  0
  8 22  1  0
 11 23  1  0
 12 24  1  0
 13 25  1  0
 14 26  1  0
 15 27  1  0
M  ISO  8  16  13  17  13  18  13  19  13  20  14  21  14  22  14  23  14
M  ISO  4  24  14  25  14  26  14  27  14
M  END
>  <minimizedAffinity>  (1) 
-5.14570665

>  <minimizedRMSD>  (1) 
1.40019405

$$$$
