
     RDKit          3D

 27 29  0  0  0  0  0  0  0  0999 V2000
   48.5360   34.8130   41.8430 C   0  0  0  0  0  0  0  0  0  0  0  0
   49.1970   36.1370   41.8080 C   0  0  0  0  0  0  0  0  0  0  0  0
   49.8830   34.9900   42.4470 C   0  0  0  0  0  0  0  0  0  0  0  0
   49.6900   31.9830   42.2000 Cl  0  0  0  0  0  0  0  0  0  0  0  0
   49.0170   32.6660   40.7550 C   0  0  0  0  0  0  0  0  0  0  0  0
   48.5090   33.9430   40.6380 C   0  0  0  0  0  0  0  0  0  0  0  0
   48.0060   34.3400   39.4120 C   0  0  0  0  0  0  0  0  0  0  0  0
   47.9800   33.5360   38.2950 C   0  0  0  0  0  0  0  0  0  0  0  0
   48.4840   32.2700   38.4040 C   0  0  0  0  0  0  0  0  0  0  0  0
   48.4640   31.2300   37.0050 Cl  0  0  0  0  0  0  0  0  0  0  0  0
   48.9890   31.8580   39.6180 C   0  0  0  0  0  0  0  0  0  0  0  0
   46.1650   35.3100   42.5420 C   0  0  0  0  0  0  0  0  0  0  0  0
   47.3630   34.6180   42.7340 C   0  0  0  0  0  0  0  0  0  0  0  0
   47.4140   33.7130   43.8190 C   0  0  0  0  0  0  0  0  0  0  0  0
   46.3170   33.5650   44.6060 N   0  0  0  0  0  0  0  0  0  0  0  0
   45.1790   34.2590   44.3790 C   0  0  0  0  0  0  0  0  0  0  0  0
   45.1150   35.1240   43.3490 N   0  0  0  0  0  0  0  0  0  0  0  0
   49.5711   36.5391   40.8549 H   0  0  0  0  0  0  0  0  0  0  0  0
   48.9193   37.1520   42.1285 H   0  0  0  0  0  0  0  0  0  0  0  0
   50.0044   34.9605   43.5399 H   0  0  0  0  0  0  0  0  0  0  0  0
   50.8612   34.5016   42.3258 H   0  0  0  0  0  0  0  0  0  0  0  0
   47.6025   35.3596   39.3245 H   0  0  0  0  0  0  0  0  0  0  0  0
   47.5662   33.9012   37.3435 H   0  0  0  0  0  0  0  0  0  0  0  0
   49.3917   30.8372   39.6948 H   0  0  0  0  0  0  0  0  0  0  0  0
   46.0834   36.0235   41.7088 H   0  0  0  0  0  0  0  0  0  0  0  0
   48.3288   33.1371   44.0228 H   0  0  0  0  0  0  0  0  0  0  0  0
   44.3071   34.1172   45.0345 H   0  0  0  0  0  0  0  0  0  0  0  0
  1  3  1  0
  1 13  1  0
  2  1  1  0
  2  3  1  0
  5  4  1  0
  6  5  2  0
  6  1  1  0
  7  6  1  0
  8  9  1  0
  8  7  2  0
  9 11  2  0
 10  9  1  0
 11  5  1  0
 12 13  2  0
 12 17  1  0
 13 14  1  0
 14 15  2  0
 16 15  1  0
 17 16  2  0
  2 18  1  0
  2 19  1  0
  3 20  1  0
  3 21  1  0
  7 22  1  0
  8 23  1  0
 11 24  1  0
 12 25  1  0
 14 26  1  0
 16 27  1  0
M  ISO  8  18  13  19  13  20  13  21  13  22  14  23  14  24  14  25  14
M  ISO  2  26  14  27  14
M  END
>  <minimizedAffinity>  (1) 
-5.07442617

>  <minimizedRMSD>  (1) 
1.30096865

$$$$
