
     RDKit          3D

 20 21  0  0  0  0  0  0  0  0999 V2000
   48.1720   34.8610   41.6870 C   0  0  0  0  0  0  0  0  0  0  0  0
   49.0570   36.0720   41.7110 C   0  0  0  0  0  0  0  0  0  0  0  0
   49.5910   34.7510   42.0750 C   0  0  0  0  0  0  0  0  0  0  0  0
   46.0410   35.6160   42.7590 C   0  0  0  0  0  0  0  0  0  0  0  0
   47.1250   34.7410   42.7530 C   0  0  0  0  0  0  0  0  0  0  0  0
   47.1820   33.7480   43.7680 C   0  0  0  0  0  0  0  0  0  0  0  0
   46.1780   33.7070   44.6830 N   0  0  0  0  0  0  0  0  0  0  0  0
   45.1540   34.5620   44.6610 C   0  0  0  0  0  0  0  0  0  0  0  0
   45.1070   35.4960   43.7020 N   0  0  0  0  0  0  0  0  0  0  0  0
   47.7620   34.2930   40.3690 C   0  0  0  0  0  0  0  0  0  0  0  0
   46.4020   34.2290   40.1700 F   0  0  0  0  0  0  0  0  0  0  0  0
   48.2390   32.9880   40.2780 F   0  0  0  0  0  0  0  0  0  0  0  0
   48.3630   34.9810   39.3400 F   0  0  0  0  0  0  0  0  0  0  0  0
   49.3632   36.5498   40.7687 H   0  0  0  0  0  0  0  0  0  0  0  0
   49.0170   37.0584   42.1961 H   0  0  0  0  0  0  0  0  0  0  0  0
   49.8567   34.5382   43.1210 H   0  0  0  0  0  0  0  0  0  0  0  0
   50.4390   34.1410   41.7303 H   0  0  0  0  0  0  0  0  0  0  0  0
   45.9567   36.3996   41.9916 H   0  0  0  0  0  0  0  0  0  0  0  0
   48.0160   33.0321   43.8119 H   0  0  0  0  0  0  0  0  0  0  0  0
   44.3597   34.5008   45.4195 H   0  0  0  0  0  0  0  0  0  0  0  0
  1  2  1  0
  1  3  1  0
  1  5  1  0
  2  3  1  0
  4  9  2  0
  5  4  1  0
  5  6  2  0
  6  7  1  0
  8  7  2  0
  9  8  1  0
 10  1  1  0
 11 10  1  0
 12 10  1  0
 13 10  1  0
  2 14  1  0
  2 15  1  0
  3 16  1  0
  3 17  1  0
  4 18  1  0
  6 19  1  0
  8 20  1  0
M  ISO  7  14  13  15  13  16  13  17  13  18  14  19  14  20  14
M  END
>  <minimizedAffinity>  (1) 
-4.66418839

>  <minimizedRMSD>  (1) 
0.961114168

$$$$
