
     RDKit          3D

 31 33  0  0  1  0  0  0  0  0999 V2000
   48.3160   34.6240   41.9060 C   0  0  0  0  0  0  0  0  0  0  0  0
   49.0140   35.9090   41.6250 C   0  0  0  0  0  0  0  0  0  0  0  0
   49.6940   34.8830   42.4740 C   0  0  0  0  0  0  0  0  0  0  0  0
   46.1430   35.5580   42.7180 C   0  0  0  0  0  0  0  0  0  0  0  0
   47.1870   34.6330   42.8600 C   0  0  0  0  0  0  0  0  0  0  0  0
   47.0660   33.7660   43.9430 C   0  0  0  0  0  0  0  0  0  0  0  0
   45.9760   33.8610   44.7750 N   0  0  0  0  0  0  0  0  0  0  0  0
   45.0050   34.7670   44.5880 C   0  0  0  0  0  0  0  0  0  0  0  0
   45.0870   35.6220   43.5550 N   0  0  0  0  0  0  0  0  0  0  0  0
   48.1680   33.7120   40.8360 N   0  0  0  0  0  0  0  0  0  0  0  0
   48.0670   34.1860   39.5280 C   0  0  0  0  0  0  0  0  0  0  0  0
   48.0450   33.1440   38.4560 C   0  0  0  0  0  0  0  0  0  0  0  0
   48.8510   31.9860   38.7140 N   0  0  0  0  0  0  0  0  0  0  0  0
   49.6030   32.0540   39.9320 C   0  0  0  0  0  0  0  0  0  0  0  0
   48.5900   32.3800   41.0400 C   0  0  0  0  0  0  0  0  0  0  0  0
   49.3896   36.1179   40.6125 H   0  0  0  0  0  0  0  0  0  0  0  0
   48.7581   36.9711   41.7532 H   0  0  0  0  0  0  0  0  0  0  0  0
   49.8226   35.0565   43.5526 H   0  0  0  0  0  0  0  0  0  0  0  0
   50.6621   34.3615   42.4451 H   0  0  0  0  0  0  0  0  0  0  0  0
   46.1873   36.2690   41.8799 H   0  0  0  0  0  0  0  0  0  0  0  0
   47.8401   33.0077   44.1320 H   0  0  0  0  0  0  0  0  0  0  0  0
   44.1475   34.8097   45.2756 H   0  0  0  0  0  0  0  0  0  0  0  0
   47.1369   34.7682   39.4513 H   0  0  0  0  0  0  0  0  0  0  0  0
   48.9800   34.7740   39.3530 H   0  0  0  0  0  0  0  0  0  0  0  0
   48.4023   33.6067   37.5242 H   0  0  0  0  0  0  0  0  0  0  0  0
   47.0063   32.7866   38.3987 H   0  0  0  0  0  0  0  0  0  0  0  0
   48.2309   31.1650   38.7625 H   0  0  0  0  0  0  0  0  0  0  0  0
   50.0918   31.0894   40.1333 H   0  0  0  0  0  0  0  0  0  0  0  0
   50.3943   32.8158   39.8739 H   0  0  0  0  0  0  0  0  0  0  0  0
   49.0653   32.2815   42.0271 H   0  0  0  0  0  0  0  0  0  0  0  0
   47.7354   31.6883   41.0059 H   0  0  0  0  0  0  0  0  0  0  0  0
  1  3  1  0
  1  5  1  0
  2  1  1  0
  2  3  1  0
  4  5  2  0
  4  9  1  0
  5  6  1  0
  6  7  2  0
  8  7  1  0
  9  8  2  0
 10 15  1  0
 10  1  1  0
 11 10  1  0
 12 13  1  0
 12 11  1  0
 13 14  1  0
 14 15  1  0
  2 16  1  0
  2 17  1  0
  3 18  1  0
  3 19  1  0
  4 20  1  0
  6 21  1  0
  8 22  1  0
 11 23  1  0
 11 24  1  0
 12 25  1  0
 12 26  1  0
 13 27  1  0
 14 28  1  0
 14 29  1  0
 15 30  1  0
 15 31  1  0
M  ISO  8  16  13  17  13  18  13  19  13  20  14  21  14  22  14  23  13
M  ISO  8  24  13  25  13  26  13  27   5  28  13  29  13  30  13  31  13
M  END
>  <minimizedAffinity>  (1) 
-4.58305931

>  <minimizedRMSD>  (1) 
0.619112849

$$$$
