
     RDKit          3D

 23 24  0  0  0  0  0  0  0  0999 V2000
   48.2890   34.8300   41.7110 C   0  0  0  0  0  0  0  0  0  0  0  0
   49.1700   36.0380   41.7580 C   0  0  0  0  0  0  0  0  0  0  0  0
   49.7010   34.7280   42.1550 C   0  0  0  0  0  0  0  0  0  0  0  0
   46.0750   35.4630   42.6050 C   0  0  0  0  0  0  0  0  0  0  0  0
   47.2170   34.6730   42.7320 C   0  0  0  0  0  0  0  0  0  0  0  0
   47.2690   33.7810   43.8080 C   0  0  0  0  0  0  0  0  0  0  0  0
   46.2160   33.7290   44.6680 N   0  0  0  0  0  0  0  0  0  0  0  0
   45.1190   34.5040   44.5260 C   0  0  0  0  0  0  0  0  0  0  0  0
   45.0460   35.3810   43.4850 N   0  0  0  0  0  0  0  0  0  0  0  0
   47.8510   34.4750   40.3080 C   0  0  0  0  0  0  0  0  0  0  0  0
   47.9510   33.0010   40.0170 C   0  0  0  0  0  0  0  0  0  0  0  0
   49.5087   36.5082   40.8230 H   0  0  0  0  0  0  0  0  0  0  0  0
   49.1072   37.0280   42.2334 H   0  0  0  0  0  0  0  0  0  0  0  0
   49.9294   34.5273   43.2121 H   0  0  0  0  0  0  0  0  0  0  0  0
   50.5650   34.1197   41.8492 H   0  0  0  0  0  0  0  0  0  0  0  0
   46.0066   36.1728   41.7675 H   0  0  0  0  0  0  0  0  0  0  0  0
   48.1455   33.1331   43.9563 H   0  0  0  0  0  0  0  0  0  0  0  0
   44.2903   34.4280   45.2453 H   0  0  0  0  0  0  0  0  0  0  0  0
   46.8046   34.7881   40.1774 H   0  0  0  0  0  0  0  0  0  0  0  0
   48.5246   34.9950   39.6109 H   0  0  0  0  0  0  0  0  0  0  0  0
   47.9889   32.4421   40.9637 H   0  0  0  0  0  0  0  0  0  0  0  0
   47.0725   32.6813   39.4374 H   0  0  0  0  0  0  0  0  0  0  0  0
   48.8647   32.8028   39.4374 H   0  0  0  0  0  0  0  0  0  0  0  0
  1  2  1  0
  1  3  1  0
  1  5  1  0
  2  3  1  0
  4  5  2  0
  4  9  1  0
  5  6  1  0
  6  7  2  0
  8  7  1  0
  9  8  2  0
 10  1  1  0
 11 10  1  0
  2 12  1  0
  2 13  1  0
  3 14  1  0
  3 15  1  0
  4 16  1  0
  6 17  1  0
  8 18  1  0
 10 19  1  0
 10 20  1  0
 11 21  1  0
 11 22  1  0
 11 23  1  0
M  ISO  8  12  13  13  13  14  13  15  13  16  14  17  14  18  14  19   8
M  ISO  4  20   8  21   8  22   8  23   8
M  END
>  <minimizedAffinity>  (1) 
-4.03896761

>  <minimizedRMSD>  (1) 
0.681389391

$$$$
