
     RDKit          3D

 18 19  0  0  0  0  0  0  0  0999 V2000
   46.1910   35.4320   42.6910 C   0  0  0  0  0  0  0  0  0  0  0  0
   47.2470   34.4970   42.8880 C   0  0  0  0  0  0  0  0  0  0  0  0
   47.1780   33.6050   43.9840 C   0  0  0  0  0  0  0  0  0  0  0  0
   46.0820   33.6990   44.8000 N   0  0  0  0  0  0  0  0  0  0  0  0
   45.1140   34.5950   44.5750 C   0  0  0  0  0  0  0  0  0  0  0  0
   45.1510   35.4620   43.5340 N   0  0  0  0  0  0  0  0  0  0  0  0
   48.4270   34.4530   41.9660 C   0  0  0  0  0  0  0  0  0  0  0  0
   48.8990   35.7070   41.3770 C   0  0  0  0  0  0  0  0  0  0  0  0
   49.7190   35.0700   42.4490 C   0  0  0  0  0  0  0  0  0  0  0  0
   48.5700   33.2570   41.2690 O   0  0  0  0  0  0  0  0  0  0  0  0
   46.2298   36.1320   41.8434 H   0  0  0  0  0  0  0  0  0  0  0  0
   47.9714   32.8669   44.1729 H   0  0  0  0  0  0  0  0  0  0  0  0
   44.2551   34.6292   45.2614 H   0  0  0  0  0  0  0  0  0  0  0  0
   49.2687   35.7184   40.3410 H   0  0  0  0  0  0  0  0  0  0  0  0
   48.4578   36.7048   41.2368 H   0  0  0  0  0  0  0  0  0  0  0  0
   49.7762   35.5261   43.4484 H   0  0  0  0  0  0  0  0  0  0  0  0
   50.7623   34.7359   42.5488 H   0  0  0  0  0  0  0  0  0  0  0  0
   48.6594   32.5092   41.9116 H   0  0  0  0  0  0  0  0  0  0  0  0
  1  2  2  0
  1  6  1  0
  2  3  1  0
  3  4  2  0
  5  4  1  0
  6  5  2  0
  7  9  1  0
  7  2  1  0
  8  7  1  0
  8  9  1  0
 10  7  1  0
  1 11  1  0
  3 12  1  0
  5 13  1  0
  8 14  1  0
  8 15  1  0
  9 16  1  0
  9 17  1  0
 10 18  1  0
M  ISO  8  11  14  12  14  13  14  14  13  15  13  16  13  17  13  18   3
M  END
>  <minimizedAffinity>  (1) 
-3.77294731

>  <minimizedRMSD>  (1) 
0.0445227437

$$$$
