
     RDKit          3D

 31 33  0  0  0  0  0  0  0  0999 V2000
   48.2100   34.6780   41.7800 C   0  0  0  0  0  0  0  0  0  0  0  0
   49.0070   35.9540   41.6120 C   0  0  0  0  0  0  0  0  0  0  0  0
   49.5980   34.7800   42.2630 C   0  0  0  0  0  0  0  0  0  0  0  0
   47.9710   33.9220   40.5090 C   0  0  0  0  0  0  0  0  0  0  0  0
   48.3510   34.6780   39.2480 C   0  0  0  0  0  0  0  0  0  0  0  0
   48.1630   33.6580   38.1130 C   0  0  0  0  0  0  0  0  0  0  0  0
   46.7870   33.5580   37.9120 O   0  0  0  0  0  0  0  0  0  0  0  0
   46.3200   32.8300   39.0310 C   0  0  0  0  0  0  0  0  0  0  0  0
   46.4700   33.6780   40.2870 C   0  0  0  0  0  0  0  0  0  0  0  0
   46.0820   35.6420   42.6580 C   0  0  0  0  0  0  0  0  0  0  0  0
   47.0960   34.6930   42.7830 C   0  0  0  0  0  0  0  0  0  0  0  0
   47.0380   33.7630   43.8660 C   0  0  0  0  0  0  0  0  0  0  0  0
   45.9830   33.8580   44.7200 N   0  0  0  0  0  0  0  0  0  0  0  0
   45.0360   34.7870   44.5570 C   0  0  0  0  0  0  0  0  0  0  0  0
   45.0680   35.6720   43.5490 N   0  0  0  0  0  0  0  0  0  0  0  0
   49.3504   36.2632   40.6137 H   0  0  0  0  0  0  0  0  0  0  0  0
   48.8609   37.0095   41.8853 H   0  0  0  0  0  0  0  0  0  0  0  0
   49.7980   34.8002   43.3445 H   0  0  0  0  0  0  0  0  0  0  0  0
   50.5121   34.1910   42.0968 H   0  0  0  0  0  0  0  0  0  0  0  0
   48.5798   33.0159   40.6447 H   0  0  0  0  0  0  0  0  0  0  0  0
   47.6921   35.5467   39.1026 H   0  0  0  0  0  0  0  0  0  0  0  0
   49.3777   35.0706   39.2903 H   0  0  0  0  0  0  0  0  0  0  0  0
   48.6588   34.0101   37.1964 H   0  0  0  0  0  0  0  0  0  0  0  0
   48.6053   32.6838   38.3686 H   0  0  0  0  0  0  0  0  0  0  0  0
   45.2601   32.5743   38.8857 H   0  0  0  0  0  0  0  0  0  0  0  0
   46.9084   31.9069   39.1394 H   0  0  0  0  0  0  0  0  0  0  0  0
   45.9498   34.6382   40.1552 H   0  0  0  0  0  0  0  0  0  0  0  0
   46.0308   33.1633   41.1543 H   0  0  0  0  0  0  0  0  0  0  0  0
   46.1083   36.3677   41.8318 H   0  0  0  0  0  0  0  0  0  0  0  0
   47.8170   32.9988   44.0043 H   0  0  0  0  0  0  0  0  0  0  0  0
   44.2023   34.8274   45.2734 H   0  0  0  0  0  0  0  0  0  0  0  0
  1  3  1  0
  1 11  1  0
  2  1  1  0
  2  3  1  0
  4  1  1  0
  5  4  1  0
  6  5  1  0
  7  6  1  0
  7  8  1  0
  8  9  1  0
  9  4  1  0
 10 11  2  0
 10 15  1  0
 11 12  1  0
 12 13  2  0
 14 13  1  0
 15 14  2  0
  2 16  1  0
  2 17  1  0
  3 18  1  0
  3 19  1  0
  4 20  1  0
  5 21  1  0
  5 22  1  0
  6 23  1  0
  6 24  1  0
  8 25  1  0
  8 26  1  0
  9 27  1  0
  9 28  1  0
 10 29  1  0
 12 30  1  0
 14 31  1  0
M  ISO  8  16  13  17  13  18  13  19  13  20  13  21  13  22  13  23  13
M  ISO  8  24  13  25  13  26  13  27  13  28  13  29  14  30  14  31  14
M  END
>  <minimizedAffinity>  (1) 
-4.86038589

>  <minimizedRMSD>  (1) 
0.852043152

$$$$
