
     RDKit          3D

 33 35  0  0  0  0  0  0  0  0999 V2000
   48.1140   34.5170   41.6270 C   0  0  0  0  0  0  0  0  0  0  0  0
   48.8920   35.7490   41.2740 C   0  0  0  0  0  0  0  0  0  0  0  0
   49.5520   34.5900   41.8900 C   0  0  0  0  0  0  0  0  0  0  0  0
   47.6710   33.7030   40.4450 C   0  0  0  0  0  0  0  0  0  0  0  0
   48.0870   34.2520   39.1040 C   0  0  0  0  0  0  0  0  0  0  0  0
   47.6550   33.1860   38.0900 C   0  0  0  0  0  0  0  0  0  0  0  0
   46.2680   33.3320   37.9580 O   0  0  0  0  0  0  0  0  0  0  0  0
   45.7400   32.8160   39.1590 C   0  0  0  0  0  0  0  0  0  0  0  0
   46.1350   33.7060   40.3230 C   0  0  0  0  0  0  0  0  0  0  0  0
   46.1760   35.5990   42.7880 C   0  0  0  0  0  0  0  0  0  0  0  0
   47.1480   34.6110   42.7830 C   0  0  0  0  0  0  0  0  0  0  0  0
   47.2100   33.6970   43.8860 C   0  0  0  0  0  0  0  0  0  0  0  0
   46.2990   33.8570   44.8830 N   0  0  0  0  0  0  0  0  0  0  0  0
   45.3880   34.8260   44.8330 C   0  0  0  0  0  0  0  0  0  0  0  0
   45.3070   35.6990   43.8100 N   0  0  0  0  0  0  0  0  0  0  0  0
   44.4080   35.0040   45.8990 C   0  0  0  0  0  0  0  0  0  0  0  0
   44.4490   34.4140   47.0090 O   0  0  0  0  0  0  0  0  0  0  0  0
   49.0837   35.9983   40.2199 H   0  0  0  0  0  0  0  0  0  0  0  0
   48.8110   36.8206   41.5090 H   0  0  0  0  0  0  0  0  0  0  0  0
   49.9147   34.6555   42.9264 H   0  0  0  0  0  0  0  0  0  0  0  0
   50.4157   33.9641   41.6210 H   0  0  0  0  0  0  0  0  0  0  0  0
   48.1307   32.7231   40.6411 H   0  0  0  0  0  0  0  0  0  0  0  0
   47.5790   35.2066   38.9021 H   0  0  0  0  0  0  0  0  0  0  0  0
   49.1671   34.4550   39.0566 H   0  0  0  0  0  0  0  0  0  0  0  0
   48.1523   33.3519   37.1230 H   0  0  0  0  0  0  0  0  0  0  0  0
   47.9280   32.1736   38.4224 H   0  0  0  0  0  0  0  0  0  0  0  0
   44.6431   32.7753   39.0871 H   0  0  0  0  0  0  0  0  0  0  0  0
   46.1402   31.8049   39.3249 H   0  0  0  0  0  0  0  0  0  0  0  0
   45.7796   34.7313   40.1428 H   0  0  0  0  0  0  0  0  0  0  0  0
   45.6834   33.3307   41.2532 H   0  0  0  0  0  0  0  0  0  0  0  0
   46.1146   36.3076   41.9489 H   0  0  0  0  0  0  0  0  0  0  0  0
   47.9648   32.8977   43.9243 H   0  0  0  0  0  0  0  0  0  0  0  0
   43.5767   35.7017   45.7198 H   0  0  0  0  0  0  0  0  0  0  0  0
  1  3  1  0
  1 11  1  0
  2  1  1  0
  2  3  1  0
  4  1  1  0
  5  4  1  0
  6  5  1  0
  7  6  1  0
  7  8  1  0
  8  9  1  0
  9  4  1  0
 10 15  2  0
 11 10  1  0
 11 12  2  0
 12 13  1  0
 14 13  2  0
 14 16  1  0
 15 14  1  0
 16 17  2  0
  2 18  1  0
  2 19  1  0
  3 20  1  0
  3 21  1  0
  4 22  1  0
  5 23  1  0
  5 24  1  0
  6 25  1  0
  6 26  1  0
  8 27  1  0
  8 28  1  0
  9 29  1  0
  9 30  1  0
 10 31  1  0
 12 32  1  0
 16 33  1  0
M  ISO  8  18  13  19  13  20  13  21  13  22  13  23  13  24  13  25  13
M  ISO  8  26  13  27  13  28  13  29  13  30  13  31  14  32  14  33   6
M  END
>  <minimizedAffinity>  (1) 
-4.65283298

>  <minimizedRMSD>  (1) 
0.455277413

$$$$
