
     RDKit          3D

 38 41  0  0  0  0  0  0  0  0999 V2000
   48.2210   34.0600   41.9990 C   0  0  0  0  0  0  0  0  0  0  0  0
   48.3070   35.5760   41.9860 C   0  0  0  0  0  0  0  0  0  0  0  0
   49.5150   34.7410   42.1190 C   0  0  0  0  0  0  0  0  0  0  0  0
   47.8710   33.4400   40.6740 C   0  0  0  0  0  0  0  0  0  0  0  0
   48.1600   34.3300   39.4820 C   0  0  0  0  0  0  0  0  0  0  0  0
   47.8480   33.4460   38.2520 C   0  0  0  0  0  0  0  0  0  0  0  0
   46.4570   33.3910   38.1610 O   0  0  0  0  0  0  0  0  0  0  0  0
   46.0680   32.5480   39.2240 C   0  0  0  0  0  0  0  0  0  0  0  0
   46.3580   33.2100   40.5550 C   0  0  0  0  0  0  0  0  0  0  0  0
   46.6350   34.1240   43.9390 C   0  0  0  0  0  0  0  0  0  0  0  0
   47.6170   33.4340   43.2160 C   0  0  0  0  0  0  0  0  0  0  0  0
   48.0060   32.1490   43.6720 C   0  0  0  0  0  0  0  0  0  0  0  0
   47.4090   31.6450   44.7920 N   0  0  0  0  0  0  0  0  0  0  0  0
   46.4840   32.3360   45.4440 C   0  0  0  0  0  0  0  0  0  0  0  0
   46.0920   33.5630   45.0320 N   0  0  0  0  0  0  0  0  0  0  0  0
   45.8390   31.7780   46.6610 C   0  0  0  0  0  0  0  0  0  0  0  0
   45.3950   32.7580   47.7380 C   0  0  0  0  0  0  0  0  0  0  0  0
   46.5330   31.8330   47.9790 C   0  0  0  0  0  0  0  0  0  0  0  0
   48.1188   36.1332   41.0564 H   0  0  0  0  0  0  0  0  0  0  0  0
   47.8499   36.3936   42.5627 H   0  0  0  0  0  0  0  0  0  0  0  0
   50.0562   34.7159   43.0763 H   0  0  0  0  0  0  0  0  0  0  0  0
   50.4660   34.6786   41.5698 H   0  0  0  0  0  0  0  0  0  0  0  0
   48.4780   32.5228   40.6559 H   0  0  0  0  0  0  0  0  0  0  0  0
   47.5130   35.2195   39.4953 H   0  0  0  0  0  0  0  0  0  0  0  0
   49.1959   34.7000   39.4784 H   0  0  0  0  0  0  0  0  0  0  0  0
   48.2732   33.8939   37.3417 H   0  0  0  0  0  0  0  0  0  0  0  0
   48.2850   32.4419   38.3562 H   0  0  0  0  0  0  0  0  0  0  0  0
   44.9899   32.3429   39.1483 H   0  0  0  0  0  0  0  0  0  0  0  0
   46.6364   31.6084   39.1611 H   0  0  0  0  0  0  0  0  0  0  0  0
   45.8320   34.1745   40.6106 H   0  0  0  0  0  0  0  0  0  0  0  0
   46.0123   32.5651   41.3763 H   0  0  0  0  0  0  0  0  0  0  0  0
   46.3095   35.1227   43.6123 H   0  0  0  0  0  0  0  0  0  0  0  0
   48.7722   31.5705   43.1351 H   0  0  0  0  0  0  0  0  0  0  0  0
   45.3755   30.9729   46.0719 H   0  0  0  0  0  0  0  0  0  0  0  0
   45.5770   33.8355   47.6123 H   0  0  0  0  0  0  0  0  0  0  0  0
   44.4468   32.9802   48.2494 H   0  0  0  0  0  0  0  0  0  0  0  0
   46.4195   31.0019   48.6907 H   0  0  0  0  0  0  0  0  0  0  0  0
   47.5790   31.9663   48.2921 H   0  0  0  0  0  0  0  0  0  0  0  0
  1  3  1  0
  1 11  1  0
  2  1  1  0
  2  3  1  0
  4  1  1  0
  5  4  1  0
  6  5  1  0
  7  6  1  0
  7  8  1  0
  8  9  1  0
  9  4  1  0
 10 15  2  0
 11 12  2  0
 11 10  1  0
 12 13  1  0
 13 14  2  0
 14 16  1  0
 15 14  1  0
 16 17  1  0
 16 18  1  0
 17 18  1  0
  2 19  1  0
  2 20  1  0
  3 21  1  0
  3 22  1  0
  4 23  1  0
  5 24  1  0
  5 25  1  0
  6 26  1  0
  6 27  1  0
  8 28  1  0
  8 29  1  0
  9 30  1  0
  9 31  1  0
 10 32  1  0
 12 33  1  0
 16 34  1  0
 17 35  1  0
 17 36  1  0
 18 37  1  0
 18 38  1  0
M  ISO  8  19  13  20  13  21  13  22  13  23  13  24  13  25  13  26  13
M  ISO  8  27  13  28  13  29  13  30  13  31  13  32  14  33  14  34  13
M  ISO  4  35  13  36  13  37  13  38  13
M  END
>  <minimizedAffinity>  (1) 
-4.46177149

>  <minimizedRMSD>  (1) 
2.43845153

$$$$
