
     RDKit          3D

 46 50  0  0  0  0  0  0  0  0999 V2000
   46.2420   35.8670   42.6860 C   0  0  0  0  0  0  0  0  0  0  0  0
   47.0240   34.7000   42.6920 C   0  0  0  0  0  0  0  0  0  0  0  0
   46.7470   33.7170   43.6610 C   0  0  0  0  0  0  0  0  0  0  0  0
   45.7480   33.9320   44.5380 N   0  0  0  0  0  0  0  0  0  0  0  0
   45.0270   35.0620   44.4960 C   0  0  0  0  0  0  0  0  0  0  0  0
   45.2570   36.0160   43.5970 N   0  0  0  0  0  0  0  0  0  0  0  0
   43.9650   35.3160   45.4120 N   0  0  0  0  0  0  0  0  0  0  0  0
   47.5430   32.5350   43.6630 N   0  0  0  0  0  0  0  0  0  0  0  0
   47.4170   31.5600   44.5980 C   0  0  0  0  0  0  0  0  0  0  0  0
   48.3020   30.5570   44.3500 N   0  0  0  0  0  0  0  0  0  0  0  0
   48.9960   30.8740   43.2660 C   0  0  0  0  0  0  0  0  0  0  0  0
   50.0080   30.3190   42.5080 C   0  0  0  0  0  0  0  0  0  0  0  0
   50.4840   30.9590   41.4250 N   0  0  0  0  0  0  0  0  0  0  0  0
   50.0160   32.1540   41.0210 C   0  0  0  0  0  0  0  0  0  0  0  0
   49.0310   32.6930   41.7630 N   0  0  0  0  0  0  0  0  0  0  0  0
   48.5220   32.0990   42.8490 C   0  0  0  0  0  0  0  0  0  0  0  0
   48.1210   34.5510   41.6690 C   0  0  0  0  0  0  0  0  0  0  0  0
   48.9990   35.7750   41.4400 C   0  0  0  0  0  0  0  0  0  0  0  0
   49.5080   34.5790   42.1180 C   0  0  0  0  0  0  0  0  0  0  0  0
   47.7770   33.8150   40.4180 C   0  0  0  0  0  0  0  0  0  0  0  0
   48.1820   34.5140   39.1330 C   0  0  0  0  0  0  0  0  0  0  0  0
   47.8610   33.5080   38.0170 C   0  0  0  0  0  0  0  0  0  0  0  0
   46.4710   33.5070   37.8670 O   0  0  0  0  0  0  0  0  0  0  0  0
   46.0250   32.7890   39.0120 C   0  0  0  0  0  0  0  0  0  0  0  0
   46.2590   33.6460   40.2570 C   0  0  0  0  0  0  0  0  0  0  0  0
   50.5360   29.0550   42.8960 N   0  0  0  0  0  0  0  0  0  0  0  0
   46.4313   36.6554   41.9427 H   0  0  0  0  0  0  0  0  0  0  0  0
   43.4316   36.1950   45.3511 H   0  0  0  0  0  0  0  0  0  0  0  0
   43.7310   34.6206   46.1348 H   0  0  0  0  0  0  0  0  0  0  0  0
   46.7032   31.5779   45.4348 H   0  0  0  0  0  0  0  0  0  0  0  0
   50.4169   32.6631   40.1321 H   0  0  0  0  0  0  0  0  0  0  0  0
   49.3449   36.0276   40.4268 H   0  0  0  0  0  0  0  0  0  0  0  0
   48.9331   36.8470   41.6778 H   0  0  0  0  0  0  0  0  0  0  0  0
   49.7284   34.6189   43.1949 H   0  0  0  0  0  0  0  0  0  0  0  0
   50.3745   33.9217   41.9534 H   0  0  0  0  0  0  0  0  0  0  0  0
   48.3265   32.8705   40.5442 H   0  0  0  0  0  0  0  0  0  0  0  0
   47.6038   35.4399   38.9974 H   0  0  0  0  0  0  0  0  0  0  0  0
   49.2431   34.8039   39.1363 H   0  0  0  0  0  0  0  0  0  0  0  0
   48.3438   33.8163   37.0779 H   0  0  0  0  0  0  0  0  0  0  0  0
   48.2332   32.5041   38.2691 H   0  0  0  0  0  0  0  0  0  0  0  0
   44.9523   32.5664   38.9134 H   0  0  0  0  0  0  0  0  0  0  0  0
   46.5822   31.8446   39.0998 H   0  0  0  0  0  0  0  0  0  0  0  0
   45.7822   34.6294   40.1319 H   0  0  0  0  0  0  0  0  0  0  0  0
   45.8246   33.1664   41.1465 H   0  0  0  0  0  0  0  0  0  0  0  0
   51.2912   28.6215   42.3459 H   0  0  0  0  0  0  0  0  0  0  0  0
   50.1628   28.5740   43.7268 H   0  0  0  0  0  0  0  0  0  0  0  0
  1  2  2  0
  1  6  1  0
  2  3  1  0
  3  8  1  0
  3  4  2  0
  5  4  1  0
  5  7  1  0
  6  5  2  0
  8  9  1  0
 10  9  2  0
 11 10  1  0
 12 26  1  0
 12 11  2  0
 13 12  1  0
 14 13  2  0
 14 15  1  0
 15 16  2  0
 16 11  1  0
 16  8  1  0
 17 19  1  0
 17  2  1  0
 18 17  1  0
 18 19  1  0
 20 17  1  0
 21 20  1  0
 22 21  1  0
 23 22  1  0
 23 24  1  0
 24 25  1  0
 25 20  1  0
  1 27  1  0
  7 28  1  0
  7 29  1  0
  9 30  1  0
 14 31  1  0
 18 32  1  0
 18 33  1  0
 19 34  1  0
 19 35  1  0
 20 36  1  0
 21 37  1  0
 21 38  1  0
 22 39  1  0
 22 40  1  0
 24 41  1  0
 24 42  1  0
 25 43  1  0
 25 44  1  0
 26 45  1  0
 26 46  1  0
M  ISO  8  27  14  30  14  31  14  32  13  33  13  34  13  35  13  36  13
M  ISO  8  37  13  38  13  39  13  40  13  41  13  42  13  43  13  44  13
M  END
>  <minimizedAffinity>  (1) 
-6.49455309

>  <minimizedRMSD>  (1) 
0.472987354

$$$$
