
     RDKit          3D

 49 53  0  0  0  0  0  0  0  0999 V2000
   48.4200   34.2710   42.0930 C   0  0  0  0  0  0  0  0  0  0  0  0
   49.4210   35.3920   41.9490 C   0  0  0  0  0  0  0  0  0  0  0  0
   49.5960   34.2580   42.8720 C   0  0  0  0  0  0  0  0  0  0  0  0
   48.2850   33.7730   40.6760 C   0  0  0  0  0  0  0  0  0  0  0  0
   48.9800   32.5880   40.2940 C   0  0  0  0  0  0  0  0  0  0  0  0
   48.2860   31.7660   39.2410 C   0  0  0  0  0  0  0  0  0  0  0  0
   47.8260   32.5840   38.2450 O   0  0  0  0  0  0  0  0  0  0  0  0
   46.6960   33.1780   38.8560 C   0  0  0  0  0  0  0  0  0  0  0  0
   46.9700   33.9770   40.0840 C   0  0  0  0  0  0  0  0  0  0  0  0
   46.5770   35.8780   42.4800 C   0  0  0  0  0  0  0  0  0  0  0  0
   47.0800   34.6040   42.6700 C   0  0  0  0  0  0  0  0  0  0  0  0
   46.3250   33.6860   43.3890 C   0  0  0  0  0  0  0  0  0  0  0  0
   45.1160   34.0630   43.8890 N   0  0  0  0  0  0  0  0  0  0  0  0
   44.6670   35.3290   43.6780 C   0  0  0  0  0  0  0  0  0  0  0  0
   45.3700   36.2160   42.9930 N   0  0  0  0  0  0  0  0  0  0  0  0
   43.4250   35.7860   44.2150 N   0  0  0  0  0  0  0  0  0  0  0  0
   46.5950   32.2890   43.6620 C   0  0  0  0  0  0  0  0  0  0  0  0
   46.6780   31.2020   42.8010 C   0  0  0  0  0  0  0  0  0  0  0  0
   47.0020   29.9190   43.1770 C   0  0  0  0  0  0  0  0  0  0  0  0
   47.2720   29.6430   44.4930 C   0  0  0  0  0  0  0  0  0  0  0  0
   47.2140   30.6670   45.4320 C   0  0  0  0  0  0  0  0  0  0  0  0
   47.4850   30.3230   46.7350 C   0  0  0  0  0  0  0  0  0  0  0  0
   47.4200   31.3230   47.6740 C   0  0  0  0  0  0  0  0  0  0  0  0
   47.0940   32.6410   47.3310 C   0  0  0  0  0  0  0  0  0  0  0  0
   46.8340   32.8970   45.9810 C   0  0  0  0  0  0  0  0  0  0  0  0
   46.8830   31.9330   44.9910 C   0  0  0  0  0  0  0  0  0  0  0  0
   50.0395   35.4770   41.0434 H   0  0  0  0  0  0  0  0  0  0  0  0
   49.4071   36.4892   42.0263 H   0  0  0  0  0  0  0  0  0  0  0  0
   49.5285   34.4277   43.9567 H   0  0  0  0  0  0  0  0  0  0  0  0
   50.3974   33.5201   43.0245 H   0  0  0  0  0  0  0  0  0  0  0  0
   48.9323   34.4895   40.1491 H   0  0  0  0  0  0  0  0  0  0  0  0
   49.9673   32.8793   39.9063 H   0  0  0  0  0  0  0  0  0  0  0  0
   49.0383   31.9573   41.1934 H   0  0  0  0  0  0  0  0  0  0  0  0
   48.9953   31.0390   38.8185 H   0  0  0  0  0  0  0  0  0  0  0  0
   47.4375   31.2336   39.6956 H   0  0  0  0  0  0  0  0  0  0  0  0
   46.2237   33.8434   38.1183 H   0  0  0  0  0  0  0  0  0  0  0  0
   46.0561   32.3433   39.1782 H   0  0  0  0  0  0  0  0  0  0  0  0
   46.8747   35.0419   39.8254 H   0  0  0  0  0  0  0  0  0  0  0  0
   46.2412   33.6405   40.8360 H   0  0  0  0  0  0  0  0  0  0  0  0
   47.1584   36.6184   41.9110 H   0  0  0  0  0  0  0  0  0  0  0  0
   43.1113   36.7510   44.0380 H   0  0  0  0  0  0  0  0  0  0  0  0
   42.8430   35.1506   44.7793 H   0  0  0  0  0  0  0  0  0  0  0  0
   46.4684   31.3810   41.7361 H   0  0  0  0  0  0  0  0  0  0  0  0
   47.0444   29.1174   42.4249 H   0  0  0  0  0  0  0  0  0  0  0  0
   47.5322   28.6202   44.8031 H   0  0  0  0  0  0  0  0  0  0  0  0
   47.7430   29.2906   47.0137 H   0  0  0  0  0  0  0  0  0  0  0  0
   47.6302   31.0816   48.7264 H   0  0  0  0  0  0  0  0  0  0  0  0
   47.0447   33.4376   48.0880 H   0  0  0  0  0  0  0  0  0  0  0  0
   46.5753   33.9257   45.6896 H   0  0  0  0  0  0  0  0  0  0  0  0
  1 11  1  0
  1  3  1  0
  2  1  1  0
  2  3  1  0
  4  1  1  0
  5  4  1  0
  6  5  1  0
  7  8  1  0
  7  6  1  0
  8  9  1  0
  9  4  1  0
 10 11  2  0
 10 15  1  0
 11 12  1  0
 12 17  1  0
 12 13  2  0
 14 13  1  0
 14 16  1  0
 15 14  2  0
 17 26  2  0
 18 19  2  0
 18 17  1  0
 19 20  1  0
 20 21  2  0
 21 22  1  0
 22 23  2  0
 24 23  1  0
 25 24  2  0
 26 21  1  0
 26 25  1  0
  2 27  1  0
  2 28  1  0
  3 29  1  0
  3 30  1  0
  4 31  1  0
  5 32  1  0
  5 33  1  0
  6 34  1  0
  6 35  1  0
  8 36  1  0
  8 37  1  0
  9 38  1  0
  9 39  1  0
 10 40  1  0
 16 41  1  0
 16 42  1  0
 18 43  1  0
 19 44  1  0
 20 45  1  0
 22 46  1  0
 23 47  1  0
 24 48  1  0
 25 49  1  0
M  ISO  8  27  13  28  13  29  13  30  13  31  13  32  13  33  13  34  13
M  ISO  8  35  13  36  13  37  13  38  13  39  13  40  14  43  14  44  14
M  ISO  5  45  14  46  14  47  14  48  14  49  14
M  END
>  <minimizedAffinity>  (1) 
-6.12805748

>  <minimizedRMSD>  (1) 
1.44915438

$$$$
