
     RDKit          3D

 43 46  0  0  0  0  0  0  0  0999 V2000
   48.0650   34.5780   41.6960 C   0  0  0  0  0  0  0  0  0  0  0  0
   48.9290   35.8100   41.4420 C   0  0  0  0  0  0  0  0  0  0  0  0
   49.4600   34.6520   42.1220 C   0  0  0  0  0  0  0  0  0  0  0  0
   47.7280   33.8180   40.4620 C   0  0  0  0  0  0  0  0  0  0  0  0
   48.2160   34.4590   39.1610 C   0  0  0  0  0  0  0  0  0  0  0  0
   47.8820   33.4150   38.0860 C   0  0  0  0  0  0  0  0  0  0  0  0
   46.5120   33.4460   37.8940 O   0  0  0  0  0  0  0  0  0  0  0  0
   45.9920   32.8200   39.0500 C   0  0  0  0  0  0  0  0  0  0  0  0
   46.2230   33.7140   40.2570 C   0  0  0  0  0  0  0  0  0  0  0  0
   46.2220   35.9010   42.7770 C   0  0  0  0  0  0  0  0  0  0  0  0
   46.9810   34.7340   42.7280 C   0  0  0  0  0  0  0  0  0  0  0  0
   46.6920   33.7380   43.6750 C   0  0  0  0  0  0  0  0  0  0  0  0
   45.7010   33.9660   44.5760 N   0  0  0  0  0  0  0  0  0  0  0  0
   45.0070   35.1070   44.5730 C   0  0  0  0  0  0  0  0  0  0  0  0
   45.2540   36.0620   43.6960 N   0  0  0  0  0  0  0  0  0  0  0  0
   43.9750   35.3350   45.5150 N   0  0  0  0  0  0  0  0  0  0  0  0
   47.3870   32.4740   43.8080 C   0  0  0  0  0  0  0  0  0  0  0  0
   48.2640   31.7790   43.0090 C   0  0  0  0  0  0  0  0  0  0  0  0
   48.8180   30.5820   43.3830 C   0  0  0  0  0  0  0  0  0  0  0  0
   48.5370   29.9820   44.5910 C   0  0  0  0  0  0  0  0  0  0  0  0
   47.6620   30.6420   45.4270 C   0  0  0  0  0  0  0  0  0  0  0  0
   47.1150   31.8450   45.0340 C   0  0  0  0  0  0  0  0  0  0  0  0
   49.2603   36.0525   40.4215 H   0  0  0  0  0  0  0  0  0  0  0  0
   48.8496   36.8839   41.6666 H   0  0  0  0  0  0  0  0  0  0  0  0
   49.6948   34.7157   43.1948 H   0  0  0  0  0  0  0  0  0  0  0  0
   50.3383   34.0114   41.9537 H   0  0  0  0  0  0  0  0  0  0  0  0
   48.2249   32.8522   40.6364 H   0  0  0  0  0  0  0  0  0  0  0  0
   47.6861   35.4033   38.9673 H   0  0  0  0  0  0  0  0  0  0  0  0
   49.2862   34.7117   39.1884 H   0  0  0  0  0  0  0  0  0  0  0  0
   48.3994   33.6624   37.1473 H   0  0  0  0  0  0  0  0  0  0  0  0
   48.2085   32.4130   38.4014 H   0  0  0  0  0  0  0  0  0  0  0  0
   44.9130   32.6497   38.9209 H   0  0  0  0  0  0  0  0  0  0  0  0
   46.4992   31.8563   39.2049 H   0  0  0  0  0  0  0  0  0  0  0  0
   45.7983   34.7119   40.0731 H   0  0  0  0  0  0  0  0  0  0  0  0
   45.7363   33.2956   41.1503 H   0  0  0  0  0  0  0  0  0  0  0  0
   46.4179   36.7043   42.0516 H   0  0  0  0  0  0  0  0  0  0  0  0
   43.4494   36.2207   45.4988 H   0  0  0  0  0  0  0  0  0  0  0  0
   43.7498   34.6152   46.2165 H   0  0  0  0  0  0  0  0  0  0  0  0
   48.5322   32.2009   42.0292 H   0  0  0  0  0  0  0  0  0  0  0  0
   49.5131   30.0818   42.6926 H   0  0  0  0  0  0  0  0  0  0  0  0
   48.9900   29.0207   44.8752 H   0  0  0  0  0  0  0  0  0  0  0  0
   47.4010   30.2103   46.4045 H   0  0  0  0  0  0  0  0  0  0  0  0
   46.4205   32.3446   45.7255 H   0  0  0  0  0  0  0  0  0  0  0  0
  1  3  1  0
  1 11  1  0
  2  1  1  0
  2  3  1  0
  4  1  1  0
  5  4  1  0
  6  5  1  0
  7  6  1  0
  7  8  1  0
  8  9  1  0
  9  4  1  0
 10 15  2  0
 11 10  1  0
 11 12  2  0
 12 17  1  0
 12 13  1  0
 14 13  2  0
 14 16  1  0
 15 14  1  0
 17 22  2  0
 18 19  2  0
 18 17  1  0
 19 20  1  0
 20 21  2  0
 22 21  1  0
  2 23  1  0
  2 24  1  0
  3 25  1  0
  3 26  1  0
  4 27  1  0
  5 28  1  0
  5 29  1  0
  6 30  1  0
  6 31  1  0
  8 32  1  0
  8 33  1  0
  9 34  1  0
  9 35  1  0
 10 36  1  0
 16 37  1  0
 16 38  1  0
 18 39  1  0
 19 40  1  0
 20 41  1  0
 21 42  1  0
 22 43  1  0
M  ISO  8  23  13  24  13  25  13  26  13  27  13  28  13  29  13  30  13
M  ISO  8  31  13  32  13  33  13  34  13  35  13  36  14  39  14  40  14
M  ISO  3  41  14  42  14  43  14
M  END
>  <minimizedAffinity>  (1) 
-5.93988514

>  <minimizedRMSD>  (1) 
0.586445093

$$$$
