
     RDKit          3D

 39 41  0  0  0  0  0  0  0  0999 V2000
   48.0390   34.5900   41.7500 C   0  0  0  0  0  0  0  0  0  0  0  0
   48.8770   35.8160   41.4620 C   0  0  0  0  0  0  0  0  0  0  0  0
   49.4530   34.6510   42.1410 C   0  0  0  0  0  0  0  0  0  0  0  0
   47.6720   33.7760   40.5470 C   0  0  0  0  0  0  0  0  0  0  0  0
   48.1510   34.3550   39.2370 C   0  0  0  0  0  0  0  0  0  0  0  0
   47.7700   33.3050   38.1800 C   0  0  0  0  0  0  0  0  0  0  0  0
   46.3970   33.4150   38.0040 O   0  0  0  0  0  0  0  0  0  0  0  0
   45.8710   32.8060   39.1830 C   0  0  0  0  0  0  0  0  0  0  0  0
   46.1470   33.7370   40.3650 C   0  0  0  0  0  0  0  0  0  0  0  0
   46.1390   35.8130   42.8130 C   0  0  0  0  0  0  0  0  0  0  0  0
   47.0050   34.7080   42.8360 C   0  0  0  0  0  0  0  0  0  0  0  0
   46.8470   33.7780   43.8810 C   0  0  0  0  0  0  0  0  0  0  0  0
   45.8870   33.9760   44.8090 N   0  0  0  0  0  0  0  0  0  0  0  0
   45.0870   35.0590   44.7300 C   0  0  0  0  0  0  0  0  0  0  0  0
   45.1930   35.9700   43.7620 N   0  0  0  0  0  0  0  0  0  0  0  0
   44.0640   35.2950   45.6940 N   0  0  0  0  0  0  0  0  0  0  0  0
   47.7140   32.6960   43.8840 O   0  0  0  0  0  0  0  0  0  0  0  0
   48.3470   30.1720   44.3340 O   0  0  0  0  0  0  0  0  0  0  0  0
   47.3090   31.2200   44.6760 P   0  0  0  0  0  0  0  0  0  0  0  0
   47.3270   31.5070   46.3240 O   0  0  0  0  0  0  0  0  0  0  0  0
   45.7550   30.7010   44.1890 O   0  0  0  0  0  0  0  0  0  0  0  0
   49.1705   36.0547   40.4291 H   0  0  0  0  0  0  0  0  0  0  0  0
   48.7952   36.8905   41.6830 H   0  0  0  0  0  0  0  0  0  0  0  0
   49.7208   34.7190   43.2057 H   0  0  0  0  0  0  0  0  0  0  0  0
   50.3274   34.0105   41.9535 H   0  0  0  0  0  0  0  0  0  0  0  0
   48.1383   32.7996   40.7451 H   0  0  0  0  0  0  0  0  0  0  0  0
   47.6500   35.3122   39.0303 H   0  0  0  0  0  0  0  0  0  0  0  0
   49.2312   34.5625   39.2453 H   0  0  0  0  0  0  0  0  0  0  0  0
   48.2935   33.5084   37.2341 H   0  0  0  0  0  0  0  0  0  0  0  0
   48.0538   32.2916   38.5003 H   0  0  0  0  0  0  0  0  0  0  0  0
   44.7869   32.6555   39.0726 H   0  0  0  0  0  0  0  0  0  0  0  0
   46.3462   31.8281   39.3502 H   0  0  0  0  0  0  0  0  0  0  0  0
   45.7645   34.7459   40.1507 H   0  0  0  0  0  0  0  0  0  0  0  0
   45.6479   33.3782   41.2772 H   0  0  0  0  0  0  0  0  0  0  0  0
   46.2331   36.5601   42.0111 H   0  0  0  0  0  0  0  0  0  0  0  0
   43.4642   36.1286   45.6148 H   0  0  0  0  0  0  0  0  0  0  0  0
   43.9246   34.6320   46.4698 H   0  0  0  0  0  0  0  0  0  0  0  0
   47.2730   30.6459   46.8095 H   0  0  0  0  0  0  0  0  0  0  0  0
   45.2027   30.5166   44.9897 H   0  0  0  0  0  0  0  0  0  0  0  0
  1  3  1  0
  1 11  1  0
  2  1  1  0
  2  3  1  0
  4  1  1  0
  5  4  1  0
  6  5  1  0
  7  6  1  0
  7  8  1  0
  8  9  1  0
  9  4  1  0
 10 11  2  0
 10 15  1  0
 11 12  1  0
 12 17  1  0
 12 13  2  0
 14 13  1  0
 14 16  1  0
 15 14  2  0
 17 19  1  0
 18 19  2  0
 19 20  1  0
 21 19  1  0
  2 22  1  0
  2 23  1  0
  3 24  1  0
  3 25  1  0
  4 26  1  0
  5 27  1  0
  5 28  1  0
  6 29  1  0
  6 30  1  0
  8 31  1  0
  8 32  1  0
  9 33  1  0
  9 34  1  0
 10 35  1  0
 16 36  1  0
 16 37  1  0
 20 38  1  0
 21 39  1  0
M  ISO  8  22  13  23  13  24  13  25  13  26  13  27  13  28  13  29  13
M  ISO  8  30  13  31  13  32  13  33  13  34  13  35  14  38   3  39   3
M  END
>  <minimizedAffinity>  (1) 
-5.52760983

>  <minimizedRMSD>  (1) 
0.170687944

$$$$
