
     RDKit          3D

 49 52  0  0  0  0  0  0  0  0999 V2000
   47.9970   34.4140   41.7350 C   0  0  0  0  0  0  0  0  0  0  0  0
   48.9050   35.6150   41.4660 C   0  0  0  0  0  0  0  0  0  0  0  0
   49.3930   34.4150   42.1440 C   0  0  0  0  0  0  0  0  0  0  0  0
   47.5970   33.6980   40.4930 C   0  0  0  0  0  0  0  0  0  0  0  0
   48.1490   34.2900   39.1990 C   0  0  0  0  0  0  0  0  0  0  0  0
   47.7240   33.3200   38.0980 C   0  0  0  0  0  0  0  0  0  0  0  0
   46.3700   33.5150   37.8850 O   0  0  0  0  0  0  0  0  0  0  0  0
   45.7550   32.9390   39.0260 C   0  0  0  0  0  0  0  0  0  0  0  0
   46.0760   33.8000   40.2490 C   0  0  0  0  0  0  0  0  0  0  0  0
   46.2170   35.8360   42.8060 C   0  0  0  0  0  0  0  0  0  0  0  0
   46.9240   34.6340   42.7660 C   0  0  0  0  0  0  0  0  0  0  0  0
   46.6070   33.6340   43.7230 C   0  0  0  0  0  0  0  0  0  0  0  0
   45.6300   33.9060   44.6250 N   0  0  0  0  0  0  0  0  0  0  0  0
   44.9870   35.0800   44.6120 C   0  0  0  0  0  0  0  0  0  0  0  0
   45.2570   36.0320   43.7360 N   0  0  0  0  0  0  0  0  0  0  0  0
   43.9630   35.3690   45.5560 N   0  0  0  0  0  0  0  0  0  0  0  0
   47.3070   32.3640   43.7210 C   0  0  0  0  0  0  0  0  0  0  0  0
   46.4840   31.3850   42.8710 C   0  0  0  0  0  0  0  0  0  0  0  0
   46.2550   30.0930   43.6340 C   0  0  0  0  0  0  0  0  0  0  0  0
   47.5050   29.5820   44.2780 C   0  0  0  0  0  0  0  0  0  0  0  0
   47.9740   30.5510   45.3240 C   0  0  0  0  0  0  0  0  0  0  0  0
   47.2750   31.8740   45.1770 C   0  0  0  0  0  0  0  0  0  0  0  0
   49.2318   35.8453   40.4412 H   0  0  0  0  0  0  0  0  0  0  0  0
   48.8763   36.6913   41.6911 H   0  0  0  0  0  0  0  0  0  0  0  0
   49.6429   34.4624   43.2142 H   0  0  0  0  0  0  0  0  0  0  0  0
   50.2364   33.7323   41.9636 H   0  0  0  0  0  0  0  0  0  0  0  0
   47.9817   32.6843   40.6788 H   0  0  0  0  0  0  0  0  0  0  0  0
   47.7224   35.2878   39.0191 H   0  0  0  0  0  0  0  0  0  0  0  0
   49.2414   34.4130   39.2377 H   0  0  0  0  0  0  0  0  0  0  0  0
   48.2850   33.5275   37.1749 H   0  0  0  0  0  0  0  0  0  0  0  0
   47.9286   32.2799   38.3917 H   0  0  0  0  0  0  0  0  0  0  0  0
   44.6657   32.8992   38.8779 H   0  0  0  0  0  0  0  0  0  0  0  0
   46.1346   31.9180   39.1787 H   0  0  0  0  0  0  0  0  0  0  0  0
   45.7943   34.8460   40.0579 H   0  0  0  0  0  0  0  0  0  0  0  0
   45.5153   33.4523   41.1292 H   0  0  0  0  0  0  0  0  0  0  0  0
   46.4423   36.6280   42.0767 H   0  0  0  0  0  0  0  0  0  0  0  0
   43.4799   36.2783   45.5296 H   0  0  0  0  0  0  0  0  0  0  0  0
   43.7046   34.6690   46.2660 H   0  0  0  0  0  0  0  0  0  0  0  0
   48.3324   32.4435   43.3309 H   0  0  0  0  0  0  0  0  0  0  0  0
   47.0279   31.1659   41.9403 H   0  0  0  0  0  0  0  0  0  0  0  0
   45.5108   31.8419   42.6385 H   0  0  0  0  0  0  0  0  0  0  0  0
   45.5028   30.2732   44.4162 H   0  0  0  0  0  0  0  0  0  0  0  0
   45.9141   29.3342   42.9142 H   0  0  0  0  0  0  0  0  0  0  0  0
   47.3014   28.6084   44.7478 H   0  0  0  0  0  0  0  0  0  0  0  0
   48.2867   29.4693   43.5124 H   0  0  0  0  0  0  0  0  0  0  0  0
   47.7589   30.1381   46.3206 H   0  0  0  0  0  0  0  0  0  0  0  0
   49.0557   30.7077   45.2002 H   0  0  0  0  0  0  0  0  0  0  0  0
   47.7754   32.6165   45.8160 H   0  0  0  0  0  0  0  0  0  0  0  0
   46.2245   31.7467   45.4773 H   0  0  0  0  0  0  0  0  0  0  0  0
  1  3  1  0
  1 11  1  0
  2  1  1  0
  2  3  1  0
  4  1  1  0
  5  4  1  0
  6  5  1  0
  7  6  1  0
  7  8  1  0
  8  9  1  0
  9  4  1  0
 10 15  2  0
 11 10  1  0
 11 12  2  0
 12 13  1  0
 14 13  2  0
 14 16  1  0
 15 14  1  0
 17 12  1  0
 17 22  1  0
 18 19  1  0
 18 17  1  0
 19 20  1  0
 20 21  1  0
 22 21  1  0
  2 23  1  0
  2 24  1  0
  3 25  1  0
  3 26  1  0
  4 27  1  0
  5 28  1  0
  5 29  1  0
  6 30  1  0
  6 31  1  0
  8 32  1  0
  8 33  1  0
  9 34  1  0
  9 35  1  0
 10 36  1  0
 16 37  1  0
 16 38  1  0
 17 39  1  0
 18 40  1  0
 18 41  1  0
 19 42  1  0
 19 43  1  0
 20 44  1  0
 20 45  1  0
 21 46  1  0
 21 47  1  0
 22 48  1  0
 22 49  1  0
M  ISO  8  23  13  24  13  25  13  26  13  27  13  28  13  29  13  30  13
M  ISO  8  31  13  32  13  33  13  34  13  35  13  36  14  39  13  40  13
M  ISO  8  41  13  42  13  43  13  44  13  45  13  46  13  47  13  48  13
M  ISO  1  49  13
M  END
>  <minimizedAffinity>  (1) 
-5.43694019

>  <minimizedRMSD>  (1) 
1.29417574

$$$$
