
     RDKit          3D

 34 36  0  0  0  0  0  0  0  0999 V2000
   48.0120   34.5930   41.6640 C   0  0  0  0  0  0  0  0  0  0  0  0
   48.8560   35.8020   41.3780 C   0  0  0  0  0  0  0  0  0  0  0  0
   49.4360   34.6420   42.0440 C   0  0  0  0  0  0  0  0  0  0  0  0
   47.6340   33.7660   40.4740 C   0  0  0  0  0  0  0  0  0  0  0  0
   48.1370   34.3390   39.1590 C   0  0  0  0  0  0  0  0  0  0  0  0
   47.7520   33.3070   38.1010 C   0  0  0  0  0  0  0  0  0  0  0  0
   46.3680   33.4080   37.9190 O   0  0  0  0  0  0  0  0  0  0  0  0
   45.8320   32.8170   39.0940 C   0  0  0  0  0  0  0  0  0  0  0  0
   46.1130   33.7400   40.2800 C   0  0  0  0  0  0  0  0  0  0  0  0
   46.1800   35.8160   42.8030 C   0  0  0  0  0  0  0  0  0  0  0  0
   47.0020   34.6940   42.7590 C   0  0  0  0  0  0  0  0  0  0  0  0
   46.8130   33.7270   43.7670 C   0  0  0  0  0  0  0  0  0  0  0  0
   45.8600   33.9390   44.7050 N   0  0  0  0  0  0  0  0  0  0  0  0
   45.0990   35.0410   44.6940 C   0  0  0  0  0  0  0  0  0  0  0  0
   45.2490   35.9770   43.7570 N   0  0  0  0  0  0  0  0  0  0  0  0
   44.1060   35.2470   45.6840 N   0  0  0  0  0  0  0  0  0  0  0  0
   47.8570   32.2980   43.7120 S   0  0  0  0  0  0  0  0  0  0  0  0
   49.1409   36.0424   40.3431 H   0  0  0  0  0  0  0  0  0  0  0  0
   48.7823   36.8756   41.6061 H   0  0  0  0  0  0  0  0  0  0  0  0
   49.7153   34.7058   43.1060 H   0  0  0  0  0  0  0  0  0  0  0  0
   50.3062   33.9986   41.8472 H   0  0  0  0  0  0  0  0  0  0  0  0
   48.0751   32.7810   40.6867 H   0  0  0  0  0  0  0  0  0  0  0  0
   47.6547   35.3051   38.9493 H   0  0  0  0  0  0  0  0  0  0  0  0
   49.2211   34.5241   39.1784 H   0  0  0  0  0  0  0  0  0  0  0  0
   48.2742   33.5205   37.1567 H   0  0  0  0  0  0  0  0  0  0  0  0
   48.0342   32.2926   38.4195 H   0  0  0  0  0  0  0  0  0  0  0  0
   44.7463   32.6830   38.9786 H   0  0  0  0  0  0  0  0  0  0  0  0
   46.2976   31.8352   39.2651 H   0  0  0  0  0  0  0  0  0  0  0  0
   45.7415   34.7532   40.0670 H   0  0  0  0  0  0  0  0  0  0  0  0
   45.6065   33.3799   41.1876 H   0  0  0  0  0  0  0  0  0  0  0  0
   46.2964   36.5937   42.0338 H   0  0  0  0  0  0  0  0  0  0  0  0
   43.5276   36.0990   45.6638 H   0  0  0  0  0  0  0  0  0  0  0  0
   43.9627   34.5447   46.4237 H   0  0  0  0  0  0  0  0  0  0  0  0
   48.1499   31.8970   44.9888 H   0  0  0  0  0  0  0  0  0  0  0  0
  1  3  1  0
  1 11  1  0
  2  1  1  0
  2  3  1  0
  4  1  1  0
  5  4  1  0
  6  5  1  0
  7  6  1  0
  7  8  1  0
  8  9  1  0
  9  4  1  0
 10 15  2  0
 11 10  1  0
 11 12  2  0
 12 13  1  0
 14 13  2  0
 14 16  1  0
 15 14  1  0
 17 12  1  0
  2 18  1  0
  2 19  1  0
  3 20  1  0
  3 21  1  0
  4 22  1  0
  5 23  1  0
  5 24  1  0
  6 25  1  0
  6 26  1  0
  8 27  1  0
  8 28  1  0
  9 29  1  0
  9 30  1  0
 10 31  1  0
 16 32  1  0
 16 33  1  0
 17 34  1  0
M  ISO  8  18  13  19  13  20  13  21  13  22  13  23  13  24  13  25  13
M  ISO  7  26  13  27  13  28  13  29  13  30  13  31  14  34  11
M  END
>  <minimizedAffinity>  (1) 
-5.40672398

>  <minimizedRMSD>  (1) 
0.15704532

$$$$
