
     RDKit          3D

 46 49  0  0  0  0  0  0  0  0999 V2000
   48.0880   33.5600   42.0540 C   0  0  0  0  0  0  0  0  0  0  0  0
   49.3970   34.0710   42.6520 C   0  0  0  0  0  0  0  0  0  0  0  0
   48.9440   32.7080   42.9050 C   0  0  0  0  0  0  0  0  0  0  0  0
   48.1440   33.3650   40.5850 C   0  0  0  0  0  0  0  0  0  0  0  0
   48.1710   34.6510   39.7600 C   0  0  0  0  0  0  0  0  0  0  0  0
   48.3580   34.1930   38.3160 C   0  0  0  0  0  0  0  0  0  0  0  0
   47.1900   33.5970   37.8900 O   0  0  0  0  0  0  0  0  0  0  0  0
   47.1370   32.3650   38.5920 C   0  0  0  0  0  0  0  0  0  0  0  0
   46.8970   32.6550   40.0700 C   0  0  0  0  0  0  0  0  0  0  0  0
   46.5170   35.4680   42.4320 C   0  0  0  0  0  0  0  0  0  0  0  0
   46.8360   34.1220   42.6330 C   0  0  0  0  0  0  0  0  0  0  0  0
   45.9350   33.3650   43.3990 C   0  0  0  0  0  0  0  0  0  0  0  0
   44.8260   33.9460   43.8990 N   0  0  0  0  0  0  0  0  0  0  0  0
   44.5750   35.2370   43.6730 C   0  0  0  0  0  0  0  0  0  0  0  0
   45.3840   35.9980   42.9600 N   0  0  0  0  0  0  0  0  0  0  0  0
   43.4150   35.8820   44.1700 N   0  0  0  0  0  0  0  0  0  0  0  0
   46.5160   31.4640   44.9330 C   0  0  0  0  0  0  0  0  0  0  0  0
   46.1630   31.9630   43.6970 C   0  0  0  0  0  0  0  0  0  0  0  0
   45.9720   31.0560   42.6790 C   0  0  0  0  0  0  0  0  0  0  0  0
   46.1180   29.6800   42.8430 C   0  0  0  0  0  0  0  0  0  0  0  0
   46.4750   29.2010   44.0970 C   0  0  0  0  0  0  0  0  0  0  0  0
   46.6720   30.1110   45.1430 C   0  0  0  0  0  0  0  0  0  0  0  0
   46.7830   32.6150   46.2380 S   0  0  0  0  0  0  0  0  0  0  0  0
   45.4890   32.9850   46.9060 O   0  0  0  0  0  0  0  0  0  0  0  0
   47.6440   31.9390   47.2900 O   0  0  0  0  0  0  0  0  0  0  0  0
   50.2666   34.2522   42.0033 H   0  0  0  0  0  0  0  0  0  0  0  0
   49.6893   34.9269   43.2781 H   0  0  0  0  0  0  0  0  0  0  0  0
   48.6009   32.4286   43.9121 H   0  0  0  0  0  0  0  0  0  0  0  0
   49.4020   31.7165   42.7740 H   0  0  0  0  0  0  0  0  0  0  0  0
   49.0788   32.7991   40.4590 H   0  0  0  0  0  0  0  0  0  0  0  0
   47.2250   35.2011   39.8712 H   0  0  0  0  0  0  0  0  0  0  0  0
   48.9723   35.3316   40.0836 H   0  0  0  0  0  0  0  0  0  0  0  0
   48.5858   35.0600   37.6785 H   0  0  0  0  0  0  0  0  0  0  0  0
   49.1906   33.4768   38.2532 H   0  0  0  0  0  0  0  0  0  0  0  0
   46.3155   31.7490   38.1974 H   0  0  0  0  0  0  0  0  0  0  0  0
   48.0843   31.8203   38.4657 H   0  0  0  0  0  0  0  0  0  0  0  0
   46.0153   33.3015   40.1912 H   0  0  0  0  0  0  0  0  0  0  0  0
   46.7102   31.7269   40.6302 H   0  0  0  0  0  0  0  0  0  0  0  0
   47.1910   36.1045   41.8398 H   0  0  0  0  0  0  0  0  0  0  0  0
   43.2571   36.8807   43.9738 H   0  0  0  0  0  0  0  0  0  0  0  0
   42.7299   35.3520   44.7274 H   0  0  0  0  0  0  0  0  0  0  0  0
   45.6900   31.4367   41.6863 H   0  0  0  0  0  0  0  0  0  0  0  0
   45.9548   28.9909   42.0012 H   0  0  0  0  0  0  0  0  0  0  0  0
   46.6013   28.1214   44.2661 H   0  0  0  0  0  0  0  0  0  0  0  0
   46.9536   29.7428   46.1405 H   0  0  0  0  0  0  0  0  0  0  0  0
   47.3698   33.7377   45.7164 H   0  0  0  0  0  0  0  0  0  0  0  0
  1 11  1  0
  1  2  1  0
  1  3  1  0
  2  3  1  0
  4  1  1  0
  5  4  1  0
  6  5  1  0
  7  6  1  0
  7  8  1  0
  8  9  1  0
  9  4  1  0
 10 11  2  0
 10 15  1  0
 11 12  1  0
 12 18  1  0
 12 13  2  0
 14 13  1  0
 14 16  1  0
 15 14  2  0
 17 22  2  0
 17 23  1  0
 18 17  1  0
 19 20  1  0
 19 18  2  0
 20 21  2  0
 21 22  1  0
 23 24  2  0
 23 25  2  0
  2 26  1  0
  2 27  1  0
  3 28  1  0
  3 29  1  0
  4 30  1  0
  5 31  1  0
  5 32  1  0
  6 33  1  0
  6 34  1  0
  8 35  1  0
  8 36  1  0
  9 37  1  0
  9 38  1  0
 10 39  1  0
 16 40  1  0
 16 41  1  0
 19 42  1  0
 20 43  1  0
 21 44  1  0
 22 45  1  0
 23 46  1  0
M  ISO  8  26  13  27  13  28  13  29  13  30  13  31  13  32  13  33  13
M  ISO  8  34  13  35  13  36  13  37  13  38  13  39  14  42  14  43  14
M  ISO  3  44  14  45  14  46  11
M  END
>  <minimizedAffinity>  (1) 
-5.25760603

>  <minimizedRMSD>  (1) 
1.82184088

$$$$
