
     RDKit          3D

 20 21  0  0  0  0  0  0  0  0999 V2000
   44.4980   35.9290   44.6650 C   0  0  0  0  0  0  0  0  0  0  0  0
   45.2140   35.8370   43.4540 C   0  0  0  0  0  0  0  0  0  0  0  0
   46.1280   34.7680   43.3450 C   0  0  0  0  0  0  0  0  0  0  0  0
   46.2650   33.9090   44.3850 N   0  0  0  0  0  0  0  0  0  0  0  0
   45.5410   34.0570   45.5290 C   0  0  0  0  0  0  0  0  0  0  0  0
   44.6690   35.0570   45.6640 N   0  0  0  0  0  0  0  0  0  0  0  0
   46.8590   34.7000   42.0670 C   0  0  0  0  0  0  0  0  0  0  0  0
   47.6730   33.5800   42.0800 F   0  0  0  0  0  0  0  0  0  0  0  0
   47.7310   35.7800   42.0500 F   0  0  0  0  0  0  0  0  0  0  0  0
   46.0460   34.6500   40.9810 F   0  0  0  0  0  0  0  0  0  0  0  0
   45.7530   33.0650   46.6280 C   0  0  0  0  0  0  0  0  0  0  0  0
   47.0580   32.4320   46.8650 C   0  0  0  0  0  0  0  0  0  0  0  0
   46.0360   31.6640   46.0850 C   0  0  0  0  0  0  0  0  0  0  0  0
   43.7734   36.7467   44.7924 H   0  0  0  0  0  0  0  0  0  0  0  0
   45.0678   36.5600   42.6379 H   0  0  0  0  0  0  0  0  0  0  0  0
   45.0619   33.5724   47.3172 H   0  0  0  0  0  0  0  0  0  0  0  0
   47.9521   32.8208   46.3557 H   0  0  0  0  0  0  0  0  0  0  0  0
   47.6534   32.2187   47.7650 H   0  0  0  0  0  0  0  0  0  0  0  0
   45.5431   30.7865   46.5289 H   0  0  0  0  0  0  0  0  0  0  0  0
   45.9980   31.1775   45.0992 H   0  0  0  0  0  0  0  0  0  0  0  0
  1  6  2  0
  2  1  1  0
  3  2  2  0
  3  4  1  0
  4  5  2  0
  5  6  1  0
  5 11  1  0
  7  8  1  0
  7  3  1  0
  9  7  1  0
 10  7  1  0
 11 12  1  0
 13 11  1  0
 13 12  1  0
  1 14  1  0
  2 15  1  0
 11 16  1  0
 12 17  1  0
 12 18  1  0
 13 19  1  0
 13 20  1  0
M  ISO  7  14  14  15  14  16  13  17  13  18  13  19  13  20  13
M  END
>  <minimizedAffinity>  (1) 
-4.47291327

>  <minimizedRMSD>  (1) 
0.556874037

$$$$
