
     RDKit          3D

 15 15  0  0  0  0  0  0  0  0999 V2000
   44.5380   36.1960   44.3810 C   0  0  0  0  0  0  0  0  0  0  0  0
   45.3210   35.9810   43.2260 C   0  0  0  0  0  0  0  0  0  0  0  0
   46.1600   34.8600   43.1980 C   0  0  0  0  0  0  0  0  0  0  0  0
   46.1700   34.0430   44.2900 N   0  0  0  0  0  0  0  0  0  0  0  0
   45.4070   34.2790   45.3790 C   0  0  0  0  0  0  0  0  0  0  0  0
   44.6000   35.3480   45.4210 N   0  0  0  0  0  0  0  0  0  0  0  0
   45.4680   33.3850   46.4860 N   0  0  0  0  0  0  0  0  0  0  0  0
   46.9460   34.6850   41.9830 C   0  0  0  0  0  0  0  0  0  0  0  0
   47.7170   33.5360   42.1130 F   0  0  0  0  0  0  0  0  0  0  0  0
   47.8480   35.7450   41.9420 F   0  0  0  0  0  0  0  0  0  0  0  0
   46.2090   34.5880   40.8520 F   0  0  0  0  0  0  0  0  0  0  0  0
   43.8694   37.0681   44.4298 H   0  0  0  0  0  0  0  0  0  0  0  0
   45.2734   36.6738   42.3729 H   0  0  0  0  0  0  0  0  0  0  0  0
   44.8892   33.5581   47.3202 H   0  0  0  0  0  0  0  0  0  0  0  0
   46.0909   32.5654   46.4524 H   0  0  0  0  0  0  0  0  0  0  0  0
  1  6  2  0
  2  1  1  0
  3  2  2  0
  3  4  1  0
  4  5  2  0
  5  6  1  0
  5  7  1  0
  8  9  1  0
  8  3  1  0
 10  8  1  0
 11  8  1  0
  1 12  1  0
  2 13  1  0
  7 14  1  0
  7 15  1  0
M  ISO  2  12  14  13  14
M  END
>  <minimizedAffinity>  (1) 
-4.33169365

>  <minimizedRMSD>  (1) 
0.218467295

$$$$
