
     RDKit          3D

 54 59  0  0  1  0  0  0  0  0999 V2000
   45.8540   35.4930   42.9850 C   0  0  0  0  0  0  0  0  0  0  0  0
   46.5050   34.2690   42.9410 C   0  0  0  0  0  0  0  0  0  0  0  0
   46.3480   33.4370   44.0450 C   0  0  0  0  0  0  0  0  0  0  0  0
   45.5920   33.8200   45.1040 N   0  0  0  0  0  0  0  0  0  0  0  0
   44.9900   35.0210   45.0780 C   0  0  0  0  0  0  0  0  0  0  0  0
   45.1130   35.8420   44.0500 N   0  0  0  0  0  0  0  0  0  0  0  0
   44.1790   35.4800   46.1640 N   0  0  0  0  0  0  0  0  0  0  0  0
   47.3350   33.8860   41.7580 C   0  0  0  0  0  0  0  0  0  0  0  0
   47.9920   35.0420   41.0020 C   0  0  0  0  0  0  0  0  0  0  0  0
   48.7670   34.0950   41.7750 C   0  0  0  0  0  0  0  0  0  0  0  0
   46.7810   32.8300   40.8580 C   0  0  0  0  0  0  0  0  0  0  0  0
   47.8130   31.8530   40.3160 C   0  0  0  0  0  0  0  0  0  0  0  0
   46.9760   30.8120   39.5480 C   0  0  0  0  0  0  0  0  0  0  0  0
   46.5990   31.4320   38.3490 O   0  0  0  0  0  0  0  0  0  0  0  0
   45.5700   32.3160   38.7770 C   0  0  0  0  0  0  0  0  0  0  0  0
   46.1750   33.4450   39.5920 C   0  0  0  0  0  0  0  0  0  0  0  0
   47.0130   32.1560   44.1490 C   0  0  0  0  0  0  0  0  0  0  0  0
   48.2340   31.8630   43.9380 O   0  0  0  0  0  0  0  0  0  0  0  0
   45.7950   31.2880   47.9290 C   0  0  0  0  0  0  0  0  0  0  0  0
   45.1280   30.2180   47.1420 C   0  0  0  0  0  0  0  0  0  0  0  0
   45.6930   30.1640   45.8350 N   0  0  0  0  0  0  0  0  0  0  0  0
   45.7590   30.0700   44.4310 C   0  0  0  0  0  0  0  0  0  0  0  0
   45.0150   29.6280   43.4930 O   0  0  0  0  0  0  0  0  0  0  0  0
   47.1020   30.7120   44.4120 C   0  0  2  0  0  0  0  0  0  0  0  0
   47.1180   30.2590   45.8580 C   0  0  1  0  0  0  0  0  0  0  0  0
   47.3370   31.6470   47.0390 S   0  0  0  0  0  0  0  0  0  0  0  0
   44.9840   32.5220   48.1720 C   0  0  0  0  0  0  0  0  0  0  0  0
   46.2070   30.6480   49.2620 C   0  0  0  0  0  0  0  0  0  0  0  0
   45.9456   36.1872   42.1367 H   0  0  0  0  0  0  0  0  0  0  0  0
   43.7299   36.4057   46.1160 H   0  0  0  0  0  0  0  0  0  0  0  0
   44.0444   34.8847   46.9937 H   0  0  0  0  0  0  0  0  0  0  0  0
   48.0384   35.0315   39.9030 H   0  0  0  0  0  0  0  0  0  0  0  0
   47.8779   36.1358   40.9795 H   0  0  0  0  0  0  0  0  0  0  0  0
   49.2524   34.4270   42.7046 H   0  0  0  0  0  0  0  0  0  0  0  0
   49.6266   33.4511   41.5376 H   0  0  0  0  0  0  0  0  0  0  0  0
   46.0548   32.3127   41.5023 H   0  0  0  0  0  0  0  0  0  0  0  0
   48.5171   32.3625   39.6418 H   0  0  0  0  0  0  0  0  0  0  0  0
   48.4249   31.4006   41.1103 H   0  0  0  0  0  0  0  0  0  0  0  0
   47.5772   29.9141   39.3420 H   0  0  0  0  0  0  0  0  0  0  0  0
   46.0995   30.4897   40.1293 H   0  0  0  0  0  0  0  0  0  0  0  0
   45.0567   32.7332   37.8981 H   0  0  0  0  0  0  0  0  0  0  0  0
   44.8484   31.7638   39.3970 H   0  0  0  0  0  0  0  0  0  0  0  0
   46.9586   33.9505   39.0086 H   0  0  0  0  0  0  0  0  0  0  0  0
   45.4066   34.1875   39.8531 H   0  0  0  0  0  0  0  0  0  0  0  0
   47.2458   32.3625   45.2041 H   0  0  0  0  0  0  0  0  0  0  0  0
   45.2728   29.2499   47.6438 H   0  0  0  0  0  0  0  0  0  0  0  0
   44.0525   30.4361   47.0666 H   0  0  0  0  0  0  0  0  0  0  0  0
   47.8322   29.4647   46.1207 H   0  0  0  0  0  0  0  0  0  0  0  0
   44.8778   32.6836   49.2549 H   0  0  0  0  0  0  0  0  0  0  0  0
   45.4896   33.3880   47.7199 H   0  0  0  0  0  0  0  0  0  0  0  0
   43.9885   32.4014   47.7199 H   0  0  0  0  0  0  0  0  0  0  0  0
   45.8179   31.2524   50.0947 H   0  0  0  0  0  0  0  0  0  0  0  0
   45.7940   29.6303   49.3233 H   0  0  0  0  0  0  0  0  0  0  0  0
   47.3044   30.6026   49.3233 H   0  0  0  0  0  0  0  0  0  0  0  0
  1  6  2  0
  2  1  1  0
  2  3  2  0
  3  4  1  0
  5  4  2  0
  5  7  1  0
  6  5  1  0
  8 10  1  0
  8  2  1  0
  9  8  1  0
  9 10  1  0
 11  8  1  0
 12 11  1  0
 13 12  1  0
 14 15  1  0
 14 13  1  0
 15 16  1  0
 16 11  1  0
 17  3  1  0
 17 24  1  0
 18 17  1  0
 19 27  1  0
 19 28  1  0
 20 19  1  0
 21 25  1  0
 21 20  1  0
 22 21  1  0
 23 22  2  0
 24 18  1  6
 24 22  1  0
 24 25  1  0
 25 26  1  0
 26 19  1  0
  1 29  1  0
  7 30  1  0
  7 31  1  0
  9 32  1  0
  9 33  1  0
 10 34  1  0
 10 35  1  0
 11 36  1  0
 12 37  1  0
 12 38  1  0
 13 39  1  0
 13 40  1  0
 15 41  1  0
 15 42  1  0
 16 43  1  0
 16 44  1  0
 17 45  1  0
 20 46  1  0
 20 47  1  0
 25 48  1  6
 27 49  1  0
 27 50  1  0
 27 51  1  0
 28 52  1  0
 28 53  1  0
 28 54  1  0
M  ISO  8  29  14  32  13  33  13  34  13  35  13  36  13  37  13  38  13
M  ISO  8  39  13  40  13  41  13  42  13  43  13  44  13  45  13  46  13
M  ISO  8  47  13  48  13  49   8  50   8  51   8  52   8  53   8  54   8
M  END
>  <minimizedAffinity>  (1) 
-5.94003916

>  <minimizedRMSD>  (1) 
4.21559668

$$$$
