
     RDKit          3D

 47 50  0  0  1  0  0  0  0  0999 V2000
   48.3000   33.7030   41.9960 C   0  0  0  0  0  0  0  0  0  0  0  0
   49.5740   34.4090   42.4230 C   0  0  0  0  0  0  0  0  0  0  0  0
   49.2810   33.0210   42.7830 C   0  0  0  0  0  0  0  0  0  0  0  0
   48.2530   33.4340   40.5210 C   0  0  0  0  0  0  0  0  0  0  0  0
   48.1550   34.6680   39.6430 C   0  0  0  0  0  0  0  0  0  0  0  0
   48.2500   34.1600   38.2090 C   0  0  0  0  0  0  0  0  0  0  0  0
   47.0160   33.5760   37.9090 O   0  0  0  0  0  0  0  0  0  0  0  0
   47.0690   32.3600   38.6360 C   0  0  0  0  0  0  0  0  0  0  0  0
   46.9810   32.6610   40.1280 C   0  0  0  0  0  0  0  0  0  0  0  0
   46.6360   35.5230   42.4310 C   0  0  0  0  0  0  0  0  0  0  0  0
   47.0460   34.1950   42.6150 C   0  0  0  0  0  0  0  0  0  0  0  0
   46.2240   33.3930   43.4020 C   0  0  0  0  0  0  0  0  0  0  0  0
   45.0910   33.9050   43.9480 N   0  0  0  0  0  0  0  0  0  0  0  0
   44.7610   35.1890   43.7290 C   0  0  0  0  0  0  0  0  0  0  0  0
   45.4990   35.9910   42.9950 N   0  0  0  0  0  0  0  0  0  0  0  0
   43.5760   35.7610   44.2930 N   0  0  0  0  0  0  0  0  0  0  0  0
   46.5480   32.0240   43.7060 C   0  0  0  0  0  0  0  0  0  0  0  0
   46.2750   30.9870   42.9790 O   0  0  0  0  0  0  0  0  0  0  0  0
   46.0200   32.4620   46.3320 F   0  0  0  0  0  0  0  0  0  0  0  0
   46.9280   31.4580   46.0700 C   0  0  0  0  0  0  0  0  0  0  0  0
   47.1870   31.2000   44.7240 C   0  0  0  0  0  0  0  0  0  0  0  0
   48.1010   30.1840   44.5440 C   0  0  0  0  0  0  0  0  0  0  0  0
   48.6830   29.5110   45.6170 C   0  0  0  0  0  0  0  0  0  0  0  0
   48.3540   29.8480   46.8920 C   0  0  0  0  0  0  0  0  0  0  0  0
   47.4610   30.8360   47.1810 C   0  0  0  0  0  0  0  0  0  0  0  0
   50.3570   34.6401   41.6857 H   0  0  0  0  0  0  0  0  0  0  0  0
   49.8256   35.3328   42.9646 H   0  0  0  0  0  0  0  0  0  0  0  0
   49.0553   32.7700   43.8299 H   0  0  0  0  0  0  0  0  0  0  0  0
   49.8274   32.0743   42.6599 H   0  0  0  0  0  0  0  0  0  0  0  0
   49.1977   32.8951   40.3567 H   0  0  0  0  0  0  0  0  0  0  0  0
   47.1952   35.1799   39.8061 H   0  0  0  0  0  0  0  0  0  0  0  0
   48.9496   35.3937   39.8710 H   0  0  0  0  0  0  0  0  0  0  0  0
   48.4510   34.9960   37.5229 H   0  0  0  0  0  0  0  0  0  0  0  0
   49.0693   33.4342   38.0990 H   0  0  0  0  0  0  0  0  0  0  0  0
   46.2262   31.7180   38.3403 H   0  0  0  0  0  0  0  0  0  0  0  0
   48.0150   31.8421   38.4196 H   0  0  0  0  0  0  0  0  0  0  0  0
   46.0907   33.2728   40.3356 H   0  0  0  0  0  0  0  0  0  0  0  0
   46.9002   31.7290   40.7067 H   0  0  0  0  0  0  0  0  0  0  0  0
   47.2505   36.1972   41.8163 H   0  0  0  0  0  0  0  0  0  0  0  0
   43.3436   36.7478   44.1112 H   0  0  0  0  0  0  0  0  0  0  0  0
   42.9558   35.1857   44.8806 H   0  0  0  0  0  0  0  0  0  0  0  0
   45.5858   31.9120   44.2271 H   0  0  0  0  0  0  0  0  0  0  0  0
   46.0721   30.2163   43.5664 H   0  0  0  0  0  0  0  0  0  0  0  0
   48.3802   29.8948   43.5201 H   0  0  0  0  0  0  0  0  0  0  0  0
   49.4095   28.7061   45.4317 H   0  0  0  0  0  0  0  0  0  0  0  0
   48.8265   29.3025   47.7221 H   0  0  0  0  0  0  0  0  0  0  0  0
   47.1887   31.1136   48.2100 H   0  0  0  0  0  0  0  0  0  0  0  0
  1  2  1  0
  1 11  1  0
  1  3  1  0
  2  3  1  0
  4  1  1  0
  5  4  1  0
  6  5  1  0
  7  6  1  0
  7  8  1  0
  8  9  1  0
  9  4  1  0
 10 11  2  0
 10 15  1  0
 11 12  1  0
 12 17  1  0
 12 13  2  0
 14 13  1  0
 14 16  1  0
 15 14  2  0
 17 18  1  0
 17 21  1  0
 20 19  1  0
 20 25  2  0
 21 20  1  0
 22 21  2  0
 22 23  1  0
 23 24  2  0
 24 25  1  0
  2 26  1  0
  2 27  1  0
  3 28  1  0
  3 29  1  0
  4 30  1  0
  5 31  1  0
  5 32  1  0
  6 33  1  0
  6 34  1  0
  8 35  1  0
  8 36  1  0
  9 37  1  0
  9 38  1  0
 10 39  1  0
 16 40  1  0
 16 41  1  0
 17 42  1  0
 18 43  1  0
 22 44  1  0
 23 45  1  0
 24 46  1  0
 25 47  1  0
M  ISO  8  26  13  27  13  28  13  29  13  30  13  31  13  32  13  33  13
M  ISO  8  34  13  35  13  36  13  37  13  38  13  39  14  42   8  43   3
M  ISO  4  44  14  45  14  46  14  47  14
M  END
>  <minimizedAffinity>  (1) 
-5.5949502

>  <minimizedRMSD>  (1) 
2.37912345

$$$$
