
     RDKit          3D

 49 53  0  0  1  0  0  0  0  0999 V2000
   48.0060   34.4080   41.6000 C   0  0  0  0  0  0  0  0  0  0  0  0
   48.9130   35.6180   41.3360 C   0  0  0  0  0  0  0  0  0  0  0  0
   49.3810   34.4270   42.0440 C   0  0  0  0  0  0  0  0  0  0  0  0
   47.6300   33.6780   40.3630 C   0  0  0  0  0  0  0  0  0  0  0  0
   48.1200   34.3100   39.0720 C   0  0  0  0  0  0  0  0  0  0  0  0
   47.7440   33.2950   37.9780 C   0  0  0  0  0  0  0  0  0  0  0  0
   46.3630   33.4360   37.7800 O   0  0  0  0  0  0  0  0  0  0  0  0
   45.8160   32.8080   38.9310 C   0  0  0  0  0  0  0  0  0  0  0  0
   46.0930   33.6730   40.1560 C   0  0  0  0  0  0  0  0  0  0  0  0
   46.2420   35.8900   42.6420 C   0  0  0  0  0  0  0  0  0  0  0  0
   46.8970   34.6710   42.5840 C   0  0  0  0  0  0  0  0  0  0  0  0
   46.4950   33.6990   43.4930 C   0  0  0  0  0  0  0  0  0  0  0  0
   45.4960   33.9620   44.3920 N   0  0  0  0  0  0  0  0  0  0  0  0
   44.9160   35.1620   44.3830 C   0  0  0  0  0  0  0  0  0  0  0  0
   45.2640   36.1080   43.5420 N   0  0  0  0  0  0  0  0  0  0  0  0
   43.8720   35.4920   45.2980 N   0  0  0  0  0  0  0  0  0  0  0  0
   47.1520   32.4120   43.6020 C   0  0  0  0  0  0  0  0  0  0  0  0
   47.2660   31.4920   42.7590 O   0  0  0  0  0  0  0  0  0  0  0  0
   47.9200   31.3320   44.2620 C   0  0  0  0  0  0  0  0  0  0  0  0
   47.4170   31.0210   45.6700 C   0  0  0  0  0  0  0  0  0  0  0  0
   46.5380   29.8270   45.7670 C   0  0  0  0  0  0  0  0  0  0  0  0
   47.1780   28.6500   45.3650 O   0  0  0  0  0  0  0  0  0  0  0  0
   48.2720   28.9510   44.5470 C   0  0  0  0  0  0  0  0  0  0  0  0
   47.8670   30.0060   43.5230 C   0  0  0  0  0  0  0  0  0  0  0  0
   49.2681   35.8358   40.3179 H   0  0  0  0  0  0  0  0  0  0  0  0
   48.8730   36.6976   41.5431 H   0  0  0  0  0  0  0  0  0  0  0  0
   49.5994   34.4903   43.1202 H   0  0  0  0  0  0  0  0  0  0  0  0
   50.2319   33.7459   41.8957 H   0  0  0  0  0  0  0  0  0  0  0  0
   48.0836   32.6895   40.5274 H   0  0  0  0  0  0  0  0  0  0  0  0
   47.6195   35.2737   38.8966 H   0  0  0  0  0  0  0  0  0  0  0  0
   49.1994   34.5208   39.0933 H   0  0  0  0  0  0  0  0  0  0  0  0
   48.2882   33.5159   37.0480 H   0  0  0  0  0  0  0  0  0  0  0  0
   48.0066   32.2683   38.2727 H   0  0  0  0  0  0  0  0  0  0  0  0
   44.7300   32.6885   38.8034 H   0  0  0  0  0  0  0  0  0  0  0  0
   46.2780   31.8189   39.0660 H   0  0  0  0  0  0  0  0  0  0  0  0
   45.7305   34.6975   39.9859 H   0  0  0  0  0  0  0  0  0  0  0  0
   45.5766   33.2777   41.0432 H   0  0  0  0  0  0  0  0  0  0  0  0
   46.5245   36.6912   41.9433 H   0  0  0  0  0  0  0  0  0  0  0  0
   43.4397   36.4265   45.2709 H   0  0  0  0  0  0  0  0  0  0  0  0
   43.5507   34.7957   45.9856 H   0  0  0  0  0  0  0  0  0  0  0  0
   48.0904   32.8608   43.2444 H   0  0  0  0  0  0  0  0  0  0  0  0
   48.2910   30.8562   46.3172 H   0  0  0  0  0  0  0  0  0  0  0  0
   46.8057   31.8820   45.9781 H   0  0  0  0  0  0  0  0  0  0  0  0
   46.2148   29.7122   46.8122 H   0  0  0  0  0  0  0  0  0  0  0  0
   45.6845   29.9877   45.0919 H   0  0  0  0  0  0  0  0  0  0  0  0
   49.0962   29.3371   45.1647 H   0  0  0  0  0  0  0  0  0  0  0  0
   48.6003   28.0404   44.0245 H   0  0  0  0  0  0  0  0  0  0  0  0
   46.8491   29.8123   43.1538 H   0  0  0  0  0  0  0  0  0  0  0  0
   48.5325   30.0006   42.6472 H   0  0  0  0  0  0  0  0  0  0  0  0
  1  3  1  0
  1 11  1  0
  2  1  1  0
  2  3  1  0
  4  1  1  0
  5  4  1  0
  6  5  1  0
  7  6  1  0
  7  8  1  0
  8  9  1  0
  9  4  1  0
 10 15  2  0
 11 10  1  0
 11 12  2  0
 12 13  1  0
 14 13  2  0
 14 16  1  0
 15 14  1  0
 17 12  1  0
 17 19  1  0
 18 17  1  0
 18 19  1  0
 19 20  1  0
 20 21  1  0
 22 21  1  0
 23 22  1  0
 24 19  1  0
 24 23  1  0
  2 25  1  0
  2 26  1  0
  3 27  1  0
  3 28  1  0
  4 29  1  0
  5 30  1  0
  5 31  1  0
  6 32  1  0
  6 33  1  0
  8 34  1  0
  8 35  1  0
  9 36  1  0
  9 37  1  0
 10 38  1  0
 16 39  1  0
 16 40  1  0
 17 41  1  0
 20 42  1  0
 20 43  1  0
 21 44  1  0
 21 45  1  0
 23 46  1  0
 23 47  1  0
 24 48  1  0
 24 49  1  0
M  ISO  8  25  13  26  13  27  13  28  13  29  13  30  13  31  13  32  13
M  ISO  8  33  13  34  13  35  13  36  13  37  13  38  14  41  13  42  13
M  ISO  7  43  13  44  13  45  13  46  13  47  13  48  13  49  13
M  END
>  <minimizedAffinity>  (1) 
-5.22792864

>  <minimizedRMSD>  (1) 
1.17379963

$$$$
