
     RDKit          3D

 30 32  0  0  0  0  0  0  0  0999 V2000
   46.0230   32.7510   47.0440 C   0  0  0  0  0  0  0  0  0  0  0  0
   47.2560   32.2610   47.4160 C   0  0  0  0  0  0  0  0  0  0  0  0
   47.4640   31.4650   48.5240 C   0  0  0  0  0  0  0  0  0  0  0  0
   46.3830   31.1250   49.3220 C   0  0  0  0  0  0  0  0  0  0  0  0
   45.1290   31.5960   48.9820 C   0  0  0  0  0  0  0  0  0  0  0  0
   44.9740   32.3960   47.8540 C   0  0  0  0  0  0  0  0  0  0  0  0
   44.7350   35.3540   44.8420 C   0  0  0  0  0  0  0  0  0  0  0  0
   45.5100   35.2090   43.6710 C   0  0  0  0  0  0  0  0  0  0  0  0
   46.4820   34.2050   43.6470 C   0  0  0  0  0  0  0  0  0  0  0  0
   46.6390   33.4130   44.7470 N   0  0  0  0  0  0  0  0  0  0  0  0
   45.8640   33.5890   45.8620 C   0  0  0  0  0  0  0  0  0  0  0  0
   44.9100   34.5580   45.9190 N   0  0  0  0  0  0  0  0  0  0  0  0
   48.8370   31.0360   48.7690 C   0  0  0  0  0  0  0  0  0  0  0  0
   49.2280   29.8220   48.2430 C   0  0  0  0  0  0  0  0  0  0  0  0
   50.5430   29.3970   48.4660 C   0  0  0  0  0  0  0  0  0  0  0  0
   51.3860   30.2020   49.1970 C   0  0  0  0  0  0  0  0  0  0  0  0
   51.0200   31.4250   49.7370 C   0  0  0  0  0  0  0  0  0  0  0  0
   49.7000   31.8240   49.4970 C   0  0  0  0  0  0  0  0  0  0  0  0
   48.1253   32.5194   46.7934 H   0  0  0  0  0  0  0  0  0  0  0  0
   46.5208   30.4913   50.2105 H   0  0  0  0  0  0  0  0  0  0  0  0
   44.2565   31.3394   49.6008 H   0  0  0  0  0  0  0  0  0  0  0  0
   43.9671   32.7594   47.6008 H   0  0  0  0  0  0  0  0  0  0  0  0
   43.9653   36.1390   44.8784 H   0  0  0  0  0  0  0  0  0  0  0  0
   45.3535   35.8667   42.8032 H   0  0  0  0  0  0  0  0  0  0  0  0
   47.1099   34.0558   42.7563 H   0  0  0  0  0  0  0  0  0  0  0  0
   48.5254   29.2047   47.6640 H   0  0  0  0  0  0  0  0  0  0  0  0
   50.8962   28.4361   48.0638 H   0  0  0  0  0  0  0  0  0  0  0  0
   52.4158   29.8529   49.3634 H   0  0  0  0  0  0  0  0  0  0  0  0
   51.7218   32.0424   50.3169 H   0  0  0  0  0  0  0  0  0  0  0  0
   49.3455   32.7852   49.8975 H   0  0  0  0  0  0  0  0  0  0  0  0
  1  2  2  0
  1  6  1  0
  2  3  1  0
  3 13  1  0
  3  4  2  0
  5  4  1  0
  6  5  2  0
  7 12  2  0
  8  7  1  0
  9  8  2  0
  9 10  1  0
 10 11  2  0
 11 12  1  0
 11  1  1  0
 13 18  2  0
 14 15  2  0
 14 13  1  0
 15 16  1  0
 16 17  2  0
 18 17  1  0
  2 19  1  0
  4 20  1  0
  5 21  1  0
  6 22  1  0
  7 23  1  0
  8 24  1  0
  9 25  1  0
 14 26  1  0
 15 27  1  0
 16 28  1  0
 17 29  1  0
 18 30  1  0
M  ISO  8  19  14  20  14  21  14  22  14  23  14  24  14  25  14  26  14
M  ISO  4  27  14  28  14  29  14  30  14
M  END
>  <minimizedAffinity>  (1) 
-5.85334301

>  <minimizedRMSD>  (1) 
0.682623684

$$$$
