
     RDKit          3D

 27 29  0  0  0  0  0  0  0  0999 V2000
   45.9500   32.8140   47.0440 C   0  0  0  0  0  0  0  0  0  0  0  0
   47.1990   32.3780   47.3900 C   0  0  0  0  0  0  0  0  0  0  0  0
   47.4170   31.5500   48.4760 C   0  0  0  0  0  0  0  0  0  0  0  0
   46.3820   31.1230   49.2650 C   0  0  0  0  0  0  0  0  0  0  0  0
   45.1120   31.5520   48.9330 C   0  0  0  0  0  0  0  0  0  0  0  0
   44.9080   32.3780   47.8480 C   0  0  0  0  0  0  0  0  0  0  0  0
   44.5650   35.5130   45.0040 C   0  0  0  0  0  0  0  0  0  0  0  0
   45.2500   35.3870   43.7820 C   0  0  0  0  0  0  0  0  0  0  0  0
   46.1950   34.3620   43.6670 C   0  0  0  0  0  0  0  0  0  0  0  0
   46.4080   33.5400   44.7320 N   0  0  0  0  0  0  0  0  0  0  0  0
   45.7310   33.6900   45.8960 C   0  0  0  0  0  0  0  0  0  0  0  0
   44.8160   34.6740   46.0200 N   0  0  0  0  0  0  0  0  0  0  0  0
   48.7480   31.1370   48.7740 C   0  0  0  0  0  0  0  0  0  0  0  0
   49.7350   31.7780   49.5210 C   0  0  0  0  0  0  0  0  0  0  0  0
   50.9460   31.1430   49.6490 C   0  0  0  0  0  0  0  0  0  0  0  0
   51.1050   29.9070   49.0250 C   0  0  0  0  0  0  0  0  0  0  0  0
   49.5140   29.6440   48.2500 S   0  0  0  0  0  0  0  0  0  0  0  0
   48.0598   32.6968   46.7838 H   0  0  0  0  0  0  0  0  0  0  0  0
   46.5555   30.4645   50.1288 H   0  0  0  0  0  0  0  0  0  0  0  0
   44.2534   31.2311   49.5411 H   0  0  0  0  0  0  0  0  0  0  0  0
   43.8836   32.7021   47.6122 H   0  0  0  0  0  0  0  0  0  0  0  0
   43.8152   36.3083   45.1278 H   0  0  0  0  0  0  0  0  0  0  0  0
   45.0493   36.0716   42.9447 H   0  0  0  0  0  0  0  0  0  0  0  0
   46.7569   34.2221   42.7318 H   0  0  0  0  0  0  0  0  0  0  0  0
   49.5508   32.7557   49.9903 H   0  0  0  0  0  0  0  0  0  0  0  0
   51.7654   31.5961   50.2264 H   0  0  0  0  0  0  0  0  0  0  0  0
   51.9903   29.2542   49.0121 H   0  0  0  0  0  0  0  0  0  0  0  0
  1  2  2  0
  1  6  1  0
  2  3  1  0
  3 13  1  0
  3  4  2  0
  5  4  1  0
  6  5  2  0
  7 12  2  0
  8  7  1  0
  9  8  2  0
  9 10  1  0
 10 11  2  0
 11 12  1  0
 11  1  1  0
 13 14  2  0
 14 15  1  0
 16 15  2  0
 17 13  1  0
 17 16  1  0
  2 18  1  0
  4 19  1  0
  5 20  1  0
  6 21  1  0
  7 22  1  0
  8 23  1  0
  9 24  1  0
 14 25  1  0
 15 26  1  0
 16 27  1  0
M  ISO  8  18  14  19  14  20  14  21  14  22  14  23  14  24  14  25  14
M  ISO  2  26  14  27  14
M  END
>  <minimizedAffinity>  (1) 
-5.59497595

>  <minimizedRMSD>  (1) 
0.922025979

$$$$
