
     RDKit          3D

 22 23  0  0  0  0  0  0  0  0999 V2000
   46.0430   32.7710   47.0480 C   0  0  0  0  0  0  0  0  0  0  0  0
   47.3020   32.4260   47.4920 C   0  0  0  0  0  0  0  0  0  0  0  0
   47.4780   31.6340   48.6200 C   0  0  0  0  0  0  0  0  0  0  0  0
   46.4060   31.1650   49.3360 C   0  0  0  0  0  0  0  0  0  0  0  0
   45.1580   31.5020   48.9000 C   0  0  0  0  0  0  0  0  0  0  0  0
   44.9610   32.2930   47.7750 C   0  0  0  0  0  0  0  0  0  0  0  0
   44.7070   35.3690   44.8400 C   0  0  0  0  0  0  0  0  0  0  0  0
   45.4580   35.2290   43.6730 C   0  0  0  0  0  0  0  0  0  0  0  0
   46.4360   34.2300   43.6420 C   0  0  0  0  0  0  0  0  0  0  0  0
   46.6190   33.4380   44.7380 N   0  0  0  0  0  0  0  0  0  0  0  0
   45.8680   33.6030   45.8620 C   0  0  0  0  0  0  0  0  0  0  0  0
   44.9140   34.5690   45.9080 N   0  0  0  0  0  0  0  0  0  0  0  0
   48.8200   31.2890   49.0630 C   0  0  0  0  0  0  0  0  0  0  0  0
   49.0190   30.4820   50.0030 O   0  0  0  0  0  0  0  0  0  0  0  0
   48.1846   32.7849   46.9423 H   0  0  0  0  0  0  0  0  0  0  0  0
   46.5476   30.5396   50.2297 H   0  0  0  0  0  0  0  0  0  0  0  0
   44.2818   31.1366   49.4556 H   0  0  0  0  0  0  0  0  0  0  0  0
   43.9380   32.5430   47.4572 H   0  0  0  0  0  0  0  0  0  0  0  0
   43.9306   36.1466   44.8914 H   0  0  0  0  0  0  0  0  0  0  0  0
   45.2865   35.8831   42.8054 H   0  0  0  0  0  0  0  0  0  0  0  0
   47.0521   34.0840   42.7425 H   0  0  0  0  0  0  0  0  0  0  0  0
   49.6839   31.7481   48.5602 H   0  0  0  0  0  0  0  0  0  0  0  0
  1  2  2  0
  1  6  1  0
  2  3  1  0
  3 13  1  0
  3  4  2  0
  5  4  1  0
  6  5  2  0
  7 12  2  0
  8  7  1  0
  9  8  2  0
  9 10  1  0
 10 11  2  0
 11 12  1  0
 11  1  1  0
 13 14  2  0
  2 15  1  0
  4 16  1  0
  5 17  1  0
  6 18  1  0
  7 19  1  0
  8 20  1  0
  9 21  1  0
 13 22  1  0
M  ISO  8  15  14  16  14  17  14  18  14  19  14  20  14  21  14  22   6
M  END
>  <minimizedAffinity>  (1) 
-4.99837542

>  <minimizedRMSD>  (1) 
0.472637177

$$$$
