
     RDKit          3D

 23 24  0  0  0  0  0  0  0  0999 V2000
   45.9810   32.7900   46.9820 C   0  0  0  0  0  0  0  0  0  0  0  0
   47.1880   32.1540   47.1720 C   0  0  0  0  0  0  0  0  0  0  0  0
   47.4560   31.3030   48.2230 C   0  0  0  0  0  0  0  0  0  0  0  0
   46.4700   31.0640   49.1450 C   0  0  0  0  0  0  0  0  0  0  0  0
   45.2380   31.6770   49.0030 C   0  0  0  0  0  0  0  0  0  0  0  0
   45.0210   32.5230   47.9290 C   0  0  0  0  0  0  0  0  0  0  0  0
   44.5680   35.5160   45.0000 C   0  0  0  0  0  0  0  0  0  0  0  0
   45.2330   35.4180   43.7790 C   0  0  0  0  0  0  0  0  0  0  0  0
   46.1790   34.4000   43.6390 C   0  0  0  0  0  0  0  0  0  0  0  0
   46.4250   33.5420   44.6810 N   0  0  0  0  0  0  0  0  0  0  0  0
   45.7480   33.6790   45.8570 C   0  0  0  0  0  0  0  0  0  0  0  0
   44.8400   34.6590   45.9890 N   0  0  0  0  0  0  0  0  0  0  0  0
   48.7810   30.6590   48.3550 C   0  0  0  0  0  0  0  0  0  0  0  0
   47.9880   32.3365   46.4394 H   0  0  0  0  0  0  0  0  0  0  0  0
   46.6574   30.3887   49.9928 H   0  0  0  0  0  0  0  0  0  0  0  0
   44.4387   31.4940   49.7363 H   0  0  0  0  0  0  0  0  0  0  0  0
   44.0364   33.0031   47.8289 H   0  0  0  0  0  0  0  0  0  0  0  0
   43.8148   36.3034   45.1506 H   0  0  0  0  0  0  0  0  0  0  0  0
   45.0207   36.1165   42.9562 H   0  0  0  0  0  0  0  0  0  0  0  0
   46.7274   34.2860   42.6923 H   0  0  0  0  0  0  0  0  0  0  0  0
   49.0262   30.5398   49.4207 H   0  0  0  0  0  0  0  0  0  0  0  0
   48.7585   29.6713   47.8712 H   0  0  0  0  0  0  0  0  0  0  0  0
   49.5437   31.2869   47.8712 H   0  0  0  0  0  0  0  0  0  0  0  0
  1  2  2  0
  1  6  1  0
  2  3  1  0
  3 13  1  0
  3  4  2  0
  5  4  1  0
  6  5  2  0
  7 12  2  0
  8  7  1  0
  9  8  2  0
  9 10  1  0
 10 11  2  0
 11 12  1  0
 11  1  1  0
  2 14  1  0
  4 15  1  0
  5 16  1  0
  6 17  1  0
  7 18  1  0
  8 19  1  0
  9 20  1  0
 13 21  1  0
 13 22  1  0
 13 23  1  0
M  ISO  8  14  14  15  14  16  14  17  14  18  14  19  14  20  14  21   8
M  ISO  2  22   8  23   8
M  END
>  <minimizedAffinity>  (1) 
-4.88097429

>  <minimizedRMSD>  (1) 
0.0899646357

$$$$
