
     RDKit          3D

 14 14  0  0  0  0  0  0  0  0999 V2000
   44.5910   35.9890   44.3690 C   0  0  0  0  0  0  0  0  0  0  0  0
   45.3530   35.8940   43.1730 C   0  0  0  0  0  0  0  0  0  0  0  0
   46.2720   34.8230   43.1290 C   0  0  0  0  0  0  0  0  0  0  0  0
   46.3840   33.9650   44.1880 N   0  0  0  0  0  0  0  0  0  0  0  0
   45.6060   34.1340   45.3030 C   0  0  0  0  0  0  0  0  0  0  0  0
   44.7210   35.1380   45.3840 N   0  0  0  0  0  0  0  0  0  0  0  0
   47.0450   34.7410   41.8850 C   0  0  0  0  0  0  0  0  0  0  0  0
   47.8390   33.5930   41.9340 F   0  0  0  0  0  0  0  0  0  0  0  0
   47.9160   35.8000   41.8830 F   0  0  0  0  0  0  0  0  0  0  0  0
   46.2550   34.6560   40.7650 F   0  0  0  0  0  0  0  0  0  0  0  0
   45.9220   33.1300   46.2170 O   0  0  0  0  0  0  0  0  0  0  0  0
   43.8588   36.8049   44.4601 H   0  0  0  0  0  0  0  0  0  0  0  0
   45.2352   36.6041   42.3412 H   0  0  0  0  0  0  0  0  0  0  0  0
   45.4563   33.0907   47.0897 H   0  0  0  0  0  0  0  0  0  0  0  0
  1  6  2  0
  2  1  1  0
  3  2  2  0
  3  4  1  0
  4  5  2  0
  5  6  1  0
  5 11  1  0
  7  8  1  0
  7  3  1  0
  9  7  1  0
 10  7  1  0
  1 12  1  0
  2 13  1  0
 11 14  1  0
M  ISO  3  12  14  13  14  14   3
M  END
>  <minimizedAffinity>  (1) 
-4.1005559

>  <minimizedRMSD>  (1) 
0.0353157744

$$$$
