
     RDKit          3D

 21 22  0  0  0  0  0  0  0  0999 V2000
   46.0330   32.8050   46.9380 C   0  0  0  0  0  0  0  0  0  0  0  0
   47.2180   32.1390   47.0660 C   0  0  0  0  0  0  0  0  0  0  0  0
   47.4840   31.2830   48.1160 C   0  0  0  0  0  0  0  0  0  0  0  0
   46.5440   31.0660   49.0900 C   0  0  0  0  0  0  0  0  0  0  0  0
   45.3550   31.7230   48.9770 C   0  0  0  0  0  0  0  0  0  0  0  0
   45.0820   32.5850   47.9260 C   0  0  0  0  0  0  0  0  0  0  0  0
   44.5500   35.5320   44.9870 C   0  0  0  0  0  0  0  0  0  0  0  0
   45.2050   35.4440   43.7600 C   0  0  0  0  0  0  0  0  0  0  0  0
   46.1670   34.4370   43.5970 C   0  0  0  0  0  0  0  0  0  0  0  0
   46.4300   33.5900   44.6290 N   0  0  0  0  0  0  0  0  0  0  0  0
   45.7590   33.7150   45.8170 C   0  0  0  0  0  0  0  0  0  0  0  0
   44.8210   34.6840   45.9990 N   0  0  0  0  0  0  0  0  0  0  0  0
   48.7000   30.6250   48.2110 O   0  0  0  0  0  0  0  0  0  0  0  0
   47.9932   32.2908   46.3005 H   0  0  0  0  0  0  0  0  0  0  0  0
   46.7420   30.3865   49.9320 H   0  0  0  0  0  0  0  0  0  0  0  0
   44.5853   31.5637   49.7465 H   0  0  0  0  0  0  0  0  0  0  0  0
   44.1093   33.0962   47.8745 H   0  0  0  0  0  0  0  0  0  0  0  0
   43.7912   36.3148   45.1335 H   0  0  0  0  0  0  0  0  0  0  0  0
   44.9741   36.1439   42.9434 H   0  0  0  0  0  0  0  0  0  0  0  0
   46.7045   34.3326   42.6430 H   0  0  0  0  0  0  0  0  0  0  0  0
   48.8745   30.0145   48.9706 H   0  0  0  0  0  0  0  0  0  0  0  0
  1  2  2  0
  1  6  1  0
  2  3  1  0
  3 13  1  0
  3  4  2  0
  5  4  1  0
  6  5  2  0
  7 12  2  0
  8  7  1  0
  9  8  2  0
  9 10  1  0
 10 11  2  0
 11 12  1  0
 11  1  1  0
  2 14  1  0
  4 15  1  0
  5 16  1  0
  6 17  1  0
  7 18  1  0
  8 19  1  0
  9 20  1  0
 13 21  1  0
M  ISO  8  14  14  15  14  16  14  17  14  18  14  19  14  20  14  21   3
M  END
>  <minimizedAffinity>  (1) 
-4.79326487

>  <minimizedRMSD>  (1) 
0.0296352711

$$$$
