
     RDKit          3D

 37 40  0  0  0  0  0  0  0  0999 V2000
   46.2240   32.6600   47.0450 C   0  0  0  0  0  0  0  0  0  0  0  0
   47.4380   32.0370   47.3090 C   0  0  0  0  0  0  0  0  0  0  0  0
   47.6280   31.2700   48.4410 C   0  0  0  0  0  0  0  0  0  0  0  0
   46.5800   31.1150   49.3470 C   0  0  0  0  0  0  0  0  0  0  0  0
   45.3840   31.7230   49.0980 C   0  0  0  0  0  0  0  0  0  0  0  0
   45.2290   32.4810   47.9560 C   0  0  0  0  0  0  0  0  0  0  0  0
   44.8840   35.1800   44.7640 C   0  0  0  0  0  0  0  0  0  0  0  0
   45.6860   35.0460   43.6170 C   0  0  0  0  0  0  0  0  0  0  0  0
   46.6880   34.0900   43.6220 C   0  0  0  0  0  0  0  0  0  0  0  0
   46.8630   33.3130   44.7360 N   0  0  0  0  0  0  0  0  0  0  0  0
   46.0730   33.4660   45.8280 C   0  0  0  0  0  0  0  0  0  0  0  0
   45.0740   34.4060   45.8490 N   0  0  0  0  0  0  0  0  0  0  0  0
   49.2010   30.5070   48.7210 S   0  0  0  0  0  0  0  0  0  0  0  0
   50.1770   31.5570   49.7880 C   0  0  0  0  0  0  0  0  0  0  0  0
   50.4790   32.8850   49.5420 C   0  0  0  0  0  0  0  0  0  0  0  0
   51.2520   33.5970   50.4540 C   0  0  0  0  0  0  0  0  0  0  0  0
   51.7150   32.9910   51.5950 C   0  0  0  0  0  0  0  0  0  0  0  0
   51.4080   31.6800   51.8220 C   0  0  0  0  0  0  0  0  0  0  0  0
   51.8880   31.1000   52.9770 C   0  0  0  0  0  0  0  0  0  0  0  0
   51.5940   29.7680   53.2390 C   0  0  0  0  0  0  0  0  0  0  0  0
   50.8380   28.9960   52.3890 C   0  0  0  0  0  0  0  0  0  0  0  0
   50.3810   29.6250   51.2470 C   0  0  0  0  0  0  0  0  0  0  0  0
   50.6450   30.9470   50.9400 C   0  0  0  0  0  0  0  0  0  0  0  0
   48.2685   32.1581   46.5979 H   0  0  0  0  0  0  0  0  0  0  0  0
   46.7159   30.5081   50.2543 H   0  0  0  0  0  0  0  0  0  0  0  0
   44.5482   31.6093   49.8040 H   0  0  0  0  0  0  0  0  0  0  0  0
   44.2570   32.9626   47.7734 H   0  0  0  0  0  0  0  0  0  0  0  0
   44.0833   35.9342   44.7751 H   0  0  0  0  0  0  0  0  0  0  0  0
   45.5216   35.6851   42.7369 H   0  0  0  0  0  0  0  0  0  0  0  0
   47.3350   33.9565   42.7425 H   0  0  0  0  0  0  0  0  0  0  0  0
   50.1095   33.3756   48.6294 H   0  0  0  0  0  0  0  0  0  0  0  0
   51.4935   34.6523   50.2592 H   0  0  0  0  0  0  0  0  0  0  0  0
   52.3251   33.5538   52.3168 H   0  0  0  0  0  0  0  0  0  0  0  0
   52.4964   31.6850   53.6824 H   0  0  0  0  0  0  0  0  0  0  0  0
   51.9812   29.3131   54.1627 H   0  0  0  0  0  0  0  0  0  0  0  0
   50.6108   27.9416   52.6050 H   0  0  0  0  0  0  0  0  0  0  0  0
   49.7722   29.0405   50.5415 H   0  0  0  0  0  0  0  0  0  0  0  0
  1  2  2  0
  1  6  1  0
  2  3  1  0
  3 13  1  0
  3  4  2  0
  5  4  1  0
  6  5  2  0
  7 12  2  0
  8  9  2  0
  8  7  1  0
  9 10  1  0
 10 11  2  0
 11 12  1  0
 11  1  1  0
 13 14  1  0
 14 23  1  0
 15 14  2  0
 15 16  1  0
 16 17  2  0
 17 18  1  0
 18 19  2  0
 19 20  1  0
 21 20  2  0
 22 21  1  0
 23 22  2  0
 23 18  1  0
  2 24  1  0
  4 25  1  0
  5 26  1  0
  6 27  1  0
  7 28  1  0
  8 29  1  0
  9 30  1  0
 15 31  1  0
 16 32  1  0
 17 33  1  0
 19 34  1  0
 20 35  1  0
 21 36  1  0
 22 37  1  0
M  ISO  8  24  14  25  14  26  14  27  14  28  14  29  14  30  14  31  14
M  ISO  6  32  14  33  14  34  14  35  14  36  14  37  14
M  END
>  <minimizedAffinity>  (1) 
-6.70423603

>  <minimizedRMSD>  (1) 
1.07001758

$$$$
