
     RDKit          3D

 35 37  0  0  1  0  0  0  0  0999 V2000
   46.0010   32.7400   47.0600 C   0  0  0  0  0  0  0  0  0  0  0  0
   47.2710   32.4240   47.5380 C   0  0  0  0  0  0  0  0  0  0  0  0
   47.4050   31.6270   48.6640 C   0  0  0  0  0  0  0  0  0  0  0  0
   46.3100   31.1280   49.3370 C   0  0  0  0  0  0  0  0  0  0  0  0
   45.0720   31.4330   48.8740 C   0  0  0  0  0  0  0  0  0  0  0  0
   44.9230   32.2270   47.7520 C   0  0  0  0  0  0  0  0  0  0  0  0
   44.7230   35.3580   44.8590 C   0  0  0  0  0  0  0  0  0  0  0  0
   45.4860   35.2100   43.6880 C   0  0  0  0  0  0  0  0  0  0  0  0
   46.4460   34.2050   43.6550 C   0  0  0  0  0  0  0  0  0  0  0  0
   46.5960   33.4190   44.7520 N   0  0  0  0  0  0  0  0  0  0  0  0
   45.8490   33.5780   45.8720 C   0  0  0  0  0  0  0  0  0  0  0  0
   44.9100   34.5510   45.9220 N   0  0  0  0  0  0  0  0  0  0  0  0
   49.0590   31.2670   49.2230 S   0  0  0  0  0  0  0  0  0  0  0  0
   51.1370   29.7510   48.7290 N   0  0  0  0  0  0  0  0  0  0  0  0
   49.8040   29.9380   48.2010 C   0  0  1  0  0  0  0  0  0  0  0  0
   48.9640   28.7210   48.2150 C   0  0  0  0  0  0  0  0  0  0  0  0
   49.3730   27.6700   49.0790 N   0  0  0  0  0  0  0  0  0  0  0  0
   50.4110   27.9030   50.0040 C   0  0  0  0  0  0  0  0  0  0  0  0
   50.9240   29.3010   50.1160 C   0  0  0  0  0  0  0  0  0  0  0  0
   48.1649   32.8060   47.0232 H   0  0  0  0  0  0  0  0  0  0  0  0
   46.4374   30.4970   50.2290 H   0  0  0  0  0  0  0  0  0  0  0  0
   44.1826   31.0469   49.3936 H   0  0  0  0  0  0  0  0  0  0  0  0
   43.9076   32.4583   47.3979 H   0  0  0  0  0  0  0  0  0  0  0  0
   43.9587   36.1475   44.9088 H   0  0  0  0  0  0  0  0  0  0  0  0
   45.3281   35.8703   42.8225 H   0  0  0  0  0  0  0  0  0  0  0  0
   47.0690   34.0503   42.7618 H   0  0  0  0  0  0  0  0  0  0  0  0
   51.6637   30.6360   48.7101 H   0  0  0  0  0  0  0  0  0  0  0  0
   49.8638   30.1990   47.1341 H   0  0  0  0  0  0  0  0  0  0  0  0
   47.9486   29.0210   48.5134 H   0  0  0  0  0  0  0  0  0  0  0  0
   49.0424   28.3056   47.1995 H   0  0  0  0  0  0  0  0  0  0  0  0
   48.5445   27.3873   49.6217 H   0  0  0  0  0  0  0  0  0  0  0  0
   50.0427   27.6051   50.9968 H   0  0  0  0  0  0  0  0  0  0  0  0
   51.2629   27.3176   49.6278 H   0  0  0  0  0  0  0  0  0  0  0  0
   51.8702   29.3201   50.6766 H   0  0  0  0  0  0  0  0  0  0  0  0
   50.2209   29.9532   50.6547 H   0  0  0  0  0  0  0  0  0  0  0  0
  1  2  2  0
  1  6  1  0
  2  3  1  0
  3 13  1  0
  3  4  2  0
  5  4  1  0
  6  5  2  0
  7 12  2  0
  8  7  1  0
  9  8  2  0
  9 10  1  0
 10 11  2  0
 11 12  1  0
 11  1  1  0
 14 19  1  0
 15 16  1  0
 15 14  1  0
 15 13  1  0
 16 17  1  0
 17 18  1  0
 18 19  1  0
  2 20  1  0
  4 21  1  0
  5 22  1  0
  6 23  1  0
  7 24  1  0
  8 25  1  0
  9 26  1  0
 14 27  1  0
 15 28  1  6
 16 29  1  0
 16 30  1  0
 17 31  1  0
 18 32  1  0
 18 33  1  0
 19 34  1  0
 19 35  1  0
M  ISO  8  20  14  21  14  22  14  23  14  24  14  25  14  26  14  27   5
M  ISO  8  28  13  29  13  30  13  31   5  32  13  33  13  34  13  35  13
M  END
>  <minimizedAffinity>  (1) 
-5.45261765

>  <minimizedRMSD>  (1) 
0.432497203

$$$$
