
     RDKit          3D

 24 25  0  0  0  0  0  0  0  0999 V2000
   46.0230   32.7950   47.0890 C   0  0  0  0  0  0  0  0  0  0  0  0
   47.3100   32.5790   47.5260 C   0  0  0  0  0  0  0  0  0  0  0  0
   47.5760   31.7700   48.6120 C   0  0  0  0  0  0  0  0  0  0  0  0
   46.5470   31.1510   49.2940 C   0  0  0  0  0  0  0  0  0  0  0  0
   45.2530   31.3540   48.8750 C   0  0  0  0  0  0  0  0  0  0  0  0
   45.0030   32.1720   47.7790 C   0  0  0  0  0  0  0  0  0  0  0  0
   44.5430   35.4570   45.0740 C   0  0  0  0  0  0  0  0  0  0  0  0
   45.1620   35.3410   43.8400 C   0  0  0  0  0  0  0  0  0  0  0  0
   46.1180   34.3200   43.6860 C   0  0  0  0  0  0  0  0  0  0  0  0
   46.4090   33.4810   44.7380 N   0  0  0  0  0  0  0  0  0  0  0  0
   45.7550   33.6550   45.9380 C   0  0  0  0  0  0  0  0  0  0  0  0
   44.8340   34.6370   46.0900 N   0  0  0  0  0  0  0  0  0  0  0  0
   49.2510   31.5260   49.1310 S   0  0  0  0  0  0  0  0  0  0  0  0
   49.4100   30.0530   50.1550 C   0  0  0  0  0  0  0  0  0  0  0  0
   48.1454   33.0620   46.9979 H   0  0  0  0  0  0  0  0  0  0  0  0
   46.7591   30.5055   50.1591 H   0  0  0  0  0  0  0  0  0  0  0  0
   44.4189   30.8710   49.4050 H   0  0  0  0  0  0  0  0  0  0  0  0
   43.9639   32.3269   47.4529 H   0  0  0  0  0  0  0  0  0  0  0  0
   43.7909   36.2458   45.2225 H   0  0  0  0  0  0  0  0  0  0  0  0
   44.9154   36.0215   43.0117 H   0  0  0  0  0  0  0  0  0  0  0  0
   46.6339   34.1920   42.7230 H   0  0  0  0  0  0  0  0  0  0  0  0
   49.3791   30.3394   51.2166 H   0  0  0  0  0  0  0  0  0  0  0  0
   48.5811   29.3636   49.9369 H   0  0  0  0  0  0  0  0  0  0  0  0
   50.3670   29.5564   49.9369 H   0  0  0  0  0  0  0  0  0  0  0  0
  1  2  2  0
  1  6  1  0
  2  3  1  0
  3 13  1  0
  3  4  2  0
  5  4  1  0
  6  5  2  0
  7 12  2  0
  8  7  1  0
  9  8  2  0
  9 10  1  0
 10 11  2  0
 11 12  1  0
 11  1  1  0
 13 14  1  0
  2 15  1  0
  4 16  1  0
  5 17  1  0
  6 18  1  0
  7 19  1  0
  8 20  1  0
  9 21  1  0
 14 22  1  0
 14 23  1  0
 14 24  1  0
M  ISO  8  15  14  16  14  17  14  18  14  19  14  20  14  21  14  22   8
M  ISO  2  23   8  24   8
M  END
>  <minimizedAffinity>  (1) 
-4.68107605

>  <minimizedRMSD>  (1) 
0.295429558

$$$$
