
     RDKit          3D

 38 41  0  0  0  0  0  0  0  0999 V2000
   46.1510   32.6480   46.9670 C   0  0  0  0  0  0  0  0  0  0  0  0
   47.2930   31.8820   47.0710 C   0  0  0  0  0  0  0  0  0  0  0  0
   47.5040   31.0490   48.1440 C   0  0  0  0  0  0  0  0  0  0  0  0
   46.5570   30.9610   49.1550 C   0  0  0  0  0  0  0  0  0  0  0  0
   45.4180   31.6990   49.0900 C   0  0  0  0  0  0  0  0  0  0  0  0
   45.2330   32.5270   48.0020 C   0  0  0  0  0  0  0  0  0  0  0  0
   44.7180   35.3220   44.9300 C   0  0  0  0  0  0  0  0  0  0  0  0
   45.4560   35.2430   43.7260 C   0  0  0  0  0  0  0  0  0  0  0  0
   46.4420   34.2690   43.6200 C   0  0  0  0  0  0  0  0  0  0  0  0
   46.6810   33.4150   44.6680 N   0  0  0  0  0  0  0  0  0  0  0  0
   45.9370   33.5320   45.8190 C   0  0  0  0  0  0  0  0  0  0  0  0
   44.9670   34.4740   45.9490 N   0  0  0  0  0  0  0  0  0  0  0  0
   48.9980   30.1090   48.2240 S   0  0  0  0  0  0  0  0  0  0  0  0
   49.9060   30.5080   49.6750 C   0  0  0  0  0  0  0  0  0  0  0  0
   50.1090   31.7900   50.1050 N   0  0  0  0  0  0  0  0  0  0  0  0
   50.8290   32.0950   51.1780 C   0  0  0  0  0  0  0  0  0  0  0  0
   51.3810   31.0830   51.8670 N   0  0  0  0  0  0  0  0  0  0  0  0
   51.2340   29.8030   51.5170 C   0  0  0  0  0  0  0  0  0  0  0  0
   51.8220   28.7480   52.2040 C   0  0  0  0  0  0  0  0  0  0  0  0
   51.6690   27.4510   51.7980 C   0  0  0  0  0  0  0  0  0  0  0  0
   50.9150   27.1470   50.6840 C   0  0  0  0  0  0  0  0  0  0  0  0
   50.3190   28.1910   49.9870 C   0  0  0  0  0  0  0  0  0  0  0  0
   50.4770   29.4900   50.3940 C   0  0  0  0  0  0  0  0  0  0  0  0
   49.5250   27.7530   48.8130 C   0  0  0  0  0  0  0  0  0  0  0  0
   48.0524   31.9388   46.2772 H   0  0  0  0  0  0  0  0  0  0  0  0
   46.7291   30.2920   50.0111 H   0  0  0  0  0  0  0  0  0  0  0  0
   44.6613   31.6378   49.8860 H   0  0  0  0  0  0  0  0  0  0  0  0
   44.3097   33.1227   47.9517 H   0  0  0  0  0  0  0  0  0  0  0  0
   43.9318   36.0839   45.0366 H   0  0  0  0  0  0  0  0  0  0  0  0
   45.2548   35.9347   42.8947 H   0  0  0  0  0  0  0  0  0  0  0  0
   47.0315   34.1824   42.6953 H   0  0  0  0  0  0  0  0  0  0  0  0
   50.9685   33.1401   51.4917 H   0  0  0  0  0  0  0  0  0  0  0  0
   52.4264   28.9616   53.0979 H   0  0  0  0  0  0  0  0  0  0  0  0
   52.1522   26.6422   52.3657 H   0  0  0  0  0  0  0  0  0  0  0  0
   50.7886   26.1048   50.3556 H   0  0  0  0  0  0  0  0  0  0  0  0
   48.6101   27.2483   49.1568 H   0  0  0  0  0  0  0  0  0  0  0  0
   49.2543   28.6294   48.2058 H   0  0  0  0  0  0  0  0  0  0  0  0
   50.1219   27.0565   48.2058 H   0  0  0  0  0  0  0  0  0  0  0  0
  1  2  2  0
  1  6  1  0
  2  3  1  0
  3 13  1  0
  3  4  2  0
  5  4  1  0
  6  5  2  0
  7 12  2  0
  8  7  1  0
  9  8  2  0
  9 10  1  0
 10 11  2  0
 11 12  1  0
 11  1  1  0
 13 14  1  0
 14 15  2  0
 14 23  1  0
 15 16  1  0
 16 17  2  0
 18 17  1  0
 18 19  2  0
 20 19  1  0
 21 20  2  0
 22 23  2  0
 22 21  1  0
 23 18  1  0
 24 22  1  0
  2 25  1  0
  4 26  1  0
  5 27  1  0
  6 28  1  0
  7 29  1  0
  8 30  1  0
  9 31  1  0
 16 32  1  0
 19 33  1  0
 20 34  1  0
 21 35  1  0
 24 36  1  0
 24 37  1  0
 24 38  1  0
M  ISO  8  25  14  26  14  27  14  28  14  29  14  30  14  31  14  32  14
M  ISO  6  33  14  34  14  35  14  36   8  37   8  38   8
M  END
>  <minimizedAffinity>  (1) 
-6.66199398

>  <minimizedRMSD>  (1) 
0.0450532287

$$$$
