
     RDKit          3D

 42 46  0  0  0  0  0  0  0  0999 V2000
   46.1490   32.6410   46.9460 C   0  0  0  0  0  0  0  0  0  0  0  0
   47.2680   31.8470   47.0360 C   0  0  0  0  0  0  0  0  0  0  0  0
   47.4710   31.0030   48.1060 C   0  0  0  0  0  0  0  0  0  0  0  0
   46.5370   30.9350   49.1270 C   0  0  0  0  0  0  0  0  0  0  0  0
   45.4140   31.7030   49.0780 C   0  0  0  0  0  0  0  0  0  0  0  0
   45.2400   32.5390   47.9960 C   0  0  0  0  0  0  0  0  0  0  0  0
   44.7260   35.3180   44.9220 C   0  0  0  0  0  0  0  0  0  0  0  0
   45.4550   35.2520   43.7230 C   0  0  0  0  0  0  0  0  0  0  0  0
   46.4440   34.2800   43.6150 C   0  0  0  0  0  0  0  0  0  0  0  0
   46.6850   33.4190   44.6590 N   0  0  0  0  0  0  0  0  0  0  0  0
   45.9380   33.5300   45.8120 C   0  0  0  0  0  0  0  0  0  0  0  0
   44.9660   34.4730   45.9390 N   0  0  0  0  0  0  0  0  0  0  0  0
   48.9320   30.0140   48.1700 S   0  0  0  0  0  0  0  0  0  0  0  0
   49.8580   30.3560   49.6330 C   0  0  0  0  0  0  0  0  0  0  0  0
   50.0460   31.6100   50.1300 N   0  0  0  0  0  0  0  0  0  0  0  0
   50.7590   31.8540   51.2380 C   0  0  0  0  0  0  0  0  0  0  0  0
   51.3060   30.8070   51.8720 N   0  0  0  0  0  0  0  0  0  0  0  0
   51.1720   29.5350   51.4510 C   0  0  0  0  0  0  0  0  0  0  0  0
   51.7380   28.4540   52.1030 C   0  0  0  0  0  0  0  0  0  0  0  0
   51.5690   27.1780   51.6290 C   0  0  0  0  0  0  0  0  0  0  0  0
   50.8250   26.9270   50.4780 C   0  0  0  0  0  0  0  0  0  0  0  0
   50.2640   28.0280   49.8330 C   0  0  0  0  0  0  0  0  0  0  0  0
   50.4290   29.3060   50.3030 C   0  0  0  0  0  0  0  0  0  0  0  0
   49.5750   27.6210   48.5620 C   0  0  0  0  0  0  0  0  0  0  0  0
   48.7540   26.2990   48.6620 C   0  0  0  0  0  0  0  0  0  0  0  0
   49.9970   26.3500   47.9160 C   0  0  0  0  0  0  0  0  0  0  0  0
   48.0197   31.8866   46.2339 H   0  0  0  0  0  0  0  0  0  0  0  0
   46.7031   30.2592   49.9789 H   0  0  0  0  0  0  0  0  0  0  0  0
   44.6643   31.6575   49.8817 H   0  0  0  0  0  0  0  0  0  0  0  0
   44.3328   33.1600   47.9599 H   0  0  0  0  0  0  0  0  0  0  0  0
   43.9398   36.0796   45.0310 H   0  0  0  0  0  0  0  0  0  0  0  0
   45.2501   35.9472   42.8955 H   0  0  0  0  0  0  0  0  0  0  0  0
   47.0353   34.2000   42.6909 H   0  0  0  0  0  0  0  0  0  0  0  0
   50.8911   32.8790   51.6147 H   0  0  0  0  0  0  0  0  0  0  0  0
   52.3317   28.6201   53.0140 H   0  0  0  0  0  0  0  0  0  0  0  0
   52.0296   26.3369   52.1678 H   0  0  0  0  0  0  0  0  0  0  0  0
   50.6865   25.9051   50.0952 H   0  0  0  0  0  0  0  0  0  0  0  0
   49.4190   28.6543   48.2185 H   0  0  0  0  0  0  0  0  0  0  0  0
   48.7032   25.7508   49.6143 H   0  0  0  0  0  0  0  0  0  0  0  0
   47.7187   26.0013   48.4395 H   0  0  0  0  0  0  0  0  0  0  0  0
   49.9703   26.2689   46.8193 H   0  0  0  0  0  0  0  0  0  0  0  0
   50.9228   25.7572   47.9543 H   0  0  0  0  0  0  0  0  0  0  0  0
  1  2  2  0
  1  6  1  0
  2  3  1  0
  3 13  1  0
  3  4  2  0
  5  4  1  0
  6  5  2  0
  7 12  2  0
  8  7  1  0
  9  8  2  0
  9 10  1  0
 10 11  2  0
 11 12  1  0
 11  1  1  0
 13 14  1  0
 14 15  2  0
 14 23  1  0
 15 16  1  0
 16 17  2  0
 18 17  1  0
 18 19  2  0
 20 19  1  0
 21 20  2  0
 22 23  2  0
 22 21  1  0
 23 18  1  0
 24 25  1  0
 24 22  1  0
 26 24  1  0
 26 25  1  0
  2 27  1  0
  4 28  1  0
  5 29  1  0
  6 30  1  0
  7 31  1  0
  8 32  1  0
  9 33  1  0
 16 34  1  0
 19 35  1  0
 20 36  1  0
 21 37  1  0
 24 38  1  0
 25 39  1  0
 25 40  1  0
 26 41  1  0
 26 42  1  0
M  ISO  8  27  14  28  14  29  14  30  14  31  14  32  14  33  14  34  14
M  ISO  8  35  14  36  14  37  14  38  13  39  13  40  13  41  13  42  13
M  END
>  <minimizedAffinity>  (1) 
-6.55037069

>  <minimizedRMSD>  (1) 
0.199728385

$$$$
