
     RDKit          3D

 41 44  0  0  0  0  0  0  0  0999 V2000
   46.1540   32.6230   46.9760 C   0  0  0  0  0  0  0  0  0  0  0  0
   47.2700   31.8380   47.0760 C   0  0  0  0  0  0  0  0  0  0  0  0
   47.4900   30.9970   48.1350 C   0  0  0  0  0  0  0  0  0  0  0  0
   46.5450   30.9210   49.1690 C   0  0  0  0  0  0  0  0  0  0  0  0
   45.4350   31.6880   49.0890 C   0  0  0  0  0  0  0  0  0  0  0  0
   45.2530   32.5180   48.0120 C   0  0  0  0  0  0  0  0  0  0  0  0
   44.7320   35.3070   44.9330 C   0  0  0  0  0  0  0  0  0  0  0  0
   45.4650   35.2320   43.7410 C   0  0  0  0  0  0  0  0  0  0  0  0
   46.4490   34.2620   43.6340 C   0  0  0  0  0  0  0  0  0  0  0  0
   46.6820   33.4070   44.6830 N   0  0  0  0  0  0  0  0  0  0  0  0
   45.9380   33.5170   45.8320 C   0  0  0  0  0  0  0  0  0  0  0  0
   44.9800   34.4560   45.9450 N   0  0  0  0  0  0  0  0  0  0  0  0
   48.9840   30.0380   48.1780 S   0  0  0  0  0  0  0  0  0  0  0  0
   49.8500   30.3510   49.6780 C   0  0  0  0  0  0  0  0  0  0  0  0
   50.0520   31.6090   50.1680 N   0  0  0  0  0  0  0  0  0  0  0  0
   50.7780   31.8630   51.2490 C   0  0  0  0  0  0  0  0  0  0  0  0
   51.3400   30.8100   51.8850 N   0  0  0  0  0  0  0  0  0  0  0  0
   51.1890   29.5580   51.4730 C   0  0  0  0  0  0  0  0  0  0  0  0
   51.8060   28.4720   52.0920 C   0  0  0  0  0  0  0  0  0  0  0  0
   51.6600   27.2020   51.6060 C   0  0  0  0  0  0  0  0  0  0  0  0
   50.8840   26.9340   50.4720 C   0  0  0  0  0  0  0  0  0  0  0  0
   50.2740   28.0230   49.8650 C   0  0  0  0  0  0  0  0  0  0  0  0
   50.4290   29.2950   50.3500 C   0  0  0  0  0  0  0  0  0  0  0  0
   49.3620   27.5590   48.7840 C   0  0  0  0  0  0  0  0  0  0  0  0
   49.0990   26.0180   48.9590 C   0  0  0  0  0  0  0  0  0  0  0  0
   48.0211   31.8839   46.2737 H   0  0  0  0  0  0  0  0  0  0  0  0
   46.7041   30.2512   50.0269 H   0  0  0  0  0  0  0  0  0  0  0  0
   44.6785   31.6468   49.8865 H   0  0  0  0  0  0  0  0  0  0  0  0
   44.3405   33.1311   47.9741 H   0  0  0  0  0  0  0  0  0  0  0  0
   43.9463   36.0690   45.0423 H   0  0  0  0  0  0  0  0  0  0  0  0
   45.2644   35.9256   42.9111 H   0  0  0  0  0  0  0  0  0  0  0  0
   47.0418   34.1772   42.7113 H   0  0  0  0  0  0  0  0  0  0  0  0
   50.9176   32.8912   51.6142 H   0  0  0  0  0  0  0  0  0  0  0  0
   52.4217   28.6396   52.9880 H   0  0  0  0  0  0  0  0  0  0  0  0
   52.1650   26.3702   52.1190 H   0  0  0  0  0  0  0  0  0  0  0  0
   50.7639   25.9125   50.0820 H   0  0  0  0  0  0  0  0  0  0  0  0
   49.8272   27.7444   47.8046 H   0  0  0  0  0  0  0  0  0  0  0  0
   48.4097   28.1065   48.8419 H   0  0  0  0  0  0  0  0  0  0  0  0
   49.0571   25.7725   50.0304 H   0  0  0  0  0  0  0  0  0  0  0  0
   48.1426   25.7530   48.4845 H   0  0  0  0  0  0  0  0  0  0  0  0
   49.9133   25.4508   48.4845 H   0  0  0  0  0  0  0  0  0  0  0  0
  1  2  2  0
  1  6  1  0
  2  3  1  0
  3 13  1  0
  3  4  2  0
  5  4  1  0
  6  5  2  0
  7 12  2  0
  8  7  1  0
  9  8  2  0
  9 10  1  0
 10 11  2  0
 11 12  1  0
 11  1  1  0
 13 14  1  0
 14 15  2  0
 14 23  1  0
 15 16  1  0
 16 17  2  0
 18 17  1  0
 18 19  2  0
 20 19  1  0
 21 20  2  0
 22 23  2  0
 22 21  1  0
 23 18  1  0
 24 25  1  0
 24 22  1  0
  2 26  1  0
  4 27  1  0
  5 28  1  0
  6 29  1  0
  7 30  1  0
  8 31  1  0
  9 32  1  0
 16 33  1  0
 19 34  1  0
 20 35  1  0
 21 36  1  0
 24 37  1  0
 24 38  1  0
 25 39  1  0
 25 40  1  0
 25 41  1  0
M  ISO  8  26  14  27  14  28  14  29  14  30  14  31  14  32  14  33  14
M  ISO  8  34  14  35  14  36  14  37   8  38   8  39   8  40   8  41   8
M  END
>  <minimizedAffinity>  (1) 
-6.48613071

>  <minimizedRMSD>  (1) 
0.50941956

$$$$
