
     RDKit          3D

 34 37  0  0  0  0  0  0  0  0999 V2000
   44.8620   33.0900   40.9850 Br  0  0  0  0  0  0  0  0  0  0  0  0
   46.5160   34.0220   40.7960 C   0  0  0  0  0  0  0  0  0  0  0  0
   46.9920   34.7940   41.8370 C   0  0  0  0  0  0  0  0  0  0  0  0
   48.2010   35.4830   41.7190 C   0  0  0  0  0  0  0  0  0  0  0  0
   48.8960   35.3740   40.5470 C   0  0  0  0  0  0  0  0  0  0  0  0
   48.3830   34.5960   39.5370 C   0  0  0  0  0  0  0  0  0  0  0  0
   47.2100   33.9120   39.6220 C   0  0  0  0  0  0  0  0  0  0  0  0
   47.0440   31.7550   38.5730 C   0  0  0  0  0  0  0  0  0  0  0  0
   46.7680   33.1180   38.4830 C   0  0  0  0  0  0  0  0  0  0  0  0
   46.1250   33.5720   37.3630 C   0  0  0  0  0  0  0  0  0  0  0  0
   45.7470   32.7320   36.3380 C   0  0  0  0  0  0  0  0  0  0  0  0
   45.1120   33.0330   35.1810 N   0  0  0  0  0  0  0  0  0  0  0  0
   44.9890   31.8490   34.5430 C   0  0  0  0  0  0  0  0  0  0  0  0
   45.5380   30.8220   35.2840 C   0  0  0  0  0  0  0  0  0  0  0  0
   46.0250   31.3840   36.4350 C   0  0  0  0  0  0  0  0  0  0  0  0
   46.6780   30.8860   37.5580 C   0  0  0  0  0  0  0  0  0  0  0  0
   45.6870   33.9980   45.1580 C   0  0  0  0  0  0  0  0  0  0  0  0
   44.7370   35.0270   45.3950 C   0  0  0  0  0  0  0  0  0  0  0  0
   44.5720   35.9780   44.3900 C   0  0  0  0  0  0  0  0  0  0  0  0
   45.3110   35.8840   43.2510 N   0  0  0  0  0  0  0  0  0  0  0  0
   46.2150   34.8760   43.0630 C   0  0  0  0  0  0  0  0  0  0  0  0
   46.3810   33.9520   44.0290 N   0  0  0  0  0  0  0  0  0  0  0  0
   48.5839   36.0972   42.5473 H   0  0  0  0  0  0  0  0  0  0  0  0
   49.8521   35.9014   40.4142 H   0  0  0  0  0  0  0  0  0  0  0  0
   48.9566   34.5216   38.6014 H   0  0  0  0  0  0  0  0  0  0  0  0
   47.5597   31.3637   39.4624 H   0  0  0  0  0  0  0  0  0  0  0  0
   45.9020   34.6458   37.2781 H   0  0  0  0  0  0  0  0  0  0  0  0
   44.7938   33.9582   34.8592 H   0  0  0  0  0  0  0  0  0  0  0  0
   44.5128   31.7198   33.5599 H   0  0  0  0  0  0  0  0  0  0  0  0
   45.5770   29.7587   35.0048 H   0  0  0  0  0  0  0  0  0  0  0  0
   46.9017   29.8120   37.6393 H   0  0  0  0  0  0  0  0  0  0  0  0
   45.8498   33.2258   45.9243 H   0  0  0  0  0  0  0  0  0  0  0  0
   44.1580   35.0711   46.3292 H   0  0  0  0  0  0  0  0  0  0  0  0
   43.8501   36.7983   44.5162 H   0  0  0  0  0  0  0  0  0  0  0  0
  2  1  1  0
  2  3  2  0
  3 21  1  0
  4  3  1  0
  5  4  2  0
  6  7  2  0
  6  5  1  0
  7  2  1  0
  9  8  2  0
  9  7  1  0
 10  9  1  0
 11 15  1  0
 11 10  2  0
 12 11  1  0
 13 12  1  0
 13 14  2  0
 14 15  1  0
 15 16  2  0
 16  8  1  0
 17 18  2  0
 19 18  1  0
 20 19  2  0
 21 20  1  0
 21 22  2  0
 22 17  1  0
  4 23  1  0
  5 24  1  0
  6 25  1  0
  8 26  1  0
 10 27  1  0
 12 28  1  0
 13 29  1  0
 14 30  1  0
 16 31  1  0
 17 32  1  0
 18 33  1  0
 19 34  1  0
M  ISO  8  23  14  24  14  25  14  26  14  27  14  28   9  29  14  30  14
M  ISO  4  31  14  32  14  33  14  34  14
M  END
>  <minimizedAffinity>  (1) 
-6.43806601

>  <minimizedRMSD>  (1) 
0.79685539

$$$$
