
     RDKit          3D

 40 43  0  0  0  0  0  0  0  0999 V2000
   48.9280   30.0570   48.1620 S   0  0  0  0  0  0  0  0  0  0  0  0
   49.8280   30.3130   49.6140 C   0  0  0  0  0  0  0  0  0  0  0  0
   50.0390   31.5670   50.1260 N   0  0  0  0  0  0  0  0  0  0  0  0
   50.7570   31.8050   51.2200 C   0  0  0  0  0  0  0  0  0  0  0  0
   51.2970   30.7510   51.8430 N   0  0  0  0  0  0  0  0  0  0  0  0
   51.1390   29.4940   51.4120 C   0  0  0  0  0  0  0  0  0  0  0  0
   51.7090   28.4070   52.0440 C   0  0  0  0  0  0  0  0  0  0  0  0
   51.5540   27.1430   51.5830 C   0  0  0  0  0  0  0  0  0  0  0  0
   50.8130   26.9150   50.4630 C   0  0  0  0  0  0  0  0  0  0  0  0
   50.2100   27.9780   49.7820 C   0  0  0  0  0  0  0  0  0  0  0  0
   50.3830   29.2430   50.2600 C   0  0  0  0  0  0  0  0  0  0  0  0
   49.3830   27.6200   48.6230 C   0  0  0  0  0  0  0  0  0  0  0  0
   48.6010   26.3840   48.9250 N   0  0  0  0  0  0  0  0  0  0  0  0
   46.1350   32.6510   46.9480 C   0  0  0  0  0  0  0  0  0  0  0  0
   47.2640   31.8580   47.0310 C   0  0  0  0  0  0  0  0  0  0  0  0
   47.4660   31.0210   48.0980 C   0  0  0  0  0  0  0  0  0  0  0  0
   46.5410   30.9540   49.1140 C   0  0  0  0  0  0  0  0  0  0  0  0
   45.4090   31.7140   49.0860 C   0  0  0  0  0  0  0  0  0  0  0  0
   45.2250   32.5490   48.0040 C   0  0  0  0  0  0  0  0  0  0  0  0
   44.7220   35.3300   44.9080 C   0  0  0  0  0  0  0  0  0  0  0  0
   45.4650   35.2520   43.7070 C   0  0  0  0  0  0  0  0  0  0  0  0
   46.4490   34.2790   43.6050 C   0  0  0  0  0  0  0  0  0  0  0  0
   46.6830   33.4210   44.6520 N   0  0  0  0  0  0  0  0  0  0  0  0
   45.9280   33.5420   45.8020 C   0  0  0  0  0  0  0  0  0  0  0  0
   44.9560   34.4840   45.9340 N   0  0  0  0  0  0  0  0  0  0  0  0
   50.9012   32.8280   51.5978 H   0  0  0  0  0  0  0  0  0  0  0  0
   52.3084   28.5729   52.9513 H   0  0  0  0  0  0  0  0  0  0  0  0
   52.0257   26.3019   52.1122 H   0  0  0  0  0  0  0  0  0  0  0  0
   50.6878   25.8873   50.0912 H   0  0  0  0  0  0  0  0  0  0  0  0
   50.0314   27.4390   47.7531 H   0  0  0  0  0  0  0  0  0  0  0  0
   48.6896   28.4447   48.4017 H   0  0  0  0  0  0  0  0  0  0  0  0
   48.5262   26.2658   49.9455 H   0  0  0  0  0  0  0  0  0  0  0  0
   47.6580   26.4665   48.5189 H   0  0  0  0  0  0  0  0  0  0  0  0
   48.0136   31.8991   46.2270 H   0  0  0  0  0  0  0  0  0  0  0  0
   46.7172   30.2766   49.9626 H   0  0  0  0  0  0  0  0  0  0  0  0
   44.6687   31.6628   49.8980 H   0  0  0  0  0  0  0  0  0  0  0  0
   44.3153   33.1665   47.9703 H   0  0  0  0  0  0  0  0  0  0  0  0
   43.9380   36.0950   45.0082 H   0  0  0  0  0  0  0  0  0  0  0  0
   45.2679   35.9446   42.8755 H   0  0  0  0  0  0  0  0  0  0  0  0
   47.0433   34.1945   42.6832 H   0  0  0  0  0  0  0  0  0  0  0  0
  1  2  1  0
  2  3  2  0
  2 11  1  0
  3  4  1  0
  4  5  2  0
  6  5  1  0
  6  7  2  0
  8  7  1  0
  9  8  2  0
 10 11  2  0
 10  9  1  0
 11  6  1  0
 12 13  1  0
 12 10  1  0
 14 15  2  0
 14 19  1  0
 15 16  1  0
 16  1  1  0
 16 17  2  0
 18 17  1  0
 19 18  2  0
 20 25  2  0
 21 20  1  0
 22 21  2  0
 22 23  1  0
 23 24  2  0
 24 25  1  0
 24 14  1  0
  4 26  1  0
  7 27  1  0
  8 28  1  0
  9 29  1  0
 12 30  1  0
 12 31  1  0
 13 32  1  0
 13 33  1  0
 15 34  1  0
 17 35  1  0
 18 36  1  0
 19 37  1  0
 20 38  1  0
 21 39  1  0
 22 40  1  0
M  ISO  8  26  14  27  14  28  14  29  14  30   8  31   8  32   5  33   5
M  ISO  7  34  14  35  14  36  14  37  14  38  14  39  14  40  14
M  END
>  <minimizedAffinity>  (1) 
-6.67943478

>  <minimizedRMSD>  (1) 
0.278509647

$$$$
