
     RDKit          3D

 39 42  0  0  0  0  0  0  0  0999 V2000
   48.9920   30.1350   48.2620 S   0  0  0  0  0  0  0  0  0  0  0  0
   49.9040   30.4860   49.6840 C   0  0  0  0  0  0  0  0  0  0  0  0
   50.0950   31.7690   50.1170 N   0  0  0  0  0  0  0  0  0  0  0  0
   50.8190   32.0860   51.1830 C   0  0  0  0  0  0  0  0  0  0  0  0
   51.3890   31.0870   51.8640 N   0  0  0  0  0  0  0  0  0  0  0  0
   51.2520   29.8060   51.5080 C   0  0  0  0  0  0  0  0  0  0  0  0
   51.8540   28.7630   52.2070 C   0  0  0  0  0  0  0  0  0  0  0  0
   51.7080   27.4750   51.8190 C   0  0  0  0  0  0  0  0  0  0  0  0
   50.9580   27.1650   50.7220 C   0  0  0  0  0  0  0  0  0  0  0  0
   50.3330   28.1740   49.9880 C   0  0  0  0  0  0  0  0  0  0  0  0
   50.4870   29.4730   50.3830 C   0  0  0  0  0  0  0  0  0  0  0  0
   49.5150   27.7330   48.8440 C   0  0  0  0  0  0  0  0  0  0  0  0
   49.2100   25.9010   48.9610 S   0  0  0  0  0  0  0  0  0  0  0  0
   46.1500   32.6410   46.9800 C   0  0  0  0  0  0  0  0  0  0  0  0
   47.2940   31.8850   47.0960 C   0  0  0  0  0  0  0  0  0  0  0  0
   47.5010   31.0530   48.1690 C   0  0  0  0  0  0  0  0  0  0  0  0
   46.5550   30.9560   49.1640 C   0  0  0  0  0  0  0  0  0  0  0  0
   45.4030   31.6800   49.1020 C   0  0  0  0  0  0  0  0  0  0  0  0
   45.2190   32.5090   48.0140 C   0  0  0  0  0  0  0  0  0  0  0  0
   44.7230   35.3100   44.9440 C   0  0  0  0  0  0  0  0  0  0  0  0
   45.4660   35.2230   43.7360 C   0  0  0  0  0  0  0  0  0  0  0  0
   46.4570   34.2440   43.6270 C   0  0  0  0  0  0  0  0  0  0  0  0
   46.6840   33.3970   44.6870 N   0  0  0  0  0  0  0  0  0  0  0  0
   45.9390   33.5250   45.8300 C   0  0  0  0  0  0  0  0  0  0  0  0
   44.9740   34.4670   45.9560 N   0  0  0  0  0  0  0  0  0  0  0  0
   50.9455   33.1332   51.4950 H   0  0  0  0  0  0  0  0  0  0  0  0
   52.4621   28.9913   53.0948 H   0  0  0  0  0  0  0  0  0  0  0  0
   52.1969   26.6729   52.3914 H   0  0  0  0  0  0  0  0  0  0  0  0
   50.8455   26.1148   50.4148 H   0  0  0  0  0  0  0  0  0  0  0  0
   50.0462   27.9562   47.9070 H   0  0  0  0  0  0  0  0  0  0  0  0
   48.5520   28.2645   48.8581 H   0  0  0  0  0  0  0  0  0  0  0  0
   49.1485   25.5315   50.2788 H   0  0  0  0  0  0  0  0  0  0  0  0
   48.0613   31.9486   46.3103 H   0  0  0  0  0  0  0  0  0  0  0  0
   46.7313   30.2864   50.0187 H   0  0  0  0  0  0  0  0  0  0  0  0
   44.6433   31.6063   49.8941 H   0  0  0  0  0  0  0  0  0  0  0  0
   44.2909   33.0967   47.9577 H   0  0  0  0  0  0  0  0  0  0  0  0
   43.9377   36.0730   45.0495 H   0  0  0  0  0  0  0  0  0  0  0  0
   45.2650   35.9128   42.9030 H   0  0  0  0  0  0  0  0  0  0  0  0
   47.0488   34.1516   42.7044 H   0  0  0  0  0  0  0  0  0  0  0  0
  1  2  1  0
  2  3  2  0
  2 11  1  0
  3  4  1  0
  4  5  2  0
  6  5  1  0
  6  7  2  0
  8  7  1  0
  9  8  2  0
 10 11  2  0
 10  9  1  0
 11  6  1  0
 12 13  1  0
 12 10  1  0
 14 15  2  0
 14 19  1  0
 15 16  1  0
 16  1  1  0
 16 17  2  0
 18 17  1  0
 19 18  2  0
 20 25  2  0
 21 20  1  0
 22 21  2  0
 22 23  1  0
 23 24  2  0
 24 25  1  0
 24 14  1  0
  4 26  1  0
  7 27  1  0
  8 28  1  0
  9 29  1  0
 12 30  1  0
 12 31  1  0
 13 32  1  0
 15 33  1  0
 17 34  1  0
 18 35  1  0
 19 36  1  0
 20 37  1  0
 21 38  1  0
 22 39  1  0
M  ISO  8  26  14  27  14  28  14  29  14  30   8  31   8  32  11  33  14
M  ISO  6  34  14  35  14  36  14  37  14  38  14  39  14
M  END
>  <minimizedAffinity>  (1) 
-6.52595997

>  <minimizedRMSD>  (1) 
0.0805649012

$$$$
