
     RDKit          3D

 36 38  0  0  1  0  0  0  0  0999 V2000
   48.0650   34.6260   42.0490 C   0  0  2  0  0  0  0  0  0  0  0  0
   46.7700   33.8550   42.3530 C   0  0  1  0  0  0  0  0  0  0  0  0
   47.3290   32.6390   42.6970 O   0  0  0  0  0  0  0  0  0  0  0  0
   48.1780   32.3470   41.6260 C   0  0  0  0  0  0  0  0  0  0  0  0
   48.5630   33.6650   40.9680 C   0  0  1  0  0  0  0  0  0  0  0  0
   44.5130   36.0220   44.5080 C   0  0  0  0  0  0  0  0  0  0  0  0
   45.1980   35.6260   43.3560 C   0  0  0  0  0  0  0  0  0  0  0  0
   45.9770   34.4800   43.4100 C   0  0  0  0  0  0  0  0  0  0  0  0
   46.0270   33.8000   44.6020 N   0  0  0  0  0  0  0  0  0  0  0  0
   45.3570   34.2030   45.6960 C   0  0  0  0  0  0  0  0  0  0  0  0
   44.6010   35.3140   45.6490 N   0  0  0  0  0  0  0  0  0  0  0  0
   48.9410   34.5340   43.0890 O   0  0  0  0  0  0  0  0  0  0  0  0
   47.7960   33.8930   39.8320 O   0  0  0  0  0  0  0  0  0  0  0  0
   49.1670   32.8220   38.2030 C   0  0  1  0  0  0  0  0  0  0  0  0
   48.5190   34.1260   38.6870 C   0  0  1  0  0  0  0  0  0  0  0  0
   47.5710   34.2970   37.6640 O   0  0  0  0  0  0  0  0  0  0  0  0
   46.8540   33.1070   37.8190 C   0  0  0  0  0  0  0  0  0  0  0  0
   47.9470   32.0720   37.6580 C   0  0  1  0  0  0  0  0  0  0  0  0
   49.9430   33.1350   37.1000 O   0  0  0  0  0  0  0  0  0  0  0  0
   48.0720   31.7670   36.3190 O   0  0  0  0  0  0  0  0  0  0  0  0
   47.9523   35.6964   41.8218 H   0  0  0  0  0  0  0  0  0  0  0  0
   46.0306   33.8035   41.5402 H   0  0  0  0  0  0  0  0  0  0  0  0
   49.0794   31.8334   41.9917 H   0  0  0  0  0  0  0  0  0  0  0  0
   47.6741   31.6883   40.9034 H   0  0  0  0  0  0  0  0  0  0  0  0
   49.6190   33.7335   40.6679 H   0  0  0  0  0  0  0  0  0  0  0  0
   43.8907   36.9287   44.4816 H   0  0  0  0  0  0  0  0  0  0  0  0
   45.1210   36.2103   42.4272 H   0  0  0  0  0  0  0  0  0  0  0  0
   45.4273   33.6242   46.6288 H   0  0  0  0  0  0  0  0  0  0  0  0
   48.4447   34.5861   43.9441 H   0  0  0  0  0  0  0  0  0  0  0  0
   49.7625   32.2913   38.9605 H   0  0  0  0  0  0  0  0  0  0  0  0
   49.2287   34.9443   38.8786 H   0  0  0  0  0  0  0  0  0  0  0  0
   46.3865   33.0462   38.8129 H   0  0  0  0  0  0  0  0  0  0  0  0
   46.0194   32.9912   37.1118 H   0  0  0  0  0  0  0  0  0  0  0  0
   47.7809   31.1131   38.1707 H   0  0  0  0  0  0  0  0  0  0  0  0
   50.8176   33.4878   37.4012 H   0  0  0  0  0  0  0  0  0  0  0  0
   48.4456   30.8554   36.2217 H   0  0  0  0  0  0  0  0  0  0  0  0
  1  2  1  0
  1 12  1  0
  2  3  1  0
  2  8  1  0
  4  3  1  0
  5  4  1  0
  5  1  1  0
  6 11  2  0
  7  8  2  0
  7  6  1  0
  8  9  1  0
  9 10  2  0
 11 10  1  0
 13  5  1  0
 14 19  1  0
 14 15  1  0
 15 13  1  0
 16 17  1  0
 16 15  1  0
 18 20  1  0
 18 17  1  0
 18 14  1  0
  1 21  1  6
  2 22  1  6
  4 23  1  0
  4 24  1  0
  5 25  1  6
  6 26  1  0
  7 27  1  0
 10 28  1  0
 12 29  1  0
 14 30  1  1
 15 31  1  1
 17 32  1  0
 17 33  1  0
 18 34  1  1
 19 35  1  0
 20 36  1  0
M  ISO  8  21  13  22  13  23  13  24  13  25  13  26  14  27  14  28  14
M  ISO  8  29   3  30  13  31  13  32  13  33  13  34  13  35   3  36   3
M  END
>  <minimizedAffinity>  (1) 
-5.09268141

>  <minimizedRMSD>  (1) 
1.47121286

$$$$
