
     RDKit          3D

 29 30  0  0  1  0  0  0  0  0999 V2000
   48.2540   34.9150   42.2420 C   0  0  2  0  0  0  0  0  0  0  0  0
   46.8690   34.2500   42.2460 C   0  0  1  0  0  0  0  0  0  0  0  0
   47.2670   32.9280   42.2930 O   0  0  0  0  0  0  0  0  0  0  0  0
   48.1770   32.8150   41.2410 C   0  0  0  0  0  0  0  0  0  0  0  0
   48.7630   34.1900   40.9850 C   0  0  1  0  0  0  0  0  0  0  0  0
   44.4930   35.9620   44.6630 C   0  0  0  0  0  0  0  0  0  0  0  0
   45.1890   35.7620   43.4740 C   0  0  0  0  0  0  0  0  0  0  0  0
   46.0510   34.6810   43.3760 C   0  0  0  0  0  0  0  0  0  0  0  0
   46.1660   33.8620   44.4730 N   0  0  0  0  0  0  0  0  0  0  0  0
   45.4810   34.0760   45.6120 C   0  0  0  0  0  0  0  0  0  0  0  0
   44.6430   35.1280   45.7070 N   0  0  0  0  0  0  0  0  0  0  0  0
   49.0140   34.4560   43.2750 O   0  0  0  0  0  0  0  0  0  0  0  0
   48.1390   34.7860   39.9000 O   0  0  0  0  0  0  0  0  0  0  0  0
   48.0200   33.9770   38.8050 C   0  0  0  0  0  0  0  0  0  0  0  0
   48.4600   34.5690   37.5110 C   0  0  0  0  0  0  0  0  0  0  0  0
   48.2651   36.0138   42.2920 H   0  0  0  0  0  0  0  0  0  0  0  0
   46.2081   34.4905   41.4002 H   0  0  0  0  0  0  0  0  0  0  0  0
   48.9779   32.1117   41.5130 H   0  0  0  0  0  0  0  0  0  0  0  0
   47.6753   32.4371   40.3380 H   0  0  0  0  0  0  0  0  0  0  0  0
   49.8466   34.1950   40.7961 H   0  0  0  0  0  0  0  0  0  0  0  0
   43.8077   36.8181   44.7500 H   0  0  0  0  0  0  0  0  0  0  0  0
   45.0570   36.4505   42.6263 H   0  0  0  0  0  0  0  0  0  0  0  0
   45.6049   33.3927   46.4651 H   0  0  0  0  0  0  0  0  0  0  0  0
   48.5922   34.7107   44.1337 H   0  0  0  0  0  0  0  0  0  0  0  0
   48.6221   33.0743   38.9853 H   0  0  0  0  0  0  0  0  0  0  0  0
   46.9433   33.7816   38.6934 H   0  0  0  0  0  0  0  0  0  0  0  0
   49.1058   35.4379   37.7060 H   0  0  0  0  0  0  0  0  0  0  0  0
   49.0204   33.8174   36.9357 H   0  0  0  0  0  0  0  0  0  0  0  0
   47.5787   34.8889   36.9357 H   0  0  0  0  0  0  0  0  0  0  0  0
  1  2  1  0
  1 12  1  0
  2  3  1  0
  2  8  1  0
  4  3  1  0
  5  4  1  0
  5  1  1  0
  6 11  2  0
  7  6  1  0
  8  7  2  0
  8  9  1  0
  9 10  2  0
 10 11  1  0
 13  5  1  0
 14 13  1  0
 15 14  1  0
  1 16  1  6
  2 17  1  6
  4 18  1  0
  4 19  1  0
  5 20  1  6
  6 21  1  0
  7 22  1  0
 10 23  1  0
 12 24  1  0
 14 25  1  0
 14 26  1  0
 15 27  1  0
 15 28  1  0
 15 29  1  0
M  ISO  8  16  13  17  13  18  13  19  13  20  13  21  14  22  14  23  14
M  ISO  6  24   3  25   8  26   8  27   8  28   8  29   8
M  END
>  <minimizedAffinity>  (1) 
-4.76462364

>  <minimizedRMSD>  (1) 
1.10280943

$$$$
