
     RDKit          3D

 51 54  0  0  1  0  0  0  0  0999 V2000
   48.0370   34.6710   41.9790 C   0  0  2  0  0  0  0  0  0  0  0  0
   46.7130   33.9050   42.2440 C   0  0  1  0  0  0  0  0  0  0  0  0
   47.2240   32.6780   42.5440 O   0  0  0  0  0  0  0  0  0  0  0  0
   48.1020   32.4040   41.4740 C   0  0  0  0  0  0  0  0  0  0  0  0
   48.5120   33.7640   40.8640 C   0  0  1  0  0  0  0  0  0  0  0  0
   44.5110   36.0770   44.4560 C   0  0  0  0  0  0  0  0  0  0  0  0
   45.1820   35.6830   43.3060 C   0  0  0  0  0  0  0  0  0  0  0  0
   45.9440   34.5390   43.3190 C   0  0  0  0  0  0  0  0  0  0  0  0
   45.9920   33.8430   44.5020 N   0  0  0  0  0  0  0  0  0  0  0  0
   45.3350   34.2380   45.6070 C   0  0  0  0  0  0  0  0  0  0  0  0
   44.5960   35.3540   45.5820 N   0  0  0  0  0  0  0  0  0  0  0  0
   48.9130   34.4990   43.0180 O   0  0  0  0  0  0  0  0  0  0  0  0
   47.7660   33.9470   39.7390 O   0  0  0  0  0  0  0  0  0  0  0  0
   49.1890   32.9360   38.1540 C   0  0  1  0  0  0  0  0  0  0  0  0
   48.4770   34.3160   38.5980 C   0  0  1  0  0  0  0  0  0  0  0  0
   47.6290   34.4250   37.5570 O   0  0  0  0  0  0  0  0  0  0  0  0
   46.9210   33.2000   37.7000 C   0  0  0  0  0  0  0  0  0  0  0  0
   48.0250   32.1880   37.5750 C   0  0  1  0  0  0  0  0  0  0  0  0
   50.0270   33.3150   37.0940 O   0  0  0  0  0  0  0  0  0  0  0  0
   48.2380   31.8770   36.2690 O   0  0  0  0  0  0  0  0  0  0  0  0
   46.6470   29.8680   33.2270 N   0  0  0  0  0  0  0  0  0  0  0  0
   45.8490   29.9350   34.4240 C   0  0  0  0  0  0  0  0  0  0  0  0
   46.8100   30.2100   35.5580 C   0  0  0  0  0  0  0  0  0  0  0  0
   47.1930   31.6760   35.4430 C   0  0  0  0  0  0  0  0  0  0  0  0
   47.3180   32.1090   34.0270 C   0  0  0  0  0  0  0  0  0  0  0  0
   47.5130   30.9850   33.0350 C   0  0  0  0  0  0  0  0  0  0  0  0
   47.9477   35.7539   41.8078 H   0  0  0  0  0  0  0  0  0  0  0  0
   45.9780   33.8784   41.4260 H   0  0  0  0  0  0  0  0  0  0  0  0
   48.9915   31.8720   41.8424 H   0  0  0  0  0  0  0  0  0  0  0  0
   47.6150   31.7674   40.7206 H   0  0  0  0  0  0  0  0  0  0  0  0
   49.5655   33.9007   40.5785 H   0  0  0  0  0  0  0  0  0  0  0  0
   43.9024   36.9932   44.4431 H   0  0  0  0  0  0  0  0  0  0  0  0
   45.1041   36.2841   42.3880 H   0  0  0  0  0  0  0  0  0  0  0  0
   45.4048   33.6446   46.5306 H   0  0  0  0  0  0  0  0  0  0  0  0
   48.4293   34.5940   43.8766 H   0  0  0  0  0  0  0  0  0  0  0  0
   49.7408   32.3788   38.9254 H   0  0  0  0  0  0  0  0  0  0  0  0
   49.0811   35.2137   38.7962 H   0  0  0  0  0  0  0  0  0  0  0  0
   46.4278   33.1350   38.6811 H   0  0  0  0  0  0  0  0  0  0  0  0
   46.1107   33.0667   36.9681 H   0  0  0  0  0  0  0  0  0  0  0  0
   47.8235   31.2290   38.0748 H   0  0  0  0  0  0  0  0  0  0  0  0
   50.8664   33.6946   37.4564 H   0  0  0  0  0  0  0  0  0  0  0  0
   47.2244   29.0162   33.2716 H   0  0  0  0  0  0  0  0  0  0  0  0
   45.1106   30.7465   34.3449 H   0  0  0  0  0  0  0  0  0  0  0  0
   45.2935   28.9998   34.5878 H   0  0  0  0  0  0  0  0  0  0  0  0
   46.3232   30.0178   36.5255 H   0  0  0  0  0  0  0  0  0  0  0  0
   47.6947   29.5589   35.5005 H   0  0  0  0  0  0  0  0  0  0  0  0
   46.4017   32.3584   35.7868 H   0  0  0  0  0  0  0  0  0  0  0  0
   46.4014   32.6520   33.7530 H   0  0  0  0  0  0  0  0  0  0  0  0
   48.2237   32.7308   33.9722 H   0  0  0  0  0  0  0  0  0  0  0  0
   48.5517   30.6320   33.1160 H   0  0  0  0  0  0  0  0  0  0  0  0
   47.2744   31.3983   32.0439 H   0  0  0  0  0  0  0  0  0  0  0  0
  1  2  1  0
  1 12  1  0
  2  3  1  0
  2  8  1  0
  4  3  1  0
  5  4  1  0
  5  1  1  0
  6 11  2  0
  7  8  2  0
  7  6  1  0
  8  9  1  0
  9 10  2  0
 11 10  1  0
 13  5  1  0
 14 15  1  0
 15 13  1  0
 16 17  1  0
 16 15  1  0
 18 17  1  0
 18 14  1  0
 19 14  1  0
 20 18  1  0
 21 22  1  0
 22 23  1  0
 24 23  1  0
 24 20  1  0
 25 24  1  0
 26 21  1  0
 26 25  1  0
  1 27  1  6
  2 28  1  6
  4 29  1  0
  4 30  1  0
  5 31  1  6
  6 32  1  0
  7 33  1  0
 10 34  1  0
 12 35  1  0
 14 36  1  1
 15 37  1  1
 17 38  1  0
 17 39  1  0
 18 40  1  1
 19 41  1  0
 21 42  1  0
 22 43  1  0
 22 44  1  0
 23 45  1  0
 23 46  1  0
 24 47  1  0
 25 48  1  0
 25 49  1  0
 26 50  1  0
 26 51  1  0
M  ISO  8  27  13  28  13  29  13  30  13  31  13  32  14  33  14  34  14
M  ISO  8  35   3  36  13  37  13  38  13  39  13  40  13  41   3  42   5
M  ISO  8  43  13  44  13  45  13  46  13  47  13  48  13  49  13  50  13
M  ISO  1  51  13
M  END
>  <minimizedAffinity>  (1) 
-5.56231546

>  <minimizedRMSD>  (1) 
1.58161974

$$$$
