
     RDKit          3D

 52 55  0  0  1  0  0  0  0  0999 V2000
   48.0200   34.6560   41.9630 C   0  0  2  0  0  0  0  0  0  0  0  0
   46.7040   33.8750   42.2420 C   0  0  1  0  0  0  0  0  0  0  0  0
   47.2330   32.6590   42.5520 O   0  0  0  0  0  0  0  0  0  0  0  0
   48.1130   32.3910   41.4820 C   0  0  0  0  0  0  0  0  0  0  0  0
   48.5000   33.7460   40.8550 C   0  0  1  0  0  0  0  0  0  0  0  0
   44.5190   36.0650   44.4540 C   0  0  0  0  0  0  0  0  0  0  0  0
   45.1770   35.6800   43.2820 C   0  0  0  0  0  0  0  0  0  0  0  0
   45.9340   34.5260   43.3100 C   0  0  0  0  0  0  0  0  0  0  0  0
   45.9860   33.8300   44.4970 N   0  0  0  0  0  0  0  0  0  0  0  0
   45.3390   34.2290   45.6070 C   0  0  0  0  0  0  0  0  0  0  0  0
   44.6040   35.3530   45.5790 N   0  0  0  0  0  0  0  0  0  0  0  0
   48.8970   34.5120   42.9980 O   0  0  0  0  0  0  0  0  0  0  0  0
   47.7460   33.9090   39.7310 O   0  0  0  0  0  0  0  0  0  0  0  0
   49.1650   32.9500   38.1130 C   0  0  1  0  0  0  0  0  0  0  0  0
   48.4430   34.3090   38.5910 C   0  0  1  0  0  0  0  0  0  0  0  0
   47.5850   34.4260   37.5620 O   0  0  0  0  0  0  0  0  0  0  0  0
   46.8880   33.1910   37.6850 C   0  0  0  0  0  0  0  0  0  0  0  0
   48.0170   32.1930   37.5320 C   0  0  1  0  0  0  0  0  0  0  0  0
   49.9880   33.3410   37.0560 O   0  0  0  0  0  0  0  0  0  0  0  0
   48.1600   31.9380   36.1930 O   0  0  0  0  0  0  0  0  0  0  0  0
   47.0730   31.5380   35.4990 C   0  0  0  0  0  0  0  0  0  0  0  0
   47.0430   30.0220   35.5080 C   0  0  0  0  0  0  0  0  0  0  0  0
   46.2770   29.4750   34.3300 C   0  0  0  0  0  0  0  0  0  0  0  0
   47.1190   29.7040   33.0890 C   0  0  0  0  0  0  0  0  0  0  0  0
   47.6330   31.1220   33.0710 C   0  0  0  0  0  0  0  0  0  0  0  0
   46.9290   32.0010   34.0940 C   0  0  0  0  0  0  0  0  0  0  0  0
   47.9180   35.7358   41.7798 H   0  0  0  0  0  0  0  0  0  0  0  0
   45.9619   33.8203   41.4318 H   0  0  0  0  0  0  0  0  0  0  0  0
   49.0122   31.8779   41.8538 H   0  0  0  0  0  0  0  0  0  0  0  0
   47.6324   31.7404   40.7365 H   0  0  0  0  0  0  0  0  0  0  0  0
   49.5496   33.8930   40.5604 H   0  0  0  0  0  0  0  0  0  0  0  0
   43.9128   36.9829   44.4483 H   0  0  0  0  0  0  0  0  0  0  0  0
   45.0938   36.2797   42.3636 H   0  0  0  0  0  0  0  0  0  0  0  0
   45.4114   33.6383   46.5321 H   0  0  0  0  0  0  0  0  0  0  0  0
   48.4104   34.5919   43.8564 H   0  0  0  0  0  0  0  0  0  0  0  0
   49.7292   32.3956   38.8774 H   0  0  0  0  0  0  0  0  0  0  0  0
   49.0384   35.2096   38.8020 H   0  0  0  0  0  0  0  0  0  0  0  0
   46.4012   33.1000   38.6672 H   0  0  0  0  0  0  0  0  0  0  0  0
   46.0721   33.0613   36.9587 H   0  0  0  0  0  0  0  0  0  0  0  0
   47.8892   31.2145   38.0180 H   0  0  0  0  0  0  0  0  0  0  0  0
   50.8212   33.7368   37.4155 H   0  0  0  0  0  0  0  0  0  0  0  0
   46.2309   32.0176   36.0194 H   0  0  0  0  0  0  0  0  0  0  0  0
   48.0754   29.6443   35.4690 H   0  0  0  0  0  0  0  0  0  0  0  0
   46.5389   29.6933   36.4288 H   0  0  0  0  0  0  0  0  0  0  0  0
   46.0962   28.3987   34.4672 H   0  0  0  0  0  0  0  0  0  0  0  0
   45.3036   29.9784   34.2347 H   0  0  0  0  0  0  0  0  0  0  0  0
   47.9704   29.0076   33.0925 H   0  0  0  0  0  0  0  0  0  0  0  0
   46.5009   29.5318   32.1955 H   0  0  0  0  0  0  0  0  0  0  0  0
   48.7100   31.1114   33.2944 H   0  0  0  0  0  0  0  0  0  0  0  0
   47.4355   31.5404   32.0730 H   0  0  0  0  0  0  0  0  0  0  0  0
   47.3459   33.0163   34.0212 H   0  0  0  0  0  0  0  0  0  0  0  0
   45.8554   31.9624   33.8576 H   0  0  0  0  0  0  0  0  0  0  0  0
  1  2  1  0
  1 12  1  0
  2  3  1  0
  2  8  1  0
  4  3  1  0
  5  4  1  0
  5  1  1  0
  6 11  2  0
  7  8  2  0
  7  6  1  0
  8  9  1  0
  9 10  2  0
 11 10  1  0
 13  5  1  0
 14 15  1  0
 15 13  1  0
 16 17  1  0
 16 15  1  0
 18 17  1  0
 18 14  1  0
 19 14  1  0
 20 18  1  0
 21 22  1  0
 21 20  1  0
 23 22  1  0
 24 23  1  0
 25 24  1  0
 25 26  1  0
 26 21  1  0
  1 27  1  6
  2 28  1  6
  4 29  1  0
  4 30  1  0
  5 31  1  6
  6 32  1  0
  7 33  1  0
 10 34  1  0
 12 35  1  0
 14 36  1  1
 15 37  1  1
 17 38  1  0
 17 39  1  0
 18 40  1  1
 19 41  1  0
 21 42  1  0
 22 43  1  0
 22 44  1  0
 23 45  1  0
 23 46  1  0
 24 47  1  0
 24 48  1  0
 25 49  1  0
 25 50  1  0
 26 51  1  0
 26 52  1  0
M  ISO  8  27  13  28  13  29  13  30  13  31  13  32  14  33  14  34  14
M  ISO  8  35   3  36  13  37  13  38  13  39  13  40  13  41   3  42  13
M  ISO  8  43  13  44  13  45  13  46  13  47  13  48  13  49  13  50  13
M  ISO  2  51  13  52  13
M  END
>  <minimizedAffinity>  (1) 
-5.54358292

>  <minimizedRMSD>  (1) 
1.27065253

$$$$
