
     RDKit          3D

 40 42  0  0  1  0  0  0  0  0999 V2000
   48.0370   34.6610   41.9760 C   0  0  2  0  0  0  0  0  0  0  0  0
   46.7250   33.8810   42.2560 C   0  0  1  0  0  0  0  0  0  0  0  0
   47.2570   32.6650   42.5720 O   0  0  0  0  0  0  0  0  0  0  0  0
   48.1380   32.3930   41.5050 C   0  0  0  0  0  0  0  0  0  0  0  0
   48.5220   33.7480   40.8730 C   0  0  1  0  0  0  0  0  0  0  0  0
   44.5190   36.0590   44.4580 C   0  0  0  0  0  0  0  0  0  0  0  0
   45.1870   35.6740   43.2920 C   0  0  0  0  0  0  0  0  0  0  0  0
   45.9490   34.5250   43.3240 C   0  0  0  0  0  0  0  0  0  0  0  0
   45.9990   33.8290   44.5120 N   0  0  0  0  0  0  0  0  0  0  0  0
   45.3430   34.2270   45.6170 C   0  0  0  0  0  0  0  0  0  0  0  0
   44.6020   35.3470   45.5850 N   0  0  0  0  0  0  0  0  0  0  0  0
   48.9130   34.5220   43.0150 O   0  0  0  0  0  0  0  0  0  0  0  0
   47.7700   33.9060   39.7480 O   0  0  0  0  0  0  0  0  0  0  0  0
   49.1460   32.9280   38.1030 C   0  0  1  0  0  0  0  0  0  0  0  0
   48.4670   34.2990   38.6060 C   0  0  1  0  0  0  0  0  0  0  0  0
   47.6020   34.4630   37.5880 O   0  0  0  0  0  0  0  0  0  0  0  0
   46.8670   33.2500   37.6950 C   0  0  0  0  0  0  0  0  0  0  0  0
   47.9590   32.2220   37.5230 C   0  0  1  0  0  0  0  0  0  0  0  0
   49.9650   33.3220   37.0350 O   0  0  0  0  0  0  0  0  0  0  0  0
   48.1140   31.9530   36.1760 O   0  0  0  0  0  0  0  0  0  0  0  0
   47.0510   31.3500   35.5180 C   0  0  0  0  0  0  0  0  0  0  0  0
   46.5090   30.2540   35.8900 O   0  0  0  0  0  0  0  0  0  0  0  0
   46.4600   31.9000   34.3580 N   0  0  0  0  0  0  0  0  0  0  0  0
   47.9329   35.7397   41.7873 H   0  0  0  0  0  0  0  0  0  0  0  0
   45.9861   33.8289   41.4427 H   0  0  0  0  0  0  0  0  0  0  0  0
   49.0379   31.8835   41.8799 H   0  0  0  0  0  0  0  0  0  0  0  0
   47.6606   31.7371   40.7621 H   0  0  0  0  0  0  0  0  0  0  0  0
   49.5718   33.8958   40.5798 H   0  0  0  0  0  0  0  0  0  0  0  0
   43.9081   36.9737   44.4471 H   0  0  0  0  0  0  0  0  0  0  0  0
   45.1069   36.2723   42.3724 H   0  0  0  0  0  0  0  0  0  0  0  0
   45.4131   33.6376   46.5431 H   0  0  0  0  0  0  0  0  0  0  0  0
   48.4235   34.5997   43.8720 H   0  0  0  0  0  0  0  0  0  0  0  0
   49.7057   32.3409   38.8460 H   0  0  0  0  0  0  0  0  0  0  0  0
   49.0930   35.1771   38.8228 H   0  0  0  0  0  0  0  0  0  0  0  0
   46.3810   33.1597   38.6777 H   0  0  0  0  0  0  0  0  0  0  0  0
   46.0450   33.1576   36.9699 H   0  0  0  0  0  0  0  0  0  0  0  0
   47.7751   31.2497   38.0035 H   0  0  0  0  0  0  0  0  0  0  0  0
   50.7983   33.7229   37.3886 H   0  0  0  0  0  0  0  0  0  0  0  0
   46.8170   32.7838   33.9677 H   0  0  0  0  0  0  0  0  0  0  0  0
   45.6723   31.4170   33.9029 H   0  0  0  0  0  0  0  0  0  0  0  0
  1  2  1  0
  1 12  1  0
  2  3  1  0
  2  8  1  0
  4  3  1  0
  5  4  1  0
  5  1  1  0
  6 11  2  0
  7  8  2  0
  7  6  1  0
  8  9  1  0
  9 10  2  0
 11 10  1  0
 13  5  1  0
 14 15  1  0
 15 13  1  0
 16 17  1  0
 16 15  1  0
 18 17  1  0
 18 14  1  0
 19 14  1  0
 20 18  1  0
 21 22  2  0
 21 20  1  0
 23 21  1  0
  1 24  1  6
  2 25  1  6
  4 26  1  0
  4 27  1  0
  5 28  1  6
  6 29  1  0
  7 30  1  0
 10 31  1  0
 12 32  1  0
 14 33  1  1
 15 34  1  1
 17 35  1  0
 17 36  1  0
 18 37  1  1
 19 38  1  0
 23 39  1  0
 23 40  1  0
M  ISO  8  24  13  25  13  26  13  27  13  28  13  29  14  30  14  31  14
M  ISO  7  32   3  33  13  34  13  35  13  36  13  37  13  38   3
M  END
>  <minimizedAffinity>  (1) 
-5.06418705

>  <minimizedRMSD>  (1) 
0.708780646

$$$$
