
     RDKit          3D

 38 40  0  0  1  0  0  0  0  0999 V2000
   48.0300   34.6820   41.9690 C   0  0  2  0  0  0  0  0  0  0  0  0
   46.7260   33.8900   42.2510 C   0  0  1  0  0  0  0  0  0  0  0  0
   47.2650   32.6780   42.5640 O   0  0  0  0  0  0  0  0  0  0  0  0
   48.1410   32.4120   41.4940 C   0  0  0  0  0  0  0  0  0  0  0  0
   48.5200   33.7710   40.8640 C   0  0  1  0  0  0  0  0  0  0  0  0
   44.5170   36.0580   44.4610 C   0  0  0  0  0  0  0  0  0  0  0  0
   45.1840   35.6770   43.2930 C   0  0  0  0  0  0  0  0  0  0  0  0
   45.9490   34.5310   43.3210 C   0  0  0  0  0  0  0  0  0  0  0  0
   46.0010   33.8350   44.5070 N   0  0  0  0  0  0  0  0  0  0  0  0
   45.3480   34.2250   45.6140 C   0  0  0  0  0  0  0  0  0  0  0  0
   44.6050   35.3420   45.5860 N   0  0  0  0  0  0  0  0  0  0  0  0
   48.9160   34.5430   43.0050 O   0  0  0  0  0  0  0  0  0  0  0  0
   47.7630   33.9210   39.7390 O   0  0  0  0  0  0  0  0  0  0  0  0
   49.1400   32.9200   38.1090 C   0  0  1  0  0  0  0  0  0  0  0  0
   48.4610   34.3010   38.5930 C   0  0  1  0  0  0  0  0  0  0  0  0
   47.5990   34.4530   37.5720 O   0  0  0  0  0  0  0  0  0  0  0  0
   46.8580   33.2430   37.6970 C   0  0  0  0  0  0  0  0  0  0  0  0
   47.9500   32.2100   37.5380 C   0  0  1  0  0  0  0  0  0  0  0  0
   49.9590   33.2980   37.0370 O   0  0  0  0  0  0  0  0  0  0  0  0
   48.1060   31.9220   36.1960 O   0  0  0  0  0  0  0  0  0  0  0  0
   46.9390   31.7520   35.4490 C   0  0  0  0  0  0  0  0  0  0  0  0
   46.7640   32.1200   34.2380 O   0  0  0  0  0  0  0  0  0  0  0  0
   47.9146   35.7603   41.7844 H   0  0  0  0  0  0  0  0  0  0  0  0
   45.9862   33.8300   41.4392 H   0  0  0  0  0  0  0  0  0  0  0  0
   49.0436   31.9033   41.8636 H   0  0  0  0  0  0  0  0  0  0  0  0
   47.6618   31.7576   40.7509 H   0  0  0  0  0  0  0  0  0  0  0  0
   49.5689   33.9275   40.5718 H   0  0  0  0  0  0  0  0  0  0  0  0
   43.9036   36.9711   44.4539 H   0  0  0  0  0  0  0  0  0  0  0  0
   45.1003   36.2768   42.3747 H   0  0  0  0  0  0  0  0  0  0  0  0
   45.4218   33.6324   46.5378 H   0  0  0  0  0  0  0  0  0  0  0  0
   48.4322   34.6189   43.8654 H   0  0  0  0  0  0  0  0  0  0  0  0
   49.6990   32.3417   38.8594 H   0  0  0  0  0  0  0  0  0  0  0  0
   49.0863   35.1822   38.7991 H   0  0  0  0  0  0  0  0  0  0  0  0
   46.3726   33.1678   38.6812 H   0  0  0  0  0  0  0  0  0  0  0  0
   46.0339   33.1425   36.9753 H   0  0  0  0  0  0  0  0  0  0  0  0
   47.7623   31.2451   38.0316 H   0  0  0  0  0  0  0  0  0  0  0  0
   50.8004   33.6863   37.3854 H   0  0  0  0  0  0  0  0  0  0  0  0
   46.0934   31.2563   35.9482 H   0  0  0  0  0  0  0  0  0  0  0  0
  1  2  1  0
  1 12  1  0
  2  3  1  0
  2  8  1  0
  4  3  1  0
  5  4  1  0
  5  1  1  0
  6 11  2  0
  7  8  2  0
  7  6  1  0
  8  9  1  0
  9 10  2  0
 11 10  1  0
 13  5  1  0
 14 15  1  0
 15 13  1  0
 16 17  1  0
 16 15  1  0
 18 17  1  0
 18 14  1  0
 19 14  1  0
 20 18  1  0
 21 20  1  0
 22 21  2  0
  1 23  1  6
  2 24  1  6
  4 25  1  0
  4 26  1  0
  5 27  1  6
  6 28  1  0
  7 29  1  0
 10 30  1  0
 12 31  1  0
 14 32  1  1
 15 33  1  1
 17 34  1  0
 17 35  1  0
 18 36  1  1
 19 37  1  0
 21 38  1  0
M  ISO  8  23  13  24  13  25  13  26  13  27  13  28  14  29  14  30  14
M  ISO  8  31   3  32  13  33  13  34  13  35  13  36  13  37   3  38   6
M  END
>  <minimizedAffinity>  (1) 
-5.01125717

>  <minimizedRMSD>  (1) 
0.624377608

$$$$
