
     RDKit          3D

 36 39  0  0  0  0  0  0  0  0999 V2000
   47.6520   31.9850   44.8930 Cl  0  0  0  0  0  0  0  0  0  0  0  0
   46.7510   32.0220   46.4140 C   0  0  0  0  0  0  0  0  0  0  0  0
   45.8150   33.0270   46.5810 C   0  0  0  0  0  0  0  0  0  0  0  0
   45.1410   33.0500   47.7490 C   0  0  0  0  0  0  0  0  0  0  0  0
   45.3960   32.0910   48.7250 C   0  0  0  0  0  0  0  0  0  0  0  0
   46.3280   31.0970   48.5460 C   0  0  0  0  0  0  0  0  0  0  0  0
   47.0310   31.0570   47.3520 C   0  0  0  0  0  0  0  0  0  0  0  0
   47.7710   28.9730   46.2510 C   0  0  0  0  0  0  0  0  0  0  0  0
   48.0230   30.0060   47.1530 C   0  0  0  0  0  0  0  0  0  0  0  0
   49.2200   29.9480   47.8000 C   0  0  0  0  0  0  0  0  0  0  0  0
   50.1670   28.9570   47.6190 C   0  0  0  0  0  0  0  0  0  0  0  0
   51.3840   28.7110   48.1390 N   0  0  0  0  0  0  0  0  0  0  0  0
   51.8680   27.5980   47.6040 N   0  0  0  0  0  0  0  0  0  0  0  0
   50.9780   27.1000   46.7260 C   0  0  0  0  0  0  0  0  0  0  0  0
   49.8930   27.9350   46.7130 C   0  0  0  0  0  0  0  0  0  0  0  0
   48.6900   27.9660   46.0430 C   0  0  0  0  0  0  0  0  0  0  0  0
   44.5040   35.8730   44.7090 C   0  0  0  0  0  0  0  0  0  0  0  0
   45.1730   35.7950   43.4630 C   0  0  0  0  0  0  0  0  0  0  0  0
   46.0850   34.7280   43.3120 C   0  0  0  0  0  0  0  0  0  0  0  0
   46.2600   33.8650   44.3490 N   0  0  0  0  0  0  0  0  0  0  0  0
   45.5970   33.9860   45.5140 C   0  0  0  0  0  0  0  0  0  0  0  0
   44.7220   34.9900   45.6890 N   0  0  0  0  0  0  0  0  0  0  0  0
   46.7480   34.6880   42.0130 C   0  0  0  0  0  0  0  0  0  0  0  0
   47.4610   33.4900   41.9280 F   0  0  0  0  0  0  0  0  0  0  0  0
   47.6840   35.6760   42.0000 F   0  0  0  0  0  0  0  0  0  0  0  0
   45.8680   34.7100   40.9480 F   0  0  0  0  0  0  0  0  0  0  0  0
   44.3868   33.8298   47.9310 H   0  0  0  0  0  0  0  0  0  0  0  0
   44.8337   32.1299   49.6696 H   0  0  0  0  0  0  0  0  0  0  0  0
   46.5119   30.3501   49.3324 H   0  0  0  0  0  0  0  0  0  0  0  0
   46.8218   28.9611   45.6952 H   0  0  0  0  0  0  0  0  0  0  0  0
   49.4502   30.7480   48.5191 H   0  0  0  0  0  0  0  0  0  0  0  0
   51.8628   29.2939   48.8403 H   0  0  0  0  0  0  0  0  0  0  0  0
   51.1003   26.1860   46.1263 H   0  0  0  0  0  0  0  0  0  0  0  0
   48.4563   27.1672   45.3237 H   0  0  0  0  0  0  0  0  0  0  0  0
   43.7820   36.6860   44.8757 H   0  0  0  0  0  0  0  0  0  0  0  0
   44.9923   36.5239   42.6592 H   0  0  0  0  0  0  0  0  0  0  0  0
  1  2  1  0
  2  3  2  0
  2  7  1  0
  3  4  1  0
  4  5  2  0
  6  5  1  0
  7  6  2  0
  8  9  2  0
  9  7  1  0
  9 10  1  0
 11 10  2  0
 11 12  1  0
 13 12  1  0
 14 13  2  0
 15 14  1  0
 15 11  1  0
 16  8  1  0
 16 15  2  0
 17 22  2  0
 18 17  1  0
 19 18  2  0
 19 20  1  0
 20 21  2  0
 21 22  1  0
 21  3  1  0
 23 19  1  0
 24 23  1  0
 25 23  1  0
 26 23  1  0
  4 27  1  0
  5 28  1  0
  6 29  1  0
  8 30  1  0
 10 31  1  0
 12 32  1  0
 14 33  1  0
 16 34  1  0
 17 35  1  0
 18 36  1  0
M  ISO  8  27  14  28  14  29  14  30  14  31  14  32   9  33  14  34  14
M  ISO  2  35  14  36  14
M  END
>  <minimizedAffinity>  (1) 
-6.14901209

>  <minimizedRMSD>  (1) 
0.77350843

$$$$
