
     RDKit          3D

 19 20  0  0  0  0  0  0  0  0999 V2000
   45.1870   35.5200   43.4970 C   0  0  0  0  0  0  0  0  0  0  0  0
   46.3970   35.1090   42.8780 C   0  0  0  0  0  0  0  0  0  0  0  0
   47.1510   34.1060   43.5130 C   0  0  0  0  0  0  0  0  0  0  0  0
   46.6760   33.5950   44.6710 N   0  0  0  0  0  0  0  0  0  0  0  0
   45.5330   34.0010   45.2310 C   0  0  0  0  0  0  0  0  0  0  0  0
   44.7920   34.9600   44.6460 N   0  0  0  0  0  0  0  0  0  0  0  0
   44.4290   36.5310   42.8570 N   0  0  0  0  0  0  0  0  0  0  0  0
   48.3980   33.5920   42.9990 C   0  0  0  0  0  0  0  0  0  0  0  0
   49.5530   34.3410   42.7660 C   0  0  0  0  0  0  0  0  0  0  0  0
   50.6400   33.6630   42.2740 C   0  0  0  0  0  0  0  0  0  0  0  0
   50.5070   32.2810   42.0420 C   0  0  0  0  0  0  0  0  0  0  0  0
   48.7360   31.9590   42.5630 S   0  0  0  0  0  0  0  0  0  0  0  0
   46.7335   35.5603   41.9329 H   0  0  0  0  0  0  0  0  0  0  0  0
   45.1958   33.5489   46.1754 H   0  0  0  0  0  0  0  0  0  0  0  0
   44.7611   36.9418   41.9728 H   0  0  0  0  0  0  0  0  0  0  0  0
   43.5457   36.8554   43.2758 H   0  0  0  0  0  0  0  0  0  0  0  0
   49.5899   35.4219   42.9670 H   0  0  0  0  0  0  0  0  0  0  0  0
   51.5866   34.1838   42.0672 H   0  0  0  0  0  0  0  0  0  0  0  0
   51.2524   31.5712   41.6539 H   0  0  0  0  0  0  0  0  0  0  0  0
  1  6  2  0
  2  1  1  0
  2  3  2  0
  3  4  1  0
  4  5  2  0
  6  5  1  0
  7  1  1  0
  8  3  1  0
  9  8  2  0
 10  9  1  0
 11 10  2  0
 11 12  1  0
 12  8  1  0
  2 13  1  0
  5 14  1  0
  7 15  1  0
  7 16  1  0
  9 17  1  0
 10 18  1  0
 11 19  1  0
M  ISO  5  13  14  14  14  17  14  18  14  19  14
M  END
>  <minimizedAffinity>  (1) 
-4.28146601

>  <minimizedRMSD>  (1) 
1.09123492

$$$$
