
     RDKit          3D

 13 13  0  0  0  0  0  0  0  0999 V2000
   45.1110   35.3610   44.1090 C   0  0  0  0  0  0  0  0  0  0  0  0
   46.1700   34.7770   43.3740 C   0  0  0  0  0  0  0  0  0  0  0  0
   46.8880   33.7270   43.9640 C   0  0  0  0  0  0  0  0  0  0  0  0
   46.5210   33.3350   45.2120 N   0  0  0  0  0  0  0  0  0  0  0  0
   45.5080   33.9120   45.8810 C   0  0  0  0  0  0  0  0  0  0  0  0
   44.8080   34.9160   45.3370 N   0  0  0  0  0  0  0  0  0  0  0  0
   44.3810   36.4320   43.5000 N   0  0  0  0  0  0  0  0  0  0  0  0
   47.9270   33.1580   43.2400 O   0  0  0  0  0  0  0  0  0  0  0  0
   46.4233   35.1374   42.3661 H   0  0  0  0  0  0  0  0  0  0  0  0
   45.2504   33.5548   46.8890 H   0  0  0  0  0  0  0  0  0  0  0  0
   44.6335   36.7556   42.5553 H   0  0  0  0  0  0  0  0  0  0  0  0
   43.6034   36.8787   44.0067 H   0  0  0  0  0  0  0  0  0  0  0  0
   48.4527   32.4149   43.6293 H   0  0  0  0  0  0  0  0  0  0  0  0
  1  6  2  0
  2  3  2  0
  2  1  1  0
  3  4  1  0
  4  5  2  0
  6  5  1  0
  7  1  1  0
  8  3  1  0
  2  9  1  0
  5 10  1  0
  7 11  1  0
  7 12  1  0
  8 13  1  0
M  ISO  3   9  14  10  14  13   3
M  END
>  <minimizedAffinity>  (1) 
-3.16703773

>  <minimizedRMSD>  (1) 
0.0893811435

$$$$
