
     RDKit          3D

 19 19  0  0  0  0  0  0  0  0999 V2000
   45.0770   35.0850   44.0510 C   0  0  0  0  0  0  0  0  0  0  0  0
   45.9060   35.3680   42.9560 C   0  0  0  0  0  0  0  0  0  0  0  0
   47.1090   34.6870   42.7930 C   0  0  0  0  0  0  0  0  0  0  0  0
   47.4170   33.7680   43.7270 N   0  0  0  0  0  0  0  0  0  0  0  0
   46.6110   33.4970   44.7860 C   0  0  0  0  0  0  0  0  0  0  0  0
   45.4410   34.1540   44.9480 N   0  0  0  0  0  0  0  0  0  0  0  0
   43.8600   35.7700   44.2200 N   0  0  0  0  0  0  0  0  0  0  0  0
   47.9640   35.0020   41.6340 C   0  0  0  0  0  0  0  0  0  0  0  0
   49.1520   35.8110   42.1180 C   0  0  0  0  0  0  0  0  0  0  0  0
   49.8720   35.1110   43.0570 O   0  0  0  0  0  0  0  0  0  0  0  0
   45.6045   36.1309   42.2232 H   0  0  0  0  0  0  0  0  0  0  0  0
   46.9135   32.7350   45.5194 H   0  0  0  0  0  0  0  0  0  0  0  0
   43.5727   36.4856   43.5372 H   0  0  0  0  0  0  0  0  0  0  0  0
   43.2563   35.5560   45.0266 H   0  0  0  0  0  0  0  0  0  0  0  0
   47.3917   35.5867   40.8988 H   0  0  0  0  0  0  0  0  0  0  0  0
   48.3098   34.0730   41.1572 H   0  0  0  0  0  0  0  0  0  0  0  0
   49.8038   36.0410   41.2623 H   0  0  0  0  0  0  0  0  0  0  0  0
   48.7815   36.7386   42.5788 H   0  0  0  0  0  0  0  0  0  0  0  0
   49.5877   35.3874   43.9641 H   0  0  0  0  0  0  0  0  0  0  0  0
  1  7  1  0
  1  6  2  0
  2  1  1  0
  3  2  2  0
  3  4  1  0
  4  5  2  0
  5  6  1  0
  8  9  1  0
  8  3  1  0
  9 10  1  0
  2 11  1  0
  5 12  1  0
  7 13  1  0
  7 14  1  0
  8 15  1  0
  8 16  1  0
  9 17  1  0
  9 18  1  0
 10 19  1  0
M  ISO  7  11  14  12  14  15   8  16   8  17   8  18   8  19   3
M  END
>  <minimizedAffinity>  (1) 
-4.33857918

>  <minimizedRMSD>  (1) 
0.285453856

$$$$
