
     RDKit          3D

 24 24  0  0  0  0  0  0  0  0999 V2000
   47.8720   34.1450   42.2560 C   0  0  0  0  0  0  0  0  0  0  0  0
   44.8860   35.0830   44.3490 C   0  0  0  0  0  0  0  0  0  0  0  0
   45.8120   35.0280   43.2730 C   0  0  0  0  0  0  0  0  0  0  0  0
   46.9190   34.1970   43.3850 C   0  0  0  0  0  0  0  0  0  0  0  0
   47.0700   33.4750   44.5090 N   0  0  0  0  0  0  0  0  0  0  0  0
   46.1730   33.5410   45.5260 C   0  0  0  0  0  0  0  0  0  0  0  0
   45.0910   34.3380   45.4480 N   0  0  0  0  0  0  0  0  0  0  0  0
   43.7530   35.9080   44.2700 N   0  0  0  0  0  0  0  0  0  0  0  0
   49.1810   33.5930   42.7400 C   0  0  0  0  0  0  0  0  0  0  0  0
   49.2800   32.2540   42.4070 O   0  0  0  0  0  0  0  0  0  0  0  0
   50.8530   30.5310   41.2190 O   0  0  0  0  0  0  0  0  0  0  0  0
   50.4780   31.9850   41.2450 P   0  0  0  0  0  0  0  0  0  0  0  0
   51.7800   32.9970   41.6140 O   0  0  0  0  0  0  0  0  0  0  0  0
   49.9080   32.5050   39.7220 O   0  0  0  0  0  0  0  0  0  0  0  0
   48.0252   35.1585   41.8569 H   0  0  0  0  0  0  0  0  0  0  0  0
   47.4694   33.4988   41.4621 H   0  0  0  0  0  0  0  0  0  0  0  0
   45.6550   35.6327   42.3676 H   0  0  0  0  0  0  0  0  0  0  0  0
   46.3331   32.9331   46.4287 H   0  0  0  0  0  0  0  0  0  0  0  0
   43.5909   36.4813   43.4298 H   0  0  0  0  0  0  0  0  0  0  0  0
   43.0837   35.9401   45.0523 H   0  0  0  0  0  0  0  0  0  0  0  0
   50.0066   34.1476   42.2701 H   0  0  0  0  0  0  0  0  0  0  0  0
   49.2363   33.6990   43.8335 H   0  0  0  0  0  0  0  0  0  0  0  0
   51.8733   33.0695   42.5969 H   0  0  0  0  0  0  0  0  0  0  0  0
   49.1827   33.1667   39.8494 H   0  0  0  0  0  0  0  0  0  0  0  0
  1  9  1  0
  1  4  1  0
  2  7  2  0
  3  4  2  0
  3  2  1  0
  4  5  1  0
  5  6  2  0
  7  6  1  0
  8  2  1  0
 10  9  1  0
 11 12  2  0
 12 13  1  0
 12 10  1  0
 14 12  1  0
  1 15  1  0
  1 16  1  0
  3 17  1  0
  6 18  1  0
  8 19  1  0
  8 20  1  0
  9 21  1  0
  9 22  1  0
 13 23  1  0
 14 24  1  0
M  ISO  8  15   8  16   8  17  14  18  14  21   8  22   8  23   3  24   3
M  END
>  <minimizedAffinity>  (1) 
-4.34683895

>  <minimizedRMSD>  (1) 
3.6493876

$$$$
