
     RDKit          3D

 40 42  0  0  0  0  0  0  0  0999 V2000
   49.2140   33.7140   42.7290 C   0  0  0  0  0  0  0  0  0  0  0  0
   47.8780   34.1470   42.2330 C   0  0  0  0  0  0  0  0  0  0  0  0
   44.8970   35.0700   44.3490 C   0  0  0  0  0  0  0  0  0  0  0  0
   45.8140   35.0140   43.2790 C   0  0  0  0  0  0  0  0  0  0  0  0
   46.9280   34.1870   43.3750 C   0  0  0  0  0  0  0  0  0  0  0  0
   47.0870   33.4670   44.5010 N   0  0  0  0  0  0  0  0  0  0  0  0
   46.2010   33.5350   45.5140 C   0  0  0  0  0  0  0  0  0  0  0  0
   45.1160   34.3230   45.4490 N   0  0  0  0  0  0  0  0  0  0  0  0
   43.7650   35.9020   44.2650 N   0  0  0  0  0  0  0  0  0  0  0  0
   49.3750   32.3470   42.6110 O   0  0  0  0  0  0  0  0  0  0  0  0
   50.3620   30.4170   41.1560 O   0  0  0  0  0  0  0  0  0  0  0  0
   50.2370   31.9220   41.2100 P   0  0  2  0  0  0  0  0  0  0  0  0
   51.7330   32.6790   41.2990 O   0  0  0  0  0  0  0  0  0  0  0  0
   49.4240   32.5480   39.8720 O   0  0  0  0  0  0  0  0  0  0  0  0
   49.5000   32.1390   38.5700 C   0  0  0  0  0  0  0  0  0  0  0  0
   50.6130   31.5840   37.9660 C   0  0  0  0  0  0  0  0  0  0  0  0
   50.5370   31.2130   36.6220 C   0  0  0  0  0  0  0  0  0  0  0  0
   49.3680   31.4060   35.9310 C   0  0  0  0  0  0  0  0  0  0  0  0
   48.2460   31.9580   36.5120 C   0  0  0  0  0  0  0  0  0  0  0  0
   47.0920   32.1330   35.7740 C   0  0  0  0  0  0  0  0  0  0  0  0
   45.9790   32.6790   36.3480 C   0  0  0  0  0  0  0  0  0  0  0  0
   46.0230   33.0530   37.6710 C   0  0  0  0  0  0  0  0  0  0  0  0
   47.1690   32.8860   38.4210 C   0  0  0  0  0  0  0  0  0  0  0  0
   48.3170   32.3290   37.8520 C   0  0  0  0  0  0  0  0  0  0  0  0
   49.9951   34.2187   42.1414 H   0  0  0  0  0  0  0  0  0  0  0  0
   49.2926   33.9820   43.7929 H   0  0  0  0  0  0  0  0  0  0  0  0
   47.9578   35.1482   41.7844 H   0  0  0  0  0  0  0  0  0  0  0  0
   47.5162   33.4388   41.4730 H   0  0  0  0  0  0  0  0  0  0  0  0
   45.6494   35.6197   42.3756 H   0  0  0  0  0  0  0  0  0  0  0  0
   46.3710   32.9298   46.4167 H   0  0  0  0  0  0  0  0  0  0  0  0
   43.6047   36.4699   43.4208 H   0  0  0  0  0  0  0  0  0  0  0  0
   43.0968   35.9430   45.0478 H   0  0  0  0  0  0  0  0  0  0  0  0
   51.9829   32.8054   42.2486 H   0  0  0  0  0  0  0  0  0  0  0  0
   51.5430   31.4371   38.5348 H   0  0  0  0  0  0  0  0  0  0  0  0
   51.4093   30.7687   36.1204 H   0  0  0  0  0  0  0  0  0  0  0  0
   49.3239   31.1090   34.8728 H   0  0  0  0  0  0  0  0  0  0  0  0
   47.0688   31.8307   34.7166 H   0  0  0  0  0  0  0  0  0  0  0  0
   45.0598   32.8177   35.7600 H   0  0  0  0  0  0  0  0  0  0  0  0
   45.1297   33.4925   38.1388 H   0  0  0  0  0  0  0  0  0  0  0  0
   47.1789   33.1943   39.4769 H   0  0  0  0  0  0  0  0  0  0  0  0
  2  1  1  0
  2  5  1  0
  3  8  2  0
  4  5  2  0
  4  3  1  0
  5  6  1  0
  6  7  2  0
  8  7  1  0
  9  3  1  0
 10  1  1  0
 12 11  2  0
 12 13  1  0
 12 10  1  0
 14 12  1  0
 15 14  1  0
 16 15  2  0
 17 16  1  0
 18 19  1  0
 18 17  2  0
 19 24  2  0
 20 21  2  0
 20 19  1  0
 21 22  1  0
 22 23  2  0
 24 23  1  0
 24 15  1  0
  1 25  1  0
  1 26  1  0
  2 27  1  0
  2 28  1  0
  4 29  1  0
  7 30  1  0
  9 31  1  0
  9 32  1  0
 13 33  1  0
 16 34  1  0
 17 35  1  0
 18 36  1  0
 20 37  1  0
 21 38  1  0
 22 39  1  0
 23 40  1  0
M  ISO  8  25   8  26   8  27   8  28   8  29  14  30  14  33   3  34  14
M  ISO  6  35  14  36  14  37  14  38  14  39  14  40  14
M  END
>  <minimizedAffinity>  (1) 
-5.13352489

>  <minimizedRMSD>  (1) 
2.72879767

$$$$
