
     RDKit          3D

 34 35  0  0  0  0  0  0  0  0999 V2000
   49.1870   33.6270   42.7000 C   0  0  0  0  0  0  0  0  0  0  0  0
   47.9130   34.2540   42.2390 C   0  0  0  0  0  0  0  0  0  0  0  0
   44.8940   35.0700   44.3360 C   0  0  0  0  0  0  0  0  0  0  0  0
   45.8320   35.0650   43.2580 C   0  0  0  0  0  0  0  0  0  0  0  0
   46.9440   34.2530   43.3640 C   0  0  0  0  0  0  0  0  0  0  0  0
   47.0990   33.5030   44.4700 N   0  0  0  0  0  0  0  0  0  0  0  0
   46.1950   33.5230   45.4820 C   0  0  0  0  0  0  0  0  0  0  0  0
   45.1050   34.2960   45.4190 N   0  0  0  0  0  0  0  0  0  0  0  0
   43.7570   35.8900   44.2530 N   0  0  0  0  0  0  0  0  0  0  0  0
   49.1900   32.2790   42.4280 O   0  0  0  0  0  0  0  0  0  0  0  0
   50.7230   30.4580   41.3630 O   0  0  0  0  0  0  0  0  0  0  0  0
   50.3180   31.9040   41.2230 P   0  0  2  0  0  0  0  0  0  0  0  0
   51.6660   32.9120   41.4980 O   0  0  0  0  0  0  0  0  0  0  0  0
   49.7550   32.2510   39.7280 O   0  0  0  0  0  0  0  0  0  0  0  0
   48.5710   32.4600   39.1240 C   0  0  0  0  0  0  0  0  0  0  0  0
   48.6180   33.3710   38.0730 C   0  0  0  0  0  0  0  0  0  0  0  0
   47.4610   33.6840   37.3560 C   0  0  0  0  0  0  0  0  0  0  0  0
   46.2450   33.1070   37.6640 C   0  0  0  0  0  0  0  0  0  0  0  0
   46.1850   32.2030   38.7040 C   0  0  0  0  0  0  0  0  0  0  0  0
   47.3160   31.9020   39.3990 C   0  0  0  0  0  0  0  0  0  0  0  0
   50.0323   34.1023   42.1808 H   0  0  0  0  0  0  0  0  0  0  0  0
   49.2789   33.7693   43.7869 H   0  0  0  0  0  0  0  0  0  0  0  0
   48.1052   35.2883   41.9177 H   0  0  0  0  0  0  0  0  0  0  0  0
   47.5021   33.6854   41.3917 H   0  0  0  0  0  0  0  0  0  0  0  0
   45.6726   35.6911   42.3677 H   0  0  0  0  0  0  0  0  0  0  0  0
   46.3613   32.8933   46.3685 H   0  0  0  0  0  0  0  0  0  0  0  0
   43.6055   36.4776   43.4207 H   0  0  0  0  0  0  0  0  0  0  0  0
   43.0746   35.9038   45.0244 H   0  0  0  0  0  0  0  0  0  0  0  0
   51.8063   33.0169   42.4724 H   0  0  0  0  0  0  0  0  0  0  0  0
   49.5725   33.8476   37.8052 H   0  0  0  0  0  0  0  0  0  0  0  0
   47.5198   34.4058   36.5280 H   0  0  0  0  0  0  0  0  0  0  0  0
   45.3416   33.3633   37.0911 H   0  0  0  0  0  0  0  0  0  0  0  0
   45.2291   31.7282   38.9701 H   0  0  0  0  0  0  0  0  0  0  0  0
   47.2400   31.1787   40.2243 H   0  0  0  0  0  0  0  0  0  0  0  0
  2  1  1  0
  2  5  1  0
  3  8  2  0
  4  5  2  0
  4  3  1  0
  5  6  1  0
  6  7  2  0
  8  7  1  0
  9  3  1  0
 10  1  1  0
 12 11  2  0
 12 13  1  0
 12 10  1  0
 14 12  1  0
 15 20  1  0
 15 14  1  0
 16 15  2  0
 17 18  2  0
 17 16  1  0
 18 19  1  0
 19 20  2  0
  1 21  1  0
  1 22  1  0
  2 23  1  0
  2 24  1  0
  4 25  1  0
  7 26  1  0
  9 27  1  0
  9 28  1  0
 13 29  1  0
 16 30  1  0
 17 31  1  0
 18 32  1  0
 19 33  1  0
 20 34  1  0
M  ISO  8  21   8  22   8  23   8  24   8  25  14  26  14  29   3  30  14
M  ISO  4  31  14  32  14  33  14  34  14
M  END
>  <minimizedAffinity>  (1) 
-4.65263557

>  <minimizedRMSD>  (1) 
0.887652457

$$$$
