
     RDKit          3D

 36 37  0  0  1  0  0  0  0  0999 V2000
   49.1010   33.6090   42.7380 C   0  0  0  0  0  0  0  0  0  0  0  0
   47.7880   34.1770   42.2700 C   0  0  0  0  0  0  0  0  0  0  0  0
   44.8400   35.1010   44.4250 C   0  0  0  0  0  0  0  0  0  0  0  0
   45.7420   35.0540   43.3320 C   0  0  0  0  0  0  0  0  0  0  0  0
   46.8490   34.2210   43.4160 C   0  0  0  0  0  0  0  0  0  0  0  0
   47.0300   33.4870   44.5310 N   0  0  0  0  0  0  0  0  0  0  0  0
   46.1510   33.5520   45.5610 C   0  0  0  0  0  0  0  0  0  0  0  0
   45.0660   34.3530   45.5060 N   0  0  0  0  0  0  0  0  0  0  0  0
   43.7150   35.9230   44.3680 N   0  0  0  0  0  0  0  0  0  0  0  0
   49.2220   32.3160   42.2650 O   0  0  0  0  0  0  0  0  0  0  0  0
   51.3860   30.9700   42.8320 O   0  0  0  0  0  0  0  0  0  0  0  0
   50.8150   31.9470   41.8310 P   0  0  2  0  0  0  0  0  0  0  0  0
   51.6710   33.3920   41.8240 O   0  0  0  0  0  0  0  0  0  0  0  0
   50.8440   31.3300   40.2750 O   0  0  0  0  0  0  0  0  0  0  0  0
   53.1860   31.4730   40.4330 N   0  0  0  0  0  0  0  0  0  0  0  0
   53.8480   30.2260   40.2230 C   0  0  0  0  0  0  0  0  0  0  0  0
   53.5230   29.7730   38.8390 C   0  0  0  0  0  0  0  0  0  0  0  0
   52.1410   30.3390   38.6100 C   0  0  0  0  0  0  0  0  0  0  0  0
   52.0020   31.5060   39.5720 C   0  0  1  0  0  0  0  0  0  0  0  0
   49.9279   34.2228   42.3514 H   0  0  0  0  0  0  0  0  0  0  0  0
   49.1371   33.6092   43.8374 H   0  0  0  0  0  0  0  0  0  0  0  0
   47.9433   35.1939   41.8805 H   0  0  0  0  0  0  0  0  0  0  0  0
   47.3721   33.5456   41.4710 H   0  0  0  0  0  0  0  0  0  0  0  0
   45.5678   35.6660   42.4347 H   0  0  0  0  0  0  0  0  0  0  0  0
   46.3253   32.9404   46.4585 H   0  0  0  0  0  0  0  0  0  0  0  0
   43.5409   36.5004   43.5331 H   0  0  0  0  0  0  0  0  0  0  0  0
   43.0582   35.9527   45.1608 H   0  0  0  0  0  0  0  0  0  0  0  0
   51.8412   33.6793   42.7560 H   0  0  0  0  0  0  0  0  0  0  0  0
   52.9033   31.5570   41.4199 H   0  0  0  0  0  0  0  0  0  0  0  0
   54.9351   30.3552   40.3303 H   0  0  0  0  0  0  0  0  0  0  0  0
   53.5161   29.4820   40.9621 H   0  0  0  0  0  0  0  0  0  0  0  0
   54.2416   30.1786   38.1116 H   0  0  0  0  0  0  0  0  0  0  0  0
   53.5686   28.6805   38.7193 H   0  0  0  0  0  0  0  0  0  0  0  0
   52.0372   30.6855   37.5712 H   0  0  0  0  0  0  0  0  0  0  0  0
   51.3619   29.5813   38.7804 H   0  0  0  0  0  0  0  0  0  0  0  0
   51.9463   32.4846   39.0728 H   0  0  0  0  0  0  0  0  0  0  0  0
  2  1  1  0
  2  5  1  0
  3  8  2  0
  4  5  2  0
  4  3  1  0
  5  6  1  0
  6  7  2  0
  8  7  1  0
  9  3  1  0
 10  1  1  0
 12 10  1  0
 12 11  2  0
 13 12  1  0
 14 12  1  0
 16 15  1  0
 17 16  1  0
 18 17  1  0
 18 19  1  0
 19 14  1  0
 19 15  1  0
  1 20  1  0
  1 21  1  0
  2 22  1  0
  2 23  1  0
  4 24  1  0
  7 25  1  0
  9 26  1  0
  9 27  1  0
 13 28  1  0
 15 29  1  0
 16 30  1  0
 16 31  1  0
 17 32  1  0
 17 33  1  0
 18 34  1  0
 18 35  1  0
 19 36  1  6
M  ISO  8  20   8  21   8  22   8  23   8  24  14  25  14  28   3  29   5
M  ISO  7  30  13  31  13  32  13  33  13  34  13  35  13  36  13
M  END
>  <minimizedAffinity>  (1) 
-4.60745955

>  <minimizedRMSD>  (1) 
1.41665661

$$$$
