
     RDKit          3D

 27 27  0  0  0  0  0  0  0  0999 V2000
   47.6730   35.1910   41.6260 C   0  0  0  0  0  0  0  0  0  0  0  0
   44.8180   35.1610   44.0770 C   0  0  0  0  0  0  0  0  0  0  0  0
   45.6290   35.4830   42.9560 C   0  0  0  0  0  0  0  0  0  0  0  0
   46.8450   34.8490   42.7900 C   0  0  0  0  0  0  0  0  0  0  0  0
   47.2110   33.9370   43.7170 N   0  0  0  0  0  0  0  0  0  0  0  0
   46.4310   33.6390   44.7800 C   0  0  0  0  0  0  0  0  0  0  0  0
   45.2400   34.2500   44.9550 N   0  0  0  0  0  0  0  0  0  0  0  0
   43.5830   35.7830   44.2750 N   0  0  0  0  0  0  0  0  0  0  0  0
   49.0240   34.5440   41.7690 C   0  0  0  0  0  0  0  0  0  0  0  0
   49.0780   33.4070   40.9880 O   0  0  0  0  0  0  0  0  0  0  0  0
   49.7240   31.4290   42.5740 O   0  0  0  0  0  0  0  0  0  0  0  0
   50.2830   32.3430   41.5270 P   0  0  2  0  0  0  0  0  0  0  0  0
   51.5760   33.2650   42.0740 O   0  0  0  0  0  0  0  0  0  0  0  0
   50.8640   31.4470   40.1840 O   0  0  0  0  0  0  0  0  0  0  0  0
   49.7380   31.3250   39.3370 C   0  0  0  0  0  0  0  0  0  0  0  0
   49.9560   30.4250   38.3260 F   0  0  0  0  0  0  0  0  0  0  0  0
   48.6660   30.9240   40.1370 F   0  0  0  0  0  0  0  0  0  0  0  0
   49.4110   32.5760   38.8580 F   0  0  0  0  0  0  0  0  0  0  0  0
   47.7928   36.2829   41.5685 H   0  0  0  0  0  0  0  0  0  0  0  0
   47.1863   34.8286   40.7085 H   0  0  0  0  0  0  0  0  0  0  0  0
   45.2909   36.2322   42.2250 H   0  0  0  0  0  0  0  0  0  0  0  0
   46.7706   32.8902   45.5107 H   0  0  0  0  0  0  0  0  0  0  0  0
   43.2478   36.4879   43.6030 H   0  0  0  0  0  0  0  0  0  0  0  0
   43.0076   35.5367   45.0930 H   0  0  0  0  0  0  0  0  0  0  0  0
   49.8036   35.2487   41.4440 H   0  0  0  0  0  0  0  0  0  0  0  0
   49.1891   34.2720   42.8220 H   0  0  0  0  0  0  0  0  0  0  0  0
   51.5825   33.2697   43.0640 H   0  0  0  0  0  0  0  0  0  0  0  0
  1  9  1  0
  1  4  1  0
  2  8  1  0
  2  7  2  0
  3  2  1  0
  4  3  2  0
  4  5  1  0
  5  6  2  0
  6  7  1  0
 10 12  1  0
 10  9  1  0
 12 13  1  0
 12 11  2  0
 14 12  1  0
 15 17  1  0
 15 14  1  0
 16 15  1  0
 18 15  1  0
  1 19  1  0
  1 20  1  0
  3 21  1  0
  6 22  1  0
  8 23  1  0
  8 24  1  0
  9 25  1  0
  9 26  1  0
 13 27  1  0
M  ISO  7  19   8  20   8  21  14  22  14  25   8  26   8  27   3
M  END
>  <minimizedAffinity>  (1) 
-4.39422321

>  <minimizedRMSD>  (1) 
1.12116849

$$$$
