
     RDKit          3D

 36 37  0  0  1  0  0  0  0  0999 V2000
   49.1300   34.2630   41.8490 C   0  0  0  0  0  0  0  0  0  0  0  0
   47.8430   35.0060   41.6820 C   0  0  0  0  0  0  0  0  0  0  0  0
   44.9080   35.1370   44.0360 C   0  0  0  0  0  0  0  0  0  0  0  0
   45.7560   35.4090   42.9430 C   0  0  0  0  0  0  0  0  0  0  0  0
   46.9520   34.7160   42.8390 C   0  0  0  0  0  0  0  0  0  0  0  0
   47.2630   33.8040   43.7900 N   0  0  0  0  0  0  0  0  0  0  0  0
   46.4250   33.5650   44.8300 C   0  0  0  0  0  0  0  0  0  0  0  0
   45.2650   34.2190   44.9570 N   0  0  0  0  0  0  0  0  0  0  0  0
   43.6830   35.8210   44.1760 N   0  0  0  0  0  0  0  0  0  0  0  0
   49.1750   33.1670   41.0010 O   0  0  0  0  0  0  0  0  0  0  0  0
   50.0900   31.2060   42.4720 O   0  0  0  0  0  0  0  0  0  0  0  0
   50.4800   32.1530   41.3660 P   0  0  2  0  0  0  0  0  0  0  0  0
   51.8000   33.1200   41.7530 O   0  0  0  0  0  0  0  0  0  0  0  0
   50.9020   31.2860   39.9580 O   0  0  0  0  0  0  0  0  0  0  0  0
   52.4010   31.5770   38.1780 C   0  0  1  0  0  0  0  0  0  0  0  0
   52.2380   31.3850   39.6720 C   0  0  2  0  0  0  0  0  0  0  0  0
   52.8150   29.9690   39.7940 C   0  0  0  0  0  0  0  0  0  0  0  0
   52.3630   29.2850   38.6870 O   0  0  0  0  0  0  0  0  0  0  0  0
   52.1190   30.1820   37.6780 C   0  0  0  0  0  0  0  0  0  0  0  0
   51.5280   32.5300   37.6590 O   0  0  0  0  0  0  0  0  0  0  0  0
   49.9685   34.9355   41.6152 H   0  0  0  0  0  0  0  0  0  0  0  0
   49.2032   33.9102   42.8883 H   0  0  0  0  0  0  0  0  0  0  0  0
   48.0459   36.0862   41.6365 H   0  0  0  0  0  0  0  0  0  0  0  0
   47.3522   34.6869   40.7507 H   0  0  0  0  0  0  0  0  0  0  0  0
   45.4739   36.1568   42.1872 H   0  0  0  0  0  0  0  0  0  0  0  0
   46.7058   32.8166   45.5857 H   0  0  0  0  0  0  0  0  0  0  0  0
   43.4027   36.5237   43.4770 H   0  0  0  0  0  0  0  0  0  0  0  0
   43.0684   35.6180   44.9772 H   0  0  0  0  0  0  0  0  0  0  0  0
   51.8858   33.1828   42.7373 H   0  0  0  0  0  0  0  0  0  0  0  0
   53.3839   31.9687   37.8772 H   0  0  0  0  0  0  0  0  0  0  0  0
   52.6820   32.1696   40.3023 H   0  0  0  0  0  0  0  0  0  0  0  0
   53.9145   30.0023   39.8016 H   0  0  0  0  0  0  0  0  0  0  0  0
   52.5001   29.4817   40.7286 H   0  0  0  0  0  0  0  0  0  0  0  0
   51.0667   30.1083   37.3662 H   0  0  0  0  0  0  0  0  0  0  0  0
   52.7682   29.9583   36.8186 H   0  0  0  0  0  0  0  0  0  0  0  0
   51.0862   33.0123   38.4022 H   0  0  0  0  0  0  0  0  0  0  0  0
  2  1  1  0
  2  5  1  0
  3  9  1  0
  3  8  2  0
  4  3  1  0
  5  4  2  0
  5  6  1  0
  6  7  2  0
  7  8  1  0
 10 12  1  0
 10  1  1  0
 12 13  1  0
 12 11  2  0
 14 12  1  0
 15 20  1  0
 15 16  1  0
 16 17  1  0
 16 14  1  0
 18 17  1  0
 19 15  1  0
 19 18  1  0
  1 21  1  0
  1 22  1  0
  2 23  1  0
  2 24  1  0
  4 25  1  0
  7 26  1  0
  9 27  1  0
  9 28  1  0
 13 29  1  0
 15 30  1  1
 16 31  1  1
 17 32  1  0
 17 33  1  0
 19 34  1  0
 19 35  1  0
 20 36  1  0
M  ISO  8  21   8  22   8  23   8  24   8  25  14  26  14  29   3  30  13
M  ISO  6  31  13  32  13  33  13  34  13  35  13  36   3
M  END
>  <minimizedAffinity>  (1) 
-5.1364193

>  <minimizedRMSD>  (1) 
1.77525771

$$$$
