
     RDKit          3D

 39 40  0  0  1  0  0  0  0  0999 V2000
   49.5540   31.4370   42.6330 O   0  0  0  0  0  0  0  0  0  0  0  0
   50.2560   32.3970   41.6890 P   0  0  2  0  0  0  0  0  0  0  0  0
   51.4680   33.2690   42.4380 O   0  0  0  0  0  0  0  0  0  0  0  0
   49.1210   33.4540   41.0390 O   0  0  0  0  0  0  0  0  0  0  0  0
   49.0400   34.6230   41.7820 C   0  0  0  0  0  0  0  0  0  0  0  0
   47.6880   35.2420   41.6410 C   0  0  0  0  0  0  0  0  0  0  0  0
   44.8320   35.1630   44.0740 C   0  0  0  0  0  0  0  0  0  0  0  0
   45.6240   35.5120   42.9710 C   0  0  0  0  0  0  0  0  0  0  0  0
   46.8430   34.8740   42.8120 C   0  0  0  0  0  0  0  0  0  0  0  0
   47.2170   33.9440   43.7210 N   0  0  0  0  0  0  0  0  0  0  0  0
   46.4320   33.6310   44.7700 C   0  0  0  0  0  0  0  0  0  0  0  0
   45.2520   34.2270   44.9530 N   0  0  0  0  0  0  0  0  0  0  0  0
   43.5790   35.7800   44.2900 N   0  0  0  0  0  0  0  0  0  0  0  0
   50.9820   31.4980   40.4270 O   0  0  0  0  0  0  0  0  0  0  0  0
   52.9450   31.1670   39.1820 C   0  0  1  0  0  0  0  0  0  0  0  0
   52.3510   31.5080   40.5190 C   0  0  2  0  0  0  0  0  0  0  0  0
   52.7090   30.2040   41.2660 C   0  0  0  0  0  0  0  0  0  0  0  0
   52.5250   29.1900   40.3730 O   0  0  0  0  0  0  0  0  0  0  0  0
   52.6670   29.6830   39.1000 C   0  0  0  0  0  0  0  0  0  0  0  0
   52.3670   31.8800   38.1380 O   0  0  0  0  0  0  0  0  0  0  0  0
   51.9660   31.0740   37.0850 C   0  0  0  0  0  0  0  0  0  0  0  0
   51.3677   33.1968   43.4203 H   0  0  0  0  0  0  0  0  0  0  0  0
   49.2230   34.3914   42.8417 H   0  0  0  0  0  0  0  0  0  0  0  0
   49.7953   35.3319   41.4119 H   0  0  0  0  0  0  0  0  0  0  0  0
   47.7899   36.3362   41.5930 H   0  0  0  0  0  0  0  0  0  0  0  0
   47.2133   34.8747   40.7192 H   0  0  0  0  0  0  0  0  0  0  0  0
   45.2863   36.2721   42.2512 H   0  0  0  0  0  0  0  0  0  0  0  0
   46.7698   32.8701   45.4890 H   0  0  0  0  0  0  0  0  0  0  0  0
   43.2377   36.4964   43.6334 H   0  0  0  0  0  0  0  0  0  0  0  0
   43.0071   35.5133   45.1041 H   0  0  0  0  0  0  0  0  0  0  0  0
   54.0103   31.4256   39.0913 H   0  0  0  0  0  0  0  0  0  0  0  0
   52.6812   32.4687   40.9409 H   0  0  0  0  0  0  0  0  0  0  0  0
   53.7565   30.2318   41.6006 H   0  0  0  0  0  0  0  0  0  0  0  0
   52.0817   30.0693   42.1595 H   0  0  0  0  0  0  0  0  0  0  0  0
   51.7413   29.5109   38.5312 H   0  0  0  0  0  0  0  0  0  0  0  0
   53.4992   29.1737   38.5920 H   0  0  0  0  0  0  0  0  0  0  0  0
   51.5087   30.1549   37.4802 H   0  0  0  0  0  0  0  0  0  0  0  0
   51.2313   31.6136   36.4693 H   0  0  0  0  0  0  0  0  0  0  0  0
   52.8396   30.8135   36.4693 H   0  0  0  0  0  0  0  0  0  0  0  0
  2  3  1  0
  2  1  2  0
  4  2  1  0
  4  5  1  0
  6  5  1  0
  6  9  1  0
  7 13  1  0
  7 12  2  0
  8  7  1  0
  9  8  2  0
  9 10  1  0
 10 11  2  0
 11 12  1  0
 14 16  1  0
 14  2  1  0
 15 16  1  0
 16 17  1  0
 18 17  1  0
 19 15  1  0
 19 18  1  0
 20 15  1  0
 21 20  1  0
  3 22  1  0
  5 23  1  0
  5 24  1  0
  6 25  1  0
  6 26  1  0
  8 27  1  0
 11 28  1  0
 13 29  1  0
 13 30  1  0
 15 31  1  1
 16 32  1  1
 17 33  1  0
 17 34  1  0
 19 35  1  0
 19 36  1  0
 21 37  1  0
 21 38  1  0
 21 39  1  0
M  ISO  8  22   3  23   8  24   8  25   8  26   8  27  14  28  14  31  13
M  ISO  8  32  13  33  13  34  13  35  13  36  13  37   8  38   8  39   8
M  END
>  <minimizedAffinity>  (1) 
-4.81643724

>  <minimizedRMSD>  (1) 
0.955595672

$$$$
