
     RDKit          3D

 23 25  0  0  1  0  0  0  0  0999 V2000
   48.6790   33.9320   42.8890 C   0  0  1  0  0  0  0  0  0  0  0  0
   49.0720   33.4940   41.5570 C   0  0  2  0  0  0  0  0  0  0  0  0
   49.5100   34.8290   42.0040 C   0  0  0  0  0  0  0  0  0  0  0  0
   46.6300   33.6960   44.2800 C   0  0  0  0  0  0  0  0  0  0  0  0
   47.3030   34.3510   43.2210 C   0  0  0  0  0  0  0  0  0  0  0  0
   46.6040   35.3540   42.5410 C   0  0  0  0  0  0  0  0  0  0  0  0
   45.3340   35.6320   42.9360 N   0  0  0  0  0  0  0  0  0  0  0  0
   44.7190   34.9900   43.9480 C   0  0  0  0  0  0  0  0  0  0  0  0
   45.3780   34.0090   44.6280 N   0  0  0  0  0  0  0  0  0  0  0  0
   48.2160   33.5010   40.3550 C   0  0  0  0  0  0  0  0  0  0  0  0
   47.2490   32.6180   39.9590 N   0  0  0  0  0  0  0  0  0  0  0  0
   46.7090   32.9990   38.7930 C   0  0  0  0  0  0  0  0  0  0  0  0
   47.3380   34.1270   38.4500 N   0  0  0  0  0  0  0  0  0  0  0  0
   48.2290   34.4370   39.3590 N   0  0  0  0  0  0  0  0  0  0  0  0
   48.7665   33.4800   43.8880 H   0  0  0  0  0  0  0  0  0  0  0  0
   49.5092   32.5363   41.2380 H   0  0  0  0  0  0  0  0  0  0  0  0
   50.5681   35.0149   42.2405 H   0  0  0  0  0  0  0  0  0  0  0  0
   49.4218   35.8559   41.6196 H   0  0  0  0  0  0  0  0  0  0  0  0
   47.1543   32.9038   44.8345 H   0  0  0  0  0  0  0  0  0  0  0  0
   47.0698   35.9027   41.7092 H   0  0  0  0  0  0  0  0  0  0  0  0
   43.6883   35.2564   44.2249 H   0  0  0  0  0  0  0  0  0  0  0  0
   45.9117   32.4881   38.2333 H   0  0  0  0  0  0  0  0  0  0  0  0
   47.1500   34.6724   37.5967 H   0  0  0  0  0  0  0  0  0  0  0  0
  1  5  1  0
  2  3  1  0
  2  1  1  0
  3  1  1  0
  4  9  2  0
  5  4  1  0
  6  7  1  0
  6  5  2  0
  7  8  2  0
  8  9  1  0
 10  2  1  0
 11 10  1  0
 12 11  2  0
 13 12  1  0
 13 14  1  0
 14 10  2  0
  1 15  1  1
  2 16  1  1
  3 17  1  0
  3 18  1  0
  4 19  1  0
  6 20  1  0
  8 21  1  0
 12 22  1  0
 13 23  1  0
M  ISO  8  15  13  16  13  17  13  18  13  19  14  20  14  21  14  22  14
M  ISO  1  23   9
M  END
>  <minimizedAffinity>  (1) 
-4.06660938

>  <minimizedRMSD>  (1) 
3.65577102

$$$$
