
     RDKit          3D

 37 40  0  0  1  0  0  0  0  0999 V2000
   48.7100   34.1370   42.8940 C   0  0  1  0  0  0  0  0  0  0  0  0
   49.1430   33.5140   41.6310 C   0  0  2  0  0  0  0  0  0  0  0  0
   49.4550   34.9200   41.8660 C   0  0  0  0  0  0  0  0  0  0  0  0
   46.6480   33.7100   44.2020 C   0  0  0  0  0  0  0  0  0  0  0  0
   47.3000   34.4370   43.1930 C   0  0  0  0  0  0  0  0  0  0  0  0
   46.5750   35.4180   42.5350 C   0  0  0  0  0  0  0  0  0  0  0  0
   45.2810   35.6220   42.8990 N   0  0  0  0  0  0  0  0  0  0  0  0
   44.6770   34.9190   43.8630 C   0  0  0  0  0  0  0  0  0  0  0  0
   45.3720   33.9450   44.5280 N   0  0  0  0  0  0  0  0  0  0  0  0
   48.2680   33.2310   40.4750 C   0  0  0  0  0  0  0  0  0  0  0  0
   47.2310   32.3610   40.3730 N   0  0  0  0  0  0  0  0  0  0  0  0
   46.7140   32.4070   39.1270 C   0  0  0  0  0  0  0  0  0  0  0  0
   47.4460   33.3210   38.4570 N   0  0  0  0  0  0  0  0  0  0  0  0
   48.3750   33.8250   39.2360 N   0  0  0  0  0  0  0  0  0  0  0  0
   48.3540   33.5050   36.3280 N   0  0  0  0  0  0  0  0  0  0  0  0
   47.1430   33.6180   37.0600 C   0  0  1  0  0  0  0  0  0  0  0  0
   45.9800   32.8440   36.5770 C   0  0  0  0  0  0  0  0  0  0  0  0
   46.1810   31.8610   35.5800 N   0  0  0  0  0  0  0  0  0  0  0  0
   47.5280   31.5200   35.2620 C   0  0  0  0  0  0  0  0  0  0  0  0
   48.2770   32.8070   35.0840 C   0  0  0  0  0  0  0  0  0  0  0  0
   48.8403   33.8945   43.9590 H   0  0  0  0  0  0  0  0  0  0  0  0
   49.6747   32.5693   41.4446 H   0  0  0  0  0  0  0  0  0  0  0  0
   50.4936   35.2290   42.0555 H   0  0  0  0  0  0  0  0  0  0  0  0
   49.2755   35.8588   41.3215 H   0  0  0  0  0  0  0  0  0  0  0  0
   47.2016   32.9258   44.7391 H   0  0  0  0  0  0  0  0  0  0  0  0
   47.0360   36.0179   41.7365 H   0  0  0  0  0  0  0  0  0  0  0  0
   43.6270   35.1224   44.1203 H   0  0  0  0  0  0  0  0  0  0  0  0
   45.8692   31.8198   38.7378 H   0  0  0  0  0  0  0  0  0  0  0  0
   48.6933   34.4578   36.1331 H   0  0  0  0  0  0  0  0  0  0  0  0
   46.7926   34.6503   36.9136 H   0  0  0  0  0  0  0  0  0  0  0  0
   45.5458   32.3347   37.4500 H   0  0  0  0  0  0  0  0  0  0  0  0
   45.3465   33.5963   36.0842 H   0  0  0  0  0  0  0  0  0  0  0  0
   45.7097   31.0007   35.8939 H   0  0  0  0  0  0  0  0  0  0  0  0
   47.9725   30.9345   36.0803 H   0  0  0  0  0  0  0  0  0  0  0  0
   47.5727   30.9106   34.3473 H   0  0  0  0  0  0  0  0  0  0  0  0
   49.2938   32.5898   34.7249 H   0  0  0  0  0  0  0  0  0  0  0  0
   47.7478   33.4337   34.3511 H   0  0  0  0  0  0  0  0  0  0  0  0
  1  5  1  0
  2  3  1  0
  2  1  1  0
  3  1  1  0
  4  9  2  0
  5  4  1  0
  6  7  1  0
  6  5  2  0
  7  8  2  0
  8  9  1  0
 10  2  1  0
 11 10  1  0
 12 11  2  0
 13 12  1  0
 13 14  1  0
 14 10  2  0
 15 16  1  0
 16 13  1  0
 17 16  1  0
 18 17  1  0
 19 18  1  0
 20 19  1  0
 20 15  1  0
  1 21  1  1
  2 22  1  1
  3 23  1  0
  3 24  1  0
  4 25  1  0
  6 26  1  0
  8 27  1  0
 12 28  1  0
 15 29  1  0
 16 30  1  1
 17 31  1  0
 17 32  1  0
 18 33  1  0
 19 34  1  0
 19 35  1  0
 20 36  1  0
 20 37  1  0
M  ISO  8  21  13  22  13  23  13  24  13  25  14  26  14  27  14  28  14
M  ISO  8  29   5  30  13  31  13  32  13  33   5  34  13  35  13  36  13
M  ISO  1  37  13
M  END
>  <minimizedAffinity>  (1) 
-4.64007759

>  <minimizedRMSD>  (1) 
1.03925717

$$$$
