
     RDKit          3D

 26 28  0  0  1  0  0  0  0  0999 V2000
   48.6590   33.7550   43.0580 C   0  0  1  0  0  0  0  0  0  0  0  0
   49.0640   33.0830   41.8100 C   0  0  2  0  0  0  0  0  0  0  0  0
   49.5690   34.4230   42.0860 C   0  0  0  0  0  0  0  0  0  0  0  0
   46.5170   33.7020   44.3160 C   0  0  0  0  0  0  0  0  0  0  0  0
   47.2950   34.2600   43.2860 C   0  0  0  0  0  0  0  0  0  0  0  0
   46.7260   35.2790   42.5360 C   0  0  0  0  0  0  0  0  0  0  0  0
   45.4590   35.6780   42.8350 N   0  0  0  0  0  0  0  0  0  0  0  0
   44.7410   35.1310   43.8210 C   0  0  0  0  0  0  0  0  0  0  0  0
   45.2780   34.1200   44.5790 N   0  0  0  0  0  0  0  0  0  0  0  0
   48.2190   32.9570   40.6010 C   0  0  0  0  0  0  0  0  0  0  0  0
   47.1030   32.1870   40.3970 N   0  0  0  0  0  0  0  0  0  0  0  0
   46.6590   32.3590   39.1450 C   0  0  0  0  0  0  0  0  0  0  0  0
   47.5000   33.2390   38.5640 N   0  0  0  0  0  0  0  0  0  0  0  0
   48.4400   33.6140   39.4100 N   0  0  0  0  0  0  0  0  0  0  0  0
   47.3850   33.7130   37.1880 C   0  0  0  0  0  0  0  0  0  0  0  0
   46.0220   33.7630   36.8730 F   0  0  0  0  0  0  0  0  0  0  0  0
   48.0050   34.9140   37.0100 F   0  0  0  0  0  0  0  0  0  0  0  0
   47.9150   32.7350   36.3650 F   0  0  0  0  0  0  0  0  0  0  0  0
   48.6914   33.4887   44.1248 H   0  0  0  0  0  0  0  0  0  0  0  0
   49.4562   32.0698   41.6378 H   0  0  0  0  0  0  0  0  0  0  0  0
   50.6298   34.5701   42.3372 H   0  0  0  0  0  0  0  0  0  0  0  0
   49.5634   35.3825   41.5480 H   0  0  0  0  0  0  0  0  0  0  0  0
   46.9451   32.8928   44.9259 H   0  0  0  0  0  0  0  0  0  0  0  0
   47.2863   35.7544   41.7174 H   0  0  0  0  0  0  0  0  0  0  0  0
   43.7215   35.4903   44.0248 H   0  0  0  0  0  0  0  0  0  0  0  0
   45.7838   31.8787   38.6832 H   0  0  0  0  0  0  0  0  0  0  0  0
  1  5  1  0
  2  3  1  0
  2  1  1  0
  3  1  1  0
  4  9  2  0
  5  4  1  0
  6  7  1  0
  6  5  2  0
  7  8  2  0
  8  9  1  0
 10  2  1  0
 11 10  1  0
 12 11  2  0
 13 12  1  0
 13 14  1  0
 14 10  2  0
 15 13  1  0
 16 15  1  0
 17 15  1  0
 18 15  1  0
  1 19  1  1
  2 20  1  1
  3 21  1  0
  3 22  1  0
  4 23  1  0
  6 24  1  0
  8 25  1  0
 12 26  1  0
M  ISO  8  19  13  20  13  21  13  22  13  23  14  24  14  25  14  26  14
M  END
>  <minimizedAffinity>  (1) 
-4.49131346

>  <minimizedRMSD>  (1) 
0.875773609

$$$$
