
     RDKit          3D

 29 31  0  0  1  0  0  0  0  0999 V2000
   48.7960   34.7850   42.5110 C   0  0  1  0  0  0  0  0  0  0  0  0
   49.2150   34.2980   41.1850 C   0  0  2  0  0  0  0  0  0  0  0  0
   48.9790   35.7240   41.3700 C   0  0  0  0  0  0  0  0  0  0  0  0
   47.2800   33.4660   43.9700 C   0  0  0  0  0  0  0  0  0  0  0  0
   47.4550   34.5280   43.0670 C   0  0  0  0  0  0  0  0  0  0  0  0
   46.3410   35.2920   42.7510 C   0  0  0  0  0  0  0  0  0  0  0  0
   45.1520   34.9730   43.3290 N   0  0  0  0  0  0  0  0  0  0  0  0
   45.0080   33.9570   44.1850 C   0  0  0  0  0  0  0  0  0  0  0  0
   46.0870   33.1890   44.5130 N   0  0  0  0  0  0  0  0  0  0  0  0
   48.3370   33.6180   40.2090 C   0  0  0  0  0  0  0  0  0  0  0  0
   47.7270   32.3990   40.2840 N   0  0  0  0  0  0  0  0  0  0  0  0
   47.0340   32.1520   39.1760 C   0  0  0  0  0  0  0  0  0  0  0  0
   47.2080   33.2320   38.3880 N   0  0  0  0  0  0  0  0  0  0  0  0
   47.9810   34.1230   38.9770 N   0  0  0  0  0  0  0  0  0  0  0  0
   46.6060   33.3510   37.0740 C   0  0  0  0  0  0  0  0  0  0  0  0
   45.1430   33.0080   37.1040 C   0  0  0  0  0  0  0  0  0  0  0  0
   49.1938   34.6854   43.5317 H   0  0  0  0  0  0  0  0  0  0  0  0
   50.0370   33.6269   40.8952 H   0  0  0  0  0  0  0  0  0  0  0  0
   49.8254   36.4266   41.3662 H   0  0  0  0  0  0  0  0  0  0  0  0
   48.3501   36.4789   40.8754 H   0  0  0  0  0  0  0  0  0  0  0  0
   48.1469   32.8445   44.2387 H   0  0  0  0  0  0  0  0  0  0  0  0
   46.4176   36.1358   42.0495 H   0  0  0  0  0  0  0  0  0  0  0  0
   44.0228   33.7405   44.6238 H   0  0  0  0  0  0  0  0  0  0  0  0
   46.4418   31.2531   38.9496 H   0  0  0  0  0  0  0  0  0  0  0  0
   47.1193   32.6665   36.3826 H   0  0  0  0  0  0  0  0  0  0  0  0
   46.7086   34.3944   36.7411 H   0  0  0  0  0  0  0  0  0  0  0  0
   44.8062   32.9290   38.1482 H   0  0  0  0  0  0  0  0  0  0  0  0
   44.5710   33.7964   36.5929 H   0  0  0  0  0  0  0  0  0  0  0  0
   44.9810   32.0475   36.5929 H   0  0  0  0  0  0  0  0  0  0  0  0
  1  5  1  0
  2  3  1  0
  2  1  1  0
  3  1  1  0
  4  9  2  0
  5  4  1  0
  6  5  2  0
  6  7  1  0
  7  8  2  0
  8  9  1  0
 10 11  1  0
 10  2  1  0
 12 11  2  0
 13 14  1  0
 13 12  1  0
 14 10  2  0
 15 16  1  0
 15 13  1  0
  1 17  1  1
  2 18  1  1
  3 19  1  0
  3 20  1  0
  4 21  1  0
  6 22  1  0
  8 23  1  0
 12 24  1  0
 15 25  1  0
 15 26  1  0
 16 27  1  0
 16 28  1  0
 16 29  1  0
M  ISO  8  17  13  18  13  19  13  20  13  21  14  22  14  23  14  24  14
M  ISO  5  25   8  26   8  27   8  28   8  29   8
M  END
>  <minimizedAffinity>  (1) 
-3.96383452

>  <minimizedRMSD>  (1) 
0.963262856

$$$$
