
     RDKit          3D

 29 31  0  0  0  0  0  0  0  0999 V2000
   47.4900   31.8300   44.7330 Cl  0  0  0  0  0  0  0  0  0  0  0  0
   46.6820   31.9050   46.2970 C   0  0  0  0  0  0  0  0  0  0  0  0
   45.8150   32.9660   46.5320 C   0  0  0  0  0  0  0  0  0  0  0  0
   45.1990   33.0270   47.7340 C   0  0  0  0  0  0  0  0  0  0  0  0
   45.4640   32.0200   48.6790 C   0  0  0  0  0  0  0  0  0  0  0  0
   46.3200   30.9780   48.4380 C   0  0  0  0  0  0  0  0  0  0  0  0
   46.9510   30.9130   47.2120 C   0  0  0  0  0  0  0  0  0  0  0  0
   44.5360   35.8730   44.7300 C   0  0  0  0  0  0  0  0  0  0  0  0
   45.2080   35.8210   43.4850 C   0  0  0  0  0  0  0  0  0  0  0  0
   46.1060   34.7560   43.3070 C   0  0  0  0  0  0  0  0  0  0  0  0
   46.2660   33.8670   44.3160 N   0  0  0  0  0  0  0  0  0  0  0  0
   45.6070   33.9550   45.4790 C   0  0  0  0  0  0  0  0  0  0  0  0
   44.7410   34.9580   45.6880 N   0  0  0  0  0  0  0  0  0  0  0  0
   46.7760   34.7420   42.0100 C   0  0  0  0  0  0  0  0  0  0  0  0
   47.5410   33.5710   41.9190 F   0  0  0  0  0  0  0  0  0  0  0  0
   47.6750   35.7690   42.0000 F   0  0  0  0  0  0  0  0  0  0  0  0
   45.9050   34.7310   40.9410 F   0  0  0  0  0  0  0  0  0  0  0  0
   47.8760   29.8290   46.8880 C   0  0  0  0  0  0  0  0  0  0  0  0
   47.6910   28.7280   46.1320 N   0  0  0  0  0  0  0  0  0  0  0  0
   48.8370   27.9900   46.1070 C   0  0  0  0  0  0  0  0  0  0  0  0
   49.7220   28.6650   46.8630 N   0  0  0  0  0  0  0  0  0  0  0  0
   49.1510   29.7620   47.3300 N   0  0  0  0  0  0  0  0  0  0  0  0
   44.5048   33.8476   47.9679 H   0  0  0  0  0  0  0  0  0  0  0  0
   44.9612   32.0713   49.6560 H   0  0  0  0  0  0  0  0  0  0  0  0
   46.5005   30.2100   49.2046 H   0  0  0  0  0  0  0  0  0  0  0  0
   43.8234   36.6898   44.9171 H   0  0  0  0  0  0  0  0  0  0  0  0
   45.0363   36.5729   42.7007 H   0  0  0  0  0  0  0  0  0  0  0  0
   49.0036   27.0398   45.5784 H   0  0  0  0  0  0  0  0  0  0  0  0
   50.6921   28.3729   47.0487 H   0  0  0  0  0  0  0  0  0  0  0  0
  1  2  1  0
  2  3  2  0
  2  7  1  0
  3  4  1  0
  4  5  2  0
  6  5  1  0
  7  6  2  0
  8 13  2  0
  9  8  1  0
 10  9  2  0
 10 11  1  0
 11 12  2  0
 12 13  1  0
 12  3  1  0
 14 10  1  0
 15 14  1  0
 16 14  1  0
 17 14  1  0
 18  7  1  0
 18 22  2  0
 19 18  1  0
 20 19  2  0
 20 21  1  0
 21 22  1  0
  4 23  1  0
  5 24  1  0
  6 25  1  0
  8 26  1  0
  9 27  1  0
 20 28  1  0
 21 29  1  0
M  ISO  7  23  14  24  14  25  14  26  14  27  14  28  14  29   9
M  END
>  <minimizedAffinity>  (1) 
-5.84152079

>  <minimizedRMSD>  (1) 
0.123487413

$$$$
