
     RDKit          3D

 46 50  0  0  1  0  0  0  0  0999 V2000
   45.6020   32.9330   42.3180 C   0  0  0  0  0  0  0  0  0  0  0  0
   44.7720   31.8730   42.3480 N   0  0  0  0  0  0  0  0  0  0  0  0
   43.5280   32.2200   42.0330 C   0  0  0  0  0  0  0  0  0  0  0  0
   43.5620   33.5580   41.7910 N   0  0  0  0  0  0  0  0  0  0  0  0
   44.7980   34.0050   41.9560 N   0  0  0  0  0  0  0  0  0  0  0  0
   40.5370   32.9250   41.6000 O   0  0  0  0  0  0  0  0  0  0  0  0
   41.3120   33.6250   40.8750 C   0  0  0  0  0  0  0  0  0  0  0  0
   42.4510   34.4220   41.4030 C   0  0  2  0  0  0  0  0  0  0  0  0
   42.8260   35.2950   40.2230 C   0  0  0  0  0  0  0  0  0  0  0  0
   42.5440   34.3630   39.0480 C   0  0  0  0  0  0  0  0  0  0  0  0
   41.2660   33.7980   39.4420 N   0  0  0  0  0  0  0  0  0  0  0  0
   40.0000   32.0820   38.3920 C   0  0  0  0  0  0  0  0  0  0  0  0
   40.1340   33.4490   38.6510 C   0  0  0  0  0  0  0  0  0  0  0  0
   39.2020   34.3290   38.1450 C   0  0  0  0  0  0  0  0  0  0  0  0
   38.1460   33.8190   37.3840 C   0  0  0  0  0  0  0  0  0  0  0  0
   38.0280   32.4550   37.1370 C   0  0  0  0  0  0  0  0  0  0  0  0
   38.9600   31.5680   37.6430 C   0  0  0  0  0  0  0  0  0  0  0  0
   40.9180   31.1530   38.8840 O   0  0  0  0  0  0  0  0  0  0  0  0
   38.8620   30.1920   37.4080 O   0  0  0  0  0  0  0  0  0  0  0  0
   47.6950   32.9250   43.9060 C   0  0  1  0  0  0  0  0  0  0  0  0
   47.0390   33.0560   42.5780 C   0  0  2  0  0  0  0  0  0  0  0  0
   47.5130   34.2400   43.2570 C   0  0  0  0  0  0  0  0  0  0  0  0
   46.9330   31.2390   45.5670 C   0  0  0  0  0  0  0  0  0  0  0  0
   46.9280   32.5610   45.1250 C   0  0  0  0  0  0  0  0  0  0  0  0
   46.2110   33.4670   45.8700 C   0  0  0  0  0  0  0  0  0  0  0  0
   45.5590   33.0220   46.9760 N   0  0  0  0  0  0  0  0  0  0  0  0
   45.5780   31.7590   47.3750 C   0  0  0  0  0  0  0  0  0  0  0  0
   46.2780   30.8620   46.6540 N   0  0  0  0  0  0  0  0  0  0  0  0
   42.6500   31.5596   41.9791 H   0  0  0  0  0  0  0  0  0  0  0  0
   42.1985   34.9961   42.3067 H   0  0  0  0  0  0  0  0  0  0  0  0
   42.2002   36.1985   40.1775 H   0  0  0  0  0  0  0  0  0  0  0  0
   43.8588   35.6721   40.2564 H   0  0  0  0  0  0  0  0  0  0  0  0
   43.3172   33.5862   38.9541 H   0  0  0  0  0  0  0  0  0  0  0  0
   42.5364   34.8603   38.0669 H   0  0  0  0  0  0  0  0  0  0  0  0
   39.2871   35.4090   38.3357 H   0  0  0  0  0  0  0  0  0  0  0  0
   37.3944   34.5090   36.9729 H   0  0  0  0  0  0  0  0  0  0  0  0
   37.1874   32.0796   36.5350 H   0  0  0  0  0  0  0  0  0  0  0  0
   40.8015   30.1898   38.6869 H   0  0  0  0  0  0  0  0  0  0  0  0
   39.5418   29.5765   37.7810 H   0  0  0  0  0  0  0  0  0  0  0  0
   48.5426   32.3501   44.3073 H   0  0  0  0  0  0  0  0  0  0  0  0
   47.2090   32.5351   41.6242 H   0  0  0  0  0  0  0  0  0  0  0  0
   48.3864   34.7821   42.8655 H   0  0  0  0  0  0  0  0  0  0  0  0
   47.0521   35.1919   43.5595 H   0  0  0  0  0  0  0  0  0  0  0  0
   47.4976   30.4872   44.9960 H   0  0  0  0  0  0  0  0  0  0  0  0
   46.1662   34.5265   45.5778 H   0  0  0  0  0  0  0  0  0  0  0  0
   45.0323   31.4485   48.2782 H   0  0  0  0  0  0  0  0  0  0  0  0
  1  2  1  0
  1 21  1  0
  3  2  2  0
  4  5  1  0
  4  3  1  0
  5  1  2  0
  7  8  1  0
  7  6  2  0
  8  4  1  0
  9  8  1  0
 10 11  1  0
 10  9  1  0
 11  7  1  0
 12 13  2  0
 12 18  1  0
 13 11  1  0
 14 13  1  0
 15 14  2  0
 16 15  1  0
 16 17  2  0
 17 12  1  0
 19 17  1  0
 20 24  1  0
 21 22  1  0
 21 20  1  0
 22 20  1  0
 23 28  2  0
 24 23  1  0
 24 25  2  0
 25 26  1  0
 26 27  2  0
 28 27  1  0
  3 29  1  0
  8 30  1  1
  9 31  1  0
  9 32  1  0
 10 33  1  0
 10 34  1  0
 14 35  1  0
 15 36  1  0
 16 37  1  0
 18 38  1  0
 19 39  1  0
 20 40  1  6
 21 41  1  6
 22 42  1  0
 22 43  1  0
 23 44  1  0
 25 45  1  0
 27 46  1  0
M  ISO  8  29  14  30  13  31  13  32  13  33  13  34  13  35  14  36  14
M  ISO  8  37  14  38   3  39   3  40  13  41  13  42  13  43  13  44  14
M  ISO  2  45  14  46  14
M  END
>  <minimizedAffinity>  (1) 
-6.1356411

>  <minimizedRMSD>  (1) 
1.7355504

$$$$
