
     RDKit          3D

 41 45  0  0  1  0  0  0  0  0999 V2000
   45.4290   32.9960   42.2280 C   0  0  0  0  0  0  0  0  0  0  0  0
   44.6170   31.9250   42.3610 N   0  0  0  0  0  0  0  0  0  0  0  0
   43.3650   32.2320   42.0090 C   0  0  0  0  0  0  0  0  0  0  0  0
   43.3800   33.5390   41.6420 N   0  0  0  0  0  0  0  0  0  0  0  0
   44.6080   34.0120   41.7670 N   0  0  0  0  0  0  0  0  0  0  0  0
   40.3820   32.8020   41.3650 O   0  0  0  0  0  0  0  0  0  0  0  0
   41.1650   33.4910   40.6390 C   0  0  0  0  0  0  0  0  0  0  0  0
   42.2570   34.3380   41.1770 C   0  0  2  0  0  0  0  0  0  0  0  0
   42.6540   35.1940   39.9850 C   0  0  0  0  0  0  0  0  0  0  0  0
   42.4480   34.2050   38.8300 C   0  0  0  0  0  0  0  0  0  0  0  0
   41.1750   33.6060   39.1990 N   0  0  0  0  0  0  0  0  0  0  0  0
   40.0440   33.1520   38.4610 C   0  0  0  0  0  0  0  0  0  0  0  0
   39.0230   34.0760   38.2130 C   0  0  0  0  0  0  0  0  0  0  0  0
   38.0540   33.3770   37.4840 C   0  0  0  0  0  0  0  0  0  0  0  0
   38.5040   32.1000   37.3220 N   0  0  0  0  0  0  0  0  0  0  0  0
   39.7030   31.9830   37.9160 N   0  0  0  0  0  0  0  0  0  0  0  0
   47.5160   33.2200   43.8110 C   0  0  1  0  0  0  0  0  0  0  0  0
   46.8620   33.1650   42.4770 C   0  0  2  0  0  0  0  0  0  0  0  0
   47.3230   34.4370   42.9920 C   0  0  0  0  0  0  0  0  0  0  0  0
   46.9210   31.8510   45.8040 C   0  0  0  0  0  0  0  0  0  0  0  0
   46.7450   33.0200   45.0640 C   0  0  0  0  0  0  0  0  0  0  0  0
   45.8560   33.9390   45.5690 C   0  0  0  0  0  0  0  0  0  0  0  0
   45.2180   33.6530   46.7320 N   0  0  0  0  0  0  0  0  0  0  0  0
   45.4040   32.5340   47.4160 C   0  0  0  0  0  0  0  0  0  0  0  0
   46.2710   31.6260   46.9350 N   0  0  0  0  0  0  0  0  0  0  0  0
   42.4948   31.5592   42.0153 H   0  0  0  0  0  0  0  0  0  0  0  0
   41.9432   34.9272   42.0513 H   0  0  0  0  0  0  0  0  0  0  0  0
   42.0012   36.0736   39.8845 H   0  0  0  0  0  0  0  0  0  0  0  0
   43.6693   35.6128   40.0466 H   0  0  0  0  0  0  0  0  0  0  0  0
   43.2515   33.4547   38.7929 H   0  0  0  0  0  0  0  0  0  0  0  0
   42.4588   34.6664   37.8315 H   0  0  0  0  0  0  0  0  0  0  0  0
   38.9890   35.1302   38.5253 H   0  0  0  0  0  0  0  0  0  0  0  0
   37.1028   33.7836   37.1099 H   0  0  0  0  0  0  0  0  0  0  0  0
   38.0057   31.3478   36.8252 H   0  0  0  0  0  0  0  0  0  0  0  0
   48.3680   32.7111   44.2855 H   0  0  0  0  0  0  0  0  0  0  0  0
   47.0396   32.5199   41.6039 H   0  0  0  0  0  0  0  0  0  0  0  0
   48.1920   34.9308   42.5325 H   0  0  0  0  0  0  0  0  0  0  0  0
   46.8523   35.4162   43.1639 H   0  0  0  0  0  0  0  0  0  0  0  0
   47.6242   31.0898   45.4351 H   0  0  0  0  0  0  0  0  0  0  0  0
   45.6660   34.8856   45.0418 H   0  0  0  0  0  0  0  0  0  0  0  0
   44.8618   32.3519   48.3556 H   0  0  0  0  0  0  0  0  0  0  0  0
  1  2  1  0
  1 18  1  0
  3  2  2  0
  4  5  1  0
  4  3  1  0
  5  1  2  0
  7  8  1  0
  7  6  2  0
  8  4  1  0
  9  8  1  0
 10 11  1  0
 10  9  1  0
 11  7  1  0
 12 11  1  0
 13 12  1  0
 14 13  2  0
 15 14  1  0
 15 16  1  0
 16 12  2  0
 17 21  1  0
 18 19  1  0
 18 17  1  0
 19 17  1  0
 20 25  2  0
 21 22  2  0
 21 20  1  0
 22 23  1  0
 23 24  2  0
 25 24  1  0
  3 26  1  0
  8 27  1  1
  9 28  1  0
  9 29  1  0
 10 30  1  0
 10 31  1  0
 13 32  1  0
 14 33  1  0
 15 34  1  0
 17 35  1  6
 18 36  1  6
 19 37  1  0
 19 38  1  0
 20 39  1  0
 22 40  1  0
 24 41  1  0
M  ISO  8  26  14  27  13  28  13  29  13  30  13  31  13  32  14  33  14
M  ISO  8  34   9  35  13  36  13  37  13  38  13  39  14  40  14  41  14
M  END
>  <minimizedAffinity>  (1) 
-5.88984823

>  <minimizedRMSD>  (1) 
1.43052912

$$$$
