
     RDKit          3D

 45 49  0  0  1  0  0  0  0  0999 V2000
   45.1940   33.4640   41.8860 C   0  0  0  0  0  0  0  0  0  0  0  0
   44.5310   32.2920   41.8800 N   0  0  0  0  0  0  0  0  0  0  0  0
   43.2210   32.4890   41.6890 C   0  0  0  0  0  0  0  0  0  0  0  0
   43.0500   33.8320   41.5710 N   0  0  0  0  0  0  0  0  0  0  0  0
   44.2150   34.4290   41.6860 N   0  0  0  0  0  0  0  0  0  0  0  0
   40.1220   32.8510   41.7900 O   0  0  0  0  0  0  0  0  0  0  0  0
   40.7050   33.6300   40.9770 C   0  0  0  0  0  0  0  0  0  0  0  0
   41.8060   34.5490   41.3480 C   0  0  2  0  0  0  0  0  0  0  0  0
   41.9100   35.4670   40.1430 C   0  0  0  0  0  0  0  0  0  0  0  0
   41.5700   34.5030   39.0020 C   0  0  0  0  0  0  0  0  0  0  0  0
   40.4370   33.7910   39.5690 N   0  0  0  0  0  0  0  0  0  0  0  0
   40.3020   31.1310   38.5680 O   0  0  0  0  0  0  0  0  0  0  0  0
   39.4340   31.9930   38.2760 C   0  0  0  0  0  0  0  0  0  0  0  0
   39.2820   33.3350   38.8880 C   0  0  2  0  0  0  0  0  0  0  0  0
   38.8370   34.1620   37.7360 C   0  0  0  0  0  0  0  0  0  0  0  0
   37.8380   33.2120   37.0590 C   0  0  0  0  0  0  0  0  0  0  0  0
   38.3930   31.9150   37.3060 N   0  0  0  0  0  0  0  0  0  0  0  0
   47.3560   33.8140   43.3390 C   0  0  1  0  0  0  0  0  0  0  0  0
   46.6210   33.7720   42.0450 C   0  0  2  0  0  0  0  0  0  0  0  0
   46.9850   35.0480   42.6170 C   0  0  0  0  0  0  0  0  0  0  0  0
   47.0700   32.2430   45.2410 C   0  0  0  0  0  0  0  0  0  0  0  0
   46.7170   33.4380   44.6180 C   0  0  0  0  0  0  0  0  0  0  0  0
   45.7860   34.2230   45.2530 C   0  0  0  0  0  0  0  0  0  0  0  0
   45.2760   33.7870   46.4320 N   0  0  0  0  0  0  0  0  0  0  0  0
   45.6250   32.6460   47.0090 C   0  0  0  0  0  0  0  0  0  0  0  0
   46.5360   31.8730   46.3930 N   0  0  0  0  0  0  0  0  0  0  0  0
   42.4386   31.7175   41.6377 H   0  0  0  0  0  0  0  0  0  0  0  0
   41.6145   35.0867   42.2883 H   0  0  0  0  0  0  0  0  0  0  0  0
   41.1857   36.2928   40.2020 H   0  0  0  0  0  0  0  0  0  0  0  0
   42.8857   35.9638   40.0377 H   0  0  0  0  0  0  0  0  0  0  0  0
   42.4069   33.8229   38.7848 H   0  0  0  0  0  0  0  0  0  0  0  0
   41.3616   34.9943   38.0401 H   0  0  0  0  0  0  0  0  0  0  0  0
   38.5579   33.3662   39.7155 H   0  0  0  0  0  0  0  0  0  0  0  0
   38.3492   35.0897   38.0697 H   0  0  0  0  0  0  0  0  0  0  0  0
   39.6528   34.5025   37.0813 H   0  0  0  0  0  0  0  0  0  0  0  0
   37.7732   33.4132   35.9795 H   0  0  0  0  0  0  0  0  0  0  0  0
   36.8134   33.3209   37.4442 H   0  0  0  0  0  0  0  0  0  0  0  0
   38.0829   31.0469   36.8466 H   0  0  0  0  0  0  0  0  0  0  0  0
   48.2870   33.3767   43.7288 H   0  0  0  0  0  0  0  0  0  0  0  0
   46.8023   33.2094   41.1173 H   0  0  0  0  0  0  0  0  0  0  0  0
   47.7663   35.6579   42.1399 H   0  0  0  0  0  0  0  0  0  0  0  0
   46.4296   35.9592   42.8838 H   0  0  0  0  0  0  0  0  0  0  0  0
   47.8134   31.5891   44.7616 H   0  0  0  0  0  0  0  0  0  0  0  0
   45.4625   35.1798   44.8172 H   0  0  0  0  0  0  0  0  0  0  0  0
   45.1806   32.3394   47.9674 H   0  0  0  0  0  0  0  0  0  0  0  0
  1 19  1  0
  2  1  1  0
  3  2  2  0
  4  5  1  0
  4  3  1  0
  5  1  2  0
  7  8  1  0
  7  6  2  0
  8  4  1  0
  9  8  1  0
 10 11  1  0
 10  9  1  0
 11  7  1  0
 13 12  2  0
 13 14  1  0
 14 11  1  0
 15 14  1  0
 16 17  1  0
 16 15  1  0
 17 13  1  0
 18 22  1  0
 19 20  1  0
 19 18  1  0
 20 18  1  0
 21 26  2  0
 22 21  1  0
 22 23  2  0
 23 24  1  0
 24 25  2  0
 26 25  1  0
  3 27  1  0
  8 28  1  1
  9 29  1  0
  9 30  1  0
 10 31  1  0
 10 32  1  0
 14 33  1  1
 15 34  1  0
 15 35  1  0
 16 36  1  0
 16 37  1  0
 17 38  1  0
 18 39  1  6
 19 40  1  6
 20 41  1  0
 20 42  1  0
 21 43  1  0
 23 44  1  0
 25 45  1  0
M  ISO  8  27  14  28  13  29  13  30  13  31  13  32  13  33  13  34  13
M  ISO  8  35  13  36  13  37  13  38  10  39  13  40  13  41  13  42  13
M  ISO  3  43  14  44  14  45  14
M  END
>  <minimizedAffinity>  (1) 
-5.75795555

>  <minimizedRMSD>  (1) 
0.914547443

$$$$
