
     RDKit          3D

 40 43  0  0  1  0  0  0  0  0999 V2000
   44.7930   33.3800   40.9290 C   0  0  0  0  0  0  0  0  0  0  0  0
   43.9150   32.3600   40.9620 N   0  0  0  0  0  0  0  0  0  0  0  0
   42.6910   32.7730   40.6100 C   0  0  0  0  0  0  0  0  0  0  0  0
   42.8000   34.1020   40.3460 N   0  0  0  0  0  0  0  0  0  0  0  0
   44.0540   34.4860   40.5320 N   0  0  0  0  0  0  0  0  0  0  0  0
   39.9430   34.4960   41.4740 O   0  0  0  0  0  0  0  0  0  0  0  0
   40.4010   34.4920   40.2910 C   0  0  0  0  0  0  0  0  0  0  0  0
   41.7430   35.0050   39.9220 C   0  0  2  0  0  0  0  0  0  0  0  0
   41.6820   35.0900   38.4060 C   0  0  0  0  0  0  0  0  0  0  0  0
   40.7880   33.8930   38.0760 C   0  0  0  0  0  0  0  0  0  0  0  0
   39.7620   34.0160   39.0870 N   0  0  0  0  0  0  0  0  0  0  0  0
   38.3530   33.7490   39.0310 C   0  0  0  0  0  0  0  0  0  0  0  0
   38.0030   33.3380   37.6180 C   0  0  0  0  0  0  0  0  0  0  0  0
   46.8470   33.9980   42.4470 C   0  0  1  0  0  0  0  0  0  0  0  0
   46.2310   33.4350   41.2150 C   0  0  2  0  0  0  0  0  0  0  0  0
   46.8920   34.7210   41.1600 C   0  0  0  0  0  0  0  0  0  0  0  0
   45.9550   33.7440   44.7540 C   0  0  0  0  0  0  0  0  0  0  0  0
   46.0290   34.4870   43.5780 C   0  0  0  0  0  0  0  0  0  0  0  0
   45.3300   35.6700   43.5500 C   0  0  0  0  0  0  0  0  0  0  0  0
   44.6260   36.0290   44.6520 N   0  0  0  0  0  0  0  0  0  0  0  0
   44.5700   35.3060   45.7620 C   0  0  0  0  0  0  0  0  0  0  0  0
   45.2520   34.1460   45.7990 N   0  0  0  0  0  0  0  0  0  0  0  0
   41.7799   32.1598   40.5471 H   0  0  0  0  0  0  0  0  0  0  0  0
   41.9726   35.9665   40.4044 H   0  0  0  0  0  0  0  0  0  0  0  0
   41.2286   36.0354   38.0733 H   0  0  0  0  0  0  0  0  0  0  0  0
   42.6651   35.0682   37.9130 H   0  0  0  0  0  0  0  0  0  0  0  0
   40.3664   33.9728   37.0631 H   0  0  0  0  0  0  0  0  0  0  0  0
   41.3115   32.9256   38.0819 H   0  0  0  0  0  0  0  0  0  0  0  0
   38.1005   32.9364   39.7280 H   0  0  0  0  0  0  0  0  0  0  0  0
   37.7856   34.6473   39.3159 H   0  0  0  0  0  0  0  0  0  0  0  0
   37.2900   32.5008   37.6456 H   0  0  0  0  0  0  0  0  0  0  0  0
   37.5484   34.1895   37.0904 H   0  0  0  0  0  0  0  0  0  0  0  0
   38.9160   33.0249   37.0904 H   0  0  0  0  0  0  0  0  0  0  0  0
   47.5855   33.6496   43.1840 H   0  0  0  0  0  0  0  0  0  0  0  0
   46.3187   32.4480   40.7374 H   0  0  0  0  0  0  0  0  0  0  0  0
   47.8467   34.8225   40.6230 H   0  0  0  0  0  0  0  0  0  0  0  0
   46.5942   35.7273   40.8303 H   0  0  0  0  0  0  0  0  0  0  0  0
   46.5000   32.7905   44.8152 H   0  0  0  0  0  0  0  0  0  0  0  0
   45.3413   36.3100   42.6555 H   0  0  0  0  0  0  0  0  0  0  0  0
   43.9827   35.6446   46.6283 H   0  0  0  0  0  0  0  0  0  0  0  0
  1  2  1  0
  1 15  1  0
  3  2  2  0
  4  5  1  0
  4  3  1  0
  5  1  2  0
  7  6  2  0
  8  7  1  0
  8  4  1  0
  9  8  1  0
 10  9  1  0
 10 11  1  0
 11  7  1  0
 12 11  1  0
 13 12  1  0
 14 18  1  0
 15 14  1  0
 16 15  1  0
 16 14  1  0
 17 22  2  0
 18 17  1  0
 19 18  2  0
 19 20  1  0
 20 21  2  0
 21 22  1  0
  3 23  1  0
  8 24  1  1
  9 25  1  0
  9 26  1  0
 10 27  1  0
 10 28  1  0
 12 29  1  0
 12 30  1  0
 13 31  1  0
 13 32  1  0
 13 33  1  0
 14 34  1  1
 15 35  1  6
 16 36  1  0
 16 37  1  0
 17 38  1  0
 19 39  1  0
 21 40  1  0
M  ISO  8  23  14  24  13  25  13  26  13  27  13  28  13  29   8  30   8
M  ISO  8  31   8  32   8  33   8  34  13  35  13  36  13  37  13  38  14
M  ISO  2  39  14  40  14
M  END
>  <minimizedAffinity>  (1) 
-5.68072748

>  <minimizedRMSD>  (1) 
1.31435359

$$$$
