
     RDKit          3D

 42 46  0  0  1  0  0  0  0  0999 V2000
   45.5760   32.9430   42.3120 C   0  0  0  0  0  0  0  0  0  0  0  0
   44.7580   31.8780   42.4000 N   0  0  0  0  0  0  0  0  0  0  0  0
   43.5080   32.2010   42.0600 C   0  0  0  0  0  0  0  0  0  0  0  0
   43.5330   33.5230   41.7450 N   0  0  0  0  0  0  0  0  0  0  0  0
   44.7620   33.9850   41.8890 N   0  0  0  0  0  0  0  0  0  0  0  0
   40.5080   32.8690   41.6370 O   0  0  0  0  0  0  0  0  0  0  0  0
   41.2710   33.5240   40.8570 C   0  0  0  0  0  0  0  0  0  0  0  0
   42.4190   34.3520   41.3070 C   0  0  2  0  0  0  0  0  0  0  0  0
   42.7850   35.1400   40.0620 C   0  0  0  0  0  0  0  0  0  0  0  0
   42.4730   34.1170   38.9600 C   0  0  0  0  0  0  0  0  0  0  0  0
   41.1960   33.6070   39.4240 N   0  0  0  0  0  0  0  0  0  0  0  0
   40.0930   33.2620   38.6050 C   0  0  0  0  0  0  0  0  0  0  0  0
   39.2050   34.1740   38.1080 C   0  0  0  0  0  0  0  0  0  0  0  0
   38.1260   33.8410   37.3060 C   0  0  0  0  0  0  0  0  0  0  0  0
   37.9550   32.5290   37.0070 N   0  0  0  0  0  0  0  0  0  0  0  0
   38.8390   31.6300   37.5040 C   0  0  0  0  0  0  0  0  0  0  0  0
   39.8760   31.9890   38.2780 N   0  0  0  0  0  0  0  0  0  0  0  0
   47.6750   32.9770   43.8930 C   0  0  1  0  0  0  0  0  0  0  0  0
   47.0130   33.0940   42.5650 C   0  0  2  0  0  0  0  0  0  0  0  0
   47.4690   34.2870   43.2420 C   0  0  0  0  0  0  0  0  0  0  0  0
   46.9620   31.2630   45.5390 C   0  0  0  0  0  0  0  0  0  0  0  0
   46.9250   32.5900   45.1140 C   0  0  0  0  0  0  0  0  0  0  0  0
   46.1970   33.4830   45.8620 C   0  0  0  0  0  0  0  0  0  0  0  0
   45.5590   33.0200   46.9700 N   0  0  0  0  0  0  0  0  0  0  0  0
   45.6070   31.7550   47.3580 C   0  0  0  0  0  0  0  0  0  0  0  0
   46.3160   30.8700   46.6350 N   0  0  0  0  0  0  0  0  0  0  0  0
   42.6346   31.5326   42.0390 H   0  0  0  0  0  0  0  0  0  0  0  0
   42.1744   34.9895   42.1694 H   0  0  0  0  0  0  0  0  0  0  0  0
   42.1661   36.0437   39.9603 H   0  0  0  0  0  0  0  0  0  0  0  0
   43.8195   35.5137   40.0518 H   0  0  0  0  0  0  0  0  0  0  0  0
   43.2343   33.3243   38.9148 H   0  0  0  0  0  0  0  0  0  0  0  0
   42.4573   34.5320   37.9414 H   0  0  0  0  0  0  0  0  0  0  0  0
   39.3559   35.2342   38.3595 H   0  0  0  0  0  0  0  0  0  0  0  0
   37.4359   34.6092   36.9270 H   0  0  0  0  0  0  0  0  0  0  0  0
   38.7018   30.5653   37.2642 H   0  0  0  0  0  0  0  0  0  0  0  0
   48.5346   32.4211   44.2956 H   0  0  0  0  0  0  0  0  0  0  0  0
   47.1893   32.5767   41.6104 H   0  0  0  0  0  0  0  0  0  0  0  0
   48.3322   34.8431   42.8476 H   0  0  0  0  0  0  0  0  0  0  0  0
   46.9926   35.2313   43.5443 H   0  0  0  0  0  0  0  0  0  0  0  0
   47.5359   30.5263   44.9578 H   0  0  0  0  0  0  0  0  0  0  0  0
   46.1320   34.5423   45.5729 H   0  0  0  0  0  0  0  0  0  0  0  0
   45.0721   31.4310   48.2630 H   0  0  0  0  0  0  0  0  0  0  0  0
  1  2  1  0
  1 19  1  0
  3  2  2  0
  4  5  1  0
  4  3  1  0
  5  1  2  0
  7  8  1  0
  7  6  2  0
  8  4  1  0
  9  8  1  0
 10 11  1  0
 10  9  1  0
 11  7  1  0
 12 11  1  0
 13 12  2  0
 14 13  1  0
 15 14  2  0
 15 16  1  0
 16 17  2  0
 17 12  1  0
 18 22  1  0
 19 20  1  0
 19 18  1  0
 20 18  1  0
 21 26  2  0
 22 21  1  0
 22 23  2  0
 23 24  1  0
 24 25  2  0
 26 25  1  0
  3 27  1  0
  8 28  1  1
  9 29  1  0
  9 30  1  0
 10 31  1  0
 10 32  1  0
 13 33  1  0
 14 34  1  0
 16 35  1  0
 18 36  1  6
 19 37  1  6
 20 38  1  0
 20 39  1  0
 21 40  1  0
 23 41  1  0
 25 42  1  0
M  ISO  8  27  14  28  13  29  13  30  13  31  13  32  13  33  14  34  14
M  ISO  8  35  14  36  13  37  13  38  13  39  13  40  14  41  14  42  14
M  END
>  <minimizedAffinity>  (1) 
-5.51157999

>  <minimizedRMSD>  (1) 
1.68876731

$$$$
