
     RDKit          3D

 37 40  0  0  1  0  0  0  0  0999 V2000
   44.9970   33.9090   41.3200 C   0  0  0  0  0  0  0  0  0  0  0  0
   44.2020   32.8440   41.5340 N   0  0  0  0  0  0  0  0  0  0  0  0
   42.9180   33.1560   41.3200 C   0  0  0  0  0  0  0  0  0  0  0  0
   42.9040   34.4660   40.9580 N   0  0  0  0  0  0  0  0  0  0  0  0
   44.1380   34.9350   40.9530 N   0  0  0  0  0  0  0  0  0  0  0  0
   40.0420   34.4420   42.1450 O   0  0  0  0  0  0  0  0  0  0  0  0
   40.4760   34.5880   40.9590 C   0  0  0  0  0  0  0  0  0  0  0  0
   41.7440   35.2760   40.6170 C   0  0  2  0  0  0  0  0  0  0  0  0
   41.6390   35.4640   39.1170 C   0  0  0  0  0  0  0  0  0  0  0  0
   40.8900   34.1950   38.7000 C   0  0  0  0  0  0  0  0  0  0  0  0
   39.8650   34.1380   39.7280 N   0  0  0  0  0  0  0  0  0  0  0  0
   38.4690   33.7330   39.6740 C   0  0  0  0  0  0  0  0  0  0  0  0
   47.2420   34.0850   42.6760 C   0  0  1  0  0  0  0  0  0  0  0  0
   46.4530   34.0660   41.4140 C   0  0  2  0  0  0  0  0  0  0  0  0
   46.9730   35.3210   41.9110 C   0  0  0  0  0  0  0  0  0  0  0  0
   47.0420   32.7530   44.7580 C   0  0  0  0  0  0  0  0  0  0  0  0
   46.6210   33.8370   43.9920 C   0  0  0  0  0  0  0  0  0  0  0  0
   45.6430   34.6400   44.5260 C   0  0  0  0  0  0  0  0  0  0  0  0
   45.1530   34.3320   45.7550 N   0  0  0  0  0  0  0  0  0  0  0  0
   45.5700   33.2940   46.4660 C   0  0  0  0  0  0  0  0  0  0  0  0
   46.5290   32.4990   45.9530 N   0  0  0  0  0  0  0  0  0  0  0  0
   42.0499   32.4875   41.4174 H   0  0  0  0  0  0  0  0  0  0  0  0
   41.8780   36.2182   41.1686 H   0  0  0  0  0  0  0  0  0  0  0  0
   41.0669   36.3691   38.8649 H   0  0  0  0  0  0  0  0  0  0  0  0
   42.6078   35.5979   38.6136 H   0  0  0  0  0  0  0  0  0  0  0  0
   40.4520   34.2942   37.6958 H   0  0  0  0  0  0  0  0  0  0  0  0
   41.5188   33.2951   38.6314 H   0  0  0  0  0  0  0  0  0  0  0  0
   38.0801   33.6202   40.6968 H   0  0  0  0  0  0  0  0  0  0  0  0
   37.8853   34.4988   39.1422 H   0  0  0  0  0  0  0  0  0  0  0  0
   38.3858   32.7737   39.1422 H   0  0  0  0  0  0  0  0  0  0  0  0
   48.1373   33.5671   43.0505 H   0  0  0  0  0  0  0  0  0  0  0  0
   46.5353   33.4455   40.5095 H   0  0  0  0  0  0  0  0  0  0  0  0
   47.7933   35.8228   41.3769 H   0  0  0  0  0  0  0  0  0  0  0  0
   46.5284   36.2971   42.1549 H   0  0  0  0  0  0  0  0  0  0  0  0
   47.8228   32.0885   44.3596 H   0  0  0  0  0  0  0  0  0  0  0  0
   45.2655   35.5119   43.9716 H   0  0  0  0  0  0  0  0  0  0  0  0
   45.1408   33.0855   47.4571 H   0  0  0  0  0  0  0  0  0  0  0  0
  1 14  1  0
  1  2  1  0
  3  2  2  0
  4  3  1  0
  5  4  1  0
  5  1  2  0
  7  6  2  0
  8  4  1  0
  8  7  1  0
  9  8  1  0
 10  9  1  0
 10 11  1  0
 11  7  1  0
 12 11  1  0
 13 17  1  0
 14 15  1  0
 14 13  1  0
 15 13  1  0
 16 21  2  0
 17 18  2  0
 17 16  1  0
 18 19  1  0
 19 20  2  0
 21 20  1  0
  3 22  1  0
  8 23  1  1
  9 24  1  0
  9 25  1  0
 10 26  1  0
 10 27  1  0
 12 28  1  0
 12 29  1  0
 12 30  1  0
 13 31  1  6
 14 32  1  6
 15 33  1  0
 15 34  1  0
 16 35  1  0
 18 36  1  0
 20 37  1  0
M  ISO  8  22  14  23  13  24  13  25  13  26  13  27  13  28   8  29   8
M  ISO  8  30   8  31  13  32  13  33  13  34  13  35  14  36  14  37  14
M  END
>  <minimizedAffinity>  (1) 
-5.30640793

>  <minimizedRMSD>  (1) 
0.235735595

$$$$
