
     RDKit          3D

 30 32  0  0  0  0  0  0  0  0999 V2000
   47.5480   31.8820   44.7180 Cl  0  0  0  0  0  0  0  0  0  0  0  0
   46.7560   31.9440   46.3000 C   0  0  0  0  0  0  0  0  0  0  0  0
   45.8680   32.9780   46.5260 C   0  0  0  0  0  0  0  0  0  0  0  0
   45.2560   33.0340   47.7360 C   0  0  0  0  0  0  0  0  0  0  0  0
   45.5400   32.0610   48.6920 C   0  0  0  0  0  0  0  0  0  0  0  0
   46.4250   31.0410   48.4490 C   0  0  0  0  0  0  0  0  0  0  0  0
   47.0690   30.9610   47.2090 C   0  0  0  0  0  0  0  0  0  0  0  0
   44.5170   35.8590   44.7290 C   0  0  0  0  0  0  0  0  0  0  0  0
   45.1680   35.8130   43.4730 C   0  0  0  0  0  0  0  0  0  0  0  0
   46.0820   34.7510   43.2890 C   0  0  0  0  0  0  0  0  0  0  0  0
   46.2660   33.8690   44.3050 N   0  0  0  0  0  0  0  0  0  0  0  0
   45.6150   33.9660   45.4820 C   0  0  0  0  0  0  0  0  0  0  0  0
   44.7390   34.9660   45.6870 N   0  0  0  0  0  0  0  0  0  0  0  0
   46.7390   34.7320   41.9790 C   0  0  0  0  0  0  0  0  0  0  0  0
   47.4820   33.5630   41.8670 F   0  0  0  0  0  0  0  0  0  0  0  0
   47.6590   35.7650   41.9810 F   0  0  0  0  0  0  0  0  0  0  0  0
   45.8630   34.7720   40.9320 F   0  0  0  0  0  0  0  0  0  0  0  0
   48.0420   29.9030   46.8420 C   0  0  0  0  0  0  0  0  0  0  0  0
   48.3220   28.7510   47.7370 C   0  0  0  0  0  0  0  0  0  0  0  0
   47.4630   28.5400   46.5270 C   0  0  0  0  0  0  0  0  0  0  0  0
   44.5421   33.8403   47.9600 H   0  0  0  0  0  0  0  0  0  0  0  0
   45.0400   32.1121   49.6704 H   0  0  0  0  0  0  0  0  0  0  0  0
   46.6276   30.2890   49.2258 H   0  0  0  0  0  0  0  0  0  0  0  0
   43.7969   36.6683   44.9198 H   0  0  0  0  0  0  0  0  0  0  0  0
   44.9742   36.5586   42.6878 H   0  0  0  0  0  0  0  0  0  0  0  0
   48.6932   30.6406   46.3502 H   0  0  0  0  0  0  0  0  0  0  0  0
   49.3329   28.3187   47.7727 H   0  0  0  0  0  0  0  0  0  0  0  0
   48.1990   28.5620   48.8136 H   0  0  0  0  0  0  0  0  0  0  0  0
   46.3840   28.3584   46.6402 H   0  0  0  0  0  0  0  0  0  0  0  0
   47.4826   27.8618   45.6612 H   0  0  0  0  0  0  0  0  0  0  0  0
  1  2  1  0
  2  3  2  0
  2  7  1  0
  3  4  1  0
  4  5  2  0
  6  5  1  0
  7  6  2  0
  8 13  2  0
  9  8  1  0
 10  9  2  0
 10 11  1  0
 11 12  2  0
 12 13  1  0
 12  3  1  0
 14 16  1  0
 14 10  1  0
 15 14  1  0
 17 14  1  0
 18  7  1  0
 18 19  1  0
 20 18  1  0
 20 19  1  0
  4 21  1  0
  5 22  1  0
  6 23  1  0
  8 24  1  0
  9 25  1  0
 18 26  1  0
 19 27  1  0
 19 28  1  0
 20 29  1  0
 20 30  1  0
M  ISO  8  21  14  22  14  23  14  24  14  25  14  26  13  27  13  28  13
M  ISO  2  29  13  30  13
M  END
>  <minimizedAffinity>  (1) 
-5.78078508

>  <minimizedRMSD>  (1) 
0.109807596

$$$$
