
     RDKit          3D

 45 48  0  0  1  0  0  0  0  0999 V2000
   47.7920   32.8380   41.7020 C   0  0  1  0  0  0  0  0  0  0  0  0
   47.3790   32.1360   40.4710 C   0  0  0  0  0  0  0  0  0  0  0  0
   48.3680   32.5890   39.3920 C   0  0  0  0  0  0  0  0  0  0  0  0
   48.0390   34.0420   39.1020 C   0  0  0  0  0  0  0  0  0  0  0  0
   48.0840   34.9180   40.3200 C   0  0  0  0  0  0  0  0  0  0  0  0
   47.6360   34.3410   41.5930 C   0  0  1  0  0  0  0  0  0  0  0  0
   46.2790   34.7670   41.9750 C   0  0  0  0  0  0  0  0  0  0  0  0
   45.9100   35.4900   43.1160 C   0  0  0  0  0  0  0  0  0  0  0  0
   44.5630   35.7910   43.2430 C   0  0  0  0  0  0  0  0  0  0  0  0
   43.6980   35.3650   42.2530 C   0  0  0  0  0  0  0  0  0  0  0  0
   44.0680   34.6560   41.1380 C   0  0  0  0  0  0  0  0  0  0  0  0
   45.3910   34.3630   41.0180 N   0  0  0  0  0  0  0  0  0  0  0  0
   43.0890   34.2650   40.1750 N   0  0  0  0  0  0  0  0  0  0  0  0
   43.1930   33.2870   39.2500 C   0  0  0  0  0  0  0  0  0  0  0  0
   42.1300   33.0540   38.3990 C   0  0  0  0  0  0  0  0  0  0  0  0
   40.9780   33.8200   38.5010 C   0  0  0  0  0  0  0  0  0  0  0  0
   40.0290   33.5710   37.6990 O   0  0  0  0  0  0  0  0  0  0  0  0
   40.9220   34.7760   39.4320 N   0  0  0  0  0  0  0  0  0  0  0  0
   41.9530   35.0020   40.2580 C   0  0  0  0  0  0  0  0  0  0  0  0
   41.7370   35.9370   41.0740 O   0  0  0  0  0  0  0  0  0  0  0  0
   45.5060   30.9750   44.0640 C   0  0  0  0  0  0  0  0  0  0  0  0
   46.1280   31.4610   42.9150 C   0  0  0  0  0  0  0  0  0  0  0  0
   47.1880   32.3560   42.9390 C   0  0  0  0  0  0  0  0  0  0  0  0
   47.5960   32.7410   44.1600 N   0  0  0  0  0  0  0  0  0  0  0  0
   47.0020   32.2760   45.2860 C   0  0  0  0  0  0  0  0  0  0  0  0
   45.9890   31.4200   45.2560 N   0  0  0  0  0  0  0  0  0  0  0  0
   48.8605   32.5886   41.7795 H   0  0  0  0  0  0  0  0  0  0  0  0
   47.4358   31.0465   40.6119 H   0  0  0  0  0  0  0  0  0  0  0  0
   46.3396   32.3692   40.1966 H   0  0  0  0  0  0  0  0  0  0  0  0
   49.4011   32.4974   39.7585 H   0  0  0  0  0  0  0  0  0  0  0  0
   48.2857   31.9701   38.4864 H   0  0  0  0  0  0  0  0  0  0  0  0
   48.7657   34.4247   38.3702 H   0  0  0  0  0  0  0  0  0  0  0  0
   47.0083   34.0713   38.7188 H   0  0  0  0  0  0  0  0  0  0  0  0
   49.1271   35.2401   40.4545 H   0  0  0  0  0  0  0  0  0  0  0  0
   47.3632   35.7221   40.1106 H   0  0  0  0  0  0  0  0  0  0  0  0
   48.3381   34.7646   42.3262 H   0  0  0  0  0  0  0  0  0  0  0  0
   46.6481   35.8018   43.8697 H   0  0  0  0  0  0  0  0  0  0  0  0
   44.1914   36.3554   44.1110 H   0  0  0  0  0  0  0  0  0  0  0  0
   42.6325   35.6130   42.3675 H   0  0  0  0  0  0  0  0  0  0  0  0
   44.1104   32.6847   39.1751 H   0  0  0  0  0  0  0  0  0  0  0  0
   42.1971   32.2606   37.6401 H   0  0  0  0  0  0  0  0  0  0  0  0
   40.0710   35.3500   39.5167 H   0  0  0  0  0  0  0  0  0  0  0  0
   44.6661   30.2667   44.0099 H   0  0  0  0  0  0  0  0  0  0  0  0
   45.7589   31.1167   41.9376 H   0  0  0  0  0  0  0  0  0  0  0  0
   47.3740   32.6215   46.2618 H   0  0  0  0  0  0  0  0  0  0  0  0
  1 23  1  0
  2  1  1  0
  3  2  1  0
  4  3  1  0
  4  5  1  0
  5  6  1  0
  6  1  1  0
  6  7  1  0
  7  8  2  0
  8  9  1  0
 10  9  2  0
 11 10  1  0
 12 11  2  0
 12  7  1  0
 13 19  1  0
 13 11  1  0
 14 13  1  0
 15 16  1  0
 15 14  2  0
 16 18  1  0
 17 16  2  0
 18 19  1  0
 19 20  2  0
 21 26  2  0
 22 23  2  0
 22 21  1  0
 23 24  1  0
 24 25  2  0
 26 25  1  0
  1 27  1  1
  2 28  1  0
  2 29  1  0
  3 30  1  0
  3 31  1  0
  4 32  1  0
  4 33  1  0
  5 34  1  0
  5 35  1  0
  6 36  1  1
  8 37  1  0
  9 38  1  0
 10 39  1  0
 14 40  1  0
 15 41  1  0
 18 42  1  0
 21 43  1  0
 22 44  1  0
 25 45  1  0
M  ISO  8  27  13  28  13  29  13  30  13  31  13  32  13  33  13  34  13
M  ISO  8  35  13  36  13  37  14  38  14  39  14  40  14  41  14  42   9
M  ISO  3  43  14  44  14  45  14
M  END
>  <minimizedAffinity>  (1) 
-6.32130241

>  <minimizedRMSD>  (1) 
0.421340317

$$$$
