
     RDKit          3D

 51 54  0  0  1  0  0  0  0  0999 V2000
   47.8070   32.8520   41.6810 C   0  0  1  0  0  0  0  0  0  0  0  0
   47.4310   32.0920   40.4710 C   0  0  0  0  0  0  0  0  0  0  0  0
   48.4380   32.5020   39.3920 C   0  0  0  0  0  0  0  0  0  0  0  0
   48.1090   33.9360   39.0310 C   0  0  0  0  0  0  0  0  0  0  0  0
   48.1030   34.8710   40.2040 C   0  0  0  0  0  0  0  0  0  0  0  0
   47.6370   34.3460   41.4960 C   0  0  1  0  0  0  0  0  0  0  0  0
   45.4530   31.1150   44.0690 C   0  0  0  0  0  0  0  0  0  0  0  0
   46.0970   31.5530   42.9120 C   0  0  0  0  0  0  0  0  0  0  0  0
   47.1810   32.4210   42.9250 C   0  0  0  0  0  0  0  0  0  0  0  0
   47.5960   32.8320   44.1350 N   0  0  0  0  0  0  0  0  0  0  0  0
   46.9740   32.4080   45.2680 C   0  0  0  0  0  0  0  0  0  0  0  0
   45.9340   31.5770   45.2500 N   0  0  0  0  0  0  0  0  0  0  0  0
   46.2660   34.7710   41.8290 C   0  0  0  0  0  0  0  0  0  0  0  0
   45.8630   35.5220   42.9340 C   0  0  0  0  0  0  0  0  0  0  0  0
   44.4960   35.8200   43.0120 C   0  0  0  0  0  0  0  0  0  0  0  0
   43.6720   35.3580   42.0090 C   0  0  0  0  0  0  0  0  0  0  0  0
   44.0820   34.6250   40.9350 C   0  0  0  0  0  0  0  0  0  0  0  0
   45.4080   34.3340   40.8580 N   0  0  0  0  0  0  0  0  0  0  0  0
   43.1170   34.1520   39.8740 C   0  0  0  0  0  0  0  0  0  0  0  0
   42.3950   35.3520   39.3290 C   0  0  0  0  0  0  0  0  0  0  0  0
   41.2240   35.0430   38.4590 C   0  0  0  0  0  0  0  0  0  0  0  0
   40.2910   34.0260   39.0420 C   0  0  0  0  0  0  0  0  0  0  0  0
   40.7770   33.7300   40.4660 C   0  0  0  0  0  0  0  0  0  0  0  0
   42.1430   33.1480   40.3630 C   0  0  0  0  0  0  0  0  0  0  0  0
   48.8749   32.6158   41.7987 H   0  0  0  0  0  0  0  0  0  0  0  0
   47.4938   31.0107   40.6627 H   0  0  0  0  0  0  0  0  0  0  0  0
   46.3971   32.3065   40.1628 H   0  0  0  0  0  0  0  0  0  0  0  0
   49.4643   32.4326   39.7819 H   0  0  0  0  0  0  0  0  0  0  0  0
   48.3755   31.8427   38.5137 H   0  0  0  0  0  0  0  0  0  0  0  0
   48.8578   34.2919   38.3080 H   0  0  0  0  0  0  0  0  0  0  0  0
   47.0898   33.9357   38.6171 H   0  0  0  0  0  0  0  0  0  0  0  0
   49.1345   35.2254   40.3465 H   0  0  0  0  0  0  0  0  0  0  0  0
   47.3681   35.6451   39.9379 H   0  0  0  0  0  0  0  0  0  0  0  0
   48.3216   34.8112   42.2205 H   0  0  0  0  0  0  0  0  0  0  0  0
   44.5955   30.4274   44.0257 H   0  0  0  0  0  0  0  0  0  0  0  0
   45.7278   31.1928   41.9404 H   0  0  0  0  0  0  0  0  0  0  0  0
   47.3457   32.7666   46.2392 H   0  0  0  0  0  0  0  0  0  0  0  0
   46.5770   35.8604   43.6993 H   0  0  0  0  0  0  0  0  0  0  0  0
   44.0921   36.4063   43.8505 H   0  0  0  0  0  0  0  0  0  0  0  0
   42.6011   35.5991   42.0802 H   0  0  0  0  0  0  0  0  0  0  0  0
   43.6998   33.6446   39.0912 H   0  0  0  0  0  0  0  0  0  0  0  0
   42.0389   35.9512   40.1799 H   0  0  0  0  0  0  0  0  0  0  0  0
   43.1185   35.8826   38.6927 H   0  0  0  0  0  0  0  0  0  0  0  0
   41.5973   34.6607   37.4975 H   0  0  0  0  0  0  0  0  0  0  0  0
   40.6523   35.9761   38.3469 H   0  0  0  0  0  0  0  0  0  0  0  0
   39.2665   34.4257   39.0687 H   0  0  0  0  0  0  0  0  0  0  0  0
   40.2820   33.1096   38.4336 H   0  0  0  0  0  0  0  0  0  0  0  0
   40.8087   34.6601   41.0525 H   0  0  0  0  0  0  0  0  0  0  0  0
   40.0951   33.0287   40.9692 H   0  0  0  0  0  0  0  0  0  0  0  0
   42.1199   32.2997   39.6631 H   0  0  0  0  0  0  0  0  0  0  0  0
   42.4570   32.8162   41.3637 H   0  0  0  0  0  0  0  0  0  0  0  0
  1  9  1  0
  2  1  1  0
  3  2  1  0
  4  3  1  0
  4  5  1  0
  5  6  1  0
  6  1  1  0
  6 13  1  0
  7 12  2  0
  8  9  2  0
  8  7  1  0
  9 10  1  0
 10 11  2  0
 12 11  1  0
 13 14  2  0
 14 15  1  0
 16 15  2  0
 17 16  1  0
 18 17  2  0
 18 13  1  0
 19 24  1  0
 19 17  1  0
 20 19  1  0
 21 22  1  0
 21 20  1  0
 22 23  1  0
 24 23  1  0
  1 25  1  1
  2 26  1  0
  2 27  1  0
  3 28  1  0
  3 29  1  0
  4 30  1  0
  4 31  1  0
  5 32  1  0
  5 33  1  0
  6 34  1  1
  7 35  1  0
  8 36  1  0
 11 37  1  0
 14 38  1  0
 15 39  1  0
 16 40  1  0
 19 41  1  0
 20 42  1  0
 20 43  1  0
 21 44  1  0
 21 45  1  0
 22 46  1  0
 22 47  1  0
 23 48  1  0
 23 49  1  0
 24 50  1  0
 24 51  1  0
M  ISO  8  25  13  26  13  27  13  28  13  29  13  30  13  31  13  32  13
M  ISO  8  33  13  34  13  35  14  36  14  37  14  38  14  39  14  40  14
M  ISO  8  41  13  42  13  43  13  44  13  45  13  46  13  47  13  48  13
M  ISO  3  49  13  50  13  51  13
M  END
>  <minimizedAffinity>  (1) 
-5.87935781

>  <minimizedRMSD>  (1) 
0.569118917

$$$$
