
     RDKit          3D

 45 48  0  0  1  0  0  0  0  0999 V2000
   47.6810   32.6140   41.3230 C   0  0  1  0  0  0  0  0  0  0  0  0
   47.1030   31.9940   40.1110 C   0  0  0  0  0  0  0  0  0  0  0  0
   48.0390   32.3670   38.9590 C   0  0  0  0  0  0  0  0  0  0  0  0
   47.8810   33.8640   38.7400 C   0  0  0  0  0  0  0  0  0  0  0  0
   48.0630   34.6940   39.9530 C   0  0  0  0  0  0  0  0  0  0  0  0
   47.6720   34.1260   41.2570 C   0  0  1  0  0  0  0  0  0  0  0  0
   45.3640   30.9900   43.8220 C   0  0  0  0  0  0  0  0  0  0  0  0
   45.9430   31.4350   42.6350 C   0  0  0  0  0  0  0  0  0  0  0  0
   47.1150   32.1640   42.5880 C   0  0  0  0  0  0  0  0  0  0  0  0
   47.6770   32.4280   43.7810 N   0  0  0  0  0  0  0  0  0  0  0  0
   47.1320   32.0070   44.9450 C   0  0  0  0  0  0  0  0  0  0  0  0
   46.0020   31.3040   44.9760 N   0  0  0  0  0  0  0  0  0  0  0  0
   46.3900   34.6730   41.7410 C   0  0  0  0  0  0  0  0  0  0  0  0
   46.1950   35.4210   42.9120 C   0  0  0  0  0  0  0  0  0  0  0  0
   44.8800   35.8520   43.1240 C   0  0  0  0  0  0  0  0  0  0  0  0
   43.9180   35.5260   42.2080 C   0  0  0  0  0  0  0  0  0  0  0  0
   44.1230   34.7980   41.0740 C   0  0  0  0  0  0  0  0  0  0  0  0
   45.3930   34.3770   40.8630 N   0  0  0  0  0  0  0  0  0  0  0  0
   43.9690   32.3780   39.4940 F   0  0  0  0  0  0  0  0  0  0  0  0
   43.0150   33.3170   39.3420 C   0  0  0  0  0  0  0  0  0  0  0  0
   43.1070   34.4410   40.0900 C   0  0  0  0  0  0  0  0  0  0  0  0
   42.0880   35.3490   39.8720 C   0  0  0  0  0  0  0  0  0  0  0  0
   41.0700   35.1260   38.9700 C   0  0  0  0  0  0  0  0  0  0  0  0
   41.0220   33.9630   38.2310 C   0  0  0  0  0  0  0  0  0  0  0  0
   42.0240   33.0370   38.4270 C   0  0  0  0  0  0  0  0  0  0  0  0
   48.7208   32.2551   41.3163 H   0  0  0  0  0  0  0  0  0  0  0  0
   47.0555   30.9011   40.2263 H   0  0  0  0  0  0  0  0  0  0  0  0
   46.0776   32.3474   39.9276 H   0  0  0  0  0  0  0  0  0  0  0  0
   49.0800   32.1296   39.2234 H   0  0  0  0  0  0  0  0  0  0  0  0
   47.7910   31.8037   38.0473 H   0  0  0  0  0  0  0  0  0  0  0  0
   48.6251   34.1807   37.9944 H   0  0  0  0  0  0  0  0  0  0  0  0
   46.8426   34.0201   38.4122 H   0  0  0  0  0  0  0  0  0  0  0  0
   49.1315   34.9478   40.0161 H   0  0  0  0  0  0  0  0  0  0  0  0
   47.3735   35.5388   39.8084 H   0  0  0  0  0  0  0  0  0  0  0  0
   48.4700   34.4507   41.9409 H   0  0  0  0  0  0  0  0  0  0  0  0
   44.4298   30.4092   43.8224 H   0  0  0  0  0  0  0  0  0  0  0  0
   45.4407   31.1931   41.6868 H   0  0  0  0  0  0  0  0  0  0  0  0
   47.6360   32.2521   45.8915 H   0  0  0  0  0  0  0  0  0  0  0  0
   47.0131   35.6512   43.6103 H   0  0  0  0  0  0  0  0  0  0  0  0
   44.6240   36.4445   44.0147 H   0  0  0  0  0  0  0  0  0  0  0  0
   42.8950   35.8804   42.4024 H   0  0  0  0  0  0  0  0  0  0  0  0
   42.0895   36.2895   40.4426 H   0  0  0  0  0  0  0  0  0  0  0  0
   40.2856   35.8858   38.8380 H   0  0  0  0  0  0  0  0  0  0  0  0
   40.2118   33.7804   37.5097 H   0  0  0  0  0  0  0  0  0  0  0  0
   42.0322   32.0923   37.8635 H   0  0  0  0  0  0  0  0  0  0  0  0
  1  9  1  0
  2  1  1  0
  3  2  1  0
  4  3  1  0
  4  5  1  0
  5  6  1  0
  6  1  1  0
  6 13  1  0
  7 12  2  0
  8  7  1  0
  9  8  2  0
  9 10  1  0
 10 11  2  0
 11 12  1  0
 13 14  2  0
 14 15  1  0
 16 15  2  0
 17 16  1  0
 18 17  2  0
 18 13  1  0
 20 19  1  0
 20 21  2  0
 21 17  1  0
 22 21  1  0
 23 22  2  0
 24 25  2  0
 24 23  1  0
 25 20  1  0
  1 26  1  1
  2 27  1  0
  2 28  1  0
  3 29  1  0
  3 30  1  0
  4 31  1  0
  4 32  1  0
  5 33  1  0
  5 34  1  0
  6 35  1  1
  7 36  1  0
  8 37  1  0
 11 38  1  0
 14 39  1  0
 15 40  1  0
 16 41  1  0
 22 42  1  0
 23 43  1  0
 24 44  1  0
 25 45  1  0
M  ISO  8  26  13  27  13  28  13  29  13  30  13  31  13  32  13  33  13
M  ISO  8  34  13  35  13  36  14  37  14  38  14  39  14  40  14  41  14
M  ISO  4  42  14  43  14  44  14  45  14
M  END
>  <minimizedAffinity>  (1) 
-5.80043173

>  <minimizedRMSD>  (1) 
0.993608236

$$$$
