
     RDKit          3D

 44 47  0  0  1  0  0  0  0  0999 V2000
   47.7400   32.7270   41.5170 C   0  0  1  0  0  0  0  0  0  0  0  0
   47.2480   32.0010   40.3260 C   0  0  0  0  0  0  0  0  0  0  0  0
   48.2270   32.3500   39.2010 C   0  0  0  0  0  0  0  0  0  0  0  0
   47.9690   33.8090   38.8580 C   0  0  0  0  0  0  0  0  0  0  0  0
   48.0860   34.7320   40.0300 C   0  0  0  0  0  0  0  0  0  0  0  0
   47.6610   34.2310   41.3460 C   0  0  1  0  0  0  0  0  0  0  0  0
   45.4260   31.1020   44.0230 C   0  0  0  0  0  0  0  0  0  0  0  0
   46.0360   31.5060   42.8350 C   0  0  0  0  0  0  0  0  0  0  0  0
   47.1510   32.3310   42.7890 C   0  0  0  0  0  0  0  0  0  0  0  0
   47.6320   32.7350   43.9780 N   0  0  0  0  0  0  0  0  0  0  0  0
   47.0540   32.3540   45.1420 C   0  0  0  0  0  0  0  0  0  0  0  0
   45.9790   31.5560   45.1770 N   0  0  0  0  0  0  0  0  0  0  0  0
   46.3400   34.7450   41.7480 C   0  0  0  0  0  0  0  0  0  0  0  0
   46.0580   35.5380   42.8680 C   0  0  0  0  0  0  0  0  0  0  0  0
   44.7180   35.9190   43.0180 C   0  0  0  0  0  0  0  0  0  0  0  0
   43.8040   35.4940   42.0750 C   0  0  0  0  0  0  0  0  0  0  0  0
   44.0990   34.7180   40.9870 C   0  0  0  0  0  0  0  0  0  0  0  0
   45.3990   34.3490   40.8430 N   0  0  0  0  0  0  0  0  0  0  0  0
   43.0990   34.2900   40.0110 C   0  0  0  0  0  0  0  0  0  0  0  0
   42.2800   35.1610   39.3580 C   0  0  0  0  0  0  0  0  0  0  0  0
   41.3380   34.7300   38.4340 C   0  0  0  0  0  0  0  0  0  0  0  0
   41.2230   33.3860   38.1680 C   0  0  0  0  0  0  0  0  0  0  0  0
   42.0540   32.5190   38.8330 C   0  0  0  0  0  0  0  0  0  0  0  0
   42.9700   32.9740   39.7360 N   0  0  0  0  0  0  0  0  0  0  0  0
   48.7947   32.4202   41.5769 H   0  0  0  0  0  0  0  0  0  0  0  0
   47.2453   30.9166   40.5107 H   0  0  0  0  0  0  0  0  0  0  0  0
   46.2162   32.2853   40.0720 H   0  0  0  0  0  0  0  0  0  0  0  0
   49.2642   32.2151   39.5415 H   0  0  0  0  0  0  0  0  0  0  0  0
   48.0836   31.6991   38.3259 H   0  0  0  0  0  0  0  0  0  0  0  0
   48.6985   34.1209   38.0961 H   0  0  0  0  0  0  0  0  0  0  0  0
   46.9317   33.8762   38.4981 H   0  0  0  0  0  0  0  0  0  0  0  0
   49.1441   35.0204   40.1154 H   0  0  0  0  0  0  0  0  0  0  0  0
   47.3857   35.5506   39.8073 H   0  0  0  0  0  0  0  0  0  0  0  0
   48.4135   34.6411   42.0356 H   0  0  0  0  0  0  0  0  0  0  0  0
   44.5413   30.4483   44.0246 H   0  0  0  0  0  0  0  0  0  0  0  0
   45.6106   31.1518   41.8844 H   0  0  0  0  0  0  0  0  0  0  0  0
   47.4817   32.7119   46.0902 H   0  0  0  0  0  0  0  0  0  0  0  0
   46.8373   35.8415   43.5826 H   0  0  0  0  0  0  0  0  0  0  0  0
   44.4018   36.5423   43.8674 H   0  0  0  0  0  0  0  0  0  0  0  0
   42.7568   35.8032   42.2084 H   0  0  0  0  0  0  0  0  0  0  0  0
   42.3677   36.2370   39.5690 H   0  0  0  0  0  0  0  0  0  0  0  0
   40.6906   35.4558   37.9202 H   0  0  0  0  0  0  0  0  0  0  0  0
   40.4848   33.0153   37.4416 H   0  0  0  0  0  0  0  0  0  0  0  0
   41.9801   31.4396   38.6346 H   0  0  0  0  0  0  0  0  0  0  0  0
  1  9  1  0
  2  1  1  0
  3  2  1  0
  4  3  1  0
  4  5  1  0
  5  6  1  0
  6  1  1  0
  6 13  1  0
  7 12  2  0
  8  7  1  0
  9  8  2  0
  9 10  1  0
 10 11  2  0
 11 12  1  0
 13 14  2  0
 14 15  1  0
 16 15  2  0
 17 16  1  0
 18 17  2  0
 18 13  1  0
 19 17  1  0
 20 19  2  0
 21 20  1  0
 22 21  2  0
 22 23  1  0
 23 24  2  0
 24 19  1  0
  1 25  1  1
  2 26  1  0
  2 27  1  0
  3 28  1  0
  3 29  1  0
  4 30  1  0
  4 31  1  0
  5 32  1  0
  5 33  1  0
  6 34  1  1
  7 35  1  0
  8 36  1  0
 11 37  1  0
 14 38  1  0
 15 39  1  0
 16 40  1  0
 20 41  1  0
 21 42  1  0
 22 43  1  0
 23 44  1  0
M  ISO  8  25  13  26  13  27  13  28  13  29  13  30  13  31  13  32  13
M  ISO  8  33  13  34  13  35  14  36  14  37  14  38  14  39  14  40  14
M  ISO  4  41  14  42  14  43  14  44  14
M  END
>  <minimizedAffinity>  (1) 
-5.65578508

>  <minimizedRMSD>  (1) 
0.526201963

$$$$
