
     RDKit          3D

 48 51  0  0  1  0  0  0  0  0999 V2000
   47.8680   32.9560   41.8130 C   0  0  1  0  0  0  0  0  0  0  0  0
   47.5590   32.1870   40.5900 C   0  0  0  0  0  0  0  0  0  0  0  0
   48.5910   32.6380   39.5510 C   0  0  0  0  0  0  0  0  0  0  0  0
   48.2260   34.0610   39.1840 C   0  0  0  0  0  0  0  0  0  0  0  0
   48.1520   34.9930   40.3580 C   0  0  0  0  0  0  0  0  0  0  0  0
   47.6560   34.4460   41.6260 C   0  0  1  0  0  0  0  0  0  0  0  0
   45.5120   31.1040   44.1130 C   0  0  0  0  0  0  0  0  0  0  0  0
   46.1790   31.5710   42.9820 C   0  0  0  0  0  0  0  0  0  0  0  0
   47.2100   32.4990   43.0320 C   0  0  0  0  0  0  0  0  0  0  0  0
   47.5430   32.9370   44.2560 N   0  0  0  0  0  0  0  0  0  0  0  0
   46.9020   32.4910   45.3660 C   0  0  0  0  0  0  0  0  0  0  0  0
   45.9170   31.6050   45.3100 N   0  0  0  0  0  0  0  0  0  0  0  0
   46.2600   34.8230   41.9090 C   0  0  0  0  0  0  0  0  0  0  0  0
   45.7950   35.5610   43.0070 C   0  0  0  0  0  0  0  0  0  0  0  0
   44.4110   35.8080   43.0320 C   0  0  0  0  0  0  0  0  0  0  0  0
   43.6430   35.3180   42.0050 C   0  0  0  0  0  0  0  0  0  0  0  0
   44.1140   34.5940   40.9340 C   0  0  0  0  0  0  0  0  0  0  0  0
   45.4540   34.3580   40.9130 N   0  0  0  0  0  0  0  0  0  0  0  0
   43.1740   34.1180   39.8820 C   0  0  0  0  0  0  0  0  0  0  0  0
   42.1730   33.1430   40.3430 C   0  0  0  0  0  0  0  0  0  0  0  0
   40.9840   33.4070   39.4380 C   0  0  0  0  0  0  0  0  0  0  0  0
   40.9710   34.8830   39.2080 C   0  0  0  0  0  0  0  0  0  0  0  0
   42.4050   35.2980   39.3080 C   0  0  0  0  0  0  0  0  0  0  0  0
   48.9388   32.7570   41.9675 H   0  0  0  0  0  0  0  0  0  0  0  0
   47.6520   31.1077   40.7808 H   0  0  0  0  0  0  0  0  0  0  0  0
   46.5293   32.3641   40.2459 H   0  0  0  0  0  0  0  0  0  0  0  0
   49.6037   32.6022   39.9789 H   0  0  0  0  0  0  0  0  0  0  0  0
   48.5844   31.9818   38.6682 H   0  0  0  0  0  0  0  0  0  0  0  0
   48.9846   34.4438   38.4855 H   0  0  0  0  0  0  0  0  0  0  0  0
   47.2204   34.0277   38.7395 H   0  0  0  0  0  0  0  0  0  0  0  0
   49.1670   35.3764   40.5390 H   0  0  0  0  0  0  0  0  0  0  0  0
   47.4081   35.7500   40.0689 H   0  0  0  0  0  0  0  0  0  0  0  0
   48.2983   34.9299   42.3765 H   0  0  0  0  0  0  0  0  0  0  0  0
   44.6986   30.3670   44.0407 H   0  0  0  0  0  0  0  0  0  0  0  0
   45.8726   31.1842   41.9989 H   0  0  0  0  0  0  0  0  0  0  0  0
   47.2108   32.8787   46.3480 H   0  0  0  0  0  0  0  0  0  0  0  0
   46.4691   35.9231   43.7973 H   0  0  0  0  0  0  0  0  0  0  0  0
   43.9551   36.3795   43.8539 H   0  0  0  0  0  0  0  0  0  0  0  0
   42.5625   35.5208   42.0413 H   0  0  0  0  0  0  0  0  0  0  0  0
   43.8143   33.6182   39.1402 H   0  0  0  0  0  0  0  0  0  0  0  0
   42.5404   32.1135   40.2203 H   0  0  0  0  0  0  0  0  0  0  0  0
   41.9317   33.2469   41.4112 H   0  0  0  0  0  0  0  0  0  0  0  0
   41.1013   32.8713   38.4845 H   0  0  0  0  0  0  0  0  0  0  0  0
   40.0440   33.0583   39.8905 H   0  0  0  0  0  0  0  0  0  0  0  0
   40.3667   35.3894   39.9750 H   0  0  0  0  0  0  0  0  0  0  0  0
   40.5289   35.1479   38.2362 H   0  0  0  0  0  0  0  0  0  0  0  0
   42.7942   35.5529   38.3113 H   0  0  0  0  0  0  0  0  0  0  0  0
   42.5118   36.1844   39.9506 H   0  0  0  0  0  0  0  0  0  0  0  0
  1  9  1  0
  2  1  1  0
  3  2  1  0
  4  3  1  0
  4  5  1  0
  5  6  1  0
  6  1  1  0
  6 13  1  0
  7 12  2  0
  8  9  2  0
  8  7  1  0
  9 10  1  0
 10 11  2  0
 12 11  1  0
 13 14  2  0
 14 15  1  0
 16 15  2  0
 17 16  1  0
 18 17  2  0
 18 13  1  0
 19 20  1  0
 19 17  1  0
 21 20  1  0
 22 23  1  0
 22 21  1  0
 23 19  1  0
  1 24  1  1
  2 25  1  0
  2 26  1  0
  3 27  1  0
  3 28  1  0
  4 29  1  0
  4 30  1  0
  5 31  1  0
  5 32  1  0
  6 33  1  1
  7 34  1  0
  8 35  1  0
 11 36  1  0
 14 37  1  0
 15 38  1  0
 16 39  1  0
 19 40  1  0
 20 41  1  0
 20 42  1  0
 21 43  1  0
 21 44  1  0
 22 45  1  0
 22 46  1  0
 23 47  1  0
 23 48  1  0
M  ISO  8  24  13  25  13  26  13  27  13  28  13  29  13  30  13  31  13
M  ISO  8  32  13  33  13  34  14  35  14  36  14  37  14  38  14  39  14
M  ISO  8  40  13  41  13  42  13  43  13  44  13  45  13  46  13  47  13
M  ISO  1  48  13
M  END
>  <minimizedAffinity>  (1) 
-5.58376503

>  <minimizedRMSD>  (1) 
0.594474852

$$$$
