
     RDKit          3D

 24 25  0  0  0  0  0  0  0  0999 V2000
   44.5350   35.8490   44.7290 C   0  0  0  0  0  0  0  0  0  0  0  0
   45.1980   35.8120   43.4790 C   0  0  0  0  0  0  0  0  0  0  0  0
   46.1140   34.7440   43.2980 C   0  0  0  0  0  0  0  0  0  0  0  0
   46.2870   33.8590   44.3020 N   0  0  0  0  0  0  0  0  0  0  0  0
   45.6290   33.9410   45.4740 C   0  0  0  0  0  0  0  0  0  0  0  0
   44.7480   34.9460   45.6830 N   0  0  0  0  0  0  0  0  0  0  0  0
   47.5270   31.8340   44.7060 Cl  0  0  0  0  0  0  0  0  0  0  0  0
   46.7360   31.9010   46.2780 C   0  0  0  0  0  0  0  0  0  0  0  0
   45.8600   32.9550   46.5140 C   0  0  0  0  0  0  0  0  0  0  0  0
   45.2530   33.0060   47.7250 C   0  0  0  0  0  0  0  0  0  0  0  0
   45.5140   32.0290   48.6760 C   0  0  0  0  0  0  0  0  0  0  0  0
   46.3850   30.9850   48.4320 C   0  0  0  0  0  0  0  0  0  0  0  0
   47.0170   30.9160   47.1960 C   0  0  0  0  0  0  0  0  0  0  0  0
   47.9180   29.8970   46.8510 O   0  0  0  0  0  0  0  0  0  0  0  0
   46.7740   34.7450   41.9940 C   0  0  0  0  0  0  0  0  0  0  0  0
   47.5490   33.5850   41.9020 F   0  0  0  0  0  0  0  0  0  0  0  0
   47.6710   35.7730   41.9890 F   0  0  0  0  0  0  0  0  0  0  0  0
   45.8960   34.7450   40.9280 F   0  0  0  0  0  0  0  0  0  0  0  0
   43.8139   36.6575   44.9197 H   0  0  0  0  0  0  0  0  0  0  0  0
   45.0146   36.5639   42.6973 H   0  0  0  0  0  0  0  0  0  0  0  0
   44.5527   33.8227   47.9544 H   0  0  0  0  0  0  0  0  0  0  0  0
   45.0122   32.0879   49.6531 H   0  0  0  0  0  0  0  0  0  0  0  0
   46.5749   30.2224   49.2016 H   0  0  0  0  0  0  0  0  0  0  0  0
   48.1293   29.1818   47.5021 H   0  0  0  0  0  0  0  0  0  0  0  0
  1  6  2  0
  2  1  1  0
  3  2  2  0
  3  4  1  0
  4  5  2  0
  5  6  1  0
  5  9  1  0
  7  8  1  0
  8  9  2  0
  8 13  1  0
  9 10  1  0
 10 11  2  0
 12 11  1  0
 13 12  2  0
 14 13  1  0
 15  3  1  0
 16 15  1  0
 17 15  1  0
 18 15  1  0
  1 19  1  0
  2 20  1  0
 10 21  1  0
 11 22  1  0
 12 23  1  0
 14 24  1  0
M  ISO  6  19  14  20  14  21  14  22  14  23  14  24   3
M  END
>  <minimizedAffinity>  (1) 
-5.73989725

>  <minimizedRMSD>  (1) 
0.0203274749

$$$$
