
     RDKit          3D

 37 39  0  0  1  0  0  0  0  0999 V2000
   47.8710   32.9340   41.8220 C   0  0  1  0  0  0  0  0  0  0  0  0
   47.5630   32.1770   40.5920 C   0  0  0  0  0  0  0  0  0  0  0  0
   48.5950   32.6310   39.5570 C   0  0  0  0  0  0  0  0  0  0  0  0
   48.2500   34.0650   39.2040 C   0  0  0  0  0  0  0  0  0  0  0  0
   48.1640   34.9800   40.3800 C   0  0  0  0  0  0  0  0  0  0  0  0
   47.6650   34.4240   41.6450 C   0  0  1  0  0  0  0  0  0  0  0  0
   45.4860   31.0880   44.0980 C   0  0  0  0  0  0  0  0  0  0  0  0
   46.1630   31.5620   42.9730 C   0  0  0  0  0  0  0  0  0  0  0  0
   47.2110   32.4700   43.0350 C   0  0  0  0  0  0  0  0  0  0  0  0
   47.5560   32.8880   44.2650 N   0  0  0  0  0  0  0  0  0  0  0  0
   46.9080   32.4380   45.3690 C   0  0  0  0  0  0  0  0  0  0  0  0
   45.9000   31.5620   45.3010 N   0  0  0  0  0  0  0  0  0  0  0  0
   46.2720   34.8090   41.9300 C   0  0  0  0  0  0  0  0  0  0  0  0
   45.8060   35.4970   43.0550 C   0  0  0  0  0  0  0  0  0  0  0  0
   44.4390   35.7670   43.0830 C   0  0  0  0  0  0  0  0  0  0  0  0
   43.6650   35.3440   42.0220 C   0  0  0  0  0  0  0  0  0  0  0  0
   44.1390   34.6690   40.9220 C   0  0  0  0  0  0  0  0  0  0  0  0
   45.4720   34.4080   40.9000 N   0  0  0  0  0  0  0  0  0  0  0  0
   43.2380   34.2570   39.8370 C   0  0  0  0  0  0  0  0  0  0  0  0
   42.3650   35.0750   39.4500 O   0  0  0  0  0  0  0  0  0  0  0  0
   48.9403   32.7293   41.9790 H   0  0  0  0  0  0  0  0  0  0  0  0
   47.6527   31.0959   40.7744 H   0  0  0  0  0  0  0  0  0  0  0  0
   46.5346   32.3620   40.2482 H   0  0  0  0  0  0  0  0  0  0  0  0
   49.6081   32.5777   39.9821 H   0  0  0  0  0  0  0  0  0  0  0  0
   48.5743   31.9864   38.6659 H   0  0  0  0  0  0  0  0  0  0  0  0
   49.0246   34.4489   38.5239 H   0  0  0  0  0  0  0  0  0  0  0  0
   47.2510   34.0461   38.7440 H   0  0  0  0  0  0  0  0  0  0  0  0
   49.1759   35.3680   40.5686 H   0  0  0  0  0  0  0  0  0  0  0  0
   47.4138   35.7313   40.0924 H   0  0  0  0  0  0  0  0  0  0  0  0
   48.3100   34.8961   42.4008 H   0  0  0  0  0  0  0  0  0  0  0  0
   44.6593   30.3672   44.0141 H   0  0  0  0  0  0  0  0  0  0  0  0
   45.8491   31.1963   41.9842 H   0  0  0  0  0  0  0  0  0  0  0  0
   47.2234   32.8073   46.3560 H   0  0  0  0  0  0  0  0  0  0  0  0
   46.4781   35.8065   43.8689 H   0  0  0  0  0  0  0  0  0  0  0  0
   43.9881   36.3043   43.9304 H   0  0  0  0  0  0  0  0  0  0  0  0
   42.5877   35.5633   42.0590 H   0  0  0  0  0  0  0  0  0  0  0  0
   43.3247   33.2618   39.3766 H   0  0  0  0  0  0  0  0  0  0  0  0
  1  9  1  0
  2  1  1  0
  3  2  1  0
  4  3  1  0
  4  5  1  0
  5  6  1  0
  6  1  1  0
  6 13  1  0
  7 12  2  0
  8  9  2  0
  8  7  1  0
  9 10  1  0
 10 11  2  0
 12 11  1  0
 13 14  2  0
 14 15  1  0
 16 15  2  0
 17 16  1  0
 18 17  2  0
 18 13  1  0
 19 17  1  0
 20 19  2  0
  1 21  1  1
  2 22  1  0
  2 23  1  0
  3 24  1  0
  3 25  1  0
  4 26  1  0
  4 27  1  0
  5 28  1  0
  5 29  1  0
  6 30  1  1
  7 31  1  0
  8 32  1  0
 11 33  1  0
 14 34  1  0
 15 35  1  0
 16 36  1  0
 19 37  1  0
M  ISO  8  21  13  22  13  23  13  24  13  25  13  26  13  27  13  28  13
M  ISO  8  29  13  30  13  31  14  32  14  33  14  34  14  35  14  36  14
M  ISO  1  37   6
M  END
>  <minimizedAffinity>  (1) 
-4.82664394

>  <minimizedRMSD>  (1) 
0.339444906

$$$$
