
     RDKit          3D

 47 50  0  0  1  0  0  0  0  0999 V2000
   47.6120   32.5940   41.3730 C   0  0  1  0  0  0  0  0  0  0  0  0
   47.0250   31.9420   40.1990 C   0  0  0  0  0  0  0  0  0  0  0  0
   47.9320   32.2710   39.0150 C   0  0  0  0  0  0  0  0  0  0  0  0
   47.7540   33.7500   38.7330 C   0  0  0  0  0  0  0  0  0  0  0  0
   47.9720   34.6340   39.9280 C   0  0  0  0  0  0  0  0  0  0  0  0
   47.5840   34.1200   41.2450 C   0  0  1  0  0  0  0  0  0  0  0  0
   45.3440   31.0250   43.9630 C   0  0  0  0  0  0  0  0  0  0  0  0
   45.9170   31.4360   42.7530 C   0  0  0  0  0  0  0  0  0  0  0  0
   47.0830   32.2020   42.6630 C   0  0  0  0  0  0  0  0  0  0  0  0
   47.6500   32.5400   43.8260 N   0  0  0  0  0  0  0  0  0  0  0  0
   47.1080   32.1500   45.0110 C   0  0  0  0  0  0  0  0  0  0  0  0
   45.9930   31.4180   45.0880 N   0  0  0  0  0  0  0  0  0  0  0  0
   46.3210   34.6810   41.7250 C   0  0  0  0  0  0  0  0  0  0  0  0
   46.1440   35.4590   42.8670 C   0  0  0  0  0  0  0  0  0  0  0  0
   44.8440   35.8980   43.1150 C   0  0  0  0  0  0  0  0  0  0  0  0
   43.8520   35.5350   42.2290 C   0  0  0  0  0  0  0  0  0  0  0  0
   44.0460   34.7570   41.0960 C   0  0  0  0  0  0  0  0  0  0  0  0
   45.3220   34.3390   40.8710 N   0  0  0  0  0  0  0  0  0  0  0  0
   42.9220   34.4330   40.2290 C   0  0  0  0  0  0  0  0  0  0  0  0
   42.9460   34.8450   39.0440 O   0  0  0  0  0  0  0  0  0  0  0  0
   40.6420   36.1810   40.8290 Cl  0  0  0  0  0  0  0  0  0  0  0  0
   40.5140   34.4190   40.6970 C   0  0  0  0  0  0  0  0  0  0  0  0
   41.6810   33.6970   40.4100 C   0  0  0  0  0  0  0  0  0  0  0  0
   41.5020   32.3550   40.3230 C   0  0  0  0  0  0  0  0  0  0  0  0
   40.3100   31.6840   40.4910 C   0  0  0  0  0  0  0  0  0  0  0  0
   39.1970   32.4470   40.7730 C   0  0  0  0  0  0  0  0  0  0  0  0
   39.2660   33.8200   40.8820 C   0  0  0  0  0  0  0  0  0  0  0  0
   48.6476   32.2231   41.3650 H   0  0  0  0  0  0  0  0  0  0  0  0
   46.9812   30.8536   40.3521 H   0  0  0  0  0  0  0  0  0  0  0  0
   45.9987   32.2959   40.0216 H   0  0  0  0  0  0  0  0  0  0  0  0
   48.9806   32.0562   39.2686 H   0  0  0  0  0  0  0  0  0  0  0  0
   47.6721   31.6646   38.1348 H   0  0  0  0  0  0  0  0  0  0  0  0
   48.4721   34.0415   37.9524 H   0  0  0  0  0  0  0  0  0  0  0  0
   46.7080   33.8895   38.4224 H   0  0  0  0  0  0  0  0  0  0  0  0
   49.0463   34.8663   39.9712 H   0  0  0  0  0  0  0  0  0  0  0  0
   47.3040   35.4917   39.7604 H   0  0  0  0  0  0  0  0  0  0  0  0
   48.3805   34.4799   41.9129 H   0  0  0  0  0  0  0  0  0  0  0  0
   44.4252   30.4213   43.9991 H   0  0  0  0  0  0  0  0  0  0  0  0
   45.4201   31.1384   41.8178 H   0  0  0  0  0  0  0  0  0  0  0  0
   47.6080   32.4495   45.9439 H   0  0  0  0  0  0  0  0  0  0  0  0
   46.9811   35.7122   43.5342 H   0  0  0  0  0  0  0  0  0  0  0  0
   44.6158   36.5178   43.9946 H   0  0  0  0  0  0  0  0  0  0  0  0
   42.8309   35.8882   42.4353 H   0  0  0  0  0  0  0  0  0  0  0  0
   42.3901   31.7464   40.0976 H   0  0  0  0  0  0  0  0  0  0  0  0
   40.2494   30.5891   40.4040 H   0  0  0  0  0  0  0  0  0  0  0  0
   38.2275   31.9470   40.9149 H   0  0  0  0  0  0  0  0  0  0  0  0
   38.3721   34.4206   41.1061 H   0  0  0  0  0  0  0  0  0  0  0  0
  1  9  1  0
  2  1  1  0
  3  2  1  0
  4  3  1  0
  4  5  1  0
  5  6  1  0
  6  1  1  0
  6 13  1  0
  7 12  2  0
  8  7  1  0
  9  8  2  0
  9 10  1  0
 10 11  2  0
 11 12  1  0
 13 14  2  0
 14 15  1  0
 16 15  2  0
 17 16  1  0
 18 17  2  0
 18 13  1  0
 19 23  1  0
 19 17  1  0
 20 19  2  0
 22 21  1  0
 22 27  2  0
 23 22  1  0
 24 23  2  0
 24 25  1  0
 25 26  2  0
 26 27  1  0
  1 28  1  1
  2 29  1  0
  2 30  1  0
  3 31  1  0
  3 32  1  0
  4 33  1  0
  4 34  1  0
  5 35  1  0
  5 36  1  0
  6 37  1  1
  7 38  1  0
  8 39  1  0
 11 40  1  0
 14 41  1  0
 15 42  1  0
 16 43  1  0
 24 44  1  0
 25 45  1  0
 26 46  1  0
 27 47  1  0
M  ISO  8  28  13  29  13  30  13  31  13  32  13  33  13  34  13  35  13
M  ISO  8  36  13  37  13  38  14  39  14  40  14  41  14  42  14  43  14
M  ISO  4  44  14  45  14  46  14  47  14
M  END
>  <minimizedAffinity>  (1) 
-6.09775829

>  <minimizedRMSD>  (1) 
1.98077333

$$$$
