
     RDKit          3D

 51 54  0  0  1  0  0  0  0  0999 V2000
   47.7260   32.7220   41.5170 C   0  0  1  0  0  0  0  0  0  0  0  0
   47.2540   31.9960   40.3380 C   0  0  0  0  0  0  0  0  0  0  0  0
   48.2170   32.3520   39.2100 C   0  0  0  0  0  0  0  0  0  0  0  0
   47.9710   33.8130   38.8690 C   0  0  0  0  0  0  0  0  0  0  0  0
   48.0700   34.7430   40.0390 C   0  0  0  0  0  0  0  0  0  0  0  0
   47.6320   34.2420   41.3420 C   0  0  1  0  0  0  0  0  0  0  0  0
   45.4160   31.0960   44.0330 C   0  0  0  0  0  0  0  0  0  0  0  0
   46.0380   31.5050   42.8470 C   0  0  0  0  0  0  0  0  0  0  0  0
   47.1530   32.3450   42.7930 C   0  0  0  0  0  0  0  0  0  0  0  0
   47.6170   32.7530   43.9750 N   0  0  0  0  0  0  0  0  0  0  0  0
   47.0270   32.3660   45.1370 C   0  0  0  0  0  0  0  0  0  0  0  0
   45.9610   31.5640   45.1790 N   0  0  0  0  0  0  0  0  0  0  0  0
   46.3110   34.7450   41.7300 C   0  0  0  0  0  0  0  0  0  0  0  0
   46.0260   35.5590   42.8350 C   0  0  0  0  0  0  0  0  0  0  0  0
   44.6900   35.9270   42.9960 C   0  0  0  0  0  0  0  0  0  0  0  0
   43.7750   35.4690   42.0730 C   0  0  0  0  0  0  0  0  0  0  0  0
   44.0710   34.6640   40.9860 C   0  0  0  0  0  0  0  0  0  0  0  0
   45.3810   34.3120   40.8410 N   0  0  0  0  0  0  0  0  0  0  0  0
   43.0330   34.2330   40.0570 C   0  0  0  0  0  0  0  0  0  0  0  0
   42.8290   34.9340   39.0270 O   0  0  0  0  0  0  0  0  0  0  0  0
   42.2170   32.9950   40.3020 C   0  0  0  0  0  0  0  0  0  0  0  0
   40.7430   33.3390   40.3710 C   0  0  0  0  0  0  0  0  0  0  0  0
   40.1550   33.0690   41.7410 C   0  0  0  0  0  0  0  0  0  0  0  0
   40.3370   31.7650   42.1720 O   0  0  0  0  0  0  0  0  0  0  0  0
   41.5800   31.2500   41.8400 C   0  0  0  0  0  0  0  0  0  0  0  0
   42.5610   32.3890   41.6510 C   0  0  0  0  0  0  0  0  0  0  0  0
   48.7779   32.4048   41.5701 H   0  0  0  0  0  0  0  0  0  0  0  0
   47.2691   30.9122   40.5254 H   0  0  0  0  0  0  0  0  0  0  0  0
   46.2190   32.2693   40.0848 H   0  0  0  0  0  0  0  0  0  0  0  0
   49.2566   32.2098   39.5403 H   0  0  0  0  0  0  0  0  0  0  0  0
   48.0536   31.7085   38.3330 H   0  0  0  0  0  0  0  0  0  0  0  0
   48.7143   34.1219   38.1193 H   0  0  0  0  0  0  0  0  0  0  0  0
   46.9375   33.8808   38.4986 H   0  0  0  0  0  0  0  0  0  0  0  0
   49.1255   35.0368   40.1373 H   0  0  0  0  0  0  0  0  0  0  0  0
   47.3723   35.5607   39.8054 H   0  0  0  0  0  0  0  0  0  0  0  0
   48.3708   34.6602   42.0414 H   0  0  0  0  0  0  0  0  0  0  0  0
   44.5374   30.4342   44.0327 H   0  0  0  0  0  0  0  0  0  0  0  0
   45.6216   31.1413   41.8960 H   0  0  0  0  0  0  0  0  0  0  0  0
   47.4474   32.7305   46.0859 H   0  0  0  0  0  0  0  0  0  0  0  0
   46.8093   35.8881   43.5337 H   0  0  0  0  0  0  0  0  0  0  0  0
   44.3760   36.5645   43.8357 H   0  0  0  0  0  0  0  0  0  0  0  0
   42.7251   35.7668   42.2108 H   0  0  0  0  0  0  0  0  0  0  0  0
   42.4341   32.2989   39.4784 H   0  0  0  0  0  0  0  0  0  0  0  0
   40.6170   34.4061   40.1356 H   0  0  0  0  0  0  0  0  0  0  0  0
   40.2140   32.7035   39.6456 H   0  0  0  0  0  0  0  0  0  0  0  0
   40.6333   33.7452   42.4649 H   0  0  0  0  0  0  0  0  0  0  0  0
   39.0705   33.2376   41.6672 H   0  0  0  0  0  0  0  0  0  0  0  0
   41.9326   30.5919   42.6479 H   0  0  0  0  0  0  0  0  0  0  0  0
   41.5019   30.6729   40.9068 H   0  0  0  0  0  0  0  0  0  0  0  0
   43.5942   32.0116   41.6516 H   0  0  0  0  0  0  0  0  0  0  0  0
   42.4917   33.1286   42.4623 H   0  0  0  0  0  0  0  0  0  0  0  0
  1  9  1  0
  2  1  1  0
  3  2  1  0
  4  3  1  0
  4  5  1  0
  5  6  1  0
  6  1  1  0
  6 13  1  0
  7 12  2  0
  8  7  1  0
  9  8  2  0
  9 10  1  0
 10 11  2  0
 11 12  1  0
 13 14  2  0
 14 15  1  0
 16 15  2  0
 17 16  1  0
 18 17  2  0
 18 13  1  0
 19 21  1  0
 19 17  1  0
 20 19  2  0
 21 22  1  0
 21 26  1  0
 22 23  1  0
 23 24  1  0
 25 24  1  0
 26 25  1  0
  1 27  1  1
  2 28  1  0
  2 29  1  0
  3 30  1  0
  3 31  1  0
  4 32  1  0
  4 33  1  0
  5 34  1  0
  5 35  1  0
  6 36  1  1
  7 37  1  0
  8 38  1  0
 11 39  1  0
 14 40  1  0
 15 41  1  0
 16 42  1  0
 21 43  1  0
 22 44  1  0
 22 45  1  0
 23 46  1  0
 23 47  1  0
 25 48  1  0
 25 49  1  0
 26 50  1  0
 26 51  1  0
M  ISO  8  27  13  28  13  29  13  30  13  31  13  32  13  33  13  34  13
M  ISO  8  35  13  36  13  37  14  38  14  39  14  40  14  41  14  42  14
M  ISO  8  43  13  44  13  45  13  46  13  47  13  48  13  49  13  50  13
M  ISO  1  51  13
M  END
>  <minimizedAffinity>  (1) 
-5.60125732

>  <minimizedRMSD>  (1) 
1.60571849

$$$$
