
     RDKit          3D

 47 50  0  0  1  0  0  0  0  0999 V2000
   47.8450   32.9080   41.8110 C   0  0  1  0  0  0  0  0  0  0  0  0
   47.5280   32.2860   40.5220 C   0  0  0  0  0  0  0  0  0  0  0  0
   48.5630   32.8290   39.5340 C   0  0  0  0  0  0  0  0  0  0  0  0
   48.2290   34.2860   39.3190 C   0  0  0  0  0  0  0  0  0  0  0  0
   48.1500   35.0890   40.5740 C   0  0  0  0  0  0  0  0  0  0  0  0
   47.6430   34.4280   41.7750 C   0  0  1  0  0  0  0  0  0  0  0  0
   45.3960   30.9450   43.9020 C   0  0  0  0  0  0  0  0  0  0  0  0
   46.0770   31.5090   42.8310 C   0  0  0  0  0  0  0  0  0  0  0  0
   47.1830   32.3520   42.9740 C   0  0  0  0  0  0  0  0  0  0  0  0
   47.5470   32.5830   44.2310 N   0  0  0  0  0  0  0  0  0  0  0  0
   46.8990   32.0460   45.2970 C   0  0  0  0  0  0  0  0  0  0  0  0
   45.8390   31.2400   45.1370 N   0  0  0  0  0  0  0  0  0  0  0  0
   46.2470   34.7930   42.0990 C   0  0  0  0  0  0  0  0  0  0  0  0
   45.7920   35.3460   43.2820 C   0  0  0  0  0  0  0  0  0  0  0  0
   44.4200   35.6290   43.3430 C   0  0  0  0  0  0  0  0  0  0  0  0
   43.6510   35.3370   42.2410 C   0  0  0  0  0  0  0  0  0  0  0  0
   44.1190   34.7890   41.0790 C   0  0  0  0  0  0  0  0  0  0  0  0
   45.4510   34.5150   41.0190 N   0  0  0  0  0  0  0  0  0  0  0  0
   43.2280   34.5170   39.9280 C   0  0  0  0  0  0  0  0  0  0  0  0
   42.2430   35.3030   39.7840 O   0  0  0  0  0  0  0  0  0  0  0  0
   43.3960   33.4260   38.9480 C   0  0  0  0  0  0  0  0  0  0  0  0
   44.5390   33.0550   38.2780 C   0  0  0  0  0  0  0  0  0  0  0  0
   44.5830   32.0360   37.3610 C   0  0  0  0  0  0  0  0  0  0  0  0
   43.4070   31.3590   37.1110 C   0  0  0  0  0  0  0  0  0  0  0  0
   42.2130   31.6500   37.7270 C   0  0  0  0  0  0  0  0  0  0  0  0
   42.2350   32.6990   38.6520 C   0  0  0  0  0  0  0  0  0  0  0  0
   48.9098   32.6658   41.9436 H   0  0  0  0  0  0  0  0  0  0  0  0
   47.6053   31.1912   40.5952 H   0  0  0  0  0  0  0  0  0  0  0  0
   46.5012   32.5166   40.2017 H   0  0  0  0  0  0  0  0  0  0  0  0
   49.5757   32.7291   39.9516 H   0  0  0  0  0  0  0  0  0  0  0  0
   48.5381   32.2716   38.5860 H   0  0  0  0  0  0  0  0  0  0  0  0
   49.0057   34.7264   38.6765 H   0  0  0  0  0  0  0  0  0  0  0  0
   47.2288   34.3160   38.8621 H   0  0  0  0  0  0  0  0  0  0  0  0
   49.1658   35.4457   40.7998 H   0  0  0  0  0  0  0  0  0  0  0  0
   47.4096   35.8726   40.3555 H   0  0  0  0  0  0  0  0  0  0  0  0
   48.2843   34.8303   42.5730 H   0  0  0  0  0  0  0  0  0  0  0  0
   44.5303   30.2845   43.7465 H   0  0  0  0  0  0  0  0  0  0  0  0
   45.7267   31.2797   41.8138 H   0  0  0  0  0  0  0  0  0  0  0  0
   47.2510   32.2770   46.3132 H   0  0  0  0  0  0  0  0  0  0  0  0
   46.4669   35.5518   44.1259 H   0  0  0  0  0  0  0  0  0  0  0  0
   43.9723   36.0713   44.2452 H   0  0  0  0  0  0  0  0  0  0  0  0
   42.5758   35.5618   42.2988 H   0  0  0  0  0  0  0  0  0  0  0  0
   45.4677   33.6054   38.4892 H   0  0  0  0  0  0  0  0  0  0  0  0
   45.5177   31.7694   36.8459 H   0  0  0  0  0  0  0  0  0  0  0  0
   43.4260   30.5399   36.3771 H   0  0  0  0  0  0  0  0  0  0  0  0
   41.2927   31.0898   37.5051 H   0  0  0  0  0  0  0  0  0  0  0  0
   41.3012   32.9647   39.1692 H   0  0  0  0  0  0  0  0  0  0  0  0
  1  9  1  0
  2  1  1  0
  3  2  1  0
  4  3  1  0
  4  5  1  0
  5  6  1  0
  6  1  1  0
  6 13  1  0
  7 12  2  0
  8  9  2  0
  8  7  1  0
  9 10  1  0
 10 11  2  0
 12 11  1  0
 13 14  2  0
 14 15  1  0
 16 15  2  0
 17 16  1  0
 18 17  2  0
 18 13  1  0
 19 17  1  0
 20 19  2  0
 21 19  1  0
 22 21  2  0
 23 22  1  0
 24 23  2  0
 24 25  1  0
 25 26  2  0
 26 21  1  0
  1 27  1  1
  2 28  1  0
  2 29  1  0
  3 30  1  0
  3 31  1  0
  4 32  1  0
  4 33  1  0
  5 34  1  0
  5 35  1  0
  6 36  1  1
  7 37  1  0
  8 38  1  0
 11 39  1  0
 14 40  1  0
 15 41  1  0
 16 42  1  0
 22 43  1  0
 23 44  1  0
 24 45  1  0
 25 46  1  0
 26 47  1  0
M  ISO  8  27  13  28  13  29  13  30  13  31  13  32  13  33  13  34  13
M  ISO  8  35  13  36  13  37  14  38  14  39  14  40  14  41  14  42  14
M  ISO  5  43  14  44  14  45  14  46  14  47  14
M  END
>  <minimizedAffinity>  (1) 
-5.49794102

>  <minimizedRMSD>  (1) 
0.60671699

$$$$
