
     RDKit          3D

 44 47  0  0  1  0  0  0  0  0999 V2000
   47.8730   32.9280   41.7930 C   0  0  1  0  0  0  0  0  0  0  0  0
   47.5490   32.2090   40.5620 C   0  0  0  0  0  0  0  0  0  0  0  0
   48.5710   32.6590   39.5210 C   0  0  0  0  0  0  0  0  0  0  0  0
   48.2450   34.1050   39.1890 C   0  0  0  0  0  0  0  0  0  0  0  0
   48.1850   35.0100   40.3880 C   0  0  0  0  0  0  0  0  0  0  0  0
   47.6830   34.4420   41.6400 C   0  0  1  0  0  0  0  0  0  0  0  0
   45.5010   31.0700   44.0750 C   0  0  0  0  0  0  0  0  0  0  0  0
   46.1830   31.5550   42.9500 C   0  0  0  0  0  0  0  0  0  0  0  0
   47.2310   32.4780   43.0100 C   0  0  0  0  0  0  0  0  0  0  0  0
   47.5670   32.8930   44.2300 N   0  0  0  0  0  0  0  0  0  0  0  0
   46.9180   32.4330   45.3330 C   0  0  0  0  0  0  0  0  0  0  0  0
   45.9190   31.5540   45.2750 N   0  0  0  0  0  0  0  0  0  0  0  0
   46.3020   34.8410   41.9320 C   0  0  0  0  0  0  0  0  0  0  0  0
   45.8640   35.5660   43.0440 C   0  0  0  0  0  0  0  0  0  0  0  0
   44.4980   35.8430   43.1060 C   0  0  0  0  0  0  0  0  0  0  0  0
   43.7060   35.3880   42.0830 C   0  0  0  0  0  0  0  0  0  0  0  0
   44.1490   34.6720   40.9870 C   0  0  0  0  0  0  0  0  0  0  0  0
   45.4870   34.4080   40.9420 N   0  0  0  0  0  0  0  0  0  0  0  0
   43.2290   34.2280   39.9310 C   0  0  0  0  0  0  0  0  0  0  0  0
   42.3960   35.0730   39.4960 O   0  0  0  0  0  0  0  0  0  0  0  0
   43.2950   32.8330   39.4130 C   0  0  0  0  0  0  0  0  0  0  0  0
   44.0250   32.7360   38.0610 C   0  0  0  0  0  0  0  0  0  0  0  0
   42.5780   32.4640   38.1500 C   0  0  0  0  0  0  0  0  0  0  0  0
   48.9358   32.6793   41.9292 H   0  0  0  0  0  0  0  0  0  0  0  0
   47.6232   31.1236   40.7242 H   0  0  0  0  0  0  0  0  0  0  0  0
   46.5217   32.4236   40.2324 H   0  0  0  0  0  0  0  0  0  0  0  0
   49.5888   32.5841   39.9314 H   0  0  0  0  0  0  0  0  0  0  0  0
   48.5267   32.0261   38.6224 H   0  0  0  0  0  0  0  0  0  0  0  0
   49.0191   34.4860   38.5066 H   0  0  0  0  0  0  0  0  0  0  0  0
   47.2421   34.1091   38.7372 H   0  0  0  0  0  0  0  0  0  0  0  0
   49.2057   35.3738   40.5774 H   0  0  0  0  0  0  0  0  0  0  0  0
   47.4515   35.7840   40.1179 H   0  0  0  0  0  0  0  0  0  0  0  0
   48.3345   34.8911   42.4041 H   0  0  0  0  0  0  0  0  0  0  0  0
   44.6793   30.3435   43.9920 H   0  0  0  0  0  0  0  0  0  0  0  0
   45.8747   31.1869   41.9603 H   0  0  0  0  0  0  0  0  0  0  0  0
   47.2329   32.8043   46.3194 H   0  0  0  0  0  0  0  0  0  0  0  0
   46.5592   35.9002   43.8282 H   0  0  0  0  0  0  0  0  0  0  0  0
   44.0704   36.4077   43.9476 H   0  0  0  0  0  0  0  0  0  0  0  0
   42.6303   35.6111   42.1394 H   0  0  0  0  0  0  0  0  0  0  0  0
   43.3304   32.3762   40.4130 H   0  0  0  0  0  0  0  0  0  0  0  0
   44.7300   31.9128   37.8731 H   0  0  0  0  0  0  0  0  0  0  0  0
   44.6569   33.4110   37.4652 H   0  0  0  0  0  0  0  0  0  0  0  0
   41.8637   33.1717   37.7041 H   0  0  0  0  0  0  0  0  0  0  0  0
   41.9402   31.6184   37.8531 H   0  0  0  0  0  0  0  0  0  0  0  0
  1  9  1  0
  2  1  1  0
  3  2  1  0
  4  3  1  0
  4  5  1  0
  5  6  1  0
  6  1  1  0
  6 13  1  0
  7 12  2  0
  8  9  2  0
  8  7  1  0
  9 10  1  0
 10 11  2  0
 12 11  1  0
 13 14  2  0
 14 15  1  0
 16 15  2  0
 17 16  1  0
 18 17  2  0
 18 13  1  0
 19 17  1  0
 20 19  2  0
 21 19  1  0
 22 23  1  0
 22 21  1  0
 23 21  1  0
  1 24  1  1
  2 25  1  0
  2 26  1  0
  3 27  1  0
  3 28  1  0
  4 29  1  0
  4 30  1  0
  5 31  1  0
  5 32  1  0
  6 33  1  1
  7 34  1  0
  8 35  1  0
 11 36  1  0
 14 37  1  0
 15 38  1  0
 16 39  1  0
 21 40  1  0
 22 41  1  0
 22 42  1  0
 23 43  1  0
 23 44  1  0
M  ISO  8  24  13  25  13  26  13  27  13  28  13  29  13  30  13  31  13
M  ISO  8  32  13  33  13  34  14  35  14  36  14  37  14  38  14  39  14
M  ISO  5  40  13  41  13  42  13  43  13  44  13
M  END
>  <minimizedAffinity>  (1) 
-5.03426218

>  <minimizedRMSD>  (1) 
0.27984181

$$$$
