
     RDKit          3D

 27 29  0  0  0  0  0  0  0  0999 V2000
   46.5710   34.6880   42.1270 C   0  0  0  0  0  0  0  0  0  0  0  0
   47.9250   34.9980   42.1160 C   0  0  0  0  0  0  0  0  0  0  0  0
   48.6690   34.8260   40.9660 C   0  0  0  0  0  0  0  0  0  0  0  0
   48.0250   34.3440   39.8520 C   0  0  0  0  0  0  0  0  0  0  0  0
   46.6880   34.0240   39.8160 C   0  0  0  0  0  0  0  0  0  0  0  0
   45.9740   34.2160   41.0110 C   0  0  0  0  0  0  0  0  0  0  0  0
   44.4460   36.1530   44.8980 C   0  0  0  0  0  0  0  0  0  0  0  0
   45.0750   36.0310   43.6400 C   0  0  0  0  0  0  0  0  0  0  0  0
   45.8750   34.9090   43.3900 C   0  0  0  0  0  0  0  0  0  0  0  0
   45.9950   34.0020   44.3790 N   0  0  0  0  0  0  0  0  0  0  0  0
   45.3940   34.1150   45.5830 C   0  0  0  0  0  0  0  0  0  0  0  0
   44.6120   35.2060   45.8370 N   0  0  0  0  0  0  0  0  0  0  0  0
   44.5520   33.9280   41.1490 C   0  0  0  0  0  0  0  0  0  0  0  0
   43.4850   34.6490   40.6530 C   0  0  0  0  0  0  0  0  0  0  0  0
   42.2900   34.0340   41.0080 C   0  0  0  0  0  0  0  0  0  0  0  0
   42.6700   32.9460   41.7160 N   0  0  0  0  0  0  0  0  0  0  0  0
   43.9880   32.8890   41.7960 N   0  0  0  0  0  0  0  0  0  0  0  0
   48.4064   35.3821   43.0274 H   0  0  0  0  0  0  0  0  0  0  0  0
   49.7420   35.0669   40.9422 H   0  0  0  0  0  0  0  0  0  0  0  0
   48.6144   34.2058   38.9336 H   0  0  0  0  0  0  0  0  0  0  0  0
   46.2056   33.6402   38.9050 H   0  0  0  0  0  0  0  0  0  0  0  0
   43.8158   37.0291   45.1110 H   0  0  0  0  0  0  0  0  0  0  0  0
   44.9391   36.8040   42.8693 H   0  0  0  0  0  0  0  0  0  0  0  0
   45.5324   33.3383   46.3496 H   0  0  0  0  0  0  0  0  0  0  0  0
   43.5679   35.5740   40.0636 H   0  0  0  0  0  0  0  0  0  0  0  0
   41.2669   34.3587   40.7675 H   0  0  0  0  0  0  0  0  0  0  0  0
   42.0246   32.2601   42.1331 H   0  0  0  0  0  0  0  0  0  0  0  0
  1  9  1  0
  2  1  2  0
  3  2  1  0
  4  3  2  0
  5  4  1  0
  5  6  2  0
  6 13  1  0
  6  1  1  0
  7 12  2  0
  8  7  1  0
  9  8  2  0
  9 10  1  0
 10 11  2  0
 11 12  1  0
 13 17  2  0
 14 15  2  0
 14 13  1  0
 15 16  1  0
 16 17  1  0
  2 18  1  0
  3 19  1  0
  4 20  1  0
  5 21  1  0
  7 22  1  0
  8 23  1  0
 11 24  1  0
 14 25  1  0
 15 26  1  0
 16 27  1  0
M  ISO  8  18  14  19  14  20  14  21  14  22  14  23  14  24  14  25  14
M  ISO  2  26  14  27   9
M  END
>  <minimizedAffinity>  (1) 
-5.67440033

>  <minimizedRMSD>  (1) 
0.6941939

$$$$
