
     RDKit          3D

 27 29  0  0  0  0  0  0  0  0999 V2000
   46.6360   34.7650   42.0510 C   0  0  0  0  0  0  0  0  0  0  0  0
   47.9380   35.1890   42.0070 C   0  0  0  0  0  0  0  0  0  0  0  0
   48.6900   35.0340   40.8630 C   0  0  0  0  0  0  0  0  0  0  0  0
   48.1030   34.4440   39.7710 C   0  0  0  0  0  0  0  0  0  0  0  0
   46.8050   34.0000   39.7580 C   0  0  0  0  0  0  0  0  0  0  0  0
   46.0920   34.1870   40.9530 C   0  0  0  0  0  0  0  0  0  0  0  0
   44.4500   36.1610   44.8030 C   0  0  0  0  0  0  0  0  0  0  0  0
   45.0980   36.0740   43.5480 C   0  0  0  0  0  0  0  0  0  0  0  0
   45.9180   34.9690   43.2970 C   0  0  0  0  0  0  0  0  0  0  0  0
   46.0330   34.0540   44.2840 N   0  0  0  0  0  0  0  0  0  0  0  0
   45.4160   34.1390   45.4780 C   0  0  0  0  0  0  0  0  0  0  0  0
   44.6160   35.2040   45.7410 N   0  0  0  0  0  0  0  0  0  0  0  0
   44.7250   33.7450   41.0020 C   0  0  0  0  0  0  0  0  0  0  0  0
   43.5760   34.3980   40.5990 C   0  0  0  0  0  0  0  0  0  0  0  0
   42.3610   33.7760   40.7420 C   0  0  0  0  0  0  0  0  0  0  0  0
   42.3970   32.4810   41.3080 C   0  0  0  0  0  0  0  0  0  0  0  0
   44.1790   32.1960   41.6180 S   0  0  0  0  0  0  0  0  0  0  0  0
   48.3878   35.6582   42.8945 H   0  0  0  0  0  0  0  0  0  0  0  0
   49.7352   35.3747   40.8254 H   0  0  0  0  0  0  0  0  0  0  0  0
   48.7051   34.3209   38.8587 H   0  0  0  0  0  0  0  0  0  0  0  0
   46.3537   33.5297   38.8719 H   0  0  0  0  0  0  0  0  0  0  0  0
   43.8004   37.0223   45.0179 H   0  0  0  0  0  0  0  0  0  0  0  0
   44.9601   36.8569   42.7877 H   0  0  0  0  0  0  0  0  0  0  0  0
   45.5589   33.3525   46.2336 H   0  0  0  0  0  0  0  0  0  0  0  0
   43.6346   35.4080   40.1671 H   0  0  0  0  0  0  0  0  0  0  0  0
   41.4191   34.2546   40.4357 H   0  0  0  0  0  0  0  0  0  0  0  0
   41.5541   31.8048   41.5135 H   0  0  0  0  0  0  0  0  0  0  0  0
  1  9  1  0
  2  1  2  0
  3  2  1  0
  4  3  2  0
  5  4  1  0
  5  6  2  0
  6 13  1  0
  6  1  1  0
  7 12  2  0
  8  7  1  0
  9  8  2  0
  9 10  1  0
 10 11  2  0
 11 12  1  0
 13 17  1  0
 14 15  1  0
 14 13  2  0
 15 16  2  0
 16 17  1  0
  2 18  1  0
  3 19  1  0
  4 20  1  0
  5 21  1  0
  7 22  1  0
  8 23  1  0
 11 24  1  0
 14 25  1  0
 15 26  1  0
 16 27  1  0
M  ISO  8  18  14  19  14  20  14  21  14  22  14  23  14  24  14  25  14
M  ISO  2  26  14  27  14
M  END
>  <minimizedAffinity>  (1) 
-5.53583813

>  <minimizedRMSD>  (1) 
0.577818096

$$$$
