
     RDKit          3D

 27 29  0  0  0  0  0  0  0  0999 V2000
   46.4560   34.6550   42.1360 C   0  0  0  0  0  0  0  0  0  0  0  0
   47.7620   35.0810   41.9960 C   0  0  0  0  0  0  0  0  0  0  0  0
   48.4440   34.8950   40.8130 C   0  0  0  0  0  0  0  0  0  0  0  0
   47.7870   34.2710   39.7700 C   0  0  0  0  0  0  0  0  0  0  0  0
   46.4830   33.8240   39.8500 C   0  0  0  0  0  0  0  0  0  0  0  0
   45.8580   34.0470   41.0780 C   0  0  0  0  0  0  0  0  0  0  0  0
   44.4370   36.1220   44.9710 C   0  0  0  0  0  0  0  0  0  0  0  0
   45.0230   35.9910   43.6900 C   0  0  0  0  0  0  0  0  0  0  0  0
   45.8080   34.8880   43.4080 C   0  0  0  0  0  0  0  0  0  0  0  0
   45.9730   33.9710   44.4090 N   0  0  0  0  0  0  0  0  0  0  0  0
   45.4160   34.0940   45.6290 C   0  0  0  0  0  0  0  0  0  0  0  0
   44.6490   35.1650   45.9120 N   0  0  0  0  0  0  0  0  0  0  0  0
   44.4680   33.5930   41.2240 C   0  0  0  0  0  0  0  0  0  0  0  0
   43.9280   32.4540   41.8250 C   0  0  0  0  0  0  0  0  0  0  0  0
   42.5900   32.5260   41.6760 N   0  0  0  0  0  0  0  0  0  0  0  0
   42.2610   33.6570   41.0080 C   0  0  0  0  0  0  0  0  0  0  0  0
   43.4260   34.2960   40.7410 N   0  0  0  0  0  0  0  0  0  0  0  0
   48.2648   35.5755   42.8402 H   0  0  0  0  0  0  0  0  0  0  0  0
   49.4844   35.2345   40.7020 H   0  0  0  0  0  0  0  0  0  0  0  0
   48.3316   34.1224   38.8259 H   0  0  0  0  0  0  0  0  0  0  0  0
   45.9749   33.3293   39.0091 H   0  0  0  0  0  0  0  0  0  0  0  0
   43.8115   36.9962   45.2046 H   0  0  0  0  0  0  0  0  0  0  0  0
   44.8553   36.7616   42.9232 H   0  0  0  0  0  0  0  0  0  0  0  0
   45.5869   33.3214   46.3931 H   0  0  0  0  0  0  0  0  0  0  0  0
   44.4882   31.6503   42.3252 H   0  0  0  0  0  0  0  0  0  0  0  0
   41.9180   31.8250   42.0192 H   0  0  0  0  0  0  0  0  0  0  0  0
   41.2488   33.9909   40.7360 H   0  0  0  0  0  0  0  0  0  0  0  0
  1  9  1  0
  2  1  2  0
  3  2  1  0
  4  5  1  0
  4  3  2  0
  5  6  2  0
  6 13  1  0
  6  1  1  0
  7 12  2  0
  8  7  1  0
  9  8  2  0
  9 10  1  0
 10 11  2  0
 11 12  1  0
 13 14  2  0
 15 14  1  0
 16 15  1  0
 17 16  2  0
 17 13  1  0
  2 18  1  0
  3 19  1  0
  4 20  1  0
  5 21  1  0
  7 22  1  0
  8 23  1  0
 11 24  1  0
 14 25  1  0
 15 26  1  0
 16 27  1  0
M  ISO  8  18  14  19  14  20  14  21  14  22  14  23  14  24  14  25  14
M  ISO  2  26   9  27  14
M  END
>  <minimizedAffinity>  (1) 
-5.45698309

>  <minimizedRMSD>  (1) 
0.659778774

$$$$
