
     RDKit          3D

 32 34  0  0  0  0  0  0  0  0999 V2000
   46.8520   34.8310   42.0190 C   0  0  0  0  0  0  0  0  0  0  0  0
   48.0740   35.4700   41.9900 C   0  0  0  0  0  0  0  0  0  0  0  0
   48.8720   35.4180   40.8760 C   0  0  0  0  0  0  0  0  0  0  0  0
   48.4220   34.7110   39.7870 C   0  0  0  0  0  0  0  0  0  0  0  0
   47.2160   34.0550   39.7560 C   0  0  0  0  0  0  0  0  0  0  0  0
   46.4470   34.1470   40.9270 C   0  0  0  0  0  0  0  0  0  0  0  0
   44.4710   35.9720   44.7250 C   0  0  0  0  0  0  0  0  0  0  0  0
   45.1680   35.9600   43.4980 C   0  0  0  0  0  0  0  0  0  0  0  0
   46.0820   34.9440   43.2410 C   0  0  0  0  0  0  0  0  0  0  0  0
   46.2410   34.0100   44.2170 N   0  0  0  0  0  0  0  0  0  0  0  0
   45.5730   34.0240   45.3900 C   0  0  0  0  0  0  0  0  0  0  0  0
   44.6810   35.0100   45.6490 N   0  0  0  0  0  0  0  0  0  0  0  0
   45.1900   33.4780   40.9280 N   0  0  0  0  0  0  0  0  0  0  0  0
   44.7860   32.2120   41.5080 C   0  0  0  0  0  0  0  0  0  0  0  0
   43.3540   32.3250   41.9290 C   0  0  0  0  0  0  0  0  0  0  0  0
   42.9990   33.7350   41.5100 C   0  0  0  0  0  0  0  0  0  0  0  0
   43.9510   33.9240   40.3210 C   0  0  0  0  0  0  0  0  0  0  0  0
   48.4136   36.0298   42.8739 H   0  0  0  0  0  0  0  0  0  0  0  0
   49.8461   35.9285   40.8547 H   0  0  0  0  0  0  0  0  0  0  0  0
   49.0615   34.6683   38.8930 H   0  0  0  0  0  0  0  0  0  0  0  0
   46.8752   33.4949   38.8727 H   0  0  0  0  0  0  0  0  0  0  0  0
   43.7478   36.7748   44.9312 H   0  0  0  0  0  0  0  0  0  0  0  0
   44.9898   36.7477   42.7512 H   0  0  0  0  0  0  0  0  0  0  0  0
   45.7529   33.2351   46.1352 H   0  0  0  0  0  0  0  0  0  0  0  0
   44.8926   31.4102   40.7625 H   0  0  0  0  0  0  0  0  0  0  0  0
   45.4188   31.9727   42.3753 H   0  0  0  0  0  0  0  0  0  0  0  0
   42.7272   31.5860   41.4084 H   0  0  0  0  0  0  0  0  0  0  0  0
   43.1958   32.1333   43.0006 H   0  0  0  0  0  0  0  0  0  0  0  0
   41.9457   33.8140   41.2029 H   0  0  0  0  0  0  0  0  0  0  0  0
   43.1040   34.4885   42.3045 H   0  0  0  0  0  0  0  0  0  0  0  0
   44.0058   34.9757   40.0032 H   0  0  0  0  0  0  0  0  0  0  0  0
   43.6627   33.3908   39.4031 H   0  0  0  0  0  0  0  0  0  0  0  0
  1  9  1  0
  2  1  2  0
  3  2  1  0
  4  3  2  0
  5  4  1  0
  5  6  2  0
  6 13  1  0
  6  1  1  0
  7 12  2  0
  8  7  1  0
  9  8  2  0
  9 10  1  0
 10 11  2  0
 11 12  1  0
 13 14  1  0
 14 15  1  0
 16 15  1  0
 17 13  1  0
 17 16  1  0
  2 18  1  0
  3 19  1  0
  4 20  1  0
  5 21  1  0
  7 22  1  0
  8 23  1  0
 11 24  1  0
 14 25  1  0
 14 26  1  0
 15 27  1  0
 15 28  1  0
 16 29  1  0
 16 30  1  0
 17 31  1  0
 17 32  1  0
M  ISO  8  18  14  19  14  20  14  21  14  22  14  23  14  24  14  25  13
M  ISO  7  26  13  27  13  28  13  29  13  30  13  31  13  32  13
M  END
>  <minimizedAffinity>  (1) 
-5.45459604

>  <minimizedRMSD>  (1) 
0.274725825

$$$$
