
     RDKit          3D

 26 27  0  0  0  0  0  0  0  0999 V2000
   44.6110   33.0630   41.2830 Br  0  0  0  0  0  0  0  0  0  0  0  0
   46.2850   33.9430   41.0450 C   0  0  0  0  0  0  0  0  0  0  0  0
   46.8200   34.7240   42.0410 C   0  0  0  0  0  0  0  0  0  0  0  0
   48.0380   35.3640   41.8690 C   0  0  0  0  0  0  0  0  0  0  0  0
   48.7030   35.2090   40.6950 C   0  0  0  0  0  0  0  0  0  0  0  0
   48.1350   34.4140   39.7100 C   0  0  0  0  0  0  0  0  0  0  0  0
   46.9320   33.7710   39.8550 C   0  0  0  0  0  0  0  0  0  0  0  0
   45.5280   34.0800   45.4050 C   0  0  0  0  0  0  0  0  0  0  0  0
   44.6440   35.1390   45.6390 C   0  0  0  0  0  0  0  0  0  0  0  0
   44.4990   36.0800   44.6200 C   0  0  0  0  0  0  0  0  0  0  0  0
   45.2120   35.9190   43.4750 N   0  0  0  0  0  0  0  0  0  0  0  0
   46.0700   34.8630   43.2880 C   0  0  0  0  0  0  0  0  0  0  0  0
   46.2110   33.9580   44.2650 N   0  0  0  0  0  0  0  0  0  0  0  0
   46.5920   33.0590   38.7650 O   0  0  0  0  0  0  0  0  0  0  0  0
   47.0600   32.2550   36.2790 O   0  0  0  0  0  0  0  0  0  0  0  0
   46.6190   33.4490   37.1350 P   0  0  0  0  0  0  0  0  0  0  0  0
   47.6650   34.7090   36.7320 O   0  0  0  0  0  0  0  0  0  0  0  0
   45.0470   33.8680   36.6400 O   0  0  0  0  0  0  0  0  0  0  0  0
   48.4592   35.9877   42.6712 H   0  0  0  0  0  0  0  0  0  0  0  0
   49.6715   35.7033   40.5286 H   0  0  0  0  0  0  0  0  0  0  0  0
   48.6787   34.2928   38.7615 H   0  0  0  0  0  0  0  0  0  0  0  0
   45.6649   33.3206   46.1890 H   0  0  0  0  0  0  0  0  0  0  0  0
   44.0883   35.2255   46.5844 H   0  0  0  0  0  0  0  0  0  0  0  0
   43.8198   36.9368   44.7412 H   0  0  0  0  0  0  0  0  0  0  0  0
   48.0121   35.1272   37.5595 H   0  0  0  0  0  0  0  0  0  0  0  0
   44.4794   34.0193   37.4369 H   0  0  0  0  0  0  0  0  0  0  0  0
  2  1  1  0
  2  3  2  0
  3 12  1  0
  4  3  1  0
  5  4  2  0
  6  7  2  0
  6  5  1  0
  7  2  1  0
  8  9  2  0
 10  9  1  0
 11 10  2  0
 12 11  1  0
 12 13  2  0
 13  8  1  0
 14  7  1  0
 15 16  2  0
 16 14  1  0
 17 16  1  0
 18 16  1  0
  4 19  1  0
  5 20  1  0
  6 21  1  0
  8 22  1  0
  9 23  1  0
 10 24  1  0
 17 25  1  0
 18 26  1  0
M  ISO  8  19  14  20  14  21  14  22  14  23  14  24  14  25   3  26   3
M  END
>  <minimizedAffinity>  (1) 
-6.08597326

>  <minimizedRMSD>  (1) 
0.828630328

$$$$
