
     RDKit          3D

 27 29  0  0  0  0  0  0  0  0999 V2000
   46.6890   34.7740   42.0160 C   0  0  0  0  0  0  0  0  0  0  0  0
   47.9560   35.3180   41.9430 C   0  0  0  0  0  0  0  0  0  0  0  0
   48.7100   35.2030   40.8040 C   0  0  0  0  0  0  0  0  0  0  0  0
   48.1760   34.5290   39.7310 C   0  0  0  0  0  0  0  0  0  0  0  0
   46.9200   33.9660   39.7460 C   0  0  0  0  0  0  0  0  0  0  0  0
   46.1820   34.1100   40.9370 C   0  0  0  0  0  0  0  0  0  0  0  0
   44.4660   36.0700   44.7830 C   0  0  0  0  0  0  0  0  0  0  0  0
   45.1190   36.0090   43.5340 C   0  0  0  0  0  0  0  0  0  0  0  0
   45.9600   34.9460   43.2660 C   0  0  0  0  0  0  0  0  0  0  0  0
   46.1110   34.0050   44.2400 N   0  0  0  0  0  0  0  0  0  0  0  0
   45.4810   34.0720   45.4330 C   0  0  0  0  0  0  0  0  0  0  0  0
   44.6560   35.1030   45.7100 N   0  0  0  0  0  0  0  0  0  0  0  0
   44.8150   33.5320   41.0370 C   0  0  0  0  0  0  0  0  0  0  0  0
   43.7380   34.4380   40.4180 C   0  0  0  0  0  0  0  0  0  0  0  0
   44.0580   33.0650   39.8780 C   0  0  0  0  0  0  0  0  0  0  0  0
   48.3668   35.8521   42.8125 H   0  0  0  0  0  0  0  0  0  0  0  0
   49.7182   35.6395   40.7497 H   0  0  0  0  0  0  0  0  0  0  0  0
   48.7813   34.4353   38.8173 H   0  0  0  0  0  0  0  0  0  0  0  0
   46.5142   33.4320   38.8741 H   0  0  0  0  0  0  0  0  0  0  0  0
   43.7951   36.9128   45.0056 H   0  0  0  0  0  0  0  0  0  0  0  0
   44.9607   36.7973   42.7833 H   0  0  0  0  0  0  0  0  0  0  0  0
   45.6413   33.2825   46.1820 H   0  0  0  0  0  0  0  0  0  0  0  0
   45.0415   33.0346   41.9916 H   0  0  0  0  0  0  0  0  0  0  0  0
   42.7920   34.6217   40.9484 H   0  0  0  0  0  0  0  0  0  0  0  0
   43.6977   35.4601   40.0134 H   0  0  0  0  0  0  0  0  0  0  0  0
   43.3286   32.2504   39.9976 H   0  0  0  0  0  0  0  0  0  0  0  0
   44.3390   32.6805   38.8864 H   0  0  0  0  0  0  0  0  0  0  0  0
  1  9  1  0
  2  1  2  0
  3  2  1  0
  4  5  1  0
  4  3  2  0
  5  6  2  0
  6 13  1  0
  6  1  1  0
  7 12  2  0
  8  7  1  0
  9  8  2  0
  9 10  1  0
 10 11  2  0
 11 12  1  0
 14 13  1  0
 15 14  1  0
 15 13  1  0
  2 16  1  0
  3 17  1  0
  4 18  1  0
  5 19  1  0
  7 20  1  0
  8 21  1  0
 11 22  1  0
 13 23  1  0
 14 24  1  0
 14 25  1  0
 15 26  1  0
 15 27  1  0
M  ISO  8  16  14  17  14  18  14  19  14  20  14  21  14  22  14  23  13
M  ISO  4  24  13  25  13  26  13  27  13
M  END
>  <minimizedAffinity>  (1) 
-5.27890491

>  <minimizedRMSD>  (1) 
0.156100556

$$$$
