
     RDKit          3D

 26 27  0  0  0  0  0  0  0  0999 V2000
   46.6820   34.7430   41.9940 C   0  0  0  0  0  0  0  0  0  0  0  0
   47.9360   35.3280   41.9230 C   0  0  0  0  0  0  0  0  0  0  0  0
   48.6830   35.2000   40.7640 C   0  0  0  0  0  0  0  0  0  0  0  0
   48.1390   34.4860   39.7120 C   0  0  0  0  0  0  0  0  0  0  0  0
   46.9030   33.8930   39.7390 C   0  0  0  0  0  0  0  0  0  0  0  0
   46.1850   34.0500   40.9350 C   0  0  0  0  0  0  0  0  0  0  0  0
   44.4690   36.0300   44.7850 C   0  0  0  0  0  0  0  0  0  0  0  0
   45.1110   35.9610   43.5350 C   0  0  0  0  0  0  0  0  0  0  0  0
   45.9640   34.9110   43.2500 C   0  0  0  0  0  0  0  0  0  0  0  0
   46.1410   33.9720   44.2260 N   0  0  0  0  0  0  0  0  0  0  0  0
   45.5190   34.0460   45.4290 C   0  0  0  0  0  0  0  0  0  0  0  0
   44.6810   35.0790   45.7100 N   0  0  0  0  0  0  0  0  0  0  0  0
   44.8340   33.4280   41.0220 C   0  0  0  0  0  0  0  0  0  0  0  0
   43.7680   34.2570   40.3420 C   0  0  0  0  0  0  0  0  0  0  0  0
   48.3350   35.8897   42.7805 H   0  0  0  0  0  0  0  0  0  0  0  0
   49.6817   35.6538   40.6824 H   0  0  0  0  0  0  0  0  0  0  0  0
   48.7367   34.3874   38.7939 H   0  0  0  0  0  0  0  0  0  0  0  0
   46.5014   33.3325   38.8819 H   0  0  0  0  0  0  0  0  0  0  0  0
   43.7901   36.8668   45.0061 H   0  0  0  0  0  0  0  0  0  0  0  0
   44.9339   36.7440   42.7830 H   0  0  0  0  0  0  0  0  0  0  0  0
   45.6939   33.2644   46.1830 H   0  0  0  0  0  0  0  0  0  0  0  0
   44.8701   32.4385   40.5428 H   0  0  0  0  0  0  0  0  0  0  0  0
   44.5693   33.3532   42.0871 H   0  0  0  0  0  0  0  0  0  0  0  0
   43.1413   34.7444   41.1034 H   0  0  0  0  0  0  0  0  0  0  0  0
   44.2449   35.0239   39.7139 H   0  0  0  0  0  0  0  0  0  0  0  0
   43.1422   33.6059   39.7139 H   0  0  0  0  0  0  0  0  0  0  0  0
  1  9  1  0
  2  1  2  0
  3  2  1  0
  4  5  1  0
  4  3  2  0
  5  6  2  0
  6 13  1  0
  6  1  1  0
  7 12  2  0
  8  7  1  0
  9  8  2  0
  9 10  1  0
 10 11  2  0
 11 12  1  0
 14 13  1  0
  2 15  1  0
  3 16  1  0
  4 17  1  0
  5 18  1  0
  7 19  1  0
  8 20  1  0
 11 21  1  0
 13 22  1  0
 13 23  1  0
 14 24  1  0
 14 25  1  0
 14 26  1  0
M  ISO  8  15  14  16  14  17  14  18  14  19  14  20  14  21  14  22   8
M  ISO  4  23   8  24   8  25   8  26   8
M  END
>  <minimizedAffinity>  (1) 
-5.13121653

>  <minimizedRMSD>  (1) 
0.43808943

$$$$
