
     RDKit          3D

 22 23  0  0  0  0  0  0  0  0999 V2000
   46.7210   34.7260   41.9950 C   0  0  0  0  0  0  0  0  0  0  0  0
   47.9230   35.4090   41.8760 C   0  0  0  0  0  0  0  0  0  0  0  0
   48.6800   35.3140   40.7340 C   0  0  0  0  0  0  0  0  0  0  0  0
   48.2050   34.5170   39.7080 C   0  0  0  0  0  0  0  0  0  0  0  0
   47.0240   33.8190   39.7700 C   0  0  0  0  0  0  0  0  0  0  0  0
   46.2990   33.9570   40.9610 C   0  0  0  0  0  0  0  0  0  0  0  0
   44.5080   36.0310   44.7660 C   0  0  0  0  0  0  0  0  0  0  0  0
   45.1650   35.9650   43.5220 C   0  0  0  0  0  0  0  0  0  0  0  0
   46.0000   34.8920   43.2390 C   0  0  0  0  0  0  0  0  0  0  0  0
   46.1410   33.9390   44.2060 N   0  0  0  0  0  0  0  0  0  0  0  0
   45.5080   34.0050   45.4010 C   0  0  0  0  0  0  0  0  0  0  0  0
   44.6920   35.0490   45.6850 N   0  0  0  0  0  0  0  0  0  0  0  0
   45.0740   33.2520   41.0660 N   0  0  0  0  0  0  0  0  0  0  0  0
   48.2748   36.0358   42.7087 H   0  0  0  0  0  0  0  0  0  0  0  0
   49.6334   35.8543   40.6383 H   0  0  0  0  0  0  0  0  0  0  0  0
   48.8072   34.4379   38.7909 H   0  0  0  0  0  0  0  0  0  0  0  0
   46.6700   33.1920   38.9383 H   0  0  0  0  0  0  0  0  0  0  0  0
   43.8452   36.8790   44.9931 H   0  0  0  0  0  0  0  0  0  0  0  0
   45.0172   36.7607   42.7770 H   0  0  0  0  0  0  0  0  0  0  0  0
   45.6567   33.2080   46.1444 H   0  0  0  0  0  0  0  0  0  0  0  0
   44.5094   33.3255   41.9244 H   0  0  0  0  0  0  0  0  0  0  0  0
   44.7483   32.6662   40.2840 H   0  0  0  0  0  0  0  0  0  0  0  0
  1  9  1  0
  2  1  2  0
  3  2  1  0
  4  5  1  0
  4  3  2  0
  5  6  2  0
  6 13  1  0
  6  1  1  0
  7 12  2  0
  8  7  1  0
  9  8  2  0
  9 10  1  0
 10 11  2  0
 11 12  1  0
  2 14  1  0
  3 15  1  0
  4 16  1  0
  5 17  1  0
  7 18  1  0
  8 19  1  0
 11 20  1  0
 13 21  1  0
 13 22  1  0
M  ISO  7  14  14  15  14  16  14  17  14  18  14  19  14  20  14
M  END
>  <minimizedAffinity>  (1) 
-5.03542852

>  <minimizedRMSD>  (1) 
0.0524940342

$$$$
