
     RDKit          3D

 33 35  0  0  0  0  0  0  0  0999 V2000
   46.5750   34.7380   42.0120 C   0  0  0  0  0  0  0  0  0  0  0  0
   47.8860   35.2070   41.9410 C   0  0  0  0  0  0  0  0  0  0  0  0
   48.5930   35.0090   40.7690 C   0  0  0  0  0  0  0  0  0  0  0  0
   48.0060   34.3660   39.7120 C   0  0  0  0  0  0  0  0  0  0  0  0
   46.7280   33.8950   39.7450 C   0  0  0  0  0  0  0  0  0  0  0  0
   46.0280   34.1070   40.9450 C   0  0  0  0  0  0  0  0  0  0  0  0
   44.4970   36.2080   44.7940 C   0  0  0  0  0  0  0  0  0  0  0  0
   45.1260   36.0940   43.5370 C   0  0  0  0  0  0  0  0  0  0  0  0
   45.8770   34.9740   43.2690 C   0  0  0  0  0  0  0  0  0  0  0  0
   45.9710   34.0310   44.2430 N   0  0  0  0  0  0  0  0  0  0  0  0
   45.3700   34.1380   45.4450 C   0  0  0  0  0  0  0  0  0  0  0  0
   44.6200   35.2500   45.7220 N   0  0  0  0  0  0  0  0  0  0  0  0
   43.4060   34.1700   40.7960 C   0  0  0  0  0  0  0  0  0  0  0  0
   43.1770   35.2530   40.2070 O   0  0  0  0  0  0  0  0  0  0  0  0
   44.6930   33.6680   41.1170 N   0  0  0  0  0  0  0  0  0  0  0  0
   42.3110   33.2750   41.2330 C   0  0  0  0  0  0  0  0  0  0  0  0
   41.0340   33.7930   41.2070 C   0  0  0  0  0  0  0  0  0  0  0  0
   39.8740   33.1180   41.5770 C   0  0  0  0  0  0  0  0  0  0  0  0
   40.0480   31.8160   42.0010 C   0  0  0  0  0  0  0  0  0  0  0  0
   41.3470   31.3130   42.0200 C   0  0  0  0  0  0  0  0  0  0  0  0
   42.4270   32.0180   41.6500 N   0  0  0  0  0  0  0  0  0  0  0  0
   48.3470   35.7222   42.7966 H   0  0  0  0  0  0  0  0  0  0  0  0
   49.6291   35.3688   40.6857 H   0  0  0  0  0  0  0  0  0  0  0  0
   48.5938   34.2231   38.7933 H   0  0  0  0  0  0  0  0  0  0  0  0
   46.2725   33.3808   38.8859 H   0  0  0  0  0  0  0  0  0  0  0  0
   43.8939   37.1006   45.0166 H   0  0  0  0  0  0  0  0  0  0  0  0
   45.0176   36.8880   42.7834 H   0  0  0  0  0  0  0  0  0  0  0  0
   45.4808   33.3410   46.1950 H   0  0  0  0  0  0  0  0  0  0  0  0
   44.6443   32.7566   41.5944 H   0  0  0  0  0  0  0  0  0  0  0  0
   40.9214   34.8319   40.8634 H   0  0  0  0  0  0  0  0  0  0  0  0
   38.8823   33.5919   41.5342 H   0  0  0  0  0  0  0  0  0  0  0  0
   39.1926   31.1984   42.3124 H   0  0  0  0  0  0  0  0  0  0  0  0
   41.4960   30.2770   42.3582 H   0  0  0  0  0  0  0  0  0  0  0  0
  1  9  1  0
  2  1  2  0
  3  2  1  0
  4  5  1  0
  4  3  2  0
  5  6  2  0
  6 15  1  0
  6  1  1  0
  7 12  2  0
  8  7  1  0
  9  8  2  0
  9 10  1  0
 10 11  2  0
 11 12  1  0
 13 15  1  0
 13 16  1  0
 14 13  2  0
 16 21  1  0
 17 16  2  0
 17 18  1  0
 18 19  2  0
 19 20  1  0
 21 20  2  0
  2 22  1  0
  3 23  1  0
  4 24  1  0
  5 25  1  0
  7 26  1  0
  8 27  1  0
 11 28  1  0
 15 29  1  0
 17 30  1  0
 18 31  1  0
 19 32  1  0
 20 33  1  0
M  ISO  8  22  14  23  14  24  14  25  14  26  14  27  14  28  14  30  14
M  ISO  3  31  14  32  14  33  14
M  END
>  <minimizedAffinity>  (1) 
-6.38107109

>  <minimizedRMSD>  (1) 
0.95449239

$$$$
