
     RDKit          3D

 31 33  0  0  0  0  0  0  0  0999 V2000
   46.5610   34.7280   42.0050 C   0  0  0  0  0  0  0  0  0  0  0  0
   47.8770   35.1860   41.9210 C   0  0  0  0  0  0  0  0  0  0  0  0
   48.5810   34.9850   40.7550 C   0  0  0  0  0  0  0  0  0  0  0  0
   47.9780   34.3350   39.6900 C   0  0  0  0  0  0  0  0  0  0  0  0
   46.6970   33.8750   39.7370 C   0  0  0  0  0  0  0  0  0  0  0  0
   46.0090   34.0970   40.9360 C   0  0  0  0  0  0  0  0  0  0  0  0
   44.4970   36.2170   44.7870 C   0  0  0  0  0  0  0  0  0  0  0  0
   45.1280   36.0800   43.5430 C   0  0  0  0  0  0  0  0  0  0  0  0
   45.8730   34.9670   43.2500 C   0  0  0  0  0  0  0  0  0  0  0  0
   45.9610   34.0140   44.2350 N   0  0  0  0  0  0  0  0  0  0  0  0
   45.3520   34.1470   45.4350 C   0  0  0  0  0  0  0  0  0  0  0  0
   44.6160   35.2540   45.7120 N   0  0  0  0  0  0  0  0  0  0  0  0
   43.3890   34.1770   40.7890 C   0  0  0  0  0  0  0  0  0  0  0  0
   43.1450   35.2420   40.2180 O   0  0  0  0  0  0  0  0  0  0  0  0
   44.6700   33.6680   41.1190 N   0  0  0  0  0  0  0  0  0  0  0  0
   42.2440   33.3010   41.1950 C   0  0  0  0  0  0  0  0  0  0  0  0
   42.1400   32.0720   41.6030 C   0  0  0  0  0  0  0  0  0  0  0  0
   40.9260   31.5180   41.9120 C   0  0  0  0  0  0  0  0  0  0  0  0
   39.8110   32.4170   41.7410 C   0  0  0  0  0  0  0  0  0  0  0  0
   40.6550   33.9860   41.1430 S   0  0  0  0  0  0  0  0  0  0  0  0
   48.3446   35.6999   42.7738 H   0  0  0  0  0  0  0  0  0  0  0  0
   49.6188   35.3393   40.6691 H   0  0  0  0  0  0  0  0  0  0  0  0
   48.5584   34.1842   38.7678 H   0  0  0  0  0  0  0  0  0  0  0  0
   46.2308   33.3599   38.8841 H   0  0  0  0  0  0  0  0  0  0  0  0
   43.9028   37.1167   45.0048 H   0  0  0  0  0  0  0  0  0  0  0  0
   45.0241   36.8764   42.7914 H   0  0  0  0  0  0  0  0  0  0  0  0
   45.4534   33.3542   46.1908 H   0  0  0  0  0  0  0  0  0  0  0  0
   44.6147   32.7656   41.6125 H   0  0  0  0  0  0  0  0  0  0  0  0
   43.0494   31.4612   41.7028 H   0  0  0  0  0  0  0  0  0  0  0  0
   40.8116   30.4806   42.2594 H   0  0  0  0  0  0  0  0  0  0  0  0
   38.7409   32.2317   41.9158 H   0  0  0  0  0  0  0  0  0  0  0  0
  1  9  1  0
  2  1  2  0
  3  2  1  0
  4  5  1  0
  4  3  2  0
  5  6  2  0
  6 15  1  0
  6  1  1  0
  7 12  2  0
  8  7  1  0
  9  8  2  0
  9 10  1  0
 10 11  2  0
 11 12  1  0
 13 15  1  0
 13 16  1  0
 14 13  2  0
 16 17  2  0
 17 18  1  0
 19 18  2  0
 20 16  1  0
 20 19  1  0
  2 21  1  0
  3 22  1  0
  4 23  1  0
  5 24  1  0
  7 25  1  0
  8 26  1  0
 11 27  1  0
 15 28  1  0
 17 29  1  0
 18 30  1  0
 19 31  1  0
M  ISO  8  21  14  22  14  23  14  24  14  25  14  26  14  27  14  29  14
M  ISO  2  30  14  31  14
M  END
>  <minimizedAffinity>  (1) 
-6.0783267

>  <minimizedRMSD>  (1) 
0.707954168

$$$$
