
     RDKit          3D

 40 43  0  0  0  0  0  0  0  0999 V2000
   46.6280   34.7640   42.0420 C   0  0  0  0  0  0  0  0  0  0  0  0
   47.9340   35.2160   42.0020 C   0  0  0  0  0  0  0  0  0  0  0  0
   48.6680   35.0240   40.8420 C   0  0  0  0  0  0  0  0  0  0  0  0
   48.0940   34.4020   39.7730 C   0  0  0  0  0  0  0  0  0  0  0  0
   46.8070   33.9460   39.7840 C   0  0  0  0  0  0  0  0  0  0  0  0
   46.0700   34.1440   40.9650 C   0  0  0  0  0  0  0  0  0  0  0  0
   44.5190   36.2300   44.8100 C   0  0  0  0  0  0  0  0  0  0  0  0
   45.1720   36.1190   43.5570 C   0  0  0  0  0  0  0  0  0  0  0  0
   45.9130   34.9960   43.2870 C   0  0  0  0  0  0  0  0  0  0  0  0
   45.9680   34.0480   44.2650 N   0  0  0  0  0  0  0  0  0  0  0  0
   45.3470   34.1550   45.4560 C   0  0  0  0  0  0  0  0  0  0  0  0
   44.6130   35.2580   45.7340 N   0  0  0  0  0  0  0  0  0  0  0  0
   43.4700   34.2960   40.9150 C   0  0  0  0  0  0  0  0  0  0  0  0
   43.2560   35.4370   40.5350 O   0  0  0  0  0  0  0  0  0  0  0  0
   44.7350   33.7220   41.1310 N   0  0  0  0  0  0  0  0  0  0  0  0
   42.3540   33.4880   41.1550 O   0  0  0  0  0  0  0  0  0  0  0  0
   41.2550   33.5950   40.3370 C   0  0  0  0  0  0  0  0  0  0  0  0
   40.3670   34.6600   40.3090 C   0  0  0  0  0  0  0  0  0  0  0  0
   39.2840   34.6770   39.4450 C   0  0  0  0  0  0  0  0  0  0  0  0
   39.0470   33.6130   38.5680 C   0  0  0  0  0  0  0  0  0  0  0  0
   37.9900   33.6560   37.7410 N   0  0  0  0  0  0  0  0  0  0  0  0
   37.7510   32.6300   36.8860 C   0  0  0  0  0  0  0  0  0  0  0  0
   38.5870   31.5570   36.8670 C   0  0  0  0  0  0  0  0  0  0  0  0
   39.6650   31.5350   37.7230 C   0  0  0  0  0  0  0  0  0  0  0  0
   39.9490   32.5700   38.6220 C   0  0  0  0  0  0  0  0  0  0  0  0
   41.0320   32.5410   39.4760 C   0  0  0  0  0  0  0  0  0  0  0  0
   48.3813   35.7176   42.8728 H   0  0  0  0  0  0  0  0  0  0  0  0
   49.7098   35.3722   40.7840 H   0  0  0  0  0  0  0  0  0  0  0  0
   48.6940   34.2614   38.8618 H   0  0  0  0  0  0  0  0  0  0  0  0
   46.3667   33.4463   38.9085 H   0  0  0  0  0  0  0  0  0  0  0  0
   43.9240   37.1285   45.0306 H   0  0  0  0  0  0  0  0  0  0  0  0
   45.0860   36.9225   42.8107 H   0  0  0  0  0  0  0  0  0  0  0  0
   45.4361   33.3492   46.1995 H   0  0  0  0  0  0  0  0  0  0  0  0
   44.6712   32.7621   41.4991 H   0  0  0  0  0  0  0  0  0  0  0  0
   40.5261   35.5105   40.9882 H   0  0  0  0  0  0  0  0  0  0  0  0
   38.6009   35.5392   39.4486 H   0  0  0  0  0  0  0  0  0  0  0  0
   36.8838   32.6657   36.2102 H   0  0  0  0  0  0  0  0  0  0  0  0
   38.4044   30.7193   36.1779 H   0  0  0  0  0  0  0  0  0  0  0  0
   40.3350   30.6629   37.6995 H   0  0  0  0  0  0  0  0  0  0  0  0
   41.7159   31.6795   39.4702 H   0  0  0  0  0  0  0  0  0  0  0  0
  1  9  1  0
  2  1  2  0
  3  2  1  0
  4  5  1  0
  4  3  2  0
  5  6  2  0
  6 15  1  0
  6  1  1  0
  7 12  2  0
  8  7  1  0
  9  8  2  0
  9 10  1  0
 10 11  2  0
 11 12  1  0
 13 15  1  0
 13 16  1  0
 14 13  2  0
 17 16  1  0
 18 17  2  0
 19 18  1  0
 20 25  1  0
 20 19  2  0
 21 20  1  0
 22 21  2  0
 23 22  1  0
 23 24  2  0
 24 25  1  0
 25 26  2  0
 26 17  1  0
  2 27  1  0
  3 28  1  0
  4 29  1  0
  5 30  1  0
  7 31  1  0
  8 32  1  0
 11 33  1  0
 15 34  1  0
 18 35  1  0
 19 36  1  0
 22 37  1  0
 23 38  1  0
 24 39  1  0
 26 40  1  0
M  ISO  8  27  14  28  14  29  14  30  14  31  14  32  14  33  14  35  14
M  ISO  5  36  14  37  14  38  14  39  14  40  14
M  END
>  <minimizedAffinity>  (1) 
-6.96114492

>  <minimizedRMSD>  (1) 
1.03639102

$$$$
