
     RDKit          3D

 35 37  0  0  0  0  0  0  0  0999 V2000
   46.6640   34.7820   42.0050 C   0  0  0  0  0  0  0  0  0  0  0  0
   47.9840   35.1850   41.9980 C   0  0  0  0  0  0  0  0  0  0  0  0
   48.7270   34.9990   40.8530 C   0  0  0  0  0  0  0  0  0  0  0  0
   48.1540   34.4270   39.7560 C   0  0  0  0  0  0  0  0  0  0  0  0
   46.8420   34.0140   39.7290 C   0  0  0  0  0  0  0  0  0  0  0  0
   46.0990   34.2100   40.9030 C   0  0  0  0  0  0  0  0  0  0  0  0
   44.5240   36.2320   44.7600 C   0  0  0  0  0  0  0  0  0  0  0  0
   45.1950   36.1240   43.5240 C   0  0  0  0  0  0  0  0  0  0  0  0
   45.9280   35.0030   43.2490 C   0  0  0  0  0  0  0  0  0  0  0  0
   45.9660   34.0340   44.2110 N   0  0  0  0  0  0  0  0  0  0  0  0
   45.3280   34.1260   45.3950 C   0  0  0  0  0  0  0  0  0  0  0  0
   44.5990   35.2320   45.6780 N   0  0  0  0  0  0  0  0  0  0  0  0
   43.5020   34.4580   40.8600 C   0  0  0  0  0  0  0  0  0  0  0  0
   43.3360   35.6300   40.5650 O   0  0  0  0  0  0  0  0  0  0  0  0
   44.7470   33.8280   41.0280 N   0  0  0  0  0  0  0  0  0  0  0  0
   42.3620   33.6740   41.0470 O   0  0  0  0  0  0  0  0  0  0  0  0
   41.2350   33.9300   40.2800 C   0  0  0  0  0  0  0  0  0  0  0  0
   41.3690   33.5460   38.9610 C   0  0  0  0  0  0  0  0  0  0  0  0
   40.3140   33.7410   38.0640 C   0  0  0  0  0  0  0  0  0  0  0  0
   39.1570   34.3290   38.5800 C   0  0  0  0  0  0  0  0  0  0  0  0
   39.0210   34.7110   39.8970 C   0  0  0  0  0  0  0  0  0  0  0  0
   40.0790   34.5110   40.7740 C   0  0  0  0  0  0  0  0  0  0  0  0
   48.4341   35.6459   42.8896 H   0  0  0  0  0  0  0  0  0  0  0  0
   49.7813   35.3116   40.8238 H   0  0  0  0  0  0  0  0  0  0  0  0
   48.7674   34.2898   38.8533 H   0  0  0  0  0  0  0  0  0  0  0  0
   46.3985   33.5540   38.8336 H   0  0  0  0  0  0  0  0  0  0  0  0
   43.9346   37.1336   44.9832 H   0  0  0  0  0  0  0  0  0  0  0  0
   45.1290   36.9368   42.7857 H   0  0  0  0  0  0  0  0  0  0  0  0
   45.3990   33.3079   46.1268 H   0  0  0  0  0  0  0  0  0  0  0  0
   44.6475   32.8432   41.3131 H   0  0  0  0  0  0  0  0  0  0  0  0
   42.3065   33.0862   38.6151 H   0  0  0  0  0  0  0  0  0  0  0  0
   40.3914   33.4466   37.0070 H   0  0  0  0  0  0  0  0  0  0  0  0
   38.3094   34.4960   37.8990 H   0  0  0  0  0  0  0  0  0  0  0  0
   38.0851   35.1691   40.2496 H   0  0  0  0  0  0  0  0  0  0  0  0
   40.0011   34.8057   41.8309 H   0  0  0  0  0  0  0  0  0  0  0  0
  1  9  1  0
  2  1  2  0
  3  2  1  0
  4  3  2  0
  5  4  1  0
  5  6  2  0
  6 15  1  0
  6  1  1  0
  7 12  2  0
  8  7  1  0
  9  8  2  0
  9 10  1  0
 10 11  2  0
 11 12  1  0
 13 15  1  0
 13 16  1  0
 14 13  2  0
 17 22  1  0
 17 16  1  0
 18 17  2  0
 19 20  2  0
 19 18  1  0
 20 21  1  0
 21 22  2  0
  2 23  1  0
  3 24  1  0
  4 25  1  0
  5 26  1  0
  7 27  1  0
  8 28  1  0
 11 29  1  0
 15 30  1  0
 18 31  1  0
 19 32  1  0
 20 33  1  0
 21 34  1  0
 22 35  1  0
M  ISO  8  23  14  24  14  25  14  26  14  27  14  28  14  29  14  31  14
M  ISO  4  32  14  33  14  34  14  35  14
M  END
>  <minimizedAffinity>  (1) 
-6.79296255

>  <minimizedRMSD>  (1) 
0.763470173

$$$$
