
     RDKit          3D

 38 40  0  0  0  0  0  0  0  0999 V2000
   46.6110   34.7600   41.9680 C   0  0  0  0  0  0  0  0  0  0  0  0
   47.9280   35.1780   41.9280 C   0  0  0  0  0  0  0  0  0  0  0  0
   48.6420   34.9840   40.7670 C   0  0  0  0  0  0  0  0  0  0  0  0
   48.0430   34.3860   39.6840 C   0  0  0  0  0  0  0  0  0  0  0  0
   46.7450   33.9660   39.6980 C   0  0  0  0  0  0  0  0  0  0  0  0
   46.0250   34.1680   40.8860 C   0  0  0  0  0  0  0  0  0  0  0  0
   44.5400   36.2400   44.7640 C   0  0  0  0  0  0  0  0  0  0  0  0
   45.1850   36.1370   43.5080 C   0  0  0  0  0  0  0  0  0  0  0  0
   45.8980   34.9920   43.2290 C   0  0  0  0  0  0  0  0  0  0  0  0
   45.9350   34.0360   44.1800 N   0  0  0  0  0  0  0  0  0  0  0  0
   45.3240   34.1280   45.3760 C   0  0  0  0  0  0  0  0  0  0  0  0
   44.6170   35.2410   45.6780 N   0  0  0  0  0  0  0  0  0  0  0  0
   43.4310   34.3900   40.9240 C   0  0  0  0  0  0  0  0  0  0  0  0
   43.2390   35.5620   40.6500 O   0  0  0  0  0  0  0  0  0  0  0  0
   44.6850   33.7710   41.0540 N   0  0  0  0  0  0  0  0  0  0  0  0
   42.3040   33.5890   41.1280 O   0  0  0  0  0  0  0  0  0  0  0  0
   41.2320   33.5400   40.2670 C   0  0  0  0  0  0  0  0  0  0  0  0
   41.7040   33.7980   38.8520 C   0  0  0  0  0  0  0  0  0  0  0  0
   40.4000   33.9510   38.1160 C   0  0  0  0  0  0  0  0  0  0  0  0
   39.4610   34.5560   39.1060 C   0  0  0  0  0  0  0  0  0  0  0  0
   40.2050   34.6250   40.4380 C   0  0  0  0  0  0  0  0  0  0  0  0
   48.3944   35.6543   42.8030 H   0  0  0  0  0  0  0  0  0  0  0  0
   49.6916   35.3075   40.7061 H   0  0  0  0  0  0  0  0  0  0  0  0
   48.6346   34.2400   38.7682 H   0  0  0  0  0  0  0  0  0  0  0  0
   46.2841   33.4912   38.8193 H   0  0  0  0  0  0  0  0  0  0  0  0
   43.9657   37.1472   45.0030 H   0  0  0  0  0  0  0  0  0  0  0  0
   45.1183   36.9521   42.7723 H   0  0  0  0  0  0  0  0  0  0  0  0
   45.3990   33.3048   46.1018 H   0  0  0  0  0  0  0  0  0  0  0  0
   44.6044   32.7856   41.3429 H   0  0  0  0  0  0  0  0  0  0  0  0
   40.7971   32.5513   40.4751 H   0  0  0  0  0  0  0  0  0  0  0  0
   42.3078   34.7155   38.7921 H   0  0  0  0  0  0  0  0  0  0  0  0
   42.3537   33.0077   38.4479 H   0  0  0  0  0  0  0  0  0  0  0  0
   40.5232   34.6133   37.2464 H   0  0  0  0  0  0  0  0  0  0  0  0
   40.0292   32.9892   37.7319 H   0  0  0  0  0  0  0  0  0  0  0  0
   39.1696   35.5662   38.7826 H   0  0  0  0  0  0  0  0  0  0  0  0
   38.5443   33.9549   39.1976 H   0  0  0  0  0  0  0  0  0  0  0  0
   39.5344   34.4133   41.2838 H   0  0  0  0  0  0  0  0  0  0  0  0
   40.6317   35.6139   40.6617 H   0  0  0  0  0  0  0  0  0  0  0  0
  1  9  1  0
  2  1  2  0
  3  2  1  0
  4  5  1  0
  4  3  2  0
  5  6  2  0
  6 15  1  0
  6  1  1  0
  7 12  2  0
  8  7  1  0
  9  8  2  0
  9 10  1  0
 10 11  2  0
 11 12  1  0
 13 15  1  0
 13 16  1  0
 14 13  2  0
 17 21  1  0
 17 16  1  0
 18 17  1  0
 19 18  1  0
 19 20  1  0
 20 21  1  0
  2 22  1  0
  3 23  1  0
  4 24  1  0
  5 25  1  0
  7 26  1  0
  8 27  1  0
 11 28  1  0
 15 29  1  0
 17 30  1  0
 18 31  1  0
 18 32  1  0
 19 33  1  0
 19 34  1  0
 20 35  1  0
 20 36  1  0
 21 37  1  0
 21 38  1  0
M  ISO  8  22  14  23  14  24  14  25  14  26  14  27  14  28  14  30  13
M  ISO  8  31  13  32  13  33  13  34  13  35  13  36  13  37  13  38  13
M  END
>  <minimizedAffinity>  (1) 
-6.37743473

>  <minimizedRMSD>  (1) 
0.706050277

$$$$
