
     RDKit          3D

 32 34  0  0  0  0  0  0  0  0999 V2000
   46.7210   34.7590   41.9080 C   0  0  0  0  0  0  0  0  0  0  0  0
   47.9510   35.4050   41.8370 C   0  0  0  0  0  0  0  0  0  0  0  0
   48.6850   35.2580   40.6710 C   0  0  0  0  0  0  0  0  0  0  0  0
   48.1990   34.4970   39.6350 C   0  0  0  0  0  0  0  0  0  0  0  0
   46.9970   33.8570   39.6900 C   0  0  0  0  0  0  0  0  0  0  0  0
   46.2520   34.0060   40.8710 C   0  0  0  0  0  0  0  0  0  0  0  0
   44.5090   36.0950   44.6620 C   0  0  0  0  0  0  0  0  0  0  0  0
   45.1780   36.0280   43.4110 C   0  0  0  0  0  0  0  0  0  0  0  0
   45.9810   34.9420   43.1560 C   0  0  0  0  0  0  0  0  0  0  0  0
   46.0820   33.9990   44.1260 N   0  0  0  0  0  0  0  0  0  0  0  0
   45.4490   34.0600   45.3110 C   0  0  0  0  0  0  0  0  0  0  0  0
   44.6510   35.1250   45.5830 N   0  0  0  0  0  0  0  0  0  0  0  0
   43.9020   33.0720   40.2500 C   0  0  0  0  0  0  0  0  0  0  0  0
   43.7970   33.3160   39.0580 O   0  0  0  0  0  0  0  0  0  0  0  0
   44.9950   33.4000   41.0740 N   0  0  0  0  0  0  0  0  0  0  0  0
   42.8310   32.4010   40.8520 O   0  0  0  0  0  0  0  0  0  0  0  0
   41.7490   33.1120   41.2810 C   0  0  0  0  0  0  0  0  0  0  0  0
   40.4810   32.7620   41.7230 C   0  0  0  0  0  0  0  0  0  0  0  0
   39.8310   33.9060   42.0170 N   0  0  0  0  0  0  0  0  0  0  0  0
   40.6670   34.9450   41.7670 C   0  0  0  0  0  0  0  0  0  0  0  0
   41.8340   34.4570   41.3190 N   0  0  0  0  0  0  0  0  0  0  0  0
   48.3269   36.0100   42.6753 H   0  0  0  0  0  0  0  0  0  0  0  0
   49.6624   35.7533   40.5740 H   0  0  0  0  0  0  0  0  0  0  0  0
   48.8059   34.4003   38.7227 H   0  0  0  0  0  0  0  0  0  0  0  0
   46.6277   33.2521   38.8487 H   0  0  0  0  0  0  0  0  0  0  0  0
   43.8621   36.9570   44.8821 H   0  0  0  0  0  0  0  0  0  0  0  0
   45.0564   36.8262   42.6639 H   0  0  0  0  0  0  0  0  0  0  0  0
   45.5760   33.2566   46.0515 H   0  0  0  0  0  0  0  0  0  0  0  0
   44.8402   33.1348   42.0572 H   0  0  0  0  0  0  0  0  0  0  0  0
   40.0809   31.7416   41.8161 H   0  0  0  0  0  0  0  0  0  0  0  0
   38.8663   33.9787   42.3704 H   0  0  0  0  0  0  0  0  0  0  0  0
   40.4281   36.0094   41.9080 H   0  0  0  0  0  0  0  0  0  0  0  0
  1  9  1  0
  2  1  2  0
  3  2  1  0
  4  5  1  0
  4  3  2  0
  5  6  2  0
  6 15  1  0
  6  1  1  0
  7 12  2  0
  8  7  1  0
  9  8  2  0
  9 10  1  0
 10 11  2  0
 11 12  1  0
 13 16  1  0
 13 15  1  0
 14 13  2  0
 16 17  1  0
 17 21  1  0
 17 18  2  0
 18 19  1  0
 20 19  1  0
 21 20  2  0
  2 22  1  0
  3 23  1  0
  4 24  1  0
  5 25  1  0
  7 26  1  0
  8 27  1  0
 11 28  1  0
 15 29  1  0
 18 30  1  0
 19 31  1  0
 20 32  1  0
M  ISO  8  22  14  23  14  24  14  25  14  26  14  27  14  28  14  30  14
M  ISO  2  31   9  32  14
M  END
>  <minimizedAffinity>  (1) 
-6.12547588

>  <minimizedRMSD>  (1) 
0.872238219

$$$$
