
     RDKit          3D

 37 39  0  0  1  0  0  0  0  0999 V2000
   46.5100   34.7040   41.9930 C   0  0  0  0  0  0  0  0  0  0  0  0
   47.8510   35.0630   41.9450 C   0  0  0  0  0  0  0  0  0  0  0  0
   48.5410   34.8290   40.7670 C   0  0  0  0  0  0  0  0  0  0  0  0
   47.9130   34.2650   39.7000 C   0  0  0  0  0  0  0  0  0  0  0  0
   46.5810   33.8980   39.7240 C   0  0  0  0  0  0  0  0  0  0  0  0
   45.8900   34.1390   40.9200 C   0  0  0  0  0  0  0  0  0  0  0  0
   44.4900   36.2630   44.7780 C   0  0  0  0  0  0  0  0  0  0  0  0
   45.1160   36.1090   43.5200 C   0  0  0  0  0  0  0  0  0  0  0  0
   45.8240   34.9680   43.2580 C   0  0  0  0  0  0  0  0  0  0  0  0
   45.8850   34.0280   44.2480 N   0  0  0  0  0  0  0  0  0  0  0  0
   45.2850   34.1810   45.4480 C   0  0  0  0  0  0  0  0  0  0  0  0
   44.5850   35.2980   45.7220 N   0  0  0  0  0  0  0  0  0  0  0  0
   43.3090   34.4070   40.7470 C   0  0  0  0  0  0  0  0  0  0  0  0
   43.1610   35.4820   40.1880 O   0  0  0  0  0  0  0  0  0  0  0  0
   44.5310   33.8070   41.0930 N   0  0  0  0  0  0  0  0  0  0  0  0
   42.1370   33.7150   41.0680 O   0  0  0  0  0  0  0  0  0  0  0  0
   40.3880   35.0950   40.2530 N   0  0  0  0  0  0  0  0  0  0  0  0
   39.1350   34.4400   39.9390 C   0  0  0  0  0  0  0  0  0  0  0  0
   39.3350   33.0140   40.4590 C   0  0  0  0  0  0  0  0  0  0  0  0
   39.9530   33.3410   41.8030 C   0  0  0  0  0  0  0  0  0  0  0  0
   40.9510   34.4050   41.3870 C   0  0  1  0  0  0  0  0  0  0  0  0
   48.3486   35.5182   42.8140 H   0  0  0  0  0  0  0  0  0  0  0  0
   49.6043   35.1011   40.6937 H   0  0  0  0  0  0  0  0  0  0  0  0
   48.4900   34.0939   38.7792 H   0  0  0  0  0  0  0  0  0  0  0  0
   46.0895   33.4416   38.8522 H   0  0  0  0  0  0  0  0  0  0  0  0
   43.9187   37.1783   44.9922 H   0  0  0  0  0  0  0  0  0  0  0  0
   45.0347   36.8990   42.7589 H   0  0  0  0  0  0  0  0  0  0  0  0
   45.3686   33.3884   46.2061 H   0  0  0  0  0  0  0  0  0  0  0  0
   44.4042   32.9140   41.5903 H   0  0  0  0  0  0  0  0  0  0  0  0
   40.2212   36.0840   40.4876 H   0  0  0  0  0  0  0  0  0  0  0  0
   38.2954   34.9313   40.4525 H   0  0  0  0  0  0  0  0  0  0  0  0
   38.8914   34.4741   38.8669 H   0  0  0  0  0  0  0  0  0  0  0  0
   38.3820   32.4746   40.5627 H   0  0  0  0  0  0  0  0  0  0  0  0
   39.9289   32.3517   39.8120 H   0  0  0  0  0  0  0  0  0  0  0  0
   39.2075   33.7353   42.5092 H   0  0  0  0  0  0  0  0  0  0  0  0
   40.3889   32.4808   42.3323 H   0  0  0  0  0  0  0  0  0  0  0  0
   41.1679   35.1538   42.1631 H   0  0  0  0  0  0  0  0  0  0  0  0
  1  9  1  0
  2  1  2  0
  3  2  1  0
  4  5  1  0
  4  3  2  0
  5  6  2  0
  6 15  1  0
  6  1  1  0
  7 12  2  0
  8  7  1  0
  9  8  2  0
  9 10  1  0
 10 11  2  0
 11 12  1  0
 13 16  1  0
 13 15  1  0
 14 13  2  0
 17 21  1  0
 18 17  1  0
 18 19  1  0
 19 20  1  0
 21 16  1  0
 21 20  1  0
  2 22  1  0
  3 23  1  0
  4 24  1  0
  5 25  1  0
  7 26  1  0
  8 27  1  0
 11 28  1  0
 15 29  1  0
 17 30  1  0
 18 31  1  0
 18 32  1  0
 19 33  1  0
 19 34  1  0
 20 35  1  0
 20 36  1  0
 21 37  1  1
M  ISO  8  22  14  23  14  24  14  25  14  26  14  27  14  28  14  30   5
M  ISO  7  31  13  32  13  33  13  34  13  35  13  36  13  37  13
M  END
>  <minimizedAffinity>  (1) 
-6.11502266

>  <minimizedRMSD>  (1) 
1.05504954

$$$$
