
     RDKit          3D

 29 30  0  0  0  0  0  0  0  0999 V2000
   46.5770   34.7430   42.0130 C   0  0  0  0  0  0  0  0  0  0  0  0
   47.9060   35.1530   41.9720 C   0  0  0  0  0  0  0  0  0  0  0  0
   48.6230   34.9540   40.8100 C   0  0  0  0  0  0  0  0  0  0  0  0
   48.0260   34.3670   39.7310 C   0  0  0  0  0  0  0  0  0  0  0  0
   46.7180   33.9520   39.7390 C   0  0  0  0  0  0  0  0  0  0  0  0
   45.9990   34.1610   40.9280 C   0  0  0  0  0  0  0  0  0  0  0  0
   44.4880   36.2330   44.7810 C   0  0  0  0  0  0  0  0  0  0  0  0
   45.1280   36.1110   43.5240 C   0  0  0  0  0  0  0  0  0  0  0  0
   45.8730   34.9810   43.2710 C   0  0  0  0  0  0  0  0  0  0  0  0
   45.9410   34.0580   44.2500 N   0  0  0  0  0  0  0  0  0  0  0  0
   45.3340   34.1710   45.4460 C   0  0  0  0  0  0  0  0  0  0  0  0
   44.6030   35.2670   45.7100 N   0  0  0  0  0  0  0  0  0  0  0  0
   43.4100   34.3160   40.6950 C   0  0  0  0  0  0  0  0  0  0  0  0
   43.2360   35.3650   40.0920 O   0  0  0  0  0  0  0  0  0  0  0  0
   44.6500   33.7830   41.0900 N   0  0  0  0  0  0  0  0  0  0  0  0
   42.2640   33.5830   41.0190 O   0  0  0  0  0  0  0  0  0  0  0  0
   41.1590   34.2650   41.5100 C   0  0  0  0  0  0  0  0  0  0  0  0
   39.9640   33.9110   41.2910 O   0  0  0  0  0  0  0  0  0  0  0  0
   41.4070   35.4410   42.3120 N   0  0  0  0  0  0  0  0  0  0  0  0
   48.3752   35.6258   42.8474 H   0  0  0  0  0  0  0  0  0  0  0  0
   49.6756   35.2682   40.7527 H   0  0  0  0  0  0  0  0  0  0  0  0
   48.6191   34.2206   38.8162 H   0  0  0  0  0  0  0  0  0  0  0  0
   46.2560   33.4798   38.8595 H   0  0  0  0  0  0  0  0  0  0  0  0
   43.8891   37.1291   45.0007 H   0  0  0  0  0  0  0  0  0  0  0  0
   45.0321   36.9021   42.7657 H   0  0  0  0  0  0  0  0  0  0  0  0
   45.4352   33.3752   46.1986 H   0  0  0  0  0  0  0  0  0  0  0  0
   44.5489   32.9086   41.6248 H   0  0  0  0  0  0  0  0  0  0  0  0
   40.6168   35.9779   42.6969 H   0  0  0  0  0  0  0  0  0  0  0  0
   42.3740   35.7424   42.4988 H   0  0  0  0  0  0  0  0  0  0  0  0
  1  9  1  0
  2  1  2  0
  3  2  1  0
  4  5  1  0
  4  3  2  0
  5  6  2  0
  6 15  1  0
  6  1  1  0
  7 12  2  0
  8  7  1  0
  9  8  2  0
  9 10  1  0
 10 11  2  0
 11 12  1  0
 13 16  1  0
 13 15  1  0
 14 13  2  0
 16 17  1  0
 17 19  1  0
 18 17  2  0
  2 20  1  0
  3 21  1  0
  4 22  1  0
  5 23  1  0
  7 24  1  0
  8 25  1  0
 11 26  1  0
 15 27  1  0
 19 28  1  0
 19 29  1  0
M  ISO  7  20  14  21  14  22  14  23  14  24  14  25  14  26  14
M  END
>  <minimizedAffinity>  (1) 
-5.83289576

>  <minimizedRMSD>  (1) 
0.643849075

$$$$
