
     RDKit          3D

 28 29  0  0  0  0  0  0  0  0999 V2000
   46.5050   34.7330   42.0100 C   0  0  0  0  0  0  0  0  0  0  0  0
   47.8410   35.0940   41.9630 C   0  0  0  0  0  0  0  0  0  0  0  0
   48.5430   34.8660   40.7980 C   0  0  0  0  0  0  0  0  0  0  0  0
   47.9290   34.2990   39.7290 C   0  0  0  0  0  0  0  0  0  0  0  0
   46.5960   33.9270   39.7440 C   0  0  0  0  0  0  0  0  0  0  0  0
   45.9020   34.1660   40.9330 C   0  0  0  0  0  0  0  0  0  0  0  0
   44.4660   36.2560   44.7990 C   0  0  0  0  0  0  0  0  0  0  0  0
   45.0860   36.1260   43.5330 C   0  0  0  0  0  0  0  0  0  0  0  0
   45.8130   34.9980   43.2730 C   0  0  0  0  0  0  0  0  0  0  0  0
   45.8980   34.0560   44.2610 N   0  0  0  0  0  0  0  0  0  0  0  0
   45.3090   34.1760   45.4660 C   0  0  0  0  0  0  0  0  0  0  0  0
   44.5820   35.2940   45.7390 N   0  0  0  0  0  0  0  0  0  0  0  0
   43.3140   34.3050   40.6080 C   0  0  0  0  0  0  0  0  0  0  0  0
   43.1710   35.2630   39.8630 O   0  0  0  0  0  0  0  0  0  0  0  0
   44.5410   33.8310   41.1000 N   0  0  0  0  0  0  0  0  0  0  0  0
   42.1590   33.6240   41.0020 O   0  0  0  0  0  0  0  0  0  0  0  0
   41.0440   34.3940   41.4120 C   0  0  0  0  0  0  0  0  0  0  0  0
   40.4820   34.9000   40.2420 F   0  0  0  0  0  0  0  0  0  0  0  0
   40.1040   33.6500   42.0980 F   0  0  0  0  0  0  0  0  0  0  0  0
   41.3990   35.5000   42.1630 F   0  0  0  0  0  0  0  0  0  0  0  0
   48.3311   35.5521   42.8348 H   0  0  0  0  0  0  0  0  0  0  0  0
   49.6052   35.1450   40.7351 H   0  0  0  0  0  0  0  0  0  0  0  0
   48.5144   34.1281   38.8135 H   0  0  0  0  0  0  0  0  0  0  0  0
   46.1105   33.4692   38.8696 H   0  0  0  0  0  0  0  0  0  0  0  0
   43.8781   37.1588   45.0212 H   0  0  0  0  0  0  0  0  0  0  0  0
   44.9848   36.9161   42.7744 H   0  0  0  0  0  0  0  0  0  0  0  0
   45.4139   33.3814   46.2194 H   0  0  0  0  0  0  0  0  0  0  0  0
   44.4162   33.0386   41.7460 H   0  0  0  0  0  0  0  0  0  0  0  0
  1  9  1  0
  2  1  2  0
  3  2  1  0
  4  5  1  0
  4  3  2  0
  5  6  2  0
  6 15  1  0
  6  1  1  0
  7 12  2  0
  8  7  1  0
  9  8  2  0
  9 10  1  0
 10 11  2  0
 11 12  1  0
 13 16  1  0
 13 15  1  0
 14 13  2  0
 16 17  1  0
 17 19  1  0
 17 20  1  0
 18 17  1  0
  2 21  1  0
  3 22  1  0
  4 23  1  0
  5 24  1  0
  7 25  1  0
  8 26  1  0
 11 27  1  0
 15 28  1  0
M  ISO  7  21  14  22  14  23  14  24  14  25  14  26  14  27  14
M  END
>  <minimizedAffinity>  (1) 
-5.81512642

>  <minimizedRMSD>  (1) 
0.685769737

$$$$
