
     RDKit          3D

 38 40  0  0  1  0  0  0  0  0999 V2000
   46.0810   33.7920   43.1070 C   0  0  2  0  0  0  0  0  0  0  0  0
   45.4020   34.9260   42.4200 C   0  0  2  0  0  0  0  0  0  0  0  0
   45.2320   36.1270   43.2600 C   0  0  0  0  0  0  0  0  0  0  0  0
   44.6040   35.8770   44.6060 C   0  0  0  0  0  0  0  0  0  0  0  0
   45.0360   34.5830   45.2360 C   0  0  0  0  0  0  0  0  0  0  0  0
   46.3000   34.0420   44.5940 C   0  0  0  0  0  0  0  0  0  0  0  0
   47.4120   33.5170   42.5240 C   0  0  0  0  0  0  0  0  0  0  0  0
   48.4600   34.3910   42.9080 C   0  0  0  0  0  0  0  0  0  0  0  0
   49.7510   34.1950   42.4030 C   0  0  0  0  0  0  0  0  0  0  0  0
   49.9170   33.1350   41.5430 N   0  0  0  0  0  0  0  0  0  0  0  0
   48.8940   32.3130   41.1950 C   0  0  0  0  0  0  0  0  0  0  0  0
   47.6560   32.5080   41.6830 N   0  0  0  0  0  0  0  0  0  0  0  0
   43.4350   33.4030   41.9340 C   0  0  0  0  0  0  0  0  0  0  0  0
   44.1680   34.5780   41.6910 C   0  0  0  0  0  0  0  0  0  0  0  0
   43.5430   35.3250   40.7170 C   0  0  0  0  0  0  0  0  0  0  0  0
   42.3820   35.0180   40.0520 C   0  0  0  0  0  0  0  0  0  0  0  0
   41.7430   33.8460   40.3660 C   0  0  0  0  0  0  0  0  0  0  0  0
   42.2660   33.0060   41.3250 C   0  0  0  0  0  0  0  0  0  0  0  0
   43.9220   32.5070   42.9060 O   0  0  0  0  0  0  0  0  0  0  0  0
   41.6330   31.8330   41.6440 O   0  0  0  0  0  0  0  0  0  0  0  0
   45.4019   32.9379   42.9678 H   0  0  0  0  0  0  0  0  0  0  0  0
   46.1265   35.1936   41.6368 H   0  0  0  0  0  0  0  0  0  0  0  0
   46.2243   36.5726   43.4236 H   0  0  0  0  0  0  0  0  0  0  0  0
   44.5415   36.7882   42.7159 H   0  0  0  0  0  0  0  0  0  0  0  0
   44.8816   36.7019   45.2787 H   0  0  0  0  0  0  0  0  0  0  0  0
   43.5169   35.8148   44.4502 H   0  0  0  0  0  0  0  0  0  0  0  0
   45.2241   34.7527   46.3064 H   0  0  0  0  0  0  0  0  0  0  0  0
   44.2335   33.8450   45.0896 H   0  0  0  0  0  0  0  0  0  0  0  0
   46.5775   33.0964   45.0826 H   0  0  0  0  0  0  0  0  0  0  0  0
   47.1042   34.7827   44.7146 H   0  0  0  0  0  0  0  0  0  0  0  0
   48.2593   35.2212   43.6011 H   0  0  0  0  0  0  0  0  0  0  0  0
   50.5876   34.8536   42.6794 H   0  0  0  0  0  0  0  0  0  0  0  0
   49.0801   31.4768   40.5050 H   0  0  0  0  0  0  0  0  0  0  0  0
   44.0282   36.2730   40.4414 H   0  0  0  0  0  0  0  0  0  0  0  0
   41.9746   35.6949   39.2867 H   0  0  0  0  0  0  0  0  0  0  0  0
   40.8097   33.5755   39.8505 H   0  0  0  0  0  0  0  0  0  0  0  0
   43.4285   31.6710   43.1000 H   0  0  0  0  0  0  0  0  0  0  0  0
   42.0161   31.2357   42.3343 H   0  0  0  0  0  0  0  0  0  0  0  0
  1  6  1  0
  2  1  1  0
  2  3  1  0
  3  4  1  0
  4  5  1  0
  6  5  1  0
  7  8  2  0
  7  1  1  0
  9  8  1  0
 10  9  2  0
 11 10  1  0
 11 12  2  0
 12  7  1  0
 13 19  1  0
 14 13  2  0
 14  2  1  0
 15 14  1  0
 16 17  1  0
 16 15  2  0
 17 18  2  0
 18 20  1  0
 18 13  1  0
  1 21  1  1
  2 22  1  6
  3 23  1  0
  3 24  1  0
  4 25  1  0
  4 26  1  0
  5 27  1  0
  5 28  1  0
  6 29  1  0
  6 30  1  0
  8 31  1  0
  9 32  1  0
 11 33  1  0
 15 34  1  0
 16 35  1  0
 17 36  1  0
 19 37  1  0
 20 38  1  0
M  ISO  8  21  13  22  13  23  13  24  13  25  13  26  13  27  13  28  13
M  ISO  8  29  13  30  13  31  14  32  14  33  14  34  14  35  14  36  14
M  ISO  2  37   3  38   3
M  END
>  <minimizedAffinity>  (1) 
-5.85379982

>  <minimizedRMSD>  (1) 
2.42726707

$$$$
