
     RDKit          3D

 36 38  0  0  0  0  0  0  0  0999 V2000
   45.7730   30.0100   45.1770 Cl  0  0  0  0  0  0  0  0  0  0  0  0
   45.6890   30.6700   46.8190 C   0  0  0  0  0  0  0  0  0  0  0  0
   45.7960   32.0360   46.9700 C   0  0  0  0  0  0  0  0  0  0  0  0
   45.7280   32.5290   48.2260 C   0  0  0  0  0  0  0  0  0  0  0  0
   45.5550   31.6510   49.3040 C   0  0  0  0  0  0  0  0  0  0  0  0
   45.4490   30.2750   49.1280 C   0  0  0  0  0  0  0  0  0  0  0  0
   45.5180   29.7520   47.8290 C   0  0  0  0  0  0  0  0  0  0  0  0
   47.8670   28.3460   47.7770 F   0  0  0  0  0  0  0  0  0  0  0  0
   46.6710   27.7170   47.5650 C   0  0  0  0  0  0  0  0  0  0  0  0
   45.4160   28.3240   47.5660 C   0  0  0  0  0  0  0  0  0  0  0  0
   44.2870   27.5800   47.3370 C   0  0  0  0  0  0  0  0  0  0  0  0
   44.4010   26.2320   47.1080 C   0  0  0  0  0  0  0  0  0  0  0  0
   45.6500   25.6020   47.1030 C   0  0  0  0  0  0  0  0  0  0  0  0
   46.7780   26.3540   47.3320 C   0  0  0  0  0  0  0  0  0  0  0  0
   45.3440   34.6710   44.5130 C   0  0  0  0  0  0  0  0  0  0  0  0
   46.3750   34.4700   43.5650 C   0  0  0  0  0  0  0  0  0  0  0  0
   47.2170   33.3880   43.8290 C   0  0  0  0  0  0  0  0  0  0  0  0
   46.9920   32.6290   44.9420 N   0  0  0  0  0  0  0  0  0  0  0  0
   45.9790   32.8870   45.8040 C   0  0  0  0  0  0  0  0  0  0  0  0
   45.1620   33.9100   45.5800 N   0  0  0  0  0  0  0  0  0  0  0  0
   48.2850   33.1780   42.8530 C   0  0  0  0  0  0  0  0  0  0  0  0
   48.9560   31.9990   43.1520 F   0  0  0  0  0  0  0  0  0  0  0  0
   49.2250   34.1780   43.0790 F   0  0  0  0  0  0  0  0  0  0  0  0
   47.8690   33.1060   41.5720 F   0  0  0  0  0  0  0  0  0  0  0  0
   46.4560   35.3850   42.4270 C   0  0  0  0  0  0  0  0  0  0  0  0
   46.1770   34.8240   41.2010 F   0  0  0  0  0  0  0  0  0  0  0  0
   47.7840   35.8190   42.2980 F   0  0  0  0  0  0  0  0  0  0  0  0
   45.7430   36.5660   42.6200 F   0  0  0  0  0  0  0  0  0  0  0  0
   45.8079   33.6120   48.4010 H   0  0  0  0  0  0  0  0  0  0  0  0
   45.5012   32.0629   50.3225 H   0  0  0  0  0  0  0  0  0  0  0  0
   45.3134   29.6090   49.9929 H   0  0  0  0  0  0  0  0  0  0  0  0
   43.2974   28.0603   47.3369 H   0  0  0  0  0  0  0  0  0  0  0  0
   43.4945   25.6363   46.9252 H   0  0  0  0  0  0  0  0  0  0  0  0
   45.7285   24.5204   46.9185 H   0  0  0  0  0  0  0  0  0  0  0  0
   47.7675   25.8735   47.3304 H   0  0  0  0  0  0  0  0  0  0  0  0
   44.6518   35.5109   44.3533 H   0  0  0  0  0  0  0  0  0  0  0  0
  1  2  1  0
  2  3  2  0
  2  7  1  0
  3  4  1  0
  4  5  2  0
  6  5  1  0
  7  6  2  0
  9 10  2  0
  9  8  1  0
 10  7  1  0
 11 10  1  0
 12 11  2  0
 13 12  1  0
 13 14  2  0
 14  9  1  0
 15 20  2  0
 16 17  2  0
 16 15  1  0
 17 18  1  0
 18 19  2  0
 19  3  1  0
 20 19  1  0
 21 23  1  0
 21 22  1  0
 21 17  1  0
 24 21  1  0
 25 28  1  0
 25 16  1  0
 26 25  1  0
 27 25  1  0
  4 29  1  0
  5 30  1  0
  6 31  1  0
 11 32  1  0
 12 33  1  0
 13 34  1  0
 14 35  1  0
 15 36  1  0
M  ISO  8  29  14  30  14  31  14  32  14  33  14  34  14  35  14  36  14
M  END
>  <minimizedAffinity>  (1) 
-6.40697861

>  <minimizedRMSD>  (1) 
2.56757092

$$$$
