
     RDKit          3D

 34 35  0  0  1  0  0  0  0  0999 V2000
   47.7920   34.0090   43.2690 C   0  0  2  0  0  0  0  0  0  0  0  0
   46.8220   34.2100   42.1780 C   0  0  2  0  0  0  0  0  0  0  0  0
   47.4580   34.3470   40.8250 C   0  0  0  0  0  0  0  0  0  0  0  0
   48.4910   35.4550   40.7870 C   0  0  0  0  0  0  0  0  0  0  0  0
   49.3490   35.5270   42.0140 C   0  0  0  0  0  0  0  0  0  0  0  0
   49.2290   34.2740   42.8400 C   0  0  0  0  0  0  0  0  0  0  0  0
   47.7420   32.6550   43.8470 C   0  0  0  0  0  0  0  0  0  0  0  0
   48.4700   31.6710   43.1660 C   0  0  0  0  0  0  0  0  0  0  0  0
   48.4900   30.3570   43.6490 C   0  0  0  0  0  0  0  0  0  0  0  0
   47.7630   30.1250   44.8000 N   0  0  0  0  0  0  0  0  0  0  0  0
   47.0750   31.0810   45.4330 C   0  0  0  0  0  0  0  0  0  0  0  0
   47.0650   32.3480   44.9540 N   0  0  0  0  0  0  0  0  0  0  0  0
   46.1400   35.4710   42.4250 N   0  0  0  0  0  0  0  0  0  0  0  0
   44.4240   35.2000   42.5260 S   0  0  0  0  0  0  0  0  0  0  0  0
   44.2260   33.7020   42.5970 O   0  0  0  0  0  0  0  0  0  0  0  0
   43.7220   35.7390   41.3190 O   0  0  0  0  0  0  0  0  0  0  0  0
   43.8130   35.8230   43.9520 O   0  0  0  0  0  0  0  0  0  0  0  0
   47.4885   34.7439   44.0291 H   0  0  0  0  0  0  0  0  0  0  0  0
   46.1642   33.3284   42.1684 H   0  0  0  0  0  0  0  0  0  0  0  0
   47.9481   33.3968   40.5662 H   0  0  0  0  0  0  0  0  0  0  0  0
   46.6664   34.5988   40.1040 H   0  0  0  0  0  0  0  0  0  0  0  0
   49.1437   35.2905   39.9170 H   0  0  0  0  0  0  0  0  0  0  0  0
   47.9390   36.4046   40.7269 H   0  0  0  0  0  0  0  0  0  0  0  0
   50.3983   35.6568   41.7104 H   0  0  0  0  0  0  0  0  0  0  0  0
   49.0120   36.3783   42.6237 H   0  0  0  0  0  0  0  0  0  0  0  0
   49.5849   33.4205   42.2443 H   0  0  0  0  0  0  0  0  0  0  0  0
   49.8358   34.4061   43.7479 H   0  0  0  0  0  0  0  0  0  0  0  0
   49.0254   31.9303   42.2526 H   0  0  0  0  0  0  0  0  0  0  0  0
   49.0509   29.5578   43.1423 H   0  0  0  0  0  0  0  0  0  0  0  0
   46.5143   30.8373   46.3474 H   0  0  0  0  0  0  0  0  0  0  0  0
   46.4757   35.8739   43.3115 H   0  0  0  0  0  0  0  0  0  0  0  0
   44.1885   33.4186   43.5448 H   0  0  0  0  0  0  0  0  0  0  0  0
   42.9702   36.3162   41.6048 H   0  0  0  0  0  0  0  0  0  0  0  0
   44.2499   35.3776   44.7207 H   0  0  0  0  0  0  0  0  0  0  0  0
  1  7  1  0
  2 13  1  0
  2  1  1  0
  3  2  1  0
  4  3  1  0
  4  5  1  0
  5  6  1  0
  6  1  1  0
  7 12  2  0
  8  9  2  0
  8  7  1  0
  9 10  1  0
 10 11  2  0
 12 11  1  0
 13 14  1  0
 14 15  1  0
 14 17  1  0
 16 14  1  0
  1 18  1  1
  2 19  1  6
  3 20  1  0
  3 21  1  0
  4 22  1  0
  4 23  1  0
  5 24  1  0
  5 25  1  0
  6 26  1  0
  6 27  1  0
  8 28  1  0
  9 29  1  0
 11 30  1  0
 13 31  1  0
 15 32  1  0
 16 33  1  0
 17 34  1  0
M  ISO  8  18  13  19  13  20  13  21  13  22  13  23  13  24  13  25  13
M  ISO  8  26  13  27  13  28  14  29  14  30  14  31   5  32   3  33   3
M  ISO  1  34   3
M  END
>  <minimizedAffinity>  (1) 
-5.01998949

>  <minimizedRMSD>  (1) 
3.42345428

$$$$
