
     RDKit          3D

 41 43  0  0  1  0  0  0  0  0999 V2000
   46.4320   33.7370   43.2220 C   0  0  2  0  0  0  0  0  0  0  0  0
   45.7440   34.7200   42.3530 C   0  0  2  0  0  0  0  0  0  0  0  0
   45.3560   35.9720   43.1240 C   0  0  0  0  0  0  0  0  0  0  0  0
   44.5260   35.6940   44.3440 C   0  0  0  0  0  0  0  0  0  0  0  0
   45.0140   34.5000   45.1300 C   0  0  0  0  0  0  0  0  0  0  0  0
   46.4040   34.0910   44.7000 C   0  0  0  0  0  0  0  0  0  0  0  0
   47.8820   33.6020   42.8560 C   0  0  0  0  0  0  0  0  0  0  0  0
   48.6230   34.7810   42.7390 C   0  0  0  0  0  0  0  0  0  0  0  0
   49.9700   34.7080   42.3980 C   0  0  0  0  0  0  0  0  0  0  0  0
   50.4980   33.4670   42.1950 N   0  0  0  0  0  0  0  0  0  0  0  0
   49.7570   32.3360   42.3160 C   0  0  0  0  0  0  0  0  0  0  0  0
   48.4670   32.4060   42.6420 N   0  0  0  0  0  0  0  0  0  0  0  0
   44.6400   34.3280   41.5970 N   0  0  0  0  0  0  0  0  0  0  0  0
   43.8390   35.3100   40.9800 C   0  0  0  0  0  0  0  0  0  0  0  0
   42.4250   35.2360   41.4940 C   0  0  0  0  0  0  0  0  0  0  0  0
   41.9110   33.8750   41.0010 C   0  0  0  0  0  0  0  0  0  0  0  0
   42.7720   32.8410   41.6420 C   0  0  0  0  0  0  0  0  0  0  0  0
   44.2690   33.0240   41.3270 C   0  0  0  0  0  0  0  0  0  0  0  0
   45.8733   32.8038   43.0577 H   0  0  0  0  0  0  0  0  0  0  0  0
   46.5339   34.8846   41.6054 H   0  0  0  0  0  0  0  0  0  0  0  0
   46.2764   36.4854   43.4392 H   0  0  0  0  0  0  0  0  0  0  0  0
   44.7426   36.5884   42.4503 H   0  0  0  0  0  0  0  0  0  0  0  0
   44.5548   36.5789   44.9967 H   0  0  0  0  0  0  0  0  0  0  0  0
   43.5048   35.4685   44.0030 H   0  0  0  0  0  0  0  0  0  0  0  0
   45.0308   34.7574   46.1993 H   0  0  0  0  0  0  0  0  0  0  0  0
   44.3308   33.6583   44.9433 H   0  0  0  0  0  0  0  0  0  0  0  0
   46.7193   33.2152   45.2862 H   0  0  0  0  0  0  0  0  0  0  0  0
   47.0880   34.9350   44.8724 H   0  0  0  0  0  0  0  0  0  0  0  0
   48.1463   35.7567   42.9147 H   0  0  0  0  0  0  0  0  0  0  0  0
   50.5843   35.6148   42.2962 H   0  0  0  0  0  0  0  0  0  0  0  0
   50.2246   31.3554   42.1438 H   0  0  0  0  0  0  0  0  0  0  0  0
   43.8380   35.1455   39.8924 H   0  0  0  0  0  0  0  0  0  0  0  0
   44.2509   36.3031   41.2127 H   0  0  0  0  0  0  0  0  0  0  0  0
   42.4071   35.2842   42.5928 H   0  0  0  0  0  0  0  0  0  0  0  0
   41.8051   36.0724   41.1388 H   0  0  0  0  0  0  0  0  0  0  0  0
   40.8616   33.7342   41.2994 H   0  0  0  0  0  0  0  0  0  0  0  0
   41.9557   33.8061   39.9041 H   0  0  0  0  0  0  0  0  0  0  0  0
   42.6339   32.8965   42.7319 H   0  0  0  0  0  0  0  0  0  0  0  0
   42.4681   31.8638   41.2386 H   0  0  0  0  0  0  0  0  0  0  0  0
   44.4499   32.8037   40.2646 H   0  0  0  0  0  0  0  0  0  0  0  0
   44.8616   32.3375   41.9495 H   0  0  0  0  0  0  0  0  0  0  0  0
  1  6  1  0
  2  3  1  0
  2  1  1  0
  3  4  1  0
  4  5  1  0
  6  5  1  0
  7  1  1  0
  8  7  2  0
  9  8  1  0
 10 11  1  0
 10  9  2  0
 11 12  2  0
 12  7  1  0
 13  2  1  0
 14 15  1  0
 14 13  1  0
 16 15  1  0
 16 17  1  0
 18 13  1  0
 18 17  1  0
  1 19  1  1
  2 20  1  6
  3 21  1  0
  3 22  1  0
  4 23  1  0
  4 24  1  0
  5 25  1  0
  5 26  1  0
  6 27  1  0
  6 28  1  0
  8 29  1  0
  9 30  1  0
 11 31  1  0
 14 32  1  0
 14 33  1  0
 15 34  1  0
 15 35  1  0
 16 36  1  0
 16 37  1  0
 17 38  1  0
 17 39  1  0
 18 40  1  0
 18 41  1  0
M  ISO  8  19  13  20  13  21  13  22  13  23  13  24  13  25  13  26  13
M  ISO  8  27  13  28  13  29  14  30  14  31  14  32  13  33  13  34  13
M  ISO  7  35  13  36  13  37  13  38  13  39  13  40  13  41  13
M  END
>  <minimizedAffinity>  (1) 
-4.99728727

>  <minimizedRMSD>  (1) 
2.01753235

$$$$
