
     RDKit          3D

 35 37  0  0  0  0  0  0  0  0999 V2000
   47.4480   31.6630   45.0990 Cl  0  0  0  0  0  0  0  0  0  0  0  0
   46.6290   31.7080   46.6700 C   0  0  0  0  0  0  0  0  0  0  0  0
   45.7470   32.7390   46.9050 C   0  0  0  0  0  0  0  0  0  0  0  0
   45.1320   32.7560   48.1100 C   0  0  0  0  0  0  0  0  0  0  0  0
   45.4020   31.7600   49.0470 C   0  0  0  0  0  0  0  0  0  0  0  0
   46.2950   30.7360   48.7840 C   0  0  0  0  0  0  0  0  0  0  0  0
   46.9430   30.6940   47.5480 C   0  0  0  0  0  0  0  0  0  0  0  0
   49.4760   30.9410   48.5350 F   0  0  0  0  0  0  0  0  0  0  0  0
   49.1420   29.8770   47.7580 C   0  0  0  0  0  0  0  0  0  0  0  0
   47.8940   29.6460   47.2030 C   0  0  0  0  0  0  0  0  0  0  0  0
   47.6650   28.5280   46.4260 C   0  0  0  0  0  0  0  0  0  0  0  0
   48.7050   27.6510   46.2170 C   0  0  0  0  0  0  0  0  0  0  0  0
   49.9690   27.8570   46.7630 C   0  0  0  0  0  0  0  0  0  0  0  0
   50.1840   28.9830   47.5400 C   0  0  0  0  0  0  0  0  0  0  0  0
   44.4840   35.6850   45.1730 C   0  0  0  0  0  0  0  0  0  0  0  0
   45.1000   35.6260   43.9060 C   0  0  0  0  0  0  0  0  0  0  0  0
   45.9600   34.5380   43.6780 C   0  0  0  0  0  0  0  0  0  0  0  0
   46.1300   33.6370   44.6830 N   0  0  0  0  0  0  0  0  0  0  0  0
   45.5100   33.7500   45.8780 C   0  0  0  0  0  0  0  0  0  0  0  0
   44.6890   34.7750   46.1170 N   0  0  0  0  0  0  0  0  0  0  0  0
   46.5760   34.5140   42.3570 C   0  0  0  0  0  0  0  0  0  0  0  0
   47.3820   33.3740   42.2620 F   0  0  0  0  0  0  0  0  0  0  0  0
   47.4650   35.5740   42.3140 F   0  0  0  0  0  0  0  0  0  0  0  0
   45.6990   34.4920   41.3300 F   0  0  0  0  0  0  0  0  0  0  0  0
   44.8410   36.6200   42.9520 N   0  0  0  0  0  0  0  0  0  0  0  0
   44.4177   33.5572   48.3506 H   0  0  0  0  0  0  0  0  0  0  0  0
   44.8918   31.7887   50.0211 H   0  0  0  0  0  0  0  0  0  0  0  0
   46.4923   29.9629   49.5412 H   0  0  0  0  0  0  0  0  0  0  0  0
   46.6748   28.3425   45.9844 H   0  0  0  0  0  0  0  0  0  0  0  0
   48.5318   26.7581   45.5983 H   0  0  0  0  0  0  0  0  0  0  0  0
   50.7819   27.1387   46.5806 H   0  0  0  0  0  0  0  0  0  0  0  0
   51.1739   29.1690   47.9823 H   0  0  0  0  0  0  0  0  0  0  0  0
   43.8036   36.5221   45.3884 H   0  0  0  0  0  0  0  0  0  0  0  0
   45.2916   36.5758   42.0268 H   0  0  0  0  0  0  0  0  0  0  0  0
   44.2001   37.3945   43.1762 H   0  0  0  0  0  0  0  0  0  0  0  0
  1  2  1  0
  2  3  2  0
  2  7  1  0
  3  4  1  0
  4  5  2  0
  6  5  1  0
  7  6  2  0
  9  8  1  0
 10  7  1  0
 10  9  2  0
 11 10  1  0
 12 11  2  0
 12 13  1  0
 13 14  2  0
 14  9  1  0
 15 20  2  0
 16 15  1  0
 17 16  2  0
 17 18  1  0
 18 19  2  0
 19 20  1  0
 19  3  1  0
 21 17  1  0
 22 21  1  0
 23 21  1  0
 24 21  1  0
 25 16  1  0
  4 26  1  0
  5 27  1  0
  6 28  1  0
 11 29  1  0
 12 30  1  0
 13 31  1  0
 14 32  1  0
 15 33  1  0
 25 34  1  0
 25 35  1  0
M  ISO  8  26  14  27  14  28  14  29  14  30  14  31  14  32  14  33  14
M  END
>  <minimizedAffinity>  (1) 
-6.38664675

>  <minimizedRMSD>  (1) 
0.366964221

$$$$
