
     RDKit          3D

 33 35  0  0  1  0  0  0  0  0999 V2000
   46.4040   33.8920   43.1970 C   0  0  2  0  0  0  0  0  0  0  0  0
   45.8270   35.0200   42.4340 C   0  0  2  0  0  0  0  0  0  0  0  0
   45.4690   36.2020   43.2880 C   0  0  0  0  0  0  0  0  0  0  0  0
   44.5960   35.8520   44.4740 C   0  0  0  0  0  0  0  0  0  0  0  0
   44.9730   34.5550   45.1330 C   0  0  0  0  0  0  0  0  0  0  0  0
   46.3350   34.0770   44.7050 C   0  0  0  0  0  0  0  0  0  0  0  0
   47.8220   33.6680   42.8510 C   0  0  0  0  0  0  0  0  0  0  0  0
   48.6130   34.8280   42.7270 C   0  0  0  0  0  0  0  0  0  0  0  0
   49.9720   34.7320   42.3970 C   0  0  0  0  0  0  0  0  0  0  0  0
   50.4520   33.4530   42.2090 N   0  0  0  0  0  0  0  0  0  0  0  0
   49.6830   32.3670   42.3330 C   0  0  0  0  0  0  0  0  0  0  0  0
   48.3720   32.4720   42.6520 N   0  0  0  0  0  0  0  0  0  0  0  0
   44.6860   34.6080   41.5620 C   0  0  0  0  0  0  0  0  0  0  0  0
   44.3080   33.3470   41.1690 C   0  0  0  0  0  0  0  0  0  0  0  0
   43.2200   33.3680   40.3780 N   0  0  0  0  0  0  0  0  0  0  0  0
   42.8840   34.6610   40.2540 C   0  0  0  0  0  0  0  0  0  0  0  0
   43.7590   35.3970   40.9610 N   0  0  0  0  0  0  0  0  0  0  0  0
   45.7853   33.0282   42.9124 H   0  0  0  0  0  0  0  0  0  0  0  0
   46.6383   35.3530   41.7700 H   0  0  0  0  0  0  0  0  0  0  0  0
   46.3990   36.6545   43.6626 H   0  0  0  0  0  0  0  0  0  0  0  0
   44.8918   36.8929   42.6560 H   0  0  0  0  0  0  0  0  0  0  0  0
   44.6797   36.6579   45.2180 H   0  0  0  0  0  0  0  0  0  0  0  0
   43.5688   35.7374   44.0974 H   0  0  0  0  0  0  0  0  0  0  0  0
   44.9740   34.6985   46.2236 H   0  0  0  0  0  0  0  0  0  0  0  0
   44.2371   33.7952   44.8310 H   0  0  0  0  0  0  0  0  0  0  0  0
   46.5480   33.1153   45.1946 H   0  0  0  0  0  0  0  0  0  0  0  0
   47.0776   34.8339   44.9975 H   0  0  0  0  0  0  0  0  0  0  0  0
   48.1601   35.8170   42.8906 H   0  0  0  0  0  0  0  0  0  0  0  0
   50.6139   35.6194   42.2946 H   0  0  0  0  0  0  0  0  0  0  0  0
   50.1228   31.3715   42.1732 H   0  0  0  0  0  0  0  0  0  0  0  0
   44.8336   32.4276   41.4664 H   0  0  0  0  0  0  0  0  0  0  0  0
   42.7435   32.5587   39.9550 H   0  0  0  0  0  0  0  0  0  0  0  0
   42.0363   35.0525   39.6725 H   0  0  0  0  0  0  0  0  0  0  0  0
  1  6  1  0
  2  1  1  0
  2  3  1  0
  3  4  1  0
  4  5  1  0
  6  5  1  0
  7  1  1  0
  8  7  2  0
  9  8  1  0
 10 11  1  0
 10  9  2  0
 11 12  2  0
 12  7  1  0
 13  2  1  0
 14 13  2  0
 15 14  1  0
 16 15  1  0
 16 17  2  0
 17 13  1  0
  1 18  1  1
  2 19  1  6
  3 20  1  0
  3 21  1  0
  4 22  1  0
  4 23  1  0
  5 24  1  0
  5 25  1  0
  6 26  1  0
  6 27  1  0
  8 28  1  0
  9 29  1  0
 11 30  1  0
 14 31  1  0
 15 32  1  0
 16 33  1  0
M  ISO  8  18  13  19  13  20  13  21  13  22  13  23  13  24  13  25  13
M  ISO  8  26  13  27  13  28  14  29  14  30  14  31  14  32   9  33  14
M  END
>  <minimizedAffinity>  (1) 
-4.87456656

>  <minimizedRMSD>  (1) 
2.27989817

$$$$
