
     RDKit          3D

 33 34  0  0  1  0  0  0  0  0999 V2000
   47.2460   34.3010   43.2040 C   0  0  2  0  0  0  0  0  0  0  0  0
   46.3700   34.1120   42.0260 C   0  0  2  0  0  0  0  0  0  0  0  0
   47.1130   33.8450   40.7580 C   0  0  0  0  0  0  0  0  0  0  0  0
   48.1720   34.8890   40.4570 C   0  0  0  0  0  0  0  0  0  0  0  0
   48.8990   35.3880   41.6770 C   0  0  0  0  0  0  0  0  0  0  0  0
   48.7200   34.4440   42.8420 C   0  0  0  0  0  0  0  0  0  0  0  0
   47.1400   33.2030   44.1800 C   0  0  0  0  0  0  0  0  0  0  0  0
   47.7000   31.9720   43.7860 C   0  0  0  0  0  0  0  0  0  0  0  0
   47.6500   30.8760   44.6450 C   0  0  0  0  0  0  0  0  0  0  0  0
   47.0350   31.0790   45.8580 N   0  0  0  0  0  0  0  0  0  0  0  0
   46.5040   32.2740   46.2110 C   0  0  0  0  0  0  0  0  0  0  0  0
   46.5570   33.3350   45.3710 N   0  0  0  0  0  0  0  0  0  0  0  0
   45.4670   35.2950   41.8430 C   0  0  0  0  0  0  0  0  0  0  0  0
   44.1570   35.2850   41.6440 C   0  0  0  0  0  0  0  0  0  0  0  0
   43.4690   33.9860   41.5920 C   0  0  0  0  0  0  0  0  0  0  0  0
   46.8816   35.2383   43.6498 H   0  0  0  0  0  0  0  0  0  0  0  0
   45.7756   33.2114   42.2397 H   0  0  0  0  0  0  0  0  0  0  0  0
   47.6025   32.8633   40.8393 H   0  0  0  0  0  0  0  0  0  0  0  0
   46.3814   33.8741   39.9371 H   0  0  0  0  0  0  0  0  0  0  0  0
   48.9094   34.4469   39.7708 H   0  0  0  0  0  0  0  0  0  0  0  0
   47.6529   35.7538   40.0180 H   0  0  0  0  0  0  0  0  0  0  0  0
   49.9710   35.4740   41.4460 H   0  0  0  0  0  0  0  0  0  0  0  0
   48.4829   36.3677   41.9547 H   0  0  0  0  0  0  0  0  0  0  0  0
   49.1218   33.4566   42.5706 H   0  0  0  0  0  0  0  0  0  0  0  0
   49.2576   34.8516   43.7108 H   0  0  0  0  0  0  0  0  0  0  0  0
   48.1771   31.8759   42.7995 H   0  0  0  0  0  0  0  0  0  0  0  0
   48.0790   29.9017   44.3679 H   0  0  0  0  0  0  0  0  0  0  0  0
   46.0228   32.3843   47.1940 H   0  0  0  0  0  0  0  0  0  0  0  0
   45.9469   36.2842   41.8779 H   0  0  0  0  0  0  0  0  0  0  0  0
   43.5982   36.2244   41.5208 H   0  0  0  0  0  0  0  0  0  0  0  0
   43.2803   33.6298   42.6155 H   0  0  0  0  0  0  0  0  0  0  0  0
   42.5124   34.0987   41.0608 H   0  0  0  0  0  0  0  0  0  0  0  0
   44.0998   33.2580   41.0608 H   0  0  0  0  0  0  0  0  0  0  0  0
  1  7  1  0
  2  1  1  0
  3  2  1  0
  4  3  1  0
  4  5  1  0
  5  6  1  0
  6  1  1  0
  7 12  1  0
  8  7  2  0
  8  9  1  0
  9 10  2  0
 10 11  1  0
 12 11  2  0
 13  2  1  0
 14 13  2  0
 15 14  1  0
  1 16  1  1
  2 17  1  1
  3 18  1  0
  3 19  1  0
  4 20  1  0
  4 21  1  0
  5 22  1  0
  5 23  1  0
  6 24  1  0
  6 25  1  0
  8 26  1  0
  9 27  1  0
 11 28  1  0
 13 29  1  0
 14 30  1  0
 15 31  1  0
 15 32  1  0
 15 33  1  0
M  ISO  8  16  13  17  13  18  13  19  13  20  13  21  13  22  13  23  13
M  ISO  8  24  13  25  13  26  14  27  14  28  14  31   8  32   8  33   8
M  END
>  <minimizedAffinity>  (1) 
-4.47392559

>  <minimizedRMSD>  (1) 
3.29879928

$$$$
