
     RDKit          3D

 28 29  0  0  1  0  0  0  0  0999 V2000
   46.4030   33.8160   43.2530 C   0  0  2  0  0  0  0  0  0  0  0  0
   45.7510   34.8630   42.4360 C   0  0  2  0  0  0  0  0  0  0  0  0
   45.3810   36.0840   43.2070 C   0  0  0  0  0  0  0  0  0  0  0  0
   44.5550   35.7940   44.4410 C   0  0  0  0  0  0  0  0  0  0  0  0
   44.9850   34.5530   45.1710 C   0  0  0  0  0  0  0  0  0  0  0  0
   46.3680   34.1020   44.7470 C   0  0  0  0  0  0  0  0  0  0  0  0
   47.8160   33.6210   42.8740 C   0  0  0  0  0  0  0  0  0  0  0  0
   48.5880   34.7920   42.7440 C   0  0  0  0  0  0  0  0  0  0  0  0
   49.9390   34.7180   42.3900 C   0  0  0  0  0  0  0  0  0  0  0  0
   50.4340   33.4460   42.1840 N   0  0  0  0  0  0  0  0  0  0  0  0
   49.6800   32.3420   42.3130 C   0  0  0  0  0  0  0  0  0  0  0  0
   48.3710   32.4290   42.6570 N   0  0  0  0  0  0  0  0  0  0  0  0
   44.5910   34.3520   41.6510 C   0  0  0  0  0  0  0  0  0  0  0  0
   44.0620   35.2330   40.9860 O   0  0  0  0  0  0  0  0  0  0  0  0
   45.8162   32.9085   43.0475 H   0  0  0  0  0  0  0  0  0  0  0  0
   46.5257   35.1691   41.7176 H   0  0  0  0  0  0  0  0  0  0  0  0
   46.3056   36.5918   43.5189 H   0  0  0  0  0  0  0  0  0  0  0  0
   44.7634   36.7087   42.5449 H   0  0  0  0  0  0  0  0  0  0  0  0
   44.6417   36.6494   45.1271 H   0  0  0  0  0  0  0  0  0  0  0  0
   43.5197   35.6310   44.1069 H   0  0  0  0  0  0  0  0  0  0  0  0
   44.9936   34.7602   46.2513 H   0  0  0  0  0  0  0  0  0  0  0  0
   44.2738   33.7496   44.9284 H   0  0  0  0  0  0  0  0  0  0  0  0
   46.6343   33.1871   45.2966 H   0  0  0  0  0  0  0  0  0  0  0  0
   47.0870   34.9036   44.9717 H   0  0  0  0  0  0  0  0  0  0  0  0
   48.1242   35.7733   42.9225 H   0  0  0  0  0  0  0  0  0  0  0  0
   50.5664   35.6152   42.2827 H   0  0  0  0  0  0  0  0  0  0  0  0
   50.1303   31.3539   42.1373 H   0  0  0  0  0  0  0  0  0  0  0  0
   44.2506   33.3061   41.6675 H   0  0  0  0  0  0  0  0  0  0  0  0
  1  6  1  0
  2  3  1  0
  2  1  1  0
  3  4  1  0
  4  5  1  0
  6  5  1  0
  7  1  1  0
  8  7  2  0
  9  8  1  0
 10 11  1  0
 10  9  2  0
 11 12  2  0
 12  7  1  0
 13  2  1  0
 14 13  2  0
  1 15  1  1
  2 16  1  6
  3 17  1  0
  3 18  1  0
  4 19  1  0
  4 20  1  0
  5 21  1  0
  5 22  1  0
  6 23  1  0
  6 24  1  0
  8 25  1  0
  9 26  1  0
 11 27  1  0
 13 28  1  0
M  ISO  8  15  13  16  13  17  13  18  13  19  13  20  13  21  13  22  13
M  ISO  6  23  13  24  13  25  14  26  14  27  14  28   6
M  END
>  <minimizedAffinity>  (1) 
-4.25220108

>  <minimizedRMSD>  (1) 
2.13756061

$$$$
