
     RDKit          3D

 32 33  0  0  1  0  0  0  0  0999 V2000
   45.9910   33.5590   43.4260 C   0  0  2  0  0  0  0  0  0  0  0  0
   45.1340   34.6040   42.8600 C   0  0  1  0  0  0  0  0  0  0  0  0
   45.0550   35.8790   43.6630 C   0  0  0  0  0  0  0  0  0  0  0  0
   44.5420   35.5620   45.0640 C   0  0  0  0  0  0  0  0  0  0  0  0
   45.1540   34.3280   45.6640 C   0  0  0  0  0  0  0  0  0  0  0  0
   46.3490   33.8550   44.8760 C   0  0  0  0  0  0  0  0  0  0  0  0
   47.2520   33.3660   42.6970 C   0  0  0  0  0  0  0  0  0  0  0  0
   48.2760   34.3030   42.9270 C   0  0  0  0  0  0  0  0  0  0  0  0
   49.4990   34.1830   42.2670 C   0  0  0  0  0  0  0  0  0  0  0  0
   49.6240   33.1130   41.4030 N   0  0  0  0  0  0  0  0  0  0  0  0
   48.6340   32.2270   41.1960 C   0  0  0  0  0  0  0  0  0  0  0  0
   47.4540   32.3570   41.8430 N   0  0  0  0  0  0  0  0  0  0  0  0
   45.0360   34.7220   41.3940 C   0  0  0  0  0  0  0  0  0  0  0  0
   43.6610   35.2820   41.0100 C   0  0  0  0  0  0  0  0  0  0  0  0
   45.3900   32.6414   43.3434 H   0  0  0  0  0  0  0  0  0  0  0  0
   44.1435   34.1538   43.0217 H   0  0  0  0  0  0  0  0  0  0  0  0
   46.0549   36.3324   43.7318 H   0  0  0  0  0  0  0  0  0  0  0  0
   44.3684   36.5828   43.1699 H   0  0  0  0  0  0  0  0  0  0  0  0
   44.7688   36.4162   45.7189 H   0  0  0  0  0  0  0  0  0  0  0  0
   43.4612   35.3765   44.9773 H   0  0  0  0  0  0  0  0  0  0  0  0
   45.4723   34.5527   46.6927 H   0  0  0  0  0  0  0  0  0  0  0  0
   44.3974   33.5297   45.6493 H   0  0  0  0  0  0  0  0  0  0  0  0
   46.7408   32.9379   45.3401 H   0  0  0  0  0  0  0  0  0  0  0  0
   47.1024   34.6564   44.8847 H   0  0  0  0  0  0  0  0  0  0  0  0
   48.1116   35.1331   43.6298 H   0  0  0  0  0  0  0  0  0  0  0  0
   50.3177   34.9003   42.4258 H   0  0  0  0  0  0  0  0  0  0  0  0
   48.7850   31.3917   40.4963 H   0  0  0  0  0  0  0  0  0  0  0  0
   45.8216   35.3997   41.0286 H   0  0  0  0  0  0  0  0  0  0  0  0
   45.1638   33.7284   40.9398 H   0  0  0  0  0  0  0  0  0  0  0  0
   43.0917   35.5138   41.9222 H   0  0  0  0  0  0  0  0  0  0  0  0
   43.7913   36.1987   40.4162 H   0  0  0  0  0  0  0  0  0  0  0  0
   43.1137   34.5351   40.4162 H   0  0  0  0  0  0  0  0  0  0  0  0
  1  6  1  0
  2  1  1  0
  2  3  1  0
  3  4  1  0
  4  5  1  0
  6  5  1  0
  7  8  2  0
  7  1  1  0
  9  8  1  0
 10  9  2  0
 11 10  1  0
 11 12  2  0
 12  7  1  0
 13  2  1  0
 14 13  1  0
  1 15  1  1
  2 16  1  1
  3 17  1  0
  3 18  1  0
  4 19  1  0
  4 20  1  0
  5 21  1  0
  5 22  1  0
  6 23  1  0
  6 24  1  0
  8 25  1  0
  9 26  1  0
 11 27  1  0
 13 28  1  0
 13 29  1  0
 14 30  1  0
 14 31  1  0
 14 32  1  0
M  ISO  8  15  13  16  13  17  13  18  13  19  13  20  13  21  13  22  13
M  ISO  8  23  13  24  13  25  14  26  14  27  14  28   8  29   8  30   8
M  ISO  2  31   8  32   8
M  END
>  <minimizedAffinity>  (1) 
-4.18989038

>  <minimizedRMSD>  (1) 
2.66241074

$$$$
