
     RDKit          3D

 50 53  0  0  1  0  0  0  0  0999 V2000
   45.9550   33.8140   43.2340 C   0  0  2  0  0  0  0  0  0  0  0  0
   45.1260   34.8800   42.6050 C   0  0  2  0  0  0  0  0  0  0  0  0
   45.0070   36.0950   43.4480 C   0  0  0  0  0  0  0  0  0  0  0  0
   44.5650   35.8350   44.8640 C   0  0  0  0  0  0  0  0  0  0  0  0
   45.0810   34.5490   45.4370 C   0  0  0  0  0  0  0  0  0  0  0  0
   46.2900   34.0350   44.6780 C   0  0  0  0  0  0  0  0  0  0  0  0
   42.8050   35.3360   41.7140 C   0  0  1  0  0  0  0  0  0  0  0  0
   43.7630   34.3330   42.2400 C   0  0  1  0  0  0  0  0  0  0  0  0
   43.9390   33.3420   41.2820 O   0  0  0  0  0  0  0  0  0  0  0  0
   43.5370   33.8470   40.0580 C   0  0  0  0  0  0  0  0  0  0  0  0
   42.2900   34.6180   40.4570 C   0  0  2  0  0  0  0  0  0  0  0  0
   41.7330   35.5840   42.5450 O   0  0  0  0  0  0  0  0  0  0  0  0
   41.9200   35.5540   39.5160 O   0  0  0  0  0  0  0  0  0  0  0  0
   40.7050   35.4030   38.9590 C   0  0  1  0  0  0  0  0  0  0  0  0
   40.5940   34.3350   37.9040 C   0  0  0  0  0  0  0  0  0  0  0  0
   39.0610   34.2770   37.8240 C   0  0  0  0  0  0  0  0  0  0  0  0
   38.5980   34.4420   39.1160 O   0  0  0  0  0  0  0  0  0  0  0  0
   39.6380   34.8970   39.9160 C   0  0  0  0  0  0  0  0  0  0  0  0
   47.2050   33.5640   42.4910 C   0  0  0  0  0  0  0  0  0  0  0  0
   48.2990   34.3230   42.9110 C   0  0  0  0  0  0  0  0  0  0  0  0
   49.5450   34.1710   42.2840 C   0  0  0  0  0  0  0  0  0  0  0  0
   49.5910   33.2390   41.2530 N   0  0  0  0  0  0  0  0  0  0  0  0
   48.5060   32.5240   40.8770 C   0  0  0  0  0  0  0  0  0  0  0  0
   47.3110   32.6820   41.4930 N   0  0  0  0  0  0  0  0  0  0  0  0
   45.3005   32.9312   43.1860 H   0  0  0  0  0  0  0  0  0  0  0  0
   45.6453   35.1958   41.6882 H   0  0  0  0  0  0  0  0  0  0  0  0
   45.9900   36.5877   43.4804 H   0  0  0  0  0  0  0  0  0  0  0  0
   44.2266   36.7187   42.9875 H   0  0  0  0  0  0  0  0  0  0  0  0
   44.9212   36.6625   45.4951 H   0  0  0  0  0  0  0  0  0  0  0  0
   43.4678   35.7582   44.8462 H   0  0  0  0  0  0  0  0  0  0  0  0
   45.3649   34.7161   46.4865 H   0  0  0  0  0  0  0  0  0  0  0  0
   44.2831   33.7961   45.3565 H   0  0  0  0  0  0  0  0  0  0  0  0
   46.6174   33.0835   45.1223 H   0  0  0  0  0  0  0  0  0  0  0  0
   47.0932   34.7837   44.7439 H   0  0  0  0  0  0  0  0  0  0  0  0
   43.2806   36.3177   41.5722 H   0  0  0  0  0  0  0  0  0  0  0  0
   43.3195   33.9559   43.1733 H   0  0  0  0  0  0  0  0  0  0  0  0
   43.3034   33.0418   39.3460 H   0  0  0  0  0  0  0  0  0  0  0  0
   44.2991   34.4520   39.5450 H   0  0  0  0  0  0  0  0  0  0  0  0
   41.4035   33.9794   40.5843 H   0  0  0  0  0  0  0  0  0  0  0  0
   42.0245   35.5166   43.4887 H   0  0  0  0  0  0  0  0  0  0  0  0
   40.5646   36.4267   38.5817 H   0  0  0  0  0  0  0  0  0  0  0  0
   41.0502   34.6410   36.9510 H   0  0  0  0  0  0  0  0  0  0  0  0
   41.1036   33.3848   38.1217 H   0  0  0  0  0  0  0  0  0  0  0  0
   38.6827   35.0830   37.1781 H   0  0  0  0  0  0  0  0  0  0  0  0
   38.7190   33.3232   37.3958 H   0  0  0  0  0  0  0  0  0  0  0  0
   40.0342   34.0767   40.5326 H   0  0  0  0  0  0  0  0  0  0  0  0
   39.3037   35.6871   40.6044 H   0  0  0  0  0  0  0  0  0  0  0  0
   48.1838   35.0420   43.7355 H   0  0  0  0  0  0  0  0  0  0  0  0
   50.4284   34.7516   42.5883 H   0  0  0  0  0  0  0  0  0  0  0  0
   48.5966   31.7996   40.0541 H   0  0  0  0  0  0  0  0  0  0  0  0
  1  6  1  0
  2  1  1  0
  2  3  1  0
  3  4  1  0
  4  5  1  0
  6  5  1  0
  7  8  1  0
  7 12  1  0
  8  2  1  0
  9  8  1  0
 10 11  1  0
 10  9  1  0
 11  7  1  0
 13 11  1  0
 14 13  1  0
 14 18  1  0
 15 14  1  0
 16 15  1  0
 16 17  1  0
 17 18  1  0
 19 20  2  0
 19  1  1  0
 21 20  1  0
 22 21  2  0
 23 22  1  0
 23 24  2  0
 24 19  1  0
  1 25  1  1
  2 26  1  6
  3 27  1  0
  3 28  1  0
  4 29  1  0
  4 30  1  0
  5 31  1  0
  5 32  1  0
  6 33  1  0
  6 34  1  0
  7 35  1  6
  8 36  1  1
 10 37  1  0
 10 38  1  0
 11 39  1  1
 12 40  1  0
 14 41  1  6
 15 42  1  0
 15 43  1  0
 16 44  1  0
 16 45  1  0
 18 46  1  0
 18 47  1  0
 20 48  1  0
 21 49  1  0
 23 50  1  0
M  ISO  8  25  13  26  13  27  13  28  13  29  13  30  13  31  13  32  13
M  ISO  8  33  13  34  13  35  13  36  13  37  13  38  13  39  13  40   3
M  ISO  8  41  13  42  13  43  13  44  13  45  13  46  13  47  13  48  14
M  ISO  2  49  14  50  14
M  END
>  <minimizedAffinity>  (1) 
-6.48503733

>  <minimizedRMSD>  (1) 
0.704566479

$$$$
