
     RDKit          3D

 46 49  0  0  1  0  0  0  0  0999 V2000
   45.9380   33.7420   43.3360 C   0  0  2  0  0  0  0  0  0  0  0  0
   45.0250   34.7930   42.8050 C   0  0  2  0  0  0  0  0  0  0  0  0
   44.9350   35.9830   43.6880 C   0  0  0  0  0  0  0  0  0  0  0  0
   44.6190   35.6710   45.1260 C   0  0  0  0  0  0  0  0  0  0  0  0
   45.2240   34.3910   45.6210 C   0  0  0  0  0  0  0  0  0  0  0  0
   46.3870   33.9450   44.7540 C   0  0  0  0  0  0  0  0  0  0  0  0
   42.7380   35.0930   41.7760 C   0  0  1  0  0  0  0  0  0  0  0  0
   43.6560   34.2090   42.5370 C   0  0  1  0  0  0  0  0  0  0  0  0
   43.8260   33.0270   41.8270 O   0  0  0  0  0  0  0  0  0  0  0  0
   43.4560   33.2500   40.5160 C   0  0  0  0  0  0  0  0  0  0  0  0
   42.2290   34.1290   40.6990 C   0  0  2  0  0  0  0  0  0  0  0  0
   41.6570   35.5430   42.5030 O   0  0  0  0  0  0  0  0  0  0  0  0
   41.9120   34.8290   39.5460 O   0  0  0  0  0  0  0  0  0  0  0  0
   40.7060   34.5670   38.9100 C   0  0  0  0  0  0  0  0  0  0  0  0
   40.2540   34.9210   37.6560 C   0  0  0  0  0  0  0  0  0  0  0  0
   39.0090   34.4530   37.4490 N   0  0  0  0  0  0  0  0  0  0  0  0
   38.6490   33.7950   38.5640 C   0  0  0  0  0  0  0  0  0  0  0  0
   39.6800   33.8670   39.4470 N   0  0  0  0  0  0  0  0  0  0  0  0
   47.1320   33.5510   42.4880 C   0  0  0  0  0  0  0  0  0  0  0  0
   48.2600   34.2630   42.8950 C   0  0  0  0  0  0  0  0  0  0  0  0
   49.4600   34.1620   42.1750 C   0  0  0  0  0  0  0  0  0  0  0  0
   49.4230   33.3250   41.0660 N   0  0  0  0  0  0  0  0  0  0  0  0
   48.3050   32.6530   40.7040 C   0  0  0  0  0  0  0  0  0  0  0  0
   47.1530   32.7600   41.4110 N   0  0  0  0  0  0  0  0  0  0  0  0
   45.3099   32.8391   43.3182 H   0  0  0  0  0  0  0  0  0  0  0  0
   45.4572   35.1479   41.8578 H   0  0  0  0  0  0  0  0  0  0  0  0
   45.9004   36.5092   43.6548 H   0  0  0  0  0  0  0  0  0  0  0  0
   44.1003   36.5911   43.3092 H   0  0  0  0  0  0  0  0  0  0  0  0
   44.9959   36.4952   45.7494 H   0  0  0  0  0  0  0  0  0  0  0  0
   43.5274   35.5532   45.1930 H   0  0  0  0  0  0  0  0  0  0  0  0
   45.5839   34.5416   46.6495 H   0  0  0  0  0  0  0  0  0  0  0  0
   44.4502   33.6101   45.5833 H   0  0  0  0  0  0  0  0  0  0  0  0
   46.7884   32.9987   45.1456 H   0  0  0  0  0  0  0  0  0  0  0  0
   47.1641   34.7233   44.7732 H   0  0  0  0  0  0  0  0  0  0  0  0
   43.2448   36.0069   41.4327 H   0  0  0  0  0  0  0  0  0  0  0  0
   43.1819   34.0573   43.5179 H   0  0  0  0  0  0  0  0  0  0  0  0
   43.2052   32.3100   40.0028 H   0  0  0  0  0  0  0  0  0  0  0  0
   44.2447   33.7004   39.8954 H   0  0  0  0  0  0  0  0  0  0  0  0
   41.3150   33.5707   40.9497 H   0  0  0  0  0  0  0  0  0  0  0  0
   41.8527   35.4615   43.4700 H   0  0  0  0  0  0  0  0  0  0  0  0
   40.8318   35.5057   36.9251 H   0  0  0  0  0  0  0  0  0  0  0  0
   38.4409   34.5758   36.5986 H   0  0  0  0  0  0  0  0  0  0  0  0
   37.6880   33.2870   38.7327 H   0  0  0  0  0  0  0  0  0  0  0  0
   48.2086   34.9072   43.7852 H   0  0  0  0  0  0  0  0  0  0  0  0
   50.3686   34.7083   42.4684 H   0  0  0  0  0  0  0  0  0  0  0  0
   48.3318   32.0050   39.8155 H   0  0  0  0  0  0  0  0  0  0  0  0
  1  6  1  0
  2  1  1  0
  2  3  1  0
  3  4  1  0
  4  5  1  0
  6  5  1  0
  7 12  1  0
  7  8  1  0
  8  2  1  0
  9  8  1  0
 10 11  1  0
 10  9  1  0
 11  7  1  0
 13 11  1  0
 14 18  1  0
 14 13  1  0
 15 14  2  0
 16 15  1  0
 16 17  1  0
 17 18  2  0
 19 20  2  0
 19  1  1  0
 21 20  1  0
 22 21  2  0
 23 22  1  0
 23 24  2  0
 24 19  1  0
  1 25  1  1
  2 26  1  6
  3 27  1  0
  3 28  1  0
  4 29  1  0
  4 30  1  0
  5 31  1  0
  5 32  1  0
  6 33  1  0
  6 34  1  0
  7 35  1  6
  8 36  1  1
 10 37  1  0
 10 38  1  0
 11 39  1  1
 12 40  1  0
 15 41  1  0
 16 42  1  0
 17 43  1  0
 20 44  1  0
 21 45  1  0
 23 46  1  0
M  ISO  8  25  13  26  13  27  13  28  13  29  13  30  13  31  13  32  13
M  ISO  8  33  13  34  13  35  13  36  13  37  13  38  13  39  13  40   3
M  ISO  6  41  14  42   9  43  14  44  14  45  14  46  14
M  END
>  <minimizedAffinity>  (1) 
-5.89305353

>  <minimizedRMSD>  (1) 
0.956749499

$$$$
