
     RDKit          3D

 34 36  0  0  0  0  0  0  0  0999 V2000
   47.4580   31.8120   44.8710 Cl  0  0  0  0  0  0  0  0  0  0  0  0
   46.6360   31.8190   46.4420 C   0  0  0  0  0  0  0  0  0  0  0  0
   45.7490   32.8450   46.6940 C   0  0  0  0  0  0  0  0  0  0  0  0
   45.1280   32.8400   47.8970 C   0  0  0  0  0  0  0  0  0  0  0  0
   45.4130   31.8080   48.8140 C   0  0  0  0  0  0  0  0  0  0  0  0
   46.3040   30.7980   48.5330 C   0  0  0  0  0  0  0  0  0  0  0  0
   46.9510   30.7900   47.2990 C   0  0  0  0  0  0  0  0  0  0  0  0
   49.4220   30.9050   48.4680 F   0  0  0  0  0  0  0  0  0  0  0  0
   49.1280   29.9140   47.5880 C   0  0  0  0  0  0  0  0  0  0  0  0
   47.9110   29.7480   46.9290 C   0  0  0  0  0  0  0  0  0  0  0  0
   47.7260   28.7010   46.0540 C   0  0  0  0  0  0  0  0  0  0  0  0
   48.7660   27.8270   45.8450 C   0  0  0  0  0  0  0  0  0  0  0  0
   49.9880   27.9590   46.4790 C   0  0  0  0  0  0  0  0  0  0  0  0
   50.1710   29.0190   47.3640 C   0  0  0  0  0  0  0  0  0  0  0  0
   44.4960   35.8200   45.0260 C   0  0  0  0  0  0  0  0  0  0  0  0
   45.0980   35.7950   43.7470 C   0  0  0  0  0  0  0  0  0  0  0  0
   45.9550   34.6980   43.4970 C   0  0  0  0  0  0  0  0  0  0  0  0
   46.1240   33.7840   44.4840 N   0  0  0  0  0  0  0  0  0  0  0  0
   45.5100   33.8700   45.6990 C   0  0  0  0  0  0  0  0  0  0  0  0
   44.6960   34.8960   45.9570 N   0  0  0  0  0  0  0  0  0  0  0  0
   46.5700   34.6830   42.1740 C   0  0  0  0  0  0  0  0  0  0  0  0
   47.2990   33.5190   42.0270 F   0  0  0  0  0  0  0  0  0  0  0  0
   47.5000   35.7160   42.1620 F   0  0  0  0  0  0  0  0  0  0  0  0
   45.6540   34.7510   41.1570 F   0  0  0  0  0  0  0  0  0  0  0  0
   44.8750   36.7690   42.7890 O   0  0  0  0  0  0  0  0  0  0  0  0
   44.4096   33.6318   48.1558 H   0  0  0  0  0  0  0  0  0  0  0  0
   44.9047   31.8103   49.7895 H   0  0  0  0  0  0  0  0  0  0  0  0
   46.5028   30.0079   49.2721 H   0  0  0  0  0  0  0  0  0  0  0  0
   46.7663   28.5669   45.5334 H   0  0  0  0  0  0  0  0  0  0  0  0
   48.6207   26.9899   45.1463 H   0  0  0  0  0  0  0  0  0  0  0  0
   50.7993   27.2412   46.2882 H   0  0  0  0  0  0  0  0  0  0  0  0
   51.1326   29.1482   47.8823 H   0  0  0  0  0  0  0  0  0  0  0  0
   43.8213   36.6557   45.2636 H   0  0  0  0  0  0  0  0  0  0  0  0
   45.3205   36.7070   41.9071 H   0  0  0  0  0  0  0  0  0  0  0  0
  1  2  1  0
  2  3  2  0
  2  7  1  0
  3  4  1  0
  4  5  2  0
  6  5  1  0
  7  6  2  0
  9  8  1  0
 10  7  1  0
 10  9  2  0
 11 10  1  0
 12 11  2  0
 12 13  1  0
 13 14  2  0
 14  9  1  0
 15 20  2  0
 16 15  1  0
 17 16  2  0
 17 18  1  0
 18 19  2  0
 19 20  1  0
 19  3  1  0
 21 17  1  0
 22 21  1  0
 23 21  1  0
 24 21  1  0
 25 16  1  0
  4 26  1  0
  5 27  1  0
  6 28  1  0
 11 29  1  0
 12 30  1  0
 13 31  1  0
 14 32  1  0
 15 33  1  0
 25 34  1  0
M  ISO  8  26  14  27  14  28  14  29  14  30  14  31  14  32  14  33  14
M  ISO  1  34   3
M  END
>  <minimizedAffinity>  (1) 
-6.42602205

>  <minimizedRMSD>  (1) 
0.230056286

$$$$
