
     RDKit          3D

 26 27  0  0  0  0  0  0  0  0999 V2000
   43.6290   35.3840   41.4060 C   0  0  0  0  0  0  0  0  0  0  0  0
   42.5450   34.8890   40.8600 C   0  0  0  0  0  0  0  0  0  0  0  0
   44.2860   35.8800   43.7730 C   0  0  0  0  0  0  0  0  0  0  0  0
   44.2070   35.0180   42.6830 C   0  0  0  0  0  0  0  0  0  0  0  0
   44.7090   33.7380   42.8280 C   0  0  0  0  0  0  0  0  0  0  0  0
   45.2670   33.3570   44.0270 N   0  0  0  0  0  0  0  0  0  0  0  0
   45.3240   34.2330   45.0670 C   0  0  0  0  0  0  0  0  0  0  0  0
   44.8380   35.4740   44.9300 N   0  0  0  0  0  0  0  0  0  0  0  0
   42.0380   35.3380   39.5290 C   0  0  0  0  0  0  0  0  0  0  0  0
   40.6980   34.7590   39.2720 C   0  0  0  0  0  0  0  0  0  0  0  0
   40.2090   34.6730   37.9810 C   0  0  0  0  0  0  0  0  0  0  0  0
   38.9600   34.1400   37.6810 C   0  0  0  0  0  0  0  0  0  0  0  0
   38.2270   33.6940   38.7700 C   0  0  0  0  0  0  0  0  0  0  0  0
   38.7160   33.7800   40.0710 C   0  0  0  0  0  0  0  0  0  0  0  0
   39.9340   34.3100   40.2730 N   0  0  0  0  0  0  0  0  0  0  0  0
   44.1565   36.1608   40.8330 H   0  0  0  0  0  0  0  0  0  0  0  0
   41.9869   34.1124   41.4035 H   0  0  0  0  0  0  0  0  0  0  0  0
   43.8929   36.9038   43.6871 H   0  0  0  0  0  0  0  0  0  0  0  0
   44.6627   33.0277   41.9893 H   0  0  0  0  0  0  0  0  0  0  0  0
   45.7704   33.9212   46.0228 H   0  0  0  0  0  0  0  0  0  0  0  0
   41.9681   36.4357   39.5178 H   0  0  0  0  0  0  0  0  0  0  0  0
   42.7326   34.9989   38.7463 H   0  0  0  0  0  0  0  0  0  0  0  0
   40.8353   35.0423   37.1556 H   0  0  0  0  0  0  0  0  0  0  0  0
   38.5799   34.0767   36.6507 H   0  0  0  0  0  0  0  0  0  0  0  0
   37.2305   33.2597   38.6015 H   0  0  0  0  0  0  0  0  0  0  0  0
   38.1151   33.4200   40.9192 H   0  0  0  0  0  0  0  0  0  0  0  0
  1  4  1  0
  2  1  2  0
  3  8  2  0
  4  5  2  0
  4  3  1  0
  5  6  1  0
  6  7  2  0
  8  7  1  0
  9  2  1  0
 10  9  1  0
 10 15  1  0
 11 10  2  0
 12 11  1  0
 12 13  2  0
 13 14  1  0
 14 15  2  0
  1 16  1  0
  2 17  1  0
  3 18  1  0
  5 19  1  0
  7 20  1  0
  9 21  1  0
  9 22  1  0
 11 23  1  0
 12 24  1  0
 13 25  1  0
 14 26  1  0
M  ISO  8  18  14  19  14  20  14  21   8  22   8  23  14  24  14  25  14
M  ISO  1  26  14
M  END
>  <minimizedAffinity>  (1) 
-4.98815346

>  <minimizedRMSD>  (1) 
2.49017644

$$$$
