
     RDKit          3D

 31 32  0  0  0  0  0  0  0  0999 V2000
   42.5440   35.2620   39.9380 C   0  0  0  0  0  0  0  0  0  0  0  0
   41.1270   35.2120   39.7760 N   0  0  0  0  0  0  0  0  0  0  0  0
   40.4140   34.7840   40.9510 C   0  0  0  0  0  0  0  0  0  0  0  0
   39.3410   33.7580   40.6540 C   0  0  0  0  0  0  0  0  0  0  0  0
   38.5420   34.3090   39.5710 N   0  0  0  0  0  0  0  0  0  0  0  0
   39.3200   34.3080   38.3670 C   0  0  0  0  0  0  0  0  0  0  0  0
   40.7900   34.5440   38.5640 C   0  0  0  0  0  0  0  0  0  0  0  0
   43.9870   35.2990   41.9260 C   0  0  0  0  0  0  0  0  0  0  0  0
   42.9600   34.7550   41.2820 C   0  0  0  0  0  0  0  0  0  0  0  0
   44.2990   35.6910   44.3760 C   0  0  0  0  0  0  0  0  0  0  0  0
   44.4730   34.8880   43.2260 C   0  0  0  0  0  0  0  0  0  0  0  0
   45.1330   33.6860   43.3920 C   0  0  0  0  0  0  0  0  0  0  0  0
   45.5870   33.3030   44.6130 N   0  0  0  0  0  0  0  0  0  0  0  0
   45.3970   34.1070   45.6940 C   0  0  0  0  0  0  0  0  0  0  0  0
   44.7630   35.2760   45.5610 N   0  0  0  0  0  0  0  0  0  0  0  0
   42.8797   36.3039   39.8294 H   0  0  0  0  0  0  0  0  0  0  0  0
   43.0021   34.6211   39.1703 H   0  0  0  0  0  0  0  0  0  0  0  0
   41.1340   34.3434   41.6563 H   0  0  0  0  0  0  0  0  0  0  0  0
   39.9141   35.6689   41.3717 H   0  0  0  0  0  0  0  0  0  0  0  0
   39.7982   32.8065   40.3447 H   0  0  0  0  0  0  0  0  0  0  0  0
   38.7254   33.5529   41.5423 H   0  0  0  0  0  0  0  0  0  0  0  0
   37.6985   33.7332   39.4371 H   0  0  0  0  0  0  0  0  0  0  0  0
   38.9320   35.0994   37.7088 H   0  0  0  0  0  0  0  0  0  0  0  0
   39.2241   33.2994   37.9385 H   0  0  0  0  0  0  0  0  0  0  0  0
   41.2978   33.5683   38.5576 H   0  0  0  0  0  0  0  0  0  0  0  0
   41.1119   35.2039   37.7449 H   0  0  0  0  0  0  0  0  0  0  0  0
   44.5108   36.1298   41.4306 H   0  0  0  0  0  0  0  0  0  0  0  0
   42.4092   33.9218   41.7429 H   0  0  0  0  0  0  0  0  0  0  0  0
   43.7815   36.6585   44.2971 H   0  0  0  0  0  0  0  0  0  0  0  0
   45.2929   33.0303   42.5234 H   0  0  0  0  0  0  0  0  0  0  0  0
   45.7667   33.7936   46.6815 H   0  0  0  0  0  0  0  0  0  0  0  0
  1  9  1  0
  2  1  1  0
  2  3  1  0
  4  3  1  0
  5  4  1  0
  6  7  1  0
  6  5  1  0
  7  2  1  0
  8 11  1  0
  9  8  2  0
 10 15  2  0
 11 12  2  0
 11 10  1  0
 12 13  1  0
 13 14  2  0
 15 14  1  0
  1 16  1  0
  1 17  1  0
  3 18  1  0
  3 19  1  0
  4 20  1  0
  4 21  1  0
  5 22  1  0
  6 23  1  0
  6 24  1  0
  7 25  1  0
  7 26  1  0
  8 27  1  0
  9 28  1  0
 10 29  1  0
 12 30  1  0
 14 31  1  0
M  ISO  8  16   8  17   8  18  13  19  13  20  13  21  13  22   5  23  13
M  ISO  6  24  13  25  13  26  13  29  14  30  14  31  14
M  END
>  <minimizedAffinity>  (1) 
-4.44365931

>  <minimizedRMSD>  (1) 
2.5795331

$$$$
