
     RDKit          3D

 24 25  0  0  0  0  0  0  0  0999 V2000
   44.0140   35.3060   41.7250 C   0  0  0  0  0  0  0  0  0  0  0  0
   42.9690   34.8190   41.1000 C   0  0  0  0  0  0  0  0  0  0  0  0
   44.2930   35.7980   44.1770 C   0  0  0  0  0  0  0  0  0  0  0  0
   44.4570   34.9480   43.0630 C   0  0  0  0  0  0  0  0  0  0  0  0
   45.0660   33.7240   43.2690 C   0  0  0  0  0  0  0  0  0  0  0  0
   45.4870   33.3760   44.5240 N   0  0  0  0  0  0  0  0  0  0  0  0
   45.3040   34.2350   45.5630 C   0  0  0  0  0  0  0  0  0  0  0  0
   44.7120   35.4340   45.3830 N   0  0  0  0  0  0  0  0  0  0  0  0
   42.6130   35.2750   39.7050 C   0  0  0  0  0  0  0  0  0  0  0  0
   41.1590   35.0030   39.4900 C   0  0  0  0  0  0  0  0  0  0  0  0
   40.1610   35.0230   40.4320 C   0  0  0  0  0  0  0  0  0  0  0  0
   39.0150   34.7060   39.7170 C   0  0  0  0  0  0  0  0  0  0  0  0
   39.3680   34.5200   38.4380 N   0  0  0  0  0  0  0  0  0  0  0  0
   40.6470   34.6920   38.2730 N   0  0  0  0  0  0  0  0  0  0  0  0
   44.6118   36.0560   41.1863 H   0  0  0  0  0  0  0  0  0  0  0  0
   42.3417   34.0663   41.5999 H   0  0  0  0  0  0  0  0  0  0  0  0
   43.8105   36.7776   44.0443 H   0  0  0  0  0  0  0  0  0  0  0  0
   45.2118   33.0318   42.4266 H   0  0  0  0  0  0  0  0  0  0  0  0
   45.6449   33.9467   46.5683 H   0  0  0  0  0  0  0  0  0  0  0  0
   42.8110   36.3521   39.6019 H   0  0  0  0  0  0  0  0  0  0  0  0
   43.2178   34.7372   38.9600 H   0  0  0  0  0  0  0  0  0  0  0  0
   40.2494   35.2404   41.5067 H   0  0  0  0  0  0  0  0  0  0  0  0
   37.9978   34.6223   40.1272 H   0  0  0  0  0  0  0  0  0  0  0  0
   38.7120   34.2729   37.6833 H   0  0  0  0  0  0  0  0  0  0  0  0
  1  4  1  0
  2  1  2  0
  3  8  2  0
  4  5  2  0
  4  3  1  0
  5  6  1  0
  6  7  2  0
  8  7  1  0
  9  2  1  0
 10  9  1  0
 10 11  1  0
 12 11  2  0
 13 12  1  0
 14 13  1  0
 14 10  2  0
  1 15  1  0
  2 16  1  0
  3 17  1  0
  5 18  1  0
  7 19  1  0
  9 20  1  0
  9 21  1  0
 11 22  1  0
 12 23  1  0
 13 24  1  0
M  ISO  8  17  14  18  14  19  14  20   8  21   8  22  14  23  14  24   9
M  END
>  <minimizedAffinity>  (1) 
-4.41422892

>  <minimizedRMSD>  (1) 
2.12744045

$$$$
