
     RDKit          3D

 24 25  0  0  0  0  0  0  0  0999 V2000
   44.2910   35.9010   43.4340 C   0  0  0  0  0  0  0  0  0  0  0  0
   44.4330   34.8290   42.5570 C   0  0  0  0  0  0  0  0  0  0  0  0
   44.9350   33.6400   43.0560 C   0  0  0  0  0  0  0  0  0  0  0  0
   45.2690   33.5560   44.3750 N   0  0  0  0  0  0  0  0  0  0  0  0
   45.1180   34.6210   45.2060 C   0  0  0  0  0  0  0  0  0  0  0  0
   44.6300   35.7840   44.7300 N   0  0  0  0  0  0  0  0  0  0  0  0
   44.0750   34.9290   41.1570 C   0  0  0  0  0  0  0  0  0  0  0  0
   42.8920   34.7420   40.6270 C   0  0  0  0  0  0  0  0  0  0  0  0
   42.6070   34.8640   39.1690 C   0  0  0  0  0  0  0  0  0  0  0  0
   41.2950   35.5410   38.8930 C   0  0  0  0  0  0  0  0  0  0  0  0
   41.2550   36.2040   37.5260 C   0  0  0  0  0  0  0  0  0  0  0  0
   40.4030   35.0170   37.7970 C   0  0  0  0  0  0  0  0  0  0  0  0
   43.8958   36.8575   43.0613 H   0  0  0  0  0  0  0  0  0  0  0  0
   45.0634   32.7706   42.3945 H   0  0  0  0  0  0  0  0  0  0  0  0
   45.3941   34.5339   46.2672 H   0  0  0  0  0  0  0  0  0  0  0  0
   44.8865   35.1910   40.4621 H   0  0  0  0  0  0  0  0  0  0  0  0
   42.0600   34.4795   41.2970 H   0  0  0  0  0  0  0  0  0  0  0  0
   43.4115   35.4498   38.7003 H   0  0  0  0  0  0  0  0  0  0  0  0
   42.5517   33.8470   38.7535 H   0  0  0  0  0  0  0  0  0  0  0  0
   41.1089   35.8050   39.9445 H   0  0  0  0  0  0  0  0  0  0  0  0
   42.1172   36.1184   36.8483 H   0  0  0  0  0  0  0  0  0  0  0  0
   41.0707   37.2260   37.1634 H   0  0  0  0  0  0  0  0  0  0  0  0
   39.3121   35.1333   37.8769 H   0  0  0  0  0  0  0  0  0  0  0  0
   40.2674   34.0380   37.3142 H   0  0  0  0  0  0  0  0  0  0  0  0
  1  6  2  0
  2  3  2  0
  2  1  1  0
  3  4  1  0
  4  5  2  0
  6  5  1  0
  7  2  1  0
  8  7  2  0
  9  8  1  0
 10  9  1  0
 11 12  1  0
 11 10  1  0
 12 10  1  0
  1 13  1  0
  3 14  1  0
  5 15  1  0
  7 16  1  0
  8 17  1  0
  9 18  1  0
  9 19  1  0
 10 20  1  0
 11 21  1  0
 11 22  1  0
 12 23  1  0
 12 24  1  0
M  ISO  8  13  14  14  14  15  14  18   8  19   8  20  13  21  13  22  13
M  ISO  2  23  13  24  13
M  END
>  <minimizedAffinity>  (1) 
-4.10964203

>  <minimizedRMSD>  (1) 
0.69927752

$$$$
