
     RDKit          3D

 34 36  0  0  0  0  0  0  0  0999 V2000
   43.9490   35.2770   41.7130 C   0  0  0  0  0  0  0  0  0  0  0  0
   42.7850   35.0500   41.1780 C   0  0  0  0  0  0  0  0  0  0  0  0
   44.4510   35.4810   44.1580 C   0  0  0  0  0  0  0  0  0  0  0  0
   44.4480   34.7020   42.9710 C   0  0  0  0  0  0  0  0  0  0  0  0
   44.9210   33.4040   43.0250 C   0  0  0  0  0  0  0  0  0  0  0  0
   45.3630   32.9590   44.2370 N   0  0  0  0  0  0  0  0  0  0  0  0
   45.3560   33.7040   45.3370 C   0  0  0  0  0  0  0  0  0  0  0  0
   44.9030   34.9570   45.2990 N   0  0  0  0  0  0  0  0  0  0  0  0
   45.8360   33.1930   46.6130 C   0  0  0  0  0  0  0  0  0  0  0  0
   47.0570   32.6110   46.9020 C   0  0  0  0  0  0  0  0  0  0  0  0
   46.9920   32.3120   48.2480 C   0  0  0  0  0  0  0  0  0  0  0  0
   45.8000   32.6900   48.7510 N   0  0  0  0  0  0  0  0  0  0  0  0
   45.1020   33.2230   47.7560 N   0  0  0  0  0  0  0  0  0  0  0  0
   42.3340   35.6630   39.9000 C   0  0  0  0  0  0  0  0  0  0  0  0
   41.5040   35.7630   37.2360 F   0  0  0  0  0  0  0  0  0  0  0  0
   40.6720   35.1690   38.1240 C   0  0  0  0  0  0  0  0  0  0  0  0
   41.0620   35.1050   39.4690 C   0  0  0  0  0  0  0  0  0  0  0  0
   40.1250   34.4800   40.2510 C   0  0  0  0  0  0  0  0  0  0  0  0
   38.9220   33.9440   39.8840 C   0  0  0  0  0  0  0  0  0  0  0  0
   38.6290   34.0610   38.5270 C   0  0  0  0  0  0  0  0  0  0  0  0
   39.4720   34.6620   37.6230 C   0  0  0  0  0  0  0  0  0  0  0  0
   44.6213   35.9616   41.1751 H   0  0  0  0  0  0  0  0  0  0  0  0
   42.0971   34.3678   41.6990 H   0  0  0  0  0  0  0  0  0  0  0  0
   44.0807   36.5166   44.1371 H   0  0  0  0  0  0  0  0  0  0  0  0
   44.9402   32.7604   42.1332 H   0  0  0  0  0  0  0  0  0  0  0  0
   47.8940   32.4272   46.2123 H   0  0  0  0  0  0  0  0  0  0  0  0
   47.7965   31.8344   48.8264 H   0  0  0  0  0  0  0  0  0  0  0  0
   45.4884   32.5847   49.7271 H   0  0  0  0  0  0  0  0  0  0  0  0
   42.2199   36.7477   40.0429 H   0  0  0  0  0  0  0  0  0  0  0  0
   43.0873   35.4507   39.1270 H   0  0  0  0  0  0  0  0  0  0  0  0
   40.3753   34.3988   41.3191 H   0  0  0  0  0  0  0  0  0  0  0  0
   38.2419   33.4605   40.6007 H   0  0  0  0  0  0  0  0  0  0  0  0
   37.6757   33.6521   38.1609 H   0  0  0  0  0  0  0  0  0  0  0  0
   39.2135   34.7396   36.5566 H   0  0  0  0  0  0  0  0  0  0  0  0
  1  4  1  0
  2  1  2  0
  3  8  2  0
  4  5  2  0
  4  3  1  0
  5  6  1  0
  6  7  2  0
  7  9  1  0
  8  7  1  0
  9 10  1  0
  9 13  2  0
 10 11  2  0
 11 12  1  0
 13 12  1  0
 14  2  1  0
 15 16  1  0
 16 17  2  0
 17 14  1  0
 17 18  1  0
 19 18  2  0
 20 19  1  0
 21 16  1  0
 21 20  2  0
  1 22  1  0
  2 23  1  0
  3 24  1  0
  5 25  1  0
 10 26  1  0
 11 27  1  0
 12 28  1  0
 14 29  1  0
 14 30  1  0
 18 31  1  0
 19 32  1  0
 20 33  1  0
 21 34  1  0
M  ISO  8  24  14  25  14  26  14  27  14  28   9  29   8  30   8  31  14
M  ISO  3  32  14  33  14  34  14
M  END
>  <minimizedAffinity>  (1) 
-6.42376518

>  <minimizedRMSD>  (1) 
0.838236392

$$$$
