
     RDKit          3D

 33 35  0  0  0  0  0  0  0  0999 V2000
   43.7570   35.4310   41.9910 C   0  0  0  0  0  0  0  0  0  0  0  0
   42.5770   35.2030   41.4840 C   0  0  0  0  0  0  0  0  0  0  0  0
   44.5370   35.3300   44.3750 C   0  0  0  0  0  0  0  0  0  0  0  0
   44.3650   34.7080   43.1100 C   0  0  0  0  0  0  0  0  0  0  0  0
   44.7850   33.4030   42.9440 C   0  0  0  0  0  0  0  0  0  0  0  0
   45.3470   32.7840   44.0250 N   0  0  0  0  0  0  0  0  0  0  0  0
   45.5000   33.3800   45.2020 C   0  0  0  0  0  0  0  0  0  0  0  0
   45.0980   34.6390   45.3730 N   0  0  0  0  0  0  0  0  0  0  0  0
   46.0860   32.7770   46.3870 C   0  0  0  0  0  0  0  0  0  0  0  0
   47.3850   32.0450   46.5070 C   0  0  0  0  0  0  0  0  0  0  0  0
   47.3480   31.6210   48.3420 S   0  0  0  0  0  0  0  0  0  0  0  0
   45.6690   32.4760   48.5580 C   0  0  0  0  0  0  0  0  0  0  0  0
   45.3750   32.8900   47.5080 N   0  0  0  0  0  0  0  0  0  0  0  0
   42.0210   35.9840   40.3400 C   0  0  0  0  0  0  0  0  0  0  0  0
   41.7180   35.7530   37.5830 F   0  0  0  0  0  0  0  0  0  0  0  0
   40.7490   35.2090   38.3680 C   0  0  0  0  0  0  0  0  0  0  0  0
   40.8810   35.3130   39.7520 C   0  0  0  0  0  0  0  0  0  0  0  0
   39.8290   34.7190   40.4220 C   0  0  0  0  0  0  0  0  0  0  0  0
   38.7400   34.0790   39.8920 C   0  0  0  0  0  0  0  0  0  0  0  0
   38.7190   34.0390   38.4980 C   0  0  0  0  0  0  0  0  0  0  0  0
   39.6940   34.5850   37.6980 C   0  0  0  0  0  0  0  0  0  0  0  0
   44.3489   36.2394   41.5370 H   0  0  0  0  0  0  0  0  0  0  0  0
   41.9644   34.3995   41.9189 H   0  0  0  0  0  0  0  0  0  0  0  0
   44.2122   36.3691   44.5322 H   0  0  0  0  0  0  0  0  0  0  0  0
   44.6718   32.8831   41.9812 H   0  0  0  0  0  0  0  0  0  0  0  0
   48.1437   31.8192   45.7432 H   0  0  0  0  0  0  0  0  0  0  0  0
   45.0883   32.5639   49.4881 H   0  0  0  0  0  0  0  0  0  0  0  0
   41.7072   36.9746   40.7008 H   0  0  0  0  0  0  0  0  0  0  0  0
   42.8025   36.0802   39.5718 H   0  0  0  0  0  0  0  0  0  0  0  0
   39.8712   34.7659   41.5202 H   0  0  0  0  0  0  0  0  0  0  0  0
   37.9488   33.6341   40.5134 H   0  0  0  0  0  0  0  0  0  0  0  0
   37.8697   33.5397   38.0087 H   0  0  0  0  0  0  0  0  0  0  0  0
   39.6466   34.5339   36.6002 H   0  0  0  0  0  0  0  0  0  0  0  0
  1  4  1  0
  2  1  2  0
  3  8  2  0
  4  3  1  0
  5  4  2  0
  5  6  1  0
  6  7  2  0
  7  8  1  0
  7  9  1  0
  9 10  2  0
  9 13  1  0
 10 11  1  0
 11 12  1  0
 13 12  2  0
 14  2  1  0
 15 16  1  0
 16 17  2  0
 17 14  1  0
 17 18  1  0
 19 18  2  0
 20 19  1  0
 21 16  1  0
 21 20  2  0
  1 22  1  0
  2 23  1  0
  3 24  1  0
  5 25  1  0
 10 26  1  0
 12 27  1  0
 14 28  1  0
 14 29  1  0
 18 30  1  0
 19 31  1  0
 20 32  1  0
 21 33  1  0
M  ISO  8  24  14  25  14  26  14  27  14  28   8  29   8  30  14  31  14
M  ISO  2  32  14  33  14
M  END
>  <minimizedAffinity>  (1) 
-6.01587772

>  <minimizedRMSD>  (1) 
0.945478678

$$$$
