
     RDKit          3D

 43 45  0  0  0  0  0  0  0  0999 V2000
   44.2380   35.6690   43.0890 C   0  0  0  0  0  0  0  0  0  0  0  0
   43.7390   34.7980   42.0840 C   0  0  0  0  0  0  0  0  0  0  0  0
   44.0790   33.4620   42.1560 C   0  0  0  0  0  0  0  0  0  0  0  0
   44.8760   33.0890   43.2000 N   0  0  0  0  0  0  0  0  0  0  0  0
   45.3370   33.9200   44.1380 C   0  0  0  0  0  0  0  0  0  0  0  0
   45.0080   35.2080   44.0670 N   0  0  0  0  0  0  0  0  0  0  0  0
   46.1940   33.4840   45.2500 C   0  0  0  0  0  0  0  0  0  0  0  0
   45.4180   33.5690   46.5610 C   0  0  0  0  0  0  0  0  0  0  0  0
   43.9710   31.9770   48.3460 F   0  0  0  0  0  0  0  0  0  0  0  0
   45.3350   31.8220   48.3740 C   0  0  0  0  0  0  0  0  0  0  0  0
   46.0570   32.6040   47.4950 C   0  0  0  0  0  0  0  0  0  0  0  0
   47.4240   32.4630   47.5060 C   0  0  0  0  0  0  0  0  0  0  0  0
   47.9970   31.5660   48.3760 C   0  0  0  0  0  0  0  0  0  0  0  0
   47.2980   30.7750   49.2630 C   0  0  0  0  0  0  0  0  0  0  0  0
   45.9080   30.9200   49.2490 C   0  0  0  0  0  0  0  0  0  0  0  0
   42.8890   35.3180   41.0090 C   0  0  0  0  0  0  0  0  0  0  0  0
   41.5970   35.5400   41.1190 C   0  0  0  0  0  0  0  0  0  0  0  0
   40.7630   36.0680   40.0040 C   0  0  0  0  0  0  0  0  0  0  0  0
   40.5830   35.5740   37.2590 F   0  0  0  0  0  0  0  0  0  0  0  0
   39.8210   34.8450   38.0880 C   0  0  0  0  0  0  0  0  0  0  0  0
   39.8740   35.0540   39.4710 C   0  0  0  0  0  0  0  0  0  0  0  0
   39.0450   34.2400   40.1930 C   0  0  0  0  0  0  0  0  0  0  0  0
   38.1950   33.2730   39.7080 C   0  0  0  0  0  0  0  0  0  0  0  0
   38.1990   33.1260   38.3250 C   0  0  0  0  0  0  0  0  0  0  0  0
   38.9870   33.8840   37.5020 C   0  0  0  0  0  0  0  0  0  0  0  0
   43.9832   36.7386   43.0564 H   0  0  0  0  0  0  0  0  0  0  0  0
   43.7257   32.7348   41.4101 H   0  0  0  0  0  0  0  0  0  0  0  0
   46.5127   32.4449   45.0804 H   0  0  0  0  0  0  0  0  0  0  0  0
   47.0776   34.1367   45.3066 H   0  0  0  0  0  0  0  0  0  0  0  0
   45.4749   34.5883   46.9706 H   0  0  0  0  0  0  0  0  0  0  0  0
   44.3549   33.3305   46.4095 H   0  0  0  0  0  0  0  0  0  0  0  0
   48.0513   33.0600   46.8277 H   0  0  0  0  0  0  0  0  0  0  0  0
   49.0929   31.4725   48.3636 H   0  0  0  0  0  0  0  0  0  0  0  0
   47.8040   30.0720   49.9410 H   0  0  0  0  0  0  0  0  0  0  0  0
   45.2787   30.3236   49.9259 H   0  0  0  0  0  0  0  0  0  0  0  0
   43.3650   35.5381   40.0421 H   0  0  0  0  0  0  0  0  0  0  0  0
   41.1091   35.3252   42.0812 H   0  0  0  0  0  0  0  0  0  0  0  0
   40.1607   36.9094   40.3772 H   0  0  0  0  0  0  0  0  0  0  0  0
   41.4362   36.3919   39.1966 H   0  0  0  0  0  0  0  0  0  0  0  0
   39.0596   34.3737   41.2848 H   0  0  0  0  0  0  0  0  0  0  0  0
   37.5594   32.6615   40.3653 H   0  0  0  0  0  0  0  0  0  0  0  0
   37.5411   32.3686   37.8737 H   0  0  0  0  0  0  0  0  0  0  0  0
   38.9661   33.7427   36.4113 H   0  0  0  0  0  0  0  0  0  0  0  0
  1  6  2  0
  2  3  2  0
  2  1  1  0
  3  4  1  0
  4  5  2  0
  5  7  1  0
  6  5  1  0
  7  8  1  0
  8 11  1  0
  9 10  1  0
 10 15  2  0
 11 12  2  0
 11 10  1  0
 12 13  1  0
 13 14  2  0
 15 14  1  0
 16 17  2  0
 16  2  1  0
 18 17  1  0
 19 20  1  0
 20 21  2  0
 21 18  1  0
 21 22  1  0
 23 22  2  0
 24 23  1  0
 25 20  1  0
 25 24  2  0
  1 26  1  0
  3 27  1  0
  7 28  1  0
  7 29  1  0
  8 30  1  0
  8 31  1  0
 12 32  1  0
 13 33  1  0
 14 34  1  0
 15 35  1  0
 16 36  1  0
 17 37  1  0
 18 38  1  0
 18 39  1  0
 22 40  1  0
 23 41  1  0
 24 42  1  0
 25 43  1  0
M  ISO  8  26  14  27  14  28   8  29   8  30   8  31   8  32  14  33  14
M  ISO  8  34  14  35  14  38   8  39   8  40  14  41  14  42  14  43  14
M  END
>  <minimizedAffinity>  (1) 
-7.07999468

>  <minimizedRMSD>  (1) 
1.29124248

$$$$
