
     RDKit          3D

 25 26  0  0  0  0  0  0  0  0999 V2000
   44.5510   35.6740   44.8590 C   0  0  0  0  0  0  0  0  0  0  0  0
   45.1910   35.5920   43.6140 C   0  0  0  0  0  0  0  0  0  0  0  0
   46.1240   34.5690   43.4100 C   0  0  0  0  0  0  0  0  0  0  0  0
   46.3600   33.7060   44.4430 N   0  0  0  0  0  0  0  0  0  0  0  0
   45.7300   33.8080   45.6330 C   0  0  0  0  0  0  0  0  0  0  0  0
   44.8260   34.7970   45.8280 N   0  0  0  0  0  0  0  0  0  0  0  0
   46.0230   32.8650   46.6790 N   0  0  0  0  0  0  0  0  0  0  0  0
   45.0870   32.8200   47.7890 C   0  0  0  0  0  0  0  0  0  0  0  0
   45.6320   32.1780   49.0200 C   0  0  0  0  0  0  0  0  0  0  0  0
   46.4930   31.0150   48.6350 C   0  0  0  0  0  0  0  0  0  0  0  0
   47.7000   31.6000   47.9210 C   0  0  0  0  0  0  0  0  0  0  0  0
   47.2070   32.0430   46.5560 C   0  0  0  0  0  0  0  0  0  0  0  0
   43.8137   36.4701   45.0397 H   0  0  0  0  0  0  0  0  0  0  0  0
   44.9650   36.3149   42.8163 H   0  0  0  0  0  0  0  0  0  0  0  0
   46.6501   34.4631   42.4498 H   0  0  0  0  0  0  0  0  0  0  0  0
   44.7959   33.8513   48.0373 H   0  0  0  0  0  0  0  0  0  0  0  0
   44.2358   32.2052   47.4612 H   0  0  0  0  0  0  0  0  0  0  0  0
   46.2326   32.9097   49.5803 H   0  0  0  0  0  0  0  0  0  0  0  0
   44.8013   31.8274   49.6501 H   0  0  0  0  0  0  0  0  0  0  0  0
   46.8109   30.4625   49.5315 H   0  0  0  0  0  0  0  0  0  0  0  0
   45.9488   30.3091   47.9903 H   0  0  0  0  0  0  0  0  0  0  0  0
   48.0956   32.4598   48.4816 H   0  0  0  0  0  0  0  0  0  0  0  0
   48.5125   30.8635   47.8354 H   0  0  0  0  0  0  0  0  0  0  0  0
   46.9681   31.1545   45.9531 H   0  0  0  0  0  0  0  0  0  0  0  0
   47.9975   32.6341   46.0705 H   0  0  0  0  0  0  0  0  0  0  0  0
  1  6  2  0
  2  1  1  0
  3  2  2  0
  3  4  1  0
  4  5  2  0
  5  6  1  0
  5  7  1  0
  7  8  1  0
  8  9  1  0
 10  9  1  0
 11 10  1  0
 12  7  1  0
 12 11  1  0
  1 13  1  0
  2 14  1  0
  3 15  1  0
  8 16  1  0
  8 17  1  0
  9 18  1  0
  9 19  1  0
 10 20  1  0
 10 21  1  0
 11 22  1  0
 11 23  1  0
 12 24  1  0
 12 25  1  0
M  ISO  8  13  14  14  14  15  14  16  13  17  13  18  13  19  13  20  13
M  ISO  5  21  13  22  13  23  13  24  13  25  13
M  END
>  <minimizedAffinity>  (1) 
-4.61222315

>  <minimizedRMSD>  (1) 
0.881946683

$$$$
