
     RDKit          3D

 33 35  0  0  1  0  0  0  0  0999 V2000
   44.6760   35.3260   45.4430 C   0  0  0  0  0  0  0  0  0  0  0  0
   44.6740   36.1660   44.3210 C   0  0  0  0  0  0  0  0  0  0  0  0
   45.3450   35.7450   43.1560 C   0  0  0  0  0  0  0  0  0  0  0  0
   45.9550   34.5400   43.1990 N   0  0  0  0  0  0  0  0  0  0  0  0
   45.9460   33.7480   44.2850 C   0  0  0  0  0  0  0  0  0  0  0  0
   45.3070   34.1490   45.3950 N   0  0  0  0  0  0  0  0  0  0  0  0
   46.6340   32.4810   44.2310 N   0  0  0  0  0  0  0  0  0  0  0  0
   46.4720   31.6260   45.4000 C   0  0  0  0  0  0  0  0  0  0  0  0
   47.4930   30.5620   45.5250 C   0  0  0  0  0  0  0  0  0  0  0  0
   47.8700   30.0400   44.1640 C   0  0  0  0  0  0  0  0  0  0  0  0
   48.5190   31.1950   43.4450 C   0  0  0  0  0  0  0  0  0  0  0  0
   47.4190   32.1460   43.0560 C   0  0  2  0  0  0  0  0  0  0  0  0
   47.9660   33.3540   42.3840 C   0  0  0  0  0  0  0  0  0  0  0  0
   47.6100   33.6460   41.0670 C   0  0  0  0  0  0  0  0  0  0  0  0
   48.0720   34.7370   40.3470 C   0  0  0  0  0  0  0  0  0  0  0  0
   48.9160   35.5770   40.9450 N   0  0  0  0  0  0  0  0  0  0  0  0
   49.2690   35.3020   42.2270 C   0  0  0  0  0  0  0  0  0  0  0  0
   48.8180   34.2370   42.9290 N   0  0  0  0  0  0  0  0  0  0  0  0
   44.1583   35.6355   46.3629 H   0  0  0  0  0  0  0  0  0  0  0  0
   44.1576   37.1368   44.3496 H   0  0  0  0  0  0  0  0  0  0  0  0
   45.3712   36.3698   42.2510 H   0  0  0  0  0  0  0  0  0  0  0  0
   46.5224   32.2585   46.2986 H   0  0  0  0  0  0  0  0  0  0  0  0
   45.5024   31.1191   45.2864 H   0  0  0  0  0  0  0  0  0  0  0  0
   48.3871   30.9725   46.0171 H   0  0  0  0  0  0  0  0  0  0  0  0
   47.0799   29.7370   46.1238 H   0  0  0  0  0  0  0  0  0  0  0  0
   48.5762   29.2018   44.2576 H   0  0  0  0  0  0  0  0  0  0  0  0
   46.9921   29.6653   43.6173 H   0  0  0  0  0  0  0  0  0  0  0  0
   49.2362   31.6987   44.1098 H   0  0  0  0  0  0  0  0  0  0  0  0
   49.0681   30.8463   42.5579 H   0  0  0  0  0  0  0  0  0  0  0  0
   46.7568   31.6579   42.3258 H   0  0  0  0  0  0  0  0  0  0  0  0
   46.9121   32.9609   40.5634 H   0  0  0  0  0  0  0  0  0  0  0  0
   47.7501   34.9049   39.3087 H   0  0  0  0  0  0  0  0  0  0  0  0
   49.9668   35.9896   42.7272 H   0  0  0  0  0  0  0  0  0  0  0  0
  2  1  2  0
  3  4  2  0
  3  2  1  0
  4  5  1  0
  5  6  2  0
  6  1  1  0
  7  5  1  0
  7  8  1  0
  8  9  1  0
 10  9  1  0
 11 10  1  0
 12 11  1  0
 12  7  1  0
 13 18  1  0
 13 12  1  0
 14 13  2  0
 15 16  2  0
 15 14  1  0
 16 17  1  0
 17 18  2  0
  1 19  1  0
  2 20  1  0
  3 21  1  0
  8 22  1  0
  8 23  1  0
  9 24  1  0
  9 25  1  0
 10 26  1  0
 10 27  1  0
 11 28  1  0
 11 29  1  0
 12 30  1  6
 14 31  1  0
 15 32  1  0
 17 33  1  0
M  ISO  8  19  14  20  14  21  14  22  13  23  13  24  13  25  13  26  13
M  ISO  7  27  13  28  13  29  13  30  13  31  14  32  14  33  14
M  END
>  <minimizedAffinity>  (1) 
-5.11444426

>  <minimizedRMSD>  (1) 
3.20267439

$$$$
