
     RDKit          3D

 28 29  0  0  1  0  0  0  0  0999 V2000
   44.5370   35.6650   44.8540 C   0  0  0  0  0  0  0  0  0  0  0  0
   45.1800   35.5940   43.6290 C   0  0  0  0  0  0  0  0  0  0  0  0
   46.1230   34.5970   43.4430 C   0  0  0  0  0  0  0  0  0  0  0  0
   46.3590   33.7540   44.4680 N   0  0  0  0  0  0  0  0  0  0  0  0
   45.7370   33.8220   45.6500 C   0  0  0  0  0  0  0  0  0  0  0  0
   44.8270   34.7940   45.8130 N   0  0  0  0  0  0  0  0  0  0  0  0
   46.0490   32.8810   46.6760 N   0  0  0  0  0  0  0  0  0  0  0  0
   45.0880   32.8350   47.7860 C   0  0  0  0  0  0  0  0  0  0  0  0
   45.6640   32.2230   49.0400 C   0  0  0  0  0  0  0  0  0  0  0  0
   46.4370   31.0140   48.6020 C   0  0  0  0  0  0  0  0  0  0  0  0
   47.6650   31.5400   47.9140 C   0  0  0  0  0  0  0  0  0  0  0  0
   47.2210   32.0810   46.5770 C   0  0  1  0  0  0  0  0  0  0  0  0
   47.2060   31.0200   45.5370 C   0  0  0  0  0  0  0  0  0  0  0  0
   45.9210   30.5320   45.2890 F   0  0  0  0  0  0  0  0  0  0  0  0
   47.9220   29.9220   46.0940 F   0  0  0  0  0  0  0  0  0  0  0  0
   47.8900   31.2900   44.3770 F   0  0  0  0  0  0  0  0  0  0  0  0
   43.7833   36.4460   45.0328 H   0  0  0  0  0  0  0  0  0  0  0  0
   44.9480   36.3096   42.8264 H   0  0  0  0  0  0  0  0  0  0  0  0
   46.6621   34.4963   42.4895 H   0  0  0  0  0  0  0  0  0  0  0  0
   44.7656   33.8618   48.0133 H   0  0  0  0  0  0  0  0  0  0  0  0
   44.2471   32.2016   47.4671 H   0  0  0  0  0  0  0  0  0  0  0  0
   46.3304   32.9398   49.5422 H   0  0  0  0  0  0  0  0  0  0  0  0
   44.8716   31.9538   49.7538 H   0  0  0  0  0  0  0  0  0  0  0  0
   46.7178   30.4029   49.4725 H   0  0  0  0  0  0  0  0  0  0  0  0
   45.8422   30.3732   47.9344 H   0  0  0  0  0  0  0  0  0  0  0  0
   48.1206   32.3416   48.5139 H   0  0  0  0  0  0  0  0  0  0  0  0
   48.4159   30.7461   47.7877 H   0  0  0  0  0  0  0  0  0  0  0  0
   47.9769   32.7955   46.2191 H   0  0  0  0  0  0  0  0  0  0  0  0
  1  6  2  0
  2  1  1  0
  3  2  2  0
  3  4  1  0
  4  5  2  0
  5  6  1  0
  5  7  1  0
  7  8  1  0
  8  9  1  0
 10  9  1  0
 11 10  1  0
 12  7  1  0
 12 11  1  0
 13 15  1  0
 13 12  1  0
 14 13  1  0
 16 13  1  0
  1 17  1  0
  2 18  1  0
  3 19  1  0
  8 20  1  0
  8 21  1  0
  9 22  1  0
  9 23  1  0
 10 24  1  0
 10 25  1  0
 11 26  1  0
 11 27  1  0
 12 28  1  6
M  ISO  8  17  14  18  14  19  14  20  13  21  13  22  13  23  13  24  13
M  ISO  4  25  13  26  13  27  13  28  13
M  END
>  <minimizedAffinity>  (1) 
-5.01145744

>  <minimizedRMSD>  (1) 
0.0158445388

$$$$
