
     RDKit          3D

 27 28  0  0  1  0  0  0  0  0999 V2000
   44.5470   35.5560   45.0120 C   0  0  0  0  0  0  0  0  0  0  0  0
   45.1520   35.4490   43.7620 C   0  0  0  0  0  0  0  0  0  0  0  0
   46.0710   34.4220   43.5720 C   0  0  0  0  0  0  0  0  0  0  0  0
   46.3460   33.5630   44.6040 N   0  0  0  0  0  0  0  0  0  0  0  0
   45.7310   33.7070   45.8080 C   0  0  0  0  0  0  0  0  0  0  0  0
   44.8290   34.7090   46.0050 N   0  0  0  0  0  0  0  0  0  0  0  0
   46.0450   32.7890   46.8640 N   0  0  0  0  0  0  0  0  0  0  0  0
   45.0640   32.7030   47.9430 C   0  0  0  0  0  0  0  0  0  0  0  0
   45.5440   31.9870   49.1500 C   0  0  0  0  0  0  0  0  0  0  0  0
   46.4870   30.8950   48.7880 C   0  0  0  0  0  0  0  0  0  0  0  0
   47.6970   31.5600   48.1470 C   0  0  0  0  0  0  0  0  0  0  0  0
   47.2750   32.0370   46.7850 C   0  0  1  0  0  0  0  0  0  0  0  0
   47.1110   30.8870   45.8750 C   0  0  0  0  0  0  0  0  0  0  0  0
   46.0120   30.3910   45.6870 O   0  0  0  0  0  0  0  0  0  0  0  0
   43.8169   36.3602   45.1859 H   0  0  0  0  0  0  0  0  0  0  0  0
   44.9112   36.1531   42.9519 H   0  0  0  0  0  0  0  0  0  0  0  0
   46.5731   34.3003   42.6009 H   0  0  0  0  0  0  0  0  0  0  0  0
   44.7854   33.7256   48.2373 H   0  0  0  0  0  0  0  0  0  0  0  0
   44.2149   32.1241   47.5507 H   0  0  0  0  0  0  0  0  0  0  0  0
   46.0582   32.7011   49.8100 H   0  0  0  0  0  0  0  0  0  0  0  0
   44.6763   31.5432   49.6600 H   0  0  0  0  0  0  0  0  0  0  0  0
   46.7908   30.3417   49.6889 H   0  0  0  0  0  0  0  0  0  0  0  0
   46.0174   30.1774   48.0991 H   0  0  0  0  0  0  0  0  0  0  0  0
   48.0265   32.4125   48.7591 H   0  0  0  0  0  0  0  0  0  0  0  0
   48.5353   30.8520   48.0695 H   0  0  0  0  0  0  0  0  0  0  0  0
   48.0595   32.6989   46.3896 H   0  0  0  0  0  0  0  0  0  0  0  0
   47.9899   30.4719   45.3600 H   0  0  0  0  0  0  0  0  0  0  0  0
  1  6  2  0
  2  1  1  0
  3  2  2  0
  3  4  1  0
  4  5  2  0
  5  6  1  0
  5  7  1  0
  7  8  1  0
  8  9  1  0
 10  9  1  0
 11 10  1  0
 12  7  1  0
 12 11  1  0
 13 12  1  0
 14 13  2  0
  1 15  1  0
  2 16  1  0
  3 17  1  0
  8 18  1  0
  8 19  1  0
  9 20  1  0
  9 21  1  0
 10 22  1  0
 10 23  1  0
 11 24  1  0
 11 25  1  0
 12 26  1  6
 13 27  1  0
M  ISO  8  15  14  16  14  17  14  18  13  19  13  20  13  21  13  22  13
M  ISO  5  23  13  24  13  25  13  26  13  27   6
M  END
>  <minimizedAffinity>  (1) 
-4.70884275

>  <minimizedRMSD>  (1) 
0.266456783

$$$$
