
     RDKit          3D

 35 37  0  0  1  0  0  0  0  0999 V2000
   44.5360   35.9920   44.5840 C   0  0  0  0  0  0  0  0  0  0  0  0
   44.4110   35.8410   43.1830 C   0  0  0  0  0  0  0  0  0  0  0  0
   44.7960   34.6170   42.5980 C   0  0  0  0  0  0  0  0  0  0  0  0
   45.2660   33.6520   43.4240 N   0  0  0  0  0  0  0  0  0  0  0  0
   45.3760   33.8260   44.7660 C   0  0  0  0  0  0  0  0  0  0  0  0
   45.0090   35.0030   45.3530 N   0  0  0  0  0  0  0  0  0  0  0  0
   45.8950   32.7430   45.5530 N   0  0  0  0  0  0  0  0  0  0  0  0
   45.6950   32.8460   46.9930 C   0  0  0  0  0  0  0  0  0  0  0  0
   46.5840   31.9770   47.8000 C   0  0  0  0  0  0  0  0  0  0  0  0
   46.7810   30.6610   47.1030 C   0  0  0  0  0  0  0  0  0  0  0  0
   47.5230   30.9670   45.8280 C   0  0  0  0  0  0  0  0  0  0  0  0
   46.5620   31.6490   44.9090 C   0  0  2  0  0  0  0  0  0  0  0  0
   45.5840   30.1340   42.4170 Cl  0  0  0  0  0  0  0  0  0  0  0  0
   46.8130   31.3800   42.4170 C   0  0  0  0  0  0  0  0  0  0  0  0
   47.1700   32.0020   43.6080 C   0  0  0  0  0  0  0  0  0  0  0  0
   48.1470   32.9790   43.5010 C   0  0  0  0  0  0  0  0  0  0  0  0
   48.7680   33.3660   42.3430 C   0  0  0  0  0  0  0  0  0  0  0  0
   48.3840   32.7240   41.1810 C   0  0  0  0  0  0  0  0  0  0  0  0
   47.4220   31.7490   41.2290 C   0  0  0  0  0  0  0  0  0  0  0  0
   46.9930   30.9840   39.7150 Cl  0  0  0  0  0  0  0  0  0  0  0  0
   44.2383   36.9421   45.0517 H   0  0  0  0  0  0  0  0  0  0  0  0
   44.0214   36.6616   42.5626 H   0  0  0  0  0  0  0  0  0  0  0  0
   44.7177   34.4524   41.5132 H   0  0  0  0  0  0  0  0  0  0  0  0
   45.8721   33.8900   47.2908 H   0  0  0  0  0  0  0  0  0  0  0  0
   44.6660   32.5113   47.1910 H   0  0  0  0  0  0  0  0  0  0  0  0
   47.5583   32.4711   47.9290 H   0  0  0  0  0  0  0  0  0  0  0  0
   46.1238   31.8011   48.7835 H   0  0  0  0  0  0  0  0  0  0  0  0
   47.3715   29.9802   47.7337 H   0  0  0  0  0  0  0  0  0  0  0  0
   45.8191   30.1681   46.8983 H   0  0  0  0  0  0  0  0  0  0  0  0
   48.3767   31.6280   46.0384 H   0  0  0  0  0  0  0  0  0  0  0  0
   47.9112   30.0445   45.3717 H   0  0  0  0  0  0  0  0  0  0  0  0
   45.7752   30.9208   44.6629 H   0  0  0  0  0  0  0  0  0  0  0  0
   48.4505   33.4885   44.4274 H   0  0  0  0  0  0  0  0  0  0  0  0
   49.5374   34.1521   42.3382 H   0  0  0  0  0  0  0  0  0  0  0  0
   48.8486   32.9945   40.2213 H   0  0  0  0  0  0  0  0  0  0  0  0
  1  6  2  0
  2  1  1  0
  3  2  2  0
  3  4  1  0
  4  5  2  0
  5  6  1  0
  5  7  1  0
  7  8  1  0
  8  9  1  0
 10  9  1  0
 11 10  1  0
 12  7  1  0
 12 11  1  0
 14 13  1  0
 14 15  2  0
 15 12  1  0
 16 15  1  0
 17 16  2  0
 18 19  2  0
 18 17  1  0
 19 14  1  0
 20 19  1  0
  1 21  1  0
  2 22  1  0
  3 23  1  0
  8 24  1  0
  8 25  1  0
  9 26  1  0
  9 27  1  0
 10 28  1  0
 10 29  1  0
 11 30  1  0
 11 31  1  0
 12 32  1  6
 16 33  1  0
 17 34  1  0
 18 35  1  0
M  ISO  8  21  14  22  14  23  14  24  13  25  13  26  13  27  13  28  13
M  ISO  7  29  13  30  13  31  13  32  13  33  14  34  14  35  14
M  END
>  <minimizedAffinity>  (1) 
-4.70115566

>  <minimizedRMSD>  (1) 
2.71744275

$$$$
