
     RDKit          3D

 48 51  0  0  1  0  0  0  0  0999 V2000
   44.6410   35.3470   45.4880 C   0  0  0  0  0  0  0  0  0  0  0  0
   44.3790   35.9110   44.2220 C   0  0  0  0  0  0  0  0  0  0  0  0
   44.8550   35.2420   43.0750 C   0  0  0  0  0  0  0  0  0  0  0  0
   45.5440   34.0860   43.2630 N   0  0  0  0  0  0  0  0  0  0  0  0
   45.7770   33.5740   44.4930 C   0  0  0  0  0  0  0  0  0  0  0  0
   45.3250   34.2060   45.6100 N   0  0  0  0  0  0  0  0  0  0  0  0
   46.5110   32.3510   44.5830 N   0  0  0  0  0  0  0  0  0  0  0  0
   46.4810   31.6840   45.8830 C   0  0  0  0  0  0  0  0  0  0  0  0
   47.5270   30.6500   46.0780 C   0  0  0  0  0  0  0  0  0  0  0  0
   47.8090   29.9380   44.7960 C   0  0  0  0  0  0  0  0  0  0  0  0
   48.3540   30.9620   43.8470 C   0  0  0  0  0  0  0  0  0  0  0  0
   47.2250   31.8400   43.4400 C   0  0  2  0  0  0  0  0  0  0  0  0
   46.4850   31.8660   40.6640 F   0  0  0  0  0  0  0  0  0  0  0  0
   47.2680   32.8880   41.1060 C   0  0  0  0  0  0  0  0  0  0  0  0
   47.6310   32.8830   42.4570 C   0  0  0  0  0  0  0  0  0  0  0  0
   48.4290   33.9410   42.8670 C   0  0  0  0  0  0  0  0  0  0  0  0
   48.8530   34.9460   42.0260 C   0  0  0  0  0  0  0  0  0  0  0  0
   48.4730   34.9180   40.6940 C   0  0  0  0  0  0  0  0  0  0  0  0
   47.6880   33.8870   40.2640 C   0  0  0  0  0  0  0  0  0  0  0  0
   48.5430   34.0030   37.9360 C   0  0  1  0  0  0  0  0  0  0  0  0
   47.3080   33.8970   38.8390 C   0  0  1  0  0  0  0  0  0  0  0  0
   46.7730   32.6990   38.4110 O   0  0  0  0  0  0  0  0  0  0  0  0
   46.8410   32.6940   37.0400 C   0  0  0  0  0  0  0  0  0  0  0  0
   47.8380   33.7420   36.5990 C   0  0  2  0  0  0  0  0  0  0  0  0
   49.1180   35.2610   37.9720 O   0  0  0  0  0  0  0  0  0  0  0  0
   48.6880   33.3440   35.6030 O   0  0  0  0  0  0  0  0  0  0  0  0
   44.2752   35.8562   46.3918 H   0  0  0  0  0  0  0  0  0  0  0  0
   43.8160   36.8516   44.1312 H   0  0  0  0  0  0  0  0  0  0  0  0
   44.6751   35.6412   42.0659 H   0  0  0  0  0  0  0  0  0  0  0  0
   46.6073   32.4494   46.6629 H   0  0  0  0  0  0  0  0  0  0  0  0
   45.5151   31.1607   45.9394 H   0  0  0  0  0  0  0  0  0  0  0  0
   48.4495   31.1319   46.4342 H   0  0  0  0  0  0  0  0  0  0  0  0
   47.1689   29.9190   46.8178 H   0  0  0  0  0  0  0  0  0  0  0  0
   48.5490   29.1407   44.9597 H   0  0  0  0  0  0  0  0  0  0  0  0
   46.8982   29.4703   44.3939 H   0  0  0  0  0  0  0  0  0  0  0  0
   49.1330   31.5583   44.3447 H   0  0  0  0  0  0  0  0  0  0  0  0
   48.8029   30.4758   42.9683 H   0  0  0  0  0  0  0  0  0  0  0  0
   46.5035   31.2155   42.8928 H   0  0  0  0  0  0  0  0  0  0  0  0
   48.7402   33.9794   43.9214 H   0  0  0  0  0  0  0  0  0  0  0  0
   49.4857   35.7610   42.4073 H   0  0  0  0  0  0  0  0  0  0  0  0
   48.7960   35.7075   39.9995 H   0  0  0  0  0  0  0  0  0  0  0  0
   49.3833   33.3402   38.1901 H   0  0  0  0  0  0  0  0  0  0  0  0
   46.6029   34.7383   38.7688 H   0  0  0  0  0  0  0  0  0  0  0  0
   47.1661   31.7034   36.6893 H   0  0  0  0  0  0  0  0  0  0  0  0
   45.8511   32.9170   36.6153 H   0  0  0  0  0  0  0  0  0  0  0  0
   47.3811   34.6242   36.1268 H   0  0  0  0  0  0  0  0  0  0  0  0
   49.2450   35.5389   38.9137 H   0  0  0  0  0  0  0  0  0  0  0  0
   49.5082   32.9600   36.0030 H   0  0  0  0  0  0  0  0  0  0  0  0
  1  6  2  0
  2  1  1  0
  3  4  1  0
  3  2  2  0
  4  5  2  0
  5  7  1  0
  5  6  1  0
  7  8  1  0
  8  9  1  0
 10  9  1  0
 11 10  1  0
 12 11  1  0
 12  7  1  0
 13 14  1  0
 14 15  2  0
 15 16  1  0
 15 12  1  0
 17 16  2  0
 18 17  1  0
 19 18  2  0
 19 14  1  0
 20 25  1  0
 20 21  1  0
 21 19  1  0
 22 21  1  0
 23 22  1  0
 24 26  1  0
 24 23  1  0
 24 20  1  0
  1 27  1  0
  2 28  1  0
  3 29  1  0
  8 30  1  0
  8 31  1  0
  9 32  1  0
  9 33  1  0
 10 34  1  0
 10 35  1  0
 11 36  1  0
 11 37  1  0
 12 38  1  6
 16 39  1  0
 17 40  1  0
 18 41  1  0
 20 42  1  1
 21 43  1  1
 23 44  1  0
 23 45  1  0
 24 46  1  6
 25 47  1  0
 26 48  1  0
M  ISO  8  27  14  28  14  29  14  30  13  31  13  32  13  33  13  34  13
M  ISO  8  35  13  36  13  37  13  38  13  39  14  40  14  41  14  42  13
M  ISO  6  43  13  44  13  45  13  46  13  47   3  48   3
M  END
>  <minimizedAffinity>  (1) 
-6.93052483

>  <minimizedRMSD>  (1) 
1.09477985

$$$$
