
     RDKit          3D

 42 45  0  0  1  0  0  0  0  0999 V2000
   44.6390   35.3440   45.4790 C   0  0  0  0  0  0  0  0  0  0  0  0
   44.4140   35.9320   44.2180 C   0  0  0  0  0  0  0  0  0  0  0  0
   44.9270   35.2970   43.0710 C   0  0  0  0  0  0  0  0  0  0  0  0
   45.6150   34.1460   43.2510 N   0  0  0  0  0  0  0  0  0  0  0  0
   45.8180   33.6000   44.4790 C   0  0  0  0  0  0  0  0  0  0  0  0
   45.3290   34.1990   45.5990 N   0  0  0  0  0  0  0  0  0  0  0  0
   46.5580   32.3800   44.5670 N   0  0  0  0  0  0  0  0  0  0  0  0
   46.4950   31.6730   45.8410 C   0  0  0  0  0  0  0  0  0  0  0  0
   47.5300   30.6420   46.0490 C   0  0  0  0  0  0  0  0  0  0  0  0
   47.8660   29.9700   44.7550 C   0  0  0  0  0  0  0  0  0  0  0  0
   48.4370   31.0270   43.8560 C   0  0  0  0  0  0  0  0  0  0  0  0
   47.3130   31.9060   43.4340 C   0  0  2  0  0  0  0  0  0  0  0  0
   46.7990   31.9130   40.6060 F   0  0  0  0  0  0  0  0  0  0  0  0
   47.4910   32.9630   41.1200 C   0  0  0  0  0  0  0  0  0  0  0  0
   47.7470   32.9730   42.4990 C   0  0  0  0  0  0  0  0  0  0  0  0
   48.4560   34.0680   42.9680 C   0  0  0  0  0  0  0  0  0  0  0  0
   48.8910   35.0900   42.1560 C   0  0  0  0  0  0  0  0  0  0  0  0
   48.6310   35.0620   40.8110 C   0  0  0  0  0  0  0  0  0  0  0  0
   47.9290   33.9900   40.3040 C   0  0  0  0  0  0  0  0  0  0  0  0
   47.6160   33.8950   38.8790 C   0  0  0  0  0  0  0  0  0  0  0  0
   48.3580   34.4230   37.8410 C   0  0  0  0  0  0  0  0  0  0  0  0
   47.7800   34.1480   36.6560 N   0  0  0  0  0  0  0  0  0  0  0  0
   46.6570   33.4340   36.9270 C   0  0  0  0  0  0  0  0  0  0  0  0
   46.5710   33.2890   38.2750 N   0  0  0  0  0  0  0  0  0  0  0  0
   44.2419   35.8323   46.3812 H   0  0  0  0  0  0  0  0  0  0  0  0
   43.8474   36.8708   44.1315 H   0  0  0  0  0  0  0  0  0  0  0  0
   44.7744   35.7203   42.0672 H   0  0  0  0  0  0  0  0  0  0  0  0
   46.5911   32.4165   46.6459 H   0  0  0  0  0  0  0  0  0  0  0  0
   45.5333   31.1390   45.8420 H   0  0  0  0  0  0  0  0  0  0  0  0
   48.4353   31.1148   46.4574 H   0  0  0  0  0  0  0  0  0  0  0  0
   47.1461   29.8886   46.7526 H   0  0  0  0  0  0  0  0  0  0  0  0
   48.6065   29.1740   44.9223 H   0  0  0  0  0  0  0  0  0  0  0  0
   46.9745   29.5078   44.3059 H   0  0  0  0  0  0  0  0  0  0  0  0
   49.1912   31.6154   44.3991 H   0  0  0  0  0  0  0  0  0  0  0  0
   48.9239   30.5716   42.9810 H   0  0  0  0  0  0  0  0  0  0  0  0
   46.6121   31.2946   42.8467 H   0  0  0  0  0  0  0  0  0  0  0  0
   48.6821   34.1225   44.0431 H   0  0  0  0  0  0  0  0  0  0  0  0
   49.4498   35.9331   42.5884 H   0  0  0  0  0  0  0  0  0  0  0  0
   48.9737   35.8741   40.1530 H   0  0  0  0  0  0  0  0  0  0  0  0
   49.2924   34.9901   37.9649 H   0  0  0  0  0  0  0  0  0  0  0  0
   48.1230   34.4253   35.7252 H   0  0  0  0  0  0  0  0  0  0  0  0
   45.9438   33.0426   36.1866 H   0  0  0  0  0  0  0  0  0  0  0  0
  1  6  2  0
  2  1  1  0
  3  4  1  0
  3  2  2  0
  4  5  2  0
  5  7  1  0
  5  6  1  0
  7  8  1  0
  8  9  1  0
 10  9  1  0
 11 10  1  0
 12 11  1  0
 12  7  1  0
 13 14  1  0
 14 15  2  0
 15 16  1  0
 15 12  1  0
 17 16  2  0
 18 17  1  0
 19 18  2  0
 19 14  1  0
 20 19  1  0
 21 20  2  0
 22 23  1  0
 22 21  1  0
 23 24  2  0
 24 20  1  0
  1 25  1  0
  2 26  1  0
  3 27  1  0
  8 28  1  0
  8 29  1  0
  9 30  1  0
  9 31  1  0
 10 32  1  0
 10 33  1  0
 11 34  1  0
 11 35  1  0
 12 36  1  6
 16 37  1  0
 17 38  1  0
 18 39  1  0
 21 40  1  0
 22 41  1  0
 23 42  1  0
M  ISO  8  25  14  26  14  27  14  28  13  29  13  30  13  31  13  32  13
M  ISO  8  33  13  34  13  35  13  36  13  37  14  38  14  39  14  40  14
M  ISO  2  41   9  42  14
M  END
>  <minimizedAffinity>  (1) 
-6.57618427

>  <minimizedRMSD>  (1) 
0.877781391

$$$$
