
     RDKit          3D

 45 48  0  0  1  0  0  0  0  0999 V2000
   44.5630   35.4010   45.6300 C   0  0  0  0  0  0  0  0  0  0  0  0
   44.3510   35.9220   44.3380 C   0  0  0  0  0  0  0  0  0  0  0  0
   44.8590   35.2100   43.2320 C   0  0  0  0  0  0  0  0  0  0  0  0
   45.5250   34.0620   43.4770 N   0  0  0  0  0  0  0  0  0  0  0  0
   45.7150   33.5840   44.7380 C   0  0  0  0  0  0  0  0  0  0  0  0
   45.2260   34.2650   45.8150 N   0  0  0  0  0  0  0  0  0  0  0  0
   46.4310   32.3590   44.9000 N   0  0  0  0  0  0  0  0  0  0  0  0
   46.3550   31.7350   46.2180 C   0  0  0  0  0  0  0  0  0  0  0  0
   47.3870   30.7230   46.4970 C   0  0  0  0  0  0  0  0  0  0  0  0
   47.6950   29.9480   45.2560 C   0  0  0  0  0  0  0  0  0  0  0  0
   48.2790   30.9300   44.2770 C   0  0  0  0  0  0  0  0  0  0  0  0
   47.1770   31.8060   43.7970 C   0  0  2  0  0  0  0  0  0  0  0  0
   46.5800   31.7020   40.9910 F   0  0  0  0  0  0  0  0  0  0  0  0
   47.3340   32.7450   41.4380 C   0  0  0  0  0  0  0  0  0  0  0  0
   47.6240   32.7990   42.7970 C   0  0  0  0  0  0  0  0  0  0  0  0
   48.3940   33.8840   43.1870 C   0  0  0  0  0  0  0  0  0  0  0  0
   48.8620   34.8600   42.3380 C   0  0  0  0  0  0  0  0  0  0  0  0
   48.5490   34.7680   40.9920 C   0  0  0  0  0  0  0  0  0  0  0  0
   47.7860   33.7080   40.5530 C   0  0  0  0  0  0  0  0  0  0  0  0
   48.9220   35.1000   38.3440 F   0  0  0  0  0  0  0  0  0  0  0  0
   47.9640   34.2170   38.0550 C   0  0  0  0  0  0  0  0  0  0  0  0
   47.4140   33.5400   39.1450 C   0  0  0  0  0  0  0  0  0  0  0  0
   46.4090   32.6080   38.8760 C   0  0  0  0  0  0  0  0  0  0  0  0
   45.9270   32.3130   37.6160 C   0  0  0  0  0  0  0  0  0  0  0  0
   46.4910   33.0030   36.5370 C   0  0  0  0  0  0  0  0  0  0  0  0
   47.4760   33.9160   36.8020 C   0  0  0  0  0  0  0  0  0  0  0  0
   44.1719   35.9455   46.5021 H   0  0  0  0  0  0  0  0  0  0  0  0
   43.8010   36.8639   44.1953 H   0  0  0  0  0  0  0  0  0  0  0  0
   44.7174   35.5775   42.2049 H   0  0  0  0  0  0  0  0  0  0  0  0
   46.4439   32.5283   46.9749 H   0  0  0  0  0  0  0  0  0  0  0  0
   45.3926   31.2030   46.2469 H   0  0  0  0  0  0  0  0  0  0  0  0
   48.3010   31.2231   46.8500 H   0  0  0  0  0  0  0  0  0  0  0  0
   47.0157   30.0334   47.2694 H   0  0  0  0  0  0  0  0  0  0  0  0
   48.4213   29.1514   45.4752 H   0  0  0  0  0  0  0  0  0  0  0  0
   46.7918   29.4689   44.8501 H   0  0  0  0  0  0  0  0  0  0  0  0
   49.0509   31.5375   44.7722 H   0  0  0  0  0  0  0  0  0  0  0  0
   48.7429   30.3996   43.4323 H   0  0  0  0  0  0  0  0  0  0  0  0
   46.4666   31.1762   43.2413 H   0  0  0  0  0  0  0  0  0  0  0  0
   48.6494   33.9708   44.2534 H   0  0  0  0  0  0  0  0  0  0  0  0
   49.4703   35.6936   42.7190 H   0  0  0  0  0  0  0  0  0  0  0  0
   48.9046   35.5305   40.2834 H   0  0  0  0  0  0  0  0  0  0  0  0
   45.9699   32.0703   39.7293 H   0  0  0  0  0  0  0  0  0  0  0  0
   45.1328   31.5667   37.4667 H   0  0  0  0  0  0  0  0  0  0  0  0
   46.1530   32.8173   35.5068 H   0  0  0  0  0  0  0  0  0  0  0  0
   47.9127   34.4521   35.9465 H   0  0  0  0  0  0  0  0  0  0  0  0
  1  6  2  0
  2  1  1  0
  3  4  1  0
  3  2  2  0
  4  5  2  0
  5  7  1  0
  5  6  1  0
  7  8  1  0
  8  9  1  0
 10  9  1  0
 11 10  1  0
 12 11  1  0
 12  7  1  0
 13 14  1  0
 14 15  2  0
 15 16  1  0
 15 12  1  0
 17 16  2  0
 18 17  1  0
 19 18  2  0
 19 14  1  0
 21 20  1  0
 21 22  2  0
 22 19  1  0
 23 22  1  0
 24 23  2  0
 25 26  2  0
 25 24  1  0
 26 21  1  0
  1 27  1  0
  2 28  1  0
  3 29  1  0
  8 30  1  0
  8 31  1  0
  9 32  1  0
  9 33  1  0
 10 34  1  0
 10 35  1  0
 11 36  1  0
 11 37  1  0
 12 38  1  6
 16 39  1  0
 17 40  1  0
 18 41  1  0
 23 42  1  0
 24 43  1  0
 25 44  1  0
 26 45  1  0
M  ISO  8  27  14  28  14  29  14  30  13  31  13  32  13  33  13  34  13
M  ISO  8  35  13  36  13  37  13  38  13  39  14  40  14  41  14  42  14
M  ISO  3  43  14  44  14  45  14
M  END
>  <minimizedAffinity>  (1) 
-6.27746725

>  <minimizedRMSD>  (1) 
1.26975226

$$$$
