
     RDKit          3D

 45 48  0  0  1  0  0  0  0  0999 V2000
   44.5620   35.4120   45.6140 C   0  0  0  0  0  0  0  0  0  0  0  0
   44.3320   35.9070   44.3110 C   0  0  0  0  0  0  0  0  0  0  0  0
   44.8270   35.1770   43.2160 C   0  0  0  0  0  0  0  0  0  0  0  0
   45.5000   34.0360   43.4710 N   0  0  0  0  0  0  0  0  0  0  0  0
   45.7050   33.5850   44.7400 C   0  0  0  0  0  0  0  0  0  0  0  0
   45.2330   34.2780   45.8130 N   0  0  0  0  0  0  0  0  0  0  0  0
   46.4320   32.3610   44.9150 N   0  0  0  0  0  0  0  0  0  0  0  0
   46.3680   31.7750   46.2480 C   0  0  0  0  0  0  0  0  0  0  0  0
   47.3900   30.7560   46.5380 C   0  0  0  0  0  0  0  0  0  0  0  0
   47.7250   29.9730   45.3070 C   0  0  0  0  0  0  0  0  0  0  0  0
   48.2740   30.9350   44.3010 C   0  0  0  0  0  0  0  0  0  0  0  0
   47.1610   31.7900   43.8120 C   0  0  2  0  0  0  0  0  0  0  0  0
   46.4840   31.6710   41.0290 F   0  0  0  0  0  0  0  0  0  0  0  0
   47.2690   32.7100   41.4370 C   0  0  0  0  0  0  0  0  0  0  0  0
   47.6040   32.7770   42.7950 C   0  0  0  0  0  0  0  0  0  0  0  0
   48.4000   33.8510   43.1590 C   0  0  0  0  0  0  0  0  0  0  0  0
   48.8470   34.8020   42.2660 C   0  0  0  0  0  0  0  0  0  0  0  0
   48.5010   34.7070   40.9380 C   0  0  0  0  0  0  0  0  0  0  0  0
   47.7180   33.6630   40.5490 C   0  0  0  0  0  0  0  0  0  0  0  0
   47.3280   33.5260   39.1500 C   0  0  0  0  0  0  0  0  0  0  0  0
   48.3260   33.7580   38.2290 C   0  0  0  0  0  0  0  0  0  0  0  0
   48.0970   33.6640   36.8800 C   0  0  0  0  0  0  0  0  0  0  0  0
   46.8130   33.3230   36.5000 C   0  0  0  0  0  0  0  0  0  0  0  0
   45.7770   33.0800   37.3750 C   0  0  0  0  0  0  0  0  0  0  0  0
   46.0540   33.1870   38.7240 C   0  0  0  0  0  0  0  0  0  0  0  0
   44.1803   35.9728   46.4799 H   0  0  0  0  0  0  0  0  0  0  0  0
   43.7771   36.8441   44.1563 H   0  0  0  0  0  0  0  0  0  0  0  0
   44.6705   35.5252   42.1844 H   0  0  0  0  0  0  0  0  0  0  0  0
   46.4801   32.5869   46.9817 H   0  0  0  0  0  0  0  0  0  0  0  0
   45.3987   31.2582   46.3064 H   0  0  0  0  0  0  0  0  0  0  0  0
   48.2992   31.2524   46.9081 H   0  0  0  0  0  0  0  0  0  0  0  0
   46.9940   30.0660   47.2976 H   0  0  0  0  0  0  0  0  0  0  0  0
   48.4768   29.2054   45.5426 H   0  0  0  0  0  0  0  0  0  0  0  0
   46.8313   29.4668   44.9132 H   0  0  0  0  0  0  0  0  0  0  0  0
   49.0459   31.5627   44.7702 H   0  0  0  0  0  0  0  0  0  0  0  0
   48.7256   30.3864   43.4613 H   0  0  0  0  0  0  0  0  0  0  0  0
   46.4481   31.1497   43.2718 H   0  0  0  0  0  0  0  0  0  0  0  0
   48.6905   33.9503   44.2153 H   0  0  0  0  0  0  0  0  0  0  0  0
   49.4777   35.6332   42.6142 H   0  0  0  0  0  0  0  0  0  0  0  0
   48.8477   35.4547   40.2095 H   0  0  0  0  0  0  0  0  0  0  0  0
   49.3320   34.0254   38.5846 H   0  0  0  0  0  0  0  0  0  0  0  0
   48.8911   33.8497   36.1418 H   0  0  0  0  0  0  0  0  0  0  0  0
   46.6033   33.2397   35.4234 H   0  0  0  0  0  0  0  0  0  0  0  0
   44.7727   32.8123   37.0149 H   0  0  0  0  0  0  0  0  0  0  0  0
   45.2602   33.0024   39.4628 H   0  0  0  0  0  0  0  0  0  0  0  0
  1  6  2  0
  2  1  1  0
  3  4  1  0
  3  2  2  0
  4  5  2  0
  5  7  1  0
  5  6  1  0
  7  8  1  0
  8  9  1  0
 10  9  1  0
 11 10  1  0
 12 11  1  0
 12  7  1  0
 13 14  1  0
 14 15  2  0
 15 16  1  0
 15 12  1  0
 17 16  2  0
 18 17  1  0
 19 18  2  0
 19 14  1  0
 20 19  1  0
 21 20  2  0
 22 21  1  0
 23 22  2  0
 23 24  1  0
 24 25  2  0
 25 20  1  0
  1 26  1  0
  2 27  1  0
  3 28  1  0
  8 29  1  0
  8 30  1  0
  9 31  1  0
  9 32  1  0
 10 33  1  0
 10 34  1  0
 11 35  1  0
 11 36  1  0
 12 37  1  6
 16 38  1  0
 17 39  1  0
 18 40  1  0
 21 41  1  0
 22 42  1  0
 23 43  1  0
 24 44  1  0
 25 45  1  0
M  ISO  8  26  14  27  14  28  14  29  13  30  13  31  13  32  13  33  13
M  ISO  8  34  13  35  13  36  13  37  13  38  14  39  14  40  14  41  14
M  ISO  4  42  14  43  14  44  14  45  14
M  END
>  <minimizedAffinity>  (1) 
-6.0582881

>  <minimizedRMSD>  (1) 
1.31618893

$$$$
