
     RDKit          3D

 42 45  0  0  1  0  0  0  0  0999 V2000
   44.6000   35.4700   45.2960 C   0  0  0  0  0  0  0  0  0  0  0  0
   44.4090   36.0510   44.0170 C   0  0  0  0  0  0  0  0  0  0  0  0
   44.9440   35.4010   42.8940 C   0  0  0  0  0  0  0  0  0  0  0  0
   45.6190   34.2440   43.0940 N   0  0  0  0  0  0  0  0  0  0  0  0
   45.7840   33.7130   44.3350 C   0  0  0  0  0  0  0  0  0  0  0  0
   45.2750   34.3260   45.4380 N   0  0  0  0  0  0  0  0  0  0  0  0
   46.5160   32.4840   44.4400 N   0  0  0  0  0  0  0  0  0  0  0  0
   46.4090   31.8050   45.7330 C   0  0  0  0  0  0  0  0  0  0  0  0
   47.4480   30.7830   45.9840 C   0  0  0  0  0  0  0  0  0  0  0  0
   47.7920   30.0720   44.7040 C   0  0  0  0  0  0  0  0  0  0  0  0
   48.3910   31.1100   43.7930 C   0  0  0  0  0  0  0  0  0  0  0  0
   47.2870   31.9920   43.3260 C   0  0  2  0  0  0  0  0  0  0  0  0
   46.7630   32.0330   40.5210 F   0  0  0  0  0  0  0  0  0  0  0  0
   47.4990   33.0720   41.0350 C   0  0  0  0  0  0  0  0  0  0  0  0
   47.7540   33.0500   42.3960 C   0  0  0  0  0  0  0  0  0  0  0  0
   48.5010   34.1170   42.8710 C   0  0  0  0  0  0  0  0  0  0  0  0
   48.9710   35.1410   42.0770 C   0  0  0  0  0  0  0  0  0  0  0  0
   48.6920   35.1190   40.7180 C   0  0  0  0  0  0  0  0  0  0  0  0
   47.9590   34.0840   40.2160 C   0  0  0  0  0  0  0  0  0  0  0  0
   47.6520   34.0500   38.7560 C   0  0  0  0  0  0  0  0  0  0  0  0
   48.5110   33.0970   37.9020 C   0  0  0  0  0  0  0  0  0  0  0  0
   48.5340   34.6300   37.7420 C   0  0  0  0  0  0  0  0  0  0  0  0
   44.1861   35.9687   46.1848 H   0  0  0  0  0  0  0  0  0  0  0  0
   43.8521   36.9932   43.9069 H   0  0  0  0  0  0  0  0  0  0  0  0
   44.8191   35.8179   41.8838 H   0  0  0  0  0  0  0  0  0  0  0  0
   46.4778   32.5649   46.5254 H   0  0  0  0  0  0  0  0  0  0  0  0
   45.4464   31.2728   45.7248 H   0  0  0  0  0  0  0  0  0  0  0  0
   48.3495   31.2708   46.3831 H   0  0  0  0  0  0  0  0  0  0  0  0
   47.0659   30.0515   46.7112 H   0  0  0  0  0  0  0  0  0  0  0  0
   48.5191   29.2695   44.8974 H   0  0  0  0  0  0  0  0  0  0  0  0
   46.9026   29.6084   44.2523 H   0  0  0  0  0  0  0  0  0  0  0  0
   49.1383   31.7030   44.3406 H   0  0  0  0  0  0  0  0  0  0  0  0
   48.8899   30.6308   42.9377 H   0  0  0  0  0  0  0  0  0  0  0  0
   46.5996   31.3837   42.7198 H   0  0  0  0  0  0  0  0  0  0  0  0
   48.7325   34.1483   43.9459 H   0  0  0  0  0  0  0  0  0  0  0  0
   49.5579   35.9625   42.5138 H   0  0  0  0  0  0  0  0  0  0  0  0
   49.0549   35.9208   40.0582 H   0  0  0  0  0  0  0  0  0  0  0  0
   46.5836   34.2059   38.9661 H   0  0  0  0  0  0  0  0  0  0  0  0
   49.3679   32.5684   38.3451 H   0  0  0  0  0  0  0  0  0  0  0  0
   48.3300   32.2304   37.2491 H   0  0  0  0  0  0  0  0  0  0  0  0
   49.4235   35.1975   38.0530 H   0  0  0  0  0  0  0  0  0  0  0  0
   48.3841   35.3162   36.8954 H   0  0  0  0  0  0  0  0  0  0  0  0
  1  6  2  0
  2  1  1  0
  3  4  1  0
  3  2  2  0
  4  5  2  0
  5  7  1  0
  5  6  1  0
  7  8  1  0
  8  9  1  0
 10  9  1  0
 11 10  1  0
 12 11  1  0
 12  7  1  0
 13 14  1  0
 14 15  2  0
 15 16  1  0
 15 12  1  0
 17 16  2  0
 18 17  1  0
 19 18  2  0
 19 14  1  0
 20 19  1  0
 21 20  1  0
 22 21  1  0
 22 20  1  0
  1 23  1  0
  2 24  1  0
  3 25  1  0
  8 26  1  0
  8 27  1  0
  9 28  1  0
  9 29  1  0
 10 30  1  0
 10 31  1  0
 11 32  1  0
 11 33  1  0
 12 34  1  6
 16 35  1  0
 17 36  1  0
 18 37  1  0
 20 38  1  0
 21 39  1  0
 21 40  1  0
 22 41  1  0
 22 42  1  0
M  ISO  8  23  14  24  14  25  14  26  13  27  13  28  13  29  13  30  13
M  ISO  8  31  13  32  13  33  13  34  13  35  14  36  14  37  14  38  13
M  ISO  4  39  13  40  13  41  13  42  13
M  END
>  <minimizedAffinity>  (1) 
-5.97455549

>  <minimizedRMSD>  (1) 
0.657217741

$$$$
