
     RDKit          3D

 30 31  0  0  1  0  0  0  0  0999 V2000
   44.7760   35.2700   45.4130 C   0  0  0  0  0  0  0  0  0  0  0  0
   44.1990   35.6660   44.1900 C   0  0  0  0  0  0  0  0  0  0  0  0
   44.4880   34.8870   43.0510 C   0  0  0  0  0  0  0  0  0  0  0  0
   45.3040   33.8070   43.2030 N   0  0  0  0  0  0  0  0  0  0  0  0
   45.8420   33.4530   44.3850 C   0  0  0  0  0  0  0  0  0  0  0  0
   45.5630   34.1980   45.4650 N   0  0  0  0  0  0  0  0  0  0  0  0
   46.6620   32.3300   44.4280 N   0  0  0  0  0  0  0  0  0  0  0  0
   47.8550   32.2460   43.6350 C   0  0  0  0  0  0  0  0  0  0  0  0
   48.4120   30.8760   43.4930 C   0  0  0  0  0  0  0  0  0  0  0  0
   48.2520   30.0240   44.6300 N   0  0  0  0  0  0  0  0  0  0  0  0
   47.6440   30.6660   45.7740 C   0  0  0  0  0  0  0  0  0  0  0  0
   46.3130   31.2130   45.2920 C   0  0  1  0  0  0  0  0  0  0  0  0
   45.5210   31.6820   46.3000 O   0  0  0  0  0  0  0  0  0  0  0  0
   46.9470   30.6160   48.2830 O   0  0  0  0  0  0  0  0  0  0  0  0
   46.2960   31.8780   47.7710 P   0  0  0  0  0  0  0  0  0  0  0  0
   47.4710   33.0900   47.7300 O   0  0  0  0  0  0  0  0  0  0  0  0
   45.1230   32.3510   48.8980 O   0  0  0  0  0  0  0  0  0  0  0  0
   44.5755   35.8483   46.3270 H   0  0  0  0  0  0  0  0  0  0  0  0
   43.5474   36.5499   44.1263 H   0  0  0  0  0  0  0  0  0  0  0  0
   44.0667   35.1440   42.0679 H   0  0  0  0  0  0  0  0  0  0  0  0
   47.6254   32.6283   42.6294 H   0  0  0  0  0  0  0  0  0  0  0  0
   48.6188   32.8386   44.1599 H   0  0  0  0  0  0  0  0  0  0  0  0
   47.9152   30.3955   42.6373 H   0  0  0  0  0  0  0  0  0  0  0  0
   49.4967   31.0038   43.3626 H   0  0  0  0  0  0  0  0  0  0  0  0
   47.6602   29.2270   44.3551 H   0  0  0  0  0  0  0  0  0  0  0  0
   47.4868   29.9366   46.5822 H   0  0  0  0  0  0  0  0  0  0  0  0
   48.2854   31.4650   46.1743 H   0  0  0  0  0  0  0  0  0  0  0  0
   45.7411   30.4127   44.7996 H   0  0  0  0  0  0  0  0  0  0  0  0
   47.7164   33.3431   48.6551 H   0  0  0  0  0  0  0  0  0  0  0  0
   45.4704   32.2109   49.8144 H   0  0  0  0  0  0  0  0  0  0  0  0
  1  6  2  0
  2  1  1  0
  3  4  1  0
  3  2  2  0
  4  5  2  0
  5  7  1  0
  5  6  1  0
  7 12  1  0
  8  7  1  0
  9  8  1  0
  9 10  1  0
 10 11  1  0
 12 11  1  0
 12 13  1  0
 13 15  1  0
 15 14  2  0
 15 17  1  0
 16 15  1  0
  1 18  1  0
  2 19  1  0
  3 20  1  0
  8 21  1  0
  8 22  1  0
  9 23  1  0
  9 24  1  0
 10 25  1  0
 11 26  1  0
 11 27  1  0
 12 28  1  6
 16 29  1  0
 17 30  1  0
M  ISO  8  18  14  19  14  20  14  21  13  22  13  23  13  24  13  25   5
M  ISO  5  26  13  27  13  28  13  29   3  30   3
M  END
>  <minimizedAffinity>  (1) 
-4.57261944

>  <minimizedRMSD>  (1) 
3.40535307

$$$$
