
     RDKit          3D

 43 45  0  0  1  0  0  0  0  0999 V2000
   45.0070   34.5540   44.8370 C   0  0  0  0  0  0  0  0  0  0  0  0
   45.9710   34.5630   43.7880 C   0  0  0  0  0  0  0  0  0  0  0  0
   47.1180   33.7580   43.9510 C   0  0  0  0  0  0  0  0  0  0  0  0
   47.2370   33.0310   45.0810 N   0  0  0  0  0  0  0  0  0  0  0  0
   46.3190   33.0310   46.0660 C   0  0  0  0  0  0  0  0  0  0  0  0
   45.2260   33.7960   45.9150 N   0  0  0  0  0  0  0  0  0  0  0  0
   46.5190   32.2530   47.2020 N   0  0  0  0  0  0  0  0  0  0  0  0
   47.6860   32.4450   48.0140 C   0  0  0  0  0  0  0  0  0  0  0  0
   47.9820   31.3010   48.9240 C   0  0  0  0  0  0  0  0  0  0  0  0
   46.8620   30.5900   49.4260 N   0  0  0  0  0  0  0  0  0  0  0  0
   45.6000   31.1580   49.0530 C   0  0  0  0  0  0  0  0  0  0  0  0
   45.5250   31.2330   47.5580 C   0  0  2  0  0  0  0  0  0  0  0  0
   45.8030   29.9220   46.8960 C   0  0  0  0  0  0  0  0  0  0  0  0
   44.6490   28.9640   47.1140 C   0  0  0  0  0  0  0  0  0  0  0  0
   45.2410   27.7260   47.7090 C   0  0  0  0  0  0  0  0  0  0  0  0
   44.2760   26.5860   47.8390 C   0  0  0  0  0  0  0  0  0  0  0  0
   43.1590   26.6340   46.8320 C   0  0  0  0  0  0  0  0  0  0  0  0
   43.5530   27.3080   45.5620 C   0  0  0  0  0  0  0  0  0  0  0  0
   43.9250   28.7440   45.8220 C   0  0  0  0  0  0  0  0  0  0  0  0
   44.0943   35.1632   44.7603 H   0  0  0  0  0  0  0  0  0  0  0  0
   45.8264   35.1745   42.8851 H   0  0  0  0  0  0  0  0  0  0  0  0
   47.8969   33.7240   43.1750 H   0  0  0  0  0  0  0  0  0  0  0  0
   48.5503   32.5920   47.3496 H   0  0  0  0  0  0  0  0  0  0  0  0
   47.4914   33.3195   48.6522 H   0  0  0  0  0  0  0  0  0  0  0  0
   48.6114   30.5877   48.3716 H   0  0  0  0  0  0  0  0  0  0  0  0
   48.4657   31.7460   49.8060 H   0  0  0  0  0  0  0  0  0  0  0  0
   46.9025   29.6254   49.0671 H   0  0  0  0  0  0  0  0  0  0  0  0
   44.7838   30.5258   49.4325 H   0  0  0  0  0  0  0  0  0  0  0  0
   45.5032   32.1661   49.4823 H   0  0  0  0  0  0  0  0  0  0  0  0
   44.5130   31.4905   47.2121 H   0  0  0  0  0  0  0  0  0  0  0  0
   46.7196   29.4881   47.3222 H   0  0  0  0  0  0  0  0  0  0  0  0
   45.9296   30.0878   45.8160 H   0  0  0  0  0  0  0  0  0  0  0  0
   43.8855   29.3522   47.8041 H   0  0  0  0  0  0  0  0  0  0  0  0
   46.0753   27.4009   47.0701 H   0  0  0  0  0  0  0  0  0  0  0  0
   45.5621   27.9869   48.7282 H   0  0  0  0  0  0  0  0  0  0  0  0
   44.8279   25.6442   47.7036 H   0  0  0  0  0  0  0  0  0  0  0  0
   43.8185   26.6585   48.8367 H   0  0  0  0  0  0  0  0  0  0  0  0
   42.8494   25.6039   46.6015 H   0  0  0  0  0  0  0  0  0  0  0  0
   42.3389   27.2178   47.2755 H   0  0  0  0  0  0  0  0  0  0  0  0
   42.7092   27.2743   44.8571 H   0  0  0  0  0  0  0  0  0  0  0  0
   44.4227   26.7860   45.1365 H   0  0  0  0  0  0  0  0  0  0  0  0
   44.5715   29.0874   45.0010 H   0  0  0  0  0  0  0  0  0  0  0  0
   42.9833   29.3088   45.8861 H   0  0  0  0  0  0  0  0  0  0  0  0
  1  6  2  0
  2  3  2  0
  2  1  1  0
  3  4  1  0
  4  5  2  0
  5  7  1  0
  6  5  1  0
  7 12  1  0
  7  8  1  0
  8  9  1  0
  9 10  1  0
 11 10  1  0
 12 11  1  0
 13 14  1  0
 13 12  1  0
 14 15  1  0
 15 16  1  0
 17 16  1  0
 18 19  1  0
 18 17  1  0
 19 14  1  0
  1 20  1  0
  2 21  1  0
  3 22  1  0
  8 23  1  0
  8 24  1  0
  9 25  1  0
  9 26  1  0
 10 27  1  0
 11 28  1  0
 11 29  1  0
 12 30  1  1
 13 31  1  0
 13 32  1  0
 14 33  1  0
 15 34  1  0
 15 35  1  0
 16 36  1  0
 16 37  1  0
 17 38  1  0
 17 39  1  0
 18 40  1  0
 18 41  1  0
 19 42  1  0
 19 43  1  0
M  ISO  8  20  14  21  14  22  14  23  13  24  13  25  13  26  13  27   5
M  ISO  8  28  13  29  13  30  13  31   8  32   8  33  13  34  13  35  13
M  ISO  8  36  13  37  13  38  13  39  13  40  13  41  13  42  13  43  13
M  END
>  <minimizedAffinity>  (1) 
-5.38205671

>  <minimizedRMSD>  (1) 
1.65977752

$$$$
