
     RDKit          3D

 29 30  0  0  1  0  0  0  0  0999 V2000
   45.0110   34.8260   45.0070 C   0  0  0  0  0  0  0  0  0  0  0  0
   45.8460   34.6440   43.8730 C   0  0  0  0  0  0  0  0  0  0  0  0
   46.8550   33.6560   43.9510 C   0  0  0  0  0  0  0  0  0  0  0  0
   46.9600   32.9480   45.1050 N   0  0  0  0  0  0  0  0  0  0  0  0
   46.1690   33.1340   46.1560 C   0  0  0  0  0  0  0  0  0  0  0  0
   45.1960   34.0770   46.0960 N   0  0  0  0  0  0  0  0  0  0  0  0
   46.3360   32.3720   47.3010 N   0  0  0  0  0  0  0  0  0  0  0  0
   47.6020   32.3840   47.9940 C   0  0  0  0  0  0  0  0  0  0  0  0
   47.8030   31.2540   48.9440 C   0  0  0  0  0  0  0  0  0  0  0  0
   46.6400   30.7410   49.5740 N   0  0  0  0  0  0  0  0  0  0  0  0
   45.4620   31.5100   49.3000 C   0  0  0  0  0  0  0  0  0  0  0  0
   45.2630   31.5560   47.8290 C   0  0  2  0  0  0  0  0  0  0  0  0
   45.2430   30.1840   47.1900 C   0  0  0  0  0  0  0  0  0  0  0  0
   44.9700   30.3430   45.7690 N   0  0  0  0  0  0  0  0  0  0  0  0
   44.2131   35.5830   44.9879 H   0  0  0  0  0  0  0  0  0  0  0  0
   45.7127   35.2506   42.9651 H   0  0  0  0  0  0  0  0  0  0  0  0
   47.5322   33.4674   43.1050 H   0  0  0  0  0  0  0  0  0  0  0  0
   48.4043   32.3465   47.2424 H   0  0  0  0  0  0  0  0  0  0  0  0
   47.6168   33.3035   48.5976 H   0  0  0  0  0  0  0  0  0  0  0  0
   48.2728   30.4295   48.3877 H   0  0  0  0  0  0  0  0  0  0  0  0
   48.4176   31.6649   49.7585 H   0  0  0  0  0  0  0  0  0  0  0  0
   46.4863   29.7779   49.2427 H   0  0  0  0  0  0  0  0  0  0  0  0
   44.5909   31.0381   49.7780 H   0  0  0  0  0  0  0  0  0  0  0  0
   45.5754   32.5293   49.6978 H   0  0  0  0  0  0  0  0  0  0  0  0
   44.2767   31.9837   47.5960 H   0  0  0  0  0  0  0  0  0  0  0  0
   46.2188   29.6954   47.3285 H   0  0  0  0  0  0  0  0  0  0  0  0
   44.4659   29.5609   47.6568 H   0  0  0  0  0  0  0  0  0  0  0  0
   44.0865   30.8576   45.6446 H   0  0  0  0  0  0  0  0  0  0  0  0
   45.7384   30.8687   45.3285 H   0  0  0  0  0  0  0  0  0  0  0  0
  1  6  2  0
  2  3  2  0
  2  1  1  0
  3  4  1  0
  4  5  2  0
  5  7  1  0
  6  5  1  0
  7 12  1  0
  7  8  1  0
  8  9  1  0
  9 10  1  0
 11 10  1  0
 12 11  1  0
 13 12  1  0
 14 13  1  0
  1 15  1  0
  2 16  1  0
  3 17  1  0
  8 18  1  0
  8 19  1  0
  9 20  1  0
  9 21  1  0
 10 22  1  0
 11 23  1  0
 11 24  1  0
 12 25  1  1
 13 26  1  0
 13 27  1  0
 14 28  1  0
 14 29  1  0
M  ISO  8  15  14  16  14  17  14  18  13  19  13  20  13  21  13  22   5
M  ISO  7  23  13  24  13  25  13  26   8  27   8  28   5  29   5
M  END
>  <minimizedAffinity>  (1) 
-5.04111767

>  <minimizedRMSD>  (1) 
0.128035203

$$$$
