
     RDKit          3D

 42 44  0  0  1  0  0  0  0  0999 V2000
   45.1220   34.6790   44.8370 C   0  0  0  0  0  0  0  0  0  0  0  0
   46.0130   34.4920   43.7420 C   0  0  0  0  0  0  0  0  0  0  0  0
   47.0420   33.5400   43.9010 C   0  0  0  0  0  0  0  0  0  0  0  0
   47.1050   32.8780   45.0770 N   0  0  0  0  0  0  0  0  0  0  0  0
   46.2570   33.0690   46.0970 C   0  0  0  0  0  0  0  0  0  0  0  0
   45.2630   33.9810   45.9580 N   0  0  0  0  0  0  0  0  0  0  0  0
   46.3950   32.3390   47.2690 N   0  0  0  0  0  0  0  0  0  0  0  0
   47.6250   32.4050   48.0210 C   0  0  0  0  0  0  0  0  0  0  0  0
   47.8220   31.2930   48.9900 C   0  0  0  0  0  0  0  0  0  0  0  0
   46.6340   30.7860   49.6060 N   0  0  0  0  0  0  0  0  0  0  0  0
   45.4520   31.4990   49.2460 C   0  0  0  0  0  0  0  0  0  0  0  0
   45.3240   31.4970   47.7650 C   0  0  2  0  0  0  0  0  0  0  0  0
   45.3770   30.1160   47.1490 C   0  0  0  0  0  0  0  0  0  0  0  0
   46.0420   30.2780   45.8680 N   0  0  0  0  0  0  0  0  0  0  0  0
   45.1180   30.0430   44.7700 C   0  0  0  0  0  0  0  0  0  0  0  0
   45.5650   28.8360   43.9740 C   0  0  0  0  0  0  0  0  0  0  0  0
   45.9460   27.6670   44.8550 C   0  0  0  0  0  0  0  0  0  0  0  0
   47.0280   28.0410   45.8370 C   0  0  0  0  0  0  0  0  0  0  0  0
   47.2570   29.5400   45.7370 C   0  0  0  0  0  0  0  0  0  0  0  0
   44.3058   35.4116   44.7532 H   0  0  0  0  0  0  0  0  0  0  0  0
   45.9034   35.0663   42.8103 H   0  0  0  0  0  0  0  0  0  0  0  0
   47.7665   33.3439   43.0969 H   0  0  0  0  0  0  0  0  0  0  0  0
   48.4632   32.3913   47.3088 H   0  0  0  0  0  0  0  0  0  0  0  0
   47.5767   33.3296   48.6149 H   0  0  0  0  0  0  0  0  0  0  0  0
   48.3064   30.4621   48.4562 H   0  0  0  0  0  0  0  0  0  0  0  0
   48.4267   31.7127   49.8075 H   0  0  0  0  0  0  0  0  0  0  0  0
   46.5176   29.8015   49.3266 H   0  0  0  0  0  0  0  0  0  0  0  0
   44.5743   31.0098   49.6936 H   0  0  0  0  0  0  0  0  0  0  0  0
   45.5126   32.5336   49.6146 H   0  0  0  0  0  0  0  0  0  0  0  0
   44.3323   31.8783   47.4801 H   0  0  0  0  0  0  0  0  0  0  0  0
   45.9483   29.4312   47.7930 H   0  0  0  0  0  0  0  0  0  0  0  0
   44.3710   29.6871   47.0309 H   0  0  0  0  0  0  0  0  0  0  0  0
   44.1105   29.8623   45.1728 H   0  0  0  0  0  0  0  0  0  0  0  0
   45.1016   30.9255   44.1136 H   0  0  0  0  0  0  0  0  0  0  0  0
   44.7424   28.5256   43.3129 H   0  0  0  0  0  0  0  0  0  0  0  0
   46.4580   29.1266   43.4013 H   0  0  0  0  0  0  0  0  0  0  0  0
   45.0574   27.3354   45.4122 H   0  0  0  0  0  0  0  0  0  0  0  0
   46.3293   26.8617   44.2112 H   0  0  0  0  0  0  0  0  0  0  0  0
   46.7123   27.7791   46.8576 H   0  0  0  0  0  0  0  0  0  0  0  0
   47.9562   27.4970   45.6076 H   0  0  0  0  0  0  0  0  0  0  0  0
   47.9470   29.8477   46.5365 H   0  0  0  0  0  0  0  0  0  0  0  0
   47.6778   29.7532   44.7433 H   0  0  0  0  0  0  0  0  0  0  0  0
  1  6  2  0
  2  3  2  0
  2  1  1  0
  3  4  1  0
  4  5  2  0
  5  7  1  0
  6  5  1  0
  7 12  1  0
  7  8  1  0
  8  9  1  0
  9 10  1  0
 11 10  1  0
 12 11  1  0
 13 12  1  0
 14 13  1  0
 15 14  1  0
 16 15  1  0
 16 17  1  0
 17 18  1  0
 19 18  1  0
 19 14  1  0
  1 20  1  0
  2 21  1  0
  3 22  1  0
  8 23  1  0
  8 24  1  0
  9 25  1  0
  9 26  1  0
 10 27  1  0
 11 28  1  0
 11 29  1  0
 12 30  1  1
 13 31  1  0
 13 32  1  0
 15 33  1  0
 15 34  1  0
 16 35  1  0
 16 36  1  0
 17 37  1  0
 17 38  1  0
 18 39  1  0
 18 40  1  0
 19 41  1  0
 19 42  1  0
M  ISO  8  20  14  21  14  22  14  23  13  24  13  25  13  26  13  27   5
M  ISO  8  28  13  29  13  30  13  31   8  32   8  33  13  34  13  35  13
M  ISO  7  36  13  37  13  38  13  39  13  40  13  41  13  42  13
M  END
>  <minimizedAffinity>  (1) 
-4.89073181

>  <minimizedRMSD>  (1) 
1.2529

$$$$
