
     RDKit          3D

 44 46  0  0  1  0  0  0  0  0999 V2000
   44.9970   34.6660   44.9600 C   0  0  0  0  0  0  0  0  0  0  0  0
   45.8930   34.6020   43.8550 C   0  0  0  0  0  0  0  0  0  0  0  0
   47.0020   33.7260   43.9520 C   0  0  0  0  0  0  0  0  0  0  0  0
   47.1200   33.0190   45.0930 N   0  0  0  0  0  0  0  0  0  0  0  0
   46.2730   33.0860   46.1280 C   0  0  0  0  0  0  0  0  0  0  0  0
   45.2190   33.9180   46.0370 N   0  0  0  0  0  0  0  0  0  0  0  0
   46.4970   32.3020   47.2660 N   0  0  0  0  0  0  0  0  0  0  0  0
   47.7220   32.4340   47.9960 C   0  0  0  0  0  0  0  0  0  0  0  0
   47.9940   31.2890   48.9280 C   0  0  0  0  0  0  0  0  0  0  0  0
   46.8550   30.6640   49.4940 N   0  0  0  0  0  0  0  0  0  0  0  0
   45.6200   31.3010   49.1770 C   0  0  0  0  0  0  0  0  0  0  0  0
   45.4690   31.3570   47.6940 C   0  0  2  0  0  0  0  0  0  0  0  0
   45.6420   30.0170   47.0410 C   0  0  0  0  0  0  0  0  0  0  0  0
   44.9150   29.0080   47.8900 C   0  0  0  0  0  0  0  0  0  0  0  0
   45.1580   27.7120   47.7960 C   0  0  0  0  0  0  0  0  0  0  0  0
   44.4560   26.6650   48.6240 C   0  0  0  0  0  0  0  0  0  0  0  0
   45.4010   25.6220   49.0770 C   0  0  0  0  0  0  0  0  0  0  0  0
   46.5500   25.2590   48.4190 C   0  0  0  0  0  0  0  0  0  0  0  0
   47.3660   24.2550   48.9500 C   0  0  0  0  0  0  0  0  0  0  0  0
   47.0210   23.6170   50.1460 C   0  0  0  0  0  0  0  0  0  0  0  0
   45.8630   23.9940   50.7940 C   0  0  0  0  0  0  0  0  0  0  0  0
   45.0700   24.9860   50.2560 C   0  0  0  0  0  0  0  0  0  0  0  0
   44.1230   35.3328   44.9228 H   0  0  0  0  0  0  0  0  0  0  0  0
   45.7292   35.2131   42.9551 H   0  0  0  0  0  0  0  0  0  0  0  0
   47.7319   33.6276   43.1350 H   0  0  0  0  0  0  0  0  0  0  0  0
   48.5505   32.5000   47.2755 H   0  0  0  0  0  0  0  0  0  0  0  0
   47.6320   33.3388   48.6151 H   0  0  0  0  0  0  0  0  0  0  0  0
   48.5536   30.5251   48.3682 H   0  0  0  0  0  0  0  0  0  0  0  0
   48.5464   31.7214   49.7753 H   0  0  0  0  0  0  0  0  0  0  0  0
   46.8152   29.6937   49.1508 H   0  0  0  0  0  0  0  0  0  0  0  0
   44.7874   30.7280   49.6111 H   0  0  0  0  0  0  0  0  0  0  0  0
   45.6108   32.3204   49.5902 H   0  0  0  0  0  0  0  0  0  0  0  0
   44.4557   31.6691   47.4012 H   0  0  0  0  0  0  0  0  0  0  0  0
   45.2145   30.0341   46.0276 H   0  0  0  0  0  0  0  0  0  0  0  0
   46.7081   29.7594   46.9570 H   0  0  0  0  0  0  0  0  0  0  0  0
   44.1602   29.3593   48.6089 H   0  0  0  0  0  0  0  0  0  0  0  0
   45.9159   27.3780   47.0721 H   0  0  0  0  0  0  0  0  0  0  0  0
   44.0038   27.1465   49.5036 H   0  0  0  0  0  0  0  0  0  0  0  0
   43.6827   26.1894   48.0029 H   0  0  0  0  0  0  0  0  0  0  0  0
   46.8277   25.7559   47.4778 H   0  0  0  0  0  0  0  0  0  0  0  0
   48.2867   23.9646   48.4228 H   0  0  0  0  0  0  0  0  0  0  0  0
   47.6629   22.8271   50.5632 H   0  0  0  0  0  0  0  0  0  0  0  0
   45.5732   23.5054   51.7360 H   0  0  0  0  0  0  0  0  0  0  0  0
   44.1486   25.2781   50.7811 H   0  0  0  0  0  0  0  0  0  0  0  0
  1  6  2  0
  2  3  2  0
  2  1  1  0
  3  4  1  0
  4  5  2  0
  5  7  1  0
  6  5  1  0
  7 12  1  0
  7  8  1  0
  8  9  1  0
  9 10  1  0
 11 10  1  0
 12 11  1  0
 13 12  1  0
 13 14  1  0
 15 14  2  0
 15 16  1  0
 16 17  1  0
 17 22  2  0
 18 19  2  0
 18 17  1  0
 19 20  1  0
 20 21  2  0
 22 21  1  0
  1 23  1  0
  2 24  1  0
  3 25  1  0
  8 26  1  0
  8 27  1  0
  9 28  1  0
  9 29  1  0
 10 30  1  0
 11 31  1  0
 11 32  1  0
 12 33  1  1
 13 34  1  0
 13 35  1  0
 14 36  1  0
 15 37  1  0
 16 38  1  0
 16 39  1  0
 18 40  1  0
 19 41  1  0
 20 42  1  0
 21 43  1  0
 22 44  1  0
M  ISO  8  23  14  24  14  25  14  26  13  27  13  28  13  29  13  30   5
M  ISO  8  31  13  32  13  33  13  34   8  35   8  38   8  39   8  40  14
M  ISO  4  41  14  42  14  43  14  44  14
M  END
>  <minimizedAffinity>  (1) 
-5.76097631

>  <minimizedRMSD>  (1) 
0.773331165

$$$$
