
     RDKit          3D

 44 46  0  0  1  0  0  0  0  0999 V2000
   44.9960   34.5900   44.9240 C   0  0  0  0  0  0  0  0  0  0  0  0
   45.9200   34.5750   43.8520 C   0  0  0  0  0  0  0  0  0  0  0  0
   47.0410   33.7510   43.9770 C   0  0  0  0  0  0  0  0  0  0  0  0
   47.1730   33.0230   45.1070 N   0  0  0  0  0  0  0  0  0  0  0  0
   46.2840   33.0480   46.1210 C   0  0  0  0  0  0  0  0  0  0  0  0
   45.2160   33.8330   46.0040 N   0  0  0  0  0  0  0  0  0  0  0  0
   46.5180   32.2540   47.2480 N   0  0  0  0  0  0  0  0  0  0  0  0
   47.7280   32.4160   48.0110 C   0  0  0  0  0  0  0  0  0  0  0  0
   48.0040   31.2870   48.9500 C   0  0  0  0  0  0  0  0  0  0  0  0
   46.8880   30.5880   49.4710 N   0  0  0  0  0  0  0  0  0  0  0  0
   45.6370   31.1860   49.1200 C   0  0  0  0  0  0  0  0  0  0  0  0
   45.5080   31.2550   47.6330 C   0  0  2  0  0  0  0  0  0  0  0  0
   45.7500   29.9400   46.9850 C   0  0  0  0  0  0  0  0  0  0  0  0
   44.7990   28.9440   47.6080 C   0  0  0  0  0  0  0  0  0  0  0  0
   45.1400   27.6620   47.7530 C   0  0  0  0  0  0  0  0  0  0  0  0
   44.2440   26.6480   48.3700 C   0  0  0  0  0  0  0  0  0  0  0  0
   45.8630   24.1480   47.4160 Cl  0  0  0  0  0  0  0  0  0  0  0  0
   44.2260   24.5150   46.8760 C   0  0  0  0  0  0  0  0  0  0  0  0
   43.7360   25.6570   47.4270 C   0  0  0  0  0  0  0  0  0  0  0  0
   42.4460   25.9840   47.0200 C   0  0  0  0  0  0  0  0  0  0  0  0
   41.7270   25.2000   46.1240 C   0  0  0  0  0  0  0  0  0  0  0  0
   42.2670   24.0500   45.5930 C   0  0  0  0  0  0  0  0  0  0  0  0
   43.5610   23.7180   45.9970 C   0  0  0  0  0  0  0  0  0  0  0  0
   44.0984   35.2234   44.8688 H   0  0  0  0  0  0  0  0  0  0  0  0
   45.7612   35.1895   42.9536 H   0  0  0  0  0  0  0  0  0  0  0  0
   47.7949   33.6966   43.1778 H   0  0  0  0  0  0  0  0  0  0  0  0
   48.5717   32.4983   47.3100 H   0  0  0  0  0  0  0  0  0  0  0  0
   47.6013   33.3199   48.6249 H   0  0  0  0  0  0  0  0  0  0  0  0
   48.6303   30.5579   48.4150 H   0  0  0  0  0  0  0  0  0  0  0  0
   48.4767   31.7567   49.8252 H   0  0  0  0  0  0  0  0  0  0  0  0
   46.9048   29.6250   49.1059 H   0  0  0  0  0  0  0  0  0  0  0  0
   44.8152   30.5807   49.5301 H   0  0  0  0  0  0  0  0  0  0  0  0
   45.5916   32.2033   49.5359 H   0  0  0  0  0  0  0  0  0  0  0  0
   44.4928   31.5290   47.3101 H   0  0  0  0  0  0  0  0  0  0  0  0
   46.7897   29.6234   47.1549 H   0  0  0  0  0  0  0  0  0  0  0  0
   45.5843   30.0069   45.8996 H   0  0  0  0  0  0  0  0  0  0  0  0
   43.8088   29.2817   47.9477 H   0  0  0  0  0  0  0  0  0  0  0  0
   46.1306   27.3401   47.3994 H   0  0  0  0  0  0  0  0  0  0  0  0
   44.8054   26.1222   49.1563 H   0  0  0  0  0  0  0  0  0  0  0  0
   43.3720   27.1900   48.7648 H   0  0  0  0  0  0  0  0  0  0  0  0
   41.9783   26.8951   47.4213 H   0  0  0  0  0  0  0  0  0  0  0  0
   40.7101   25.5037   45.8348 H   0  0  0  0  0  0  0  0  0  0  0  0
   41.7056   23.4232   44.8845 H   0  0  0  0  0  0  0  0  0  0  0  0
   44.0435   22.8109   45.6042 H   0  0  0  0  0  0  0  0  0  0  0  0
  1  6  2  0
  2  3  2  0
  2  1  1  0
  3  4  1  0
  4  5  2  0
  5  7  1  0
  6  5  1  0
  7 12  1  0
  7  8  1  0
  8  9  1  0
  9 10  1  0
 11 10  1  0
 12 11  1  0
 13 14  1  0
 13 12  1  0
 14 15  2  0
 15 16  1  0
 18 17  1  0
 18 19  2  0
 19 16  1  0
 20 19  1  0
 21 20  2  0
 22 23  2  0
 22 21  1  0
 23 18  1  0
  1 24  1  0
  2 25  1  0
  3 26  1  0
  8 27  1  0
  8 28  1  0
  9 29  1  0
  9 30  1  0
 10 31  1  0
 11 32  1  0
 11 33  1  0
 12 34  1  1
 13 35  1  0
 13 36  1  0
 14 37  1  0
 15 38  1  0
 16 39  1  0
 16 40  1  0
 20 41  1  0
 21 42  1  0
 22 43  1  0
 23 44  1  0
M  ISO  8  24  14  25  14  26  14  27  13  28  13  29  13  30  13  31   5
M  ISO  8  32  13  33  13  34  13  35   8  36   8  39   8  40   8  41  14
M  ISO  3  42  14  43  14  44  14
M  END
>  <minimizedAffinity>  (1) 
-5.72408915

>  <minimizedRMSD>  (1) 
0.787972271

$$$$
