
     RDKit          3D

 40 41  0  0  1  0  0  0  0  0999 V2000
   44.9910   34.6420   44.9210 C   0  0  0  0  0  0  0  0  0  0  0  0
   45.9060   34.6060   43.8440 C   0  0  0  0  0  0  0  0  0  0  0  0
   47.0220   33.7740   43.9570 C   0  0  0  0  0  0  0  0  0  0  0  0
   47.1610   33.0530   45.0910 N   0  0  0  0  0  0  0  0  0  0  0  0
   46.2850   33.0930   46.1140 C   0  0  0  0  0  0  0  0  0  0  0  0
   45.2060   33.8930   46.0080 N   0  0  0  0  0  0  0  0  0  0  0  0
   46.5190   32.3080   47.2450 N   0  0  0  0  0  0  0  0  0  0  0  0
   47.7280   32.4640   47.9950 C   0  0  0  0  0  0  0  0  0  0  0  0
   48.0050   31.3210   48.9180 C   0  0  0  0  0  0  0  0  0  0  0  0
   46.8750   30.6540   49.4660 N   0  0  0  0  0  0  0  0  0  0  0  0
   45.6330   31.2590   49.1330 C   0  0  0  0  0  0  0  0  0  0  0  0
   45.4990   31.3220   47.6460 C   0  0  2  0  0  0  0  0  0  0  0  0
   45.7160   29.9920   46.9920 C   0  0  0  0  0  0  0  0  0  0  0  0
   44.8760   28.9880   47.7180 C   0  0  0  0  0  0  0  0  0  0  0  0
   45.0840   27.6910   47.6450 C   0  0  0  0  0  0  0  0  0  0  0  0
   44.2850   26.6430   48.3430 C   0  0  0  0  0  0  0  0  0  0  0  0
   44.6600   25.3510   48.0210 O   0  0  0  0  0  0  0  0  0  0  0  0
   44.9050   25.3920   50.5780 O   0  0  0  0  0  0  0  0  0  0  0  0
   45.5950   24.8080   49.3460 P   0  0  0  0  0  0  0  0  0  0  0  0
   47.1790   25.3950   49.2590 O   0  0  0  0  0  0  0  0  0  0  0  0
   45.6330   23.1320   49.4240 O   0  0  0  0  0  0  0  0  0  0  0  0
   44.1014   35.2866   44.8650 H   0  0  0  0  0  0  0  0  0  0  0  0
   45.7437   35.2157   42.9429 H   0  0  0  0  0  0  0  0  0  0  0  0
   47.7645   33.7078   43.1481 H   0  0  0  0  0  0  0  0  0  0  0  0
   48.5671   32.5538   47.2894 H   0  0  0  0  0  0  0  0  0  0  0  0
   47.6106   33.3633   48.6174 H   0  0  0  0  0  0  0  0  0  0  0  0
   48.5929   30.5772   48.3602 H   0  0  0  0  0  0  0  0  0  0  0  0
   48.5245   31.7650   49.7799 H   0  0  0  0  0  0  0  0  0  0  0  0
   46.8684   29.6855   49.1156 H   0  0  0  0  0  0  0  0  0  0  0  0
   44.8093   30.6621   49.5515 H   0  0  0  0  0  0  0  0  0  0  0  0
   45.5941   32.2759   49.5505 H   0  0  0  0  0  0  0  0  0  0  0  0
   44.4843   31.6082   47.3322 H   0  0  0  0  0  0  0  0  0  0  0  0
   45.4139   30.0399   45.9354 H   0  0  0  0  0  0  0  0  0  0  0  0
   46.7783   29.7096   47.0342 H   0  0  0  0  0  0  0  0  0  0  0  0
   44.0461   29.3516   48.3417 H   0  0  0  0  0  0  0  0  0  0  0  0
   45.9189   27.3503   47.0150 H   0  0  0  0  0  0  0  0  0  0  0  0
   44.4057   26.7794   49.4278 H   0  0  0  0  0  0  0  0  0  0  0  0
   43.2412   26.7651   48.0180 H   0  0  0  0  0  0  0  0  0  0  0  0
   47.5330   25.5262   50.1742 H   0  0  0  0  0  0  0  0  0  0  0  0
   45.6395   22.8458   50.3717 H   0  0  0  0  0  0  0  0  0  0  0  0
  1  6  2  0
  2  3  2  0
  2  1  1  0
  3  4  1  0
  4  5  2  0
  5  7  1  0
  6  5  1  0
  7 12  1  0
  7  8  1  0
  8  9  1  0
  9 10  1  0
 11 10  1  0
 12 11  1  0
 13 12  1  0
 13 14  1  0
 15 14  2  0
 15 16  1  0
 17 16  1  0
 17 19  1  0
 19 21  1  0
 19 18  2  0
 20 19  1  0
  1 22  1  0
  2 23  1  0
  3 24  1  0
  8 25  1  0
  8 26  1  0
  9 27  1  0
  9 28  1  0
 10 29  1  0
 11 30  1  0
 11 31  1  0
 12 32  1  1
 13 33  1  0
 13 34  1  0
 14 35  1  0
 15 36  1  0
 16 37  1  0
 16 38  1  0
 20 39  1  0
 21 40  1  0
M  ISO  8  22  14  23  14  24  14  25  13  26  13  27  13  28  13  29   5
M  ISO  8  30  13  31  13  32  13  33   8  34   8  37   8  38   8  39   3
M  ISO  1  40   3
M  END
>  <minimizedAffinity>  (1) 
-5.62222433

>  <minimizedRMSD>  (1) 
1.50130582

$$$$
