
     RDKit          3D

 41 43  0  0  1  0  0  0  0  0999 V2000
   44.9960   34.6110   44.9300 C   0  0  0  0  0  0  0  0  0  0  0  0
   45.9140   34.5740   43.8560 C   0  0  0  0  0  0  0  0  0  0  0  0
   47.0310   33.7380   43.9650 C   0  0  0  0  0  0  0  0  0  0  0  0
   47.1720   33.0080   45.0990 N   0  0  0  0  0  0  0  0  0  0  0  0
   46.2970   33.0510   46.1100 C   0  0  0  0  0  0  0  0  0  0  0  0
   45.2170   33.8540   46.0130 N   0  0  0  0  0  0  0  0  0  0  0  0
   46.5160   32.2670   47.2430 N   0  0  0  0  0  0  0  0  0  0  0  0
   47.7270   32.4130   48.0060 C   0  0  0  0  0  0  0  0  0  0  0  0
   47.9950   31.2740   48.9370 C   0  0  0  0  0  0  0  0  0  0  0  0
   46.8590   30.6220   49.4910 N   0  0  0  0  0  0  0  0  0  0  0  0
   45.6180   31.2300   49.1360 C   0  0  0  0  0  0  0  0  0  0  0  0
   45.4910   31.2900   47.6430 C   0  0  2  0  0  0  0  0  0  0  0  0
   45.7040   29.9580   46.9970 C   0  0  0  0  0  0  0  0  0  0  0  0
   44.8220   28.9650   47.7000 C   0  0  0  0  0  0  0  0  0  0  0  0
   45.1180   27.6880   47.7740 C   0  0  0  0  0  0  0  0  0  0  0  0
   44.2810   26.6600   48.4560 C   0  0  0  0  0  0  0  0  0  0  0  0
   43.4420   25.9010   47.5120 C   0  0  0  0  0  0  0  0  0  0  0  0
   42.1440   25.8700   46.9960 C   0  0  0  0  0  0  0  0  0  0  0  0
   41.8500   24.8950   46.0860 C   0  0  0  0  0  0  0  0  0  0  0  0
   42.8000   23.9690   45.6880 C   0  0  0  0  0  0  0  0  0  0  0  0
   44.3100   24.4550   46.6570 S   0  0  0  0  0  0  0  0  0  0  0  0
   44.1068   35.2564   44.8771 H   0  0  0  0  0  0  0  0  0  0  0  0
   45.7544   35.1871   42.9568 H   0  0  0  0  0  0  0  0  0  0  0  0
   47.7725   33.6749   43.1549 H   0  0  0  0  0  0  0  0  0  0  0  0
   48.5709   32.4938   47.3050 H   0  0  0  0  0  0  0  0  0  0  0  0
   47.6077   33.3130   48.6271 H   0  0  0  0  0  0  0  0  0  0  0  0
   48.5751   30.5206   48.3839 H   0  0  0  0  0  0  0  0  0  0  0  0
   48.5204   31.7189   49.7949 H   0  0  0  0  0  0  0  0  0  0  0  0
   46.8499   29.6469   49.1592 H   0  0  0  0  0  0  0  0  0  0  0  0
   44.7891   30.6368   49.5495 H   0  0  0  0  0  0  0  0  0  0  0  0
   45.5832   32.2506   49.5450 H   0  0  0  0  0  0  0  0  0  0  0  0
   44.4797   31.5819   47.3235 H   0  0  0  0  0  0  0  0  0  0  0  0
   45.4347   30.0105   45.9318 H   0  0  0  0  0  0  0  0  0  0  0  0
   46.7595   29.6573   47.0714 H   0  0  0  0  0  0  0  0  0  0  0  0
   43.8936   29.3214   48.1702 H   0  0  0  0  0  0  0  0  0  0  0  0
   46.0513   27.3523   47.2983 H   0  0  0  0  0  0  0  0  0  0  0  0
   44.9438   25.9577   48.9827 H   0  0  0  0  0  0  0  0  0  0  0  0
   43.6108   27.1830   49.1541 H   0  0  0  0  0  0  0  0  0  0  0  0
   41.3871   26.6035   47.3109 H   0  0  0  0  0  0  0  0  0  0  0  0
   40.8371   24.8440   45.6600 H   0  0  0  0  0  0  0  0  0  0  0  0
   42.6877   23.1432   44.9700 H   0  0  0  0  0  0  0  0  0  0  0  0
  1  6  2  0
  2  3  2  0
  2  1  1  0
  3  4  1  0
  4  5  2  0
  5  7  1  0
  6  5  1  0
  7 12  1  0
  7  8  1  0
  8  9  1  0
  9 10  1  0
 11 10  1  0
 12 11  1  0
 13 12  1  0
 13 14  1  0
 14 15  2  0
 15 16  1  0
 17 16  1  0
 18 17  2  0
 19 18  1  0
 20 19  2  0
 20 21  1  0
 21 17  1  0
  1 22  1  0
  2 23  1  0
  3 24  1  0
  8 25  1  0
  8 26  1  0
  9 27  1  0
  9 28  1  0
 10 29  1  0
 11 30  1  0
 11 31  1  0
 12 32  1  1
 13 33  1  0
 13 34  1  0
 14 35  1  0
 15 36  1  0
 16 37  1  0
 16 38  1  0
 18 39  1  0
 19 40  1  0
 20 41  1  0
M  ISO  8  22  14  23  14  24  14  25  13  26  13  27  13  28  13  29   5
M  ISO  8  30  13  31  13  32  13  33   8  34   8  37   8  38   8  39  14
M  ISO  2  40  14  41  14
M  END
>  <minimizedAffinity>  (1) 
-5.45511818

>  <minimizedRMSD>  (1) 
0.598266244

$$$$
