
     RDKit          3D

 38 39  0  0  1  0  0  0  0  0999 V2000
   44.9830   34.6540   44.9340 C   0  0  0  0  0  0  0  0  0  0  0  0
   45.9030   34.6230   43.8350 C   0  0  0  0  0  0  0  0  0  0  0  0
   47.0170   33.7810   43.9550 C   0  0  0  0  0  0  0  0  0  0  0  0
   47.1590   33.0560   45.0840 N   0  0  0  0  0  0  0  0  0  0  0  0
   46.2790   33.1020   46.1090 C   0  0  0  0  0  0  0  0  0  0  0  0
   45.2140   33.9030   46.0020 N   0  0  0  0  0  0  0  0  0  0  0  0
   46.5170   32.3110   47.2370 N   0  0  0  0  0  0  0  0  0  0  0  0
   47.7330   32.4630   47.9830 C   0  0  0  0  0  0  0  0  0  0  0  0
   48.0150   31.3240   48.9140 C   0  0  0  0  0  0  0  0  0  0  0  0
   46.8730   30.6700   49.4680 N   0  0  0  0  0  0  0  0  0  0  0  0
   45.6300   31.2770   49.1330 C   0  0  0  0  0  0  0  0  0  0  0  0
   45.5060   31.3340   47.6360 C   0  0  2  0  0  0  0  0  0  0  0  0
   45.7170   30.0030   46.9970 C   0  0  0  0  0  0  0  0  0  0  0  0
   44.8960   28.9990   47.7490 C   0  0  0  0  0  0  0  0  0  0  0  0
   45.1580   27.7100   47.7130 C   0  0  0  0  0  0  0  0  0  0  0  0
   44.3720   26.6590   48.4420 C   0  0  0  0  0  0  0  0  0  0  0  0
   44.4860   25.6510   50.5710 C   0  0  0  0  0  0  0  0  0  0  0  0
   43.3500   26.1300   50.7930 O   0  0  0  0  0  0  0  0  0  0  0  0
   45.1510   25.8640   49.3340 N   0  0  0  0  0  0  0  0  0  0  0  0
   44.0913   35.2966   44.8915 H   0  0  0  0  0  0  0  0  0  0  0  0
   45.7413   35.2346   42.9351 H   0  0  0  0  0  0  0  0  0  0  0  0
   47.7595   33.7127   43.1462 H   0  0  0  0  0  0  0  0  0  0  0  0
   48.5684   32.5454   47.2722 H   0  0  0  0  0  0  0  0  0  0  0  0
   47.6189   33.3643   48.6032 H   0  0  0  0  0  0  0  0  0  0  0  0
   48.5970   30.5728   48.3599 H   0  0  0  0  0  0  0  0  0  0  0  0
   48.5475   31.7654   49.7693 H   0  0  0  0  0  0  0  0  0  0  0  0
   46.8601   29.6986   49.1258 H   0  0  0  0  0  0  0  0  0  0  0  0
   44.8040   30.6822   49.5499 H   0  0  0  0  0  0  0  0  0  0  0  0
   45.5864   32.2938   49.5504 H   0  0  0  0  0  0  0  0  0  0  0  0
   44.4956   31.6229   47.3111 H   0  0  0  0  0  0  0  0  0  0  0  0
   45.3955   30.0374   45.9456 H   0  0  0  0  0  0  0  0  0  0  0  0
   46.7816   29.7275   47.0249 H   0  0  0  0  0  0  0  0  0  0  0  0
   44.0458   29.3518   48.3512 H   0  0  0  0  0  0  0  0  0  0  0  0
   46.0135   27.3791   47.1058 H   0  0  0  0  0  0  0  0  0  0  0  0
   43.5833   27.1587   49.0236 H   0  0  0  0  0  0  0  0  0  0  0  0
   43.9692   25.9772   47.6785 H   0  0  0  0  0  0  0  0  0  0  0  0
   44.9793   25.0524   51.3510 H   0  0  0  0  0  0  0  0  0  0  0  0
   46.0836   25.4894   49.1083 H   0  0  0  0  0  0  0  0  0  0  0  0
  1  6  2  0
  2  3  2  0
  2  1  1  0
  3  4  1  0
  4  5  2  0
  5  7  1  0
  6  5  1  0
  7 12  1  0
  7  8  1  0
  8  9  1  0
  9 10  1  0
 11 10  1  0
 12 11  1  0
 13 12  1  0
 13 14  1  0
 15 14  2  0
 15 16  1  0
 16 19  1  0
 17 18  2  0
 19 17  1  0
  1 20  1  0
  2 21  1  0
  3 22  1  0
  8 23  1  0
  8 24  1  0
  9 25  1  0
  9 26  1  0
 10 27  1  0
 11 28  1  0
 11 29  1  0
 12 30  1  1
 13 31  1  0
 13 32  1  0
 14 33  1  0
 15 34  1  0
 16 35  1  0
 16 36  1  0
 17 37  1  0
 19 38  1  0
M  ISO  8  20  14  21  14  22  14  23  13  24  13  25  13  26  13  27   5
M  ISO  8  28  13  29  13  30  13  31   8  32   8  35   8  36   8  37   6
M  END
>  <minimizedAffinity>  (1) 
-5.24843216

>  <minimizedRMSD>  (1) 
0.280143231

$$$$
