
     RDKit          3D

 35 36  0  0  1  0  0  0  0  0999 V2000
   44.9900   34.6350   44.9350 C   0  0  0  0  0  0  0  0  0  0  0  0
   45.9120   34.5830   43.8450 C   0  0  0  0  0  0  0  0  0  0  0  0
   47.0220   33.7410   43.9540 C   0  0  0  0  0  0  0  0  0  0  0  0
   47.1700   33.0150   45.0900 N   0  0  0  0  0  0  0  0  0  0  0  0
   46.2920   33.0700   46.1180 C   0  0  0  0  0  0  0  0  0  0  0  0
   45.2230   33.8800   46.0140 N   0  0  0  0  0  0  0  0  0  0  0  0
   46.5190   32.2890   47.2500 N   0  0  0  0  0  0  0  0  0  0  0  0
   47.7340   32.4470   48.0000 C   0  0  0  0  0  0  0  0  0  0  0  0
   48.0190   31.3090   48.9330 C   0  0  0  0  0  0  0  0  0  0  0  0
   46.9000   30.6400   49.4780 N   0  0  0  0  0  0  0  0  0  0  0  0
   45.6540   31.2600   49.1460 C   0  0  0  0  0  0  0  0  0  0  0  0
   45.5050   31.3190   47.6520 C   0  0  2  0  0  0  0  0  0  0  0  0
   45.6940   29.9860   47.0170 C   0  0  0  0  0  0  0  0  0  0  0  0
   44.8410   28.9890   47.7300 C   0  0  0  0  0  0  0  0  0  0  0  0
   45.1520   27.7100   47.7820 C   0  0  0  0  0  0  0  0  0  0  0  0
   44.3330   26.6700   48.4830 C   0  0  0  0  0  0  0  0  0  0  0  0
   45.1480   26.1420   49.4950 O   0  0  0  0  0  0  0  0  0  0  0  0
   44.1037   35.2848   44.8876 H   0  0  0  0  0  0  0  0  0  0  0  0
   45.7522   35.1907   42.9422 H   0  0  0  0  0  0  0  0  0  0  0  0
   47.7572   33.6689   43.1390 H   0  0  0  0  0  0  0  0  0  0  0  0
   48.5708   32.5328   47.2912 H   0  0  0  0  0  0  0  0  0  0  0  0
   47.6143   33.3481   48.6195 H   0  0  0  0  0  0  0  0  0  0  0  0
   48.6150   30.5670   48.3814 H   0  0  0  0  0  0  0  0  0  0  0  0
   48.5324   31.7624   49.7938 H   0  0  0  0  0  0  0  0  0  0  0  0
   46.8903   29.6741   49.1204 H   0  0  0  0  0  0  0  0  0  0  0  0
   44.8274   30.6737   49.5738 H   0  0  0  0  0  0  0  0  0  0  0  0
   45.6317   32.2802   49.5568 H   0  0  0  0  0  0  0  0  0  0  0  0
   44.4953   31.6153   47.3315 H   0  0  0  0  0  0  0  0  0  0  0  0
   45.3990   30.0354   45.9585 H   0  0  0  0  0  0  0  0  0  0  0  0
   46.7509   29.6877   47.0807 H   0  0  0  0  0  0  0  0  0  0  0  0
   43.9229   29.3339   48.2281 H   0  0  0  0  0  0  0  0  0  0  0  0
   46.0736   27.3843   47.2775 H   0  0  0  0  0  0  0  0  0  0  0  0
   43.4316   27.1254   48.9189 H   0  0  0  0  0  0  0  0  0  0  0  0
   44.0025   25.8855   47.7864 H   0  0  0  0  0  0  0  0  0  0  0  0
   44.7745   26.3840   50.3794 H   0  0  0  0  0  0  0  0  0  0  0  0
  1  6  2  0
  2  3  2  0
  2  1  1  0
  3  4  1  0
  4  5  2  0
  5  7  1  0
  6  5  1  0
  7 12  1  0
  7  8  1  0
  8  9  1  0
  9 10  1  0
 11 10  1  0
 12 11  1  0
 13 12  1  0
 13 14  1  0
 14 15  2  0
 15 16  1  0
 16 17  1  0
  1 18  1  0
  2 19  1  0
  3 20  1  0
  8 21  1  0
  8 22  1  0
  9 23  1  0
  9 24  1  0
 10 25  1  0
 11 26  1  0
 11 27  1  0
 12 28  1  1
 13 29  1  0
 13 30  1  0
 14 31  1  0
 15 32  1  0
 16 33  1  0
 16 34  1  0
 17 35  1  0
M  ISO  8  18  14  19  14  20  14  21  13  22  13  23  13  24  13  25   5
M  ISO  8  26  13  27  13  28  13  29   8  30   8  33   8  34   8  35   3
M  END
>  <minimizedAffinity>  (1) 
-4.98942327

>  <minimizedRMSD>  (1) 
0.0392507203

$$$$
