
     RDKit          3D

 51 54  0  0  1  0  0  0  0  0999 V2000
   45.6290   30.0330   47.0700 C   0  0  0  0  0  0  0  0  0  0  0  0
   45.0060   34.6740   44.9400 C   0  0  0  0  0  0  0  0  0  0  0  0
   45.9060   34.5860   43.8430 C   0  0  0  0  0  0  0  0  0  0  0  0
   46.9940   33.7160   43.9480 C   0  0  0  0  0  0  0  0  0  0  0  0
   47.1160   33.0140   45.0970 N   0  0  0  0  0  0  0  0  0  0  0  0
   46.2780   33.0940   46.1240 C   0  0  0  0  0  0  0  0  0  0  0  0
   45.2440   33.9280   46.0090 N   0  0  0  0  0  0  0  0  0  0  0  0
   46.4940   32.3260   47.2620 N   0  0  0  0  0  0  0  0  0  0  0  0
   47.7330   32.4450   48.0010 C   0  0  0  0  0  0  0  0  0  0  0  0
   47.9880   31.3000   48.9300 C   0  0  0  0  0  0  0  0  0  0  0  0
   46.8460   30.6960   49.5240 N   0  0  0  0  0  0  0  0  0  0  0  0
   45.6130   31.3550   49.1920 C   0  0  0  0  0  0  0  0  0  0  0  0
   45.4440   31.3880   47.7090 C   0  0  2  0  0  0  0  0  0  0  0  0
   44.7270   29.0910   47.8270 C   0  0  0  0  0  0  0  0  0  0  0  0
   45.0610   27.8090   47.9570 C   0  0  0  0  0  0  0  0  0  0  0  0
   44.2400   26.8020   48.6860 C   0  0  0  0  0  0  0  0  0  0  0  0
   43.9030   25.6670   47.7420 C   0  0  2  0  0  0  0  0  0  0  0  0
   44.6120   25.6020   46.4260 C   0  0  0  0  0  0  0  0  0  0  0  0
   43.1540   25.9340   46.5050 C   0  0  1  0  0  0  0  0  0  0  0  0
   40.4790   26.6040   46.6540 F   0  0  0  0  0  0  0  0  0  0  0  0
   40.8060   25.3950   46.1410 C   0  0  0  0  0  0  0  0  0  0  0  0
   42.1360   24.9750   46.0290 C   0  0  0  0  0  0  0  0  0  0  0  0
   42.3950   23.7200   45.4930 C   0  0  0  0  0  0  0  0  0  0  0  0
   41.3830   22.8830   45.0700 C   0  0  0  0  0  0  0  0  0  0  0  0
   40.0580   23.2690   45.1680 C   0  0  0  0  0  0  0  0  0  0  0  0
   39.8390   24.5150   45.7020 C   0  0  0  0  0  0  0  0  0  0  0  0
   45.3411   30.0681   46.0089 H   0  0  0  0  0  0  0  0  0  0  0  0
   46.6788   29.7072   47.1120 H   0  0  0  0  0  0  0  0  0  0  0  0
   44.1345   35.3441   44.9024 H   0  0  0  0  0  0  0  0  0  0  0  0
   45.7498   35.1873   42.9352 H   0  0  0  0  0  0  0  0  0  0  0  0
   47.7211   33.6067   43.1299 H   0  0  0  0  0  0  0  0  0  0  0  0
   48.5632   32.5008   47.2815 H   0  0  0  0  0  0  0  0  0  0  0  0
   47.6543   33.3512   48.6195 H   0  0  0  0  0  0  0  0  0  0  0  0
   48.5200   30.5220   48.3628 H   0  0  0  0  0  0  0  0  0  0  0  0
   48.5589   31.7274   49.7675 H   0  0  0  0  0  0  0  0  0  0  0  0
   46.7901   29.7186   49.2038 H   0  0  0  0  0  0  0  0  0  0  0  0
   44.7726   30.8076   49.6438 H   0  0  0  0  0  0  0  0  0  0  0  0
   45.6341   32.3843   49.5794 H   0  0  0  0  0  0  0  0  0  0  0  0
   44.4272   31.6939   47.4217 H   0  0  0  0  0  0  0  0  0  0  0  0
   43.7925   29.4634   48.2720 H   0  0  0  0  0  0  0  0  0  0  0  0
   46.0019   27.4721   47.4975 H   0  0  0  0  0  0  0  0  0  0  0  0
   44.8088   26.4126   49.5432 H   0  0  0  0  0  0  0  0  0  0  0  0
   43.3140   27.2702   49.0511 H   0  0  0  0  0  0  0  0  0  0  0  0
   43.7585   24.9812   48.5898 H   0  0  0  0  0  0  0  0  0  0  0  0
   44.9374   24.6327   46.0203 H   0  0  0  0  0  0  0  0  0  0  0  0
   45.5026   26.0784   45.9903 H   0  0  0  0  0  0  0  0  0  0  0  0
   42.5294   26.7619   46.1382 H   0  0  0  0  0  0  0  0  0  0  0  0
   43.4383   23.3833   45.4031 H   0  0  0  0  0  0  0  0  0  0  0  0
   41.6325   21.8974   44.6500 H   0  0  0  0  0  0  0  0  0  0  0  0
   39.2332   22.6196   44.8393 H   0  0  0  0  0  0  0  0  0  0  0  0
   38.7924   24.8425   45.7878 H   0  0  0  0  0  0  0  0  0  0  0  0
  1 13  1  0
  1 14  1  0
  2  7  2  0
  3  4  2  0
  3  2  1  0
  4  5  1  0
  5  6  2  0
  6  8  1  0
  7  6  1  0
  8 13  1  0
  8  9  1  0
  9 10  1  0
 10 11  1  0
 12 11  1  0
 13 12  1  0
 14 15  2  0
 15 16  1  0
 17 16  1  0
 18 19  1  0
 18 17  1  0
 19 17  1  0
 21 20  1  0
 22 21  2  0
 22 19  1  0
 23 22  1  0
 24 25  1  0
 24 23  2  0
 25 26  2  0
 26 21  1  0
  1 27  1  0
  1 28  1  0
  2 29  1  0
  3 30  1  0
  4 31  1  0
  9 32  1  0
  9 33  1  0
 10 34  1  0
 10 35  1  0
 11 36  1  0
 12 37  1  0
 12 38  1  0
 13 39  1  1
 14 40  1  0
 15 41  1  0
 16 42  1  0
 16 43  1  0
 17 44  1  1
 18 45  1  0
 18 46  1  0
 19 47  1  1
 23 48  1  0
 24 49  1  0
 25 50  1  0
 26 51  1  0
M  ISO  8  27   8  28   8  29  14  30  14  31  14  32  13  33  13  34  13
M  ISO  8  35  13  36   5  37  13  38  13  39  13  42   8  43   8  44  13
M  ISO  7  45  13  46  13  47  13  48  14  49  14  50  14  51  14
M  END
>  <minimizedAffinity>  (1) 
-6.34322643

>  <minimizedRMSD>  (1) 
1.31113207

$$$$
