
     RDKit          3D

 48 51  0  0  1  0  0  0  0  0999 V2000
   45.0200   34.7260   44.9690 C   0  0  0  0  0  0  0  0  0  0  0  0
   45.8840   34.5660   43.8500 C   0  0  0  0  0  0  0  0  0  0  0  0
   46.9190   33.6440   43.9380 C   0  0  0  0  0  0  0  0  0  0  0  0
   47.0420   32.9480   45.0990 N   0  0  0  0  0  0  0  0  0  0  0  0
   46.2360   33.0970   46.1430 C   0  0  0  0  0  0  0  0  0  0  0  0
   45.2490   33.9860   46.0380 N   0  0  0  0  0  0  0  0  0  0  0  0
   46.4400   32.3380   47.2900 N   0  0  0  0  0  0  0  0  0  0  0  0
   47.7040   32.3980   47.9920 C   0  0  0  0  0  0  0  0  0  0  0  0
   47.9220   31.2510   48.9340 C   0  0  0  0  0  0  0  0  0  0  0  0
   46.7610   30.7270   49.5720 N   0  0  0  0  0  0  0  0  0  0  0  0
   45.5650   31.4500   49.2610 C   0  0  0  0  0  0  0  0  0  0  0  0
   45.3510   31.4710   47.7840 C   0  0  2  0  0  0  0  0  0  0  0  0
   45.4400   30.0950   47.1670 C   0  0  0  0  0  0  0  0  0  0  0  0
   44.8580   29.1510   48.1910 C   0  0  0  0  0  0  0  0  0  0  0  0
   44.9760   27.8330   48.0310 C   0  0  0  0  0  0  0  0  0  0  0  0
   44.4440   26.8150   48.9700 C   0  0  0  0  0  0  0  0  0  0  0  0
   43.7340   25.7370   48.1700 C   0  0  2  0  0  0  0  0  0  0  0  0
   44.5160   25.0050   47.1260 C   0  0  0  0  0  0  0  0  0  0  0  0
   43.3960   25.9660   46.7580 C   0  0  1  0  0  0  0  0  0  0  0  0
   42.1460   25.3640   46.2090 C   0  0  0  0  0  0  0  0  0  0  0  0
   40.8720   25.7130   46.6500 C   0  0  0  0  0  0  0  0  0  0  0  0
   40.0150   24.9230   45.8810 C   0  0  0  0  0  0  0  0  0  0  0  0
   40.7950   24.1480   45.0290 C   0  0  0  0  0  0  0  0  0  0  0  0
   42.0600   24.4420   45.2550 O   0  0  0  0  0  0  0  0  0  0  0  0
   44.1870   35.4440   44.9442 H   0  0  0  0  0  0  0  0  0  0  0  0
   45.7356   35.1592   42.9356 H   0  0  0  0  0  0  0  0  0  0  0  0
   47.6129   33.4831   43.0998 H   0  0  0  0  0  0  0  0  0  0  0  0
   48.5150   32.3969   47.2489 H   0  0  0  0  0  0  0  0  0  0  0  0
   47.6936   33.3160   48.5979 H   0  0  0  0  0  0  0  0  0  0  0  0
   48.3886   30.4339   48.3643 H   0  0  0  0  0  0  0  0  0  0  0  0
   48.5455   31.6536   49.7459 H   0  0  0  0  0  0  0  0  0  0  0  0
   46.6380   29.7489   49.2735 H   0  0  0  0  0  0  0  0  0  0  0  0
   44.7073   30.9615   49.7465 H   0  0  0  0  0  0  0  0  0  0  0  0
   45.6619   32.4829   49.6266 H   0  0  0  0  0  0  0  0  0  0  0  0
   44.3461   31.8325   47.5202 H   0  0  0  0  0  0  0  0  0  0  0  0
   44.8590   30.0546   46.2339 H   0  0  0  0  0  0  0  0  0  0  0  0
   46.4769   29.8299   46.9128 H   0  0  0  0  0  0  0  0  0  0  0  0
   44.3350   29.5519   49.0718 H   0  0  0  0  0  0  0  0  0  0  0  0
   45.5068   27.4737   47.1371 H   0  0  0  0  0  0  0  0  0  0  0  0
   45.2723   26.3681   49.5393 H   0  0  0  0  0  0  0  0  0  0  0  0
   43.7397   27.2851   49.6721 H   0  0  0  0  0  0  0  0  0  0  0  0
   43.1427   25.4444   49.0502 H   0  0  0  0  0  0  0  0  0  0  0  0
   45.5643   25.2733   46.9285 H   0  0  0  0  0  0  0  0  0  0  0  0
   44.7522   23.9520   46.9128 H   0  0  0  0  0  0  0  0  0  0  0  0
   43.2991   26.8633   46.1292 H   0  0  0  0  0  0  0  0  0  0  0  0
   40.6024   26.4439   47.4266 H   0  0  0  0  0  0  0  0  0  0  0  0
   38.9165   24.9150   45.9388 H   0  0  0  0  0  0  0  0  0  0  0  0
   40.4218   23.4181   44.2956 H   0  0  0  0  0  0  0  0  0  0  0  0
  1  6  2  0
  2  3  2  0
  2  1  1  0
  3  4  1  0
  4  5  2  0
  5  7  1  0
  6  5  1  0
  7 12  1  0
  7  8  1  0
  8  9  1  0
  9 10  1  0
 11 10  1  0
 12 11  1  0
 13 12  1  0
 13 14  1  0
 15 14  2  0
 15 16  1  0
 17 16  1  0
 18 17  1  0
 19 18  1  0
 19 17  1  0
 20 21  2  0
 20 19  1  0
 22 21  1  0
 23 24  1  0
 23 22  2  0
 24 20  1  0
  1 25  1  0
  2 26  1  0
  3 27  1  0
  8 28  1  0
  8 29  1  0
  9 30  1  0
  9 31  1  0
 10 32  1  0
 11 33  1  0
 11 34  1  0
 12 35  1  1
 13 36  1  0
 13 37  1  0
 14 38  1  0
 15 39  1  0
 16 40  1  0
 16 41  1  0
 17 42  1  1
 18 43  1  0
 18 44  1  0
 19 45  1  6
 21 46  1  0
 22 47  1  0
 23 48  1  0
M  ISO  8  25  14  26  14  27  14  28  13  29  13  30  13  31  13  32   5
M  ISO  8  33  13  34  13  35  13  36   8  37   8  40   8  41   8  42  13
M  ISO  6  43  13  44  13  45  13  46  14  47  14  48  14
M  END
>  <minimizedAffinity>  (1) 
-6.06137419

>  <minimizedRMSD>  (1) 
0.586185992

$$$$
