
     RDKit          3D

 47 49  0  0  1  0  0  0  0  0999 V2000
   45.0040   34.6900   44.9920 C   0  0  0  0  0  0  0  0  0  0  0  0
   45.8830   34.5770   43.8800 C   0  0  0  0  0  0  0  0  0  0  0  0
   46.9360   33.6770   43.9640 C   0  0  0  0  0  0  0  0  0  0  0  0
   47.0580   32.9570   45.1080 N   0  0  0  0  0  0  0  0  0  0  0  0
   46.2320   33.0650   46.1490 C   0  0  0  0  0  0  0  0  0  0  0  0
   45.2260   33.9290   46.0610 N   0  0  0  0  0  0  0  0  0  0  0  0
   46.4430   32.2810   47.2790 N   0  0  0  0  0  0  0  0  0  0  0  0
   47.6970   32.3580   47.9990 C   0  0  0  0  0  0  0  0  0  0  0  0
   47.9230   31.2060   48.9280 C   0  0  0  0  0  0  0  0  0  0  0  0
   46.7710   30.6340   49.5330 N   0  0  0  0  0  0  0  0  0  0  0  0
   45.5580   31.3290   49.2130 C   0  0  0  0  0  0  0  0  0  0  0  0
   45.3710   31.3700   47.7330 C   0  0  2  0  0  0  0  0  0  0  0  0
   45.5060   30.0140   47.0870 C   0  0  0  0  0  0  0  0  0  0  0  0
   44.9400   29.0260   48.0710 C   0  0  0  0  0  0  0  0  0  0  0  0
   44.9380   27.7230   47.7950 C   0  0  0  0  0  0  0  0  0  0  0  0
   44.4100   26.6680   48.6930 C   0  0  0  0  0  0  0  0  0  0  0  0
   43.3240   25.9010   47.9660 C   0  0  2  0  0  0  0  0  0  0  0  0
   43.7230   25.1330   46.7360 C   0  0  0  0  0  0  0  0  0  0  0  0
   42.8410   26.3650   46.6590 C   0  0  1  0  0  0  0  0  0  0  0  0
   41.5130   26.1920   46.2710 O   0  0  0  0  0  0  0  0  0  0  0  0
   42.1520   28.5610   45.2360 O   0  0  0  0  0  0  0  0  0  0  0  0
   41.0210   27.5520   45.3770 P   0  0  0  0  0  0  0  0  0  0  0  0
   40.6180   27.0130   43.8220 O   0  0  0  0  0  0  0  0  0  0  0  0
   39.7060   28.3200   46.0860 O   0  0  0  0  0  0  0  0  0  0  0  0
   44.1576   35.3922   44.9691 H   0  0  0  0  0  0  0  0  0  0  0  0
   45.7323   35.1869   42.9770 H   0  0  0  0  0  0  0  0  0  0  0  0
   47.6462   33.5517   43.1334 H   0  0  0  0  0  0  0  0  0  0  0  0
   48.5179   32.3816   47.2672 H   0  0  0  0  0  0  0  0  0  0  0  0
   47.6615   33.2687   48.6150 H   0  0  0  0  0  0  0  0  0  0  0  0
   48.4276   30.4125   48.3573 H   0  0  0  0  0  0  0  0  0  0  0  0
   48.5099   31.6196   49.7613 H   0  0  0  0  0  0  0  0  0  0  0  0
   46.6834   29.6590   49.2126 H   0  0  0  0  0  0  0  0  0  0  0  0
   44.7063   30.8072   49.6739 H   0  0  0  0  0  0  0  0  0  0  0  0
   45.6174   32.3573   49.5990 H   0  0  0  0  0  0  0  0  0  0  0  0
   44.3598   31.7039   47.4573 H   0  0  0  0  0  0  0  0  0  0  0  0
   44.9395   29.9818   46.1446 H   0  0  0  0  0  0  0  0  0  0  0  0
   46.5547   29.7859   46.8458 H   0  0  0  0  0  0  0  0  0  0  0  0
   44.5249   29.3826   49.0252 H   0  0  0  0  0  0  0  0  0  0  0  0
   45.3592   27.4062   46.8295 H   0  0  0  0  0  0  0  0  0  0  0  0
   45.2224   25.9813   48.9731 H   0  0  0  0  0  0  0  0  0  0  0  0
   43.9960   27.1268   49.6030 H   0  0  0  0  0  0  0  0  0  0  0  0
   42.8200   25.6606   48.9137 H   0  0  0  0  0  0  0  0  0  0  0  0
   44.7601   25.1692   46.3712 H   0  0  0  0  0  0  0  0  0  0  0  0
   43.6489   24.0881   46.4004 H   0  0  0  0  0  0  0  0  0  0  0  0
   42.8738   27.3369   46.1448 H   0  0  0  0  0  0  0  0  0  0  0  0
   40.0266   26.2220   43.8899 H   0  0  0  0  0  0  0  0  0  0  0  0
   39.7879   28.2722   47.0715 H   0  0  0  0  0  0  0  0  0  0  0  0
  1  6  2  0
  2  3  2  0
  2  1  1  0
  3  4  1  0
  4  5  2  0
  5  7  1  0
  6  5  1  0
  7 12  1  0
  7  8  1  0
  8  9  1  0
  9 10  1  0
 11 10  1  0
 12 11  1  0
 13 12  1  0
 13 14  1  0
 15 14  2  0
 15 16  1  0
 17 16  1  0
 18 17  1  0
 19 18  1  0
 19 17  1  0
 20 19  1  0
 21 22  2  0
 22 24  1  0
 22 20  1  0
 23 22  1  0
  1 25  1  0
  2 26  1  0
  3 27  1  0
  8 28  1  0
  8 29  1  0
  9 30  1  0
  9 31  1  0
 10 32  1  0
 11 33  1  0
 11 34  1  0
 12 35  1  1
 13 36  1  0
 13 37  1  0
 14 38  1  0
 15 39  1  0
 16 40  1  0
 16 41  1  0
 17 42  1  1
 18 43  1  0
 18 44  1  0
 19 45  1  6
 23 46  1  0
 24 47  1  0
M  ISO  8  25  14  26  14  27  14  28  13  29  13  30  13  31  13  32   5
M  ISO  8  33  13  34  13  35  13  36   8  37   8  40   8  41   8  42  13
M  ISO  5  43  13  44  13  45  13  46   3  47   3
M  END
>  <minimizedAffinity>  (1) 
-5.99969006

>  <minimizedRMSD>  (1) 
0.367795348

$$$$
