
     RDKit          3D

 49 52  0  0  1  0  0  0  0  0999 V2000
   45.0040   34.7150   44.9650 C   0  0  0  0  0  0  0  0  0  0  0  0
   45.8820   34.5930   43.8530 C   0  0  0  0  0  0  0  0  0  0  0  0
   46.9490   33.6940   43.9460 C   0  0  0  0  0  0  0  0  0  0  0  0
   47.0940   32.9750   45.1000 N   0  0  0  0  0  0  0  0  0  0  0  0
   46.2680   33.0970   46.1320 C   0  0  0  0  0  0  0  0  0  0  0  0
   45.2470   33.9660   46.0290 N   0  0  0  0  0  0  0  0  0  0  0  0
   46.4720   32.3400   47.2700 N   0  0  0  0  0  0  0  0  0  0  0  0
   47.7260   32.4260   47.9890 C   0  0  0  0  0  0  0  0  0  0  0  0
   47.9500   31.3010   48.9470 C   0  0  0  0  0  0  0  0  0  0  0  0
   46.8130   30.7160   49.5460 N   0  0  0  0  0  0  0  0  0  0  0  0
   45.5900   31.4090   49.2350 C   0  0  0  0  0  0  0  0  0  0  0  0
   45.4070   31.4400   47.7580 C   0  0  2  0  0  0  0  0  0  0  0  0
   45.5060   30.0830   47.1200 C   0  0  0  0  0  0  0  0  0  0  0  0
   44.7750   29.1270   48.0280 C   0  0  0  0  0  0  0  0  0  0  0  0
   45.0220   27.8240   47.9830 C   0  0  0  0  0  0  0  0  0  0  0  0
   44.3730   26.7780   48.8240 C   0  0  0  0  0  0  0  0  0  0  0  0
   43.9260   25.6380   47.9420 C   0  0  2  0  0  0  0  0  0  0  0  0
   44.7100   25.3680   46.6920 C   0  0  0  0  0  0  0  0  0  0  0  0
   43.3130   25.9240   46.6230 C   0  0  1  0  0  0  0  0  0  0  0  0
   42.2090   25.0440   46.1170 C   0  0  0  0  0  0  0  0  0  0  0  0
   40.8990   25.4770   46.2560 C   0  0  0  0  0  0  0  0  0  0  0  0
   39.9200   24.6230   45.7710 C   0  0  0  0  0  0  0  0  0  0  0  0
   40.1900   23.4470   45.1990 N   0  0  0  0  0  0  0  0  0  0  0  0
   41.4770   23.0650   45.0850 C   0  0  0  0  0  0  0  0  0  0  0  0
   42.4810   23.8430   45.5340 N   0  0  0  0  0  0  0  0  0  0  0  0
   44.1509   35.4090   44.9417 H   0  0  0  0  0  0  0  0  0  0  0  0
   45.7258   35.1906   42.9428 H   0  0  0  0  0  0  0  0  0  0  0  0
   47.6544   33.5683   43.1113 H   0  0  0  0  0  0  0  0  0  0  0  0
   48.5466   32.4264   47.2564 H   0  0  0  0  0  0  0  0  0  0  0  0
   47.6920   33.3511   48.5832 H   0  0  0  0  0  0  0  0  0  0  0  0
   48.4809   30.5061   48.4027 H   0  0  0  0  0  0  0  0  0  0  0  0
   48.5049   31.7522   49.7827 H   0  0  0  0  0  0  0  0  0  0  0  0
   46.7320   29.7439   49.2152 H   0  0  0  0  0  0  0  0  0  0  0  0
   44.7418   30.8851   49.6999 H   0  0  0  0  0  0  0  0  0  0  0  0
   45.6389   32.4371   49.6230 H   0  0  0  0  0  0  0  0  0  0  0  0
   44.3976   31.7891   47.4947 H   0  0  0  0  0  0  0  0  0  0  0  0
   45.0366   30.0959   46.1253 H   0  0  0  0  0  0  0  0  0  0  0  0
   46.5557   29.7816   46.9884 H   0  0  0  0  0  0  0  0  0  0  0  0
   44.0279   29.5143   48.7364 H   0  0  0  0  0  0  0  0  0  0  0  0
   45.7758   27.4840   47.2576 H   0  0  0  0  0  0  0  0  0  0  0  0
   45.0921   26.4066   49.5689 H   0  0  0  0  0  0  0  0  0  0  0  0
   43.5026   27.2078   49.3415 H   0  0  0  0  0  0  0  0  0  0  0  0
   43.6147   25.0479   48.8165 H   0  0  0  0  0  0  0  0  0  0  0  0
   45.5704   26.0020   46.4318 H   0  0  0  0  0  0  0  0  0  0  0  0
   45.2277   24.4962   46.2654 H   0  0  0  0  0  0  0  0  0  0  0  0
   42.8472   26.8079   46.1628 H   0  0  0  0  0  0  0  0  0  0  0  0
   40.6510   26.4413   46.7235 H   0  0  0  0  0  0  0  0  0  0  0  0
   38.8676   24.9299   45.8621 H   0  0  0  0  0  0  0  0  0  0  0  0
   41.7127   22.0984   44.6159 H   0  0  0  0  0  0  0  0  0  0  0  0
  1  6  2  0
  2  3  2  0
  2  1  1  0
  3  4  1  0
  4  5  2  0
  5  7  1  0
  6  5  1  0
  7 12  1  0
  7  8  1  0
  8  9  1  0
  9 10  1  0
 11 10  1  0
 12 11  1  0
 13 12  1  0
 13 14  1  0
 15 14  2  0
 15 16  1  0
 17 16  1  0
 18 17  1  0
 19 18  1  0
 19 17  1  0
 20 21  2  0
 20 19  1  0
 22 21  1  0
 23 22  2  0
 24 23  1  0
 24 25  2  0
 25 20  1  0
  1 26  1  0
  2 27  1  0
  3 28  1  0
  8 29  1  0
  8 30  1  0
  9 31  1  0
  9 32  1  0
 10 33  1  0
 11 34  1  0
 11 35  1  0
 12 36  1  1
 13 37  1  0
 13 38  1  0
 14 39  1  0
 15 40  1  0
 16 41  1  0
 16 42  1  0
 17 43  1  1
 18 44  1  0
 18 45  1  0
 19 46  1  1
 21 47  1  0
 22 48  1  0
 24 49  1  0
M  ISO  8  26  14  27  14  28  14  29  13  30  13  31  13  32  13  33   5
M  ISO  8  34  13  35  13  36  13  37   8  38   8  41   8  42   8  43  13
M  ISO  6  44  13  45  13  46  13  47  14  48  14  49  14
M  END
>  <minimizedAffinity>  (1) 
-5.97466373

>  <minimizedRMSD>  (1) 
1.06820977

$$$$
