
     RDKit          3D

 53 56  0  0  1  0  0  0  0  0999 V2000
   45.4840   30.0860   47.1180 C   0  0  0  0  0  0  0  0  0  0  0  0
   44.9920   34.7160   44.9730 C   0  0  0  0  0  0  0  0  0  0  0  0
   45.8810   34.5990   43.8640 C   0  0  0  0  0  0  0  0  0  0  0  0
   46.9440   33.7080   43.9610 C   0  0  0  0  0  0  0  0  0  0  0  0
   47.0800   32.9940   45.1110 N   0  0  0  0  0  0  0  0  0  0  0  0
   46.2510   33.1040   46.1420 C   0  0  0  0  0  0  0  0  0  0  0  0
   45.2230   33.9670   46.0430 N   0  0  0  0  0  0  0  0  0  0  0  0
   46.4610   32.3380   47.2800 N   0  0  0  0  0  0  0  0  0  0  0  0
   47.7150   32.4280   47.9980 C   0  0  0  0  0  0  0  0  0  0  0  0
   47.9540   31.2880   48.9200 C   0  0  0  0  0  0  0  0  0  0  0  0
   46.8110   30.7080   49.5450 N   0  0  0  0  0  0  0  0  0  0  0  0
   45.5960   31.3920   49.2400 C   0  0  0  0  0  0  0  0  0  0  0  0
   45.3920   31.4320   47.7510 C   0  0  2  0  0  0  0  0  0  0  0  0
   44.8570   29.1020   48.0600 C   0  0  0  0  0  0  0  0  0  0  0  0
   45.0530   27.7930   47.9200 C   0  0  0  0  0  0  0  0  0  0  0  0
   44.4880   26.7360   48.7930 C   0  0  0  0  0  0  0  0  0  0  0  0
   43.4370   25.9670   48.0290 C   0  0  2  0  0  0  0  0  0  0  0  0
   43.8930   24.8070   47.1840 C   0  0  0  0  0  0  0  0  0  0  0  0
   43.3750   26.0700   46.5500 C   0  0  1  0  0  0  0  0  0  0  0  0
   42.0470   26.8590   44.6440 C   0  0  2  0  0  0  0  0  0  0  0  0
   41.9760   26.1230   45.9870 C   0  0  1  0  0  0  0  0  0  0  0  0
   41.4520   24.7940   45.5580 C   0  0  0  0  0  0  0  0  0  0  0  0
   40.4810   25.1180   44.6360 O   0  0  0  0  0  0  0  0  0  0  0  0
   40.9020   26.2210   43.9100 C   0  0  0  0  0  0  0  0  0  0  0  0
   43.2590   26.4370   44.0580 O   0  0  0  0  0  0  0  0  0  0  0  0
   44.9450   30.0841   46.1591 H   0  0  0  0  0  0  0  0  0  0  0  0
   46.5333   29.8206   46.9219 H   0  0  0  0  0  0  0  0  0  0  0  0
   44.1380   35.4086   44.9418 H   0  0  0  0  0  0  0  0  0  0  0  0
   45.7295   35.1988   42.9544 H   0  0  0  0  0  0  0  0  0  0  0  0
   47.6552   33.5839   43.1310 H   0  0  0  0  0  0  0  0  0  0  0  0
   48.5343   32.4602   47.2647 H   0  0  0  0  0  0  0  0  0  0  0  0
   47.6700   33.3381   48.6142 H   0  0  0  0  0  0  0  0  0  0  0  0
   48.4549   30.4956   48.3445 H   0  0  0  0  0  0  0  0  0  0  0  0
   48.5471   31.7087   49.7453 H   0  0  0  0  0  0  0  0  0  0  0  0
   46.7252   29.7315   49.2289 H   0  0  0  0  0  0  0  0  0  0  0  0
   44.7526   30.8647   49.7098 H   0  0  0  0  0  0  0  0  0  0  0  0
   45.6524   32.4206   49.6259 H   0  0  0  0  0  0  0  0  0  0  0  0
   44.3839   31.7791   47.4805 H   0  0  0  0  0  0  0  0  0  0  0  0
   44.2238   29.4686   48.8814 H   0  0  0  0  0  0  0  0  0  0  0  0
   45.6894   27.4670   47.0841 H   0  0  0  0  0  0  0  0  0  0  0  0
   45.2895   26.0508   49.1063 H   0  0  0  0  0  0  0  0  0  0  0  0
   44.0337   27.1966   49.6827 H   0  0  0  0  0  0  0  0  0  0  0  0
   42.7033   26.1139   48.8353 H   0  0  0  0  0  0  0  0  0  0  0  0
   44.9620   24.5555   47.1214 H   0  0  0  0  0  0  0  0  0  0  0  0
   43.6415   23.7381   47.1197 H   0  0  0  0  0  0  0  0  0  0  0  0
   43.7812   26.7256   45.7657 H   0  0  0  0  0  0  0  0  0  0  0  0
   42.0008   27.9577   44.6695 H   0  0  0  0  0  0  0  0  0  0  0  0
   41.3541   26.5689   46.7772 H   0  0  0  0  0  0  0  0  0  0  0  0
   42.2458   24.1876   45.0975 H   0  0  0  0  0  0  0  0  0  0  0  0
   41.0670   24.1928   46.3949 H   0  0  0  0  0  0  0  0  0  0  0  0
   41.2317   25.9042   42.9095 H   0  0  0  0  0  0  0  0  0  0  0  0
   40.0762   26.9390   43.7979 H   0  0  0  0  0  0  0  0  0  0  0  0
   43.9086   26.2108   44.7700 H   0  0  0  0  0  0  0  0  0  0  0  0
  1 13  1  0
  1 14  1  0
  2  7  2  0
  3  4  2  0
  3  2  1  0
  4  5  1  0
  5  6  2  0
  6  8  1  0
  7  6  1  0
  8 13  1  0
  8  9  1  0
  9 10  1  0
 10 11  1  0
 12 11  1  0
 13 12  1  0
 15 14  2  0
 15 16  1  0
 17 16  1  0
 18 17  1  0
 19 18  1  0
 19 17  1  0
 20 25  1  0
 20 21  1  0
 21 22  1  0
 21 19  1  0
 23 22  1  0
 24 23  1  0
 24 20  1  0
  1 26  1  0
  1 27  1  0
  2 28  1  0
  3 29  1  0
  4 30  1  0
  9 31  1  0
  9 32  1  0
 10 33  1  0
 10 34  1  0
 11 35  1  0
 12 36  1  0
 12 37  1  0
 13 38  1  1
 14 39  1  0
 15 40  1  0
 16 41  1  0
 16 42  1  0
 17 43  1  1
 18 44  1  0
 18 45  1  0
 19 46  1  6
 20 47  1  1
 21 48  1  1
 22 49  1  0
 22 50  1  0
 24 51  1  0
 24 52  1  0
 25 53  1  0
M  ISO  8  26   8  27   8  28  14  29  14  30  14  31  13  32  13  33  13
M  ISO  8  34  13  35   5  36  13  37  13  38  13  41   8  42   8  43  13
M  ISO  8  44  13  45  13  46  13  47  13  48  13  49  13  50  13  51  13
M  ISO  2  52  13  53   3
M  END
>  <minimizedAffinity>  (1) 
-5.86127186

>  <minimizedRMSD>  (1) 
0.407260358

$$$$
