
     RDKit          3D

 43 45  0  0  1  0  0  0  0  0999 V2000
   44.9960   34.5740   44.8850 C   0  0  0  0  0  0  0  0  0  0  0  0
   45.9500   34.5790   43.8300 C   0  0  0  0  0  0  0  0  0  0  0  0
   47.0790   33.7810   43.9590 C   0  0  0  0  0  0  0  0  0  0  0  0
   47.2030   33.0420   45.0940 N   0  0  0  0  0  0  0  0  0  0  0  0
   46.3120   33.0380   46.0770 C   0  0  0  0  0  0  0  0  0  0  0  0
   45.2370   33.8080   45.9370 N   0  0  0  0  0  0  0  0  0  0  0  0
   46.5160   32.2510   47.2040 N   0  0  0  0  0  0  0  0  0  0  0  0
   47.7050   32.4320   48.0100 C   0  0  0  0  0  0  0  0  0  0  0  0
   47.9890   31.2810   48.9250 C   0  0  0  0  0  0  0  0  0  0  0  0
   46.8640   30.5800   49.4350 N   0  0  0  0  0  0  0  0  0  0  0  0
   45.6080   31.1600   49.0540 C   0  0  0  0  0  0  0  0  0  0  0  0
   45.5130   31.2320   47.5690 C   0  0  2  0  0  0  0  0  0  0  0  0
   45.8200   29.9130   46.9060 C   0  0  0  0  0  0  0  0  0  0  0  0
   44.6970   28.9830   47.2750 C   0  0  0  0  0  0  0  0  0  0  0  0
   44.8610   27.6590   47.1350 C   0  0  0  0  0  0  0  0  0  0  0  0
   43.8320   26.6480   47.4850 C   0  0  0  0  0  0  0  0  0  0  0  0
   42.8120   26.5620   46.3800 C   0  0  2  0  0  0  0  0  0  0  0  0
   41.4920   25.9080   46.6460 C   0  0  0  0  0  0  0  0  0  0  0  0
   42.5270   25.2920   45.7110 C   0  0  2  0  0  0  0  0  0  0  0  0
   43.0970   24.0270   46.0120 N   0  0  0  0  0  0  0  0  0  0  0  0
   44.0853   35.1883   44.8282 H   0  0  0  0  0  0  0  0  0  0  0  0
   45.7973   35.1994   42.9346 H   0  0  0  0  0  0  0  0  0  0  0  0
   47.8459   33.7477   43.1711 H   0  0  0  0  0  0  0  0  0  0  0  0
   48.5652   32.5618   47.3368 H   0  0  0  0  0  0  0  0  0  0  0  0
   47.5339   33.3142   48.6443 H   0  0  0  0  0  0  0  0  0  0  0  0
   48.6084   30.5599   48.3715 H   0  0  0  0  0  0  0  0  0  0  0  0
   48.4771   31.7246   49.8053 H   0  0  0  0  0  0  0  0  0  0  0  0
   46.8962   29.6122   49.0839 H   0  0  0  0  0  0  0  0  0  0  0  0
   44.7869   30.5396   49.4425 H   0  0  0  0  0  0  0  0  0  0  0  0
   45.5362   32.1752   49.4714 H   0  0  0  0  0  0  0  0  0  0  0  0
   44.4949   31.4820   47.2360 H   0  0  0  0  0  0  0  0  0  0  0  0
   46.7785   29.5167   47.2723 H   0  0  0  0  0  0  0  0  0  0  0  0
   45.9045   30.0243   45.8149 H   0  0  0  0  0  0  0  0  0  0  0  0
   43.7475   29.3859   47.6572 H   0  0  0  0  0  0  0  0  0  0  0  0
   45.8203   27.2991   46.7348 H   0  0  0  0  0  0  0  0  0  0  0  0
   44.3123   25.6673   47.6170 H   0  0  0  0  0  0  0  0  0  0  0  0
   43.3335   26.9427   48.4203 H   0  0  0  0  0  0  0  0  0  0  0  0
   43.1288   27.5518   46.0197 H   0  0  0  0  0  0  0  0  0  0  0  0
   41.2857   25.4508   47.6250 H   0  0  0  0  0  0  0  0  0  0  0  0
   40.4350   26.2027   46.5697 H   0  0  0  0  0  0  0  0  0  0  0  0
   42.5948   24.9794   44.6585 H   0  0  0  0  0  0  0  0  0  0  0  0
   43.1503   23.9088   47.0338 H   0  0  0  0  0  0  0  0  0  0  0  0
   42.5104   23.2817   45.6103 H   0  0  0  0  0  0  0  0  0  0  0  0
  1  6  2  0
  2  3  2  0
  2  1  1  0
  3  4  1  0
  4  5  2  0
  5  7  1  0
  6  5  1  0
  7 12  1  0
  7  8  1  0
  8  9  1  0
  9 10  1  0
 11 10  1  0
 12 11  1  0
 13 14  1  0
 13 12  1  0
 15 14  2  0
 15 16  1  0
 17 18  1  0
 17 16  1  0
 19 20  1  0
 19 17  1  0
 19 18  1  0
  1 21  1  0
  2 22  1  0
  3 23  1  0
  8 24  1  0
  8 25  1  0
  9 26  1  0
  9 27  1  0
 10 28  1  0
 11 29  1  0
 11 30  1  0
 12 31  1  1
 13 32  1  0
 13 33  1  0
 14 34  1  0
 15 35  1  0
 16 36  1  0
 16 37  1  0
 17 38  1  6
 18 39  1  0
 18 40  1  0
 19 41  1  6
 20 42  1  0
 20 43  1  0
M  ISO  8  21  14  22  14  23  14  24  13  25  13  26  13  27  13  28   5
M  ISO  8  29  13  30  13  31  13  32   8  33   8  36   8  37   8  38  13
M  ISO  5  39  13  40  13  41  13  42   5  43   5
M  END
>  <minimizedAffinity>  (1) 
-5.09855366

>  <minimizedRMSD>  (1) 
1.15328383

$$$$
