
     RDKit          3D

 27 28  0  0  0  0  0  0  0  0999 V2000
   42.5580   35.1760   39.3970 C   0  0  0  0  0  0  0  0  0  0  0  0
   40.2060   36.5570   40.7910 Cl  0  0  0  0  0  0  0  0  0  0  0  0
   40.0850   35.1440   39.7380 C   0  0  0  0  0  0  0  0  0  0  0  0
   41.2140   34.5960   39.1570 C   0  0  0  0  0  0  0  0  0  0  0  0
   41.0740   33.4960   38.3460 C   0  0  0  0  0  0  0  0  0  0  0  0
   39.8490   32.9100   38.0850 C   0  0  0  0  0  0  0  0  0  0  0  0
   38.7580   33.5190   38.7070 C   0  0  0  0  0  0  0  0  0  0  0  0
   38.8440   34.6210   39.5290 C   0  0  0  0  0  0  0  0  0  0  0  0
   43.6280   35.4700   41.6000 C   0  0  0  0  0  0  0  0  0  0  0  0
   43.1540   34.6600   40.6650 C   0  0  0  0  0  0  0  0  0  0  0  0
   44.2590   35.8470   43.9930 C   0  0  0  0  0  0  0  0  0  0  0  0
   44.2220   35.0490   42.8530 C   0  0  0  0  0  0  0  0  0  0  0  0
   44.7950   33.7740   42.9440 C   0  0  0  0  0  0  0  0  0  0  0  0
   45.3550   33.3790   44.1300 N   0  0  0  0  0  0  0  0  0  0  0  0
   45.3670   34.1870   45.2050 C   0  0  0  0  0  0  0  0  0  0  0  0
   44.8190   35.4140   45.1290 N   0  0  0  0  0  0  0  0  0  0  0  0
   42.4693   36.2705   39.4624 H   0  0  0  0  0  0  0  0  0  0  0  0
   43.2143   34.8874   38.5627 H   0  0  0  0  0  0  0  0  0  0  0  0
   41.9741   33.0633   37.8849 H   0  0  0  0  0  0  0  0  0  0  0  0
   39.7423   32.0289   37.4351 H   0  0  0  0  0  0  0  0  0  0  0  0
   37.7612   33.0895   38.5286 H   0  0  0  0  0  0  0  0  0  0  0  0
   37.9500   35.0597   39.9963 H   0  0  0  0  0  0  0  0  0  0  0  0
   43.5655   36.5516   41.4095 H   0  0  0  0  0  0  0  0  0  0  0  0
   43.2010   33.5731   40.8279 H   0  0  0  0  0  0  0  0  0  0  0  0
   43.8188   36.8545   43.9596 H   0  0  0  0  0  0  0  0  0  0  0  0
   44.7952   33.0994   42.0751 H   0  0  0  0  0  0  0  0  0  0  0  0
   45.8242   33.8455   46.1454 H   0  0  0  0  0  0  0  0  0  0  0  0
  1 10  1  0
  3  2  1  0
  4  1  1  0
  4  3  2  0
  5  4  1  0
  6  5  2  0
  6  7  1  0
  7  8  2  0
  8  3  1  0
  9 12  1  0
 10  9  2  0
 11 16  2  0
 12 13  2  0
 12 11  1  0
 13 14  1  0
 14 15  2  0
 16 15  1  0
  1 17  1  0
  1 18  1  0
  5 19  1  0
  6 20  1  0
  7 21  1  0
  8 22  1  0
  9 23  1  0
 10 24  1  0
 11 25  1  0
 13 26  1  0
 15 27  1  0
M  ISO  8  17   8  18   8  19  14  20  14  21  14  22  14  25  14  26  14
M  ISO  1  27  14
M  END
>  <minimizedAffinity>  (1) 
-5.33652115

>  <minimizedRMSD>  (1) 
2.46005058

$$$$
