
     RDKit          3D

 21 21  0  0  0  0  0  0  0  0999 V2000
   43.8520   35.3390   41.9470 C   0  0  0  0  0  0  0  0  0  0  0  0
   42.9790   34.6820   41.2190 C   0  0  0  0  0  0  0  0  0  0  0  0
   44.2680   35.7070   44.3920 C   0  0  0  0  0  0  0  0  0  0  0  0
   44.3870   34.9170   43.2290 C   0  0  0  0  0  0  0  0  0  0  0  0
   45.0400   33.7020   43.3310 C   0  0  0  0  0  0  0  0  0  0  0  0
   45.5420   33.3050   44.5320 N   0  0  0  0  0  0  0  0  0  0  0  0
   45.4110   34.0870   45.6360 C   0  0  0  0  0  0  0  0  0  0  0  0
   44.7870   35.2560   45.5490 N   0  0  0  0  0  0  0  0  0  0  0  0
   42.4860   35.2080   39.8990 C   0  0  0  0  0  0  0  0  0  0  0  0
   40.0600   35.4120   40.0540 C   0  0  0  0  0  0  0  0  0  0  0  0
   40.1580   36.5370   40.6120 O   0  0  0  0  0  0  0  0  0  0  0  0
   41.1870   34.6570   39.6530 N   0  0  0  0  0  0  0  0  0  0  0  0
   44.2117   36.2990   41.5483 H   0  0  0  0  0  0  0  0  0  0  0  0
   42.5967   33.7179   41.5855 H   0  0  0  0  0  0  0  0  0  0  0  0
   43.7569   36.6803   44.3535 H   0  0  0  0  0  0  0  0  0  0  0  0
   45.1531   33.0595   42.4453 H   0  0  0  0  0  0  0  0  0  0  0  0
   45.8213   33.7520   46.6001 H   0  0  0  0  0  0  0  0  0  0  0  0
   42.4237   36.3056   39.9357 H   0  0  0  0  0  0  0  0  0  0  0  0
   43.1784   34.9211   39.0939 H   0  0  0  0  0  0  0  0  0  0  0  0
   39.0567   34.9997   39.8710 H   0  0  0  0  0  0  0  0  0  0  0  0
   41.0769   33.7394   39.1982 H   0  0  0  0  0  0  0  0  0  0  0  0
  1  4  1  0
  2  1  2  0
  3  8  2  0
  4  5  2  0
  4  3  1  0
  5  6  1  0
  6  7  2  0
  8  7  1  0
  9  2  1  0
 10 11  2  0
 12  9  1  0
 12 10  1  0
  1 13  1  0
  2 14  1  0
  3 15  1  0
  5 16  1  0
  7 17  1  0
  9 18  1  0
  9 19  1  0
 10 20  1  0
 12 21  1  0
M  ISO  6  15  14  16  14  17  14  18   8  19   8  20   6
M  END
>  <minimizedAffinity>  (1) 
-3.74377012

>  <minimizedRMSD>  (1) 
1.83016133

$$$$
