
     RDKit          3D

 27 28  0  0  0  0  0  0  0  0999 V2000
   41.9920   35.4290   39.5260 C   0  0  0  0  0  0  0  0  0  0  0  0
   40.6590   34.8180   39.2570 C   0  0  0  0  0  0  0  0  0  0  0  0
   40.2700   34.6490   37.9290 C   0  0  0  0  0  0  0  0  0  0  0  0
   39.0280   34.0790   37.6710 C   0  0  0  0  0  0  0  0  0  0  0  0
   38.1680   33.6760   38.6920 C   0  0  0  0  0  0  0  0  0  0  0  0
   38.5690   33.8500   40.0080 C   0  0  0  0  0  0  0  0  0  0  0  0
   39.8010   34.4150   40.2760 C   0  0  0  0  0  0  0  0  0  0  0  0
   43.6150   35.4550   41.3960 C   0  0  0  0  0  0  0  0  0  0  0  0
   42.5360   34.9650   40.8360 C   0  0  0  0  0  0  0  0  0  0  0  0
   44.2820   35.8960   43.7600 C   0  0  0  0  0  0  0  0  0  0  0  0
   44.1940   35.0500   42.6590 C   0  0  0  0  0  0  0  0  0  0  0  0
   44.6860   33.7630   42.7890 C   0  0  0  0  0  0  0  0  0  0  0  0
   45.2380   33.3650   43.9780 N   0  0  0  0  0  0  0  0  0  0  0  0
   45.3060   34.2210   45.0330 C   0  0  0  0  0  0  0  0  0  0  0  0
   44.8300   35.4720   44.9140 N   0  0  0  0  0  0  0  0  0  0  0  0
   41.8888   36.5240   39.5464 H   0  0  0  0  0  0  0  0  0  0  0  0
   42.6860   35.1233   38.7292 H   0  0  0  0  0  0  0  0  0  0  0  0
   40.9296   34.9590   37.1051 H   0  0  0  0  0  0  0  0  0  0  0  0
   38.7133   33.9414   36.6260 H   0  0  0  0  0  0  0  0  0  0  0  0
   37.1906   33.2288   38.4581 H   0  0  0  0  0  0  0  0  0  0  0  0
   37.9106   33.5403   40.8330 H   0  0  0  0  0  0  0  0  0  0  0  0
   40.1120   34.5499   41.3225 H   0  0  0  0  0  0  0  0  0  0  0  0
   44.1338   36.2565   40.8498 H   0  0  0  0  0  0  0  0  0  0  0  0
   41.9988   34.1631   41.3636 H   0  0  0  0  0  0  0  0  0  0  0  0
   43.8989   36.9245   43.6865 H   0  0  0  0  0  0  0  0  0  0  0  0
   44.6341   33.0632   41.9419 H   0  0  0  0  0  0  0  0  0  0  0  0
   45.7504   33.8893   45.9830 H   0  0  0  0  0  0  0  0  0  0  0  0
  1  9  1  0
  2  1  1  0
  2  7  1  0
  3  2  2  0
  4  3  1  0
  4  5  2  0
  5  6  1  0
  6  7  2  0
  8 11  1  0
  9  8  2  0
 10 15  2  0
 11 12  2  0
 11 10  1  0
 12 13  1  0
 13 14  2  0
 15 14  1  0
  1 16  1  0
  1 17  1  0
  3 18  1  0
  4 19  1  0
  5 20  1  0
  6 21  1  0
  7 22  1  0
  8 23  1  0
  9 24  1  0
 10 25  1  0
 12 26  1  0
 14 27  1  0
M  ISO  8  16   8  17   8  18  14  19  14  20  14  21  14  22  14  25  14
M  ISO  2  26  14  27  14
M  END
>  <minimizedAffinity>  (1) 
-5.31326199

>  <minimizedRMSD>  (1) 
1.70591366

$$$$
