
     RDKit          3D

 40 43  0  0  0  0  0  0  0  0999 V2000
   44.5040   35.4560   44.1000 C   0  0  0  0  0  0  0  0  0  0  0  0
   44.3650   34.7700   42.8920 C   0  0  0  0  0  0  0  0  0  0  0  0
   44.7550   33.4540   42.8490 C   0  0  0  0  0  0  0  0  0  0  0  0
   45.2570   32.8600   43.9650 N   0  0  0  0  0  0  0  0  0  0  0  0
   45.3860   33.5470   45.1430 C   0  0  0  0  0  0  0  0  0  0  0  0
   45.0080   34.8260   45.1850 N   0  0  0  0  0  0  0  0  0  0  0  0
   45.3220   33.0790   47.5490 C   0  0  0  0  0  0  0  0  0  0  0  0
   45.9290   32.8800   46.3220 C   0  0  0  0  0  0  0  0  0  0  0  0
   47.0390   32.0650   46.1780 C   0  0  0  0  0  0  0  0  0  0  0  0
   47.4970   31.4680   47.3350 C   0  0  0  0  0  0  0  0  0  0  0  0
   48.5310   30.6350   47.5410 N   0  0  0  0  0  0  0  0  0  0  0  0
   48.6420   30.2700   48.8510 C   0  0  0  0  0  0  0  0  0  0  0  0
   47.6120   30.9210   49.4650 N   0  0  0  0  0  0  0  0  0  0  0  0
   46.9180   31.6440   48.5700 C   0  0  0  0  0  0  0  0  0  0  0  0
   45.8130   32.4600   48.6930 C   0  0  0  0  0  0  0  0  0  0  0  0
   43.8290   35.4160   41.7140 C   0  0  0  0  0  0  0  0  0  0  0  0
   42.7890   35.0140   41.0160 C   0  0  0  0  0  0  0  0  0  0  0  0
   42.2800   35.7230   39.8050 C   0  0  0  0  0  0  0  0  0  0  0  0
   40.9820   35.1620   39.3590 C   0  0  0  0  0  0  0  0  0  0  0  0
   40.7550   35.0070   37.9840 C   0  0  0  0  0  0  0  0  0  0  0  0
   39.5410   34.4820   37.5830 C   0  0  0  0  0  0  0  0  0  0  0  0
   38.5460   34.1040   38.4680 C   0  0  0  0  0  0  0  0  0  0  0  0
   38.7770   34.2590   39.8350 C   0  0  0  0  0  0  0  0  0  0  0  0
   39.9920   34.7840   40.2620 C   0  0  0  0  0  0  0  0  0  0  0  0
   44.2027   36.5117   44.1692 H   0  0  0  0  0  0  0  0  0  0  0  0
   44.6617   32.8816   41.9143 H   0  0  0  0  0  0  0  0  0  0  0  0
   44.4413   33.7341   47.6204 H   0  0  0  0  0  0  0  0  0  0  0  0
   47.5245   31.9037   45.2042 H   0  0  0  0  0  0  0  0  0  0  0  0
   49.1653   30.3102   46.7973 H   0  0  0  0  0  0  0  0  0  0  0  0
   49.3896   29.6043   49.3070 H   0  0  0  0  0  0  0  0  0  0  0  0
   45.3329   32.6169   49.6702 H   0  0  0  0  0  0  0  0  0  0  0  0
   44.3384   36.3282   41.3699 H   0  0  0  0  0  0  0  0  0  0  0  0
   42.2648   34.1040   41.3432 H   0  0  0  0  0  0  0  0  0  0  0  0
   42.1471   36.7887   40.0429 H   0  0  0  0  0  0  0  0  0  0  0  0
   43.0115   35.5941   38.9937 H   0  0  0  0  0  0  0  0  0  0  0  0
   41.5196   35.2944   37.2472 H   0  0  0  0  0  0  0  0  0  0  0  0
   39.3561   34.3582   36.5057 H   0  0  0  0  0  0  0  0  0  0  0  0
   37.5947   33.6907   38.1016 H   0  0  0  0  0  0  0  0  0  0  0  0
   38.0077   33.9696   40.5661 H   0  0  0  0  0  0  0  0  0  0  0  0
   40.1754   34.9036   41.3400 H   0  0  0  0  0  0  0  0  0  0  0  0
  1  6  2  0
  2  1  1  0
  3  2  2  0
  3  4  1  0
  4  5  2  0
  5  6  1  0
  5  8  1  0
  7 15  2  0
  8  7  1  0
  9  8  2  0
  9 10  1  0
 10 11  1  0
 10 14  2  0
 11 12  1  0
 12 13  2  0
 14 15  1  0
 14 13  1  0
 16  2  1  0
 17 16  2  0
 18 17  1  0
 19 18  1  0
 19 24  1  0
 20 19  2  0
 21 20  1  0
 21 22  2  0
 22 23  1  0
 23 24  2  0
  1 25  1  0
  3 26  1  0
  7 27  1  0
  9 28  1  0
 11 29  1  0
 12 30  1  0
 15 31  1  0
 16 32  1  0
 17 33  1  0
 18 34  1  0
 18 35  1  0
 20 36  1  0
 21 37  1  0
 22 38  1  0
 23 39  1  0
 24 40  1  0
M  ISO  8  25  14  26  14  27  14  28  14  29   9  30  14  31  14  34   8
M  ISO  6  35   8  36  14  37  14  38  14  39  14  40  14
M  END
>  <minimizedAffinity>  (1) 
-6.79492569

>  <minimizedRMSD>  (1) 
1.32590318

$$$$
