
     RDKit          3D

 37 39  0  0  0  0  0  0  0  0999 V2000
   44.7450   35.2820   44.0840 C   0  0  0  0  0  0  0  0  0  0  0  0
   44.5110   34.5980   42.9000 C   0  0  0  0  0  0  0  0  0  0  0  0
   44.7960   33.2540   42.8860 C   0  0  0  0  0  0  0  0  0  0  0  0
   45.2900   32.6370   44.0070 N   0  0  0  0  0  0  0  0  0  0  0  0
   45.5050   33.3410   45.1450 C   0  0  0  0  0  0  0  0  0  0  0  0
   45.2270   34.6570   45.1650 N   0  0  0  0  0  0  0  0  0  0  0  0
   44.3400   33.7540   47.6520 F   0  0  0  0  0  0  0  0  0  0  0  0
   45.4380   32.9470   47.5910 C   0  0  0  0  0  0  0  0  0  0  0  0
   46.0290   32.7300   46.3630 C   0  0  0  0  0  0  0  0  0  0  0  0
   47.1510   31.8980   46.3390 C   0  0  0  0  0  0  0  0  0  0  0  0
   47.6430   31.3240   47.4940 C   0  0  0  0  0  0  0  0  0  0  0  0
   47.0040   31.5830   48.6890 C   0  0  0  0  0  0  0  0  0  0  0  0
   45.8910   32.3960   48.7770 C   0  0  0  0  0  0  0  0  0  0  0  0
   43.9900   35.2410   41.7130 C   0  0  0  0  0  0  0  0  0  0  0  0
   42.9030   34.8950   41.0600 C   0  0  0  0  0  0  0  0  0  0  0  0
   42.4150   35.5970   39.8400 C   0  0  0  0  0  0  0  0  0  0  0  0
   41.0840   35.0920   39.4290 C   0  0  0  0  0  0  0  0  0  0  0  0
   40.8140   34.9140   38.0820 C   0  0  0  0  0  0  0  0  0  0  0  0
   39.5780   34.4430   37.6830 C   0  0  0  0  0  0  0  0  0  0  0  0
   38.5800   34.1350   38.5980 C   0  0  0  0  0  0  0  0  0  0  0  0
   38.8510   34.3120   39.9410 C   0  0  0  0  0  0  0  0  0  0  0  0
   40.0890   34.7830   40.3420 C   0  0  0  0  0  0  0  0  0  0  0  0
   44.5301   36.3596   44.1355 H   0  0  0  0  0  0  0  0  0  0  0  0
   44.6269   32.6690   41.9699 H   0  0  0  0  0  0  0  0  0  0  0  0
   47.6523   31.6963   45.3809 H   0  0  0  0  0  0  0  0  0  0  0  0
   48.5284   30.6720   47.4622 H   0  0  0  0  0  0  0  0  0  0  0  0
   47.3966   31.1237   49.6082 H   0  0  0  0  0  0  0  0  0  0  0  0
   45.3920   32.5947   49.7370 H   0  0  0  0  0  0  0  0  0  0  0  0
   44.5560   36.0988   41.3208 H   0  0  0  0  0  0  0  0  0  0  0  0
   42.3215   34.0399   41.4351 H   0  0  0  0  0  0  0  0  0  0  0  0
   42.3409   36.6740   40.0510 H   0  0  0  0  0  0  0  0  0  0  0  0
   43.1266   35.4107   39.0221 H   0  0  0  0  0  0  0  0  0  0  0  0
   41.5829   35.1474   37.3308 H   0  0  0  0  0  0  0  0  0  0  0  0
   39.3788   34.3081   36.6096 H   0  0  0  0  0  0  0  0  0  0  0  0
   37.6014   33.7607   38.2630 H   0  0  0  0  0  0  0  0  0  0  0  0
   38.0822   34.0784   40.6922 H   0  0  0  0  0  0  0  0  0  0  0  0
   40.2885   34.9157   41.4156 H   0  0  0  0  0  0  0  0  0  0  0  0
  1  6  2  0
  2  1  1  0
  3  2  2  0
  3  4  1  0
  4  5  2  0
  5  6  1  0
  5  9  1  0
  8  7  1  0
  8 13  2  0
  9  8  1  0
 10  9  2  0
 10 11  1  0
 11 12  2  0
 12 13  1  0
 14  2  1  0
 15 14  2  0
 16 15  1  0
 17 16  1  0
 17 22  1  0
 18 17  2  0
 19 18  1  0
 19 20  2  0
 20 21  1  0
 21 22  2  0
  1 23  1  0
  3 24  1  0
 10 25  1  0
 11 26  1  0
 12 27  1  0
 13 28  1  0
 14 29  1  0
 15 30  1  0
 16 31  1  0
 16 32  1  0
 18 33  1  0
 19 34  1  0
 20 35  1  0
 21 36  1  0
 22 37  1  0
M  ISO  8  23  14  24  14  25  14  26  14  27  14  28  14  31   8  32   8
M  ISO  5  33  14  34  14  35  14  36  14  37  14
M  END
>  <minimizedAffinity>  (1) 
-6.67079735

>  <minimizedRMSD>  (1) 
0.955682158

$$$$
