
     RDKit          3D

 43 45  0  0  0  0  0  0  0  0999 V2000
   43.8550   35.5100   41.9110 C   0  0  0  0  0  0  0  0  0  0  0  0
   42.9540   34.9690   41.1160 C   0  0  0  0  0  0  0  0  0  0  0  0
   44.5170   35.5160   44.3240 C   0  0  0  0  0  0  0  0  0  0  0  0
   44.4340   34.8840   43.0850 C   0  0  0  0  0  0  0  0  0  0  0  0
   44.9320   33.5880   42.9710 C   0  0  0  0  0  0  0  0  0  0  0  0
   45.4820   32.9790   44.0680 N   0  0  0  0  0  0  0  0  0  0  0  0
   45.5420   33.6340   45.2550 C   0  0  0  0  0  0  0  0  0  0  0  0
   45.0700   34.8760   45.3820 N   0  0  0  0  0  0  0  0  0  0  0  0
   46.1440   32.9790   46.4670 C   0  0  0  0  0  0  0  0  0  0  0  0
   46.7270   31.6270   46.1170 C   0  0  0  0  0  0  0  0  0  0  0  0
   47.4990   31.1320   47.3100 C   0  0  0  0  0  0  0  0  0  0  0  0
   47.3420   32.0200   48.5000 C   0  0  0  0  0  0  0  0  0  0  0  0
   45.9030   32.3670   48.7980 C   0  0  0  0  0  0  0  0  0  0  0  0
   45.1420   32.8420   47.5880 C   0  0  0  0  0  0  0  0  0  0  0  0
   42.3910   35.6590   39.9180 C   0  0  0  0  0  0  0  0  0  0  0  0
   41.0740   35.0820   39.5280 C   0  0  0  0  0  0  0  0  0  0  0  0
   40.8010   34.9030   38.1790 C   0  0  0  0  0  0  0  0  0  0  0  0
   39.5790   34.3670   37.8010 C   0  0  0  0  0  0  0  0  0  0  0  0
   38.6200   34.0070   38.7580 C   0  0  0  0  0  0  0  0  0  0  0  0
   38.9000   34.1900   40.1140 C   0  0  0  0  0  0  0  0  0  0  0  0
   40.1210   34.7230   40.4610 C   0  0  0  0  0  0  0  0  0  0  0  0
   44.1983   36.5252   41.6629 H   0  0  0  0  0  0  0  0  0  0  0  0
   42.5976   33.9544   41.3476 H   0  0  0  0  0  0  0  0  0  0  0  0
   44.1317   36.5394   44.4435 H   0  0  0  0  0  0  0  0  0  0  0  0
   44.8840   33.0581   42.0082 H   0  0  0  0  0  0  0  0  0  0  0  0
   46.9546   33.6339   46.8192 H   0  0  0  0  0  0  0  0  0  0  0  0
   45.9175   30.9219   45.8772 H   0  0  0  0  0  0  0  0  0  0  0  0
   47.3876   31.7102   45.2414 H   0  0  0  0  0  0  0  0  0  0  0  0
   47.1391   30.1257   47.5706 H   0  0  0  0  0  0  0  0  0  0  0  0
   48.5649   31.1219   47.0382 H   0  0  0  0  0  0  0  0  0  0  0  0
   47.7669   31.5085   49.3763 H   0  0  0  0  0  0  0  0  0  0  0  0
   47.8655   32.9613   48.2766 H   0  0  0  0  0  0  0  0  0  0  0  0
   45.4030   31.4715   49.1956 H   0  0  0  0  0  0  0  0  0  0  0  0
   45.9107   33.1938   49.5235 H   0  0  0  0  0  0  0  0  0  0  0  0
   44.6705   33.8140   47.7950 H   0  0  0  0  0  0  0  0  0  0  0  0
   44.3452   32.1326   47.3200 H   0  0  0  0  0  0  0  0  0  0  0  0
   42.2600   36.7266   40.1484 H   0  0  0  0  0  0  0  0  0  0  0  0
   43.0904   35.5238   39.0798 H   0  0  0  0  0  0  0  0  0  0  0  0
   41.5450   35.1829   37.4187 H   0  0  0  0  0  0  0  0  0  0  0  0
   39.3588   34.2220   36.7331 H   0  0  0  0  0  0  0  0  0  0  0  0
   37.6546   33.5837   38.4435 H   0  0  0  0  0  0  0  0  0  0  0  0
   38.1644   33.9155   40.8844 H   0  0  0  0  0  0  0  0  0  0  0  0
   40.3474   34.8693   41.5275 H   0  0  0  0  0  0  0  0  0  0  0  0
  1  4  1  0
  2  1  2  0
  3  8  2  0
  4  3  1  0
  5  4  2  0
  5  6  1  0
  6  7  2  0
  7  8  1  0
  7  9  1  0
  9 14  1  0
 10  9  1  0
 10 11  1  0
 11 12  1  0
 12 13  1  0
 14 13  1  0
 15  2  1  0
 16 15  1  0
 16 21  1  0
 17 16  2  0
 18 17  1  0
 18 19  2  0
 19 20  1  0
 20 21  2  0
  1 22  1  0
  2 23  1  0
  3 24  1  0
  5 25  1  0
  9 26  1  0
 10 27  1  0
 10 28  1  0
 11 29  1  0
 11 30  1  0
 12 31  1  0
 12 32  1  0
 13 33  1  0
 13 34  1  0
 14 35  1  0
 14 36  1  0
 15 37  1  0
 15 38  1  0
 17 39  1  0
 18 40  1  0
 19 41  1  0
 20 42  1  0
 21 43  1  0
M  ISO  8  24  14  25  14  26  13  27  13  28  13  29  13  30  13  31  13
M  ISO  8  32  13  33  13  34  13  35  13  36  13  37   8  38   8  39  14
M  ISO  4  40  14  41  14  42  14  43  14
M  END
>  <minimizedAffinity>  (1) 
-6.59505701

>  <minimizedRMSD>  (1) 
0.807599723

$$$$
