
     RDKit          3D

 37 39  0  0  0  0  0  0  0  0999 V2000
   44.5810   35.4090   44.5040 C   0  0  0  0  0  0  0  0  0  0  0  0
   44.5780   34.7750   43.2590 C   0  0  0  0  0  0  0  0  0  0  0  0
   45.0420   33.4770   43.1740 C   0  0  0  0  0  0  0  0  0  0  0  0
   45.4900   32.8590   44.3210 N   0  0  0  0  0  0  0  0  0  0  0  0
   45.4840   33.4900   45.5120 C   0  0  0  0  0  0  0  0  0  0  0  0
   45.0340   34.7440   45.5840 N   0  0  0  0  0  0  0  0  0  0  0  0
   45.9670   32.8040   46.7050 C   0  0  0  0  0  0  0  0  0  0  0  0
   47.2030   32.1940   46.6860 C   0  0  0  0  0  0  0  0  0  0  0  0
   47.6860   31.5320   47.8110 C   0  0  0  0  0  0  0  0  0  0  0  0
   46.8970   31.5030   48.9430 C   0  0  0  0  0  0  0  0  0  0  0  0
   45.6640   32.1010   48.9880 C   0  0  0  0  0  0  0  0  0  0  0  0
   45.1940   32.7610   47.8480 C   0  0  0  0  0  0  0  0  0  0  0  0
   44.1000   35.4470   42.0610 C   0  0  0  0  0  0  0  0  0  0  0  0
   43.0830   35.0660   41.3170 C   0  0  0  0  0  0  0  0  0  0  0  0
   42.6420   35.8040   40.0940 C   0  0  0  0  0  0  0  0  0  0  0  0
   41.3330   35.2800   39.5990 C   0  0  0  0  0  0  0  0  0  0  0  0
   41.1490   35.1100   38.2400 C   0  0  0  0  0  0  0  0  0  0  0  0
   39.9400   34.6240   37.7640 C   0  0  0  0  0  0  0  0  0  0  0  0
   38.9080   34.3080   38.6350 C   0  0  0  0  0  0  0  0  0  0  0  0
   39.0900   34.4780   39.9920 C   0  0  0  0  0  0  0  0  0  0  0  0
   40.2860   34.9580   40.4680 C   0  0  0  0  0  0  0  0  0  0  0  0
   44.2165   36.4423   44.6013 H   0  0  0  0  0  0  0  0  0  0  0  0
   45.0537   32.9473   42.2100 H   0  0  0  0  0  0  0  0  0  0  0  0
   47.8140   32.2308   45.7721 H   0  0  0  0  0  0  0  0  0  0  0  0
   48.6718   31.0442   47.7982 H   0  0  0  0  0  0  0  0  0  0  0  0
   47.2694   30.9833   49.8381 H   0  0  0  0  0  0  0  0  0  0  0  0
   45.0557   32.0624   49.9037 H   0  0  0  0  0  0  0  0  0  0  0  0
   44.2070   33.2465   47.8622 H   0  0  0  0  0  0  0  0  0  0  0  0
   44.6364   36.3551   41.7486 H   0  0  0  0  0  0  0  0  0  0  0  0
   42.5309   34.1606   41.6094 H   0  0  0  0  0  0  0  0  0  0  0  0
   42.5343   36.8715   40.3366 H   0  0  0  0  0  0  0  0  0  0  0  0
   43.3975   35.6637   39.3069 H   0  0  0  0  0  0  0  0  0  0  0  0
   41.9584   35.3592   37.5381 H   0  0  0  0  0  0  0  0  0  0  0  0
   39.7980   34.4875   36.6818 H   0  0  0  0  0  0  0  0  0  0  0  0
   37.9525   33.9251   38.2472 H   0  0  0  0  0  0  0  0  0  0  0  0
   38.2786   34.2295   40.6919 H   0  0  0  0  0  0  0  0  0  0  0  0
   40.4223   35.0913   41.5514 H   0  0  0  0  0  0  0  0  0  0  0  0
  1  6  2  0
  2  1  1  0
  3  2  2  0
  3  4  1  0
  4  5  2  0
  5  6  1  0
  5  7  1  0
  7 12  1  0
  8  7  2  0
  8  9  1  0
  9 10  2  0
 10 11  1  0
 12 11  2  0
 13  2  1  0
 14 13  2  0
 15 14  1  0
 16 15  1  0
 16 21  1  0
 17 16  2  0
 18 17  1  0
 18 19  2  0
 19 20  1  0
 20 21  2  0
  1 22  1  0
  3 23  1  0
  8 24  1  0
  9 25  1  0
 10 26  1  0
 11 27  1  0
 12 28  1  0
 13 29  1  0
 14 30  1  0
 15 31  1  0
 15 32  1  0
 17 33  1  0
 18 34  1  0
 19 35  1  0
 20 36  1  0
 21 37  1  0
M  ISO  8  22  14  23  14  24  14  25  14  26  14  27  14  28  14  31   8
M  ISO  6  32   8  33  14  34  14  35  14  36  14  37  14
M  END
>  <minimizedAffinity>  (1) 
-6.54923439

>  <minimizedRMSD>  (1) 
1.02687407

$$$$
