
     RDKit          3D

 15 15  0  0  0  0  0  0  0  0999 V2000
   47.6450   34.9980   42.3700 C   0  0  0  0  0  0  0  0  0  0  0  0
   47.8560   33.8960   43.2330 C   0  0  0  0  0  0  0  0  0  0  0  0
   46.8190   33.5750   44.1320 C   0  0  0  0  0  0  0  0  0  0  0  0
   45.7000   34.3280   44.1140 N   0  0  0  0  0  0  0  0  0  0  0  0
   45.5240   35.3700   43.2830 C   0  0  0  0  0  0  0  0  0  0  0  0
   46.4990   35.6850   42.4290 N   0  0  0  0  0  0  0  0  0  0  0  0
   44.3510   36.1750   43.2520 N   0  0  0  0  0  0  0  0  0  0  0  0
   48.7520   35.3220   41.4280 C   0  0  0  0  0  0  0  0  0  0  0  0
   48.3700   35.2230   40.1210 F   0  0  0  0  0  0  0  0  0  0  0  0
   49.2080   36.6040   41.7390 F   0  0  0  0  0  0  0  0  0  0  0  0
   49.8360   34.4650   41.6840 F   0  0  0  0  0  0  0  0  0  0  0  0
   48.7895   33.3149   43.2033 H   0  0  0  0  0  0  0  0  0  0  0  0
   46.9197   32.7315   44.8308 H   0  0  0  0  0  0  0  0  0  0  0  0
   44.2824   36.9598   42.5885 H   0  0  0  0  0  0  0  0  0  0  0  0
   43.5706   35.9729   43.8931 H   0  0  0  0  0  0  0  0  0  0  0  0
  1  6  2  0
  1  2  1  0
  2  3  2  0
  4  3  1  0
  5  4  2  0
  6  5  1  0
  7  5  1  0
  8 11  1  0
  8 10  1  0
  8  1  1  0
  9  8  1  0
  2 12  1  0
  3 13  1  0
  7 14  1  0
  7 15  1  0
M  ISO  2  12  14  13  14
M  END
>  <minimizedAffinity>  (1) 
-4.37392092

>  <minimizedRMSD>  (1) 
0.128451094

$$$$
