
     RDKit          3D

 35 37  0  0  0  0  0  0  0  0999 V2000
   43.8950   35.4610   41.8960 C   0  0  0  0  0  0  0  0  0  0  0  0
   42.9250   34.9730   41.1460 C   0  0  0  0  0  0  0  0  0  0  0  0
   44.4610   35.5250   44.3280 C   0  0  0  0  0  0  0  0  0  0  0  0
   44.4180   34.8530   43.1010 C   0  0  0  0  0  0  0  0  0  0  0  0
   44.8990   33.5460   43.0580 C   0  0  0  0  0  0  0  0  0  0  0  0
   45.3920   32.9710   44.1940 N   0  0  0  0  0  0  0  0  0  0  0  0
   45.4130   33.6650   45.3630 C   0  0  0  0  0  0  0  0  0  0  0  0
   44.9580   34.9170   45.4290 N   0  0  0  0  0  0  0  0  0  0  0  0
   45.9470   33.0160   46.5560 C   0  0  0  0  0  0  0  0  0  0  0  0
   45.1830   32.8940   47.6980 C   0  0  0  0  0  0  0  0  0  0  0  0
   45.6240   32.2880   48.8760 C   0  0  0  0  0  0  0  0  0  0  0  0
   46.8660   31.8150   48.8450 N   0  0  0  0  0  0  0  0  0  0  0  0
   47.6480   31.9100   47.7570 C   0  0  0  0  0  0  0  0  0  0  0  0
   47.2100   32.5040   46.6090 N   0  0  0  0  0  0  0  0  0  0  0  0
   42.4320   35.6540   39.9100 C   0  0  0  0  0  0  0  0  0  0  0  0
   41.1060   35.1070   39.4980 C   0  0  0  0  0  0  0  0  0  0  0  0
   40.8360   34.9490   38.1400 C   0  0  0  0  0  0  0  0  0  0  0  0
   39.6090   34.4420   37.7480 C   0  0  0  0  0  0  0  0  0  0  0  0
   38.6450   34.0920   38.6790 C   0  0  0  0  0  0  0  0  0  0  0  0
   38.9090   34.2480   40.0330 C   0  0  0  0  0  0  0  0  0  0  0  0
   40.1350   34.7540   40.4270 C   0  0  0  0  0  0  0  0  0  0  0  0
   44.3453   36.4128   41.5777 H   0  0  0  0  0  0  0  0  0  0  0  0
   42.4583   34.0224   41.4437 H   0  0  0  0  0  0  0  0  0  0  0  0
   44.0871   36.5572   44.3974 H   0  0  0  0  0  0  0  0  0  0  0  0
   44.8816   32.9808   42.1145 H   0  0  0  0  0  0  0  0  0  0  0  0
   44.1609   33.3001   47.6794 H   0  0  0  0  0  0  0  0  0  0  0  0
   44.9870   32.2074   49.7691 H   0  0  0  0  0  0  0  0  0  0  0  0
   48.6675   31.4985   47.7922 H   0  0  0  0  0  0  0  0  0  0  0  0
   42.3324   36.7316   40.1071 H   0  0  0  0  0  0  0  0  0  0  0  0
   43.1538   35.4789   39.0986 H   0  0  0  0  0  0  0  0  0  0  0  0
   41.5898   35.2242   37.3876 H   0  0  0  0  0  0  0  0  0  0  0  0
   39.3954   34.3146   36.6765 H   0  0  0  0  0  0  0  0  0  0  0  0
   37.6753   33.6925   38.3472 H   0  0  0  0  0  0  0  0  0  0  0  0
   38.1530   33.9728   40.7831 H   0  0  0  0  0  0  0  0  0  0  0  0
   40.3456   34.8796   41.4993 H   0  0  0  0  0  0  0  0  0  0  0  0
  1  4  1  0
  2  1  2  0
  3  8  2  0
  4  3  1  0
  5  4  2  0
  5  6  1  0
  6  7  2  0
  7  8  1  0
  7  9  1  0
  9 14  1  0
  9 10  2  0
 10 11  1  0
 12 11  2  0
 13 12  1  0
 14 13  2  0
 15  2  1  0
 16 15  1  0
 16 21  1  0
 17 16  2  0
 18 17  1  0
 18 19  2  0
 19 20  1  0
 20 21  2  0
  1 22  1  0
  2 23  1  0
  3 24  1  0
  5 25  1  0
 10 26  1  0
 11 27  1  0
 13 28  1  0
 15 29  1  0
 15 30  1  0
 17 31  1  0
 18 32  1  0
 19 33  1  0
 20 34  1  0
 21 35  1  0
M  ISO  8  24  14  25  14  26  14  27  14  28  14  29   8  30   8  31  14
M  ISO  4  32  14  33  14  34  14  35  14
M  END
>  <minimizedAffinity>  (1) 
-6.42365074

>  <minimizedRMSD>  (1) 
0.867822826

$$$$
