
     RDKit          3D

 31 32  0  0  0  0  0  0  0  0999 V2000
   43.6850   35.3860   41.4440 C   0  0  0  0  0  0  0  0  0  0  0  0
   42.5350   34.9890   40.9490 C   0  0  0  0  0  0  0  0  0  0  0  0
   44.1900   35.8890   43.8370 C   0  0  0  0  0  0  0  0  0  0  0  0
   44.2210   35.0330   42.7330 C   0  0  0  0  0  0  0  0  0  0  0  0
   44.8010   33.7870   42.9120 C   0  0  0  0  0  0  0  0  0  0  0  0
   45.3150   33.4350   44.1310 N   0  0  0  0  0  0  0  0  0  0  0  0
   45.2580   34.3120   45.1750 C   0  0  0  0  0  0  0  0  0  0  0  0
   44.7030   35.5160   45.0210 N   0  0  0  0  0  0  0  0  0  0  0  0
   46.6780   32.6880   46.6470 C   0  0  0  0  0  0  0  0  0  0  0  0
   46.9430   32.0850   45.5940 O   0  0  0  0  0  0  0  0  0  0  0  0
   45.8340   33.7850   46.3590 N   0  0  0  0  0  0  0  0  0  0  0  0
   42.0430   35.3990   39.5980 C   0  0  0  0  0  0  0  0  0  0  0  0
   40.7090   34.8100   39.3090 C   0  0  0  0  0  0  0  0  0  0  0  0
   40.3000   34.7040   37.9820 C   0  0  0  0  0  0  0  0  0  0  0  0
   39.0470   34.1500   37.7170 C   0  0  0  0  0  0  0  0  0  0  0  0
   38.2080   33.7070   38.7500 C   0  0  0  0  0  0  0  0  0  0  0  0
   38.6330   33.8210   40.0680 C   0  0  0  0  0  0  0  0  0  0  0  0
   39.8710   34.3690   40.3160 C   0  0  0  0  0  0  0  0  0  0  0  0
   44.2958   36.0503   40.8150 H   0  0  0  0  0  0  0  0  0  0  0  0
   41.9043   34.3237   41.5569 H   0  0  0  0  0  0  0  0  0  0  0  0
   43.7373   36.8863   43.7346 H   0  0  0  0  0  0  0  0  0  0  0  0
   44.8485   33.0786   42.0718 H   0  0  0  0  0  0  0  0  0  0  0  0
   47.0429   32.4117   47.6472 H   0  0  0  0  0  0  0  0  0  0  0  0
   45.5799   34.3235   47.1995 H   0  0  0  0  0  0  0  0  0  0  0  0
   41.9662   36.4957   39.5619 H   0  0  0  0  0  0  0  0  0  0  0  0
   42.7552   35.0345   38.8430 H   0  0  0  0  0  0  0  0  0  0  0  0
   40.9486   35.0485   37.1631 H   0  0  0  0  0  0  0  0  0  0  0  0
   38.7095   34.0586   36.6740 H   0  0  0  0  0  0  0  0  0  0  0  0
   37.2236   33.2738   38.5191 H   0  0  0  0  0  0  0  0  0  0  0  0
   37.9935   33.4805   40.8957 H   0  0  0  0  0  0  0  0  0  0  0  0
   40.2077   34.4598   41.3593 H   0  0  0  0  0  0  0  0  0  0  0  0
  1  4  1  0
  2  1  2  0
  3  8  2  0
  4  5  2  0
  4  3  1  0
  5  6  1  0
  6  7  2  0
  7 11  1  0
  8  7  1  0
 10  9  2  0
 11  9  1  0
 12  2  1  0
 13 12  1  0
 13 18  1  0
 14 13  2  0
 15 14  1  0
 15 16  2  0
 16 17  1  0
 17 18  2  0
  1 19  1  0
  2 20  1  0
  3 21  1  0
  5 22  1  0
  9 23  1  0
 11 24  1  0
 12 25  1  0
 12 26  1  0
 14 27  1  0
 15 28  1  0
 16 29  1  0
 17 30  1  0
 18 31  1  0
M  ISO  8  21  14  22  14  23   6  25   8  26   8  27  14  28  14  29  14
M  ISO  2  30  14  31  14
M  END
>  <minimizedAffinity>  (1) 
-6.32134199

>  <minimizedRMSD>  (1) 
0.165252298

$$$$
