
     RDKit          3D

 39 41  0  0  0  0  0  0  0  0999 V2000
   43.6250   35.3140   41.3320 C   0  0  0  0  0  0  0  0  0  0  0  0
   42.4770   34.9620   40.8080 C   0  0  0  0  0  0  0  0  0  0  0  0
   44.3470   35.6870   43.6850 C   0  0  0  0  0  0  0  0  0  0  0  0
   44.1810   34.8370   42.5860 C   0  0  0  0  0  0  0  0  0  0  0  0
   44.5590   33.5220   42.7170 C   0  0  0  0  0  0  0  0  0  0  0  0
   45.0840   33.0840   43.9080 N   0  0  0  0  0  0  0  0  0  0  0  0
   45.2280   33.9360   44.9460 C   0  0  0  0  0  0  0  0  0  0  0  0
   44.8680   35.2160   44.8410 N   0  0  0  0  0  0  0  0  0  0  0  0
   45.7740   33.4500   46.1650 N   0  0  0  0  0  0  0  0  0  0  0  0
   47.0790   32.8560   46.3810 C   0  0  0  0  0  0  0  0  0  0  0  0
   46.8080   31.8000   47.4590 C   0  0  0  0  0  0  0  0  0  0  0  0
   45.3880   32.0330   47.9210 C   0  0  0  0  0  0  0  0  0  0  0  0
   45.1290   33.4510   47.4640 C   0  0  0  0  0  0  0  0  0  0  0  0
   41.9570   35.4880   39.5130 C   0  0  0  0  0  0  0  0  0  0  0  0
   40.6390   34.8910   39.1840 C   0  0  0  0  0  0  0  0  0  0  0  0
   40.2990   34.7140   37.8380 C   0  0  0  0  0  0  0  0  0  0  0  0
   39.0700   34.1560   37.5310 C   0  0  0  0  0  0  0  0  0  0  0  0
   38.1690   33.7690   38.5120 C   0  0  0  0  0  0  0  0  0  0  0  0
   38.5120   33.9470   39.8520 C   0  0  0  0  0  0  0  0  0  0  0  0
   39.7350   34.5020   40.1590 C   0  0  0  0  0  0  0  0  0  0  0  0
   44.2263   36.0416   40.7672 H   0  0  0  0  0  0  0  0  0  0  0  0
   41.8597   34.2349   41.3560 H   0  0  0  0  0  0  0  0  0  0  0  0
   44.0522   36.7440   43.6085 H   0  0  0  0  0  0  0  0  0  0  0  0
   44.4418   32.8254   41.8738 H   0  0  0  0  0  0  0  0  0  0  0  0
   47.4582   32.3907   45.4592 H   0  0  0  0  0  0  0  0  0  0  0  0
   47.8435   33.5893   46.6774 H   0  0  0  0  0  0  0  0  0  0  0  0
   46.9123   30.7889   47.0386 H   0  0  0  0  0  0  0  0  0  0  0  0
   47.5217   31.8815   48.2920 H   0  0  0  0  0  0  0  0  0  0  0  0
   44.6927   31.3272   47.4431 H   0  0  0  0  0  0  0  0  0  0  0  0
   45.2467   31.8859   49.0019 H   0  0  0  0  0  0  0  0  0  0  0  0
   45.5900   34.1839   48.1425 H   0  0  0  0  0  0  0  0  0  0  0  0
   44.0654   33.7307   47.4400 H   0  0  0  0  0  0  0  0  0  0  0  0
   41.8483   36.5801   39.5866 H   0  0  0  0  0  0  0  0  0  0  0  0
   42.6688   35.2228   38.7174 H   0  0  0  0  0  0  0  0  0  0  0  0
   40.9946   35.0124   37.0398 H   0  0  0  0  0  0  0  0  0  0  0  0
   38.7990   34.0148   36.4743 H   0  0  0  0  0  0  0  0  0  0  0  0
   37.1991   33.3286   38.2374 H   0  0  0  0  0  0  0  0  0  0  0  0
   37.8172   33.6490   40.6510 H   0  0  0  0  0  0  0  0  0  0  0  0
   40.0034   34.6413   41.2166 H   0  0  0  0  0  0  0  0  0  0  0  0
  1  4  1  0
  2  1  2  0
  3  8  2  0
  4  5  2  0
  4  3  1  0
  5  6  1  0
  6  7  2  0
  7  9  1  0
  8  7  1  0
  9 10  1  0
  9 13  1  0
 10 11  1  0
 11 12  1  0
 13 12  1  0
 14  2  1  0
 15 14  1  0
 15 20  1  0
 16 15  2  0
 17 16  1  0
 17 18  2  0
 18 19  1  0
 19 20  2  0
  1 21  1  0
  2 22  1  0
  3 23  1  0
  5 24  1  0
 10 25  1  0
 10 26  1  0
 11 27  1  0
 11 28  1  0
 12 29  1  0
 12 30  1  0
 13 31  1  0
 13 32  1  0
 14 33  1  0
 14 34  1  0
 16 35  1  0
 17 36  1  0
 18 37  1  0
 19 38  1  0
 20 39  1  0
M  ISO  8  23  14  24  14  25  13  26  13  27  13  28  13  29  13  30  13
M  ISO  8  31  13  32  13  33   8  34   8  35  14  36  14  37  14  38  14
M  ISO  1  39  14
M  END
>  <minimizedAffinity>  (1) 
-6.30055618

>  <minimizedRMSD>  (1) 
0.27441138

$$$$
