
     RDKit          3D

 38 40  0  0  1  0  0  0  0  0999 V2000
   44.6870   35.5650   43.0660 C   0  0  0  0  0  0  0  0  0  0  0  0
   43.8120   34.8870   42.2410 C   0  0  0  0  0  0  0  0  0  0  0  0
   43.9220   33.5120   42.1630 C   0  0  0  0  0  0  0  0  0  0  0  0
   44.8740   32.8540   42.8890 N   0  0  0  0  0  0  0  0  0  0  0  0
   45.7240   33.5630   43.6960 C   0  0  0  0  0  0  0  0  0  0  0  0
   45.6240   34.8950   43.7770 N   0  0  0  0  0  0  0  0  0  0  0  0
   46.6820   30.5640   43.7640 O   0  0  0  0  0  0  0  0  0  0  0  0
   46.3210   31.4390   44.5630 C   0  0  0  0  0  0  0  0  0  0  0  0
   46.7740   32.8720   44.4990 C   0  0  2  0  0  0  0  0  0  0  0  0
   46.6850   33.2650   45.9420 C   0  0  0  0  0  0  0  0  0  0  0  0
   45.6130   32.4110   46.5670 C   0  0  0  0  0  0  0  0  0  0  0  0
   45.4400   31.2870   45.6680 N   0  0  0  0  0  0  0  0  0  0  0  0
   42.7800   35.5370   41.4480 C   0  0  0  0  0  0  0  0  0  0  0  0
   41.4860   35.4700   41.6590 C   0  0  0  0  0  0  0  0  0  0  0  0
   40.4910   36.1780   40.7840 C   0  0  0  0  0  0  0  0  0  0  0  0
   39.8600   35.2180   39.8420 C   0  0  0  0  0  0  0  0  0  0  0  0
   40.2780   35.2030   38.5110 C   0  0  0  0  0  0  0  0  0  0  0  0
   39.6930   34.3100   37.6280 C   0  0  0  0  0  0  0  0  0  0  0  0
   38.6950   33.4220   38.0350 C   0  0  0  0  0  0  0  0  0  0  0  0
   38.2740   33.4310   39.3570 C   0  0  0  0  0  0  0  0  0  0  0  0
   38.8700   34.3290   40.2190 C   0  0  0  0  0  0  0  0  0  0  0  0
   44.6221   36.6601   43.1463 H   0  0  0  0  0  0  0  0  0  0  0  0
   43.2397   32.9443   41.5132 H   0  0  0  0  0  0  0  0  0  0  0  0
   47.7625   33.0828   44.0650 H   0  0  0  0  0  0  0  0  0  0  0  0
   47.6486   33.0872   46.4419 H   0  0  0  0  0  0  0  0  0  0  0  0
   46.4437   34.3334   46.0432 H   0  0  0  0  0  0  0  0  0  0  0  0
   45.9298   32.0629   47.5612 H   0  0  0  0  0  0  0  0  0  0  0  0
   44.6759   32.9698   46.7067 H   0  0  0  0  0  0  0  0  0  0  0  0
   44.7846   30.5047   45.8074 H   0  0  0  0  0  0  0  0  0  0  0  0
   43.1151   36.1409   40.5918 H   0  0  0  0  0  0  0  0  0  0  0  0
   41.1171   34.8741   42.5068 H   0  0  0  0  0  0  0  0  0  0  0  0
   39.7127   36.6334   41.4140 H   0  0  0  0  0  0  0  0  0  0  0  0
   41.0113   36.9568   40.2071 H   0  0  0  0  0  0  0  0  0  0  0  0
   41.0630   35.8923   38.1666 H   0  0  0  0  0  0  0  0  0  0  0  0
   40.0233   34.3002   36.5788 H   0  0  0  0  0  0  0  0  0  0  0  0
   38.2469   32.7221   37.3143 H   0  0  0  0  0  0  0  0  0  0  0  0
   37.4897   32.7438   39.7071 H   0  0  0  0  0  0  0  0  0  0  0  0
   38.5380   34.3382   41.2677 H   0  0  0  0  0  0  0  0  0  0  0  0
  1  6  2  0
  2  1  1  0
  3  2  2  0
  3  4  1  0
  4  5  2  0
  5  6  1  0
  7  8  2  0
  8 12  1  0
  9  5  1  0
  9  8  1  0
  9 10  1  0
 10 11  1  0
 12 11  1  0
 13 14  2  0
 13  2  1  0
 15 14  1  0
 16 21  1  0
 16 15  1  0
 17 16  2  0
 18 19  2  0
 18 17  1  0
 19 20  1  0
 20 21  2  0
  1 22  1  0
  3 23  1  0
  9 24  1  6
 10 25  1  0
 10 26  1  0
 11 27  1  0
 11 28  1  0
 12 29  1  0
 13 30  1  0
 14 31  1  0
 15 32  1  0
 15 33  1  0
 17 34  1  0
 18 35  1  0
 19 36  1  0
 20 37  1  0
 21 38  1  0
M  ISO  8  22  14  23  14  24  13  25  13  26  13  27  13  28  13  29  10
M  ISO  7  32   8  33   8  34  14  35  14  36  14  37  14  38  14
M  END
>  <minimizedAffinity>  (1) 
-6.11603403

>  <minimizedRMSD>  (1) 
1.7085855

$$$$
