
     RDKit          3D

 34 35  0  0  0  0  0  0  0  0999 V2000
   41.9440   35.4810   39.5080 C   0  0  0  0  0  0  0  0  0  0  0  0
   40.6150   34.8570   39.2200 C   0  0  0  0  0  0  0  0  0  0  0  0
   40.2720   34.6450   37.8850 C   0  0  0  0  0  0  0  0  0  0  0  0
   39.0450   34.0680   37.5980 C   0  0  0  0  0  0  0  0  0  0  0  0
   38.1560   33.6980   38.6000 C   0  0  0  0  0  0  0  0  0  0  0  0
   38.5090   33.9120   39.9150 C   0  0  0  0  0  0  0  0  0  0  0  0
   39.7330   34.4890   40.2200 C   0  0  0  0  0  0  0  0  0  0  0  0
   43.6130   35.4320   41.3420 C   0  0  0  0  0  0  0  0  0  0  0  0
   42.4960   34.9840   40.8040 C   0  0  0  0  0  0  0  0  0  0  0  0
   44.2860   35.8280   43.7010 C   0  0  0  0  0  0  0  0  0  0  0  0
   44.1860   34.9770   42.5990 C   0  0  0  0  0  0  0  0  0  0  0  0
   44.6470   33.6830   42.7290 C   0  0  0  0  0  0  0  0  0  0  0  0
   45.1790   33.2860   43.9240 N   0  0  0  0  0  0  0  0  0  0  0  0
   45.2620   34.1320   44.9750 C   0  0  0  0  0  0  0  0  0  0  0  0
   44.8200   35.3870   44.8610 N   0  0  0  0  0  0  0  0  0  0  0  0
   45.8420   33.6630   46.2400 C   0  0  0  0  0  0  0  0  0  0  0  0
   46.7060   32.6440   46.2490 C   0  0  0  0  0  0  0  0  0  0  0  0
   47.2780   32.1880   47.5410 C   0  0  0  0  0  0  0  0  0  0  0  0
   41.8250   36.5732   39.5623 H   0  0  0  0  0  0  0  0  0  0  0  0
   42.6417   35.2104   38.7017 H   0  0  0  0  0  0  0  0  0  0  0  0
   40.9612   34.9299   37.0764 H   0  0  0  0  0  0  0  0  0  0  0  0
   38.7670   33.8981   36.5474 H   0  0  0  0  0  0  0  0  0  0  0  0
   37.1872   33.2421   38.3479 H   0  0  0  0  0  0  0  0  0  0  0  0
   37.8198   33.6251   40.7229 H   0  0  0  0  0  0  0  0  0  0  0  0
   40.0062   34.6563   41.2723 H   0  0  0  0  0  0  0  0  0  0  0  0
   44.1573   36.2155   40.7944 H   0  0  0  0  0  0  0  0  0  0  0  0
   41.9394   34.2006   41.3392 H   0  0  0  0  0  0  0  0  0  0  0  0
   43.9274   36.8651   43.6244 H   0  0  0  0  0  0  0  0  0  0  0  0
   44.5873   32.9815   41.8838 H   0  0  0  0  0  0  0  0  0  0  0  0
   45.5637   34.1530   47.1847 H   0  0  0  0  0  0  0  0  0  0  0  0
   46.9905   32.1482   45.3092 H   0  0  0  0  0  0  0  0  0  0  0  0
   46.7136   32.6380   48.3710 H   0  0  0  0  0  0  0  0  0  0  0  0
   47.2122   31.0918   47.6046 H   0  0  0  0  0  0  0  0  0  0  0  0
   48.3320   32.4964   47.6046 H   0  0  0  0  0  0  0  0  0  0  0  0
  1  9  1  0
  2  1  1  0
  2  7  1  0
  3  2  2  0
  4  3  1  0
  4  5  2  0
  5  6  1  0
  6  7  2  0
  8 11  1  0
  9  8  2  0
 10 15  2  0
 11 12  2  0
 11 10  1  0
 12 13  1  0
 13 14  2  0
 14 16  1  0
 15 14  1  0
 16 17  2  0
 17 18  1  0
  1 19  1  0
  1 20  1  0
  3 21  1  0
  4 22  1  0
  5 23  1  0
  6 24  1  0
  7 25  1  0
  8 26  1  0
  9 27  1  0
 10 28  1  0
 12 29  1  0
 16 30  1  0
 17 31  1  0
 18 32  1  0
 18 33  1  0
 18 34  1  0
M  ISO  8  19   8  20   8  21  14  22  14  23  14  24  14  25  14  28  14
M  ISO  4  29  14  32   8  33   8  34   8
M  END
>  <minimizedAffinity>  (1) 
-5.97593117

>  <minimizedRMSD>  (1) 
0.386158586

$$$$
