
     RDKit          3D

 34 36  0  0  0  0  0  0  0  0999 V2000
   41.8120   35.5790   39.5630 C   0  0  0  0  0  0  0  0  0  0  0  0
   40.5250   34.8910   39.2410 C   0  0  0  0  0  0  0  0  0  0  0  0
   40.2080   34.6850   37.9020 C   0  0  0  0  0  0  0  0  0  0  0  0
   39.0170   34.0500   37.6040 C   0  0  0  0  0  0  0  0  0  0  0  0
   38.1320   33.6090   38.5740 C   0  0  0  0  0  0  0  0  0  0  0  0
   38.4640   33.8220   39.9130 C   0  0  0  0  0  0  0  0  0  0  0  0
   39.6490   34.4570   40.2240 C   0  0  0  0  0  0  0  0  0  0  0  0
   43.4720   35.5040   41.4030 C   0  0  0  0  0  0  0  0  0  0  0  0
   42.4400   34.9910   40.7890 C   0  0  0  0  0  0  0  0  0  0  0  0
   44.3630   35.7690   43.7010 C   0  0  0  0  0  0  0  0  0  0  0  0
   44.1240   34.9870   42.5870 C   0  0  0  0  0  0  0  0  0  0  0  0
   44.5230   33.6730   42.6130 C   0  0  0  0  0  0  0  0  0  0  0  0
   45.1440   33.1790   43.7400 N   0  0  0  0  0  0  0  0  0  0  0  0
   45.3640   33.9750   44.8190 C   0  0  0  0  0  0  0  0  0  0  0  0
   44.9730   35.2600   44.7910 N   0  0  0  0  0  0  0  0  0  0  0  0
   46.0400   33.4200   46.0350 C   0  0  0  0  0  0  0  0  0  0  0  0
   45.8510   32.0250   46.4430 C   0  0  0  0  0  0  0  0  0  0  0  0
   47.0930   32.3160   45.7120 C   0  0  0  0  0  0  0  0  0  0  0  0
   41.6158   36.6475   39.7359 H   0  0  0  0  0  0  0  0  0  0  0  0
   42.5023   35.4473   38.7168 H   0  0  0  0  0  0  0  0  0  0  0  0
   40.8864   35.0182   37.1028 H   0  0  0  0  0  0  0  0  0  0  0  0
   38.7599   33.8872   36.5469 H   0  0  0  0  0  0  0  0  0  0  0  0
   37.1942   33.1052   38.2970 H   0  0  0  0  0  0  0  0  0  0  0  0
   37.7873   33.4868   40.7128 H   0  0  0  0  0  0  0  0  0  0  0  0
   39.9056   34.6234   41.2806 H   0  0  0  0  0  0  0  0  0  0  0  0
   43.8901   36.4270   40.9748 H   0  0  0  0  0  0  0  0  0  0  0  0
   42.0040   34.0678   41.1984 H   0  0  0  0  0  0  0  0  0  0  0  0
   44.0507   36.8237   43.6988 H   0  0  0  0  0  0  0  0  0  0  0  0
   44.3488   33.0219   41.7437 H   0  0  0  0  0  0  0  0  0  0  0  0
   45.9699   34.3719   46.5818 H   0  0  0  0  0  0  0  0  0  0  0  0
   45.9033   31.7648   47.5105 H   0  0  0  0  0  0  0  0  0  0  0  0
   45.0392   31.2991   46.2881 H   0  0  0  0  0  0  0  0  0  0  0  0
   47.2270   31.9604   44.6797 H   0  0  0  0  0  0  0  0  0  0  0  0
   48.1686   32.1724   45.8921 H   0  0  0  0  0  0  0  0  0  0  0  0
  1  9  1  0
  2  1  1  0
  2  7  1  0
  3  2  2  0
  4  3  1  0
  4  5  2  0
  5  6  1  0
  6  7  2  0
  8 11  1  0
  9  8  2  0
 10 15  2  0
 11 12  2  0
 11 10  1  0
 12 13  1  0
 13 14  2  0
 14 16  1  0
 15 14  1  0
 16 17  1  0
 18 16  1  0
 18 17  1  0
  1 19  1  0
  1 20  1  0
  3 21  1  0
  4 22  1  0
  5 23  1  0
  6 24  1  0
  7 25  1  0
  8 26  1  0
  9 27  1  0
 10 28  1  0
 12 29  1  0
 16 30  1  0
 17 31  1  0
 17 32  1  0
 18 33  1  0
 18 34  1  0
M  ISO  8  19   8  20   8  21  14  22  14  23  14  24  14  25  14  28  14
M  ISO  6  29  14  30  13  31  13  32  13  33  13  34  13
M  END
>  <minimizedAffinity>  (1) 
-5.77687836

>  <minimizedRMSD>  (1) 
0.372959375

$$$$
