
     RDKit          3D

 34 36  0  0  0  0  0  0  0  0999 V2000
   44.3160   35.3400   42.2490 C   0  0  0  0  0  0  0  0  0  0  0  0
   43.3600   34.9640   41.4330 C   0  0  0  0  0  0  0  0  0  0  0  0
   44.6610   35.2560   44.7180 C   0  0  0  0  0  0  0  0  0  0  0  0
   44.7180   34.6570   43.4510 C   0  0  0  0  0  0  0  0  0  0  0  0
   45.1830   33.3490   43.3890 C   0  0  0  0  0  0  0  0  0  0  0  0
   45.5640   32.7020   44.5360 N   0  0  0  0  0  0  0  0  0  0  0  0
   45.4900   33.3270   45.7320 C   0  0  0  0  0  0  0  0  0  0  0  0
   45.0430   34.5920   45.8270 N   0  0  0  0  0  0  0  0  0  0  0  0
   45.8860   32.6630   46.9570 C   0  0  0  0  0  0  0  0  0  0  0  0
   45.2880   32.6080   48.1540 C   0  0  0  0  0  0  0  0  0  0  0  0
   45.8360   31.9180   49.1850 C   0  0  0  0  0  0  0  0  0  0  0  0
   47.0920   31.2610   48.8870 C   0  0  0  0  0  0  0  0  0  0  0  0
   47.3720   31.7120   47.0960 S   0  0  0  0  0  0  0  0  0  0  0  0
   42.9820   35.7080   40.1980 C   0  0  0  0  0  0  0  0  0  0  0  0
   41.6340   35.2820   39.7000 C   0  0  0  0  0  0  0  0  0  0  0  0
   41.4470   35.1210   38.3380 C   0  0  0  0  0  0  0  0  0  0  0  0
   40.2180   34.7290   37.8490 C   0  0  0  0  0  0  0  0  0  0  0  0
   39.1470   34.4900   38.7070 C   0  0  0  0  0  0  0  0  0  0  0  0
   39.3400   34.6530   40.0680 C   0  0  0  0  0  0  0  0  0  0  0  0
   40.5740   35.0450   40.5570 C   0  0  0  0  0  0  0  0  0  0  0  0
   44.8599   36.2608   41.9914 H   0  0  0  0  0  0  0  0  0  0  0  0
   42.8047   34.0456   41.6745 H   0  0  0  0  0  0  0  0  0  0  0  0
   44.2967   36.2900   44.8085 H   0  0  0  0  0  0  0  0  0  0  0  0
   45.2454   32.8328   42.4197 H   0  0  0  0  0  0  0  0  0  0  0  0
   44.3331   33.1330   48.3040 H   0  0  0  0  0  0  0  0  0  0  0  0
   45.3611   31.8614   50.1756 H   0  0  0  0  0  0  0  0  0  0  0  0
   47.7228   30.6498   49.5492 H   0  0  0  0  0  0  0  0  0  0  0  0
   42.9583   36.7849   40.4209 H   0  0  0  0  0  0  0  0  0  0  0  0
   43.7265   35.4897   39.4182 H   0  0  0  0  0  0  0  0  0  0  0  0
   42.2802   35.3060   37.6440 H   0  0  0  0  0  0  0  0  0  0  0  0
   40.0817   34.6032   36.7647 H   0  0  0  0  0  0  0  0  0  0  0  0
   38.1690   34.1785   38.3116 H   0  0  0  0  0  0  0  0  0  0  0  0
   38.5084   34.4700   40.7644 H   0  0  0  0  0  0  0  0  0  0  0  0
   40.7138   35.1697   41.6409 H   0  0  0  0  0  0  0  0  0  0  0  0
  1  4  1  0
  2  1  2  0
  3  8  2  0
  4  3  1  0
  5  4  2  0
  5  6  1  0
  6  7  2  0
  7  8  1  0
  7  9  1  0
  9 13  1  0
  9 10  2  0
 10 11  1  0
 12 11  2  0
 13 12  1  0
 14  2  1  0
 15 14  1  0
 15 20  1  0
 16 15  2  0
 17 16  1  0
 17 18  2  0
 18 19  1  0
 19 20  2  0
  1 21  1  0
  2 22  1  0
  3 23  1  0
  5 24  1  0
 10 25  1  0
 11 26  1  0
 12 27  1  0
 14 28  1  0
 14 29  1  0
 16 30  1  0
 17 31  1  0
 18 32  1  0
 19 33  1  0
 20 34  1  0
M  ISO  8  23  14  24  14  25  14  26  14  27  14  28   8  29   8  30  14
M  ISO  4  31  14  32  14  33  14  34  14
M  END
>  <minimizedAffinity>  (1) 
-6.02068758

>  <minimizedRMSD>  (1) 
1.38023448

$$$$
