
     RDKit          3D

 41 44  0  0  0  0  0  0  0  0999 V2000
   39.8690   35.1380   40.1200 C   0  0  0  0  0  0  0  0  0  0  0  0
   39.3100   34.0270   39.2980 C   0  0  0  0  0  0  0  0  0  0  0  0
   38.6270   34.3210   38.1090 C   0  0  0  0  0  0  0  0  0  0  0  0
   38.1270   33.3450   37.2900 C   0  0  0  0  0  0  0  0  0  0  0  0
   38.2970   32.0210   37.6380 C   0  0  0  0  0  0  0  0  0  0  0  0
   38.9760   31.7210   38.8210 C   0  0  0  0  0  0  0  0  0  0  0  0
   39.4830   32.7230   39.6560 C   0  0  0  0  0  0  0  0  0  0  0  0
   40.0980   32.2140   40.8660 C   0  0  0  0  0  0  0  0  0  0  0  0
   41.2640   31.4840   40.9190 C   0  0  0  0  0  0  0  0  0  0  0  0
   41.6440   31.1310   42.1900 C   0  0  0  0  0  0  0  0  0  0  0  0
   40.6740   31.6670   42.9280 N   0  0  0  0  0  0  0  0  0  0  0  0
   39.8180   32.2700   42.1590 N   0  0  0  0  0  0  0  0  0  0  0  0
   42.0020   35.1080   41.3740 C   0  0  0  0  0  0  0  0  0  0  0  0
   41.3640   35.0680   40.2100 C   0  0  0  0  0  0  0  0  0  0  0  0
   44.1020   35.6120   42.6010 C   0  0  0  0  0  0  0  0  0  0  0  0
   43.4360   34.9970   41.5080 C   0  0  0  0  0  0  0  0  0  0  0  0
   44.2090   34.3040   40.6130 C   0  0  0  0  0  0  0  0  0  0  0  0
   45.5650   34.2320   40.8070 N   0  0  0  0  0  0  0  0  0  0  0  0
   46.1560   34.8330   41.8620 C   0  0  0  0  0  0  0  0  0  0  0  0
   45.4380   35.5170   42.7560 N   0  0  0  0  0  0  0  0  0  0  0  0
   47.5890   34.7570   42.0700 C   0  0  0  0  0  0  0  0  0  0  0  0
   48.5550   35.6570   41.8970 C   0  0  0  0  0  0  0  0  0  0  0  0
   49.8340   35.3770   42.1620 C   0  0  0  0  0  0  0  0  0  0  0  0
   50.1100   34.0500   42.6430 C   0  0  0  0  0  0  0  0  0  0  0  0
   48.3930   33.2940   42.6680 S   0  0  0  0  0  0  0  0  0  0  0  0
   39.4482   35.0766   41.1345 H   0  0  0  0  0  0  0  0  0  0  0  0
   39.6003   36.0889   39.6367 H   0  0  0  0  0  0  0  0  0  0  0  0
   38.4880   35.3744   37.8242 H   0  0  0  0  0  0  0  0  0  0  0  0
   37.5957   33.6133   36.3649 H   0  0  0  0  0  0  0  0  0  0  0  0
   37.9056   31.2176   36.9966 H   0  0  0  0  0  0  0  0  0  0  0  0
   39.1162   30.6674   39.1044 H   0  0  0  0  0  0  0  0  0  0  0  0
   41.8396   31.2083   40.0231 H   0  0  0  0  0  0  0  0  0  0  0  0
   42.5227   30.5544   42.5148 H   0  0  0  0  0  0  0  0  0  0  0  0
   40.6117   31.6118   43.9546 H   0  0  0  0  0  0  0  0  0  0  0  0
   41.4040   35.2328   42.2888 H   0  0  0  0  0  0  0  0  0  0  0  0
   41.9504   34.9808   39.2834 H   0  0  0  0  0  0  0  0  0  0  0  0
   43.5145   36.1789   43.3382 H   0  0  0  0  0  0  0  0  0  0  0  0
   43.7458   33.8097   39.7464 H   0  0  0  0  0  0  0  0  0  0  0  0
   48.2926   36.6586   41.5257 H   0  0  0  0  0  0  0  0  0  0  0  0
   50.6322   36.1205   42.0201 H   0  0  0  0  0  0  0  0  0  0  0  0
   51.0731   33.5979   42.9224 H   0  0  0  0  0  0  0  0  0  0  0  0
  1 14  1  0
  2  7  1  0
  2  1  1  0
  3  2  2  0
  4  5  2  0
  4  3  1  0
  5  6  1  0
  6  7  2  0
  7  8  1  0
  8  9  1  0
  8 12  2  0
  9 10  2  0
 10 11  1  0
 12 11  1  0
 13 16  1  0
 14 13  2  0
 15 20  2  0
 16 15  1  0
 17 18  1  0
 17 16  2  0
 18 19  2  0
 19 21  1  0
 19 20  1  0
 21 25  1  0
 22 21  2  0
 22 23  1  0
 23 24  2  0
 24 25  1  0
  1 26  1  0
  1 27  1  0
  3 28  1  0
  4 29  1  0
  5 30  1  0
  6 31  1  0
  9 32  1  0
 10 33  1  0
 11 34  1  0
 13 35  1  0
 14 36  1  0
 15 37  1  0
 17 38  1  0
 22 39  1  0
 23 40  1  0
 24 41  1  0
M  ISO  8  26   8  27   8  28  14  29  14  30  14  31  14  32  14  33  14
M  ISO  6  34   9  37  14  38  14  39  14  40  14  41  14
M  END
>  <minimizedAffinity>  (1) 
-6.89585447

>  <minimizedRMSD>  (1) 
4.30844641

$$$$
