
     RDKit          3D

 42 45  0  0  0  0  0  0  0  0999 V2000
   39.8320   34.9210   40.1290 C   0  0  0  0  0  0  0  0  0  0  0  0
   39.2990   33.8800   39.2090 C   0  0  0  0  0  0  0  0  0  0  0  0
   38.5250   34.2600   38.1030 C   0  0  0  0  0  0  0  0  0  0  0  0
   38.0380   33.3450   37.2080 C   0  0  0  0  0  0  0  0  0  0  0  0
   38.3190   31.9870   37.3940 C   0  0  0  0  0  0  0  0  0  0  0  0
   39.0920   31.6130   38.4980 C   0  0  0  0  0  0  0  0  0  0  0  0
   39.5810   32.5580   39.4080 C   0  0  0  0  0  0  0  0  0  0  0  0
   40.3080   31.9430   40.4970 C   0  0  0  0  0  0  0  0  0  0  0  0
   39.7380   31.6780   41.7000 C   0  0  0  0  0  0  0  0  0  0  0  0
   40.3280   31.0790   42.7910 C   0  0  0  0  0  0  0  0  0  0  0  0
   41.6230   30.7120   42.6550 N   0  0  0  0  0  0  0  0  0  0  0  0
   42.2390   30.9450   41.4990 C   0  0  0  0  0  0  0  0  0  0  0  0
   41.5600   31.5280   40.5290 N   0  0  0  0  0  0  0  0  0  0  0  0
   41.9710   34.9980   41.3700 C   0  0  0  0  0  0  0  0  0  0  0  0
   41.3290   34.8830   40.2150 C   0  0  0  0  0  0  0  0  0  0  0  0
   44.0570   35.5270   42.6110 C   0  0  0  0  0  0  0  0  0  0  0  0
   43.4070   34.9170   41.5050 C   0  0  0  0  0  0  0  0  0  0  0  0
   44.1950   34.2540   40.5960 C   0  0  0  0  0  0  0  0  0  0  0  0
   45.5580   34.2130   40.8010 N   0  0  0  0  0  0  0  0  0  0  0  0
   46.1290   34.8020   41.8600 C   0  0  0  0  0  0  0  0  0  0  0  0
   45.3920   35.4570   42.7650 N   0  0  0  0  0  0  0  0  0  0  0  0
   47.5660   34.7480   42.0690 C   0  0  0  0  0  0  0  0  0  0  0  0
   48.5100   35.6660   41.8730 C   0  0  0  0  0  0  0  0  0  0  0  0
   49.8230   35.4090   42.1430 C   0  0  0  0  0  0  0  0  0  0  0  0
   50.0740   34.0910   42.6430 C   0  0  0  0  0  0  0  0  0  0  0  0
   48.4000   33.3080   42.6910 S   0  0  0  0  0  0  0  0  0  0  0  0
   39.4144   34.7549   41.1330 H   0  0  0  0  0  0  0  0  0  0  0  0
   39.5397   35.9050   39.7338 H   0  0  0  0  0  0  0  0  0  0  0  0
   38.3021   35.3262   37.9496 H   0  0  0  0  0  0  0  0  0  0  0  0
   37.4318   33.6744   36.3512 H   0  0  0  0  0  0  0  0  0  0  0  0
   37.9411   31.2318   36.6891 H   0  0  0  0  0  0  0  0  0  0  0  0
   39.3217   30.5488   38.6554 H   0  0  0  0  0  0  0  0  0  0  0  0
   38.6854   31.9754   41.8169 H   0  0  0  0  0  0  0  0  0  0  0  0
   39.7741   30.9077   43.7258 H   0  0  0  0  0  0  0  0  0  0  0  0
   43.2911   30.6580   41.3549 H   0  0  0  0  0  0  0  0  0  0  0  0
   41.3745   35.1650   42.2790 H   0  0  0  0  0  0  0  0  0  0  0  0
   41.9127   34.7558   39.2913 H   0  0  0  0  0  0  0  0  0  0  0  0
   43.4565   36.0679   43.3572 H   0  0  0  0  0  0  0  0  0  0  0  0
   43.7463   33.7640   39.7193 H   0  0  0  0  0  0  0  0  0  0  0  0
   48.2251   36.6548   41.4843 H   0  0  0  0  0  0  0  0  0  0  0  0
   50.6203   36.1511   41.9896 H   0  0  0  0  0  0  0  0  0  0  0  0
   51.0384   33.6475   42.9314 H   0  0  0  0  0  0  0  0  0  0  0  0
  1 15  1  0
  2  7  1  0
  2  1  1  0
  3  2  2  0
  4  5  2  0
  4  3  1  0
  5  6  1  0
  6  7  2  0
  7  8  1  0
  8 13  1  0
  8  9  2  0
  9 10  1  0
 11 10  2  0
 12 11  1  0
 13 12  2  0
 14 17  1  0
 15 14  2  0
 16 21  2  0
 17 16  1  0
 18 19  1  0
 18 17  2  0
 19 20  2  0
 20 22  1  0
 20 21  1  0
 22 26  1  0
 23 22  2  0
 23 24  1  0
 24 25  2  0
 25 26  1  0
  1 27  1  0
  1 28  1  0
  3 29  1  0
  4 30  1  0
  5 31  1  0
  6 32  1  0
  9 33  1  0
 10 34  1  0
 12 35  1  0
 14 36  1  0
 15 37  1  0
 16 38  1  0
 18 39  1  0
 23 40  1  0
 24 41  1  0
 25 42  1  0
M  ISO  8  27   8  28   8  29  14  30  14  31  14  32  14  33  14  34  14
M  ISO  6  35  14  38  14  39  14  40  14  41  14  42  14
M  END
>  <minimizedAffinity>  (1) 
-6.62172031

>  <minimizedRMSD>  (1) 
4.52854013

$$$$
