
     RDKit          3D

 43 46  0  0  0  0  0  0  0  0999 V2000
   39.7600   34.8670   40.1720 C   0  0  0  0  0  0  0  0  0  0  0  0
   39.2380   33.8490   39.2230 C   0  0  0  0  0  0  0  0  0  0  0  0
   38.5110   34.2560   38.0970 C   0  0  0  0  0  0  0  0  0  0  0  0
   38.0390   33.3600   37.1700 C   0  0  0  0  0  0  0  0  0  0  0  0
   38.2900   32.0010   37.3520 C   0  0  0  0  0  0  0  0  0  0  0  0
   39.0130   31.5930   38.4730 C   0  0  0  0  0  0  0  0  0  0  0  0
   39.4850   32.5220   39.4120 C   0  0  0  0  0  0  0  0  0  0  0  0
   40.1640   31.8830   40.5160 C   0  0  0  0  0  0  0  0  0  0  0  0
   41.4320   31.3640   40.3980 C   0  0  0  0  0  0  0  0  0  0  0  0
   42.1850   30.7600   41.3770 C   0  0  0  0  0  0  0  0  0  0  0  0
   41.6360   30.6470   42.6210 C   0  0  0  0  0  0  0  0  0  0  0  0
   40.3730   31.1530   42.7790 C   0  0  0  0  0  0  0  0  0  0  0  0
   39.7460   31.7130   41.7620 N   0  0  0  0  0  0  0  0  0  0  0  0
   41.8980   34.9090   41.4180 C   0  0  0  0  0  0  0  0  0  0  0  0
   41.2570   34.8450   40.2590 C   0  0  0  0  0  0  0  0  0  0  0  0
   43.9900   35.4260   42.6540 C   0  0  0  0  0  0  0  0  0  0  0  0
   43.3370   34.8410   41.5390 C   0  0  0  0  0  0  0  0  0  0  0  0
   44.1300   34.2200   40.6060 C   0  0  0  0  0  0  0  0  0  0  0  0
   45.4940   34.1920   40.7890 N   0  0  0  0  0  0  0  0  0  0  0  0
   46.0730   34.7560   41.8570 C   0  0  0  0  0  0  0  0  0  0  0  0
   45.3280   35.3760   42.7960 N   0  0  0  0  0  0  0  0  0  0  0  0
   47.5000   34.7390   42.0610 C   0  0  0  0  0  0  0  0  0  0  0  0
   48.4460   35.6470   41.8360 C   0  0  0  0  0  0  0  0  0  0  0  0
   49.7520   35.4120   42.1040 C   0  0  0  0  0  0  0  0  0  0  0  0
   50.0330   34.1230   42.6430 C   0  0  0  0  0  0  0  0  0  0  0  0
   48.3520   33.3340   42.7230 S   0  0  0  0  0  0  0  0  0  0  0  0
   39.3441   34.6668   41.1705 H   0  0  0  0  0  0  0  0  0  0  0  0
   39.4575   35.8585   39.8039 H   0  0  0  0  0  0  0  0  0  0  0  0
   38.3119   35.3279   37.9508 H   0  0  0  0  0  0  0  0  0  0  0  0
   37.4705   33.7098   36.2956 H   0  0  0  0  0  0  0  0  0  0  0  0
   37.9240   31.2624   36.6236 H   0  0  0  0  0  0  0  0  0  0  0  0
   39.2168   30.5226   38.6235 H   0  0  0  0  0  0  0  0  0  0  0  0
   41.8981   31.4411   39.4046 H   0  0  0  0  0  0  0  0  0  0  0  0
   43.1955   30.3808   41.1646 H   0  0  0  0  0  0  0  0  0  0  0  0
   42.1789   30.1746   43.4529 H   0  0  0  0  0  0  0  0  0  0  0  0
   39.8784   31.0921   43.7597 H   0  0  0  0  0  0  0  0  0  0  0  0
   41.3030   35.0198   42.3365 H   0  0  0  0  0  0  0  0  0  0  0  0
   41.8427   34.7734   39.3306 H   0  0  0  0  0  0  0  0  0  0  0  0
   43.3880   35.9334   43.4222 H   0  0  0  0  0  0  0  0  0  0  0  0
   43.6793   33.7490   39.7200 H   0  0  0  0  0  0  0  0  0  0  0  0
   48.1570   36.6225   41.4177 H   0  0  0  0  0  0  0  0  0  0  0  0
   50.5373   36.1598   41.9196 H   0  0  0  0  0  0  0  0  0  0  0  0
   51.0044   33.6998   42.9385 H   0  0  0  0  0  0  0  0  0  0  0  0
  1 15  1  0
  2  7  1  0
  2  1  1  0
  3  2  2  0
  4  5  2  0
  4  3  1  0
  5  6  1  0
  6  7  2  0
  7  8  1  0
  8 13  1  0
  9  8  2  0
  9 10  1  0
 10 11  2  0
 11 12  1  0
 13 12  2  0
 14 17  1  0
 15 14  2  0
 16 21  2  0
 17 16  1  0
 18 19  1  0
 18 17  2  0
 19 20  2  0
 20 22  1  0
 20 21  1  0
 22 26  1  0
 23 22  2  0
 23 24  1  0
 24 25  2  0
 25 26  1  0
  1 27  1  0
  1 28  1  0
  3 29  1  0
  4 30  1  0
  5 31  1  0
  6 32  1  0
  9 33  1  0
 10 34  1  0
 11 35  1  0
 12 36  1  0
 14 37  1  0
 15 38  1  0
 16 39  1  0
 18 40  1  0
 23 41  1  0
 24 42  1  0
 25 43  1  0
M  ISO  8  27   8  28   8  29  14  30  14  31  14  32  14  33  14  34  14
M  ISO  7  35  14  36  14  39  14  40  14  41  14  42  14  43  14
M  END
>  <minimizedAffinity>  (1) 
-6.61128569

>  <minimizedRMSD>  (1) 
4.54808283

$$$$
