
     RDKit          3D

 41 44  0  0  0  0  0  0  0  0999 V2000
   39.8350   34.9620   40.0900 C   0  0  0  0  0  0  0  0  0  0  0  0
   39.2950   33.9040   39.1840 C   0  0  0  0  0  0  0  0  0  0  0  0
   38.5360   34.2750   38.0670 C   0  0  0  0  0  0  0  0  0  0  0  0
   38.0460   33.3500   37.1850 C   0  0  0  0  0  0  0  0  0  0  0  0
   38.2970   32.0050   37.3820 C   0  0  0  0  0  0  0  0  0  0  0  0
   39.0560   31.6410   38.4980 C   0  0  0  0  0  0  0  0  0  0  0  0
   39.5540   32.5830   39.4000 C   0  0  0  0  0  0  0  0  0  0  0  0
   40.2270   32.0140   40.5560 C   0  0  0  0  0  0  0  0  0  0  0  0
   39.6240   31.7540   41.7680 C   0  0  0  0  0  0  0  0  0  0  0  0
   40.4770   31.2140   42.7000 C   0  0  0  0  0  0  0  0  0  0  0  0
   41.6460   31.1580   41.9820 C   0  0  0  0  0  0  0  0  0  0  0  0
   41.4280   31.6180   40.8030 O   0  0  0  0  0  0  0  0  0  0  0  0
   41.9710   35.0280   41.3390 C   0  0  0  0  0  0  0  0  0  0  0  0
   41.3290   34.8980   40.1850 C   0  0  0  0  0  0  0  0  0  0  0  0
   44.0550   35.5460   42.5800 C   0  0  0  0  0  0  0  0  0  0  0  0
   43.4060   34.9310   41.4780 C   0  0  0  0  0  0  0  0  0  0  0  0
   44.1900   34.2510   40.5770 C   0  0  0  0  0  0  0  0  0  0  0  0
   45.5510   34.1990   40.7830 N   0  0  0  0  0  0  0  0  0  0  0  0
   46.1260   34.7940   41.8370 C   0  0  0  0  0  0  0  0  0  0  0  0
   45.3910   35.4700   42.7420 N   0  0  0  0  0  0  0  0  0  0  0  0
   47.5550   34.7380   42.0590 C   0  0  0  0  0  0  0  0  0  0  0  0
   48.5070   35.6520   41.8800 C   0  0  0  0  0  0  0  0  0  0  0  0
   49.8160   35.3760   42.1620 C   0  0  0  0  0  0  0  0  0  0  0  0
   50.0620   34.0570   42.6530 C   0  0  0  0  0  0  0  0  0  0  0  0
   48.3770   33.2840   42.6770 S   0  0  0  0  0  0  0  0  0  0  0  0
   39.4074   34.8243   41.0941 H   0  0  0  0  0  0  0  0  0  0  0  0
   39.5586   35.9429   39.6760 H   0  0  0  0  0  0  0  0  0  0  0  0
   38.3275   35.3410   37.8934 H   0  0  0  0  0  0  0  0  0  0  0  0
   37.4521   33.6772   36.3188 H   0  0  0  0  0  0  0  0  0  0  0  0
   37.9124   31.2467   36.6841 H   0  0  0  0  0  0  0  0  0  0  0  0
   39.2682   30.5757   38.6714 H   0  0  0  0  0  0  0  0  0  0  0  0
   38.5623   31.9591   41.9696 H   0  0  0  0  0  0  0  0  0  0  0  0
   40.2777   30.9096   43.7381 H   0  0  0  0  0  0  0  0  0  0  0  0
   42.6099   30.7814   42.3550 H   0  0  0  0  0  0  0  0  0  0  0  0
   41.3755   35.2211   42.2435 H   0  0  0  0  0  0  0  0  0  0  0  0
   41.9134   34.7378   39.2670 H   0  0  0  0  0  0  0  0  0  0  0  0
   43.4543   36.0971   43.3186 H   0  0  0  0  0  0  0  0  0  0  0  0
   43.7377   33.7560   39.7050 H   0  0  0  0  0  0  0  0  0  0  0  0
   48.2351   36.6472   41.4983 H   0  0  0  0  0  0  0  0  0  0  0  0
   50.6195   36.1140   42.0214 H   0  0  0  0  0  0  0  0  0  0  0  0
   51.0220   33.6074   42.9467 H   0  0  0  0  0  0  0  0  0  0  0  0
  1 14  1  0
  2  7  1  0
  2  1  1  0
  3  2  2  0
  4  5  2  0
  4  3  1  0
  5  6  1  0
  6  7  2  0
  7  8  1  0
  8 12  1  0
  8  9  2  0
  9 10  1  0
 11 10  2  0
 12 11  1  0
 13 16  1  0
 14 13  2  0
 15 20  2  0
 16 15  1  0
 17 18  1  0
 17 16  2  0
 18 19  2  0
 19 21  1  0
 19 20  1  0
 21 25  1  0
 22 21  2  0
 22 23  1  0
 23 24  2  0
 24 25  1  0
  1 26  1  0
  1 27  1  0
  3 28  1  0
  4 29  1  0
  5 30  1  0
  6 31  1  0
  9 32  1  0
 10 33  1  0
 11 34  1  0
 13 35  1  0
 14 36  1  0
 15 37  1  0
 17 38  1  0
 22 39  1  0
 23 40  1  0
 24 41  1  0
M  ISO  8  26   8  27   8  28  14  29  14  30  14  31  14  32  14  33  14
M  ISO  6  34  14  37  14  38  14  39  14  40  14  41  14
M  END
>  <minimizedAffinity>  (1) 
-6.5749445

>  <minimizedRMSD>  (1) 
4.44176245

$$$$
