
     RDKit          3D

 41 44  0  0  0  0  0  0  0  0999 V2000
   39.7710   34.9140   40.1750 C   0  0  0  0  0  0  0  0  0  0  0  0
   39.2410   33.8810   39.2470 C   0  0  0  0  0  0  0  0  0  0  0  0
   38.5600   34.2650   38.0870 C   0  0  0  0  0  0  0  0  0  0  0  0
   38.0930   33.3570   37.1740 C   0  0  0  0  0  0  0  0  0  0  0  0
   38.2920   32.0020   37.3810 C   0  0  0  0  0  0  0  0  0  0  0  0
   38.9760   31.6140   38.5430 C   0  0  0  0  0  0  0  0  0  0  0  0
   39.4470   32.5510   39.4760 C   0  0  0  0  0  0  0  0  0  0  0  0
   40.0830   31.9010   40.6010 C   0  0  0  0  0  0  0  0  0  0  0  0
   41.3140   31.3050   40.7380 C   0  0  0  0  0  0  0  0  0  0  0  0
   41.5720   30.8910   41.9870 N   0  0  0  0  0  0  0  0  0  0  0  0
   40.4630   31.2400   42.6560 C   0  0  0  0  0  0  0  0  0  0  0  0
   39.5990   31.8270   41.8470 N   0  0  0  0  0  0  0  0  0  0  0  0
   41.9180   34.9250   41.3960 C   0  0  0  0  0  0  0  0  0  0  0  0
   41.2740   34.8950   40.2310 C   0  0  0  0  0  0  0  0  0  0  0  0
   43.9990   35.4450   42.6420 C   0  0  0  0  0  0  0  0  0  0  0  0
   43.3580   34.8610   41.5190 C   0  0  0  0  0  0  0  0  0  0  0  0
   44.1510   34.2310   40.5880 C   0  0  0  0  0  0  0  0  0  0  0  0
   45.5100   34.1940   40.7780 N   0  0  0  0  0  0  0  0  0  0  0  0
   46.0820   34.7570   41.8510 C   0  0  0  0  0  0  0  0  0  0  0  0
   45.3370   35.3870   42.7920 N   0  0  0  0  0  0  0  0  0  0  0  0
   47.5160   34.7190   42.0650 C   0  0  0  0  0  0  0  0  0  0  0  0
   48.4520   35.6450   41.8520 C   0  0  0  0  0  0  0  0  0  0  0  0
   49.7660   35.3820   42.1260 C   0  0  0  0  0  0  0  0  0  0  0  0
   50.0310   34.0720   42.6430 C   0  0  0  0  0  0  0  0  0  0  0  0
   48.3520   33.2860   42.7030 S   0  0  0  0  0  0  0  0  0  0  0  0
   39.3745   34.7241   41.1833 H   0  0  0  0  0  0  0  0  0  0  0  0
   39.4547   35.9007   39.8056 H   0  0  0  0  0  0  0  0  0  0  0  0
   38.3933   35.3363   37.9011 H   0  0  0  0  0  0  0  0  0  0  0  0
   37.5600   33.7039   36.2765 H   0  0  0  0  0  0  0  0  0  0  0  0
   37.9266   31.2562   36.6597 H   0  0  0  0  0  0  0  0  0  0  0  0
   39.1483   30.5435   38.7284 H   0  0  0  0  0  0  0  0  0  0  0  0
   42.0195   31.1797   39.9034 H   0  0  0  0  0  0  0  0  0  0  0  0
   42.4153   30.4203   42.3450 H   0  0  0  0  0  0  0  0  0  0  0  0
   40.2962   31.0623   43.7286 H   0  0  0  0  0  0  0  0  0  0  0  0
   41.3214   35.0028   42.3169 H   0  0  0  0  0  0  0  0  0  0  0  0
   41.8502   34.8557   39.2948 H   0  0  0  0  0  0  0  0  0  0  0  0
   43.3922   35.9549   43.4048 H   0  0  0  0  0  0  0  0  0  0  0  0
   43.7008   33.7619   39.7007 H   0  0  0  0  0  0  0  0  0  0  0  0
   48.1647   36.6288   41.4525 H   0  0  0  0  0  0  0  0  0  0  0  0
   50.5622   36.1229   41.9613 H   0  0  0  0  0  0  0  0  0  0  0  0
   50.9983   33.6369   42.9344 H   0  0  0  0  0  0  0  0  0  0  0  0
  1 14  1  0
  2  7  1  0
  2  1  1  0
  3  2  2  0
  4  5  2  0
  4  3  1  0
  5  6  1  0
  6  7  2  0
  7  8  1  0
  8  9  2  0
  8 12  1  0
  9 10  1  0
 10 11  1  0
 12 11  2  0
 13 16  1  0
 14 13  2  0
 15 20  2  0
 16 15  1  0
 17 18  1  0
 17 16  2  0
 18 19  2  0
 19 21  1  0
 19 20  1  0
 21 25  1  0
 22 21  2  0
 22 23  1  0
 23 24  2  0
 24 25  1  0
  1 26  1  0
  1 27  1  0
  3 28  1  0
  4 29  1  0
  5 30  1  0
  6 31  1  0
  9 32  1  0
 10 33  1  0
 11 34  1  0
 13 35  1  0
 14 36  1  0
 15 37  1  0
 17 38  1  0
 22 39  1  0
 23 40  1  0
 24 41  1  0
M  ISO  8  26   8  27   8  28  14  29  14  30  14  31  14  32  14  33   9
M  ISO  6  34  14  37  14  38  14  39  14  40  14  41  14
M  END
>  <minimizedAffinity>  (1) 
-6.54906225

>  <minimizedRMSD>  (1) 
4.41553354

$$$$
