
     RDKit          3D

 37 39  0  0  0  0  0  0  0  0999 V2000
   44.3430   35.0720   42.0940 C   0  0  0  0  0  0  0  0  0  0  0  0
   43.3310   34.6600   41.3420 C   0  0  0  0  0  0  0  0  0  0  0  0
   44.7380   35.0970   44.5310 C   0  0  0  0  0  0  0  0  0  0  0  0
   44.7720   34.3980   43.3030 C   0  0  0  0  0  0  0  0  0  0  0  0
   45.2130   33.0930   43.3270 C   0  0  0  0  0  0  0  0  0  0  0  0
   45.5920   32.5390   44.5150 N   0  0  0  0  0  0  0  0  0  0  0  0
   45.5460   33.2370   45.6580 C   0  0  0  0  0  0  0  0  0  0  0  0
   45.1220   34.5130   45.6830 N   0  0  0  0  0  0  0  0  0  0  0  0
   45.9460   32.6430   46.9280 C   0  0  0  0  0  0  0  0  0  0  0  0
   45.3200   32.5820   48.1010 C   0  0  0  0  0  0  0  0  0  0  0  0
   45.8670   31.9770   49.1780 C   0  0  0  0  0  0  0  0  0  0  0  0
   47.1560   31.4150   48.9530 C   0  0  0  0  0  0  0  0  0  0  0  0
   47.4780   31.8160   47.1680 S   0  0  0  0  0  0  0  0  0  0  0  0
   42.9090   35.3740   40.1010 C   0  0  0  0  0  0  0  0  0  0  0  0
   41.6950   34.7680   39.4910 C   0  0  0  0  0  0  0  0  0  0  0  0
   41.8210   33.6830   38.6250 C   0  0  0  0  0  0  0  0  0  0  0  0
   40.6970   33.1110   38.0530 C   0  0  0  0  0  0  0  0  0  0  0  0
   39.4180   33.6120   38.3340 C   0  0  0  0  0  0  0  0  0  0  0  0
   39.3020   34.6970   39.2010 C   0  0  0  0  0  0  0  0  0  0  0  0
   40.4370   35.2690   39.7750 C   0  0  0  0  0  0  0  0  0  0  0  0
   40.2090   36.4100   40.6700 C   0  0  0  0  0  0  0  0  0  0  0  0
   44.8871   35.9759   41.7825 H   0  0  0  0  0  0  0  0  0  0  0  0
   42.7812   33.7567   41.6448 H   0  0  0  0  0  0  0  0  0  0  0  0
   44.3905   36.1405   44.5466 H   0  0  0  0  0  0  0  0  0  0  0  0
   45.2591   32.5043   42.3989 H   0  0  0  0  0  0  0  0  0  0  0  0
   44.3242   33.0394   48.1967 H   0  0  0  0  0  0  0  0  0  0  0  0
   45.3573   31.9228   50.1513 H   0  0  0  0  0  0  0  0  0  0  0  0
   47.8020   30.8761   49.6617 H   0  0  0  0  0  0  0  0  0  0  0  0
   42.6938   36.4233   40.3515 H   0  0  0  0  0  0  0  0  0  0  0  0
   43.7285   35.2973   39.3713 H   0  0  0  0  0  0  0  0  0  0  0  0
   42.8180   33.2792   38.3949 H   0  0  0  0  0  0  0  0  0  0  0  0
   40.8088   32.2550   37.3713 H   0  0  0  0  0  0  0  0  0  0  0  0
   38.5249   33.1582   37.8797 H   0  0  0  0  0  0  0  0  0  0  0  0
   38.3076   35.1053   39.4343 H   0  0  0  0  0  0  0  0  0  0  0  0
   40.2760   36.0749   41.7156 H   0  0  0  0  0  0  0  0  0  0  0  0
   40.9708   37.1810   40.4825 H   0  0  0  0  0  0  0  0  0  0  0  0
   39.2094   36.8290   40.4825 H   0  0  0  0  0  0  0  0  0  0  0  0
  1  4  1  0
  2  1  2  0
  3  8  2  0
  4  5  2  0
  4  3  1  0
  5  6  1  0
  6  7  2  0
  7  8  1  0
  7  9  1  0
  9 13  1  0
  9 10  2  0
 10 11  1  0
 12 11  2  0
 13 12  1  0
 14  2  1  0
 15 20  1  0
 15 14  1  0
 16 15  2  0
 17 18  2  0
 17 16  1  0
 18 19  1  0
 19 20  2  0
 20 21  1  0
  1 22  1  0
  2 23  1  0
  3 24  1  0
  5 25  1  0
 10 26  1  0
 11 27  1  0
 12 28  1  0
 14 29  1  0
 14 30  1  0
 16 31  1  0
 17 32  1  0
 18 33  1  0
 19 34  1  0
 21 35  1  0
 21 36  1  0
 21 37  1  0
M  ISO  8  24  14  25  14  26  14  27  14  28  14  29   8  30   8  31  14
M  ISO  6  32  14  33  14  34  14  35   8  36   8  37   8
M  END
>  <minimizedAffinity>  (1) 
-6.21613884

>  <minimizedRMSD>  (1) 
0.751039624

$$$$
