
     RDKit          3D

 40 42  0  0  0  0  0  0  0  0999 V2000
   44.0420   35.5140   41.9200 C   0  0  0  0  0  0  0  0  0  0  0  0
   43.0070   35.0980   41.1760 C   0  0  0  0  0  0  0  0  0  0  0  0
   44.5570   35.4270   44.3120 C   0  0  0  0  0  0  0  0  0  0  0  0
   44.5350   34.7630   43.0570 C   0  0  0  0  0  0  0  0  0  0  0  0
   44.9630   33.4550   43.0310 C   0  0  0  0  0  0  0  0  0  0  0  0
   45.3790   32.8680   44.1860 N   0  0  0  0  0  0  0  0  0  0  0  0
   45.3890   33.5170   45.3520 C   0  0  0  0  0  0  0  0  0  0  0  0
   44.9800   34.8000   45.4310 N   0  0  0  0  0  0  0  0  0  0  0  0
   45.8270   32.8870   46.5780 C   0  0  0  0  0  0  0  0  0  0  0  0
   45.3070   32.9190   47.8160 C   0  0  0  0  0  0  0  0  0  0  0  0
   45.8710   32.2710   48.8480 C   0  0  0  0  0  0  0  0  0  0  0  0
   47.0810   31.5430   48.5100 C   0  0  0  0  0  0  0  0  0  0  0  0
   47.2740   31.8830   46.6720 S   0  0  0  0  0  0  0  0  0  0  0  0
   42.5220   35.8800   40.0060 C   0  0  0  0  0  0  0  0  0  0  0  0
   41.2840   35.3110   39.4090 C   0  0  0  0  0  0  0  0  0  0  0  0
   41.1040   35.3360   38.0280 C   0  0  0  0  0  0  0  0  0  0  0  0
   39.9590   34.8130   37.4820 C   0  0  0  0  0  0  0  0  0  0  0  0
   38.9620   34.2500   38.2690 C   0  0  0  0  0  0  0  0  0  0  0  0
   39.1460   34.2280   39.6370 C   0  0  0  0  0  0  0  0  0  0  0  0
   40.2990   34.7530   40.2160 C   0  0  0  0  0  0  0  0  0  0  0  0
   40.3840   34.6730   41.6760 C   0  0  0  0  0  0  0  0  0  0  0  0
   39.9200   33.3130   42.2100 C   0  0  0  0  0  0  0  0  0  0  0  0
   44.5356   36.4613   41.6573 H   0  0  0  0  0  0  0  0  0  0  0  0
   42.5037   34.1553   41.4368 H   0  0  0  0  0  0  0  0  0  0  0  0
   44.2228   36.4732   44.3741 H   0  0  0  0  0  0  0  0  0  0  0  0
   44.9687   32.8905   42.0869 H   0  0  0  0  0  0  0  0  0  0  0  0
   44.3870   33.4962   47.9906 H   0  0  0  0  0  0  0  0  0  0  0  0
   45.4514   32.2901   49.8646 H   0  0  0  0  0  0  0  0  0  0  0  0
   47.7255   30.9411   49.1675 H   0  0  0  0  0  0  0  0  0  0  0  0
   42.3142   36.9097   40.3325 H   0  0  0  0  0  0  0  0  0  0  0  0
   43.3072   35.8482   39.2363 H   0  0  0  0  0  0  0  0  0  0  0  0
   41.8763   35.7731   37.3780 H   0  0  0  0  0  0  0  0  0  0  0  0
   39.8267   34.8402   36.3903 H   0  0  0  0  0  0  0  0  0  0  0  0
   38.0511   33.8332   37.8145 H   0  0  0  0  0  0  0  0  0  0  0  0
   38.3694   33.7887   40.2803 H   0  0  0  0  0  0  0  0  0  0  0  0
   41.4289   34.8348   41.9793 H   0  0  0  0  0  0  0  0  0  0  0  0
   39.7211   35.4442   42.0954 H   0  0  0  0  0  0  0  0  0  0  0  0
   39.9257   33.3296   43.3099 H   0  0  0  0  0  0  0  0  0  0  0  0
   38.9007   33.1068   41.8517 H   0  0  0  0  0  0  0  0  0  0  0  0
   40.6007   32.5267   41.8517 H   0  0  0  0  0  0  0  0  0  0  0  0
  1  4  1  0
  2  1  2  0
  3  8  2  0
  4  3  1  0
  5  4  2  0
  5  6  1  0
  6  7  2  0
  7  8  1  0
  7  9  1  0
  9 13  1  0
  9 10  2  0
 10 11  1  0
 12 11  2  0
 13 12  1  0
 14  2  1  0
 15 14  1  0
 15 20  1  0
 16 15  2  0
 17 16  1  0
 17 18  2  0
 18 19  1  0
 19 20  2  0
 20 21  1  0
 21 22  1  0
  1 23  1  0
  2 24  1  0
  3 25  1  0
  5 26  1  0
 10 27  1  0
 11 28  1  0
 12 29  1  0
 14 30  1  0
 14 31  1  0
 16 32  1  0
 17 33  1  0
 18 34  1  0
 19 35  1  0
 21 36  1  0
 21 37  1  0
 22 38  1  0
 22 39  1  0
 22 40  1  0
M  ISO  8  25  14  26  14  27  14  28  14  29  14  30   8  31   8  32  14
M  ISO  8  33  14  34  14  35  14  36   8  37   8  38   8  39   8  40   8
M  END
>  <minimizedAffinity>  (1) 
-6.04678583

>  <minimizedRMSD>  (1) 
0.673921406

$$$$
