
     RDKit          3D

 40 42  0  0  0  0  0  0  0  0999 V2000
   42.1320   35.5760   40.8290 C   0  0  0  0  0  0  0  0  0  0  0  0
   41.3290   35.1620   39.6250 C   0  0  0  0  0  0  0  0  0  0  0  0
   41.1810   36.0660   38.5950 C   0  0  0  0  0  0  0  0  0  0  0  0
   40.4530   35.7240   37.4770 C   0  0  0  0  0  0  0  0  0  0  0  0
   39.8580   34.4720   37.3630 C   0  0  0  0  0  0  0  0  0  0  0  0
   40.0130   33.5690   38.4070 C   0  0  0  0  0  0  0  0  0  0  0  0
   40.7420   33.9230   39.5180 C   0  0  0  0  0  0  0  0  0  0  0  0
   40.9360   33.0690   40.5940 O   0  0  0  0  0  0  0  0  0  0  0  0
   40.0190   31.4650   42.4240 O   0  0  0  0  0  0  0  0  0  0  0  0
   39.7120   32.8100   41.7740 P   0  0  0  0  0  0  0  0  0  0  0  0
   38.1950   32.6600   41.0320 O   0  0  0  0  0  0  0  0  0  0  0  0
   39.7110   33.9820   42.9680 O   0  0  0  0  0  0  0  0  0  0  0  0
   44.3410   35.0300   41.8020 C   0  0  0  0  0  0  0  0  0  0  0  0
   43.3550   34.7390   40.9740 C   0  0  0  0  0  0  0  0  0  0  0  0
   45.7890   33.4730   43.1210 C   0  0  0  0  0  0  0  0  0  0  0  0
   45.5380   34.2480   41.9700 C   0  0  0  0  0  0  0  0  0  0  0  0
   46.5080   34.2340   40.9760 C   0  0  0  0  0  0  0  0  0  0  0  0
   47.6550   33.4880   41.1320 N   0  0  0  0  0  0  0  0  0  0  0  0
   47.8400   32.7700   42.2480 C   0  0  0  0  0  0  0  0  0  0  0  0
   46.9190   32.7550   43.2430 N   0  0  0  0  0  0  0  0  0  0  0  0
   49.0350   31.9680   42.4540 C   0  0  0  0  0  0  0  0  0  0  0  0
   49.2030   30.7740   43.0190 C   0  0  0  0  0  0  0  0  0  0  0  0
   50.4360   30.2040   43.1070 C   0  0  0  0  0  0  0  0  0  0  0  0
   51.5080   30.9670   42.5580 C   0  0  0  0  0  0  0  0  0  0  0  0
   50.6360   32.4990   41.9350 S   0  0  0  0  0  0  0  0  0  0  0  0
   41.5114   35.4637   41.7302 H   0  0  0  0  0  0  0  0  0  0  0  0
   42.4403   36.6238   40.6987 H   0  0  0  0  0  0  0  0  0  0  0  0
   41.6446   37.0610   38.6660 H   0  0  0  0  0  0  0  0  0  0  0  0
   40.3403   36.4529   36.6609 H   0  0  0  0  0  0  0  0  0  0  0  0
   39.2785   34.2034   36.4674 H   0  0  0  0  0  0  0  0  0  0  0  0
   39.5531   32.5717   38.3451 H   0  0  0  0  0  0  0  0  0  0  0  0
   37.4932   32.5906   41.7268 H   0  0  0  0  0  0  0  0  0  0  0  0
   39.7114   33.5471   43.8573 H   0  0  0  0  0  0  0  0  0  0  0  0
   44.2402   35.9406   42.4108 H   0  0  0  0  0  0  0  0  0  0  0  0
   43.4413   33.8310   40.3591 H   0  0  0  0  0  0  0  0  0  0  0  0
   45.0473   33.4556   43.9332 H   0  0  0  0  0  0  0  0  0  0  0  0
   46.3591   34.8224   40.0586 H   0  0  0  0  0  0  0  0  0  0  0  0
   48.3303   30.2390   43.4216 H   0  0  0  0  0  0  0  0  0  0  0  0
   50.5949   29.2195   43.5712 H   0  0  0  0  0  0  0  0  0  0  0  0
   52.5783   30.7173   42.5125 H   0  0  0  0  0  0  0  0  0  0  0  0
  1 14  1  0
  2  1  1  0
  3  2  2  0
  4  3  1  0
  5  4  2  0
  5  6  1  0
  6  7  2  0
  7  2  1  0
  7  8  1  0
  8 10  1  0
 10  9  2  0
 10 12  1  0
 11 10  1  0
 13 16  1  0
 14 13  2  0
 15 20  2  0
 16 15  1  0
 17 18  1  0
 17 16  2  0
 18 19  2  0
 19 21  1  0
 19 20  1  0
 21 22  2  0
 22 23  1  0
 24 23  2  0
 25 21  1  0
 25 24  1  0
  1 26  1  0
  1 27  1  0
  3 28  1  0
  4 29  1  0
  5 30  1  0
  6 31  1  0
 11 32  1  0
 12 33  1  0
 13 34  1  0
 14 35  1  0
 15 36  1  0
 17 37  1  0
 22 38  1  0
 23 39  1  0
 24 40  1  0
M  ISO  8  26   8  27   8  28  14  29  14  30  14  31  14  32   3  33   3
M  ISO  5  36  14  37  14  38  14  39  14  40  14
M  END
>  <minimizedAffinity>  (1) 
-5.66133547

>  <minimizedRMSD>  (1) 
4.12736797

$$$$
