
     RDKit          3D

 19 20  0  0  0  0  0  0  0  0999 V2000
   48.9830   34.0420   41.9130 C   0  0  0  0  0  0  0  0  0  0  0  0
   48.0990   33.3810   42.7730 C   0  0  0  0  0  0  0  0  0  0  0  0
   48.3870   32.0600   43.1410 C   0  0  0  0  0  0  0  0  0  0  0  0
   49.5210   31.4930   42.6340 N   0  0  0  0  0  0  0  0  0  0  0  0
   50.3550   32.1450   41.8120 C   0  0  0  0  0  0  0  0  0  0  0  0
   50.0860   33.4050   41.4580 N   0  0  0  0  0  0  0  0  0  0  0  0
   51.5410   31.4460   41.3270 C   0  0  0  0  0  0  0  0  0  0  0  0
   51.7570   30.3550   42.1780 C   0  0  0  0  0  0  0  0  0  0  0  0
   53.3140   29.5410   41.4420 S   0  0  0  0  0  0  0  0  0  0  0  0
   53.3350   30.9000   40.1000 C   0  0  0  0  0  0  0  0  0  0  0  0
   52.4490   31.5240   40.3620 N   0  0  0  0  0  0  0  0  0  0  0  0
   48.6400   35.4530   41.5440 C   0  0  0  0  0  0  0  0  0  0  0  0
   49.5870   36.3360   42.0340 F   0  0  0  0  0  0  0  0  0  0  0  0
   48.5600   35.5250   40.1710 F   0  0  0  0  0  0  0  0  0  0  0  0
   47.3790   35.7580   42.0470 F   0  0  0  0  0  0  0  0  0  0  0  0
   47.1985   33.8869   43.1515 H   0  0  0  0  0  0  0  0  0  0  0  0
   47.7226   31.4992   43.8149 H   0  0  0  0  0  0  0  0  0  0  0  0
   51.1714   30.0444   43.0558 H   0  0  0  0  0  0  0  0  0  0  0  0
   54.0466   31.0341   39.2719 H   0  0  0  0  0  0  0  0  0  0  0  0
  1  2  2  0
  2  3  1  0
  4  3  2  0
  5  4  1  0
  6  5  2  0
  6  1  1  0
  7  5  1  0
  7  8  2  0
  9  8  1  0
 10 11  2  0
 10  9  1  0
 11  7  1  0
 12  1  1  0
 12 13  1  0
 12 15  1  0
 14 12  1  0
  2 16  1  0
  3 17  1  0
  8 18  1  0
 10 19  1  0
M  ISO  4  16  14  17  14  18  14  19  14
M  END
>  <minimizedAffinity>  (1) 
-3.98794246

>  <minimizedRMSD>  (1) 
7.0225935

$$$$
