
     RDKit          3D

 11 11  0  0  0  0  0  0  0  0999 V2000
   44.2670   35.7340   44.2640 C   0  0  0  0  0  0  0  0  0  0  0  0
   44.4230   34.9150   43.1300 C   0  0  0  0  0  0  0  0  0  0  0  0
   45.0630   33.6820   43.2730 C   0  0  0  0  0  0  0  0  0  0  0  0
   45.5080   33.3370   44.5200 N   0  0  0  0  0  0  0  0  0  0  0  0
   45.3410   34.1480   45.5810 C   0  0  0  0  0  0  0  0  0  0  0  0
   44.7300   35.3360   45.4750 N   0  0  0  0  0  0  0  0  0  0  0  0
   43.8060   35.4470   41.5280 S   0  0  0  0  0  0  0  0  0  0  0  0
   43.7641   36.7075   44.1670 H   0  0  0  0  0  0  0  0  0  0  0  0
   45.2045   33.0113   42.4127 H   0  0  0  0  0  0  0  0  0  0  0  0
   45.7169   33.8264   46.5635 H   0  0  0  0  0  0  0  0  0  0  0  0
   42.7773   36.3340   41.7064 H   0  0  0  0  0  0  0  0  0  0  0  0
  1  6  2  0
  2  3  2  0
  2  1  1  0
  3  4  1  0
  4  5  2  0
  6  5  1  0
  7  2  1  0
  1  8  1  0
  3  9  1  0
  5 10  1  0
  7 11  1  0
M  ISO  4   8  14   9  14  10  14  11  11
M  END
>  <minimizedAffinity>  (1) 
-2.52142763

>  <minimizedRMSD>  (1) 
1.10640144

$$$$
