
     RDKit          3D

 20 21  0  0  0  0  0  0  0  0999 V2000
   44.2990   35.7470   43.9610 C   0  0  0  0  0  0  0  0  0  0  0  0
   44.5400   34.7620   42.9970 C   0  0  0  0  0  0  0  0  0  0  0  0
   45.1390   33.5570   43.4100 C   0  0  0  0  0  0  0  0  0  0  0  0
   45.4480   33.4210   44.7270 N   0  0  0  0  0  0  0  0  0  0  0  0
   45.1920   34.4050   45.6180 C   0  0  0  0  0  0  0  0  0  0  0  0
   44.6220   35.5690   45.2580 N   0  0  0  0  0  0  0  0  0  0  0  0
   44.0990   35.0290   41.2810 S   0  0  0  0  0  0  0  0  0  0  0  0
   42.3190   34.7750   41.1170 C   0  0  0  0  0  0  0  0  0  0  0  0
   41.3860   35.7250   40.8150 C   0  0  0  0  0  0  0  0  0  0  0  0
   40.0590   35.3640   40.7260 C   0  0  0  0  0  0  0  0  0  0  0  0
   39.6980   34.0440   40.9470 C   0  0  0  0  0  0  0  0  0  0  0  0
   40.6820   33.1120   41.2520 C   0  0  0  0  0  0  0  0  0  0  0  0
   41.9890   33.4860   41.3350 N   0  0  0  0  0  0  0  0  0  0  0  0
   43.8325   36.6940   43.6519 H   0  0  0  0  0  0  0  0  0  0  0  0
   45.3501   32.7519   42.6909 H   0  0  0  0  0  0  0  0  0  0  0  0
   45.4590   34.2484   46.6736 H   0  0  0  0  0  0  0  0  0  0  0  0
   41.6905   36.7682   40.6444 H   0  0  0  0  0  0  0  0  0  0  0  0
   39.2939   36.1158   40.4820 H   0  0  0  0  0  0  0  0  0  0  0  0
   38.6435   33.7377   40.8816 H   0  0  0  0  0  0  0  0  0  0  0  0
   40.4031   32.0626   41.4280 H   0  0  0  0  0  0  0  0  0  0  0  0
  1  6  2  0
  2  3  2  0
  2  1  1  0
  3  4  1  0
  4  5  2  0
  6  5  1  0
  7  2  1  0
  8  7  1  0
  8 13  1  0
  9  8  2  0
 10  9  1  0
 10 11  2  0
 11 12  1  0
 12 13  2  0
  1 14  1  0
  3 15  1  0
  5 16  1  0
  9 17  1  0
 10 18  1  0
 11 19  1  0
 12 20  1  0
M  ISO  7  14  14  15  14  16  14  17  14  18  14  19  14  20  14
M  END
>  <minimizedAffinity>  (1) 
-4.11318302

>  <minimizedRMSD>  (1) 
3.16250706

$$$$
