
     RDKit          3D

 17 17  0  0  0  0  0  0  0  0999 V2000
   44.2790   35.7520   44.1460 C   0  0  0  0  0  0  0  0  0  0  0  0
   44.3340   34.9310   42.9970 C   0  0  0  0  0  0  0  0  0  0  0  0
   44.9330   33.6780   43.1090 C   0  0  0  0  0  0  0  0  0  0  0  0
   45.4420   33.2950   44.3180 N   0  0  0  0  0  0  0  0  0  0  0  0
   45.3630   34.1240   45.3910 C   0  0  0  0  0  0  0  0  0  0  0  0
   44.8000   35.3320   45.3400 N   0  0  0  0  0  0  0  0  0  0  0  0
   43.6470   35.5000   41.4500 S   0  0  0  0  0  0  0  0  0  0  0  0
   42.0160   34.7180   41.2560 C   0  0  0  0  0  0  0  0  0  0  0  0
   41.0060   35.8690   41.1570 C   0  0  0  0  0  0  0  0  0  0  0  0
   43.8098   36.7447   44.0797 H   0  0  0  0  0  0  0  0  0  0  0  0
   44.9951   33.0082   42.2387 H   0  0  0  0  0  0  0  0  0  0  0  0
   45.7837   33.7826   46.3483 H   0  0  0  0  0  0  0  0  0  0  0  0
   41.9909   34.1074   40.3414 H   0  0  0  0  0  0  0  0  0  0  0  0
   41.7857   34.0504   42.0994 H   0  0  0  0  0  0  0  0  0  0  0  0
   40.7205   36.1943   42.1683 H   0  0  0  0  0  0  0  0  0  0  0  0
   41.4618   36.7113   40.6159 H   0  0  0  0  0  0  0  0  0  0  0  0
   40.1116   35.5265   40.6159 H   0  0  0  0  0  0  0  0  0  0  0  0
  1  6  2  0
  2  3  2  0
  2  1  1  0
  3  4  1  0
  4  5  2  0
  6  5  1  0
  7  2  1  0
  8  7  1  0
  9  8  1  0
  1 10  1  0
  3 11  1  0
  5 12  1  0
  8 13  1  0
  8 14  1  0
  9 15  1  0
  9 16  1  0
  9 17  1  0
M  ISO  8  10  14  11  14  12  14  13   8  14   8  15   8  16   8  17   8
M  END
>  <minimizedAffinity>  (1) 
-2.93666077

>  <minimizedRMSD>  (1) 
0.230838612

$$$$
