
     RDKit          3D

 21 22  0  0  0  0  0  0  0  0999 V2000
   43.8090   35.5180   41.4910 S   0  0  0  0  0  0  0  0  0  0  0  0
   44.2550   35.7670   44.2150 C   0  0  0  0  0  0  0  0  0  0  0  0
   44.4140   34.9450   43.0720 C   0  0  0  0  0  0  0  0  0  0  0  0
   45.0400   33.7140   43.2290 C   0  0  0  0  0  0  0  0  0  0  0  0
   45.4660   33.3650   44.4730 N   0  0  0  0  0  0  0  0  0  0  0  0
   45.2990   34.1690   45.5330 C   0  0  0  0  0  0  0  0  0  0  0  0
   44.7050   35.3580   45.4340 N   0  0  0  0  0  0  0  0  0  0  0  0
   42.1860   34.8270   41.2060 C   0  0  0  0  0  0  0  0  0  0  0  0
   41.8420   33.4930   41.2720 C   0  0  0  0  0  0  0  0  0  0  0  0
   40.5360   33.1220   41.0220 C   0  0  0  0  0  0  0  0  0  0  0  0
   39.5660   34.0470   40.7090 C   0  0  0  0  0  0  0  0  0  0  0  0
   39.9130   35.3810   40.6430 C   0  0  0  0  0  0  0  0  0  0  0  0
   41.2160   35.7810   40.8900 C   0  0  0  0  0  0  0  0  0  0  0  0
   43.7629   36.7459   44.1170 H   0  0  0  0  0  0  0  0  0  0  0  0
   45.1869   33.0409   42.3715 H   0  0  0  0  0  0  0  0  0  0  0  0
   45.6640   33.8365   46.5160 H   0  0  0  0  0  0  0  0  0  0  0  0
   42.5987   32.7343   41.5207 H   0  0  0  0  0  0  0  0  0  0  0  0
   40.2630   32.0577   41.0744 H   0  0  0  0  0  0  0  0  0  0  0  0
   38.5313   33.7282   40.5147 H   0  0  0  0  0  0  0  0  0  0  0  0
   39.1494   36.1321   40.3925 H   0  0  0  0  0  0  0  0  0  0  0  0
   41.4858   36.8461   40.8375 H   0  0  0  0  0  0  0  0  0  0  0  0
  1  3  1  0
  2  7  2  0
  3  4  2  0
  3  2  1  0
  4  5  1  0
  5  6  2  0
  7  6  1  0
  8  9  2  0
  8  1  1  0
 10  9  1  0
 11 10  2  0
 12 11  1  0
 12 13  2  0
 13  8  1  0
  2 14  1  0
  4 15  1  0
  6 16  1  0
  9 17  1  0
 10 18  1  0
 11 19  1  0
 12 20  1  0
 13 21  1  0
M  ISO  8  14  14  15  14  16  14  17  14  18  14  19  14  20  14  21  14
M  END
>  <minimizedAffinity>  (1) 
-4.20273542

>  <minimizedRMSD>  (1) 
3.02054262

$$$$
