
     RDKit          3D

 24 25  0  0  0  0  0  0  0  0999 V2000
   41.6940   33.7330   40.8700 C   0  0  0  0  0  0  0  0  0  0  0  0
   42.0520   32.5340   41.4680 C   0  0  0  0  0  0  0  0  0  0  0  0
   41.0690   31.6700   41.8830 C   0  0  0  0  0  0  0  0  0  0  0  0
   39.7250   31.9640   41.7210 C   0  0  0  0  0  0  0  0  0  0  0  0
   39.3750   33.1500   41.1290 C   0  0  0  0  0  0  0  0  0  0  0  0
   40.3450   34.0390   40.7020 C   0  0  0  0  0  0  0  0  0  0  0  0
   39.8630   35.3100   40.0670 C   0  0  0  0  0  0  0  0  0  0  0  0
   40.0800   36.4070   40.8720 F   0  0  0  0  0  0  0  0  0  0  0  0
   40.5130   35.4410   38.8430 F   0  0  0  0  0  0  0  0  0  0  0  0
   38.5130   35.1240   39.8310 F   0  0  0  0  0  0  0  0  0  0  0  0
   42.8070   34.9920   40.2620 S   0  0  0  0  0  0  0  0  0  0  0  0
   44.3940   35.6770   42.4250 C   0  0  0  0  0  0  0  0  0  0  0  0
   44.3020   34.9520   41.2190 C   0  0  0  0  0  0  0  0  0  0  0  0
   45.4150   34.2290   40.8370 C   0  0  0  0  0  0  0  0  0  0  0  0
   46.5280   34.2450   41.6210 N   0  0  0  0  0  0  0  0  0  0  0  0
   46.5630   34.9520   42.7600 C   0  0  0  0  0  0  0  0  0  0  0  0
   45.5190   35.6700   43.1810 N   0  0  0  0  0  0  0  0  0  0  0  0
   43.1125   32.2779   41.6084 H   0  0  0  0  0  0  0  0  0  0  0  0
   41.3561   30.7195   42.3565 H   0  0  0  0  0  0  0  0  0  0  0  0
   38.9526   31.2586   42.0612 H   0  0  0  0  0  0  0  0  0  0  0  0
   38.3119   33.3972   40.9921 H   0  0  0  0  0  0  0  0  0  0  0  0
   43.5277   36.2652   42.7620 H   0  0  0  0  0  0  0  0  0  0  0  0
   45.4023   33.6441   39.9055 H   0  0  0  0  0  0  0  0  0  0  0  0
   47.4806   34.9400   43.3665 H   0  0  0  0  0  0  0  0  0  0  0  0
  1  2  2  0
  2  3  1  0
  4  3  2  0
  5  4  1  0
  6  1  1  0
  6  5  2  0
  7  6  1  0
  7  8  1  0
  9  7  1  0
 10  7  1  0
 11  1  1  0
 11 13  1  0
 12 17  2  0
 13 12  1  0
 14 13  2  0
 14 15  1  0
 15 16  2  0
 16 17  1  0
  2 18  1  0
  3 19  1  0
  4 20  1  0
  5 21  1  0
 12 22  1  0
 14 23  1  0
 16 24  1  0
M  ISO  7  18  14  19  14  20  14  21  14  22  14  23  14  24  14
M  END
>  <minimizedAffinity>  (1) 
-5.09679079

>  <minimizedRMSD>  (1) 
2.36545801

$$$$
