
     RDKit          3D

 27 28  0  0  0  0  0  0  0  0999 V2000
   41.5010   33.8640   40.5310 C   0  0  0  0  0  0  0  0  0  0  0  0
   40.9760   32.8170   41.2740 C   0  0  0  0  0  0  0  0  0  0  0  0
   39.6090   32.6340   41.3340 C   0  0  0  0  0  0  0  0  0  0  0  0
   38.7310   33.4700   40.6690 C   0  0  0  0  0  0  0  0  0  0  0  0
   39.2490   34.5200   39.9240 C   0  0  0  0  0  0  0  0  0  0  0  0
   40.6280   34.7020   39.8650 C   0  0  0  0  0  0  0  0  0  0  0  0
   43.2160   34.2680   40.3310 S   0  0  0  0  0  0  0  0  0  0  0  0
   44.0610   35.6400   42.6020 C   0  0  0  0  0  0  0  0  0  0  0  0
   43.9770   34.3790   41.9470 C   0  0  0  0  0  0  0  0  0  0  0  0
   44.5010   33.2600   42.6070 C   0  0  0  0  0  0  0  0  0  0  0  0
   45.0550   33.4730   43.8400 N   0  0  0  0  0  0  0  0  0  0  0  0
   45.1120   34.6710   44.4160 C   0  0  0  0  0  0  0  0  0  0  0  0
   44.6260   35.7700   43.8260 N   0  0  0  0  0  0  0  0  0  0  0  0
   41.0170   35.8510   39.0120 C   0  0  0  0  0  0  0  0  0  0  0  0
   40.7880   35.5960   37.5350 C   0  0  0  0  0  0  0  0  0  0  0  0
   41.6476   32.1338   41.8144 H   0  0  0  0  0  0  0  0  0  0  0  0
   39.2069   31.7997   41.9275 H   0  0  0  0  0  0  0  0  0  0  0  0
   37.6449   33.3062   40.7292 H   0  0  0  0  0  0  0  0  0  0  0  0
   38.5758   35.2026   39.3847 H   0  0  0  0  0  0  0  0  0  0  0  0
   43.6566   36.5319   42.1011 H   0  0  0  0  0  0  0  0  0  0  0  0
   44.4687   32.2575   42.1555 H   0  0  0  0  0  0  0  0  0  0  0  0
   45.5739   34.7614   45.4102 H   0  0  0  0  0  0  0  0  0  0  0  0
   40.4241   36.7274   39.3126 H   0  0  0  0  0  0  0  0  0  0  0  0
   42.0951   36.0166   39.1543 H   0  0  0  0  0  0  0  0  0  0  0  0
   40.0576   34.7827   37.4123 H   0  0  0  0  0  0  0  0  0  0  0  0
   40.4019   36.5103   37.0606 H   0  0  0  0  0  0  0  0  0  0  0  0
   41.7384   35.3101   37.0606 H   0  0  0  0  0  0  0  0  0  0  0  0
  1  2  2  0
  2  3  1  0
  4  3  2  0
  5  4  1  0
  6  5  2  0
  6  1  1  0
  7  1  1  0
  7  9  1  0
  8 13  2  0
  9  8  1  0
  9 10  2  0
 10 11  1  0
 11 12  2  0
 13 12  1  0
 14  6  1  0
 15 14  1  0
  2 16  1  0
  3 17  1  0
  4 18  1  0
  5 19  1  0
  8 20  1  0
 10 21  1  0
 12 22  1  0
 14 23  1  0
 14 24  1  0
 15 25  1  0
 15 26  1  0
 15 27  1  0
M  ISO  8  16  14  17  14  18  14  19  14  20  14  21  14  22  14  23   8
M  ISO  4  24   8  25   8  26   8  27   8
M  END
>  <minimizedAffinity>  (1) 
-4.511693

>  <minimizedRMSD>  (1) 
1.55998886

$$$$
