
     RDKit          3D

 23 24  0  0  0  0  0  0  0  0999 V2000
   42.2700   34.2430   41.2260 C   0  0  0  0  0  0  0  0  0  0  0  0
   42.1350   32.8910   40.9890 C   0  0  0  0  0  0  0  0  0  0  0  0
   40.8810   32.3670   40.8070 C   0  0  0  0  0  0  0  0  0  0  0  0
   39.7530   33.1470   40.8540 C   0  0  0  0  0  0  0  0  0  0  0  0
   39.8950   34.4910   41.0910 C   0  0  0  0  0  0  0  0  0  0  0  0
   41.1470   35.0620   41.2800 C   0  0  0  0  0  0  0  0  0  0  0  0
   41.1170   36.4530   41.5130 N   0  0  0  0  0  0  0  0  0  0  0  0
   43.8080   35.1120   41.4870 S   0  0  0  0  0  0  0  0  0  0  0  0
   44.2280   35.6690   44.1690 C   0  0  0  0  0  0  0  0  0  0  0  0
   44.4280   34.7380   43.1110 C   0  0  0  0  0  0  0  0  0  0  0  0
   45.1070   33.5560   43.3870 C   0  0  0  0  0  0  0  0  0  0  0  0
   45.5430   33.3660   44.6690 N   0  0  0  0  0  0  0  0  0  0  0  0
   45.3390   34.2610   45.6380 C   0  0  0  0  0  0  0  0  0  0  0  0
   44.6970   35.3970   45.4180 N   0  0  0  0  0  0  0  0  0  0  0  0
   43.0218   32.2415   40.9465 H   0  0  0  0  0  0  0  0  0  0  0  0
   40.7761   31.2885   40.6176 H   0  0  0  0  0  0  0  0  0  0  0  0
   38.7570   32.7046   40.7050 H   0  0  0  0  0  0  0  0  0  0  0  0
   38.9997   35.1288   41.1321 H   0  0  0  0  0  0  0  0  0  0  0  0
   40.2167   36.9531   41.5298 H   0  0  0  0  0  0  0  0  0  0  0  0
   41.9954   36.9686   41.6663 H   0  0  0  0  0  0  0  0  0  0  0  0
   43.6931   36.6108   43.9770 H   0  0  0  0  0  0  0  0  0  0  0  0
   45.2862   32.8036   42.6048 H   0  0  0  0  0  0  0  0  0  0  0  0
   45.7157   34.0480   46.6493 H   0  0  0  0  0  0  0  0  0  0  0  0
  1  6  1  0
  1  8  1  0
  2  1  2  0
  3  4  2  0
  3  2  1  0
  4  5  1  0
  5  6  2  0
  6  7  1  0
  8 10  1  0
  9 14  2  0
 10 11  2  0
 10  9  1  0
 11 12  1  0
 12 13  2  0
 14 13  1  0
  2 15  1  0
  3 16  1  0
  4 17  1  0
  5 18  1  0
  7 19  1  0
  7 20  1  0
  9 21  1  0
 11 22  1  0
 13 23  1  0
M  ISO  7  15  14  16  14  17  14  18  14  21  14  22  14  23  14
M  END
>  <minimizedAffinity>  (1) 
-4.23494959

>  <minimizedRMSD>  (1) 
0.637587547

$$$$
