
     RDKit          3D

 24 25  0  0  0  0  0  0  0  0999 V2000
   41.8950   34.1210   41.1660 C   0  0  0  0  0  0  0  0  0  0  0  0
   41.8570   32.7420   41.2280 C   0  0  0  0  0  0  0  0  0  0  0  0
   40.6470   32.1110   41.1040 C   0  0  0  0  0  0  0  0  0  0  0  0
   39.4650   32.8000   40.9210 C   0  0  0  0  0  0  0  0  0  0  0  0
   39.5120   34.1730   40.8600 C   0  0  0  0  0  0  0  0  0  0  0  0
   40.7220   34.8490   40.9810 C   0  0  0  0  0  0  0  0  0  0  0  0
   40.6470   36.3140   40.9020 C   0  0  0  0  0  0  0  0  0  0  0  0
   43.3630   35.1430   41.3040 S   0  0  0  0  0  0  0  0  0  0  0  0
   44.1320   35.7240   43.9000 C   0  0  0  0  0  0  0  0  0  0  0  0
   44.1750   34.7770   42.8540 C   0  0  0  0  0  0  0  0  0  0  0  0
   44.8520   33.5930   43.0730 C   0  0  0  0  0  0  0  0  0  0  0  0
   45.4430   33.4000   44.2910 N   0  0  0  0  0  0  0  0  0  0  0  0
   45.3770   34.3210   45.2500 C   0  0  0  0  0  0  0  0  0  0  0  0
   44.7420   35.4780   45.0970 N   0  0  0  0  0  0  0  0  0  0  0  0
   42.7799   32.1615   41.3741 H   0  0  0  0  0  0  0  0  0  0  0  0
   40.6164   31.0125   41.1522 H   0  0  0  0  0  0  0  0  0  0  0  0
   38.5091   32.2640   40.8263 H   0  0  0  0  0  0  0  0  0  0  0  0
   38.5827   34.7431   40.7139 H   0  0  0  0  0  0  0  0  0  0  0  0
   40.6254   36.7354   41.9179 H   0  0  0  0  0  0  0  0  0  0  0  0
   41.5267   36.6977   40.3645 H   0  0  0  0  0  0  0  0  0  0  0  0
   39.7327   36.6059   40.3645 H   0  0  0  0  0  0  0  0  0  0  0  0
   43.5992   36.6744   43.7487 H   0  0  0  0  0  0  0  0  0  0  0  0
   44.9141   32.8251   42.2878 H   0  0  0  0  0  0  0  0  0  0  0  0
   45.8700   34.1150   46.2115 H   0  0  0  0  0  0  0  0  0  0  0  0
  1  2  2  0
  1  8  1  0
  3  2  1  0
  4  3  2  0
  5  4  1  0
  5  6  2  0
  6  1  1  0
  7  6  1  0
  8 10  1  0
  9 14  2  0
 10 11  2  0
 10  9  1  0
 11 12  1  0
 12 13  2  0
 14 13  1  0
  2 15  1  0
  3 16  1  0
  4 17  1  0
  5 18  1  0
  7 19  1  0
  7 20  1  0
  7 21  1  0
  9 22  1  0
 11 23  1  0
 13 24  1  0
M  ISO  8  15  14  16  14  17  14  18  14  19   8  20   8  21   8  22  14
M  ISO  2  23  14  24  14
M  END
>  <minimizedAffinity>  (1) 
-4.22458267

>  <minimizedRMSD>  (1) 
0.80472064

$$$$
