
     RDKit          3D

 29 31  0  0  0  0  0  0  0  0999 V2000
   41.6710   33.0660   39.2940 C   0  0  0  0  0  0  0  0  0  0  0  0
   40.6230   32.9030   38.4030 C   0  0  0  0  0  0  0  0  0  0  0  0
   40.0480   34.0130   37.8000 C   0  0  0  0  0  0  0  0  0  0  0  0
   40.4940   35.2760   38.0670 C   0  0  0  0  0  0  0  0  0  0  0  0
   41.5320   35.4290   38.9500 C   0  0  0  0  0  0  0  0  0  0  0  0
   42.1360   34.3370   39.5770 C   0  0  0  0  0  0  0  0  0  0  0  0
   43.2380   34.5280   40.5120 C   0  0  0  0  0  0  0  0  0  0  0  0
   44.5240   34.1830   40.2670 C   0  0  0  0  0  0  0  0  0  0  0  0
   45.5650   34.3740   41.1780 C   0  0  0  0  0  0  0  0  0  0  0  0
   45.2760   34.9320   42.3670 N   0  0  0  0  0  0  0  0  0  0  0  0
   43.9890   35.2780   42.6150 C   0  0  0  0  0  0  0  0  0  0  0  0
   43.0020   35.0850   41.7230 N   0  0  0  0  0  0  0  0  0  0  0  0
   42.4770   31.7190   40.1120 S   0  0  0  0  0  0  0  0  0  0  0  0
   41.3380   30.9530   42.5150 C   0  0  0  0  0  0  0  0  0  0  0  0
   41.3190   30.8190   41.1140 C   0  0  0  0  0  0  0  0  0  0  0  0
   40.3770   29.9720   40.5480 C   0  0  0  0  0  0  0  0  0  0  0  0
   39.5210   29.3160   41.3780 N   0  0  0  0  0  0  0  0  0  0  0  0
   39.5760   29.4750   42.7190 C   0  0  0  0  0  0  0  0  0  0  0  0
   40.4580   30.2730   43.3110 N   0  0  0  0  0  0  0  0  0  0  0  0
   40.2469   31.8950   38.1736 H   0  0  0  0  0  0  0  0  0  0  0  0
   39.2168   33.8728   37.0932 H   0  0  0  0  0  0  0  0  0  0  0  0
   40.0315   36.1500   37.5851 H   0  0  0  0  0  0  0  0  0  0  0  0
   41.8998   36.4419   39.1710 H   0  0  0  0  0  0  0  0  0  0  0  0
   44.7624   33.7263   39.2951 H   0  0  0  0  0  0  0  0  0  0  0  0
   46.5943   34.0759   40.9296 H   0  0  0  0  0  0  0  0  0  0  0  0
   43.7425   35.7349   43.5848 H   0  0  0  0  0  0  0  0  0  0  0  0
   42.0781   31.6204   42.9807 H   0  0  0  0  0  0  0  0  0  0  0  0
   40.3235   29.8345   39.4579 H   0  0  0  0  0  0  0  0  0  0  0  0
   38.8615   28.9212   43.3458 H   0  0  0  0  0  0  0  0  0  0  0  0
  1  6  1  0
  1 13  1  0
  2  1  2  0
  3  4  2  0
  3  2  1  0
  4  5  1  0
  5  6  2  0
  6  7  1  0
  7 12  1  0
  8  7  2  0
  8  9  1  0
  9 10  2  0
 10 11  1  0
 12 11  2  0
 13 15  1  0
 14 19  2  0
 15 14  1  0
 16 15  2  0
 16 17  1  0
 17 18  2  0
 18 19  1  0
  2 20  1  0
  3 21  1  0
  4 22  1  0
  5 23  1  0
  8 24  1  0
  9 25  1  0
 11 26  1  0
 14 27  1  0
 16 28  1  0
 18 29  1  0
M  ISO  8  20  14  21  14  22  14  23  14  24  14  25  14  26  14  27  14
M  ISO  2  28  14  29  14
M  END
>  <minimizedAffinity>  (1) 
-4.41115904

>  <minimizedRMSD>  (1) 
5.09219027

$$$$
