
     RDKit          3D

 32 34  0  0  0  0  0  0  0  0999 V2000
   41.9230   33.2190   39.0380 C   0  0  0  0  0  0  0  0  0  0  0  0
   40.8470   33.2250   38.1600 C   0  0  0  0  0  0  0  0  0  0  0  0
   40.2450   34.4260   37.8120 C   0  0  0  0  0  0  0  0  0  0  0  0
   40.6880   35.6190   38.3150 C   0  0  0  0  0  0  0  0  0  0  0  0
   41.7500   35.6040   39.1790 C   0  0  0  0  0  0  0  0  0  0  0  0
   42.3810   34.4210   39.5540 C   0  0  0  0  0  0  0  0  0  0  0  0
   43.5130   34.4370   40.4790 C   0  0  0  0  0  0  0  0  0  0  0  0
   44.7990   34.2140   40.1290 C   0  0  0  0  0  0  0  0  0  0  0  0
   45.8700   34.2310   41.0170 C   0  0  0  0  0  0  0  0  0  0  0  0
   45.6100   34.4840   42.3030 N   0  0  0  0  0  0  0  0  0  0  0  0
   44.3200   34.7100   42.6670 C   0  0  0  0  0  0  0  0  0  0  0  0
   43.3120   34.6870   41.7870 N   0  0  0  0  0  0  0  0  0  0  0  0
   42.7640   31.7460   39.5500 S   0  0  0  0  0  0  0  0  0  0  0  0
   41.5590   31.4870   42.0410 C   0  0  0  0  0  0  0  0  0  0  0  0
   41.8110   30.8930   40.7870 C   0  0  0  0  0  0  0  0  0  0  0  0
   41.2910   29.6230   40.5540 C   0  0  0  0  0  0  0  0  0  0  0  0
   40.5700   29.0230   41.5420 N   0  0  0  0  0  0  0  0  0  0  0  0
   40.3610   29.6470   42.7290 C   0  0  0  0  0  0  0  0  0  0  0  0
   40.8330   30.8540   43.0040 N   0  0  0  0  0  0  0  0  0  0  0  0
   39.5670   28.9590   43.7860 C   0  0  0  0  0  0  0  0  0  0  0  0
   40.4725   32.2793   37.7411 H   0  0  0  0  0  0  0  0  0  0  0  0
   39.3929   34.4188   37.1164 H   0  0  0  0  0  0  0  0  0  0  0  0
   40.2035   36.5653   38.0326 H   0  0  0  0  0  0  0  0  0  0  0  0
   42.1161   36.5565   39.5897 H   0  0  0  0  0  0  0  0  0  0  0  0
   45.0136   34.0049   39.0706 H   0  0  0  0  0  0  0  0  0  0  0  0
   46.8972   34.0423   40.6717 H   0  0  0  0  0  0  0  0  0  0  0  0
   44.0964   34.9194   43.7235 H   0  0  0  0  0  0  0  0  0  0  0  0
   41.9602   32.4902   42.2473 H   0  0  0  0  0  0  0  0  0  0  0  0
   41.4586   29.1148   39.5929 H   0  0  0  0  0  0  0  0  0  0  0  0
   39.9275   29.2714   44.7772 H   0  0  0  0  0  0  0  0  0  0  0  0
   38.5055   29.2277   43.6805 H   0  0  0  0  0  0  0  0  0  0  0  0
   39.6819   27.8701   43.6805 H   0  0  0  0  0  0  0  0  0  0  0  0
  1 13  1  0
  1  6  1  0
  2  1  2  0
  3  2  1  0
  3  4  2  0
  4  5  1  0
  5  6  2  0
  6  7  1  0
  7 12  1  0
  8  7  2  0
  8  9  1  0
  9 10  2  0
 10 11  1  0
 12 11  2  0
 13 15  1  0
 14 19  2  0
 15 14  1  0
 16 15  2  0
 16 17  1  0
 17 18  2  0
 18 19  1  0
 18 20  1  0
  2 21  1  0
  3 22  1  0
  4 23  1  0
  5 24  1  0
  8 25  1  0
  9 26  1  0
 11 27  1  0
 14 28  1  0
 16 29  1  0
 20 30  1  0
 20 31  1  0
 20 32  1  0
M  ISO  8  21  14  22  14  23  14  24  14  25  14  26  14  27  14  28  14
M  ISO  4  29  14  30   8  31   8  32   8
M  END
>  <minimizedAffinity>  (1) 
-4.04368591

>  <minimizedRMSD>  (1) 
0.631763995

$$$$
