
     RDKit          3D

 20 20  0  0  0  0  0  0  0  0999 V2000
   47.6890   34.9610   42.2940 C   0  0  0  0  0  0  0  0  0  0  0  0
   47.9730   34.0000   43.2750 C   0  0  0  0  0  0  0  0  0  0  0  0
   46.9170   33.5710   44.0910 C   0  0  0  0  0  0  0  0  0  0  0  0
   45.6810   34.1190   43.8760 N   0  0  0  0  0  0  0  0  0  0  0  0
   45.4440   35.0310   42.9340 C   0  0  0  0  0  0  0  0  0  0  0  0
   46.4510   35.4480   42.1470 N   0  0  0  0  0  0  0  0  0  0  0  0
   48.8560   35.3950   41.4370 C   0  0  0  0  0  0  0  0  0  0  0  0
   48.5360   35.3480   40.1100 F   0  0  0  0  0  0  0  0  0  0  0  0
   49.1790   36.6950   41.8330 F   0  0  0  0  0  0  0  0  0  0  0  0
   49.9700   34.6110   41.7440 F   0  0  0  0  0  0  0  0  0  0  0  0
   44.1960   35.5820   42.7170 O   0  0  0  0  0  0  0  0  0  0  0  0
   43.5650   35.6040   41.4500 C   0  0  0  0  0  0  0  0  0  0  0  0
   42.0820   35.2700   41.5650 C   0  0  0  0  0  0  0  0  0  0  0  0
   48.9889   33.5969   43.3998 H   0  0  0  0  0  0  0  0  0  0  0  0
   47.0762   32.8190   44.8779 H   0  0  0  0  0  0  0  0  0  0  0  0
   44.0493   34.8645   40.7954 H   0  0  0  0  0  0  0  0  0  0  0  0
   43.6618   36.6164   41.0310 H   0  0  0  0  0  0  0  0  0  0  0  0
   41.8016   35.2069   42.6268 H   0  0  0  0  0  0  0  0  0  0  0  0
   41.4898   36.0573   41.0756 H   0  0  0  0  0  0  0  0  0  0  0  0
   41.8845   34.3049   41.0756 H   0  0  0  0  0  0  0  0  0  0  0  0
  1  2  2  0
  2  3  1  0
  4  3  2  0
  5  4  1  0
  6  1  1  0
  6  5  2  0
  7 10  1  0
  7  9  1  0
  7  1  1  0
  8  7  1  0
 11  5  1  0
 12 13  1  0
 12 11  1  0
  2 14  1  0
  3 15  1  0
 12 16  1  0
 12 17  1  0
 13 18  1  0
 13 19  1  0
 13 20  1  0
M  ISO  7  14  14  15  14  16   8  17   8  18   8  19   8  20   8
M  END
>  <minimizedAffinity>  (1) 
-4.30513

>  <minimizedRMSD>  (1) 
0.884189427

$$$$
