
     RDKit          3D

 43 46  0  0  0  0  0  0  0  0999 V2000
   38.5610   31.7630   41.2410 C   0  0  0  0  0  0  0  0  0  0  0  0
   39.9250   31.6020   40.9690 C   0  0  0  0  0  0  0  0  0  0  0  0
   40.3450   30.3460   40.5800 C   0  0  0  0  0  0  0  0  0  0  0  0
   39.4410   29.3440   40.4810 N   0  0  0  0  0  0  0  0  0  0  0  0
   38.1360   29.5410   40.7530 C   0  0  0  0  0  0  0  0  0  0  0  0
   37.6710   30.7290   41.1320 N   0  0  0  0  0  0  0  0  0  0  0  0
   37.1980   28.4030   40.6260 C   0  0  0  0  0  0  0  0  0  0  0  0
   36.4420   28.4320   39.2920 C   0  0  0  0  0  0  0  0  0  0  0  0
   35.1770   27.6640   39.5780 C   0  0  0  0  0  0  0  0  0  0  0  0
   33.9340   28.1450   39.2220 C   0  0  0  0  0  0  0  0  0  0  0  0
   32.7620   27.4620   39.4720 C   0  0  0  0  0  0  0  0  0  0  0  0
   32.8690   26.2710   40.0950 N   0  0  0  0  0  0  0  0  0  0  0  0
   34.0680   25.7730   40.4560 C   0  0  0  0  0  0  0  0  0  0  0  0
   35.2090   26.4630   40.2000 N   0  0  0  0  0  0  0  0  0  0  0  0
   41.0640   32.9480   41.1140 S   0  0  0  0  0  0  0  0  0  0  0  0
   40.9560   33.9940   39.6860 C   0  0  0  0  0  0  0  0  0  0  0  0
   39.8670   34.0150   38.8310 C   0  0  0  0  0  0  0  0  0  0  0  0
   39.8610   34.8680   37.7300 C   0  0  0  0  0  0  0  0  0  0  0  0
   40.9190   35.6970   37.4680 C   0  0  0  0  0  0  0  0  0  0  0  0
   42.0000   35.6690   38.3260 C   0  0  0  0  0  0  0  0  0  0  0  0
   42.0400   34.8310   39.4330 C   0  0  0  0  0  0  0  0  0  0  0  0
   43.1800   34.8180   40.3160 C   0  0  0  0  0  0  0  0  0  0  0  0
   44.2820   34.0350   40.1550 C   0  0  0  0  0  0  0  0  0  0  0  0
   45.3740   34.0390   41.0200 C   0  0  0  0  0  0  0  0  0  0  0  0
   45.3410   34.8580   42.0750 N   0  0  0  0  0  0  0  0  0  0  0  0
   44.2560   35.6400   42.2480 C   0  0  0  0  0  0  0  0  0  0  0  0
   43.1990   35.6310   41.4030 N   0  0  0  0  0  0  0  0  0  0  0  0
   38.1931   32.7518   41.5521 H   0  0  0  0  0  0  0  0  0  0  0  0
   41.4052   30.1612   40.3525 H   0  0  0  0  0  0  0  0  0  0  0  0
   37.7670   27.4639   40.6921 H   0  0  0  0  0  0  0  0  0  0  0  0
   36.4598   28.4770   41.4382 H   0  0  0  0  0  0  0  0  0  0  0  0
   37.0269   27.9423   38.4995 H   0  0  0  0  0  0  0  0  0  0  0  0
   36.2473   29.4544   38.9359 H   0  0  0  0  0  0  0  0  0  0  0  0
   33.8747   29.1193   38.7148 H   0  0  0  0  0  0  0  0  0  0  0  0
   31.7843   27.8705   39.1765 H   0  0  0  0  0  0  0  0  0  0  0  0
   34.1229   24.7983   40.9629 H   0  0  0  0  0  0  0  0  0  0  0  0
   39.0060   33.3575   39.0215 H   0  0  0  0  0  0  0  0  0  0  0  0
   38.9900   34.8759   37.0582 H   0  0  0  0  0  0  0  0  0  0  0  0
   40.9077   36.3679   36.5963 H   0  0  0  0  0  0  0  0  0  0  0  0
   42.8560   36.3306   38.1269 H   0  0  0  0  0  0  0  0  0  0  0  0
   44.3120   33.3577   39.2888 H   0  0  0  0  0  0  0  0  0  0  0  0
   46.2401   33.3854   40.8392 H   0  0  0  0  0  0  0  0  0  0  0  0
   44.2289   36.3159   43.1154 H   0  0  0  0  0  0  0  0  0  0  0  0
  2 15  1  0
  2  1  2  0
  3  2  1  0
  4  3  2  0
  4  5  1  0
  5  6  2  0
  6  1  1  0
  7  5  1  0
  8  9  1  0
  8  7  1  0
  9 14  2  0
 10 11  2  0
 10  9  1  0
 11 12  1  0
 12 13  2  0
 14 13  1  0
 16 15  1  0
 17 16  2  0
 18 17  1  0
 19 18  2  0
 19 20  1  0
 20 21  2  0
 21 16  1  0
 21 22  1  0
 22 27  1  0
 23 22  2  0
 23 24  1  0
 24 25  2  0
 25 26  1  0
 27 26  2  0
  1 28  1  0
  3 29  1  0
  7 30  1  0
  7 31  1  0
  8 32  1  0
  8 33  1  0
 10 34  1  0
 11 35  1  0
 13 36  1  0
 17 37  1  0
 18 38  1  0
 19 39  1  0
 20 40  1  0
 23 41  1  0
 24 42  1  0
 26 43  1  0
M  ISO  8  28  14  29  14  30   8  31   8  32   8  33   8  34  14  35  14
M  ISO  8  36  14  37  14  38  14  39  14  40  14  41  14  42  14  43  14
M  END
>  <minimizedAffinity>  (1) 
-5.63494349

>  <minimizedRMSD>  (1) 
0.640532255

$$$$
