
     RDKit          3D

 50 53  0  0  0  0  0  0  0  0999 V2000
   38.5290   31.7600   41.2470 C   0  0  0  0  0  0  0  0  0  0  0  0
   39.9010   31.5870   41.0010 C   0  0  0  0  0  0  0  0  0  0  0  0
   40.3400   30.3280   40.6520 C   0  0  0  0  0  0  0  0  0  0  0  0
   39.4380   29.3310   40.5650 N   0  0  0  0  0  0  0  0  0  0  0  0
   38.1130   29.5390   40.8110 C   0  0  0  0  0  0  0  0  0  0  0  0
   37.6350   30.7290   41.1510 N   0  0  0  0  0  0  0  0  0  0  0  0
   37.2140   28.3500   40.6810 C   0  0  0  0  0  0  0  0  0  0  0  0
   36.2340   28.5370   39.5170 C   0  0  0  0  0  0  0  0  0  0  0  0
   35.0780   27.7360   39.7280 N   0  0  0  0  0  0  0  0  0  0  0  0
   33.9060   28.0740   38.9980 C   0  0  0  0  0  0  0  0  0  0  0  0
   32.7190   27.5300   39.7670 C   0  0  0  0  0  0  0  0  0  0  0  0
   32.8710   26.1030   40.1860 C   0  0  0  0  0  0  0  0  0  0  0  0
   34.2460   25.6970   40.6000 C   0  0  0  0  0  0  0  0  0  0  0  0
   35.3140   26.3280   39.6940 C   0  0  0  0  0  0  0  0  0  0  0  0
   41.0320   32.9480   41.1350 S   0  0  0  0  0  0  0  0  0  0  0  0
   40.9120   33.9800   39.7020 C   0  0  0  0  0  0  0  0  0  0  0  0
   39.8130   33.9950   38.8470 C   0  0  0  0  0  0  0  0  0  0  0  0
   39.8000   34.8390   37.7410 C   0  0  0  0  0  0  0  0  0  0  0  0
   40.8600   35.6660   37.4700 C   0  0  0  0  0  0  0  0  0  0  0  0
   41.9450   35.6430   38.3250 C   0  0  0  0  0  0  0  0  0  0  0  0
   41.9900   34.8170   39.4310 C   0  0  0  0  0  0  0  0  0  0  0  0
   43.1350   34.8120   40.3090 C   0  0  0  0  0  0  0  0  0  0  0  0
   44.2480   34.0310   40.1360 C   0  0  0  0  0  0  0  0  0  0  0  0
   45.3520   34.0330   40.9910 C   0  0  0  0  0  0  0  0  0  0  0  0
   45.3250   34.8530   42.0490 N   0  0  0  0  0  0  0  0  0  0  0  0
   44.2300   35.6390   42.2380 C   0  0  0  0  0  0  0  0  0  0  0  0
   43.1740   35.6150   41.3930 N   0  0  0  0  0  0  0  0  0  0  0  0
   38.1609   32.7583   41.5263 H   0  0  0  0  0  0  0  0  0  0  0  0
   41.4048   30.1411   40.4487 H   0  0  0  0  0  0  0  0  0  0  0  0
   37.8248   27.4536   40.4984 H   0  0  0  0  0  0  0  0  0  0  0  0
   36.6398   28.2370   41.6124 H   0  0  0  0  0  0  0  0  0  0  0  0
   36.7207   28.2357   38.5777 H   0  0  0  0  0  0  0  0  0  0  0  0
   35.9375   29.5946   39.4578 H   0  0  0  0  0  0  0  0  0  0  0  0
   33.8240   29.1669   38.9040 H   0  0  0  0  0  0  0  0  0  0  0  0
   33.9422   27.6448   37.9859 H   0  0  0  0  0  0  0  0  0  0  0  0
   32.5807   28.1432   40.6697 H   0  0  0  0  0  0  0  0  0  0  0  0
   31.8530   27.5735   39.0901 H   0  0  0  0  0  0  0  0  0  0  0  0
   32.1952   25.9256   41.0356 H   0  0  0  0  0  0  0  0  0  0  0  0
   32.6336   25.5007   39.2967 H   0  0  0  0  0  0  0  0  0  0  0  0
   34.4183   26.0225   41.6365 H   0  0  0  0  0  0  0  0  0  0  0  0
   34.3237   24.6030   40.5161 H   0  0  0  0  0  0  0  0  0  0  0  0
   35.2156   25.9488   38.6661 H   0  0  0  0  0  0  0  0  0  0  0  0
   36.3297   26.0816   40.0370 H   0  0  0  0  0  0  0  0  0  0  0  0
   38.9534   33.3382   39.0464 H   0  0  0  0  0  0  0  0  0  0  0  0
   38.9258   34.8431   37.0734 H   0  0  0  0  0  0  0  0  0  0  0  0
   40.8466   36.3310   36.5938 H   0  0  0  0  0  0  0  0  0  0  0  0
   42.8001   36.3034   38.1183 H   0  0  0  0  0  0  0  0  0  0  0  0
   44.2732   33.3582   39.2661 H   0  0  0  0  0  0  0  0  0  0  0  0
   46.2173   33.3809   40.8011 H   0  0  0  0  0  0  0  0  0  0  0  0
   44.2029   36.3151   43.1053 H   0  0  0  0  0  0  0  0  0  0  0  0
  2 15  1  0
  2  1  2  0
  3  2  1  0
  4  3  2  0
  4  5  1  0
  5  6  2  0
  6  1  1  0
  7  5  1  0
  8  9  1  0
  8  7  1  0
 10  9  1  0
 10 11  1  0
 11 12  1  0
 12 13  1  0
 14  9  1  0
 14 13  1  0
 16 15  1  0
 17 16  2  0
 18 17  1  0
 19 18  2  0
 19 20  1  0
 20 21  2  0
 21 16  1  0
 21 22  1  0
 22 27  1  0
 23 22  2  0
 23 24  1  0
 24 25  2  0
 25 26  1  0
 27 26  2  0
  1 28  1  0
  3 29  1  0
  7 30  1  0
  7 31  1  0
  8 32  1  0
  8 33  1  0
 10 34  1  0
 10 35  1  0
 11 36  1  0
 11 37  1  0
 12 38  1  0
 12 39  1  0
 13 40  1  0
 13 41  1  0
 14 42  1  0
 14 43  1  0
 17 44  1  0
 18 45  1  0
 19 46  1  0
 20 47  1  0
 23 48  1  0
 24 49  1  0
 26 50  1  0
M  ISO  8  28  14  29  14  30   8  31   8  32   8  33   8  34  13  35  13
M  ISO  8  36  13  37  13  38  13  39  13  40  13  41  13  42  13  43  13
M  ISO  7  44  14  45  14  46  14  47  14  48  14  49  14  50  14
M  END
>  <minimizedAffinity>  (1) 
-5.57619095

>  <minimizedRMSD>  (1) 
0.918438792

$$$$
