
     RDKit          3D

 45 48  0  0  0  0  0  0  0  0999 V2000
   38.5620   31.7780   41.1630 C   0  0  0  0  0  0  0  0  0  0  0  0
   39.9370   31.7160   40.8450 C   0  0  0  0  0  0  0  0  0  0  0  0
   40.4270   30.5300   40.3330 C   0  0  0  0  0  0  0  0  0  0  0  0
   39.5860   29.4910   40.1620 N   0  0  0  0  0  0  0  0  0  0  0  0
   38.2610   29.5840   40.4800 C   0  0  0  0  0  0  0  0  0  0  0  0
   37.7320   30.7010   40.9760 N   0  0  0  0  0  0  0  0  0  0  0  0
   37.3920   28.4050   40.2660 C   0  0  0  0  0  0  0  0  0  0  0  0
   35.9180   28.7730   40.2440 C   0  0  0  0  0  0  0  0  0  0  0  0
   35.1840   28.1480   39.1460 C   0  0  0  0  0  0  0  0  0  0  0  0
   33.8030   28.1250   39.1140 C   0  0  0  0  0  0  0  0  0  0  0  0
   33.1470   27.5250   38.0580 C   0  0  0  0  0  0  0  0  0  0  0  0
   33.8100   26.9270   37.0020 C   0  0  0  0  0  0  0  0  0  0  0  0
   35.1890   26.9480   37.0290 C   0  0  0  0  0  0  0  0  0  0  0  0
   35.8380   27.5490   38.0850 C   0  0  0  0  0  0  0  0  0  0  0  0
   40.9740   33.1290   41.1010 S   0  0  0  0  0  0  0  0  0  0  0  0
   40.9640   34.1620   39.6620 C   0  0  0  0  0  0  0  0  0  0  0  0
   39.8970   34.2360   38.7750 C   0  0  0  0  0  0  0  0  0  0  0  0
   39.9620   35.0740   37.6610 C   0  0  0  0  0  0  0  0  0  0  0  0
   41.0640   35.8350   37.4160 C   0  0  0  0  0  0  0  0  0  0  0  0
   42.1260   35.7590   38.3020 C   0  0  0  0  0  0  0  0  0  0  0  0
   42.0910   34.9330   39.4210 C   0  0  0  0  0  0  0  0  0  0  0  0
   43.2130   34.8690   40.3350 C   0  0  0  0  0  0  0  0  0  0  0  0
   44.2830   34.0280   40.1770 C   0  0  0  0  0  0  0  0  0  0  0  0
   45.3580   33.9720   41.0600 C   0  0  0  0  0  0  0  0  0  0  0  0
   45.3430   34.7860   42.1230 N   0  0  0  0  0  0  0  0  0  0  0  0
   44.2940   35.6170   42.2860 C   0  0  0  0  0  0  0  0  0  0  0  0
   43.2510   35.6680   41.4260 N   0  0  0  0  0  0  0  0  0  0  0  0
   38.1466   32.7116   41.5702 H   0  0  0  0  0  0  0  0  0  0  0  0
   41.4904   30.4350   40.0682 H   0  0  0  0  0  0  0  0  0  0  0  0
   37.6554   27.9411   39.3040 H   0  0  0  0  0  0  0  0  0  0  0  0
   37.5536   27.7107   41.1038 H   0  0  0  0  0  0  0  0  0  0  0  0
   35.4641   28.4542   41.1939 H   0  0  0  0  0  0  0  0  0  0  0  0
   35.8555   29.8618   40.1004 H   0  0  0  0  0  0  0  0  0  0  0  0
   33.2262   28.5848   39.9300 H   0  0  0  0  0  0  0  0  0  0  0  0
   32.0470   27.5224   38.0564 H   0  0  0  0  0  0  0  0  0  0  0  0
   33.2605   26.4541   36.1747 H   0  0  0  0  0  0  0  0  0  0  0  0
   35.7662   26.4882   36.2133 H   0  0  0  0  0  0  0  0  0  0  0  0
   36.9380   27.5526   38.0842 H   0  0  0  0  0  0  0  0  0  0  0  0
   38.9958   33.6305   38.9519 H   0  0  0  0  0  0  0  0  0  0  0  0
   39.1082   35.1205   36.9690 H   0  0  0  0  0  0  0  0  0  0  0  0
   41.1099   36.4938   36.5363 H   0  0  0  0  0  0  0  0  0  0  0  0
   43.0223   36.3689   38.1156 H   0  0  0  0  0  0  0  0  0  0  0  0
   44.2933   33.3595   39.3035 H   0  0  0  0  0  0  0  0  0  0  0  0
   46.1952   33.2792   40.8893 H   0  0  0  0  0  0  0  0  0  0  0  0
   44.2858   36.2852   43.1597 H   0  0  0  0  0  0  0  0  0  0  0  0
  2 15  1  0
  2  1  2  0
  3  2  1  0
  4  3  2  0
  4  5  1  0
  5  6  2  0
  6  1  1  0
  7  5  1  0
  8  7  1  0
  9  8  1  0
 10  9  2  0
 11 10  1  0
 12 13  1  0
 12 11  2  0
 13 14  2  0
 14  9  1  0
 16 15  1  0
 17 16  2  0
 18 17  1  0
 19 18  2  0
 19 20  1  0
 20 21  2  0
 21 16  1  0
 21 22  1  0
 22 27  1  0
 23 22  2  0
 23 24  1  0
 24 25  2  0
 25 26  1  0
 27 26  2  0
  1 28  1  0
  3 29  1  0
  7 30  1  0
  7 31  1  0
  8 32  1  0
  8 33  1  0
 10 34  1  0
 11 35  1  0
 12 36  1  0
 13 37  1  0
 14 38  1  0
 17 39  1  0
 18 40  1  0
 19 41  1  0
 20 42  1  0
 23 43  1  0
 24 44  1  0
 26 45  1  0
M  ISO  8  28  14  29  14  30   8  31   8  32   8  33   8  34  14  35  14
M  ISO  8  36  14  37  14  38  14  39  14  40  14  41  14  42  14  43  14
M  ISO  2  44  14  45  14
M  END
>  <minimizedAffinity>  (1) 
-5.44109297

>  <minimizedRMSD>  (1) 
1.67443573

$$$$
