
     RDKit          3D

 47 50  0  0  0  0  0  0  0  0999 V2000
   40.9730   32.9380   41.0950 S   0  0  0  0  0  0  0  0  0  0  0  0
   40.8440   33.9660   39.6660 C   0  0  0  0  0  0  0  0  0  0  0  0
   39.7500   33.9790   38.8290 C   0  0  0  0  0  0  0  0  0  0  0  0
   39.7160   34.8160   37.7170 C   0  0  0  0  0  0  0  0  0  0  0  0
   40.7630   35.6470   37.4280 C   0  0  0  0  0  0  0  0  0  0  0  0
   41.8550   35.6290   38.2720 C   0  0  0  0  0  0  0  0  0  0  0  0
   41.9260   34.8070   39.3910 C   0  0  0  0  0  0  0  0  0  0  0  0
   43.0810   34.8060   40.2610 C   0  0  0  0  0  0  0  0  0  0  0  0
   44.1800   34.0390   40.0930 C   0  0  0  0  0  0  0  0  0  0  0  0
   45.2820   34.0570   40.9500 C   0  0  0  0  0  0  0  0  0  0  0  0
   45.2470   34.8930   42.0100 N   0  0  0  0  0  0  0  0  0  0  0  0
   44.1550   35.6620   42.1840 C   0  0  0  0  0  0  0  0  0  0  0  0
   43.0990   35.6250   41.3400 N   0  0  0  0  0  0  0  0  0  0  0  0
   38.4880   31.7520   41.2510 C   0  0  0  0  0  0  0  0  0  0  0  0
   39.8450   31.5750   40.9820 C   0  0  0  0  0  0  0  0  0  0  0  0
   40.2850   30.3040   40.6250 C   0  0  0  0  0  0  0  0  0  0  0  0
   39.3830   29.3100   40.5560 N   0  0  0  0  0  0  0  0  0  0  0  0
   38.0760   29.5160   40.8240 C   0  0  0  0  0  0  0  0  0  0  0  0
   37.5940   30.7110   41.1710 N   0  0  0  0  0  0  0  0  0  0  0  0
   37.1000   28.3810   40.7400 C   0  0  0  0  0  0  0  0  0  0  0  0
   36.2310   28.4670   39.5100 C   0  0  0  0  0  0  0  0  0  0  0  0
   35.9410   27.1670   38.9640 N   0  0  0  0  0  0  0  0  0  0  0  0
   35.0880   27.3500   37.7660 C   0  0  0  0  0  0  0  0  0  0  0  0
   33.7770   27.8490   38.3460 C   0  0  0  0  0  0  0  0  0  0  0  0
   33.6760   27.1650   39.6990 C   0  0  0  0  0  0  0  0  0  0  0  0
   35.0050   26.4490   39.8130 C   0  0  0  0  0  0  0  0  0  0  0  0
   38.8943   33.3212   39.0414 H   0  0  0  0  0  0  0  0  0  0  0  0
   38.8333   34.8088   37.0607 H   0  0  0  0  0  0  0  0  0  0  0  0
   40.7357   36.3092   36.5501 H   0  0  0  0  0  0  0  0  0  0  0  0
   42.7040   36.2923   38.0501 H   0  0  0  0  0  0  0  0  0  0  0  0
   44.2085   33.3591   39.2288 H   0  0  0  0  0  0  0  0  0  0  0  0
   46.1525   33.4098   40.7673 H   0  0  0  0  0  0  0  0  0  0  0  0
   44.1208   36.3458   43.0449 H   0  0  0  0  0  0  0  0  0  0  0  0
   38.1238   32.7505   41.5345 H   0  0  0  0  0  0  0  0  0  0  0  0
   41.3463   30.1172   40.4044 H   0  0  0  0  0  0  0  0  0  0  0  0
   37.6592   27.4341   40.7132 H   0  0  0  0  0  0  0  0  0  0  0  0
   36.4440   28.4336   41.6214 H   0  0  0  0  0  0  0  0  0  0  0  0
   35.2844   28.9593   39.7774 H   0  0  0  0  0  0  0  0  0  0  0  0
   36.7765   29.0423   38.7475 H   0  0  0  0  0  0  0  0  0  0  0  0
   34.9466   26.3980   37.2334 H   0  0  0  0  0  0  0  0  0  0  0  0
   35.5233   28.0398   37.0280 H   0  0  0  0  0  0  0  0  0  0  0  0
   33.7948   28.9426   38.4633 H   0  0  0  0  0  0  0  0  0  0  0  0
   32.9185   27.6218   37.6968 H   0  0  0  0  0  0  0  0  0  0  0  0
   33.5520   27.9012   40.5069 H   0  0  0  0  0  0  0  0  0  0  0  0
   32.8101   26.4919   39.7831 H   0  0  0  0  0  0  0  0  0  0  0  0
   34.9052   25.4081   39.4716 H   0  0  0  0  0  0  0  0  0  0  0  0
   35.3540   26.4268   40.8559 H   0  0  0  0  0  0  0  0  0  0  0  0
  2  1  1  0
  3  2  2  0
  4  3  1  0
  5  4  2  0
  5  6  1  0
  6  7  2  0
  7  2  1  0
  7  8  1  0
  8 13  1  0
  9  8  2  0
  9 10  1  0
 10 11  2  0
 11 12  1  0
 13 12  2  0
 15  1  1  0
 15 14  2  0
 16 15  1  0
 17 16  2  0
 17 18  1  0
 18 19  2  0
 19 14  1  0
 20 18  1  0
 21 20  1  0
 22 21  1  0
 22 26  1  0
 23 24  1  0
 23 22  1  0
 24 25  1  0
 25 26  1  0
  3 27  1  0
  4 28  1  0
  5 29  1  0
  6 30  1  0
  9 31  1  0
 10 32  1  0
 12 33  1  0
 14 34  1  0
 16 35  1  0
 20 36  1  0
 20 37  1  0
 21 38  1  0
 21 39  1  0
 23 40  1  0
 23 41  1  0
 24 42  1  0
 24 43  1  0
 25 44  1  0
 25 45  1  0
 26 46  1  0
 26 47  1  0
M  ISO  8  27  14  28  14  29  14  30  14  31  14  32  14  33  14  34  14
M  ISO  8  35  14  36   8  37   8  38   8  39   8  40  13  41  13  42  13
M  ISO  5  43  13  44  13  45  13  46  13  47  13
M  END
>  <minimizedAffinity>  (1) 
-5.26118708

>  <minimizedRMSD>  (1) 
0.656429052

$$$$
