
     RDKit          3D

 36 38  0  0  0  0  0  0  0  0999 V2000
   40.9430   34.0690   39.7850 C   0  0  0  0  0  0  0  0  0  0  0  0
   39.8410   34.0960   38.9370 C   0  0  0  0  0  0  0  0  0  0  0  0
   39.8590   34.8990   37.7980 C   0  0  0  0  0  0  0  0  0  0  0  0
   40.9350   35.6660   37.4910 C   0  0  0  0  0  0  0  0  0  0  0  0
   42.0320   35.6390   38.3380 C   0  0  0  0  0  0  0  0  0  0  0  0
   42.0520   34.8530   39.4790 C   0  0  0  0  0  0  0  0  0  0  0  0
   43.2090   34.8330   40.3590 C   0  0  0  0  0  0  0  0  0  0  0  0
   44.2940   34.0390   40.1910 C   0  0  0  0  0  0  0  0  0  0  0  0
   45.3920   34.0410   41.0510 C   0  0  0  0  0  0  0  0  0  0  0  0
   45.3760   34.8760   42.1050 N   0  0  0  0  0  0  0  0  0  0  0  0
   44.2960   35.6690   42.2770 C   0  0  0  0  0  0  0  0  0  0  0  0
   43.2490   35.6550   41.4400 N   0  0  0  0  0  0  0  0  0  0  0  0
   41.0180   33.0860   41.2490 S   0  0  0  0  0  0  0  0  0  0  0  0
   38.5120   31.9180   41.2030 C   0  0  0  0  0  0  0  0  0  0  0  0
   39.9090   31.7070   41.1270 C   0  0  0  0  0  0  0  0  0  0  0  0
   40.3730   30.4240   40.9600 C   0  0  0  0  0  0  0  0  0  0  0  0
   39.4670   29.4160   40.8740 N   0  0  0  0  0  0  0  0  0  0  0  0
   38.1330   29.6430   40.9490 C   0  0  0  0  0  0  0  0  0  0  0  0
   37.6370   30.8650   41.1110 N   0  0  0  0  0  0  0  0  0  0  0  0
   37.2300   28.4730   40.8440 C   0  0  0  0  0  0  0  0  0  0  0  0
   36.5910   28.3990   39.4520 C   0  0  0  0  0  0  0  0  0  0  0  0
   37.4860   29.1170   38.6270 O   0  0  0  0  0  0  0  0  0  0  0  0
   38.9559   33.4840   39.1651 H   0  0  0  0  0  0  0  0  0  0  0  0
   38.9822   34.9111   37.1339 H   0  0  0  0  0  0  0  0  0  0  0  0
   40.9369   36.2959   36.5892 H   0  0  0  0  0  0  0  0  0  0  0  0
   42.9094   36.2576   38.0981 H   0  0  0  0  0  0  0  0  0  0  0  0
   44.3097   33.3555   39.3293 H   0  0  0  0  0  0  0  0  0  0  0  0
   46.2497   33.3761   40.8716 H   0  0  0  0  0  0  0  0  0  0  0  0
   44.2749   36.3533   43.1380 H   0  0  0  0  0  0  0  0  0  0  0  0
   38.1228   32.9380   41.3374 H   0  0  0  0  0  0  0  0  0  0  0  0
   41.4519   30.2187   40.8975 H   0  0  0  0  0  0  0  0  0  0  0  0
   37.8079   27.5546   41.0244 H   0  0  0  0  0  0  0  0  0  0  0  0
   36.4309   28.5771   41.5928 H   0  0  0  0  0  0  0  0  0  0  0  0
   36.5025   27.3549   39.1173 H   0  0  0  0  0  0  0  0  0  0  0  0
   35.5717   28.8120   39.4313 H   0  0  0  0  0  0  0  0  0  0  0  0
   38.1200   29.6256   39.1922 H   0  0  0  0  0  0  0  0  0  0  0  0
  1 13  1  0
  2  1  2  0
  3  2  1  0
  4  3  2  0
  4  5  1  0
  5  6  2  0
  6  1  1  0
  6  7  1  0
  7 12  1  0
  8  7  2  0
  8  9  1  0
  9 10  2  0
 10 11  1  0
 12 11  2  0
 15 14  2  0
 15 13  1  0
 16 15  1  0
 17 18  1  0
 17 16  2  0
 18 19  2  0
 19 14  1  0
 20 18  1  0
 21 20  1  0
 22 21  1  0
  2 23  1  0
  3 24  1  0
  4 25  1  0
  5 26  1  0
  8 27  1  0
  9 28  1  0
 11 29  1  0
 14 30  1  0
 16 31  1  0
 20 32  1  0
 20 33  1  0
 21 34  1  0
 21 35  1  0
 22 36  1  0
M  ISO  8  23  14  24  14  25  14  26  14  27  14  28  14  29  14  30  14
M  ISO  6  31  14  32   8  33   8  34   8  35   8  36   3
M  END
>  <minimizedAffinity>  (1) 
-5.00101376

>  <minimizedRMSD>  (1) 
0.245009273

$$$$
