
     RDKit          3D

 26 27  0  0  0  0  0  0  0  0999 V2000
   44.6060   35.9630   44.5260 C   0  0  0  0  0  0  0  0  0  0  0  0
   45.3440   35.6130   43.3890 C   0  0  0  0  0  0  0  0  0  0  0  0
   46.1160   34.4260   43.4710 C   0  0  0  0  0  0  0  0  0  0  0  0
   46.0830   33.7270   44.6250 N   0  0  0  0  0  0  0  0  0  0  0  0
   45.3630   34.0930   45.6950 C   0  0  0  0  0  0  0  0  0  0  0  0
   44.6260   35.2130   45.6410 N   0  0  0  0  0  0  0  0  0  0  0  0
   45.3170   33.3930   46.8840 O   0  0  0  0  0  0  0  0  0  0  0  0
   46.8420   30.7390   49.4950 N   0  0  0  0  0  0  0  0  0  0  0  0
   47.8030   31.4220   48.6920 C   0  0  0  0  0  0  0  0  0  0  0  0
   47.2840   32.4760   47.7860 C   0  0  0  0  0  0  0  0  0  0  0  0
   45.9700   32.1680   47.1180 C   0  0  0  0  0  0  0  0  0  0  0  0
   45.1240   31.2160   47.9280 C   0  0  0  0  0  0  0  0  0  0  0  0
   45.5310   31.3290   49.4020 C   0  0  0  0  0  0  0  0  0  0  0  0
   43.9933   36.8764   44.5062 H   0  0  0  0  0  0  0  0  0  0  0  0
   45.3260   36.2281   42.4772 H   0  0  0  0  0  0  0  0  0  0  0  0
   46.7234   34.0853   42.6195 H   0  0  0  0  0  0  0  0  0  0  0  0
   46.7867   29.7589   49.1831 H   0  0  0  0  0  0  0  0  0  0  0  0
   48.5298   31.8932   49.3700 H   0  0  0  0  0  0  0  0  0  0  0  0
   48.2259   30.6527   48.0292 H   0  0  0  0  0  0  0  0  0  0  0  0
   47.1572   33.3965   48.3747 H   0  0  0  0  0  0  0  0  0  0  0  0
   48.0212   32.5663   46.9746 H   0  0  0  0  0  0  0  0  0  0  0  0
   46.1477   31.6482   46.1650 H   0  0  0  0  0  0  0  0  0  0  0  0
   44.0616   31.4782   47.8162 H   0  0  0  0  0  0  0  0  0  0  0  0
   45.2769   30.1855   47.5749 H   0  0  0  0  0  0  0  0  0  0  0  0
   45.5635   32.3844   49.7103 H   0  0  0  0  0  0  0  0  0  0  0  0
   44.8112   30.8205   50.0603 H   0  0  0  0  0  0  0  0  0  0  0  0
  1  6  2  0
  2  3  2  0
  2  1  1  0
  3  4  1  0
  4  5  2  0
  5  7  1  0
  6  5  1  0
  7 11  1  0
  9  8  1  0
 10  9  1  0
 11 10  1  0
 11 12  1  0
 12 13  1  0
 13  8  1  0
  1 14  1  0
  2 15  1  0
  3 16  1  0
  8 17  1  0
  9 18  1  0
  9 19  1  0
 10 20  1  0
 10 21  1  0
 11 22  1  0
 12 23  1  0
 12 24  1  0
 13 25  1  0
 13 26  1  0
M  ISO  8  14  14  15  14  16  14  17   5  18  13  19  13  20  13  21  13
M  ISO  5  22  13  23  13  24  13  25  13  26  13
M  END
>  <minimizedAffinity>  (1) 
-5.05954552

>  <minimizedRMSD>  (1) 
1.52860963

$$$$
