
     RDKit          3D

 21 22  0  0  0  0  0  0  0  0999 V2000
   44.9050   33.6890   47.0190 O   0  0  0  0  0  0  0  0  0  0  0  0
   44.7450   36.0010   44.3210 C   0  0  0  0  0  0  0  0  0  0  0  0
   45.5540   35.4040   43.3210 C   0  0  0  0  0  0  0  0  0  0  0  0
   46.1510   34.1770   43.6210 C   0  0  0  0  0  0  0  0  0  0  0  0
   45.9240   33.6260   44.8490 N   0  0  0  0  0  0  0  0  0  0  0  0
   45.1430   34.2350   45.7710 C   0  0  0  0  0  0  0  0  0  0  0  0
   44.5600   35.4190   45.4990 N   0  0  0  0  0  0  0  0  0  0  0  0
   45.7640   32.7860   47.6260 C   0  0  0  0  0  0  0  0  0  0  0  0
   47.1350   32.6850   47.5780 C   0  0  0  0  0  0  0  0  0  0  0  0
   47.7430   31.6750   48.2890 C   0  0  0  0  0  0  0  0  0  0  0  0
   47.0530   30.7620   49.0440 C   0  0  0  0  0  0  0  0  0  0  0  0
   45.6740   30.8560   49.0990 C   0  0  0  0  0  0  0  0  0  0  0  0
   45.0400   31.8650   48.3900 C   0  0  0  0  0  0  0  0  0  0  0  0
   44.2606   36.9670   44.1158 H   0  0  0  0  0  0  0  0  0  0  0  0
   45.7059   35.8889   42.3454 H   0  0  0  0  0  0  0  0  0  0  0  0
   46.7892   33.6668   42.8846 H   0  0  0  0  0  0  0  0  0  0  0  0
   47.7314   33.3944   46.9856 H   0  0  0  0  0  0  0  0  0  0  0  0
   48.8395   31.5964   48.2493 H   0  0  0  0  0  0  0  0  0  0  0  0
   47.5846   29.9717   49.5942 H   0  0  0  0  0  0  0  0  0  0  0  0
   45.0891   30.1410   49.6962 H   0  0  0  0  0  0  0  0  0  0  0  0
   43.9435   31.9428   48.4293 H   0  0  0  0  0  0  0  0  0  0  0  0
  1  8  1  0
  2  7  2  0
  3  4  2  0
  3  2  1  0
  4  5  1  0
  5  6  2  0
  6  1  1  0
  7  6  1  0
  8 13  1  0
  9  8  2  0
  9 10  1  0
 10 11  2  0
 11 12  1  0
 13 12  2  0
  2 14  1  0
  3 15  1  0
  4 16  1  0
  9 17  1  0
 10 18  1  0
 11 19  1  0
 12 20  1  0
 13 21  1  0
M  ISO  8  14  14  15  14  16  14  17  14  18  14  19  14  20  14  21  14
M  END
>  <minimizedAffinity>  (1) 
-4.6257906

>  <minimizedRMSD>  (1) 
0.911235452

$$$$
