
     RDKit          3D

 21 22  0  0  0  0  0  0  0  0999 V2000
   45.5180   33.2970   46.7450 O   0  0  0  0  0  0  0  0  0  0  0  0
   44.5460   35.9180   44.5520 C   0  0  0  0  0  0  0  0  0  0  0  0
   45.3120   35.6810   43.4020 C   0  0  0  0  0  0  0  0  0  0  0  0
   46.1820   34.5820   43.3960 C   0  0  0  0  0  0  0  0  0  0  0  0
   46.2370   33.8110   44.5020 N   0  0  0  0  0  0  0  0  0  0  0  0
   45.4830   34.0690   45.5990 C   0  0  0  0  0  0  0  0  0  0  0  0
   44.6570   35.1120   45.6030 N   0  0  0  0  0  0  0  0  0  0  0  0
   45.4620   31.7660   49.3530 Cl  0  0  0  0  0  0  0  0  0  0  0  0
   46.2710   31.3290   47.8660 C   0  0  0  0  0  0  0  0  0  0  0  0
   46.2330   32.1080   46.7190 C   0  0  0  0  0  0  0  0  0  0  0  0
   46.9170   31.6410   45.6160 C   0  0  0  0  0  0  0  0  0  0  0  0
   47.6130   30.4350   45.6670 C   0  0  0  0  0  0  0  0  0  0  0  0
   47.6420   29.6620   46.8300 C   0  0  0  0  0  0  0  0  0  0  0  0
   46.9530   30.1300   47.9430 C   0  0  0  0  0  0  0  0  0  0  0  0
   43.8528   36.7714   44.5845 H   0  0  0  0  0  0  0  0  0  0  0  0
   45.2322   36.3413   42.5259 H   0  0  0  0  0  0  0  0  0  0  0  0
   46.8015   34.3548   42.5159 H   0  0  0  0  0  0  0  0  0  0  0  0
   46.9130   32.2274   44.6854 H   0  0  0  0  0  0  0  0  0  0  0  0
   48.1504   30.0847   44.7734 H   0  0  0  0  0  0  0  0  0  0  0  0
   48.1937   28.7110   46.8642 H   0  0  0  0  0  0  0  0  0  0  0  0
   46.9508   29.5502   48.8778 H   0  0  0  0  0  0  0  0  0  0  0  0
  2  7  2  0
  3  2  1  0
  4  3  2  0
  4  5  1  0
  5  6  2  0
  6  7  1  0
  6  1  1  0
  9 14  2  0
  9  8  1  0
 10  1  1  0
 10  9  1  0
 11 12  1  0
 11 10  2  0
 12 13  2  0
 13 14  1  0
  2 15  1  0
  3 16  1  0
  4 17  1  0
 11 18  1  0
 12 19  1  0
 13 20  1  0
 14 21  1  0
M  ISO  7  15  14  16  14  17  14  18  14  19  14  20  14  21  14
M  END
>  <minimizedAffinity>  (1) 
-4.49648666

>  <minimizedRMSD>  (1) 
0.862475038

$$$$
