
     RDKit          3D

 23 24  0  0  1  0  0  0  0  0999 V2000
   44.5000   36.0940   44.5160 C   0  0  0  0  0  0  0  0  0  0  0  0
   45.1670   36.0130   43.2720 C   0  0  0  0  0  0  0  0  0  0  0  0
   46.0370   34.9300   43.0840 C   0  0  0  0  0  0  0  0  0  0  0  0
   46.1750   34.0420   44.1080 N   0  0  0  0  0  0  0  0  0  0  0  0
   45.5240   34.1550   45.2730 C   0  0  0  0  0  0  0  0  0  0  0  0
   44.6890   35.1810   45.4720 N   0  0  0  0  0  0  0  0  0  0  0  0
   45.6720   33.2390   46.3170 O   0  0  0  0  0  0  0  0  0  0  0  0
   47.4410   32.9100   47.8000 N   0  0  0  0  0  0  0  0  0  0  0  0
   47.2790   31.7810   48.7020 C   0  0  0  0  0  0  0  0  0  0  0  0
   47.4230   30.5990   47.7620 C   0  0  0  0  0  0  0  0  0  0  0  0
   46.5760   31.0510   46.5830 C   0  0  0  0  0  0  0  0  0  0  0  0
   46.8660   32.5330   46.5430 C   0  0  1  0  0  0  0  0  0  0  0  0
   43.8086   36.9294   44.7008 H   0  0  0  0  0  0  0  0  0  0  0  0
   45.0102   36.7666   42.4862 H   0  0  0  0  0  0  0  0  0  0  0  0
   46.5896   34.8015   42.1416 H   0  0  0  0  0  0  0  0  0  0  0  0
   46.9546   33.7358   48.1772 H   0  0  0  0  0  0  0  0  0  0  0  0
   48.0607   31.7731   49.4759 H   0  0  0  0  0  0  0  0  0  0  0  0
   46.3296   31.7913   49.2574 H   0  0  0  0  0  0  0  0  0  0  0  0
   48.4716   30.4435   47.4683 H   0  0  0  0  0  0  0  0  0  0  0  0
   47.1131   29.6373   48.1968 H   0  0  0  0  0  0  0  0  0  0  0  0
   46.8896   30.5564   45.6518 H   0  0  0  0  0  0  0  0  0  0  0  0
   45.5077   30.8091   46.6838 H   0  0  0  0  0  0  0  0  0  0  0  0
   47.5673   32.7691   45.7291 H   0  0  0  0  0  0  0  0  0  0  0  0
  1  6  2  0
  2  1  1  0
  3  2  2  0
  3  4  1  0
  4  5  2  0
  5  6  1  0
  5  7  1  0
  8  9  1  0
 10  9  1  0
 11 10  1  0
 12  7  1  0
 12 11  1  0
 12  8  1  0
  1 13  1  0
  2 14  1  0
  3 15  1  0
  8 16  1  0
  9 17  1  0
  9 18  1  0
 10 19  1  0
 10 20  1  0
 11 21  1  0
 11 22  1  0
 12 23  1  6
M  ISO  8  13  14  14  14  15  14  16   5  17  13  18  13  19  13  20  13
M  ISO  3  21  13  22  13  23  13
M  END
>  <minimizedAffinity>  (1) 
-4.46038055

>  <minimizedRMSD>  (1) 
1.28532481

$$$$
