
     RDKit          3D

 14 14  0  0  0  0  0  0  0  0999 V2000
   44.5140   35.8550   44.6830 C   0  0  0  0  0  0  0  0  0  0  0  0
   45.0740   36.0260   43.4090 C   0  0  0  0  0  0  0  0  0  0  0  0
   46.0500   35.0810   43.0100 C   0  0  0  0  0  0  0  0  0  0  0  0
   46.3850   34.0830   43.8530 N   0  0  0  0  0  0  0  0  0  0  0  0
   45.8080   33.9710   45.0720 C   0  0  0  0  0  0  0  0  0  0  0  0
   44.8820   34.8520   45.4750 N   0  0  0  0  0  0  0  0  0  0  0  0
   46.1290   32.9500   45.9770 O   0  0  0  0  0  0  0  0  0  0  0  0
   45.5140   32.8190   47.2470 C   0  0  0  0  0  0  0  0  0  0  0  0
   43.7529   36.5667   45.0355 H   0  0  0  0  0  0  0  0  0  0  0  0
   44.7699   36.8539   42.7516 H   0  0  0  0  0  0  0  0  0  0  0  0
   46.5297   35.1600   42.0233 H   0  0  0  0  0  0  0  0  0  0  0  0
   46.2639   32.9787   48.0358 H   0  0  0  0  0  0  0  0  0  0  0  0
   44.7133   33.5667   47.3455 H   0  0  0  0  0  0  0  0  0  0  0  0
   45.0875   31.8099   47.3455 H   0  0  0  0  0  0  0  0  0  0  0  0
  1  6  2  0
  2  1  1  0
  3  2  2  0
  3  4  1  0
  4  5  2  0
  5  6  1  0
  5  7  1  0
  7  8  1  0
  1  9  1  0
  2 10  1  0
  3 11  1  0
  8 12  1  0
  8 13  1  0
  8 14  1  0
M  ISO  6   9  14  10  14  11  14  12   8  13   8  14   8
M  END
>  <minimizedAffinity>  (1) 
-3.02138352

>  <minimizedRMSD>  (1) 
1.15074873

$$$$
