
     RDKit          3D

 24 25  0  0  0  0  0  0  0  0999 V2000
   45.8370   30.6910   46.7050 C   0  0  0  0  0  0  0  0  0  0  0  0
   46.2170   31.9690   47.0090 C   0  0  0  0  0  0  0  0  0  0  0  0
   45.9780   32.4210   48.3110 C   0  0  0  0  0  0  0  0  0  0  0  0
   45.3830   31.6200   49.2640 C   0  0  0  0  0  0  0  0  0  0  0  0
   45.0090   30.3310   48.9280 C   0  0  0  0  0  0  0  0  0  0  0  0
   45.2400   29.8710   47.6400 C   0  0  0  0  0  0  0  0  0  0  0  0
   46.1690   30.2070   45.0570 S   0  0  0  0  0  0  0  0  0  0  0  0
   45.1280   30.7150   44.1070 O   0  0  0  0  0  0  0  0  0  0  0  0
   46.0980   28.6880   45.0140 O   0  0  0  0  0  0  0  0  0  0  0  0
   46.8170   32.9260   46.2240 O   0  0  0  0  0  0  0  0  0  0  0  0
   46.0700   34.7490   43.2690 C   0  0  0  0  0  0  0  0  0  0  0  0
   44.9860   35.5510   43.6490 C   0  0  0  0  0  0  0  0  0  0  0  0
   44.5140   35.4460   44.9600 C   0  0  0  0  0  0  0  0  0  0  0  0
   45.1400   34.5750   45.7740 N   0  0  0  0  0  0  0  0  0  0  0  0
   46.1750   33.8190   45.3910 C   0  0  0  0  0  0  0  0  0  0  0  0
   46.6300   33.9140   44.1370 N   0  0  0  0  0  0  0  0  0  0  0  0
   46.2731   33.4451   48.5831 H   0  0  0  0  0  0  0  0  0  0  0  0
   45.2078   32.0023   50.2804 H   0  0  0  0  0  0  0  0  0  0  0  0
   44.5334   29.6778   49.6745 H   0  0  0  0  0  0  0  0  0  0  0  0
   44.9459   28.8479   47.3629 H   0  0  0  0  0  0  0  0  0  0  0  0
   47.3900   30.7088   44.6904 H   0  0  0  0  0  0  0  0  0  0  0  0
   46.4608   34.8113   42.2427 H   0  0  0  0  0  0  0  0  0  0  0  0
   44.5189   36.2448   42.9345 H   0  0  0  0  0  0  0  0  0  0  0  0
   43.6654   36.0504   45.3128 H   0  0  0  0  0  0  0  0  0  0  0  0
  1  2  2  0
  1  6  1  0
  2  3  1  0
  3  4  2  0
  5  4  1  0
  6  5  2  0
  7  1  1  0
  8  7  2  0
  9  7  2  0
 10  2  1  0
 11 12  2  0
 11 16  1  0
 12 13  1  0
 13 14  2  0
 15 14  1  0
 15 10  1  0
 16 15  2  0
  3 17  1  0
  4 18  1  0
  5 19  1  0
  6 20  1  0
  7 21  1  0
 11 22  1  0
 12 23  1  0
 13 24  1  0
M  ISO  8  17  14  18  14  19  14  20  14  21  11  22  14  23  14  24  14
M  END
>  <minimizedAffinity>  (1) 
-4.64129114

>  <minimizedRMSD>  (1) 
2.48337984

$$$$
