
     RDKit          3D

 31 33  0  0  0  0  0  0  0  0999 V2000
   45.4470   30.3340   47.1690 C   0  0  0  0  0  0  0  0  0  0  0  0
   46.2910   31.3200   46.7310 C   0  0  0  0  0  0  0  0  0  0  0  0
   46.6270   32.3160   47.6530 C   0  0  0  0  0  0  0  0  0  0  0  0
   46.1490   32.3220   48.9370 C   0  0  0  0  0  0  0  0  0  0  0  0
   45.2980   31.3110   49.3470 C   0  0  0  0  0  0  0  0  0  0  0  0
   44.9480   30.3110   48.4500 C   0  0  0  0  0  0  0  0  0  0  0  0
   45.0670   29.1270   45.9690 S   0  0  0  0  0  0  0  0  0  0  0  0
   43.6150   28.7260   46.0150 O   0  0  0  0  0  0  0  0  0  0  0  0
   45.8530   27.8670   46.3080 O   0  0  0  0  0  0  0  0  0  0  0  0
   46.8760   31.4930   45.4900 O   0  0  0  0  0  0  0  0  0  0  0  0
   45.2830   34.2320   43.9130 C   0  0  0  0  0  0  0  0  0  0  0  0
   46.3070   34.8230   43.1490 C   0  0  0  0  0  0  0  0  0  0  0  0
   47.5670   34.2370   43.2010 C   0  0  0  0  0  0  0  0  0  0  0  0
   47.7360   33.1480   43.9720 N   0  0  0  0  0  0  0  0  0  0  0  0
   46.7410   32.6080   44.6890 C   0  0  0  0  0  0  0  0  0  0  0  0
   45.5140   33.1580   44.6530 N   0  0  0  0  0  0  0  0  0  0  0  0
   48.6710   34.8260   42.4140 C   0  0  0  0  0  0  0  0  0  0  0  0
   48.5060   35.3630   41.0690 C   0  0  0  0  0  0  0  0  0  0  0  0
   49.0250   33.9700   41.1780 C   0  0  0  0  0  0  0  0  0  0  0  0
   47.3007   33.1255   47.3354 H   0  0  0  0  0  0  0  0  0  0  0  0
   46.4386   33.1219   49.6343 H   0  0  0  0  0  0  0  0  0  0  0  0
   44.9027   31.2997   50.3735 H   0  0  0  0  0  0  0  0  0  0  0  0
   44.2725   29.5015   48.7636 H   0  0  0  0  0  0  0  0  0  0  0  0
   45.3669   29.6511   44.7393 H   0  0  0  0  0  0  0  0  0  0  0  0
   44.2739   34.6695   43.8952 H   0  0  0  0  0  0  0  0  0  0  0  0
   46.1176   35.7150   42.5339 H   0  0  0  0  0  0  0  0  0  0  0  0
   49.1435   35.2636   43.3058 H   0  0  0  0  0  0  0  0  0  0  0  0
   49.1748   36.1638   40.7204 H   0  0  0  0  0  0  0  0  0  0  0  0
   47.6604   35.8177   40.5321 H   0  0  0  0  0  0  0  0  0  0  0  0
   48.3932   33.1161   40.8922 H   0  0  0  0  0  0  0  0  0  0  0  0
   49.9093   33.4229   40.8192 H   0  0  0  0  0  0  0  0  0  0  0  0
  1  6  2  0
  2  1  1  0
  2  3  2  0
  3  4  1  0
  4  5  2  0
  6  5  1  0
  7  8  2  0
  7  9  2  0
  7  1  1  0
 10  2  1  0
 11 16  2  0
 12 13  2  0
 12 11  1  0
 13 14  1  0
 14 15  2  0
 15 10  1  0
 16 15  1  0
 17 13  1  0
 18 19  1  0
 18 17  1  0
 19 17  1  0
  3 20  1  0
  4 21  1  0
  5 22  1  0
  6 23  1  0
  7 24  1  0
 11 25  1  0
 12 26  1  0
 17 27  1  0
 18 28  1  0
 18 29  1  0
 19 30  1  0
 19 31  1  0
M  ISO  8  20  14  21  14  22  14  23  14  24  11  25  14  26  14  27  13
M  ISO  4  28  13  29  13  30  13  31  13
M  END
>  <minimizedAffinity>  (1) 
-5.11507273

>  <minimizedRMSD>  (1) 
3.31107092

$$$$
