
     RDKit          3D

 37 39  0  0  0  0  0  0  0  0999 V2000
   44.8020   35.0360   44.8550 C   0  0  0  0  0  0  0  0  0  0  0  0
   45.3560   35.3600   43.5910 C   0  0  0  0  0  0  0  0  0  0  0  0
   46.5070   34.7090   43.1860 C   0  0  0  0  0  0  0  0  0  0  0  0
   47.0160   33.8080   44.0350 N   0  0  0  0  0  0  0  0  0  0  0  0
   46.5030   33.5030   45.2130 C   0  0  0  0  0  0  0  0  0  0  0  0
   45.3830   34.1250   45.6270 N   0  0  0  0  0  0  0  0  0  0  0  0
   47.1620   34.9720   41.8940 C   0  0  0  0  0  0  0  0  0  0  0  0
   46.9970   33.8120   40.9170 C   0  0  0  0  0  0  0  0  0  0  0  0
   47.7000   34.1890   39.6720 C   0  0  0  0  0  0  0  0  0  0  0  0
   48.7010   35.0630   39.3840 C   0  0  0  0  0  0  0  0  0  0  0  0
   48.9250   34.9710   38.0440 N   0  0  0  0  0  0  0  0  0  0  0  0
   48.0700   34.0490   37.5150 C   0  0  0  0  0  0  0  0  0  0  0  0
   47.3290   33.5850   38.5360 N   0  0  0  0  0  0  0  0  0  0  0  0
   47.0310   32.5800   46.0760 O   0  0  0  0  0  0  0  0  0  0  0  0
   45.7900   30.5420   46.7750 C   0  0  0  0  0  0  0  0  0  0  0  0
   46.3420   31.7770   46.9580 C   0  0  0  0  0  0  0  0  0  0  0  0
   46.2040   32.3500   48.2270 C   0  0  0  0  0  0  0  0  0  0  0  0
   45.5460   31.7050   49.2520 C   0  0  0  0  0  0  0  0  0  0  0  0
   45.0010   30.4600   49.0360 C   0  0  0  0  0  0  0  0  0  0  0  0
   45.1350   29.8900   47.7780 C   0  0  0  0  0  0  0  0  0  0  0  0
   46.0020   29.8970   45.1730 S   0  0  0  0  0  0  0  0  0  0  0  0
   45.0420   30.5190   44.1780 O   0  0  0  0  0  0  0  0  0  0  0  0
   45.6200   28.4190   45.2200 O   0  0  0  0  0  0  0  0  0  0  0  0
   43.8870   35.5413   45.1978 H   0  0  0  0  0  0  0  0  0  0  0  0
   44.8804   36.1134   42.9459 H   0  0  0  0  0  0  0  0  0  0  0  0
   46.7186   35.8752   41.4495 H   0  0  0  0  0  0  0  0  0  0  0  0
   48.2377   35.1047   42.0818 H   0  0  0  0  0  0  0  0  0  0  0  0
   47.4401   32.8977   41.3385 H   0  0  0  0  0  0  0  0  0  0  0  0
   45.9330   33.6134   40.7211 H   0  0  0  0  0  0  0  0  0  0  0  0
   49.2273   35.7169   40.0949 H   0  0  0  0  0  0  0  0  0  0  0  0
   49.6260   35.5099   37.5157 H   0  0  0  0  0  0  0  0  0  0  0  0
   48.0006   33.7450   36.4601 H   0  0  0  0  0  0  0  0  0  0  0  0
   46.6337   33.3455   48.4122 H   0  0  0  0  0  0  0  0  0  0  0  0
   45.4569   32.1834   50.2385 H   0  0  0  0  0  0  0  0  0  0  0  0
   44.4718   29.9294   49.8413 H   0  0  0  0  0  0  0  0  0  0  0  0
   44.7057   28.8955   47.5865 H   0  0  0  0  0  0  0  0  0  0  0  0
   47.2961   30.1374   44.7929 H   0  0  0  0  0  0  0  0  0  0  0  0
  1  6  2  0
  2  1  1  0
  3  2  2  0
  3  4  1  0
  4  5  2  0
  5  6  1  0
  5 14  1  0
  7  3  1  0
  8  7  1  0
  9  8  1  0
 10  9  2  0
 11 10  1  0
 12 11  1  0
 12 13  2  0
 13  9  1  0
 14 16  1  0
 15 16  2  0
 15 20  1  0
 16 17  1  0
 17 18  2  0
 19 18  1  0
 20 19  2  0
 21 23  2  0
 21 15  1  0
 22 21  2  0
  1 24  1  0
  2 25  1  0
  7 26  1  0
  7 27  1  0
  8 28  1  0
  8 29  1  0
 10 30  1  0
 11 31  1  0
 12 32  1  0
 17 33  1  0
 18 34  1  0
 19 35  1  0
 20 36  1  0
 21 37  1  0
M  ISO  8  24  14  25  14  26   8  27   8  28   8  29   8  30  14  31   9
M  ISO  6  32  14  33  14  34  14  35  14  36  14  37  11
M  END
>  <minimizedAffinity>  (1) 
-5.52517509

>  <minimizedRMSD>  (1) 
1.50844109

$$$$
