
     RDKit          3D

 41 43  0  0  1  0  0  0  0  0999 V2000
   45.3140   34.2860   43.9290 C   0  0  0  0  0  0  0  0  0  0  0  0
   46.3350   34.8280   43.1240 C   0  0  0  0  0  0  0  0  0  0  0  0
   47.5900   34.2480   43.1390 C   0  0  0  0  0  0  0  0  0  0  0  0
   47.7260   33.1860   43.9480 N   0  0  0  0  0  0  0  0  0  0  0  0
   46.7780   32.6710   44.7050 C   0  0  0  0  0  0  0  0  0  0  0  0
   45.5610   33.2220   44.6990 N   0  0  0  0  0  0  0  0  0  0  0  0
   48.7240   34.7390   42.3350 C   0  0  0  0  0  0  0  0  0  0  0  0
   48.2780   35.2080   40.9640 C   0  0  0  0  0  0  0  0  0  0  0  0
   48.0020   34.0100   40.0940 C   0  0  1  0  0  0  0  0  0  0  0  0
   48.2420   34.3290   38.6150 C   0  0  0  0  0  0  0  0  0  0  0  0
   48.5370   32.9550   38.0790 C   0  0  0  0  0  0  0  0  0  0  0  0
   49.0220   32.1690   39.1070 O   0  0  0  0  0  0  0  0  0  0  0  0
   49.0450   32.9280   40.2570 C   0  0  0  0  0  0  0  0  0  0  0  0
   46.9580   31.5740   45.5270 O   0  0  0  0  0  0  0  0  0  0  0  0
   45.5250   30.3180   47.1180 C   0  0  0  0  0  0  0  0  0  0  0  0
   46.3280   31.3640   46.7420 C   0  0  0  0  0  0  0  0  0  0  0  0
   46.5630   32.3610   47.6700 C   0  0  0  0  0  0  0  0  0  0  0  0
   46.0100   32.3140   48.9410 C   0  0  0  0  0  0  0  0  0  0  0  0
   45.2060   31.2540   49.3000 C   0  0  0  0  0  0  0  0  0  0  0  0
   44.9670   30.2500   48.3670 C   0  0  0  0  0  0  0  0  0  0  0  0
   45.2780   29.1060   45.8950 S   0  0  0  0  0  0  0  0  0  0  0  0
   44.6090   29.6770   44.6610 O   0  0  0  0  0  0  0  0  0  0  0  0
   44.2960   28.0800   46.4430 O   0  0  0  0  0  0  0  0  0  0  0  0
   44.3117   34.7393   43.9238 H   0  0  0  0  0  0  0  0  0  0  0  0
   46.1358   35.7042   42.4896 H   0  0  0  0  0  0  0  0  0  0  0  0
   49.1975   35.5799   42.8628 H   0  0  0  0  0  0  0  0  0  0  0  0
   49.4331   33.9090   42.1996 H   0  0  0  0  0  0  0  0  0  0  0  0
   47.3627   35.8102   41.0614 H   0  0  0  0  0  0  0  0  0  0  0  0
   49.0701   35.8201   40.5080 H   0  0  0  0  0  0  0  0  0  0  0  0
   46.9772   33.7235   40.3726 H   0  0  0  0  0  0  0  0  0  0  0  0
   47.3486   34.7648   38.1440 H   0  0  0  0  0  0  0  0  0  0  0  0
   49.0325   35.0712   38.4300 H   0  0  0  0  0  0  0  0  0  0  0  0
   47.6151   32.5096   37.6768 H   0  0  0  0  0  0  0  0  0  0  0  0
   49.2848   33.0208   37.2750 H   0  0  0  0  0  0  0  0  0  0  0  0
   50.0392   33.3790   40.3920 H   0  0  0  0  0  0  0  0  0  0  0  0
   48.8325   32.3081   41.1405 H   0  0  0  0  0  0  0  0  0  0  0  0
   47.2036   33.2116   47.3940 H   0  0  0  0  0  0  0  0  0  0  0  0
   46.2127   33.1208   49.6607 H   0  0  0  0  0  0  0  0  0  0  0  0
   44.7617   31.2026   50.3050 H   0  0  0  0  0  0  0  0  0  0  0  0
   44.3262   29.3967   48.6339 H   0  0  0  0  0  0  0  0  0  0  0  0
   46.5042   28.5873   45.5721 H   0  0  0  0  0  0  0  0  0  0  0  0
  1  6  2  0
  2  3  2  0
  2  1  1  0
  3  4  1  0
  4  5  2  0
  5 14  1  0
  6  5  1  0
  7  3  1  0
  8  7  1  0
  9 13  1  0
  9  8  1  0
 10  9  1  0
 11 10  1  0
 11 12  1  0
 12 13  1  0
 14 16  1  0
 15 20  2  0
 16 15  1  0
 16 17  2  0
 17 18  1  0
 18 19  2  0
 20 19  1  0
 21 23  2  0
 21 15  1  0
 22 21  2  0
  1 24  1  0
  2 25  1  0
  7 26  1  0
  7 27  1  0
  8 28  1  0
  8 29  1  0
  9 30  1  6
 10 31  1  0
 10 32  1  0
 11 33  1  0
 11 34  1  0
 13 35  1  0
 13 36  1  0
 17 37  1  0
 18 38  1  0
 19 39  1  0
 20 40  1  0
 21 41  1  0
M  ISO  8  24  14  25  14  26   8  27   8  28   8  29   8  30  13  31  13
M  ISO  8  32  13  33  13  34  13  35  13  36  13  37  14  38  14  39  14
M  ISO  2  40  14  41  11
M  END
>  <minimizedAffinity>  (1) 
-5.42449856

>  <minimizedRMSD>  (1) 
1.04511642

$$$$
