
     RDKit          3D

 31 32  0  0  1  0  0  0  0  0999 V2000
   47.1770   33.4500   40.7010 O   0  0  0  0  0  0  0  0  0  0  0  0
   49.6430   32.3390   38.3410 C   0  0  0  0  0  0  0  0  0  0  0  0
   49.3030   33.0320   37.1650 C   0  0  0  0  0  0  0  0  0  0  0  0
   48.2050   33.8890   37.2110 C   0  0  0  0  0  0  0  0  0  0  0  0
   47.5260   34.0060   38.3850 N   0  0  0  0  0  0  0  0  0  0  0  0
   47.8660   33.3360   39.4950 C   0  0  0  0  0  0  0  0  0  0  0  0
   48.9260   32.5020   39.4720 N   0  0  0  0  0  0  0  0  0  0  0  0
   50.8250   31.4220   38.2820 C   0  0  0  0  0  0  0  0  0  0  0  0
   51.7240   31.6970   39.2810 F   0  0  0  0  0  0  0  0  0  0  0  0
   50.3690   30.1250   38.3500 F   0  0  0  0  0  0  0  0  0  0  0  0
   51.4340   31.5490   37.0150 F   0  0  0  0  0  0  0  0  0  0  0  0
   45.4800   34.7710   41.8620 C   0  0  1  0  0  0  0  0  0  0  0  0
   45.8680   33.9900   40.6500 C   0  0  2  0  0  0  0  0  0  0  0  0
   44.9610   32.9400   40.3980 O   0  0  0  0  0  0  0  0  0  0  0  0
   45.2020   32.0130   41.4380 C   0  0  0  0  0  0  0  0  0  0  0  0
   44.6650   32.5530   42.7470 C   0  0  1  0  0  0  0  0  0  0  0  0
   44.4560   34.0390   42.7040 C   0  0  1  0  0  0  0  0  0  0  0  0
   46.5900   35.1580   42.6150 O   0  0  0  0  0  0  0  0  0  0  0  0
   43.4120   31.9450   42.9270 O   0  0  0  0  0  0  0  0  0  0  0  0
   44.5840   34.5260   44.0210 O   0  0  0  0  0  0  0  0  0  0  0  0
   49.8842   32.9018   36.2402 H   0  0  0  0  0  0  0  0  0  0  0  0
   47.8949   34.4565   36.3212 H   0  0  0  0  0  0  0  0  0  0  0  0
   45.0007   35.6937   41.5030 H   0  0  0  0  0  0  0  0  0  0  0  0
   45.8426   34.7260   39.8329 H   0  0  0  0  0  0  0  0  0  0  0  0
   44.7004   31.0628   41.2026 H   0  0  0  0  0  0  0  0  0  0  0  0
   46.2856   31.8491   41.5321 H   0  0  0  0  0  0  0  0  0  0  0  0
   45.3804   32.3413   43.5553 H   0  0  0  0  0  0  0  0  0  0  0  0
   43.4654   34.2151   42.2594 H   0  0  0  0  0  0  0  0  0  0  0  0
   46.3770   35.0837   43.5790 H   0  0  0  0  0  0  0  0  0  0  0  0
   43.2252   31.8544   43.8950 H   0  0  0  0  0  0  0  0  0  0  0  0
   44.3923   33.7968   44.6626 H   0  0  0  0  0  0  0  0  0  0  0  0
  2  7  2  0
  3  4  2  0
  3  2  1  0
  4  5  1  0
  5  6  2  0
  6  1  1  0
  7  6  1  0
  8  2  1  0
  8 10  1  0
  8  9  1  0
 11  8  1  0
 12 18  1  0
 12 17  1  0
 13  1  1  0
 13 12  1  0
 14 13  1  0
 14 15  1  0
 15 16  1  0
 16 19  1  0
 17 16  1  0
 17 20  1  0
  3 21  1  0
  4 22  1  0
 12 23  1  6
 13 24  1  6
 15 25  1  0
 15 26  1  0
 16 27  1  1
 17 28  1  6
 18 29  1  0
 19 30  1  0
 20 31  1  0
M  ISO  8  21  14  22  14  23  13  24  13  25  13  26  13  27  13  28  13
M  ISO  3  29   3  30   3  31   3
M  END
>  <minimizedAffinity>  (1) 
-4.17537785

>  <minimizedRMSD>  (1) 
5.41388655

$$$$
