
     RDKit          3D

 47 49  0  0  0  0  0  0  0  0999 V2000
   45.4480   30.1620   47.2600 C   0  0  0  0  0  0  0  0  0  0  0  0
   46.0300   31.2280   46.6600 C   0  0  0  0  0  0  0  0  0  0  0  0
   46.2570   32.3580   47.4190 C   0  0  0  0  0  0  0  0  0  0  0  0
   45.9200   32.4440   48.7490 C   0  0  0  0  0  0  0  0  0  0  0  0
   45.3290   31.3530   49.3470 C   0  0  0  0  0  0  0  0  0  0  0  0
   45.0970   30.2130   48.5910 C   0  0  0  0  0  0  0  0  0  0  0  0
   45.0840   28.8050   46.2170 S   0  0  0  0  0  0  0  0  0  0  0  0
   43.9770   29.0480   45.2730 O   0  0  0  0  0  0  0  0  0  0  0  0
   44.5650   27.6960   47.1630 O   0  0  0  0  0  0  0  0  0  0  0  0
   47.3670   27.9670   47.7790 F   0  0  0  0  0  0  0  0  0  0  0  0
   47.5080   27.7360   46.4530 C   0  0  0  0  0  0  0  0  0  0  0  0
   46.5180   28.0710   45.5520 C   0  0  0  0  0  0  0  0  0  0  0  0
   46.6560   27.8380   44.1900 C   0  0  0  0  0  0  0  0  0  0  0  0
   47.8500   27.2440   43.7660 C   0  0  0  0  0  0  0  0  0  0  0  0
   48.8350   26.9110   44.6720 C   0  0  0  0  0  0  0  0  0  0  0  0
   48.6850   27.1490   46.0210 C   0  0  0  0  0  0  0  0  0  0  0  0
   46.4480   31.3370   45.3390 O   0  0  0  0  0  0  0  0  0  0  0  0
   45.2930   34.2750   43.7610 C   0  0  0  0  0  0  0  0  0  0  0  0
   46.4640   34.7700   43.1480 C   0  0  0  0  0  0  0  0  0  0  0  0
   47.6390   34.0800   43.2890 C   0  0  0  0  0  0  0  0  0  0  0  0
   47.5800   32.9570   44.0200 N   0  0  0  0  0  0  0  0  0  0  0  0
   46.4860   32.4920   44.5940 C   0  0  0  0  0  0  0  0  0  0  0  0
   45.3400   33.1510   44.4650 N   0  0  0  0  0  0  0  0  0  0  0  0
   48.9070   34.4980   42.6800 C   0  0  0  0  0  0  0  0  0  0  0  0
   48.7510   35.6590   41.7440 C   0  0  0  0  0  0  0  0  0  0  0  0
   48.6120   35.2650   40.3420 C   0  0  0  0  0  0  0  0  0  0  0  0
   48.0400   34.3540   39.5670 C   0  0  0  0  0  0  0  0  0  0  0  0
   48.2300   34.1880   38.0720 C   0  0  0  0  0  0  0  0  0  0  0  0
   46.7283   33.2281   46.9387 H   0  0  0  0  0  0  0  0  0  0  0  0
   46.1176   33.3620   49.3219 H   0  0  0  0  0  0  0  0  0  0  0  0
   45.0449   31.3851   50.4092 H   0  0  0  0  0  0  0  0  0  0  0  0
   44.6260   29.3373   49.0613 H   0  0  0  0  0  0  0  0  0  0  0  0
   45.8630   28.1080   43.4770 H   0  0  0  0  0  0  0  0  0  0  0  0
   48.0049   27.0400   42.6962 H   0  0  0  0  0  0  0  0  0  0  0  0
   49.7626   26.4442   44.3091 H   0  0  0  0  0  0  0  0  0  0  0  0
   49.4780   26.8802   46.7344 H   0  0  0  0  0  0  0  0  0  0  0  0
   44.3432   34.8198   43.6554 H   0  0  0  0  0  0  0  0  0  0  0  0
   46.4334   35.7008   42.5627 H   0  0  0  0  0  0  0  0  0  0  0  0
   49.6035   34.7848   43.4817 H   0  0  0  0  0  0  0  0  0  0  0  0
   49.2860   33.6491   42.0921 H   0  0  0  0  0  0  0  0  0  0  0  0
   47.8540   36.2242   42.0372 H   0  0  0  0  0  0  0  0  0  0  0  0
   49.6681   36.2615   41.8209 H   0  0  0  0  0  0  0  0  0  0  0  0
   49.1780   35.9679   39.7131 H   0  0  0  0  0  0  0  0  0  0  0  0
   47.3573   33.6457   40.0593 H   0  0  0  0  0  0  0  0  0  0  0  0
   49.0461   33.4750   37.8830 H   0  0  0  0  0  0  0  0  0  0  0  0
   47.3000   33.8079   37.6242 H   0  0  0  0  0  0  0  0  0  0  0  0
   48.4818   35.1606   37.6242 H   0  0  0  0  0  0  0  0  0  0  0  0
  1  6  2  0
  2  1  1  0
  2  3  2  0
  3  4  1  0
  4  5  2  0
  6  5  1  0
  7  9  2  0
  7  1  1  0
  8  7  2  0
 11 10  1  0
 12  7  1  0
 12 11  2  0
 13 12  1  0
 14 13  2  0
 14 15  1  0
 15 16  2  0
 16 11  1  0
 17  2  1  0
 18 23  2  0
 19 20  2  0
 19 18  1  0
 20 21  1  0
 21 22  2  0
 22 17  1  0
 23 22  1  0
 24 20  1  0
 25 24  1  0
 26 25  1  0
 27 26  2  0
 28 27  1  0
  3 29  1  0
  4 30  1  0
  5 31  1  0
  6 32  1  0
 13 33  1  0
 14 34  1  0
 15 35  1  0
 16 36  1  0
 18 37  1  0
 19 38  1  0
 24 39  1  0
 24 40  1  0
 25 41  1  0
 25 42  1  0
 26 43  1  0
 27 44  1  0
 28 45  1  0
 28 46  1  0
 28 47  1  0
M  ISO  8  29  14  30  14  31  14  32  14  33  14  34  14  35  14  36  14
M  ISO  8  37  14  38  14  39   8  40   8  41   8  42   8  45   8  46   8
M  ISO  1  47   8
M  END
>  <minimizedAffinity>  (1) 
-5.62964344

>  <minimizedRMSD>  (1) 
1.20415902

$$$$
