
     RDKit          3D

 46 48  0  0  0  0  0  0  0  0999 V2000
   46.5130   31.3440   45.3870 O   0  0  0  0  0  0  0  0  0  0  0  0
   45.4650   30.1780   47.2900 C   0  0  0  0  0  0  0  0  0  0  0  0
   46.0590   31.2410   46.7000 C   0  0  0  0  0  0  0  0  0  0  0  0
   46.2630   32.3770   47.4550 C   0  0  0  0  0  0  0  0  0  0  0  0
   45.8890   32.4710   48.7760 C   0  0  0  0  0  0  0  0  0  0  0  0
   45.2840   31.3790   49.3680 C   0  0  0  0  0  0  0  0  0  0  0  0
   45.0790   30.2370   48.6100 C   0  0  0  0  0  0  0  0  0  0  0  0
   45.1430   28.8100   46.2500 S   0  0  0  0  0  0  0  0  0  0  0  0
   44.2410   29.1010   45.1230 O   0  0  0  0  0  0  0  0  0  0  0  0
   44.3580   27.8090   47.1310 O   0  0  0  0  0  0  0  0  0  0  0  0
   46.5860   27.8960   45.8770 C   0  0  0  0  0  0  0  0  0  0  0  0
   47.3310   27.3420   46.8970 C   0  0  0  0  0  0  0  0  0  0  0  0
   48.4530   26.6380   46.5140 C   0  0  0  0  0  0  0  0  0  0  0  0
   48.7440   26.5400   45.1690 C   0  0  0  0  0  0  0  0  0  0  0  0
   47.9900   27.0990   44.1580 C   0  0  0  0  0  0  0  0  0  0  0  0
   46.9090   27.7740   44.5920 N   0  0  0  0  0  0  0  0  0  0  0  0
   45.3070   34.2440   43.7740 C   0  0  0  0  0  0  0  0  0  0  0  0
   46.4670   34.7460   43.1490 C   0  0  0  0  0  0  0  0  0  0  0  0
   47.6540   34.0770   43.2920 C   0  0  0  0  0  0  0  0  0  0  0  0
   47.6200   32.9610   44.0390 N   0  0  0  0  0  0  0  0  0  0  0  0
   46.5310   32.4890   44.6260 C   0  0  0  0  0  0  0  0  0  0  0  0
   45.3740   33.1300   44.4950 N   0  0  0  0  0  0  0  0  0  0  0  0
   48.9100   34.5020   42.6670 C   0  0  0  0  0  0  0  0  0  0  0  0
   48.7320   35.6540   41.7260 C   0  0  0  0  0  0  0  0  0  0  0  0
   48.6130   35.2700   40.3240 C   0  0  0  0  0  0  0  0  0  0  0  0
   48.0460   34.3580   39.5450 C   0  0  0  0  0  0  0  0  0  0  0  0
   48.2280   34.1960   38.0470 C   0  0  0  0  0  0  0  0  0  0  0  0
   46.7451   33.2448   46.9811 H   0  0  0  0  0  0  0  0  0  0  0  0
   46.0675   33.3939   49.3472 H   0  0  0  0  0  0  0  0  0  0  0  0
   44.9707   31.4154   50.4218 H   0  0  0  0  0  0  0  0  0  0  0  0
   44.5990   29.3616   49.0717 H   0  0  0  0  0  0  0  0  0  0  0  0
   47.0468   27.4551   47.9536 H   0  0  0  0  0  0  0  0  0  0  0  0
   49.1024   26.1645   47.2650 H   0  0  0  0  0  0  0  0  0  0  0  0
   49.6429   25.9748   44.8817 H   0  0  0  0  0  0  0  0  0  0  0  0
   48.2487   27.0020   43.0933 H   0  0  0  0  0  0  0  0  0  0  0  0
   44.3489   34.7734   43.6649 H   0  0  0  0  0  0  0  0  0  0  0  0
   46.4192   35.6680   42.5510 H   0  0  0  0  0  0  0  0  0  0  0  0
   49.6126   34.8009   43.4589 H   0  0  0  0  0  0  0  0  0  0  0  0
   49.2911   33.6527   42.0809 H   0  0  0  0  0  0  0  0  0  0  0  0
   47.8190   36.1960   42.0136 H   0  0  0  0  0  0  0  0  0  0  0  0
   49.6388   36.2712   41.8080 H   0  0  0  0  0  0  0  0  0  0  0  0
   49.1868   35.9738   39.7032 H   0  0  0  0  0  0  0  0  0  0  0  0
   47.3715   33.6423   40.0378 H   0  0  0  0  0  0  0  0  0  0  0  0
   49.0366   33.4763   37.8516 H   0  0  0  0  0  0  0  0  0  0  0  0
   47.2925   33.8263   37.6018 H   0  0  0  0  0  0  0  0  0  0  0  0
   48.4868   35.1680   37.6018 H   0  0  0  0  0  0  0  0  0  0  0  0
  1  3  1  0
  2  7  2  0
  3  2  1  0
  3  4  2  0
  4  5  1  0
  5  6  2  0
  7  6  1  0
  8 10  2  0
  8  2  1  0
  9  8  2  0
 11  8  1  0
 11 12  2  0
 13 12  1  0
 14 13  2  0
 15 16  2  0
 15 14  1  0
 16 11  1  0
 17 22  2  0
 18 19  2  0
 18 17  1  0
 19 20  1  0
 20 21  2  0
 21  1  1  0
 22 21  1  0
 23 19  1  0
 24 23  1  0
 25 24  1  0
 26 25  2  0
 27 26  1  0
  4 28  1  0
  5 29  1  0
  6 30  1  0
  7 31  1  0
 12 32  1  0
 13 33  1  0
 14 34  1  0
 15 35  1  0
 17 36  1  0
 18 37  1  0
 23 38  1  0
 23 39  1  0
 24 40  1  0
 24 41  1  0
 25 42  1  0
 26 43  1  0
 27 44  1  0
 27 45  1  0
 27 46  1  0
M  ISO  8  28  14  29  14  30  14  31  14  32  14  33  14  34  14  35  14
M  ISO  8  36  14  37  14  38   8  39   8  40   8  41   8  44   8  45   8
M  ISO  1  46   8
M  END
>  <minimizedAffinity>  (1) 
-5.56077003

>  <minimizedRMSD>  (1) 
1.29005432

$$$$
