
     RDKit          3D

 44 46  0  0  0  0  0  0  0  0999 V2000
   46.5020   31.3330   45.3670 O   0  0  0  0  0  0  0  0  0  0  0  0
   45.4570   30.1680   47.2740 C   0  0  0  0  0  0  0  0  0  0  0  0
   46.0550   31.2300   46.6840 C   0  0  0  0  0  0  0  0  0  0  0  0
   46.2700   32.3620   47.4450 C   0  0  0  0  0  0  0  0  0  0  0  0
   45.9050   32.4570   48.7680 C   0  0  0  0  0  0  0  0  0  0  0  0
   45.2970   31.3680   49.3530 C   0  0  0  0  0  0  0  0  0  0  0  0
   45.0770   30.2260   48.5990 C   0  0  0  0  0  0  0  0  0  0  0  0
   45.1090   28.8100   46.2320 S   0  0  0  0  0  0  0  0  0  0  0  0
   44.1680   29.1020   45.1390 O   0  0  0  0  0  0  0  0  0  0  0  0
   44.3710   27.7900   47.1340 O   0  0  0  0  0  0  0  0  0  0  0  0
   46.5420   27.9100   45.8030 C   0  0  0  0  0  0  0  0  0  0  0  0
   47.0740   27.7490   44.5420 C   0  0  0  0  0  0  0  0  0  0  0  0
   48.2070   26.9620   44.6840 C   0  0  0  0  0  0  0  0  0  0  0  0
   48.3300   26.6720   46.0110 N   0  0  0  0  0  0  0  0  0  0  0  0
   47.3180   27.2510   46.6770 N   0  0  0  0  0  0  0  0  0  0  0  0
   45.3010   34.2440   43.7670 C   0  0  0  0  0  0  0  0  0  0  0  0
   46.4620   34.7480   43.1500 C   0  0  0  0  0  0  0  0  0  0  0  0
   47.6490   34.0770   43.2930 C   0  0  0  0  0  0  0  0  0  0  0  0
   47.6060   32.9610   44.0320 N   0  0  0  0  0  0  0  0  0  0  0  0
   46.5210   32.4830   44.6120 C   0  0  0  0  0  0  0  0  0  0  0  0
   45.3630   33.1260   44.4800 N   0  0  0  0  0  0  0  0  0  0  0  0
   48.9110   34.4980   42.6730 C   0  0  0  0  0  0  0  0  0  0  0  0
   48.7380   35.6550   41.7380 C   0  0  0  0  0  0  0  0  0  0  0  0
   48.6150   35.2650   40.3310 C   0  0  0  0  0  0  0  0  0  0  0  0
   48.0440   34.3540   39.5530 C   0  0  0  0  0  0  0  0  0  0  0  0
   48.2230   34.1900   38.0570 C   0  0  0  0  0  0  0  0  0  0  0  0
   46.7556   33.2279   46.9714 H   0  0  0  0  0  0  0  0  0  0  0  0
   46.0932   33.3761   49.3423 H   0  0  0  0  0  0  0  0  0  0  0  0
   44.9891   31.4044   50.4084 H   0  0  0  0  0  0  0  0  0  0  0  0
   44.5929   29.3542   49.0633 H   0  0  0  0  0  0  0  0  0  0  0  0
   46.6768   28.1644   43.6041 H   0  0  0  0  0  0  0  0  0  0  0  0
   48.8798   26.6335   43.8781 H   0  0  0  0  0  0  0  0  0  0  0  0
   49.0769   26.1021   46.4332 H   0  0  0  0  0  0  0  0  0  0  0  0
   44.3442   34.7758   43.6584 H   0  0  0  0  0  0  0  0  0  0  0  0
   46.4169   35.6736   42.5574 H   0  0  0  0  0  0  0  0  0  0  0  0
   49.6134   34.7898   43.4677 H   0  0  0  0  0  0  0  0  0  0  0  0
   49.2915   33.6497   42.0850 H   0  0  0  0  0  0  0  0  0  0  0  0
   47.8283   36.2016   42.0272 H   0  0  0  0  0  0  0  0  0  0  0  0
   49.6445   36.2725   41.8212 H   0  0  0  0  0  0  0  0  0  0  0  0
   49.1916   35.9648   39.7082 H   0  0  0  0  0  0  0  0  0  0  0  0
   47.3678   33.6410   40.0473 H   0  0  0  0  0  0  0  0  0  0  0  0
   49.0211   33.4588   37.8612 H   0  0  0  0  0  0  0  0  0  0  0  0
   47.2822   33.8339   37.6120 H   0  0  0  0  0  0  0  0  0  0  0  0
   48.4956   35.1583   37.6120 H   0  0  0  0  0  0  0  0  0  0  0  0
  1  3  1  0
  2  7  2  0
  3  2  1  0
  3  4  2  0
  4  5  1  0
  5  6  2  0
  7  6  1  0
  8 10  2  0
  8  2  1  0
  9  8  2  0
 11  8  1  0
 11 15  2  0
 12 13  2  0
 12 11  1  0
 13 14  1  0
 14 15  1  0
 16 21  2  0
 17 18  2  0
 17 16  1  0
 18 19  1  0
 19 20  2  0
 20  1  1  0
 21 20  1  0
 22 18  1  0
 23 22  1  0
 24 23  1  0
 25 24  2  0
 26 25  1  0
  4 27  1  0
  5 28  1  0
  6 29  1  0
  7 30  1  0
 12 31  1  0
 13 32  1  0
 14 33  1  0
 16 34  1  0
 17 35  1  0
 22 36  1  0
 22 37  1  0
 23 38  1  0
 23 39  1  0
 24 40  1  0
 25 41  1  0
 26 42  1  0
 26 43  1  0
 26 44  1  0
M  ISO  8  27  14  28  14  29  14  30  14  31  14  32  14  33   9  34  14
M  ISO  8  35  14  36   8  37   8  38   8  39   8  42   8  43   8  44   8
M  END
>  <minimizedAffinity>  (1) 
-5.5176158

>  <minimizedRMSD>  (1) 
1.11131644

$$$$
