
     RDKit          3D

 23 24  0  0  0  0  0  0  0  0999 V2000
   46.8390   34.6200   41.7270 C   0  0  0  0  0  0  0  0  0  0  0  0
   45.3290   35.9320   43.1240 C   0  0  0  0  0  0  0  0  0  0  0  0
   46.1300   34.8030   42.9720 C   0  0  0  0  0  0  0  0  0  0  0  0
   46.1970   33.9110   44.0440 C   0  0  0  0  0  0  0  0  0  0  0  0
   45.4880   34.1820   45.1640 N   0  0  0  0  0  0  0  0  0  0  0  0
   44.7140   35.2900   45.2820 C   0  0  0  0  0  0  0  0  0  0  0  0
   44.6340   36.1700   44.2580 N   0  0  0  0  0  0  0  0  0  0  0  0
   48.1270   35.4190   41.7720 C   0  0  0  0  0  0  0  0  0  0  0  0
   49.2940   34.4940   41.9900 C   0  0  0  0  0  0  0  0  0  0  0  0
   49.2540   33.2150   41.4260 C   0  0  0  0  0  0  0  0  0  0  0  0
   50.4490   32.6050   41.7930 C   0  0  0  0  0  0  0  0  0  0  0  0
   51.1460   33.5040   42.5400 N   0  0  0  0  0  0  0  0  0  0  0  0
   50.4520   34.6400   42.6600 N   0  0  0  0  0  0  0  0  0  0  0  0
   46.2154   34.9719   40.8920 H   0  0  0  0  0  0  0  0  0  0  0  0
   47.0672   33.5538   41.5818 H   0  0  0  0  0  0  0  0  0  0  0  0
   45.2600   36.6522   42.2954 H   0  0  0  0  0  0  0  0  0  0  0  0
   46.8155   33.0037   43.9791 H   0  0  0  0  0  0  0  0  0  0  0  0
   44.1519   35.4725   46.2098 H   0  0  0  0  0  0  0  0  0  0  0  0
   48.2581   35.9541   40.8199 H   0  0  0  0  0  0  0  0  0  0  0  0
   48.0771   36.1417   42.5998 H   0  0  0  0  0  0  0  0  0  0  0  0
   48.4458   32.7816   40.8186 H   0  0  0  0  0  0  0  0  0  0  0  0
   50.7704   31.5867   41.5289 H   0  0  0  0  0  0  0  0  0  0  0  0
   52.0740   33.3337   42.9531 H   0  0  0  0  0  0  0  0  0  0  0  0
  1  8  1  0
  1  3  1  0
  2  7  2  0
  3  2  1  0
  3  4  2  0
  4  5  1  0
  5  6  2  0
  7  6  1  0
  8  9  1  0
  9 13  2  0
 10 11  2  0
 10  9  1  0
 11 12  1  0
 12 13  1  0
  1 14  1  0
  1 15  1  0
  2 16  1  0
  4 17  1  0
  6 18  1  0
  8 19  1  0
  8 20  1  0
 10 21  1  0
 11 22  1  0
 12 23  1  0
M  ISO  8  14   8  15   8  16  14  17  14  18  14  19   8  20   8  21  14
M  ISO  2  22  14  23   9
M  END
>  <minimizedAffinity>  (1) 
-4.67273378

>  <minimizedRMSD>  (1) 
2.59088135

$$$$
