
     RDKit          3D

 29 31  0  0  0  0  0  0  0  0999 V2000
   47.5030   34.8670   41.6390 C   0  0  0  0  0  0  0  0  0  0  0  0
   49.8070   34.2790   42.5160 C   0  0  0  0  0  0  0  0  0  0  0  0
   48.7590   34.0710   41.6750 C   0  0  0  0  0  0  0  0  0  0  0  0
   48.7830   33.0450   40.7370 C   0  0  0  0  0  0  0  0  0  0  0  0
   49.8620   32.1860   40.6060 C   0  0  0  0  0  0  0  0  0  0  0  0
   50.1510   31.1450   39.8160 N   0  0  0  0  0  0  0  0  0  0  0  0
   51.3690   30.7010   40.1580 C   0  0  0  0  0  0  0  0  0  0  0  0
   51.8490   31.4640   41.1630 N   0  0  0  0  0  0  0  0  0  0  0  0
   50.9220   32.3980   41.4580 C   0  0  0  0  0  0  0  0  0  0  0  0
   50.8960   33.4220   42.3940 C   0  0  0  0  0  0  0  0  0  0  0  0
   46.5500   34.1390   40.6800 C   0  0  0  0  0  0  0  0  0  0  0  0
   44.1570   34.0920   40.2150 C   0  0  0  0  0  0  0  0  0  0  0  0
   45.2010   34.4860   41.0510 C   0  0  0  0  0  0  0  0  0  0  0  0
   44.8600   35.1960   42.2030 C   0  0  0  0  0  0  0  0  0  0  0  0
   43.5390   35.4580   42.4400 N   0  0  0  0  0  0  0  0  0  0  0  0
   42.5580   35.0630   41.6120 C   0  0  0  0  0  0  0  0  0  0  0  0
   42.8660   34.3710   40.4840 N   0  0  0  0  0  0  0  0  0  0  0  0
   47.0601   34.9230   42.6444 H   0  0  0  0  0  0  0  0  0  0  0  0
   47.6951   35.8964   41.3021 H   0  0  0  0  0  0  0  0  0  0  0  0
   49.7943   35.0891   43.2600 H   0  0  0  0  0  0  0  0  0  0  0  0
   47.9145   32.9106   40.0755 H   0  0  0  0  0  0  0  0  0  0  0  0
   49.5468   30.7553   39.0785 H   0  0  0  0  0  0  0  0  0  0  0  0
   51.8927   29.8520   39.6945 H   0  0  0  0  0  0  0  0  0  0  0  0
   51.7615   33.5601   43.0587 H   0  0  0  0  0  0  0  0  0  0  0  0
   46.6932   33.0516   40.7641 H   0  0  0  0  0  0  0  0  0  0  0  0
   46.7508   34.4360   39.6401 H   0  0  0  0  0  0  0  0  0  0  0  0
   44.3964   33.5312   39.2995 H   0  0  0  0  0  0  0  0  0  0  0  0
   45.6359   35.5370   42.9042 H   0  0  0  0  0  0  0  0  0  0  0  0
   41.5094   35.2988   41.8462 H   0  0  0  0  0  0  0  0  0  0  0  0
  1  3  1  0
  3  2  2  0
  4  3  1  0
  5  4  2  0
  5  9  1  0
  6  7  1  0
  6  5  1  0
  7  8  2  0
  8  9  1  0
  9 10  2  0
 10  2  1  0
 11 13  1  0
 11  1  1  0
 12 17  2  0
 12 13  1  0
 13 14  2  0
 14 15  1  0
 16 15  2  0
 17 16  1  0
  1 18  1  0
  1 19  1  0
  2 20  1  0
  4 21  1  0
  6 22  1  0
  7 23  1  0
 10 24  1  0
 11 25  1  0
 11 26  1  0
 12 27  1  0
 14 28  1  0
 16 29  1  0
M  ISO  8  18   8  19   8  20  14  21  14  22   9  23  14  24  14  25   8
M  ISO  4  26   8  27  14  28  14  29  14
M  END
>  <minimizedAffinity>  (1) 
-4.37016869

>  <minimizedRMSD>  (1) 
4.50622511

$$$$
