
     RDKit          3D

 30 31  0  0  0  0  0  0  0  0999 V2000
   46.6300   34.6550   41.8110 C   0  0  0  0  0  0  0  0  0  0  0  0
   45.1640   35.9720   43.3150 C   0  0  0  0  0  0  0  0  0  0  0  0
   45.9680   34.8230   43.1100 C   0  0  0  0  0  0  0  0  0  0  0  0
   46.0880   33.9060   44.1580 C   0  0  0  0  0  0  0  0  0  0  0  0
   45.4250   34.1790   45.3070 N   0  0  0  0  0  0  0  0  0  0  0  0
   44.6750   35.2770   45.4650 C   0  0  0  0  0  0  0  0  0  0  0  0
   44.5390   36.1830   44.4700 N   0  0  0  0  0  0  0  0  0  0  0  0
   47.9550   35.3760   41.8710 C   0  0  0  0  0  0  0  0  0  0  0  0
   49.0590   34.5830   41.3640 N   0  0  0  0  0  0  0  0  0  0  0  0
   49.9230   34.3560   42.5240 C   0  0  0  0  0  0  0  0  0  0  0  0
   50.9090   33.2470   42.3230 C   0  0  0  0  0  0  0  0  0  0  0  0
   50.2640   32.0040   41.9360 N   0  0  0  0  0  0  0  0  0  0  0  0
   49.6060   32.2710   40.6780 C   0  0  0  0  0  0  0  0  0  0  0  0
   48.5400   33.3220   40.9100 C   0  0  0  0  0  0  0  0  0  0  0  0
   46.0055   35.0856   41.0144 H   0  0  0  0  0  0  0  0  0  0  0  0
   46.7831   33.5877   41.5932 H   0  0  0  0  0  0  0  0  0  0  0  0
   45.0546   36.7047   42.5018 H   0  0  0  0  0  0  0  0  0  0  0  0
   46.6981   32.9967   44.0535 H   0  0  0  0  0  0  0  0  0  0  0  0
   44.1597   35.4453   46.4222 H   0  0  0  0  0  0  0  0  0  0  0  0
   47.8805   36.2954   41.2718 H   0  0  0  0  0  0  0  0  0  0  0  0
   48.1641   35.5895   42.9296 H   0  0  0  0  0  0  0  0  0  0  0  0
   50.4780   35.2826   42.7321 H   0  0  0  0  0  0  0  0  0  0  0  0
   49.2723   34.0642   43.3615 H   0  0  0  0  0  0  0  0  0  0  0  0
   51.6162   33.5403   41.5331 H   0  0  0  0  0  0  0  0  0  0  0  0
   51.4257   33.0765   43.2790 H   0  0  0  0  0  0  0  0  0  0  0  0
   50.9647   31.2577   41.8220 H   0  0  0  0  0  0  0  0  0  0  0  0
   49.1421   31.3487   40.2982 H   0  0  0  0  0  0  0  0  0  0  0  0
   50.3364   32.6302   39.9380 H   0  0  0  0  0  0  0  0  0  0  0  0
   48.0043   33.4877   39.9636 H   0  0  0  0  0  0  0  0  0  0  0  0
   47.8817   32.9412   41.7047 H   0  0  0  0  0  0  0  0  0  0  0  0
  1  8  1  0
  1  3  1  0
  2  7  2  0
  3  2  1  0
  3  4  2  0
  4  5  1  0
  5  6  2  0
  7  6  1  0
  9  8  1  0
  9 10  1  0
 11 10  1  0
 12 11  1  0
 13 14  1  0
 13 12  1  0
 14  9  1  0
  1 15  1  0
  1 16  1  0
  2 17  1  0
  4 18  1  0
  6 19  1  0
  8 20  1  0
  8 21  1  0
 10 22  1  0
 10 23  1  0
 11 24  1  0
 11 25  1  0
 12 26  1  0
 13 27  1  0
 13 28  1  0
 14 29  1  0
 14 30  1  0
M  ISO  8  15   8  16   8  17  14  18  14  19  14  20   8  21   8  22  13
M  ISO  8  23  13  24  13  25  13  26   5  27  13  28  13  29  13  30  13
M  END
>  <minimizedAffinity>  (1) 
-4.26759577

>  <minimizedRMSD>  (1) 
2.37432075

$$$$
