
     RDKit          3D

 45 48  0  0  0  0  0  0  0  0999 V2000
   46.3460   31.5640   45.9530 C   0  0  0  0  0  0  0  0  0  0  0  0
   47.3570   31.9730   48.1780 C   0  0  0  0  0  0  0  0  0  0  0  0
   47.3060   31.2280   46.9890 C   0  0  0  0  0  0  0  0  0  0  0  0
   48.2140   30.1890   46.8970 C   0  0  0  0  0  0  0  0  0  0  0  0
   49.0660   29.9540   47.9090 N   0  0  0  0  0  0  0  0  0  0  0  0
   49.1090   30.6590   49.0250 C   0  0  0  0  0  0  0  0  0  0  0  0
   48.2480   31.6510   49.1240 N   0  0  0  0  0  0  0  0  0  0  0  0
   49.9590   30.5410   50.2050 C   0  0  0  0  0  0  0  0  0  0  0  0
   50.0550   29.3810   50.9750 C   0  0  0  0  0  0  0  0  0  0  0  0
   50.8400   29.2440   52.0850 C   0  0  0  0  0  0  0  0  0  0  0  0
   51.6110   30.3000   52.5090 C   0  0  0  0  0  0  0  0  0  0  0  0
   51.5690   31.4780   51.7980 C   0  0  0  0  0  0  0  0  0  0  0  0
   52.3540   32.4860   52.2680 C   0  0  0  0  0  0  0  0  0  0  0  0
   52.3710   33.6950   51.6200 C   0  0  0  0  0  0  0  0  0  0  0  0
   51.5670   33.8280   50.4880 C   0  0  0  0  0  0  0  0  0  0  0  0
   50.8000   32.7660   50.0730 C   0  0  0  0  0  0  0  0  0  0  0  0
   50.7590   31.5440   50.6980 C   0  0  0  0  0  0  0  0  0  0  0  0
   47.0100   32.5340   44.9960 C   0  0  0  0  0  0  0  0  0  0  0  0
   46.3910   34.3760   43.4920 C   0  0  0  0  0  0  0  0  0  0  0  0
   46.2200   33.7400   44.7070 C   0  0  0  0  0  0  0  0  0  0  0  0
   45.3460   34.1770   45.6660 C   0  0  0  0  0  0  0  0  0  0  0  0
   44.6050   35.3030   45.4040 C   0  0  0  0  0  0  0  0  0  0  0  0
   44.7020   35.9980   44.2380 C   0  0  0  0  0  0  0  0  0  0  0  0
   45.6070   35.5020   43.3060 C   0  0  0  0  0  0  0  0  0  0  0  0
   47.4960   33.8500   42.2450 S   0  0  0  0  0  0  0  0  0  0  0  0
   48.9080   34.3350   42.4960 O   0  0  0  0  0  0  0  0  0  0  0  0
   47.1010   34.5150   40.9460 O   0  0  0  0  0  0  0  0  0  0  0  0
   46.0454   30.6539   45.4132 H   0  0  0  0  0  0  0  0  0  0  0  0
   45.4484   32.0192   46.3969 H   0  0  0  0  0  0  0  0  0  0  0  0
   46.6684   32.8170   48.3315 H   0  0  0  0  0  0  0  0  0  0  0  0
   48.2387   29.5564   45.9974 H   0  0  0  0  0  0  0  0  0  0  0  0
   49.4544   28.5130   50.6655 H   0  0  0  0  0  0  0  0  0  0  0  0
   50.8549   28.2926   52.6369 H   0  0  0  0  0  0  0  0  0  0  0  0
   52.2495   30.2055   53.3997 H   0  0  0  0  0  0  0  0  0  0  0  0
   52.9726   32.3316   53.1644 H   0  0  0  0  0  0  0  0  0  0  0  0
   52.9944   34.5271   51.9791 H   0  0  0  0  0  0  0  0  0  0  0  0
   51.5470   34.7765   49.9313 H   0  0  0  0  0  0  0  0  0  0  0  0
   50.1756   32.9044   49.1781 H   0  0  0  0  0  0  0  0  0  0  0  0
   47.9687   32.8478   45.4346 H   0  0  0  0  0  0  0  0  0  0  0  0
   47.1289   32.0007   44.0413 H   0  0  0  0  0  0  0  0  0  0  0  0
   45.2403   33.6406   46.6205 H   0  0  0  0  0  0  0  0  0  0  0  0
   43.9015   35.6592   46.1710 H   0  0  0  0  0  0  0  0  0  0  0  0
   44.1004   36.8983   44.0443 H   0  0  0  0  0  0  0  0  0  0  0  0
   45.7072   36.0426   42.3533 H   0  0  0  0  0  0  0  0  0  0  0  0
   47.4457   32.4812   42.2188 H   0  0  0  0  0  0  0  0  0  0  0  0
  1  3  1  0
  2  7  2  0
  3  2  1  0
  4  3  2  0
  4  5  1  0
  5  6  2  0
  6  7  1  0
  6  8  1  0
  8 17  1  0
  8  9  2  0
  9 10  1  0
 10 11  2  0
 12 13  2  0
 12 11  1  0
 14 13  1  0
 15 14  2  0
 16 15  1  0
 16 17  2  0
 17 12  1  0
 18  1  1  0
 19 20  2  0
 20 18  1  0
 20 21  1  0
 22 21  2  0
 23 22  1  0
 24 19  1  0
 24 23  2  0
 25 26  2  0
 25 19  1  0
 27 25  2  0
  1 28  1  0
  1 29  1  0
  2 30  1  0
  4 31  1  0
  9 32  1  0
 10 33  1  0
 11 34  1  0
 13 35  1  0
 14 36  1  0
 15 37  1  0
 16 38  1  0
 18 39  1  0
 18 40  1  0
 21 41  1  0
 22 42  1  0
 23 43  1  0
 24 44  1  0
 25 45  1  0
M  ISO  8  28   8  29   8  30  14  31  14  32  14  33  14  34  14  35  14
M  ISO  8  36  14  37  14  38  14  39   8  40   8  41  14  42  14  43  14
M  ISO  2  44  14  45  11
M  END
>  <minimizedAffinity>  (1) 
-6.78873682

>  <minimizedRMSD>  (1) 
0.388104975

$$$$
