
     RDKit          3D

 44 47  0  0  0  0  0  0  0  0999 V2000
   46.3560   31.6650   45.5500 C   0  0  0  0  0  0  0  0  0  0  0  0
   47.3670   32.3590   47.7110 C   0  0  0  0  0  0  0  0  0  0  0  0
   47.2340   31.3920   46.6790 C   0  0  0  0  0  0  0  0  0  0  0  0
   47.9730   30.2140   46.7990 C   0  0  0  0  0  0  0  0  0  0  0  0
   48.7760   30.0580   47.8890 N   0  0  0  0  0  0  0  0  0  0  0  0
   48.8750   30.9920   48.8390 C   0  0  0  0  0  0  0  0  0  0  0  0
   48.1840   32.1260   48.7590 N   0  0  0  0  0  0  0  0  0  0  0  0
   49.7530   30.7700   49.9840 C   0  0  0  0  0  0  0  0  0  0  0  0
   49.9440   29.5040   50.4990 C   0  0  0  0  0  0  0  0  0  0  0  0
   50.7690   29.2800   51.5800 C   0  0  0  0  0  0  0  0  0  0  0  0
   51.4340   30.3260   52.1840 C   0  0  0  0  0  0  0  0  0  0  0  0
   52.2190   29.9910   53.2390 N   0  0  0  0  0  0  0  0  0  0  0  0
   52.8970   30.9860   53.8710 C   0  0  0  0  0  0  0  0  0  0  0  0
   52.7390   32.2710   53.3940 C   0  0  0  0  0  0  0  0  0  0  0  0
   51.9440   32.6170   52.3250 C   0  0  0  0  0  0  0  0  0  0  0  0
   51.2550   31.6090   51.6820 C   0  0  0  0  0  0  0  0  0  0  0  0
   50.4240   31.8140   50.5980 C   0  0  0  0  0  0  0  0  0  0  0  0
   47.0760   32.6360   44.6320 C   0  0  0  0  0  0  0  0  0  0  0  0
   46.5400   34.5360   43.1620 C   0  0  0  0  0  0  0  0  0  0  0  0
   46.2850   33.8530   44.3380 C   0  0  0  0  0  0  0  0  0  0  0  0
   45.3430   34.2480   45.2510 C   0  0  0  0  0  0  0  0  0  0  0  0
   44.6110   35.3820   44.9830 C   0  0  0  0  0  0  0  0  0  0  0  0
   44.7880   36.1200   43.8560 C   0  0  0  0  0  0  0  0  0  0  0  0
   45.7640   35.6620   42.9690 C   0  0  0  0  0  0  0  0  0  0  0  0
   47.7220   34.0710   41.9770 S   0  0  0  0  0  0  0  0  0  0  0  0
   49.0510   34.7380   42.1770 O   0  0  0  0  0  0  0  0  0  0  0  0
   47.2470   34.5460   40.6080 O   0  0  0  0  0  0  0  0  0  0  0  0
   46.1371   30.7315   45.0109 H   0  0  0  0  0  0  0  0  0  0  0  0
   45.4043   32.0945   45.8961 H   0  0  0  0  0  0  0  0  0  0  0  0
   46.8019   33.3011   47.6555 H   0  0  0  0  0  0  0  0  0  0  0  0
   47.9087   29.4291   46.0310 H   0  0  0  0  0  0  0  0  0  0  0  0
   49.4248   28.6524   50.0351 H   0  0  0  0  0  0  0  0  0  0  0  0
   50.8981   28.2575   51.9644 H   0  0  0  0  0  0  0  0  0  0  0  0
   53.5482   30.7740   54.7318 H   0  0  0  0  0  0  0  0  0  0  0  0
   53.2875   33.0764   53.9044 H   0  0  0  0  0  0  0  0  0  0  0  0
   51.8606   33.6627   51.9941 H   0  0  0  0  0  0  0  0  0  0  0  0
   50.2915   32.8353   50.2116 H   0  0  0  0  0  0  0  0  0  0  0  0
   48.0183   32.9385   45.1122 H   0  0  0  0  0  0  0  0  0  0  0  0
   47.2481   32.1181   43.6769 H   0  0  0  0  0  0  0  0  0  0  0  0
   45.1762   33.6737   46.1742 H   0  0  0  0  0  0  0  0  0  0  0  0
   43.8517   35.7041   45.7108 H   0  0  0  0  0  0  0  0  0  0  0  0
   44.1968   37.0254   43.6543 H   0  0  0  0  0  0  0  0  0  0  0  0
   45.9270   36.2410   42.0480 H   0  0  0  0  0  0  0  0  0  0  0  0
   47.8628   32.7126   42.0862 H   0  0  0  0  0  0  0  0  0  0  0  0
  1  3  1  0
  2  7  2  0
  3  4  2  0
  3  2  1  0
  4  5  1  0
  5  6  2  0
  6  8  1  0
  7  6  1  0
  8  9  2  0
  8 17  1  0
  9 10  1  0
 10 11  2  0
 11 12  1  0
 12 13  2  0
 14 13  1  0
 15 14  2  0
 16 11  1  0
 16 15  1  0
 17 16  2  0
 18  1  1  0
 19 20  2  0
 20 18  1  0
 20 21  1  0
 22 21  2  0
 23 22  1  0
 24 19  1  0
 24 23  2  0
 25 26  2  0
 25 19  1  0
 27 25  2  0
  1 28  1  0
  1 29  1  0
  2 30  1  0
  4 31  1  0
  9 32  1  0
 10 33  1  0
 13 34  1  0
 14 35  1  0
 15 36  1  0
 17 37  1  0
 18 38  1  0
 18 39  1  0
 21 40  1  0
 22 41  1  0
 23 42  1  0
 24 43  1  0
 25 44  1  0
M  ISO  8  28   8  29   8  30  14  31  14  32  14  33  14  34  14  35  14
M  ISO  8  36  14  37  14  38   8  39   8  40  14  41  14  42  14  43  14
M  ISO  1  44  11
M  END
>  <minimizedAffinity>  (1) 
-6.77908087

>  <minimizedRMSD>  (1) 
0.542087913

$$$$
