
     RDKit          3D

 39 41  0  0  0  0  0  0  0  0999 V2000
   46.3280   31.6590   45.6840 C   0  0  0  0  0  0  0  0  0  0  0  0
   47.4120   32.4160   47.7730 C   0  0  0  0  0  0  0  0  0  0  0  0
   47.2280   31.4090   46.7950 C   0  0  0  0  0  0  0  0  0  0  0  0
   47.9350   30.2160   46.9490 C   0  0  0  0  0  0  0  0  0  0  0  0
   48.7460   30.0970   48.0170 N   0  0  0  0  0  0  0  0  0  0  0  0
   48.9130   31.0580   48.9390 C   0  0  0  0  0  0  0  0  0  0  0  0
   48.2460   32.2000   48.8060 N   0  0  0  0  0  0  0  0  0  0  0  0
   49.8210   30.8270   50.0650 C   0  0  0  0  0  0  0  0  0  0  0  0
   49.9310   29.5580   50.5950 C   0  0  0  0  0  0  0  0  0  0  0  0
   50.7840   29.3050   51.6640 C   0  0  0  0  0  0  0  0  0  0  0  0
   51.5010   30.3810   52.1530 C   0  0  0  0  0  0  0  0  0  0  0  0
   51.4150   31.6630   51.6460 C   0  0  0  0  0  0  0  0  0  0  0  0
   50.5510   31.8830   50.5750 C   0  0  0  0  0  0  0  0  0  0  0  0
   47.0240   32.5980   44.7180 C   0  0  0  0  0  0  0  0  0  0  0  0
   46.4780   34.4850   43.2390 C   0  0  0  0  0  0  0  0  0  0  0  0
   46.2430   33.8240   44.4310 C   0  0  0  0  0  0  0  0  0  0  0  0
   45.3290   34.2400   45.3610 C   0  0  0  0  0  0  0  0  0  0  0  0
   44.6030   35.3810   45.0950 C   0  0  0  0  0  0  0  0  0  0  0  0
   44.7620   36.1020   43.9490 C   0  0  0  0  0  0  0  0  0  0  0  0
   45.7070   35.6190   43.0530 C   0  0  0  0  0  0  0  0  0  0  0  0
   47.6250   33.9930   42.0330 S   0  0  0  0  0  0  0  0  0  0  0  0
   48.9780   34.6150   42.2200 O   0  0  0  0  0  0  0  0  0  0  0  0
   47.1470   34.5090   40.6760 O   0  0  0  0  0  0  0  0  0  0  0  0
   46.0889   30.7124   45.1773 H   0  0  0  0  0  0  0  0  0  0  0  0
   45.3913   32.1085   46.0453 H   0  0  0  0  0  0  0  0  0  0  0  0
   46.8746   33.3721   47.6884 H   0  0  0  0  0  0  0  0  0  0  0  0
   47.8329   29.3982   46.2205 H   0  0  0  0  0  0  0  0  0  0  0  0
   49.3372   28.7368   50.1672 H   0  0  0  0  0  0  0  0  0  0  0  0
   50.8831   28.2993   52.0985 H   0  0  0  0  0  0  0  0  0  0  0  0
   52.1824   30.2053   52.9985 H   0  0  0  0  0  0  0  0  0  0  0  0
   52.0093   32.4838   52.0738 H   0  0  0  0  0  0  0  0  0  0  0  0
   50.4512   32.8883   50.1397 H   0  0  0  0  0  0  0  0  0  0  0  0
   47.9906   32.8929   45.1523 H   0  0  0  0  0  0  0  0  0  0  0  0
   47.1457   32.0579   43.7675 H   0  0  0  0  0  0  0  0  0  0  0  0
   45.1780   33.6791   46.2951 H   0  0  0  0  0  0  0  0  0  0  0  0
   43.8663   35.7233   45.8366 H   0  0  0  0  0  0  0  0  0  0  0  0
   44.1772   37.0113   43.7462 H   0  0  0  0  0  0  0  0  0  0  0  0
   45.8544   36.1834   42.1204 H   0  0  0  0  0  0  0  0  0  0  0  0
   47.7200   32.6293   42.1230 H   0  0  0  0  0  0  0  0  0  0  0  0
  1  3  1  0
  2  7  2  0
  3  4  2  0
  3  2  1  0
  4  5  1  0
  5  6  2  0
  6  8  1  0
  7  6  1  0
  8 13  1  0
  8  9  2  0
  9 10  1  0
 10 11  2  0
 12 11  1  0
 13 12  2  0
 14  1  1  0
 15 16  2  0
 16 14  1  0
 16 17  1  0
 18 17  2  0
 19 18  1  0
 20 15  1  0
 20 19  2  0
 21 22  2  0
 21 15  1  0
 23 21  2  0
  1 24  1  0
  1 25  1  0
  2 26  1  0
  4 27  1  0
  9 28  1  0
 10 29  1  0
 11 30  1  0
 12 31  1  0
 13 32  1  0
 14 33  1  0
 14 34  1  0
 17 35  1  0
 18 36  1  0
 19 37  1  0
 20 38  1  0
 21 39  1  0
M  ISO  8  24   8  25   8  26  14  27  14  28  14  29  14  30  14  31  14
M  ISO  8  32  14  33   8  34   8  35  14  36  14  37  14  38  14  39  11
M  END
>  <minimizedAffinity>  (1) 
-5.94889116

>  <minimizedRMSD>  (1) 
0.499473572

$$$$
