
     RDKit          3D

 44 46  0  0  0  0  0  0  0  0999 V2000
   46.2900   31.6640   45.8330 C   0  0  0  0  0  0  0  0  0  0  0  0
   47.4850   32.3970   47.8760 C   0  0  0  0  0  0  0  0  0  0  0  0
   47.2230   31.3970   46.9170 C   0  0  0  0  0  0  0  0  0  0  0  0
   47.8910   30.1810   47.0600 C   0  0  0  0  0  0  0  0  0  0  0  0
   48.7450   30.0270   48.0960 N   0  0  0  0  0  0  0  0  0  0  0  0
   48.9740   31.0000   48.9920 C   0  0  0  0  0  0  0  0  0  0  0  0
   48.3470   32.1710   48.8790 N   0  0  0  0  0  0  0  0  0  0  0  0
   49.8800   30.8010   50.0690 N   0  0  0  0  0  0  0  0  0  0  0  0
   50.1350   29.5120   50.6850 C   0  0  0  0  0  0  0  0  0  0  0  0
   51.5890   29.4390   51.1190 C   0  0  0  0  0  0  0  0  0  0  0  0
   52.4900   30.3070   50.2690 C   0  0  0  0  0  0  0  0  0  0  0  0
   52.1170   31.7640   50.3040 C   0  0  0  0  0  0  0  0  0  0  0  0
   50.6380   31.8920   50.6530 C   0  0  0  0  0  0  0  0  0  0  0  0
   46.9690   32.6010   44.8530 C   0  0  0  0  0  0  0  0  0  0  0  0
   46.3790   34.4680   43.3600 C   0  0  0  0  0  0  0  0  0  0  0  0
   46.1830   33.8240   44.5710 C   0  0  0  0  0  0  0  0  0  0  0  0
   45.3030   34.2590   45.5280 C   0  0  0  0  0  0  0  0  0  0  0  0
   44.5750   35.3980   45.2680 C   0  0  0  0  0  0  0  0  0  0  0  0
   44.6980   36.1000   44.1050 C   0  0  0  0  0  0  0  0  0  0  0  0
   45.6080   35.6060   43.1780 C   0  0  0  0  0  0  0  0  0  0  0  0
   47.4830   33.9470   42.1260 S   0  0  0  0  0  0  0  0  0  0  0  0
   48.8560   34.5640   42.2860 O   0  0  0  0  0  0  0  0  0  0  0  0
   46.9880   34.4730   40.7850 O   0  0  0  0  0  0  0  0  0  0  0  0
   46.0248   30.7234   45.3281 H   0  0  0  0  0  0  0  0  0  0  0  0
   45.3690   32.1209   46.2243 H   0  0  0  0  0  0  0  0  0  0  0  0
   46.9784   33.3705   47.8012 H   0  0  0  0  0  0  0  0  0  0  0  0
   47.7259   29.3630   46.3433 H   0  0  0  0  0  0  0  0  0  0  0  0
   49.4834   29.3894   51.5627 H   0  0  0  0  0  0  0  0  0  0  0  0
   49.9272   28.7109   49.9604 H   0  0  0  0  0  0  0  0  0  0  0  0
   51.6624   29.7718   52.1649 H   0  0  0  0  0  0  0  0  0  0  0  0
   51.9212   28.3968   51.0028 H   0  0  0  0  0  0  0  0  0  0  0  0
   52.4319   29.9565   49.2280 H   0  0  0  0  0  0  0  0  0  0  0  0
   53.5072   30.2208   50.6788 H   0  0  0  0  0  0  0  0  0  0  0  0
   52.7210   32.2807   51.0644 H   0  0  0  0  0  0  0  0  0  0  0  0
   52.3065   32.2189   49.3205 H   0  0  0  0  0  0  0  0  0  0  0  0
   50.2558   32.8471   50.2635 H   0  0  0  0  0  0  0  0  0  0  0  0
   50.5269   31.8559   51.7468 H   0  0  0  0  0  0  0  0  0  0  0  0
   47.9412   32.8997   45.2721 H   0  0  0  0  0  0  0  0  0  0  0  0
   47.0765   32.0567   43.9032 H   0  0  0  0  0  0  0  0  0  0  0  0
   45.1822   33.7139   46.4758 H   0  0  0  0  0  0  0  0  0  0  0  0
   43.8657   35.7564   46.0286 H   0  0  0  0  0  0  0  0  0  0  0  0
   44.1086   37.0083   43.9112 H   0  0  0  0  0  0  0  0  0  0  0  0
   45.7249   36.1568   42.2330 H   0  0  0  0  0  0  0  0  0  0  0  0
   47.5530   32.5813   42.2087 H   0  0  0  0  0  0  0  0  0  0  0  0
  1  3  1  0
  2  7  2  0
  3  4  2  0
  3  2  1  0
  4  5  1  0
  5  6  2  0
  6  8  1  0
  7  6  1  0
  8 13  1  0
  8  9  1  0
  9 10  1  0
 11 12  1  0
 11 10  1  0
 12 13  1  0
 14  1  1  0
 15 16  2  0
 16 14  1  0
 16 17  1  0
 18 17  2  0
 19 18  1  0
 20 15  1  0
 20 19  2  0
 21 22  2  0
 21 15  1  0
 23 21  2  0
  1 24  1  0
  1 25  1  0
  2 26  1  0
  4 27  1  0
  9 28  1  0
  9 29  1  0
 10 30  1  0
 10 31  1  0
 11 32  1  0
 11 33  1  0
 12 34  1  0
 12 35  1  0
 13 36  1  0
 13 37  1  0
 14 38  1  0
 14 39  1  0
 17 40  1  0
 18 41  1  0
 19 42  1  0
 20 43  1  0
 21 44  1  0
M  ISO  8  24   8  25   8  26  14  27  14  28  13  29  13  30  13  31  13
M  ISO  8  32  13  33  13  34  13  35  13  36  13  37  13  38   8  39   8
M  ISO  5  40  14  41  14  42  14  43  14  44  11
M  END
>  <minimizedAffinity>  (1) 
-5.82282305

>  <minimizedRMSD>  (1) 
0.414730608

$$$$
