
     RDKit          3D

 42 44  0  0  0  0  0  0  0  0999 V2000
   46.2790   31.6560   45.5700 C   0  0  0  0  0  0  0  0  0  0  0  0
   47.3060   32.0730   47.8040 C   0  0  0  0  0  0  0  0  0  0  0  0
   47.2050   31.2890   46.6200 C   0  0  0  0  0  0  0  0  0  0  0  0
   48.0390   30.1700   46.5410 C   0  0  0  0  0  0  0  0  0  0  0  0
   48.8820   29.9010   47.5780 N   0  0  0  0  0  0  0  0  0  0  0  0
   48.9450   30.6610   48.6650 C   0  0  0  0  0  0  0  0  0  0  0  0
   48.1710   31.7320   48.7810 N   0  0  0  0  0  0  0  0  0  0  0  0
   50.3670   29.0510   49.9290 C   0  0  0  0  0  0  0  0  0  0  0  0
   49.8680   30.3210   49.7410 C   0  0  0  0  0  0  0  0  0  0  0  0
   50.2920   31.2820   50.6400 C   0  0  0  0  0  0  0  0  0  0  0  0
   51.1640   31.0340   51.6800 C   0  0  0  0  0  0  0  0  0  0  0  0
   51.6570   29.7580   51.8600 C   0  0  0  0  0  0  0  0  0  0  0  0
   51.2350   28.7970   50.9650 C   0  0  0  0  0  0  0  0  0  0  0  0
   49.8860   27.7700   48.8420 S   0  0  0  0  0  0  0  0  0  0  0  0
   49.5780   26.4820   49.5680 O   0  0  0  0  0  0  0  0  0  0  0  0
   51.0660   27.4200   47.9440 O   0  0  0  0  0  0  0  0  0  0  0  0
   46.9660   32.6740   44.6810 C   0  0  0  0  0  0  0  0  0  0  0  0
   46.3860   34.6010   43.2730 C   0  0  0  0  0  0  0  0  0  0  0  0
   46.1960   33.8990   44.4450 C   0  0  0  0  0  0  0  0  0  0  0  0
   45.3090   34.2870   45.4120 C   0  0  0  0  0  0  0  0  0  0  0  0
   44.5700   35.4350   45.2050 C   0  0  0  0  0  0  0  0  0  0  0  0
   44.6980   36.1880   44.0720 C   0  0  0  0  0  0  0  0  0  0  0  0
   45.6190   35.7340   43.1310 C   0  0  0  0  0  0  0  0  0  0  0  0
   47.5130   34.1440   42.0130 S   0  0  0  0  0  0  0  0  0  0  0  0
   48.7800   34.9730   42.0520 O   0  0  0  0  0  0  0  0  0  0  0  0
   46.8950   34.4660   40.6730 O   0  0  0  0  0  0  0  0  0  0  0  0
   46.0092   30.7668   44.9814 H   0  0  0  0  0  0  0  0  0  0  0  0
   45.3593   32.0797   45.9996 H   0  0  0  0  0  0  0  0  0  0  0  0
   46.6730   32.9647   47.9231 H   0  0  0  0  0  0  0  0  0  0  0  0
   48.0154   29.5169   45.6562 H   0  0  0  0  0  0  0  0  0  0  0  0
   49.9109   32.3067   50.5187 H   0  0  0  0  0  0  0  0  0  0  0  0
   51.4633   31.8458   52.3592 H   0  0  0  0  0  0  0  0  0  0  0  0
   52.3529   29.5187   52.6776 H   0  0  0  0  0  0  0  0  0  0  0  0
   51.6135   27.7713   51.0866 H   0  0  0  0  0  0  0  0  0  0  0  0
   48.7817   28.2263   48.1718 H   0  0  0  0  0  0  0  0  0  0  0  0
   47.9191   32.9539   45.1535 H   0  0  0  0  0  0  0  0  0  0  0  0
   47.0944   32.1936   43.6998 H   0  0  0  0  0  0  0  0  0  0  0  0
   45.1874   33.6980   46.3330 H   0  0  0  0  0  0  0  0  0  0  0  0
   43.8548   35.7538   45.9776 H   0  0  0  0  0  0  0  0  0  0  0  0
   44.1067   37.1017   43.9120 H   0  0  0  0  0  0  0  0  0  0  0  0
   45.7416   36.3226   42.2099 H   0  0  0  0  0  0  0  0  0  0  0  0
   47.7941   32.8159   42.1975 H   0  0  0  0  0  0  0  0  0  0  0  0
  1  3  1  0
  2  7  2  0
  3  2  1  0
  4  3  2  0
  4  5  1  0
  5  6  2  0
  6  7  1  0
  6  9  1  0
  8 13  2  0
  9  8  1  0
  9 10  2  0
 10 11  1  0
 11 12  2  0
 13 12  1  0
 14 15  2  0
 14  8  1  0
 16 14  2  0
 17  1  1  0
 18 19  2  0
 19 17  1  0
 19 20  1  0
 21 20  2  0
 22 21  1  0
 23 18  1  0
 23 22  2  0
 24 25  2  0
 24 18  1  0
 26 24  2  0
  1 27  1  0
  1 28  1  0
  2 29  1  0
  4 30  1  0
 10 31  1  0
 11 32  1  0
 12 33  1  0
 13 34  1  0
 14 35  1  0
 17 36  1  0
 17 37  1  0
 20 38  1  0
 21 39  1  0
 22 40  1  0
 23 41  1  0
 24 42  1  0
M  ISO  8  27   8  28   8  29  14  30  14  31  14  32  14  33  14  34  14
M  ISO  8  35  11  36   8  37   8  38  14  39  14  40  14  41  14  42  11
M  END
>  <minimizedAffinity>  (1) 
-5.80315208

>  <minimizedRMSD>  (1) 
0.518945932

$$$$
