
     RDKit          3D

 35 36  0  0  1  0  0  0  0  0999 V2000
   45.8650   35.1130   41.9530 C   0  0  1  0  0  0  0  0  0  0  0  0
   44.5250   34.7860   42.4780 C   0  0  2  0  0  0  0  0  0  0  0  0
   44.5780   34.4570   43.8710 O   0  0  0  0  0  0  0  0  0  0  0  0
   45.2150   33.2150   43.9270 C   0  0  0  0  0  0  0  0  0  0  0  0
   46.6860   33.3710   43.6010 C   0  0  1  0  0  0  0  0  0  0  0  0
   46.9750   34.6590   42.8840 C   0  0  1  0  0  0  0  0  0  0  0  0
   46.0580   34.5660   40.6690 O   0  0  0  0  0  0  0  0  0  0  0  0
   47.3450   33.3950   44.8420 O   0  0  0  0  0  0  0  0  0  0  0  0
   43.8540   33.7040   41.8460 O   0  0  0  0  0  0  0  0  0  0  0  0
   40.5900   33.6860   40.3650 C   0  0  0  0  0  0  0  0  0  0  0  0
   40.6950   34.6160   39.3190 C   0  0  0  0  0  0  0  0  0  0  0  0
   41.9250   35.2510   39.1350 C   0  0  0  0  0  0  0  0  0  0  0  0
   42.9490   34.9380   39.9710 N   0  0  0  0  0  0  0  0  0  0  0  0
   42.8320   34.0560   40.9580 C   0  0  0  0  0  0  0  0  0  0  0  0
   41.6450   33.4250   41.1560 N   0  0  0  0  0  0  0  0  0  0  0  0
   39.2670   33.0120   40.5600 C   0  0  0  0  0  0  0  0  0  0  0  0
   39.1130   31.9560   39.7160 F   0  0  0  0  0  0  0  0  0  0  0  0
   39.1700   32.6360   41.8920 F   0  0  0  0  0  0  0  0  0  0  0  0
   38.2470   33.9710   40.3720 F   0  0  0  0  0  0  0  0  0  0  0  0
   48.1260   34.4570   42.0990 O   0  0  0  0  0  0  0  0  0  0  0  0
   49.2080   35.2930   42.0590 C   0  0  0  0  0  0  0  0  0  0  0  0
   49.2310   36.2160   41.1890 O   0  0  0  0  0  0  0  0  0  0  0  0
   50.2360   35.0510   43.0130 N   0  0  0  0  0  0  0  0  0  0  0  0
   45.9131   36.2097   41.8835 H   0  0  0  0  0  0  0  0  0  0  0  0
   43.9592   35.7065   42.2720 H   0  0  0  0  0  0  0  0  0  0  0  0
   45.1087   32.7966   44.9387 H   0  0  0  0  0  0  0  0  0  0  0  0
   44.7525   32.5390   43.1927 H   0  0  0  0  0  0  0  0  0  0  0  0
   47.0144   32.5532   42.9427 H   0  0  0  0  0  0  0  0  0  0  0  0
   47.0924   35.4370   43.6527 H   0  0  0  0  0  0  0  0  0  0  0  0
   46.3862   33.6357   40.7525 H   0  0  0  0  0  0  0  0  0  0  0  0
   46.6760   33.3706   45.5714 H   0  0  0  0  0  0  0  0  0  0  0  0
   39.8376   34.8371   38.6664 H   0  0  0  0  0  0  0  0  0  0  0  0
   42.0618   35.9887   38.3306 H   0  0  0  0  0  0  0  0  0  0  0  0
   51.0744   35.6491   43.0296 H   0  0  0  0  0  0  0  0  0  0  0  0
   50.1416   34.2778   43.6869 H   0  0  0  0  0  0  0  0  0  0  0  0
  1  2  1  0
  1  6  1  0
  2  3  1  0
  3  4  1  0
  5  4  1  0
  5  8  1  0
  6  5  1  0
  7  1  1  0
  9  2  1  0
 10 16  1  0
 10 15  2  0
 11 10  1  0
 12 11  2  0
 12 13  1  0
 13 14  2  0
 14 15  1  0
 14  9  1  0
 16 18  1  0
 17 16  1  0
 19 16  1  0
 20  6  1  0
 21 20  1  0
 21 23  1  0
 22 21  2  0
  1 24  1  6
  2 25  1  1
  4 26  1  0
  4 27  1  0
  5 28  1  6
  6 29  1  1
  7 30  1  0
  8 31  1  0
 11 32  1  0
 12 33  1  0
 23 34  1  0
 23 35  1  0
M  ISO  8  24  13  25  13  26  13  27  13  28  13  29  13  30   3  31   3
M  ISO  2  32  14  33  14
M  END
>  <minimizedAffinity>  (1) 
-6.31473875

>  <minimizedRMSD>  (1) 
7.2181797

$$$$
