
     RDKit          3D

 36 38  0  0  0  0  0  0  0  0999 V2000
   46.2730   31.7270   45.5520 C   0  0  0  0  0  0  0  0  0  0  0  0
   47.3330   32.3740   47.6870 C   0  0  0  0  0  0  0  0  0  0  0  0
   47.1690   31.4300   46.6600 C   0  0  0  0  0  0  0  0  0  0  0  0
   47.8960   30.2480   46.7790 C   0  0  0  0  0  0  0  0  0  0  0  0
   48.6960   30.0850   47.8510 N   0  0  0  0  0  0  0  0  0  0  0  0
   48.8370   30.9930   48.8160 C   0  0  0  0  0  0  0  0  0  0  0  0
   48.1570   32.1250   48.7250 N   0  0  0  0  0  0  0  0  0  0  0  0
   49.7140   30.7870   49.9690 C   0  0  0  0  0  0  0  0  0  0  0  0
   50.5350   31.6860   50.5890 C   0  0  0  0  0  0  0  0  0  0  0  0
   51.1640   31.0150   51.6350 C   0  0  0  0  0  0  0  0  0  0  0  0
   50.6590   29.7240   51.5660 C   0  0  0  0  0  0  0  0  0  0  0  0
   49.8070   29.6200   50.5740 O   0  0  0  0  0  0  0  0  0  0  0  0
   46.9780   32.7050   44.6330 C   0  0  0  0  0  0  0  0  0  0  0  0
   46.4160   34.6240   43.1950 C   0  0  0  0  0  0  0  0  0  0  0  0
   46.1910   33.9340   44.3740 C   0  0  0  0  0  0  0  0  0  0  0  0
   45.2780   34.3370   45.3180 C   0  0  0  0  0  0  0  0  0  0  0  0
   44.5560   35.4820   45.0740 C   0  0  0  0  0  0  0  0  0  0  0  0
   44.7090   36.2240   43.9470 C   0  0  0  0  0  0  0  0  0  0  0  0
   45.6500   35.7570   43.0360 C   0  0  0  0  0  0  0  0  0  0  0  0
   47.5600   34.1490   41.9750 S   0  0  0  0  0  0  0  0  0  0  0  0
   48.8160   34.9670   42.0030 O   0  0  0  0  0  0  0  0  0  0  0  0
   46.9540   34.4430   40.6070 O   0  0  0  0  0  0  0  0  0  0  0  0
   46.0368   30.8029   45.0041 H   0  0  0  0  0  0  0  0  0  0  0  0
   45.3330   32.1602   45.9245 H   0  0  0  0  0  0  0  0  0  0  0  0
   46.7837   33.3261   47.6442 H   0  0  0  0  0  0  0  0  0  0  0  0
   47.8186   29.4627   46.0127 H   0  0  0  0  0  0  0  0  0  0  0  0
   50.6733   32.7420   50.3137 H   0  0  0  0  0  0  0  0  0  0  0  0
   51.8947   31.4168   52.3524 H   0  0  0  0  0  0  0  0  0  0  0  0
   50.9341   28.9046   52.2464 H   0  0  0  0  0  0  0  0  0  0  0  0
   47.9336   32.9928   45.0956 H   0  0  0  0  0  0  0  0  0  0  0  0
   47.1224   32.1996   43.6667 H   0  0  0  0  0  0  0  0  0  0  0  0
   45.1286   33.7604   46.2428 H   0  0  0  0  0  0  0  0  0  0  0  0
   43.8224   35.8111   45.8247 H   0  0  0  0  0  0  0  0  0  0  0  0
   44.1246   37.1381   43.7659 H   0  0  0  0  0  0  0  0  0  0  0  0
   45.7940   36.3396   42.1141 H   0  0  0  0  0  0  0  0  0  0  0  0
   47.8440   32.8288   42.2057 H   0  0  0  0  0  0  0  0  0  0  0  0
  1  3  1  0
  2  7  2  0
  3  4  2  0
  3  2  1  0
  4  5  1  0
  5  6  2  0
  6  8  1  0
  7  6  1  0
  8 12  1  0
  8  9  2  0
  9 10  1  0
 11 10  2  0
 12 11  1  0
 13  1  1  0
 14 15  2  0
 15 13  1  0
 15 16  1  0
 17 16  2  0
 18 17  1  0
 19 14  1  0
 19 18  2  0
 20 21  2  0
 20 14  1  0
 22 20  2  0
  1 23  1  0
  1 24  1  0
  2 25  1  0
  4 26  1  0
  9 27  1  0
 10 28  1  0
 11 29  1  0
 13 30  1  0
 13 31  1  0
 16 32  1  0
 17 33  1  0
 18 34  1  0
 19 35  1  0
 20 36  1  0
M  ISO  8  23   8  24   8  25  14  26  14  27  14  28  14  29  14  30   8
M  ISO  6  31   8  32  14  33  14  34  14  35  14  36  11
M  END
>  <minimizedAffinity>  (1) 
-5.77102613

>  <minimizedRMSD>  (1) 
0.365358859

$$$$
