
     RDKit          3D

 40 42  0  0  0  0  0  0  0  0999 V2000
   46.5500   31.2800   46.2210 C   0  0  0  0  0  0  0  0  0  0  0  0
   47.3250   31.5720   48.5610 C   0  0  0  0  0  0  0  0  0  0  0  0
   47.4880   30.9910   47.2920 C   0  0  0  0  0  0  0  0  0  0  0  0
   48.5910   30.1420   47.1480 C   0  0  0  0  0  0  0  0  0  0  0  0
   49.4110   29.9330   48.2020 N   0  0  0  0  0  0  0  0  0  0  0  0
   49.2180   30.5080   49.3960 C   0  0  0  0  0  0  0  0  0  0  0  0
   48.1830   31.3190   49.5670 N   0  0  0  0  0  0  0  0  0  0  0  0
   50.9980   31.2390   50.9330 C   0  0  0  0  0  0  0  0  0  0  0  0
   50.1480   30.2330   50.4870 C   0  0  0  0  0  0  0  0  0  0  0  0
   50.1700   28.9660   51.0660 C   0  0  0  0  0  0  0  0  0  0  0  0
   51.0330   28.6590   52.1000 C   0  0  0  0  0  0  0  0  0  0  0  0
   51.8540   29.6900   52.5060 C   0  0  0  0  0  0  0  0  0  0  0  0
   51.8770   30.9580   51.9750 C   0  0  0  0  0  0  0  0  0  0  0  0
   50.9390   33.5780   49.8580 N   0  0  0  0  0  0  0  0  0  0  0  0
   50.9710   32.5320   50.3390 C   0  0  0  0  0  0  0  0  0  0  0  0
   47.1930   32.3100   45.3140 C   0  0  0  0  0  0  0  0  0  0  0  0
   46.4900   34.1090   43.7970 C   0  0  0  0  0  0  0  0  0  0  0  0
   46.3500   33.4740   45.0190 C   0  0  0  0  0  0  0  0  0  0  0  0
   45.4620   33.8730   45.9800 C   0  0  0  0  0  0  0  0  0  0  0  0
   44.6630   34.9680   45.7130 C   0  0  0  0  0  0  0  0  0  0  0  0
   44.7250   35.6590   44.5400 C   0  0  0  0  0  0  0  0  0  0  0  0
   45.6560   35.1910   43.6110 C   0  0  0  0  0  0  0  0  0  0  0  0
   47.6060   33.6360   42.5480 S   0  0  0  0  0  0  0  0  0  0  0  0
   49.0150   34.0870   42.8260 O   0  0  0  0  0  0  0  0  0  0  0  0
   47.2250   34.3420   41.2620 O   0  0  0  0  0  0  0  0  0  0  0  0
   46.3346   30.3627   45.6534 H   0  0  0  0  0  0  0  0  0  0  0  0
   45.6031   31.6626   46.6296 H   0  0  0  0  0  0  0  0  0  0  0  0
   46.4763   32.2495   48.7365 H   0  0  0  0  0  0  0  0  0  0  0  0
   48.7891   29.6487   46.1850 H   0  0  0  0  0  0  0  0  0  0  0  0
   49.4841   28.1921   50.6910 H   0  0  0  0  0  0  0  0  0  0  0  0
   51.0632   27.6632   52.5663 H   0  0  0  0  0  0  0  0  0  0  0  0
   52.5532   29.4789   53.3285 H   0  0  0  0  0  0  0  0  0  0  0  0
   52.5662   31.7239   52.3603 H   0  0  0  0  0  0  0  0  0  0  0  0
   48.1138   32.6670   45.7985 H   0  0  0  0  0  0  0  0  0  0  0  0
   47.3785   31.8074   44.3533 H   0  0  0  0  0  0  0  0  0  0  0  0
   45.3863   33.3374   46.9378 H   0  0  0  0  0  0  0  0  0  0  0  0
   43.9461   35.2961   46.4801 H   0  0  0  0  0  0  0  0  0  0  0  0
   44.0830   36.5292   44.3383 H   0  0  0  0  0  0  0  0  0  0  0  0
   45.7301   35.7285   42.6541 H   0  0  0  0  0  0  0  0  0  0  0  0
   47.5487   32.2690   42.4770 H   0  0  0  0  0  0  0  0  0  0  0  0
  1  3  1  0
  2  7  2  0
  3  2  1  0
  4  3  2  0
  4  5  1  0
  5  6  2  0
  6  7  1  0
  6  9  1  0
  8 13  2  0
  9  8  1  0
  9 10  2  0
 10 11  1  0
 11 12  2  0
 13 12  1  0
 14 15  3  0
 15  8  1  0
 16  1  1  0
 17 18  2  0
 18 16  1  0
 18 19  1  0
 20 19  2  0
 21 20  1  0
 22 17  1  0
 22 21  2  0
 23 24  2  0
 23 17  1  0
 25 23  2  0
  1 26  1  0
  1 27  1  0
  2 28  1  0
  4 29  1  0
 10 30  1  0
 11 31  1  0
 12 32  1  0
 13 33  1  0
 16 34  1  0
 16 35  1  0
 19 36  1  0
 20 37  1  0
 21 38  1  0
 22 39  1  0
 23 40  1  0
M  ISO  8  26   8  27   8  28  14  29  14  30  14  31  14  32  14  33  14
M  ISO  7  34   8  35   8  36  14  37  14  38  14  39  14  40  11
M  END
>  <minimizedAffinity>  (1) 
-5.40420723

>  <minimizedRMSD>  (1) 
0.735950351

$$$$
