
     RDKit          3D

 32 33  0  0  0  0  0  0  0  0999 V2000
   46.9310   32.6040   44.8320 C   0  0  0  0  0  0  0  0  0  0  0  0
   46.3740   34.4800   43.3460 C   0  0  0  0  0  0  0  0  0  0  0  0
   46.1750   33.8290   44.5450 C   0  0  0  0  0  0  0  0  0  0  0  0
   45.2960   34.2690   45.4960 C   0  0  0  0  0  0  0  0  0  0  0  0
   44.5720   35.4140   45.2500 C   0  0  0  0  0  0  0  0  0  0  0  0
   44.7050   36.1220   44.0890 C   0  0  0  0  0  0  0  0  0  0  0  0
   45.6190   35.6180   43.1620 C   0  0  0  0  0  0  0  0  0  0  0  0
   47.4900   33.9550   42.1050 S   0  0  0  0  0  0  0  0  0  0  0  0
   48.8650   34.5670   42.2740 O   0  0  0  0  0  0  0  0  0  0  0  0
   47.0160   34.4780   40.7730 O   0  0  0  0  0  0  0  0  0  0  0  0
   46.2680   31.6670   45.8220 C   0  0  0  0  0  0  0  0  0  0  0  0
   47.4630   32.4000   47.8670 C   0  0  0  0  0  0  0  0  0  0  0  0
   47.2090   31.4200   46.8940 C   0  0  0  0  0  0  0  0  0  0  0  0
   47.9100   30.2250   47.0350 C   0  0  0  0  0  0  0  0  0  0  0  0
   48.7760   30.0690   48.0700 N   0  0  0  0  0  0  0  0  0  0  0  0
   48.9920   31.0230   48.9780 C   0  0  0  0  0  0  0  0  0  0  0  0
   48.3440   32.1710   48.8740 N   0  0  0  0  0  0  0  0  0  0  0  0
   49.9590   30.7590   50.0760 C   0  0  0  0  0  0  0  0  0  0  0  0
   49.5540   29.7600   50.9260 F   0  0  0  0  0  0  0  0  0  0  0  0
   51.2020   30.3680   49.5590 F   0  0  0  0  0  0  0  0  0  0  0  0
   50.2500   31.9480   50.7590 F   0  0  0  0  0  0  0  0  0  0  0  0
   47.9113   32.8938   45.2383 H   0  0  0  0  0  0  0  0  0  0  0  0
   47.0014   32.0531   43.8825 H   0  0  0  0  0  0  0  0  0  0  0  0
   45.1698   33.7183   46.4398 H   0  0  0  0  0  0  0  0  0  0  0  0
   43.8638   35.7702   46.0126 H   0  0  0  0  0  0  0  0  0  0  0  0
   44.1252   37.0366   43.8959 H   0  0  0  0  0  0  0  0  0  0  0  0
   45.7455   36.1682   42.2179 H   0  0  0  0  0  0  0  0  0  0  0  0
   47.5477   32.5886   42.1865 H   0  0  0  0  0  0  0  0  0  0  0  0
   45.3557   32.1318   46.2242 H   0  0  0  0  0  0  0  0  0  0  0  0
   45.9881   30.7235   45.3307 H   0  0  0  0  0  0  0  0  0  0  0  0
   46.9409   33.3666   47.8125 H   0  0  0  0  0  0  0  0  0  0  0  0
   47.7630   29.4102   46.3108 H   0  0  0  0  0  0  0  0  0  0  0  0
  1 11  1  0
  2  3  2  0
  3  1  1  0
  3  4  1  0
  5  4  2  0
  6  5  1  0
  7  2  1  0
  7  6  2  0
  8  9  2  0
  8  2  1  0
 10  8  2  0
 11 13  1  0
 12 17  2  0
 13 14  2  0
 13 12  1  0
 14 15  1  0
 15 16  2  0
 16 18  1  0
 17 16  1  0
 18 21  1  0
 18 19  1  0
 20 18  1  0
  1 22  1  0
  1 23  1  0
  4 24  1  0
  5 25  1  0
  6 26  1  0
  7 27  1  0
  8 28  1  0
 11 29  1  0
 11 30  1  0
 12 31  1  0
 14 32  1  0
M  ISO  8  22   8  23   8  24  14  25  14  26  14  27  14  28  11  29   8
M  ISO  3  30   8  31  14  32  14
M  END
>  <minimizedAffinity>  (1) 
-5.37541103

>  <minimizedRMSD>  (1) 
0.371894807

$$$$
