
     RDKit          3D

 36 38  0  0  0  0  0  0  0  0999 V2000
   47.0280   32.8190   44.5650 C   0  0  0  0  0  0  0  0  0  0  0  0
   46.4390   34.7290   43.1300 C   0  0  0  0  0  0  0  0  0  0  0  0
   46.2260   34.0150   44.3010 C   0  0  0  0  0  0  0  0  0  0  0  0
   45.2940   34.3720   45.2370 C   0  0  0  0  0  0  0  0  0  0  0  0
   44.5270   35.4960   45.0070 C   0  0  0  0  0  0  0  0  0  0  0  0
   44.6700   36.2580   43.8810 C   0  0  0  0  0  0  0  0  0  0  0  0
   45.6360   35.8400   42.9700 C   0  0  0  0  0  0  0  0  0  0  0  0
   47.6140   34.3090   41.9150 S   0  0  0  0  0  0  0  0  0  0  0  0
   48.7600   35.2960   41.8530 O   0  0  0  0  0  0  0  0  0  0  0  0
   46.9530   34.3980   40.5550 O   0  0  0  0  0  0  0  0  0  0  0  0
   46.2970   31.7250   45.3160 C   0  0  0  0  0  0  0  0  0  0  0  0
   47.1070   32.2590   47.5930 C   0  0  0  0  0  0  0  0  0  0  0  0
   47.0880   31.3920   46.4890 C   0  0  0  0  0  0  0  0  0  0  0  0
   47.8540   30.2430   46.6070 C   0  0  0  0  0  0  0  0  0  0  0  0
   48.5580   30.0200   47.7360 N   0  0  0  0  0  0  0  0  0  0  0  0
   48.5540   30.8690   48.7730 C   0  0  0  0  0  0  0  0  0  0  0  0
   47.8350   31.9790   48.6990 N   0  0  0  0  0  0  0  0  0  0  0  0
   49.3490   30.5730   49.9970 C   0  0  0  0  0  0  0  0  0  0  0  0
   50.4570   31.5270   50.3850 C   0  0  0  0  0  0  0  0  0  0  0  0
   50.7800   30.1900   49.8270 C   0  0  0  0  0  0  0  0  0  0  0  0
   47.9042   33.1173   45.1595 H   0  0  0  0  0  0  0  0  0  0  0  0
   47.2960   32.3995   43.5841 H   0  0  0  0  0  0  0  0  0  0  0  0
   45.1591   33.7766   46.1521 H   0  0  0  0  0  0  0  0  0  0  0  0
   43.7753   35.7886   45.7549 H   0  0  0  0  0  0  0  0  0  0  0  0
   44.0551   37.1528   43.7045 H   0  0  0  0  0  0  0  0  0  0  0  0
   45.7689   36.4384   42.0566 H   0  0  0  0  0  0  0  0  0  0  0  0
   48.0785   33.0596   42.2315 H   0  0  0  0  0  0  0  0  0  0  0  0
   45.3026   32.0811   45.6231 H   0  0  0  0  0  0  0  0  0  0  0  0
   46.1641   30.8401   44.6762 H   0  0  0  0  0  0  0  0  0  0  0  0
   46.5170   33.1867   47.5583 H   0  0  0  0  0  0  0  0  0  0  0  0
   47.8878   29.5153   45.7828 H   0  0  0  0  0  0  0  0  0  0  0  0
   48.4762   30.1416   50.5089 H   0  0  0  0  0  0  0  0  0  0  0  0
   50.6392   32.4322   49.7871 H   0  0  0  0  0  0  0  0  0  0  0  0
   50.7282   32.0771   51.2981 H   0  0  0  0  0  0  0  0  0  0  0  0
   51.2204   29.4185   50.4757 H   0  0  0  0  0  0  0  0  0  0  0  0
   51.3877   29.8331   48.9824 H   0  0  0  0  0  0  0  0  0  0  0  0
  1 11  1  0
  2  3  2  0
  3  1  1  0
  3  4  1  0
  5  4  2  0
  6  5  1  0
  7  2  1  0
  7  6  2  0
  8  2  1  0
  9  8  2  0
 10  8  2  0
 11 13  1  0
 12 17  2  0
 13 14  2  0
 13 12  1  0
 14 15  1  0
 15 16  2  0
 16 18  1  0
 17 16  1  0
 18 19  1  0
 20 18  1  0
 20 19  1  0
  1 21  1  0
  1 22  1  0
  4 23  1  0
  5 24  1  0
  6 25  1  0
  7 26  1  0
  8 27  1  0
 11 28  1  0
 11 29  1  0
 12 30  1  0
 14 31  1  0
 18 32  1  0
 19 33  1  0
 19 34  1  0
 20 35  1  0
 20 36  1  0
M  ISO  8  21   8  22   8  23  14  24  14  25  14  26  14  27  11  28   8
M  ISO  8  29   8  30  14  31  14  32  13  33  13  34  13  35  13  36  13
M  END
>  <minimizedAffinity>  (1) 
-5.29771805

>  <minimizedRMSD>  (1) 
0.362408429

$$$$
