
     RDKit          3D

 31 32  0  0  0  0  0  0  0  0999 V2000
   47.0360   32.7390   44.6940 C   0  0  0  0  0  0  0  0  0  0  0  0
   46.5120   34.5920   43.1650 C   0  0  0  0  0  0  0  0  0  0  0  0
   46.2600   33.9390   44.3520 C   0  0  0  0  0  0  0  0  0  0  0  0
   45.3070   34.3450   45.2470 C   0  0  0  0  0  0  0  0  0  0  0  0
   44.5650   35.4710   44.9350 C   0  0  0  0  0  0  0  0  0  0  0  0
   44.7480   36.1730   43.7900 C   0  0  0  0  0  0  0  0  0  0  0  0
   45.7280   35.7050   42.9320 C   0  0  0  0  0  0  0  0  0  0  0  0
   47.7200   34.1090   41.9990 S   0  0  0  0  0  0  0  0  0  0  0  0
   49.0420   34.8070   42.2300 O   0  0  0  0  0  0  0  0  0  0  0  0
   47.2840   34.5710   40.6320 O   0  0  0  0  0  0  0  0  0  0  0  0
   46.2840   31.6970   45.4920 C   0  0  0  0  0  0  0  0  0  0  0  0
   47.3130   32.2930   47.6750 C   0  0  0  0  0  0  0  0  0  0  0  0
   47.0880   31.3580   46.6470 C   0  0  0  0  0  0  0  0  0  0  0  0
   47.6870   30.1110   46.8220 C   0  0  0  0  0  0  0  0  0  0  0  0
   48.4230   29.8720   47.9260 N   0  0  0  0  0  0  0  0  0  0  0  0
   48.6170   30.7830   48.8850 C   0  0  0  0  0  0  0  0  0  0  0  0
   48.0620   31.9860   48.7540 N   0  0  0  0  0  0  0  0  0  0  0  0
   49.4230   30.4730   50.0600 C   0  0  0  0  0  0  0  0  0  0  0  0
   50.1320   31.3860   50.6020 O   0  0  0  0  0  0  0  0  0  0  0  0
   47.9101   33.0543   45.2827 H   0  0  0  0  0  0  0  0  0  0  0  0
   47.3014   32.2621   43.7389 H   0  0  0  0  0  0  0  0  0  0  0  0
   45.1365   33.7942   46.1838 H   0  0  0  0  0  0  0  0  0  0  0  0
   43.7959   35.8098   45.6447 H   0  0  0  0  0  0  0  0  0  0  0  0
   44.1501   37.0661   43.5555 H   0  0  0  0  0  0  0  0  0  0  0  0
   45.8946   36.2596   41.9968 H   0  0  0  0  0  0  0  0  0  0  0  0
   47.8589   32.7507   42.1118 H   0  0  0  0  0  0  0  0  0  0  0  0
   45.3145   32.1026   45.8171 H   0  0  0  0  0  0  0  0  0  0  0  0
   46.0982   30.8035   44.8779 H   0  0  0  0  0  0  0  0  0  0  0  0
   46.8682   33.2960   47.5967 H   0  0  0  0  0  0  0  0  0  0  0  0
   47.5596   29.3256   46.0625 H   0  0  0  0  0  0  0  0  0  0  0  0
   49.4202   29.4556   50.4781 H   0  0  0  0  0  0  0  0  0  0  0  0
  1 11  1  0
  2  3  2  0
  3  1  1  0
  3  4  1  0
  5  4  2  0
  6  5  1  0
  7  2  1  0
  7  6  2  0
  8  9  2  0
  8  2  1  0
 10  8  2  0
 11 13  1  0
 12 17  2  0
 13 14  2  0
 13 12  1  0
 14 15  1  0
 15 16  2  0
 16 18  1  0
 17 16  1  0
 18 19  2  0
  1 20  1  0
  1 21  1  0
  4 22  1  0
  5 23  1  0
  6 24  1  0
  7 25  1  0
  8 26  1  0
 11 27  1  0
 11 28  1  0
 12 29  1  0
 14 30  1  0
 18 31  1  0
M  ISO  8  20   8  21   8  22  14  23  14  24  14  25  14  26  11  27   8
M  ISO  4  28   8  29  14  30  14  31   6
M  END
>  <minimizedAffinity>  (1) 
-5.06227922

>  <minimizedRMSD>  (1) 
0.198026866

$$$$
