
     RDKit          3D

 28 29  0  0  0  0  0  0  0  0999 V2000
   45.0920   34.8960   44.4990 C   0  0  0  0  0  0  0  0  0  0  0  0
   46.1190   34.4950   43.6060 C   0  0  0  0  0  0  0  0  0  0  0  0
   47.0250   33.5120   44.0400 C   0  0  0  0  0  0  0  0  0  0  0  0
   46.8620   33.0040   45.2880 N   0  0  0  0  0  0  0  0  0  0  0  0
   45.8800   33.4090   46.1000 C   0  0  0  0  0  0  0  0  0  0  0  0
   45.0050   34.3460   45.7060 N   0  0  0  0  0  0  0  0  0  0  0  0
   44.1700   35.8900   44.0710 N   0  0  0  0  0  0  0  0  0  0  0  0
   46.2510   35.0930   42.2320 C   0  0  0  0  0  0  0  0  0  0  0  0
   47.6690   35.4260   42.0240 C   0  0  0  0  0  0  0  0  0  0  0  0
   48.3100   34.8570   40.7920 C   0  0  0  0  0  0  0  0  0  0  0  0
   47.7730   33.4970   40.4160 C   0  0  0  0  0  0  0  0  0  0  0  0
   46.3210   33.7180   40.1100 C   0  0  0  0  0  0  0  0  0  0  0  0
   45.5360   34.2330   41.2800 C   0  0  0  0  0  0  0  0  0  0  0  0
   47.8407   33.1652   43.3886 H   0  0  0  0  0  0  0  0  0  0  0  0
   45.7886   32.9682   47.1037 H   0  0  0  0  0  0  0  0  0  0  0  0
   44.2567   36.3024   43.1311 H   0  0  0  0  0  0  0  0  0  0  0  0
   43.4153   36.1978   44.7008 H   0  0  0  0  0  0  0  0  0  0  0  0
   45.7532   36.0610   42.0736 H   0  0  0  0  0  0  0  0  0  0  0  0
   47.7519   36.5215   41.9699 H   0  0  0  0  0  0  0  0  0  0  0  0
   48.2049   34.9723   42.8707 H   0  0  0  0  0  0  0  0  0  0  0  0
   48.1312   35.5472   39.9544 H   0  0  0  0  0  0  0  0  0  0  0  0
   49.3821   34.7370   41.0071 H   0  0  0  0  0  0  0  0  0  0  0  0
   48.2982   33.1058   39.5322 H   0  0  0  0  0  0  0  0  0  0  0  0
   47.9160   32.7616   41.2214 H   0  0  0  0  0  0  0  0  0  0  0  0
   46.2447   34.4481   39.2907 H   0  0  0  0  0  0  0  0  0  0  0  0
   45.8946   32.7411   39.8383 H   0  0  0  0  0  0  0  0  0  0  0  0
   44.6876   34.8098   40.8832 H   0  0  0  0  0  0  0  0  0  0  0  0
   45.2571   33.3378   41.8551 H   0  0  0  0  0  0  0  0  0  0  0  0
  1  6  2  0
  2  3  2  0
  2  1  1  0
  3  4  1  0
  4  5  2  0
  6  5  1  0
  7  1  1  0
  8  2  1  0
  9  8  1  0
 10  9  1  0
 11 10  1  0
 12 11  1  0
 12 13  1  0
 13  8  1  0
  3 14  1  0
  5 15  1  0
  7 16  1  0
  7 17  1  0
  8 18  1  0
  9 19  1  0
  9 20  1  0
 10 21  1  0
 10 22  1  0
 11 23  1  0
 11 24  1  0
 12 25  1  0
 12 26  1  0
 13 27  1  0
 13 28  1  0
M  ISO  8  14  14  15  14  18  13  19  13  20  13  21  13  22  13  23  13
M  ISO  5  24  13  25  13  26  13  27  13  28  13
M  END
>  <minimizedAffinity>  (1) 
-4.90592051

>  <minimizedRMSD>  (1) 
1.28778064

$$$$
