
     RDKit          3D

 23 24  0  0  1  0  0  0  0  0999 V2000
   45.2550   34.5190   45.1150 C   0  0  0  0  0  0  0  0  0  0  0  0
   46.0230   34.4790   43.9230 C   0  0  0  0  0  0  0  0  0  0  0  0
   46.9940   33.4690   43.7980 C   0  0  0  0  0  0  0  0  0  0  0  0
   47.1340   32.5970   44.8270 N   0  0  0  0  0  0  0  0  0  0  0  0
   46.3990   32.6550   45.9410 C   0  0  0  0  0  0  0  0  0  0  0  0
   45.4580   33.6150   46.0900 N   0  0  0  0  0  0  0  0  0  0  0  0
   44.2710   35.5360   45.2540 N   0  0  0  0  0  0  0  0  0  0  0  0
   47.9210   35.5490   41.7960 O   0  0  0  0  0  0  0  0  0  0  0  0
   46.7390   35.1210   41.7450 C   0  0  0  0  0  0  0  0  0  0  0  0
   45.8150   35.4550   42.8570 C   0  0  1  0  0  0  0  0  0  0  0  0
   44.4790   35.3910   42.1840 C   0  0  0  0  0  0  0  0  0  0  0  0
   44.6290   34.2300   41.2250 C   0  0  0  0  0  0  0  0  0  0  0  0
   45.9940   34.3350   40.8200 N   0  0  0  0  0  0  0  0  0  0  0  0
   47.6186   33.3892   42.8961 H   0  0  0  0  0  0  0  0  0  0  0  0
   46.5600   31.9179   46.7415 H   0  0  0  0  0  0  0  0  0  0  0  0
   44.1278   36.2208   44.4981 H   0  0  0  0  0  0  0  0  0  0  0  0
   43.7014   35.5879   46.1106 H   0  0  0  0  0  0  0  0  0  0  0  0
   45.9476   36.4314   43.3459 H   0  0  0  0  0  0  0  0  0  0  0  0
   43.6787   35.1987   42.9138 H   0  0  0  0  0  0  0  0  0  0  0  0
   44.2032   36.3308   41.6832 H   0  0  0  0  0  0  0  0  0  0  0  0
   44.4370   33.2713   41.7290 H   0  0  0  0  0  0  0  0  0  0  0  0
   43.9197   34.2620   40.3849 H   0  0  0  0  0  0  0  0  0  0  0  0
   46.3871   33.9007   39.9728 H   0  0  0  0  0  0  0  0  0  0  0  0
  1  7  1  0
  1  6  2  0
  2  1  1  0
  3  2  2  0
  3  4  1  0
  4  5  2  0
  5  6  1  0
  9  8  2  0
  9 10  1  0
 10  2  1  0
 11 10  1  0
 12 11  1  0
 13 12  1  0
 13  9  1  0
  3 14  1  0
  5 15  1  0
  7 16  1  0
  7 17  1  0
 10 18  1  1
 11 19  1  0
 11 20  1  0
 12 21  1  0
 12 22  1  0
 13 23  1  0
M  ISO  8  14  14  15  14  18  13  19  13  20  13  21  13  22  13  23  10
M  END
>  <minimizedAffinity>  (1) 
-4.61815596

>  <minimizedRMSD>  (1) 
2.32951665

$$$$
