
     RDKit          3D

 46 48  0  0  1  0  0  0  0  0999 V2000
   46.0830   32.8560   37.4380 C   0  0  1  0  0  0  0  0  0  0  0  0
   44.9420   32.5010   38.3050 C   0  0  2  0  0  0  0  0  0  0  0  0
   44.5500   31.1370   38.1150 O   0  0  0  0  0  0  0  0  0  0  0  0
   43.9660   31.0990   36.8460 C   0  0  0  0  0  0  0  0  0  0  0  0
   45.0340   31.2490   35.7840 C   0  0  1  0  0  0  0  0  0  0  0  0
   46.2950   31.8390   36.3240 C   0  0  1  0  0  0  0  0  0  0  0  0
   45.9310   34.1480   36.8950 O   0  0  0  0  0  0  0  0  0  0  0  0
   45.3060   29.9480   35.3330 O   0  0  0  0  0  0  0  0  0  0  0  0
   43.7630   33.2760   38.1280 O   0  0  0  0  0  0  0  0  0  0  0  0
   41.4630   34.9820   40.2800 C   0  0  0  0  0  0  0  0  0  0  0  0
   42.2530   35.3600   41.3780 C   0  0  0  0  0  0  0  0  0  0  0  0
   43.6040   35.0120   41.3560 C   0  0  0  0  0  0  0  0  0  0  0  0
   44.0820   34.3330   40.2850 N   0  0  0  0  0  0  0  0  0  0  0  0
   43.3200   33.9790   39.2510 C   0  0  0  0  0  0  0  0  0  0  0  0
   42.0020   34.3050   39.2450 N   0  0  0  0  0  0  0  0  0  0  0  0
   40.0140   35.3570   40.3180 C   0  0  0  0  0  0  0  0  0  0  0  0
   39.8430   36.6460   40.7200 F   0  0  0  0  0  0  0  0  0  0  0  0
   39.4800   35.1200   39.0600 F   0  0  0  0  0  0  0  0  0  0  0  0
   39.3340   34.4710   41.1720 F   0  0  0  0  0  0  0  0  0  0  0  0
   46.9340   32.5080   35.2620 O   0  0  0  0  0  0  0  0  0  0  0  0
   50.8280   31.3380   34.3750 N   0  0  0  0  0  0  0  0  0  0  0  0
   50.2060   30.8820   35.5780 C   0  0  0  0  0  0  0  0  0  0  0  0
   48.9810   31.6670   35.9450 C   0  0  0  0  0  0  0  0  0  0  0  0
   48.0210   31.8350   34.7800 C   0  0  0  0  0  0  0  0  0  0  0  0
   48.7860   32.5160   33.6900 C   0  0  0  0  0  0  0  0  0  0  0  0
   49.9200   31.5820   33.2890 C   0  0  0  0  0  0  0  0  0  0  0  0
   46.9783   32.8459   38.0770 H   0  0  0  0  0  0  0  0  0  0  0  0
   45.3358   32.7004   39.3126 H   0  0  0  0  0  0  0  0  0  0  0  0
   43.4493   30.1374   36.7107 H   0  0  0  0  0  0  0  0  0  0  0  0
   43.2446   31.9243   36.7539 H   0  0  0  0  0  0  0  0  0  0  0  0
   44.6785   31.9233   34.9910 H   0  0  0  0  0  0  0  0  0  0  0  0
   46.8817   31.0115   36.7494 H   0  0  0  0  0  0  0  0  0  0  0  0
   45.8534   34.8075   37.6292 H   0  0  0  0  0  0  0  0  0  0  0  0
   45.4313   29.3485   36.1108 H   0  0  0  0  0  0  0  0  0  0  0  0
   41.8214   35.9115   42.2263 H   0  0  0  0  0  0  0  0  0  0  0  0
   44.2673   35.2831   42.1906 H   0  0  0  0  0  0  0  0  0  0  0  0
   51.3242   32.2164   34.5827 H   0  0  0  0  0  0  0  0  0  0  0  0
   49.9192   29.8283   35.4455 H   0  0  0  0  0  0  0  0  0  0  0  0
   50.9340   31.0131   36.3921 H   0  0  0  0  0  0  0  0  0  0  0  0
   48.4583   31.1432   36.7589 H   0  0  0  0  0  0  0  0  0  0  0  0
   49.3096   32.6709   36.2519 H   0  0  0  0  0  0  0  0  0  0  0  0
   47.6334   30.9023   34.3444 H   0  0  0  0  0  0  0  0  0  0  0  0
   48.1288   32.7036   32.8281 H   0  0  0  0  0  0  0  0  0  0  0  0
   49.1788   33.4845   34.0331 H   0  0  0  0  0  0  0  0  0  0  0  0
   49.4912   30.6230   32.9627 H   0  0  0  0  0  0  0  0  0  0  0  0
   50.4845   32.0634   32.4768 H   0  0  0  0  0  0  0  0  0  0  0  0
  1  2  1  0
  3  2  1  0
  4  3  1  0
  5  6  1  0
  5  4  1  0
  6  1  1  0
  7  1  1  0
  8  5  1  0
  9  2  1  0
  9 14  1  0
 10 16  1  0
 10 11  2  0
 12 11  1  0
 13 12  2  0
 14 13  1  0
 15 14  2  0
 15 10  1  0
 16 17  1  0
 16 19  1  0
 18 16  1  0
 20  6  1  0
 21 22  1  0
 22 23  1  0
 24 20  1  0
 24 23  1  0
 25 24  1  0
 26 25  1  0
 26 21  1  0
  1 27  1  1
  2 28  1  1
  4 29  1  0
  4 30  1  0
  5 31  1  6
  6 32  1  1
  7 33  1  0
  8 34  1  0
 11 35  1  0
 12 36  1  0
 21 37  1  0
 22 38  1  0
 22 39  1  0
 23 40  1  0
 23 41  1  0
 24 42  1  0
 25 43  1  0
 25 44  1  0
 26 45  1  0
 26 46  1  0
M  ISO  8  27  13  28  13  29  13  30  13  31  13  32  13  33   3  34   3
M  ISO  8  35  14  36  14  37   5  38  13  39  13  40  13  41  13  42  13
M  ISO  4  43  13  44  13  45  13  46  13
M  END
>  <minimizedAffinity>  (1) 
-5.49971008

>  <minimizedRMSD>  (1) 
9.39151382

$$$$
