
     RDKit          3D

 23 25  0  0  0  0  0  0  0  0999 V2000
   46.2270   33.3360   44.0940 N   0  0  0  0  0  0  0  0  0  0  0  0
   45.2840   34.2970   43.9210 C   0  0  0  0  0  0  0  0  0  0  0  0
   45.7860   35.2160   43.0730 N   0  0  0  0  0  0  0  0  0  0  0  0
   47.0230   34.8460   42.7170 C   0  0  0  0  0  0  0  0  0  0  0  0
   48.0280   35.3370   41.9080 C   0  0  0  0  0  0  0  0  0  0  0  0
   49.2200   34.7380   41.7230 N   0  0  0  0  0  0  0  0  0  0  0  0
   49.4270   33.5670   42.3910 C   0  0  0  0  0  0  0  0  0  0  0  0
   48.4980   33.0170   43.2030 N   0  0  0  0  0  0  0  0  0  0  0  0
   47.3330   33.6420   43.3580 C   0  0  0  0  0  0  0  0  0  0  0  0
   46.3580   32.2110   46.3110 C   0  0  0  0  0  0  0  0  0  0  0  0
   46.0610   32.1790   44.9360 C   0  0  0  0  0  0  0  0  0  0  0  0
   45.5860   30.9680   44.3730 C   0  0  0  0  0  0  0  0  0  0  0  0
   45.4480   29.9020   45.2180 N   0  0  0  0  0  0  0  0  0  0  0  0
   45.7430   29.9820   46.5210 C   0  0  0  0  0  0  0  0  0  0  0  0
   46.1940   31.1270   47.0590 N   0  0  0  0  0  0  0  0  0  0  0  0
   46.8320   33.4270   46.8580 N   0  0  0  0  0  0  0  0  0  0  0  0
   44.2888   34.3212   44.3890 H   0  0  0  0  0  0  0  0  0  0  0  0
   47.8425   36.2828   41.3778 H   0  0  0  0  0  0  0  0  0  0  0  0
   50.3893   33.0496   42.2634 H   0  0  0  0  0  0  0  0  0  0  0  0
   45.3394   30.8893   43.3039 H   0  0  0  0  0  0  0  0  0  0  0  0
   45.6141   29.0966   47.1609 H   0  0  0  0  0  0  0  0  0  0  0  0
   46.9496   34.2525   46.2533 H   0  0  0  0  0  0  0  0  0  0  0  0
   47.0594   33.4866   47.8608 H   0  0  0  0  0  0  0  0  0  0  0  0
  1 11  1  0
  2  1  1  0
  3  2  2  0
  4  3  1  0
  4  9  2  0
  5  4  1  0
  6  5  2  0
  6  7  1  0
  7  8  2  0
  8  9  1  0
  9  1  1  0
 10 16  1  0
 10 15  2  0
 11 10  1  0
 12 11  2  0
 12 13  1  0
 13 14  2  0
 14 15  1  0
  2 17  1  0
  5 18  1  0
  7 19  1  0
 12 20  1  0
 14 21  1  0
 16 22  1  0
 16 23  1  0
M  ISO  5  17  14  18  14  19  14  20  14  21  14
M  END
>  <minimizedAffinity>  (1) 
-4.38613939

>  <minimizedRMSD>  (1) 
3.24131727

$$$$
