
     RDKit          3D

 24 25  0  0  0  0  0  0  0  0999 V2000
   45.5940   32.6160   47.8020 C   0  0  0  0  0  0  0  0  0  0  0  0
   46.2250   32.2780   46.5760 C   0  0  0  0  0  0  0  0  0  0  0  0
   47.2470   31.3110   46.5990 C   0  0  0  0  0  0  0  0  0  0  0  0
   47.5660   30.7610   47.7960 N   0  0  0  0  0  0  0  0  0  0  0  0
   46.9570   31.0950   48.9370 C   0  0  0  0  0  0  0  0  0  0  0  0
   45.9770   32.0170   48.9450 N   0  0  0  0  0  0  0  0  0  0  0  0
   44.5650   33.5850   47.8010 N   0  0  0  0  0  0  0  0  0  0  0  0
   45.8510   32.8870   45.3430 N   0  0  0  0  0  0  0  0  0  0  0  0
   45.5710   34.2790   44.9640 C   0  0  0  0  0  0  0  0  0  0  0  0
   45.7890   34.2130   43.4500 C   0  0  0  0  0  0  0  0  0  0  0  0
   45.0100   32.9200   43.1690 C   0  0  0  0  0  0  0  0  0  0  0  0
   45.6970   32.0140   44.1890 C   0  0  0  0  0  0  0  0  0  0  0  0
   47.7687   31.0120   45.6779 H   0  0  0  0  0  0  0  0  0  0  0  0
   47.2592   30.6122   49.8781 H   0  0  0  0  0  0  0  0  0  0  0  0
   44.2823   34.0351   46.9187 H   0  0  0  0  0  0  0  0  0  0  0  0
   44.0978   33.8410   48.6825 H   0  0  0  0  0  0  0  0  0  0  0  0
   44.5386   34.5664   45.2123 H   0  0  0  0  0  0  0  0  0  0  0  0
   46.1912   35.0257   45.4815 H   0  0  0  0  0  0  0  0  0  0  0  0
   45.3558   35.0801   42.9299 H   0  0  0  0  0  0  0  0  0  0  0  0
   46.8369   34.2237   43.1155 H   0  0  0  0  0  0  0  0  0  0  0  0
   43.9347   33.0318   43.3722 H   0  0  0  0  0  0  0  0  0  0  0  0
   45.0306   32.5673   42.1273 H   0  0  0  0  0  0  0  0  0  0  0  0
   45.0699   31.1434   44.4316 H   0  0  0  0  0  0  0  0  0  0  0  0
   46.6486   31.5959   43.8290 H   0  0  0  0  0  0  0  0  0  0  0  0
  1  6  2  0
  2  3  2  0
  2  1  1  0
  3  4  1  0
  4  5  2  0
  5  6  1  0
  7  1  1  0
  8  2  1  0
  9  8  1  0
 10  9  1  0
 11 10  1  0
 11 12  1  0
 12  8  1  0
  3 13  1  0
  5 14  1  0
  7 15  1  0
  7 16  1  0
  9 17  1  0
  9 18  1  0
 10 19  1  0
 10 20  1  0
 11 21  1  0
 11 22  1  0
 12 23  1  0
 12 24  1  0
M  ISO  8  13  14  14  14  17  13  18  13  19  13  20  13  21  13  22  13
M  ISO  2  23  13  24  13
M  END
>  <minimizedAffinity>  (1) 
-4.0275979

>  <minimizedRMSD>  (1) 
4.30369425

$$$$
