
     RDKit          3D

 38 40  0  0  1  0  0  0  0  0999 V2000
   45.8150   34.6350   41.3310 C   0  0  1  0  0  0  0  0  0  0  0  0
   44.3550   34.4280   41.2790 C   0  0  2  0  0  0  0  0  0  0  0  0
   43.8620   33.9020   42.5160 O   0  0  0  0  0  0  0  0  0  0  0  0
   44.3300   32.5850   42.5620 C   0  0  0  0  0  0  0  0  0  0  0  0
   45.8250   32.5750   42.8100 C   0  0  1  0  0  0  0  0  0  0  0  0
   46.4590   33.8860   42.4930 C   0  0  1  0  0  0  0  0  0  0  0  0
   46.4240   34.2610   40.1170 O   0  0  0  0  0  0  0  0  0  0  0  0
   45.9770   32.3390   44.1890 O   0  0  0  0  0  0  0  0  0  0  0  0
   43.8820   33.5530   40.2630 O   0  0  0  0  0  0  0  0  0  0  0  0
   40.7730   33.2750   38.5050 C   0  0  0  0  0  0  0  0  0  0  0  0
   40.4280   34.6040   38.2250 C   0  0  0  0  0  0  0  0  0  0  0  0
   41.2970   35.6130   38.6560 C   0  0  0  0  0  0  0  0  0  0  0  0
   42.4250   35.2470   39.3210 N   0  0  0  0  0  0  0  0  0  0  0  0
   42.7350   33.9780   39.5790 C   0  0  0  0  0  0  0  0  0  0  0  0
   41.9080   32.9810   39.1710 N   0  0  0  0  0  0  0  0  0  0  0  0
   39.8300   32.2010   38.0410 C   0  0  0  0  0  0  0  0  0  0  0  0
   40.4940   31.1910   37.4160 F   0  0  0  0  0  0  0  0  0  0  0  0
   39.1060   31.7590   39.1380 F   0  0  0  0  0  0  0  0  0  0  0  0
   38.8620   32.7920   37.1960 F   0  0  0  0  0  0  0  0  0  0  0  0
   47.8040   33.6410   42.1290 O   0  0  0  0  0  0  0  0  0  0  0  0
   48.6560   34.5270   42.7800 C   0  0  0  0  0  0  0  0  0  0  0  0
   50.1050   34.3690   42.4230 C   0  0  0  0  0  0  0  0  0  0  0  0
   49.3860   35.5590   41.9170 C   0  0  0  0  0  0  0  0  0  0  0  0
   45.9768   35.7109   41.4931 H   0  0  0  0  0  0  0  0  0  0  0  0
   43.9803   35.4382   41.0576 H   0  0  0  0  0  0  0  0  0  0  0  0
   43.8221   32.0461   43.3754 H   0  0  0  0  0  0  0  0  0  0  0  0
   44.1200   32.0932   41.6007 H   0  0  0  0  0  0  0  0  0  0  0  0
   46.3033   31.8165   42.1729 H   0  0  0  0  0  0  0  0  0  0  0  0
   46.3443   34.5113   43.3907 H   0  0  0  0  0  0  0  0  0  0  0  0
   47.2521   33.7525   40.3061 H   0  0  0  0  0  0  0  0  0  0  0  0
   45.5174   33.0526   44.6985 H   0  0  0  0  0  0  0  0  0  0  0  0
   39.5022   34.8469   37.6829 H   0  0  0  0  0  0  0  0  0  0  0  0
   41.0736   36.6725   38.4621 H   0  0  0  0  0  0  0  0  0  0  0  0
   48.0548   34.5763   43.6998 H   0  0  0  0  0  0  0  0  0  0  0  0
   50.8739   34.4867   43.2008 H   0  0  0  0  0  0  0  0  0  0  0  0
   50.6958   33.5709   41.9496 H   0  0  0  0  0  0  0  0  0  0  0  0
   49.6144   36.5549   42.3245 H   0  0  0  0  0  0  0  0  0  0  0  0
   49.2177   36.0044   40.9254 H   0  0  0  0  0  0  0  0  0  0  0  0
  1  6  1  0
  2  1  1  0
  2  3  1  0
  3  4  1  0
  4  5  1  0
  5  8  1  0
  6  5  1  0
  7  1  1  0
  9  2  1  0
 10 15  2  0
 11 10  1  0
 11 12  2  0
 12 13  1  0
 13 14  2  0
 14  9  1  0
 15 14  1  0
 16 10  1  0
 16 18  1  0
 17 16  1  0
 19 16  1  0
 20  6  1  0
 20 21  1  0
 22 21  1  0
 23 22  1  0
 23 21  1  0
  1 24  1  1
  2 25  1  6
  4 26  1  0
  4 27  1  0
  5 28  1  6
  6 29  1  1
  7 30  1  0
  8 31  1  0
 11 32  1  0
 12 33  1  0
 21 34  1  0
 22 35  1  0
 22 36  1  0
 23 37  1  0
 23 38  1  0
M  ISO  8  24  13  25  13  26  13  27  13  28  13  29  13  30   3  31   3
M  ISO  7  32  14  33  14  34  13  35  13  36  13  37  13  38  13
M  END
>  <minimizedAffinity>  (1) 
-5.07317829

>  <minimizedRMSD>  (1) 
6.75535393

$$$$
