
     RDKit          3D

 19 20  0  0  0  0  0  0  0  0999 V2000
   45.1810   35.3020   44.1110 C   0  0  0  0  0  0  0  0  0  0  0  0
   46.2440   34.7170   43.4040 C   0  0  0  0  0  0  0  0  0  0  0  0
   46.9640   33.6540   43.9780 C   0  0  0  0  0  0  0  0  0  0  0  0
   46.5670   33.2490   45.2260 N   0  0  0  0  0  0  0  0  0  0  0  0
   45.5490   33.8270   45.8740 C   0  0  0  0  0  0  0  0  0  0  0  0
   44.8610   34.8380   45.3340 N   0  0  0  0  0  0  0  0  0  0  0  0
   44.4610   36.3690   43.5300 N   0  0  0  0  0  0  0  0  0  0  0  0
   46.6220   35.1970   42.0670 C   0  0  0  0  0  0  0  0  0  0  0  0
   48.0800   35.2880   41.7990 C   0  0  0  0  0  0  0  0  0  0  0  0
   47.1980   34.3000   41.0700 C   0  0  0  0  0  0  0  0  0  0  0  0
   47.8021   33.1726   43.4528 H   0  0  0  0  0  0  0  0  0  0  0  0
   45.2719   33.4619   46.8740 H   0  0  0  0  0  0  0  0  0  0  0  0
   44.7170   36.7135   42.5937 H   0  0  0  0  0  0  0  0  0  0  0  0
   43.6799   36.8027   44.0426 H   0  0  0  0  0  0  0  0  0  0  0  0
   45.7577   35.8765   42.0315 H   0  0  0  0  0  0  0  0  0  0  0  0
   48.4933   36.1588   41.2691 H   0  0  0  0  0  0  0  0  0  0  0  0
   48.9973   35.2287   42.4033 H   0  0  0  0  0  0  0  0  0  0  0  0
   46.9731   34.4461   40.0032 H   0  0  0  0  0  0  0  0  0  0  0  0
   47.2102   33.2106   40.9180 H   0  0  0  0  0  0  0  0  0  0  0  0
  1  6  2  0
  2  3  2  0
  2  1  1  0
  3  4  1  0
  4  5  2  0
  6  5  1  0
  7  1  1  0
  8  2  1  0
  9  8  1  0
 10  9  1  0
 10  8  1  0
  3 11  1  0
  5 12  1  0
  7 13  1  0
  7 14  1  0
  8 15  1  0
  9 16  1  0
  9 17  1  0
 10 18  1  0
 10 19  1  0
M  ISO  7  11  14  12  14  15  13  16  13  17  13  18  13  19  13
M  END
>  <minimizedAffinity>  (1) 
-4.00126505

>  <minimizedRMSD>  (1) 
0.237978473

$$$$
