
     RDKit          3D

 14 14  0  0  0  0  0  0  0  0999 V2000
   45.0160   35.7680   43.9050 C   0  0  0  0  0  0  0  0  0  0  0  0
   45.9060   34.7610   43.4980 C   0  0  0  0  0  0  0  0  0  0  0  0
   46.2280   33.7170   44.3780 C   0  0  0  0  0  0  0  0  0  0  0  0
   45.6470   33.7400   45.6020 N   0  0  0  0  0  0  0  0  0  0  0  0
   44.7890   34.7180   45.9840 C   0  0  0  0  0  0  0  0  0  0  0  0
   44.4840   35.7130   45.1410 N   0  0  0  0  0  0  0  0  0  0  0  0
   44.6860   36.8220   43.0270 N   0  0  0  0  0  0  0  0  0  0  0  0
   46.4630   34.8370   42.1760 C   0  0  0  0  0  0  0  0  0  0  0  0
   47.5090   35.4950   42.0050 O   0  0  0  0  0  0  0  0  0  0  0  0
   46.9219   32.9146   44.0871 H   0  0  0  0  0  0  0  0  0  0  0  0
   44.3423   34.6941   46.9889 H   0  0  0  0  0  0  0  0  0  0  0  0
   45.0984   36.8548   42.0837 H   0  0  0  0  0  0  0  0  0  0  0  0
   44.0327   37.5587   43.3293 H   0  0  0  0  0  0  0  0  0  0  0  0
   45.9772   34.3256   41.3319 H   0  0  0  0  0  0  0  0  0  0  0  0
  1  6  2  0
  2  1  1  0
  2  3  2  0
  3  4  1  0
  4  5  2  0
  6  5  1  0
  7  1  1  0
  8  2  1  0
  9  8  2  0
  3 10  1  0
  5 11  1  0
  7 12  1  0
  7 13  1  0
  8 14  1  0
M  ISO  3  10  14  11  14  14   6
M  END
>  <minimizedAffinity>  (1) 
-3.42471647

>  <minimizedRMSD>  (1) 
0.839518666

$$$$
