
     RDKit          3D

 43 45  0  0  1  0  0  0  0  0999 V2000
   46.8230   32.9150   40.3400 C   0  0  1  0  0  0  0  0  0  0  0  0
   48.1410   32.3500   39.9890 C   0  0  2  0  0  0  0  0  0  0  0  0
   48.9700   32.2040   41.1480 O   0  0  0  0  0  0  0  0  0  0  0  0
   49.3110   33.5100   41.5150 C   0  0  0  0  0  0  0  0  0  0  0  0
   48.1020   34.2120   42.1030 C   0  0  1  0  0  0  0  0  0  0  0  0
   46.8090   33.5370   41.7270 C   0  0  1  0  0  0  0  0  0  0  0  0
   46.4000   33.8620   39.3840 O   0  0  0  0  0  0  0  0  0  0  0  0
   48.2570   34.1240   43.4970 O   0  0  0  0  0  0  0  0  0  0  0  0
   48.9070   33.0890   39.0490 O   0  0  0  0  0  0  0  0  0  0  0  0
   51.4820   31.3070   37.3060 C   0  0  0  0  0  0  0  0  0  0  0  0
   50.8430   30.8820   36.1270 C   0  0  0  0  0  0  0  0  0  0  0  0
   49.4990   31.2240   35.9410 C   0  0  0  0  0  0  0  0  0  0  0  0
   48.8820   31.9500   36.9110 N   0  0  0  0  0  0  0  0  0  0  0  0
   49.5020   32.3440   38.0200 C   0  0  0  0  0  0  0  0  0  0  0  0
   50.8060   32.0230   38.2200 N   0  0  0  0  0  0  0  0  0  0  0  0
   52.9150   30.9290   37.4790 C   0  0  0  0  0  0  0  0  0  0  0  0
   53.6800   32.0250   37.7960 F   0  0  0  0  0  0  0  0  0  0  0  0
   52.9870   29.9490   38.4560 F   0  0  0  0  0  0  0  0  0  0  0  0
   53.3760   30.3060   36.3040 F   0  0  0  0  0  0  0  0  0  0  0  0
   45.8040   34.5160   41.7440 O   0  0  0  0  0  0  0  0  0  0  0  0
   43.9640   35.5090   42.7900 C   0  0  2  0  0  0  0  0  0  0  0  0
   44.7550   34.2270   42.5780 C   0  0  1  0  0  0  0  0  0  0  0  0
   43.7000   33.4020   41.8380 C   0  0  0  0  0  0  0  0  0  0  0  0
   42.9640   34.2640   41.0750 O   0  0  0  0  0  0  0  0  0  0  0  0
   43.2150   35.5530   41.4600 C   0  0  0  0  0  0  0  0  0  0  0  0
   44.7730   36.6260   42.9450 O   0  0  0  0  0  0  0  0  0  0  0  0
   46.1173   32.0712   40.3437 H   0  0  0  0  0  0  0  0  0  0  0  0
   47.8706   31.3889   39.5273 H   0  0  0  0  0  0  0  0  0  0  0  0
   50.1159   33.4802   42.2642 H   0  0  0  0  0  0  0  0  0  0  0  0
   49.6522   34.0594   40.6252 H   0  0  0  0  0  0  0  0  0  0  0  0
   48.0500   35.2444   41.7270 H   0  0  0  0  0  0  0  0  0  0  0  0
   46.6416   32.7221   42.4467 H   0  0  0  0  0  0  0  0  0  0  0  0
   46.0430   34.6611   39.8467 H   0  0  0  0  0  0  0  0  0  0  0  0
   47.4883   34.5604   43.9427 H   0  0  0  0  0  0  0  0  0  0  0  0
   51.3859   30.2959   35.3708 H   0  0  0  0  0  0  0  0  0  0  0  0
   48.9568   30.9142   35.0354 H   0  0  0  0  0  0  0  0  0  0  0  0
   43.3446   35.5182   43.6990 H   0  0  0  0  0  0  0  0  0  0  0  0
   45.1726   33.7435   43.4734 H   0  0  0  0  0  0  0  0  0  0  0  0
   44.1900   32.6561   41.1949 H   0  0  0  0  0  0  0  0  0  0  0  0
   43.0545   32.8694   42.5519 H   0  0  0  0  0  0  0  0  0  0  0  0
   43.8313   36.0564   40.7006 H   0  0  0  0  0  0  0  0  0  0  0  0
   42.2729   36.1102   41.5694 H   0  0  0  0  0  0  0  0  0  0  0  0
   44.9042   36.8072   43.9094 H   0  0  0  0  0  0  0  0  0  0  0  0
  1  6  1  0
  2  1  1  0
  2  3  1  0
  3  4  1  0
  4  5  1  0
  5  8  1  0
  6 20  1  0
  6  5  1  0
  7  1  1  0
  9  2  1  0
 10 16  1  0
 10 15  2  0
 11 10  1  0
 12 11  2  0
 12 13  1  0
 13 14  2  0
 14 15  1  0
 14  9  1  0
 16 17  1  0
 16 18  1  0
 19 16  1  0
 21 26  1  0
 22 20  1  0
 22 21  1  0
 23 22  1  0
 24 25  1  0
 24 23  1  0
 25 21  1  0
  1 27  1  1
  2 28  1  6
  4 29  1  0
  4 30  1  0
  5 31  1  6
  6 32  1  1
  7 33  1  0
  8 34  1  0
 11 35  1  0
 12 36  1  0
 21 37  1  1
 22 38  1  1
 23 39  1  0
 23 40  1  0
 25 41  1  0
 25 42  1  0
 26 43  1  0
M  ISO  8  27  13  28  13  29  13  30  13  31  13  32  13  33   3  34   3
M  ISO  8  35  14  36  14  37  13  38  13  39  13  40  13  41  13  42  13
M  ISO  1  43   3
M  END
>  <minimizedAffinity>  (1) 
-4.82551956

>  <minimizedRMSD>  (1) 
2.92938709

$$$$
