
     RDKit          3D

 37 38  0  0  1  0  0  0  0  0999 V2000
   47.0250   34.6420   42.8170 C   0  0  1  0  0  0  0  0  0  0  0  0
   47.0090   34.3360   41.3730 C   0  0  2  0  0  0  0  0  0  0  0  0
   45.7280   33.8450   40.9610 O   0  0  0  0  0  0  0  0  0  0  0  0
   45.6320   32.5670   41.5220 C   0  0  0  0  0  0  0  0  0  0  0  0
   45.4380   32.6740   43.0210 C   0  0  1  0  0  0  0  0  0  0  0  0
   45.8450   34.0130   43.5480 C   0  0  1  0  0  0  0  0  0  0  0  0
   48.2370   34.2380   43.4120 O   0  0  0  0  0  0  0  0  0  0  0  0
   44.0590   32.5180   43.2360 O   0  0  0  0  0  0  0  0  0  0  0  0
   47.9590   33.3780   40.9270 O   0  0  0  0  0  0  0  0  0  0  0  0
   49.4230   32.3670   37.8190 C   0  0  0  0  0  0  0  0  0  0  0  0
   49.1450   33.4410   36.9560 C   0  0  0  0  0  0  0  0  0  0  0  0
   48.4380   34.5300   37.4750 C   0  0  0  0  0  0  0  0  0  0  0  0
   48.0580   34.4910   38.7790 N   0  0  0  0  0  0  0  0  0  0  0  0
   48.3300   33.4670   39.5820 C   0  0  0  0  0  0  0  0  0  0  0  0
   49.0160   32.3980   39.0980 N   0  0  0  0  0  0  0  0  0  0  0  0
   50.1770   31.2060   37.2490 C   0  0  0  0  0  0  0  0  0  0  0  0
   51.4850   31.5190   37.0350 F   0  0  0  0  0  0  0  0  0  0  0  0
   50.0220   30.1310   38.1110 F   0  0  0  0  0  0  0  0  0  0  0  0
   49.5570   30.7990   36.0500 F   0  0  0  0  0  0  0  0  0  0  0  0
   46.2370   33.8330   44.8910 O   0  0  0  0  0  0  0  0  0  0  0  0
   45.2310   34.2400   45.7610 C   0  0  0  0  0  0  0  0  0  0  0  0
   44.6180   35.5060   45.1980 C   0  0  0  0  0  0  0  0  0  0  0  0
   46.9348   35.7344   42.9090 H   0  0  0  0  0  0  0  0  0  0  0  0
   47.2664   35.3056   40.9218 H   0  0  0  0  0  0  0  0  0  0  0  0
   44.7744   32.0384   41.0802 H   0  0  0  0  0  0  0  0  0  0  0  0
   46.5585   32.0109   41.3159 H   0  0  0  0  0  0  0  0  0  0  0  0
   46.0533   31.9192   43.5326 H   0  0  0  0  0  0  0  0  0  0  0  0
   44.9849   34.6859   43.4157 H   0  0  0  0  0  0  0  0  0  0  0  0
   48.1470   34.2680   44.3974 H   0  0  0  0  0  0  0  0  0  0  0  0
   43.8770   32.4974   44.2089 H   0  0  0  0  0  0  0  0  0  0  0  0
   49.4730   33.4253   35.9062 H   0  0  0  0  0  0  0  0  0  0  0  0
   48.1954   35.3971   36.8431 H   0  0  0  0  0  0  0  0  0  0  0  0
   44.4640   33.4555   45.8397 H   0  0  0  0  0  0  0  0  0  0  0  0
   45.6416   34.4246   46.7647 H   0  0  0  0  0  0  0  0  0  0  0  0
   44.3017   36.1592   46.0246 H   0  0  0  0  0  0  0  0  0  0  0  0
   45.3620   36.0304   44.5803 H   0  0  0  0  0  0  0  0  0  0  0  0
   43.7453   35.2475   44.5803 H   0  0  0  0  0  0  0  0  0  0  0  0
  1  7  1  0
  1  6  1  0
  2  1  1  0
  3  2  1  0
  3  4  1  0
  4  5  1  0
  5  8  1  0
  5  6  1  0
  6 20  1  0
  9  2  1  0
 10 15  2  0
 11 12  2  0
 11 10  1  0
 12 13  1  0
 13 14  2  0
 14  9  1  0
 15 14  1  0
 16 10  1  0
 16 18  1  0
 17 16  1  0
 19 16  1  0
 20 21  1  0
 22 21  1  0
  1 23  1  6
  2 24  1  6
  4 25  1  0
  4 26  1  0
  5 27  1  1
  6 28  1  1
  7 29  1  0
  8 30  1  0
 11 31  1  0
 12 32  1  0
 21 33  1  0
 21 34  1  0
 22 35  1  0
 22 36  1  0
 22 37  1  0
M  ISO  8  23  13  24  13  25  13  26  13  27  13  28  13  29   3  30   3
M  ISO  7  31  14  32  14  33   8  34   8  35   8  36   8  37   8
M  END
>  <minimizedAffinity>  (1) 
-4.74864149

>  <minimizedRMSD>  (1) 
1.46225739

$$$$
