
     RDKit          3D

 37 39  0  0  1  0  0  0  0  0999 V2000
   46.3790   34.2480   42.6390 N   0  0  0  0  0  0  0  0  0  0  0  0
   47.1190   35.4530   42.3820 C   0  0  0  0  0  0  0  0  0  0  0  0
   48.1000   35.2300   41.3120 C   0  0  0  0  0  0  0  0  0  0  0  0
   47.9130   34.0660   40.4150 C   0  0  0  0  0  0  0  0  0  0  0  0
   46.5600   33.4830   40.3420 C   0  0  0  0  0  0  0  0  0  0  0  0
   45.7290   33.5420   41.5940 C   0  0  2  0  0  0  0  0  0  0  0  0
   45.3840   34.2890   44.8760 C   0  0  0  0  0  0  0  0  0  0  0  0
   46.3160   33.7530   43.9780 C   0  0  0  0  0  0  0  0  0  0  0  0
   47.1700   32.7160   44.4470 C   0  0  0  0  0  0  0  0  0  0  0  0
   47.0260   32.3190   45.7240 N   0  0  0  0  0  0  0  0  0  0  0  0
   46.1200   32.8560   46.5570 C   0  0  0  0  0  0  0  0  0  0  0  0
   45.2950   33.8450   46.1350 N   0  0  0  0  0  0  0  0  0  0  0  0
   44.5350   35.3150   44.4190 N   0  0  0  0  0  0  0  0  0  0  0  0
   43.7220   31.4680   42.4330 Cl  0  0  0  0  0  0  0  0  0  0  0  0
   43.2660   32.9880   41.6450 C   0  0  0  0  0  0  0  0  0  0  0  0
   44.3190   33.8610   41.3250 C   0  0  0  0  0  0  0  0  0  0  0  0
   43.8390   35.0110   40.7140 C   0  0  0  0  0  0  0  0  0  0  0  0
   42.5120   35.2710   40.4540 C   0  0  0  0  0  0  0  0  0  0  0  0
   41.5670   34.3430   40.8130 C   0  0  0  0  0  0  0  0  0  0  0  0
   41.9390   33.1780   41.4200 C   0  0  0  0  0  0  0  0  0  0  0  0
   40.7500   31.9830   41.8850 Cl  0  0  0  0  0  0  0  0  0  0  0  0
   46.4230   36.2481   42.0763 H   0  0  0  0  0  0  0  0  0  0  0  0
   47.6502   35.7492   43.2986 H   0  0  0  0  0  0  0  0  0  0  0  0
   48.1020   36.1303   40.6800 H   0  0  0  0  0  0  0  0  0  0  0  0
   49.0368   35.0118   41.8457 H   0  0  0  0  0  0  0  0  0  0  0  0
   48.1924   34.3825   39.3992 H   0  0  0  0  0  0  0  0  0  0  0  0
   48.5415   33.2722   40.8450 H   0  0  0  0  0  0  0  0  0  0  0  0
   46.0101   34.0155   39.5520 H   0  0  0  0  0  0  0  0  0  0  0  0
   46.7178   32.4113   40.1509 H   0  0  0  0  0  0  0  0  0  0  0  0
   45.6512   32.5279   42.0129 H   0  0  0  0  0  0  0  0  0  0  0  0
   47.9212   32.2554   43.7886 H   0  0  0  0  0  0  0  0  0  0  0  0
   46.0467   32.4897   47.5916 H   0  0  0  0  0  0  0  0  0  0  0  0
   44.6098   35.6513   43.4483 H   0  0  0  0  0  0  0  0  0  0  0  0
   43.8391   35.7293   45.0554 H   0  0  0  0  0  0  0  0  0  0  0  0
   44.5743   35.7724   40.4148 H   0  0  0  0  0  0  0  0  0  0  0  0
   42.2134   36.2100   39.9651 H   0  0  0  0  0  0  0  0  0  0  0  0
   40.5037   34.5389   40.6106 H   0  0  0  0  0  0  0  0  0  0  0  0
  1  8  1  0
  2  1  1  0
  3  2  1  0
  4  3  1  0
  5  4  1  0
  5  6  1  0
  6  1  1  0
  7 12  2  0
  8  9  2  0
  8  7  1  0
  9 10  1  0
 10 11  2  0
 12 11  1  0
 13  7  1  0
 15 14  1  0
 16  6  1  0
 16 15  2  0
 17 16  1  0
 18 17  2  0
 18 19  1  0
 19 20  2  0
 20 15  1  0
 20 21  1  0
  2 22  1  0
  2 23  1  0
  3 24  1  0
  3 25  1  0
  4 26  1  0
  4 27  1  0
  5 28  1  0
  5 29  1  0
  6 30  1  1
  9 31  1  0
 11 32  1  0
 13 33  1  0
 13 34  1  0
 17 35  1  0
 18 36  1  0
 19 37  1  0
M  ISO  8  22  13  23  13  24  13  25  13  26  13  27  13  28  13  29  13
M  ISO  6  30  13  31  14  32  14  35  14  36  14  37  14
M  END
>  <minimizedAffinity>  (1) 
-5.64760971

>  <minimizedRMSD>  (1) 
2.11839509

$$$$
