
     RDKit          3D

 37 39  0  0  1  0  0  0  0  0999 V2000
   46.5110   34.9000   42.1930 N   0  0  0  0  0  0  0  0  0  0  0  0
   47.8240   35.4720   42.0440 C   0  0  0  0  0  0  0  0  0  0  0  0
   48.7360   34.5540   41.3470 C   0  0  0  0  0  0  0  0  0  0  0  0
   48.1250   33.4950   40.5190 C   0  0  0  0  0  0  0  0  0  0  0  0
   46.7210   33.6610   40.0970 C   0  0  0  0  0  0  0  0  0  0  0  0
   45.8420   34.4920   41.0070 C   0  0  1  0  0  0  0  0  0  0  0  0
   45.1020   35.8390   43.9250 C   0  0  0  0  0  0  0  0  0  0  0  0
   45.9450   34.7850   43.4710 C   0  0  0  0  0  0  0  0  0  0  0  0
   46.1500   33.7050   44.3270 C   0  0  0  0  0  0  0  0  0  0  0  0
   45.5310   33.7350   45.5310 N   0  0  0  0  0  0  0  0  0  0  0  0
   44.7460   34.7350   45.9330 C   0  0  0  0  0  0  0  0  0  0  0  0
   44.5190   35.8060   45.1310 N   0  0  0  0  0  0  0  0  0  0  0  0
   44.8730   36.9650   43.0740 N   0  0  0  0  0  0  0  0  0  0  0  0
   44.5050   33.8860   41.1680 C   0  0  0  0  0  0  0  0  0  0  0  0
   44.1960   32.6130   41.5850 C   0  0  0  0  0  0  0  0  0  0  0  0
   42.9230   32.1090   41.7340 C   0  0  0  0  0  0  0  0  0  0  0  0
   41.8450   32.9210   41.4510 C   0  0  0  0  0  0  0  0  0  0  0  0
   42.0540   34.1970   41.0310 C   0  0  0  0  0  0  0  0  0  0  0  0
   43.3380   34.6220   40.9080 C   0  0  0  0  0  0  0  0  0  0  0  0
   47.7442   36.4041   41.4654 H   0  0  0  0  0  0  0  0  0  0  0  0
   48.2311   35.6671   43.0471 H   0  0  0  0  0  0  0  0  0  0  0  0
   49.3766   35.1599   40.6894 H   0  0  0  0  0  0  0  0  0  0  0  0
   49.2651   34.0174   42.1483 H   0  0  0  0  0  0  0  0  0  0  0  0
   48.7313   33.4049   39.6056 H   0  0  0  0  0  0  0  0  0  0  0  0
   48.1092   32.6121   41.1750 H   0  0  0  0  0  0  0  0  0  0  0  0
   46.7229   34.1378   39.1057 H   0  0  0  0  0  0  0  0  0  0  0  0
   46.2879   32.6500   40.1133 H   0  0  0  0  0  0  0  0  0  0  0  0
   45.6331   35.4545   40.5171 H   0  0  0  0  0  0  0  0  0  0  0  0
   46.7907   32.8596   44.0357 H   0  0  0  0  0  0  0  0  0  0  0  0
   44.2766   34.6914   46.9269 H   0  0  0  0  0  0  0  0  0  0  0  0
   45.3137   37.0057   42.1440 H   0  0  0  0  0  0  0  0  0  0  0  0
   44.2673   37.7354   43.3910 H   0  0  0  0  0  0  0  0  0  0  0  0
   45.0351   31.9413   41.8191 H   0  0  0  0  0  0  0  0  0  0  0  0
   42.7685   31.0742   42.0737 H   0  0  0  0  0  0  0  0  0  0  0  0
   40.8202   32.5379   41.5646 H   0  0  0  0  0  0  0  0  0  0  0  0
   41.2105   34.8636   40.7983 H   0  0  0  0  0  0  0  0  0  0  0  0
   43.4794   35.6581   40.5667 H   0  0  0  0  0  0  0  0  0  0  0  0
  1  8  1  0
  2  1  1  0
  3  2  1  0
  4  3  1  0
  5  4  1  0
  5  6  1  0
  6 14  1  0
  6  1  1  0
  7 12  2  0
  8  7  1  0
  8  9  2  0
  9 10  1  0
 10 11  2  0
 12 11  1  0
 13  7  1  0
 14 15  2  0
 15 16  1  0
 17 16  2  0
 18 17  1  0
 19 18  2  0
 19 14  1  0
  2 20  1  0
  2 21  1  0
  3 22  1  0
  3 23  1  0
  4 24  1  0
  4 25  1  0
  5 26  1  0
  5 27  1  0
  6 28  1  6
  9 29  1  0
 11 30  1  0
 13 31  1  0
 13 32  1  0
 15 33  1  0
 16 34  1  0
 17 35  1  0
 18 36  1  0
 19 37  1  0
M  ISO  8  20  13  21  13  22  13  23  13  24  13  25  13  26  13  27  13
M  ISO  8  28  13  29  14  30  14  33  14  34  14  35  14  36  14  37  14
M  END
>  <minimizedAffinity>  (1) 
-5.35654259

>  <minimizedRMSD>  (1) 
0.567404807

$$$$
