
     RDKit          3D

 33 34  0  0  1  0  0  0  0  0999 V2000
   45.8790   35.0260   41.7620 C   0  0  1  0  0  0  0  0  0  0  0  0
   44.5440   34.6450   42.2610 C   0  0  2  0  0  0  0  0  0  0  0  0
   44.5720   34.3880   43.6690 O   0  0  0  0  0  0  0  0  0  0  0  0
   45.2750   33.1890   43.8060 C   0  0  0  0  0  0  0  0  0  0  0  0
   46.7450   33.4130   43.5170 C   0  0  1  0  0  0  0  0  0  0  0  0
   46.9820   34.6770   42.7560 C   0  0  1  0  0  0  0  0  0  0  0  0
   46.1450   34.4340   40.5100 O   0  0  0  0  0  0  0  0  0  0  0  0
   47.3600   33.5430   44.7760 O   0  0  0  0  0  0  0  0  0  0  0  0
   43.9570   33.4960   41.6630 O   0  0  0  0  0  0  0  0  0  0  0  0
   40.6470   32.3280   40.9380 C   0  0  0  0  0  0  0  0  0  0  0  0
   39.8730   33.5050   40.9420 C   0  0  0  0  0  0  0  0  0  0  0  0
   40.5230   34.7140   41.2010 C   0  0  0  0  0  0  0  0  0  0  0  0
   41.8610   34.6910   41.4330 N   0  0  0  0  0  0  0  0  0  0  0  0
   42.5790   33.5700   41.4260 C   0  0  0  0  0  0  0  0  0  0  0  0
   41.9710   32.3820   41.1770 N   0  0  0  0  0  0  0  0  0  0  0  0
   39.9390   31.0380   40.6650 C   0  0  0  0  0  0  0  0  0  0  0  0
   40.5350   30.3490   39.6540 F   0  0  0  0  0  0  0  0  0  0  0  0
   39.8970   30.3120   41.8470 F   0  0  0  0  0  0  0  0  0  0  0  0
   38.5830   31.3200   40.3750 F   0  0  0  0  0  0  0  0  0  0  0  0
   48.1710   34.5140   42.0030 O   0  0  0  0  0  0  0  0  0  0  0  0
   48.9590   35.6040   41.6300 C   0  0  0  0  0  0  0  0  0  0  0  0
   48.9150   35.9240   40.4180 O   0  0  0  0  0  0  0  0  0  0  0  0
   45.8707   36.1191   41.6389 H   0  0  0  0  0  0  0  0  0  0  0  0
   43.9314   35.5181   41.9919 H   0  0  0  0  0  0  0  0  0  0  0  0
   45.1590   32.8143   44.8337 H   0  0  0  0  0  0  0  0  0  0  0  0
   44.8753   32.4532   43.0927 H   0  0  0  0  0  0  0  0  0  0  0  0
   47.1386   32.5830   42.9119 H   0  0  0  0  0  0  0  0  0  0  0  0
   47.0290   35.4856   43.5003 H   0  0  0  0  0  0  0  0  0  0  0  0
   46.5469   33.5396   40.6466 H   0  0  0  0  0  0  0  0  0  0  0  0
   46.6872   33.4008   45.4882 H   0  0  0  0  0  0  0  0  0  0  0  0
   38.7908   33.4730   40.7473 H   0  0  0  0  0  0  0  0  0  0  0  0
   39.9647   35.6617   41.2167 H   0  0  0  0  0  0  0  0  0  0  0  0
   49.5810   36.1494   42.3551 H   0  0  0  0  0  0  0  0  0  0  0  0
  1  2  1  0
  1  6  1  0
  2  3  1  0
  3  4  1  0
  5  4  1  0
  5  8  1  0
  6  5  1  0
  7  1  1  0
  9  2  1  0
 10 11  2  0
 10 15  1  0
 11 12  1  0
 12 13  2  0
 14 13  1  0
 14  9  1  0
 15 14  2  0
 16 10  1  0
 16 18  1  0
 17 16  1  0
 19 16  1  0
 20  6  1  0
 21 20  1  0
 22 21  2  0
  1 23  1  6
  2 24  1  1
  4 25  1  0
  4 26  1  0
  5 27  1  6
  6 28  1  1
  7 29  1  0
  8 30  1  0
 11 31  1  0
 12 32  1  0
 21 33  1  0
M  ISO  8  23  13  24  13  25  13  26  13  27  13  28  13  29   3  30   3
M  ISO  3  31  14  32  14  33   6
M  END
>  <minimizedAffinity>  (1) 
-4.74561071

>  <minimizedRMSD>  (1) 
7.13735914

$$$$
