
     RDKit          3D

 36 38  0  0  1  0  0  0  0  0999 V2000
   46.3390   34.4250   42.4250 N   0  0  0  0  0  0  0  0  0  0  0  0
   47.2120   35.4710   42.0190 C   0  0  0  0  0  0  0  0  0  0  0  0
   48.4410   34.9240   41.4030 C   0  0  0  0  0  0  0  0  0  0  0  0
   48.3850   33.5410   40.9000 C   0  0  0  0  0  0  0  0  0  0  0  0
   47.0570   32.9440   40.6360 C   0  0  0  0  0  0  0  0  0  0  0  0
   45.9160   33.4260   41.4940 C   0  0  2  0  0  0  0  0  0  0  0  0
   45.0130   35.3800   44.2420 C   0  0  0  0  0  0  0  0  0  0  0  0
   45.8860   34.3780   43.7770 C   0  0  0  0  0  0  0  0  0  0  0  0
   46.2740   33.3680   44.6810 C   0  0  0  0  0  0  0  0  0  0  0  0
   45.7790   33.4280   45.9410 N   0  0  0  0  0  0  0  0  0  0  0  0
   44.9510   34.3950   46.3540 C   0  0  0  0  0  0  0  0  0  0  0  0
   44.5630   35.3770   45.5070 N   0  0  0  0  0  0  0  0  0  0  0  0
   44.6110   36.4030   43.3580 N   0  0  0  0  0  0  0  0  0  0  0  0
   44.7570   33.8640   40.6400 C   0  0  0  0  0  0  0  0  0  0  0  0
   44.5390   33.3080   39.3820 C   0  0  0  0  0  0  0  0  0  0  0  0
   43.5270   33.6320   38.5300 C   0  0  0  0  0  0  0  0  0  0  0  0
   42.6350   34.5990   38.9480 C   0  0  0  0  0  0  0  0  0  0  0  0
   42.8510   35.1470   40.1870 C   0  0  0  0  0  0  0  0  0  0  0  0
   43.8570   34.8100   41.0130 N   0  0  0  0  0  0  0  0  0  0  0  0
   46.6947   36.1078   41.2863 H   0  0  0  0  0  0  0  0  0  0  0  0
   47.4944   36.0571   42.9060 H   0  0  0  0  0  0  0  0  0  0  0  0
   48.7034   35.5739   40.5552 H   0  0  0  0  0  0  0  0  0  0  0  0
   49.1791   34.8989   42.2182 H   0  0  0  0  0  0  0  0  0  0  0  0
   48.9474   33.5151   39.9550 H   0  0  0  0  0  0  0  0  0  0  0  0
   48.7961   32.9363   41.7218 H   0  0  0  0  0  0  0  0  0  0  0  0
   46.7986   33.1559   39.5880 H   0  0  0  0  0  0  0  0  0  0  0  0
   47.1674   31.8760   40.8749 H   0  0  0  0  0  0  0  0  0  0  0  0
   45.5601   32.5833   42.1049 H   0  0  0  0  0  0  0  0  0  0  0  0
   46.9544   32.5599   44.3743 H   0  0  0  0  0  0  0  0  0  0  0  0
   44.5827   34.3917   47.3905 H   0  0  0  0  0  0  0  0  0  0  0  0
   44.9541   36.4087   42.3868 H   0  0  0  0  0  0  0  0  0  0  0  0
   43.9744   37.1443   43.6836 H   0  0  0  0  0  0  0  0  0  0  0  0
   45.2484   32.5374   39.0460 H   0  0  0  0  0  0  0  0  0  0  0  0
   43.4248   33.1435   37.5497 H   0  0  0  0  0  0  0  0  0  0  0  0
   41.7909   34.9152   38.3175 H   0  0  0  0  0  0  0  0  0  0  0  0
   42.1482   35.9204   40.5306 H   0  0  0  0  0  0  0  0  0  0  0  0
  1  8  1  0
  2  1  1  0
  3  2  1  0
  4  3  1  0
  5  4  1  0
  5  6  1  0
  6  1  1  0
  7 12  2  0
  8  7  1  0
  8  9  2  0
  9 10  1  0
 10 11  2  0
 12 11  1  0
 13  7  1  0
 14 19  1  0
 14  6  1  0
 15 14  2  0
 16 17  2  0
 16 15  1  0
 17 18  1  0
 18 19  2  0
  2 20  1  0
  2 21  1  0
  3 22  1  0
  3 23  1  0
  4 24  1  0
  4 25  1  0
  5 26  1  0
  5 27  1  0
  6 28  1  1
  9 29  1  0
 11 30  1  0
 13 31  1  0
 13 32  1  0
 15 33  1  0
 16 34  1  0
 17 35  1  0
 18 36  1  0
M  ISO  8  20  13  21  13  22  13  23  13  24  13  25  13  26  13  27  13
M  ISO  7  28  13  29  14  30  14  33  14  34  14  35  14  36  14
M  END
>  <minimizedAffinity>  (1) 
-5.1855607

>  <minimizedRMSD>  (1) 
1.45607221

$$$$
