
     RDKit          3D

 33 35  0  0  1  0  0  0  0  0999 V2000
   46.5720   34.8710   42.1410 N   0  0  0  0  0  0  0  0  0  0  0  0
   47.8730   35.4750   42.0050 C   0  0  0  0  0  0  0  0  0  0  0  0
   48.8080   34.5620   41.3280 C   0  0  0  0  0  0  0  0  0  0  0  0
   48.2220   33.4890   40.5010 C   0  0  0  0  0  0  0  0  0  0  0  0
   46.8190   33.6280   40.0690 C   0  0  0  0  0  0  0  0  0  0  0  0
   45.8900   34.3970   40.9760 C   0  0  1  0  0  0  0  0  0  0  0  0
   45.0870   35.7840   43.8320 C   0  0  0  0  0  0  0  0  0  0  0  0
   45.9970   34.7780   43.4240 C   0  0  0  0  0  0  0  0  0  0  0  0
   46.2500   33.7520   44.3310 C   0  0  0  0  0  0  0  0  0  0  0  0
   45.6330   33.7590   45.5280 N   0  0  0  0  0  0  0  0  0  0  0  0
   44.7690   34.7380   45.8830 C   0  0  0  0  0  0  0  0  0  0  0  0
   44.4910   35.7580   45.0340 N   0  0  0  0  0  0  0  0  0  0  0  0
   44.8070   36.8650   42.9410 N   0  0  0  0  0  0  0  0  0  0  0  0
   44.6820   33.5560   41.3100 C   0  0  0  0  0  0  0  0  0  0  0  0
   43.4730   34.2160   40.9440 C   0  0  0  0  0  0  0  0  0  0  0  0
   42.2540   32.9810   41.4360 S   0  0  0  0  0  0  0  0  0  0  0  0
   43.5120   31.7760   42.0510 C   0  0  0  0  0  0  0  0  0  0  0  0
   44.8710   32.3600   41.8630 N   0  0  0  0  0  0  0  0  0  0  0  0
   47.7812   36.3989   41.4151 H   0  0  0  0  0  0  0  0  0  0  0  0
   48.2639   35.6972   43.0089 H   0  0  0  0  0  0  0  0  0  0  0  0
   49.4501   35.1706   40.6743 H   0  0  0  0  0  0  0  0  0  0  0  0
   49.3331   34.0392   42.1410 H   0  0  0  0  0  0  0  0  0  0  0  0
   48.8361   33.4058   39.5922 H   0  0  0  0  0  0  0  0  0  0  0  0
   48.2175   32.6088   41.1608 H   0  0  0  0  0  0  0  0  0  0  0  0
   46.8223   34.1346   39.0926 H   0  0  0  0  0  0  0  0  0  0  0  0
   46.4222   32.6021   40.0615 H   0  0  0  0  0  0  0  0  0  0  0  0
   45.5342   35.2932   40.4466 H   0  0  0  0  0  0  0  0  0  0  0  0
   46.9482   32.9424   44.0718 H   0  0  0  0  0  0  0  0  0  0  0  0
   44.2869   34.7060   46.8712 H   0  0  0  0  0  0  0  0  0  0  0  0
   45.2568   36.8988   42.0150 H   0  0  0  0  0  0  0  0  0  0  0  0
   44.1554   37.6106   43.2246 H   0  0  0  0  0  0  0  0  0  0  0  0
   43.3243   35.2056   40.4874 H   0  0  0  0  0  0  0  0  0  0  0  0
   43.2941   30.7890   42.4850 H   0  0  0  0  0  0  0  0  0  0  0  0
  1  8  1  0
  2  1  1  0
  3  2  1  0
  4  3  1  0
  5  4  1  0
  5  6  1  0
  6 14  1  0
  6  1  1  0
  7 12  2  0
  8  7  1  0
  8  9  2  0
  9 10  1  0
 10 11  2  0
 12 11  1  0
 13  7  1  0
 14 18  1  0
 15 14  2  0
 15 16  1  0
 16 17  1  0
 18 17  2  0
  2 19  1  0
  2 20  1  0
  3 21  1  0
  3 22  1  0
  4 23  1  0
  4 24  1  0
  5 25  1  0
  5 26  1  0
  6 27  1  6
  9 28  1  0
 11 29  1  0
 13 30  1  0
 13 31  1  0
 15 32  1  0
 17 33  1  0
M  ISO  8  19  13  20  13  21  13  22  13  23  13  24  13  25  13  26  13
M  ISO  5  27  13  28  14  29  14  32  14  33  14
M  END
>  <minimizedAffinity>  (1) 
-4.94913197

>  <minimizedRMSD>  (1) 
0.235572159

$$$$
