
     RDKit          3D

 31 32  0  0  1  0  0  0  0  0999 V2000
   46.4090   34.8610   42.1760 N   0  0  0  0  0  0  0  0  0  0  0  0
   47.7170   35.4050   41.9700 C   0  0  0  0  0  0  0  0  0  0  0  0
   48.5590   34.4840   41.1910 C   0  0  0  0  0  0  0  0  0  0  0  0
   47.8900   33.4420   40.4060 C   0  0  0  0  0  0  0  0  0  0  0  0
   46.4510   33.6270   40.0750 C   0  0  0  0  0  0  0  0  0  0  0  0
   45.6330   34.4230   41.0470 C   0  0  1  0  0  0  0  0  0  0  0  0
   45.0180   35.7620   43.9580 C   0  0  0  0  0  0  0  0  0  0  0  0
   45.8870   34.7570   43.4920 C   0  0  0  0  0  0  0  0  0  0  0  0
   46.2000   33.6890   44.3530 C   0  0  0  0  0  0  0  0  0  0  0  0
   45.6380   33.6990   45.5880 N   0  0  0  0  0  0  0  0  0  0  0  0
   44.8140   34.6690   46.0070 C   0  0  0  0  0  0  0  0  0  0  0  0
   44.5020   35.6960   45.2040 N   0  0  0  0  0  0  0  0  0  0  0  0
   44.6950   36.8380   43.1070 N   0  0  0  0  0  0  0  0  0  0  0  0
   43.1280   34.0540   41.1770 C   0  0  0  0  0  0  0  0  0  0  0  0
   42.8540   35.0730   40.5060 O   0  0  0  0  0  0  0  0  0  0  0  0
   44.4420   33.6760   41.4790 N   0  0  0  0  0  0  0  0  0  0  0  0
   47.6282   36.3570   41.4262 H   0  0  0  0  0  0  0  0  0  0  0  0
   48.1878   35.5618   42.9517 H   0  0  0  0  0  0  0  0  0  0  0  0
   49.1501   35.0929   40.4911 H   0  0  0  0  0  0  0  0  0  0  0  0
   49.1372   33.9321   41.9467 H   0  0  0  0  0  0  0  0  0  0  0  0
   48.4345   33.3500   39.4546 H   0  0  0  0  0  0  0  0  0  0  0  0
   47.9085   32.5556   41.0571 H   0  0  0  0  0  0  0  0  0  0  0  0
   46.3958   34.1333   39.1000 H   0  0  0  0  0  0  0  0  0  0  0  0
   46.0181   32.6159   40.0932 H   0  0  0  0  0  0  0  0  0  0  0  0
   45.2944   35.3260   40.5178 H   0  0  0  0  0  0  0  0  0  0  0  0
   46.8734   32.8784   44.0375 H   0  0  0  0  0  0  0  0  0  0  0  0
   44.3891   34.6221   47.0205 H   0  0  0  0  0  0  0  0  0  0  0  0
   45.0927   36.8813   42.1578 H   0  0  0  0  0  0  0  0  0  0  0  0
   44.0613   37.5811   43.4342 H   0  0  0  0  0  0  0  0  0  0  0  0
   42.3019   33.4281   41.5456 H   0  0  0  0  0  0  0  0  0  0  0  0
   44.5831   32.8225   42.0380 H   0  0  0  0  0  0  0  0  0  0  0  0
  1  8  1  0
  2  1  1  0
  3  2  1  0
  4  3  1  0
  5  4  1  0
  5  6  1  0
  6 16  1  0
  6  1  1  0
  7 12  2  0
  8  7  1  0
  8  9  2  0
  9 10  1  0
 10 11  2  0
 12 11  1  0
 13  7  1  0
 14 16  1  0
 15 14  2  0
  2 17  1  0
  2 18  1  0
  3 19  1  0
  3 20  1  0
  4 21  1  0
  4 22  1  0
  5 23  1  0
  5 24  1  0
  6 25  1  6
  9 26  1  0
 11 27  1  0
 13 28  1  0
 13 29  1  0
 14 30  1  0
 16 31  1  0
M  ISO  8  17  13  18  13  19  13  20  13  21  13  22  13  23  13  24  13
M  ISO  4  25  13  26  14  27  14  30   6
M  END
>  <minimizedAffinity>  (1) 
-4.89646816

>  <minimizedRMSD>  (1) 
0.127235532

$$$$
