
     RDKit          3D

 28 29  0  0  1  0  0  0  0  0999 V2000
   46.3280   34.6640   42.2970 N   0  0  0  0  0  0  0  0  0  0  0  0
   47.4160   35.5490   41.9910 C   0  0  0  0  0  0  0  0  0  0  0  0
   48.3540   34.9100   41.0470 C   0  0  0  0  0  0  0  0  0  0  0  0
   47.8580   33.7850   40.2490 C   0  0  0  0  0  0  0  0  0  0  0  0
   46.3810   33.6080   40.1030 C   0  0  0  0  0  0  0  0  0  0  0  0
   45.5420   34.0880   41.2480 C   0  0  2  0  0  0  0  0  0  0  0  0
   45.0790   35.1460   44.3420 C   0  0  0  0  0  0  0  0  0  0  0  0
   46.0420   34.3690   43.6530 C   0  0  0  0  0  0  0  0  0  0  0  0
   46.6780   33.3220   44.3710 C   0  0  0  0  0  0  0  0  0  0  0  0
   46.3270   33.1310   45.6560 N   0  0  0  0  0  0  0  0  0  0  0  0
   45.4100   33.8840   46.2810 C   0  0  0  0  0  0  0  0  0  0  0  0
   44.7850   34.8880   45.6300 N   0  0  0  0  0  0  0  0  0  0  0  0
   44.4340   36.1920   43.6450 N   0  0  0  0  0  0  0  0  0  0  0  0
   44.6490   35.0790   40.8050 O   0  0  0  0  0  0  0  0  0  0  0  0
   47.0177   36.4689   41.5382 H   0  0  0  0  0  0  0  0  0  0  0  0
   47.9539   35.7855   42.9209 H   0  0  0  0  0  0  0  0  0  0  0  0
   48.6932   35.6861   40.3452 H   0  0  0  0  0  0  0  0  0  0  0  0
   49.1364   34.4739   41.6855 H   0  0  0  0  0  0  0  0  0  0  0  0
   48.2728   33.8978   39.2365 H   0  0  0  0  0  0  0  0  0  0  0  0
   48.1807   32.8954   40.8097 H   0  0  0  0  0  0  0  0  0  0  0  0
   46.0646   34.1547   39.2025 H   0  0  0  0  0  0  0  0  0  0  0  0
   46.2177   32.5213   40.0529 H   0  0  0  0  0  0  0  0  0  0  0  0
   45.0114   33.2062   41.6364 H   0  0  0  0  0  0  0  0  0  0  0  0
   47.4357   32.6854   43.8907 H   0  0  0  0  0  0  0  0  0  0  0  0
   45.1648   33.6816   47.3341 H   0  0  0  0  0  0  0  0  0  0  0  0
   44.6702   36.3766   42.6596 H   0  0  0  0  0  0  0  0  0  0  0  0
   43.7275   36.7700   44.1222 H   0  0  0  0  0  0  0  0  0  0  0  0
   44.2424   35.5302   41.5868 H   0  0  0  0  0  0  0  0  0  0  0  0
  1  8  1  0
  2  1  1  0
  3  2  1  0
  4  3  1  0
  5  4  1  0
  5  6  1  0
  6  1  1  0
  7 12  2  0
  8  7  1  0
  8  9  2  0
  9 10  1  0
 10 11  2  0
 12 11  1  0
 13  7  1  0
 14  6  1  0
  2 15  1  0
  2 16  1  0
  3 17  1  0
  3 18  1  0
  4 19  1  0
  4 20  1  0
  5 21  1  0
  5 22  1  0
  6 23  1  1
  9 24  1  0
 11 25  1  0
 13 26  1  0
 13 27  1  0
 14 28  1  0
M  ISO  8  15  13  16  13  17  13  18  13  19  13  20  13  21  13  22  13
M  ISO  4  23  13  24  14  25  14  28   3
M  END
>  <minimizedAffinity>  (1) 
-4.64390564

>  <minimizedRMSD>  (1) 
0.639071286

$$$$
