
     RDKit          3D

 34 35  0  0  1  0  0  0  0  0999 V2000
   46.0960   34.8490   42.0180 C   0  0  1  0  0  0  0  0  0  0  0  0
   46.2460   34.0770   40.7690 C   0  0  2  0  0  0  0  0  0  0  0  0
   45.2050   33.1020   40.6320 O   0  0  0  0  0  0  0  0  0  0  0  0
   45.4900   32.1320   41.5990 C   0  0  0  0  0  0  0  0  0  0  0  0
   45.1990   32.6830   42.9810 C   0  0  1  0  0  0  0  0  0  0  0  0
   45.1420   34.1730   42.9960 C   0  0  1  0  0  0  0  0  0  0  0  0
   47.3450   35.0730   42.6340 O   0  0  0  0  0  0  0  0  0  0  0  0
   43.9280   32.1900   43.3260 O   0  0  0  0  0  0  0  0  0  0  0  0
   47.4690   33.3710   40.6140 O   0  0  0  0  0  0  0  0  0  0  0  0
   49.6480   32.4180   37.9320 C   0  0  0  0  0  0  0  0  0  0  0  0
   49.2190   33.2080   36.8640 C   0  0  0  0  0  0  0  0  0  0  0  0
   48.1540   34.0910   37.0770 C   0  0  0  0  0  0  0  0  0  0  0  0
   47.5940   34.1310   38.3150 N   0  0  0  0  0  0  0  0  0  0  0  0
   48.0140   33.3710   39.3230 C   0  0  0  0  0  0  0  0  0  0  0  0
   49.0470   32.5110   39.1290 N   0  0  0  0  0  0  0  0  0  0  0  0
   50.7900   31.4740   37.6920 C   0  0  0  0  0  0  0  0  0  0  0  0
   51.9910   32.0600   37.9550 F   0  0  0  0  0  0  0  0  0  0  0  0
   50.5750   30.3390   38.4580 F   0  0  0  0  0  0  0  0  0  0  0  0
   50.7150   31.0340   36.3430 F   0  0  0  0  0  0  0  0  0  0  0  0
   45.5050   34.6040   44.2900 O   0  0  0  0  0  0  0  0  0  0  0  0
   44.5990   35.5550   44.7570 C   0  0  0  0  0  0  0  0  0  0  0  0
   45.6616   35.8203   41.7389 H   0  0  0  0  0  0  0  0  0  0  0  0
   46.2067   34.8620   39.9994 H   0  0  0  0  0  0  0  0  0  0  0  0
   44.8653   31.2443   41.4209 H   0  0  0  0  0  0  0  0  0  0  0  0
   46.5530   31.8564   41.5345 H   0  0  0  0  0  0  0  0  0  0  0  0
   45.9950   32.3804   43.6773 H   0  0  0  0  0  0  0  0  0  0  0  0
   44.1192   34.4510   42.7016 H   0  0  0  0  0  0  0  0  0  0  0  0
   47.2360   35.0534   43.6178 H   0  0  0  0  0  0  0  0  0  0  0  0
   43.8432   32.1571   44.3118 H   0  0  0  0  0  0  0  0  0  0  0  0
   49.7056   33.1383   35.8799 H   0  0  0  0  0  0  0  0  0  0  0  0
   47.7810   34.7339   36.2661 H   0  0  0  0  0  0  0  0  0  0  0  0
   44.6003   35.5536   45.8570 H   0  0  0  0  0  0  0  0  0  0  0  0
   44.8912   36.5504   44.3913 H   0  0  0  0  0  0  0  0  0  0  0  0
   43.5906   35.3114   44.3913 H   0  0  0  0  0  0  0  0  0  0  0  0
  1  7  1  0
  1  6  1  0
  2  1  1  0
  3  2  1  0
  3  4  1  0
  4  5  1  0
  5  6  1  0
  5  8  1  0
  6 20  1  0
  9  2  1  0
 10 15  2  0
 11 12  2  0
 11 10  1  0
 12 13  1  0
 13 14  2  0
 14  9  1  0
 15 14  1  0
 16 10  1  0
 16 17  1  0
 16 18  1  0
 19 16  1  0
 20 21  1  0
  1 22  1  6
  2 23  1  6
  4 24  1  0
  4 25  1  0
  5 26  1  1
  6 27  1  6
  7 28  1  0
  8 29  1  0
 11 30  1  0
 12 31  1  0
 21 32  1  0
 21 33  1  0
 21 34  1  0
M  ISO  8  22  13  23  13  24  13  25  13  26  13  27  13  28   3  29   3
M  ISO  5  30  14  31  14  32   8  33   8  34   8
M  END
>  <minimizedAffinity>  (1) 
-4.2320447

>  <minimizedRMSD>  (1) 
0.681477308

$$$$
