
     RDKit          3D

 32 34  0  0  0  0  0  0  0  0999 V2000
   46.8080   32.5240   44.8130 C   0  0  0  0  0  0  0  0  0  0  0  0
   46.1250   31.3560   45.4040 C   0  0  0  0  0  0  0  0  0  0  0  0
   45.7020   30.2660   44.6920 C   0  0  0  0  0  0  0  0  0  0  0  0
   45.0560   29.1950   45.2850 C   0  0  0  0  0  0  0  0  0  0  0  0
   44.8010   29.1580   46.6180 C   0  0  0  0  0  0  0  0  0  0  0  0
   45.2260   30.2570   47.3490 C   0  0  0  0  0  0  0  0  0  0  0  0
   44.9740   30.2300   48.7230 C   0  0  0  0  0  0  0  0  0  0  0  0
   45.3600   31.2700   49.5420 C   0  0  0  0  0  0  0  0  0  0  0  0
   46.0070   32.3530   48.9780 C   0  0  0  0  0  0  0  0  0  0  0  0
   46.2310   32.3290   47.6170 C   0  0  0  0  0  0  0  0  0  0  0  0
   45.8670   31.3170   46.7580 C   0  0  0  0  0  0  0  0  0  0  0  0
   47.7340   32.1320   43.6740 C   0  0  0  0  0  0  0  0  0  0  0  0
   48.1930   33.3560   43.0050 C   0  0  0  0  0  0  0  0  0  0  0  0
   47.3070   34.2790   42.4720 C   0  0  0  0  0  0  0  0  0  0  0  0
   47.8500   35.4260   41.8470 C   0  0  0  0  0  0  0  0  0  0  0  0
   49.1960   35.5410   41.8140 N   0  0  0  0  0  0  0  0  0  0  0  0
   50.0150   34.6210   42.3450 C   0  0  0  0  0  0  0  0  0  0  0  0
   49.5200   33.5380   42.9360 N   0  0  0  0  0  0  0  0  0  0  0  0
   46.0489   33.2211   44.4284 H   0  0  0  0  0  0  0  0  0  0  0  0
   47.4191   32.9913   45.5993 H   0  0  0  0  0  0  0  0  0  0  0  0
   45.8824   30.2403   43.6072 H   0  0  0  0  0  0  0  0  0  0  0  0
   44.7398   28.3486   44.6575 H   0  0  0  0  0  0  0  0  0  0  0  0
   44.2879   28.3071   47.0899 H   0  0  0  0  0  0  0  0  0  0  0  0
   44.4578   29.3624   49.1598 H   0  0  0  0  0  0  0  0  0  0  0  0
   45.1570   31.2382   50.6226 H   0  0  0  0  0  0  0  0  0  0  0  0
   46.3322   33.2050   49.5931 H   0  0  0  0  0  0  0  0  0  0  0  0
   46.7467   33.1963   47.1790 H   0  0  0  0  0  0  0  0  0  0  0  0
   48.5984   31.5799   44.0716 H   0  0  0  0  0  0  0  0  0  0  0  0
   47.2006   31.4887   42.9587 H   0  0  0  0  0  0  0  0  0  0  0  0
   46.2195   34.1250   42.5329 H   0  0  0  0  0  0  0  0  0  0  0  0
   47.2007   36.1957   41.4043 H   0  0  0  0  0  0  0  0  0  0  0  0
   51.1044   34.7637   42.2910 H   0  0  0  0  0  0  0  0  0  0  0  0
  1  2  1  0
  2 11  2  0
  3  4  2  0
  3  2  1  0
  4  5  1  0
  5  6  2  0
  6  7  1  0
  7  8  2  0
  9  8  1  0
 10  9  2  0
 11  6  1  0
 11 10  1  0
 12  1  1  0
 13 12  1  0
 14 13  2  0
 15 14  1  0
 16 15  2  0
 16 17  1  0
 17 18  2  0
 18 13  1  0
  1 19  1  0
  1 20  1  0
  3 21  1  0
  4 22  1  0
  5 23  1  0
  7 24  1  0
  8 25  1  0
  9 26  1  0
 10 27  1  0
 12 28  1  0
 12 29  1  0
 14 30  1  0
 15 31  1  0
 17 32  1  0
M  ISO  8  19   8  20   8  21  14  22  14  23  14  24  14  25  14  26  14
M  ISO  6  27  14  28   8  29   8  30  14  31  14  32  14
M  END
>  <minimizedAffinity>  (1) 
-4.95872736

>  <minimizedRMSD>  (1) 
7.16527224

$$$$
