
     RDKit          3D

 23 24  0  0  0  0  0  0  0  0999 V2000
   46.8150   34.5950   41.6770 C   0  0  0  0  0  0  0  0  0  0  0  0
   46.1000   34.8030   42.9320 C   0  0  0  0  0  0  0  0  0  0  0  0
   45.2960   35.9140   43.1380 C   0  0  0  0  0  0  0  0  0  0  0  0
   44.6340   36.0460   44.3810 C   0  0  0  0  0  0  0  0  0  0  0  0
   44.8320   35.0620   45.3020 N   0  0  0  0  0  0  0  0  0  0  0  0
   45.6200   33.9970   45.0640 C   0  0  0  0  0  0  0  0  0  0  0  0
   46.2370   33.8860   43.8900 N   0  0  0  0  0  0  0  0  0  0  0  0
   48.1070   35.3920   41.7160 C   0  0  0  0  0  0  0  0  0  0  0  0
   49.2070   34.3790   41.8520 C   0  0  0  0  0  0  0  0  0  0  0  0
   50.3080   34.5940   42.6280 C   0  0  0  0  0  0  0  0  0  0  0  0
   51.1280   33.5130   42.5580 N   0  0  0  0  0  0  0  0  0  0  0  0
   50.5280   32.6440   41.7440 C   0  0  0  0  0  0  0  0  0  0  0  0
   49.3730   33.1700   41.3220 N   0  0  0  0  0  0  0  0  0  0  0  0
   46.1941   34.9371   40.8359 H   0  0  0  0  0  0  0  0  0  0  0  0
   47.0375   33.5259   41.5447 H   0  0  0  0  0  0  0  0  0  0  0  0
   45.1759   36.6750   42.3529 H   0  0  0  0  0  0  0  0  0  0  0  0
   43.9855   36.9083   44.5953 H   0  0  0  0  0  0  0  0  0  0  0  0
   45.7531   33.2235   45.8347 H   0  0  0  0  0  0  0  0  0  0  0  0
   48.2297   35.9688   40.7874 H   0  0  0  0  0  0  0  0  0  0  0  0
   48.1141   36.1123   42.5474 H   0  0  0  0  0  0  0  0  0  0  0  0
   50.5018   35.5015   43.2186 H   0  0  0  0  0  0  0  0  0  0  0  0
   52.0313   33.3896   43.0373 H   0  0  0  0  0  0  0  0  0  0  0  0
   50.9195   31.6547   41.4648 H   0  0  0  0  0  0  0  0  0  0  0  0
  1  8  1  0
  1  2  1  0
  2  3  2  0
  2  7  1  0
  3  4  1  0
  4  5  2  0
  6  5  1  0
  7  6  2  0
  8  9  1  0
  9 10  2  0
 11 10  1  0
 12 11  1  0
 13 12  2  0
 13  9  1  0
  1 14  1  0
  1 15  1  0
  3 16  1  0
  4 17  1  0
  6 18  1  0
  8 19  1  0
  8 20  1  0
 10 21  1  0
 11 22  1  0
 12 23  1  0
M  ISO  8  14   8  15   8  16  14  17  14  18  14  19   8  20   8  21  14
M  ISO  2  22   9  23  14
M  END
>  <minimizedAffinity>  (1) 
-4.65501404

>  <minimizedRMSD>  (1) 
1.60950971

$$$$
