
     RDKit          3D

 18 18  0  0  0  0  0  0  0  0999 V2000
   46.9910   34.2640   43.3710 C   0  0  0  0  0  0  0  0  0  0  0  0
   46.3670   35.2740   42.6530 C   0  0  0  0  0  0  0  0  0  0  0  0
   45.1610   35.8100   43.1580 C   0  0  0  0  0  0  0  0  0  0  0  0
   44.6810   35.2950   44.3320 N   0  0  0  0  0  0  0  0  0  0  0  0
   45.3300   34.3040   44.9990 C   0  0  0  0  0  0  0  0  0  0  0  0
   46.4810   33.8000   44.5100 N   0  0  0  0  0  0  0  0  0  0  0  0
   48.2400   33.6510   42.9230 C   0  0  0  0  0  0  0  0  0  0  0  0
   49.0940   34.7220   42.2620 C   0  0  0  0  0  0  0  0  0  0  0  0
   50.2110   35.1090   43.0570 N   0  0  0  0  0  0  0  0  0  0  0  0
   46.8004   35.6483   41.7138 H   0  0  0  0  0  0  0  0  0  0  0  0
   44.6273   36.6120   42.6270 H   0  0  0  0  0  0  0  0  0  0  0  0
   44.9152   33.9125   45.9396 H   0  0  0  0  0  0  0  0  0  0  0  0
   48.7764   33.2289   43.7856 H   0  0  0  0  0  0  0  0  0  0  0  0
   48.0276   32.8435   42.2069 H   0  0  0  0  0  0  0  0  0  0  0  0
   49.4643   34.3328   41.3021 H   0  0  0  0  0  0  0  0  0  0  0  0
   48.4613   35.6116   42.1262 H   0  0  0  0  0  0  0  0  0  0  0  0
   49.9681   35.0249   44.0544 H   0  0  0  0  0  0  0  0  0  0  0  0
   51.0115   34.4963   42.8457 H   0  0  0  0  0  0  0  0  0  0  0  0
  1  6  2  0
  2  3  2  0
  2  1  1  0
  3  4  1  0
  4  5  2  0
  6  5  1  0
  7  1  1  0
  8  7  1  0
  8  9  1  0
  2 10  1  0
  3 11  1  0
  5 12  1  0
  7 13  1  0
  7 14  1  0
  8 15  1  0
  8 16  1  0
  9 17  1  0
  9 18  1  0
M  ISO  8  10  14  11  14  12  14  13   8  14   8  15   8  16   8  17   5
M  ISO  1  18   5
M  END
>  <minimizedAffinity>  (1) 
-3.73962402

>  <minimizedRMSD>  (1) 
0.458533257

$$$$
