
     RDKit          3D

 32 34  0  0  0  0  0  0  0  0999 V2000
   48.3110   33.5690   42.7240 C   0  0  0  0  0  0  0  0  0  0  0  0
   49.0960   32.8970   41.7450 C   0  0  0  0  0  0  0  0  0  0  0  0
   48.8780   32.2850   40.4640 C   0  0  0  0  0  0  0  0  0  0  0  0
   49.9130   31.7180   39.7940 C   0  0  0  0  0  0  0  0  0  0  0  0
   51.2140   31.7660   40.4320 C   0  0  0  0  0  0  0  0  0  0  0  0
   50.9480   32.6280   41.9940 S   0  0  0  0  0  0  0  0  0  0  0  0
   52.4020   31.2110   39.8480 C   0  0  0  0  0  0  0  0  0  0  0  0
   53.2580   30.3570   40.5110 C   0  0  0  0  0  0  0  0  0  0  0  0
   54.3510   29.9220   39.7920 C   0  0  0  0  0  0  0  0  0  0  0  0
   54.5870   30.3080   38.4900 C   0  0  0  0  0  0  0  0  0  0  0  0
   53.6900   31.1650   37.8850 C   0  0  0  0  0  0  0  0  0  0  0  0
   52.6090   31.5970   38.5900 N   0  0  0  0  0  0  0  0  0  0  0  0
   47.8520   34.9580   42.3870 C   0  0  0  0  0  0  0  0  0  0  0  0
   46.4110   34.9710   42.2440 C   0  0  0  0  0  0  0  0  0  0  0  0
   45.5770   35.5030   43.2230 C   0  0  0  0  0  0  0  0  0  0  0  0
   44.2030   35.4860   43.0270 C   0  0  0  0  0  0  0  0  0  0  0  0
   43.7370   34.9470   41.8800 N   0  0  0  0  0  0  0  0  0  0  0  0
   44.5590   34.4380   40.9470 C   0  0  0  0  0  0  0  0  0  0  0  0
   45.8680   34.4520   41.1280 N   0  0  0  0  0  0  0  0  0  0  0  0
   47.4150   32.9581   42.9087 H   0  0  0  0  0  0  0  0  0  0  0  0
   48.9749   33.6882   43.5929 H   0  0  0  0  0  0  0  0  0  0  0  0
   47.8695   32.2759   40.0249 H   0  0  0  0  0  0  0  0  0  0  0  0
   49.7713   31.2436   38.8117 H   0  0  0  0  0  0  0  0  0  0  0  0
   53.0797   30.0422   41.5498 H   0  0  0  0  0  0  0  0  0  0  0  0
   55.0638   29.2390   40.2772 H   0  0  0  0  0  0  0  0  0  0  0  0
   55.4698   29.9415   37.9457 H   0  0  0  0  0  0  0  0  0  0  0  0
   53.8467   31.4943   36.8472 H   0  0  0  0  0  0  0  0  0  0  0  0
   48.1464   35.6466   43.1927 H   0  0  0  0  0  0  0  0  0  0  0  0
   48.3162   35.2775   41.4423 H   0  0  0  0  0  0  0  0  0  0  0  0
   46.0022   35.9323   44.1422 H   0  0  0  0  0  0  0  0  0  0  0  0
   43.5164   35.8980   43.7812 H   0  0  0  0  0  0  0  0  0  0  0  0
   44.1395   34.0067   40.0261 H   0  0  0  0  0  0  0  0  0  0  0  0
  2  6  1  0
  2  1  1  0
  3  2  2  0
  4  5  2  0
  4  3  1  0
  5  6  1  0
  7  5  1  0
  7  8  2  0
  9  8  1  0
 10  9  2  0
 11 10  1  0
 11 12  2  0
 12  7  1  0
 13  1  1  0
 14 13  1  0
 14 15  2  0
 16 15  1  0
 17 16  2  0
 18 19  2  0
 18 17  1  0
 19 14  1  0
  1 20  1  0
  1 21  1  0
  3 22  1  0
  4 23  1  0
  8 24  1  0
  9 25  1  0
 10 26  1  0
 11 27  1  0
 13 28  1  0
 13 29  1  0
 15 30  1  0
 16 31  1  0
 18 32  1  0
M  ISO  8  20   8  21   8  22  14  23  14  24  14  25  14  26  14  27  14
M  ISO  5  28   8  29   8  30  14  31  14  32  14
M  END
>  <minimizedAffinity>  (1) 
-4.18779612

>  <minimizedRMSD>  (1) 
1.348014

$$$$
