
     RDKit          3D

 38 40  0  0  0  0  0  0  0  0999 V2000
   48.4590   33.9380   42.5310 C   0  0  0  0  0  0  0  0  0  0  0  0
   49.2040   33.1120   41.6430 C   0  0  0  0  0  0  0  0  0  0  0  0
   49.0070   32.4760   40.3700 C   0  0  0  0  0  0  0  0  0  0  0  0
   49.9930   31.7560   39.8280 C   0  0  0  0  0  0  0  0  0  0  0  0
   51.2640   31.6410   40.5650 C   0  0  0  0  0  0  0  0  0  0  0  0
   50.9680   32.6130   42.0700 S   0  0  0  0  0  0  0  0  0  0  0  0
   52.4380   31.0320   40.3430 N   0  0  0  0  0  0  0  0  0  0  0  0
   52.9820   30.0700   41.2820 C   0  0  0  0  0  0  0  0  0  0  0  0
   53.8000   28.9850   40.6310 C   0  0  0  0  0  0  0  0  0  0  0  0
   53.4980   28.9600   39.1580 C   0  0  0  0  0  0  0  0  0  0  0  0
   54.0000   30.2570   38.5840 C   0  0  0  0  0  0  0  0  0  0  0  0
   53.1790   31.3770   39.1270 C   0  0  0  0  0  0  0  0  0  0  0  0
   47.8370   35.1700   41.9200 C   0  0  0  0  0  0  0  0  0  0  0  0
   46.3820   35.0530   42.0120 C   0  0  0  0  0  0  0  0  0  0  0  0
   45.6550   35.5940   43.0610 C   0  0  0  0  0  0  0  0  0  0  0  0
   44.2810   35.4340   43.0650 C   0  0  0  0  0  0  0  0  0  0  0  0
   43.7000   34.7600   42.0570 N   0  0  0  0  0  0  0  0  0  0  0  0
   44.4250   34.2390   41.0440 C   0  0  0  0  0  0  0  0  0  0  0  0
   45.7410   34.4010   41.0500 N   0  0  0  0  0  0  0  0  0  0  0  0
   47.6493   33.3285   42.9588 H   0  0  0  0  0  0  0  0  0  0  0  0
   49.1830   34.3067   43.2725 H   0  0  0  0  0  0  0  0  0  0  0  0
   48.0471   32.5816   39.8432 H   0  0  0  0  0  0  0  0  0  0  0  0
   49.8595   31.2608   38.8549 H   0  0  0  0  0  0  0  0  0  0  0  0
   53.6229   30.6066   41.9970 H   0  0  0  0  0  0  0  0  0  0  0  0
   52.1276   29.5792   41.7711 H   0  0  0  0  0  0  0  0  0  0  0  0
   54.8702   29.1878   40.7845 H   0  0  0  0  0  0  0  0  0  0  0  0
   53.5488   28.0118   41.0781 H   0  0  0  0  0  0  0  0  0  0  0  0
   54.0116   28.1120   38.6814 H   0  0  0  0  0  0  0  0  0  0  0  0
   52.4187   28.8438   38.9805 H   0  0  0  0  0  0  0  0  0  0  0  0
   53.9130   30.2335   37.4877 H   0  0  0  0  0  0  0  0  0  0  0  0
   55.0552   30.4019   38.8589 H   0  0  0  0  0  0  0  0  0  0  0  0
   53.8491   32.2186   39.3563 H   0  0  0  0  0  0  0  0  0  0  0  0
   52.4335   31.6294   38.3585 H   0  0  0  0  0  0  0  0  0  0  0  0
   48.1362   35.2516   40.8646 H   0  0  0  0  0  0  0  0  0  0  0  0
   48.1764   36.0680   42.4571 H   0  0  0  0  0  0  0  0  0  0  0  0
   46.1597   36.1387   43.8725 H   0  0  0  0  0  0  0  0  0  0  0  0
   43.6728   35.8519   43.8807 H   0  0  0  0  0  0  0  0  0  0  0  0
   43.9325   33.6898   40.2280 H   0  0  0  0  0  0  0  0  0  0  0  0
  2  6  1  0
  2  1  1  0
  3  2  2  0
  4  3  1  0
  4  5  2  0
  5  6  1  0
  7  5  1  0
  7  8  1  0
  9  8  1  0
 10  9  1  0
 11 12  1  0
 11 10  1  0
 12  7  1  0
 13 14  1  0
 13  1  1  0
 14 15  2  0
 15 16  1  0
 17 16  2  0
 18 19  2  0
 18 17  1  0
 19 14  1  0
  1 20  1  0
  1 21  1  0
  3 22  1  0
  4 23  1  0
  8 24  1  0
  8 25  1  0
  9 26  1  0
  9 27  1  0
 10 28  1  0
 10 29  1  0
 11 30  1  0
 11 31  1  0
 12 32  1  0
 12 33  1  0
 13 34  1  0
 13 35  1  0
 15 36  1  0
 16 37  1  0
 18 38  1  0
M  ISO  8  20   8  21   8  22  14  23  14  24  13  25  13  26  13  27  13
M  ISO  8  28  13  29  13  30  13  31  13  32  13  33  13  34   8  35   8
M  ISO  3  36  14  37  14  38  14
M  END
>  <minimizedAffinity>  (1) 
-3.9517765

>  <minimizedRMSD>  (1) 
1.02429414

$$$$
