
     RDKit          3D

 24 25  0  0  0  0  0  0  0  0999 V2000
   48.0840   35.3450   41.7890 C   0  0  0  0  0  0  0  0  0  0  0  0
   46.7410   34.8660   42.0940 C   0  0  0  0  0  0  0  0  0  0  0  0
   46.2820   34.7310   43.3860 C   0  0  0  0  0  0  0  0  0  0  0  0
   44.9800   34.2660   43.6030 C   0  0  0  0  0  0  0  0  0  0  0  0
   44.2390   33.9700   42.5130 N   0  0  0  0  0  0  0  0  0  0  0  0
   44.7110   34.1100   41.2640 C   0  0  0  0  0  0  0  0  0  0  0  0
   45.9380   34.5490   41.0610 N   0  0  0  0  0  0  0  0  0  0  0  0
   49.0900   34.3840   42.3270 C   0  0  0  0  0  0  0  0  0  0  0  0
   49.4850   33.3150   41.4780 C   0  0  0  0  0  0  0  0  0  0  0  0
   48.9820   32.6810   40.2970 C   0  0  0  0  0  0  0  0  0  0  0  0
   49.6700   31.6360   39.7450 C   0  0  0  0  0  0  0  0  0  0  0  0
   50.8990   31.2220   40.4070 C   0  0  0  0  0  0  0  0  0  0  0  0
   51.0780   32.3330   41.8260 S   0  0  0  0  0  0  0  0  0  0  0  0
   51.9320   29.9640   39.9300 S   0  0  0  0  0  0  0  0  0  0  0  0
   48.2042   35.4293   40.6988 H   0  0  0  0  0  0  0  0  0  0  0  0
   48.2351   36.3311   42.2525 H   0  0  0  0  0  0  0  0  0  0  0  0
   46.9311   34.9857   44.2368 H   0  0  0  0  0  0  0  0  0  0  0  0
   44.5766   34.1465   44.6194 H   0  0  0  0  0  0  0  0  0  0  0  0
   44.0712   33.8573   40.4057 H   0  0  0  0  0  0  0  0  0  0  0  0
   49.9940   34.9577   42.5793 H   0  0  0  0  0  0  0  0  0  0  0  0
   48.5921   33.8998   43.1801 H   0  0  0  0  0  0  0  0  0  0  0  0
   48.0471   33.0326   39.8361 H   0  0  0  0  0  0  0  0  0  0  0  0
   49.3096   31.1289   38.8378 H   0  0  0  0  0  0  0  0  0  0  0  0
   52.4406   29.3446   41.0411 H   0  0  0  0  0  0  0  0  0  0  0  0
  1  2  1  0
  1  8  1  0
  2  3  2  0
  3  4  1  0
  5  4  2  0
  6  5  1  0
  7  6  2  0
  7  2  1  0
  9 13  1  0
  9  8  1  0
 10  9  2  0
 11 10  1  0
 11 12  2  0
 12 13  1  0
 14 12  1  0
  1 15  1  0
  1 16  1  0
  3 17  1  0
  4 18  1  0
  6 19  1  0
  8 20  1  0
  8 21  1  0
 10 22  1  0
 11 23  1  0
 14 24  1  0
M  ISO  8  15   8  16   8  17  14  18  14  19  14  20   8  21   8  22  14
M  ISO  2  23  14  24  11
M  END
>  <minimizedAffinity>  (1) 
-3.32385111

>  <minimizedRMSD>  (1) 
0.0495817587

$$$$
