
     RDKit          3D

 26 27  0  0  0  0  0  0  0  0999 V2000
   44.6090   36.3710   44.1560 C   0  0  0  0  0  0  0  0  0  0  0  0
   45.3820   36.0280   43.0160 C   0  0  0  0  0  0  0  0  0  0  0  0
   46.1140   34.8390   43.0620 C   0  0  0  0  0  0  0  0  0  0  0  0
   46.0540   34.0690   44.1850 N   0  0  0  0  0  0  0  0  0  0  0  0
   45.3040   34.4310   45.2520 C   0  0  0  0  0  0  0  0  0  0  0  0
   44.5780   35.5860   45.2370 N   0  0  0  0  0  0  0  0  0  0  0  0
   46.2920   32.5900   46.4650 C   0  0  0  0  0  0  0  0  0  0  0  0
   47.1820   32.3900   45.6210 O   0  0  0  0  0  0  0  0  0  0  0  0
   45.2750   33.5830   46.4120 N   0  0  0  0  0  0  0  0  0  0  0  0
   46.2950   31.7280   47.6020 N   0  0  0  0  0  0  0  0  0  0  0  0
   46.1350   32.0850   49.0100 C   0  0  0  0  0  0  0  0  0  0  0  0
   45.1230   31.0960   49.5590 C   0  0  0  0  0  0  0  0  0  0  0  0
   45.1200   29.9900   48.4960 C   0  0  0  0  0  0  0  0  0  0  0  0
   46.4450   30.3030   47.7980 C   0  0  0  0  0  0  0  0  0  0  0  0
   44.0234   37.3022   44.1495 H   0  0  0  0  0  0  0  0  0  0  0  0
   45.4039   36.6758   42.1273 H   0  0  0  0  0  0  0  0  0  0  0  0
   46.7296   34.5289   42.2047 H   0  0  0  0  0  0  0  0  0  0  0  0
   44.5673   33.6871   47.1531 H   0  0  0  0  0  0  0  0  0  0  0  0
   47.0930   31.9924   49.5427 H   0  0  0  0  0  0  0  0  0  0  0  0
   45.8019   33.1259   49.1348 H   0  0  0  0  0  0  0  0  0  0  0  0
   45.4408   30.7052   50.5369 H   0  0  0  0  0  0  0  0  0  0  0  0
   44.1305   31.5379   49.7314 H   0  0  0  0  0  0  0  0  0  0  0  0
   45.1217   28.9871   48.9479 H   0  0  0  0  0  0  0  0  0  0  0  0
   44.2379   29.9759   47.8390 H   0  0  0  0  0  0  0  0  0  0  0  0
   46.5394   29.7671   46.8420 H   0  0  0  0  0  0  0  0  0  0  0  0
   47.3446   30.0042   48.3561 H   0  0  0  0  0  0  0  0  0  0  0  0
  1  6  2  0
  2  3  2  0
  2  1  1  0
  3  4  1  0
  4  5  2  0
  5  9  1  0
  6  5  1  0
  7 10  1  0
  8  7  2  0
  9  7  1  0
 10 14  1  0
 10 11  1  0
 11 12  1  0
 13 12  1  0
 14 13  1  0
  1 15  1  0
  2 16  1  0
  3 17  1  0
  9 18  1  0
 11 19  1  0
 11 20  1  0
 12 21  1  0
 12 22  1  0
 13 23  1  0
 13 24  1  0
 14 25  1  0
 14 26  1  0
M  ISO  8  15  14  16  14  17  14  19  13  20  13  21  13  22  13  23  13
M  ISO  3  24  13  25  13  26  13
M  END
>  <minimizedAffinity>  (1) 
-5.65876102

>  <minimizedRMSD>  (1) 
0.687062502

$$$$
