
     RDKit          3D

 31 33  0  0  0  0  0  0  0  0999 V2000
   46.8390   33.0490   44.3910 C   0  0  0  0  0  0  0  0  0  0  0  0
   45.8810   33.9910   43.9320 C   0  0  0  0  0  0  0  0  0  0  0  0
   45.0920   35.0340   44.4750 C   0  0  0  0  0  0  0  0  0  0  0  0
   44.2400   35.7530   43.7130 C   0  0  0  0  0  0  0  0  0  0  0  0
   44.1670   35.4170   42.3220 C   0  0  0  0  0  0  0  0  0  0  0  0
   45.3270   34.0580   42.1060 S   0  0  0  0  0  0  0  0  0  0  0  0
   43.4380   35.9530   41.4090 O   0  0  0  0  0  0  0  0  0  0  0  0
   42.2290   35.4230   41.0030 C   0  0  0  0  0  0  0  0  0  0  0  0
   41.0430   35.2260   41.5920 C   0  0  0  0  0  0  0  0  0  0  0  0
   40.0160   34.6620   40.8970 C   0  0  0  0  0  0  0  0  0  0  0  0
   40.3240   34.3060   39.4950 C   0  0  0  0  0  0  0  0  0  0  0  0
   42.0960   34.8400   39.3450 S   0  0  0  0  0  0  0  0  0  0  0  0
   47.3600   32.0820   43.4050 C   0  0  0  0  0  0  0  0  0  0  0  0
   48.6920   32.4740   42.9570 C   0  0  0  0  0  0  0  0  0  0  0  0
   49.0380   33.8110   42.8430 C   0  0  0  0  0  0  0  0  0  0  0  0
   50.3360   34.1140   42.4060 C   0  0  0  0  0  0  0  0  0  0  0  0
   51.1670   33.0790   42.1210 N   0  0  0  0  0  0  0  0  0  0  0  0
   50.7940   31.8010   42.2440 C   0  0  0  0  0  0  0  0  0  0  0  0
   49.5800   31.5110   42.6530 N   0  0  0  0  0  0  0  0  0  0  0  0
   47.6964   33.6142   44.7852 H   0  0  0  0  0  0  0  0  0  0  0  0
   46.3032   32.4376   45.1320 H   0  0  0  0  0  0  0  0  0  0  0  0
   45.1754   35.2649   45.5472 H   0  0  0  0  0  0  0  0  0  0  0  0
   43.6289   36.5611   44.1413 H   0  0  0  0  0  0  0  0  0  0  0  0
   40.8972   35.5208   42.6417 H   0  0  0  0  0  0  0  0  0  0  0  0
   39.0280   34.4840   41.3466 H   0  0  0  0  0  0  0  0  0  0  0  0
   39.6727   33.8448   38.7380 H   0  0  0  0  0  0  0  0  0  0  0  0
   47.4129   31.0858   43.8685 H   0  0  0  0  0  0  0  0  0  0  0  0
   46.6850   32.0618   42.5367 H   0  0  0  0  0  0  0  0  0  0  0  0
   48.3194   34.6074   43.0868 H   0  0  0  0  0  0  0  0  0  0  0  0
   50.6698   35.1565   42.2977 H   0  0  0  0  0  0  0  0  0  0  0  0
   51.5021   30.9944   42.0033 H   0  0  0  0  0  0  0  0  0  0  0  0
  2  1  1  0
  2  3  2  0
  4  3  1  0
  5  4  2  0
  6  5  1  0
  6  2  1  0
  7  5  1  0
  8  7  1  0
  8  9  2  0
 10  9  1  0
 11 10  2  0
 12 11  1  0
 12  8  1  0
 13  1  1  0
 14 13  1  0
 15 14  2  0
 16 15  1  0
 17 18  1  0
 17 16  2  0
 18 19  2  0
 19 14  1  0
  1 20  1  0
  1 21  1  0
  3 22  1  0
  4 23  1  0
  9 24  1  0
 10 25  1  0
 11 26  1  0
 13 27  1  0
 13 28  1  0
 15 29  1  0
 16 30  1  0
 18 31  1  0
M  ISO  8  20   8  21   8  22  14  23  14  24  14  25  14  26  14  27   8
M  ISO  4  28   8  29  14  30  14  31  14
M  END
>  <minimizedAffinity>  (1) 
-4.56289911

>  <minimizedRMSD>  (1) 
9.03156185

$$$$
