
     RDKit          3D

 36 38  0  0  1  0  0  0  0  0999 V2000
   47.3040   33.7660   43.4480 C   0  0  0  0  0  0  0  0  0  0  0  0
   48.3360   32.9840   42.8800 C   0  0  0  0  0  0  0  0  0  0  0  0
   48.6130   31.6100   42.6850 C   0  0  0  0  0  0  0  0  0  0  0  0
   49.7580   31.2080   42.0910 C   0  0  0  0  0  0  0  0  0  0  0  0
   50.6810   32.2340   41.6680 C   0  0  0  0  0  0  0  0  0  0  0  0
   49.8780   33.7750   42.1350 S   0  0  0  0  0  0  0  0  0  0  0  0
   51.8060   32.0050   41.0930 O   0  0  0  0  0  0  0  0  0  0  0  0
   51.6260   32.0910   38.7690 N   0  0  0  0  0  0  0  0  0  0  0  0
   52.3830   31.5040   37.6860 C   0  0  0  0  0  0  0  0  0  0  0  0
   53.7650   31.3650   38.2770 C   0  0  0  0  0  0  0  0  0  0  0  0
   53.4760   31.0460   39.7170 C   0  0  0  0  0  0  0  0  0  0  0  0
   51.9890   31.2810   39.8990 C   0  0  1  0  0  0  0  0  0  0  0  0
   46.9400   35.0260   42.7750 C   0  0  0  0  0  0  0  0  0  0  0  0
   45.6850   34.8750   42.0370 C   0  0  0  0  0  0  0  0  0  0  0  0
   44.5500   35.5510   42.4380 C   0  0  0  0  0  0  0  0  0  0  0  0
   43.3810   35.3640   41.6920 C   0  0  0  0  0  0  0  0  0  0  0  0
   43.4250   34.5390   40.6270 N   0  0  0  0  0  0  0  0  0  0  0  0
   44.5520   33.9010   40.2750 C   0  0  0  0  0  0  0  0  0  0  0  0
   45.6480   34.0720   40.9680 N   0  0  0  0  0  0  0  0  0  0  0  0
   46.4000   33.1401   43.4815 H   0  0  0  0  0  0  0  0  0  0  0  0
   47.7032   34.0810   44.4234 H   0  0  0  0  0  0  0  0  0  0  0  0
   47.8848   30.8576   43.0222 H   0  0  0  0  0  0  0  0  0  0  0  0
   49.9780   30.1414   41.9359 H   0  0  0  0  0  0  0  0  0  0  0  0
   50.6141   32.0360   38.5848 H   0  0  0  0  0  0  0  0  0  0  0  0
   52.3933   32.1648   36.8067 H   0  0  0  0  0  0  0  0  0  0  0  0
   51.9648   30.5508   37.3304 H   0  0  0  0  0  0  0  0  0  0  0  0
   54.3231   30.5494   37.7940 H   0  0  0  0  0  0  0  0  0  0  0  0
   54.3893   32.2609   38.1444 H   0  0  0  0  0  0  0  0  0  0  0  0
   53.7282   29.9979   39.9357 H   0  0  0  0  0  0  0  0  0  0  0  0
   54.0721   31.6705   40.3987 H   0  0  0  0  0  0  0  0  0  0  0  0
   51.3916   30.3592   39.9575 H   0  0  0  0  0  0  0  0  0  0  0  0
   46.8220   35.8174   43.5298 H   0  0  0  0  0  0  0  0  0  0  0  0
   47.7377   35.2910   42.0654 H   0  0  0  0  0  0  0  0  0  0  0  0
   44.5642   36.2148   43.3151 H   0  0  0  0  0  0  0  0  0  0  0  0
   42.4485   35.8780   41.9681 H   0  0  0  0  0  0  0  0  0  0  0  0
   44.5540   33.2325   39.4014 H   0  0  0  0  0  0  0  0  0  0  0  0
  2  1  1  0
  3  2  2  0
  4  3  1  0
  5  4  2  0
  5  6  1  0
  6  2  1  0
  7  5  1  0
  8 12  1  0
  9 10  1  0
  9  8  1  0
 10 11  1  0
 11 12  1  0
 12  7  1  0
 13  1  1  0
 14 15  2  0
 14 13  1  0
 16 15  1  0
 17 16  2  0
 18 17  1  0
 18 19  2  0
 19 14  1  0
  1 20  1  0
  1 21  1  0
  3 22  1  0
  4 23  1  0
  8 24  1  0
  9 25  1  0
  9 26  1  0
 10 27  1  0
 10 28  1  0
 11 29  1  0
 11 30  1  0
 12 31  1  1
 13 32  1  0
 13 33  1  0
 15 34  1  0
 16 35  1  0
 18 36  1  0
M  ISO  8  20   8  21   8  22  14  23  14  24   5  25  13  26  13  27  13
M  ISO  8  28  13  29  13  30  13  31  13  32   8  33   8  34  14  35  14
M  ISO  1  36  14
M  END
>  <minimizedAffinity>  (1) 
-4.40916824

>  <minimizedRMSD>  (1) 
2.30036473

$$$$
