
     RDKit          3D

 34 36  0  0  0  0  0  0  0  0999 V2000
   48.3770   33.1050   42.9250 C   0  0  0  0  0  0  0  0  0  0  0  0
   48.3310   31.6970   42.8310 C   0  0  0  0  0  0  0  0  0  0  0  0
   49.3940   30.9910   42.3660 C   0  0  0  0  0  0  0  0  0  0  0  0
   50.5520   31.7500   41.9810 C   0  0  0  0  0  0  0  0  0  0  0  0
   50.1240   33.4730   42.2830 S   0  0  0  0  0  0  0  0  0  0  0  0
   47.4870   34.1260   43.3520 C   0  0  0  0  0  0  0  0  0  0  0  0
   47.1130   35.1770   42.3830 C   0  0  0  0  0  0  0  0  0  0  0  0
   45.7410   34.9710   41.9300 C   0  0  0  0  0  0  0  0  0  0  0  0
   44.6690   35.5420   42.5810 C   0  0  0  0  0  0  0  0  0  0  0  0
   43.3850   35.3010   42.0940 C   0  0  0  0  0  0  0  0  0  0  0  0
   43.2680   34.5170   41.0050 N   0  0  0  0  0  0  0  0  0  0  0  0
   44.3190   33.9720   40.3860 C   0  0  0  0  0  0  0  0  0  0  0  0
   45.5370   34.1980   40.8470 N   0  0  0  0  0  0  0  0  0  0  0  0
   51.6800   31.3120   41.5130 O   0  0  0  0  0  0  0  0  0  0  0  0
   54.3010   30.4980   40.9740 F   0  0  0  0  0  0  0  0  0  0  0  0
   53.4170   30.8790   40.0410 C   0  0  0  0  0  0  0  0  0  0  0  0
   52.0930   31.3020   40.1900 C   0  0  0  0  0  0  0  0  0  0  0  0
   51.3600   31.6520   39.0750 C   0  0  0  0  0  0  0  0  0  0  0  0
   51.9290   31.5850   37.8200 C   0  0  0  0  0  0  0  0  0  0  0  0
   53.2360   31.1710   37.6330 C   0  0  0  0  0  0  0  0  0  0  0  0
   53.9740   30.8200   38.7610 C   0  0  0  0  0  0  0  0  0  0  0  0
   47.4198   31.1634   43.1392 H   0  0  0  0  0  0  0  0  0  0  0  0
   49.3698   29.8940   42.2880 H   0  0  0  0  0  0  0  0  0  0  0  0
   46.5574   33.6343   43.6747 H   0  0  0  0  0  0  0  0  0  0  0  0
   48.0434   34.6626   44.1346 H   0  0  0  0  0  0  0  0  0  0  0  0
   47.1937   36.1625   42.8649 H   0  0  0  0  0  0  0  0  0  0  0  0
   47.7906   35.1289   41.5178 H   0  0  0  0  0  0  0  0  0  0  0  0
   44.8232   36.1752   43.4671 H   0  0  0  0  0  0  0  0  0  0  0  0
   42.4997   35.7353   42.5814 H   0  0  0  0  0  0  0  0  0  0  0  0
   44.1717   33.3392   39.4984 H   0  0  0  0  0  0  0  0  0  0  0  0
   50.3179   31.9858   39.1870 H   0  0  0  0  0  0  0  0  0  0  0  0
   51.3271   31.8685   36.9440 H   0  0  0  0  0  0  0  0  0  0  0  0
   53.6776   31.1207   36.6268 H   0  0  0  0  0  0  0  0  0  0  0  0
   55.0164   30.4897   38.6416 H   0  0  0  0  0  0  0  0  0  0  0  0
  1  6  1  0
  2  1  2  0
  3  2  1  0
  4  5  1  0
  4  3  2  0
  5  1  1  0
  7  6  1  0
  8  7  1  0
  8  9  2  0
 10  9  1  0
 11 10  2  0
 12 13  2  0
 12 11  1  0
 13  8  1  0
 14  4  1  0
 16 17  2  0
 16 15  1  0
 17 14  1  0
 18 17  1  0
 19 18  2  0
 20 19  1  0
 20 21  2  0
 21 16  1  0
  2 22  1  0
  3 23  1  0
  6 24  1  0
  6 25  1  0
  7 26  1  0
  7 27  1  0
  9 28  1  0
 10 29  1  0
 12 30  1  0
 18 31  1  0
 19 32  1  0
 20 33  1  0
 21 34  1  0
M  ISO  8  22  14  23  14  24   8  25   8  26   8  27   8  28  14  29  14
M  ISO  5  30  14  31  14  32  14  33  14  34  14
M  END
>  <minimizedAffinity>  (1) 
-4.31706476

>  <minimizedRMSD>  (1) 
1.44756007

$$$$
