
     RDKit          3D

 39 42  0  0  0  0  0  0  0  0999 V2000
   48.8670   32.8550   41.7830 C   0  0  0  0  0  0  0  0  0  0  0  0
   48.5710   32.3310   40.5050 C   0  0  0  0  0  0  0  0  0  0  0  0
   49.3750   31.4490   39.8870 C   0  0  0  0  0  0  0  0  0  0  0  0
   50.5560   31.0650   40.5910 C   0  0  0  0  0  0  0  0  0  0  0  0
   50.4970   31.9790   42.1410 S   0  0  0  0  0  0  0  0  0  0  0  0
   48.2820   33.7530   42.7090 C   0  0  0  0  0  0  0  0  0  0  0  0
   47.7530   35.0280   42.1860 C   0  0  0  0  0  0  0  0  0  0  0  0
   46.2910   35.0290   42.2200 C   0  0  0  0  0  0  0  0  0  0  0  0
   45.5970   35.5080   43.3250 C   0  0  0  0  0  0  0  0  0  0  0  0
   44.2110   35.4720   43.2770 C   0  0  0  0  0  0  0  0  0  0  0  0
   43.6060   34.9830   42.1730 N   0  0  0  0  0  0  0  0  0  0  0  0
   44.3230   34.5270   41.1210 C   0  0  0  0  0  0  0  0  0  0  0  0
   45.6370   34.5530   41.1510 N   0  0  0  0  0  0  0  0  0  0  0  0
   51.4540   30.2300   40.1670 O   0  0  0  0  0  0  0  0  0  0  0  0
   51.9240   29.9660   38.9150 C   0  0  0  0  0  0  0  0  0  0  0  0
   51.3700   29.3490   37.8220 C   0  0  0  0  0  0  0  0  0  0  0  0
   52.0610   29.1980   36.6390 C   0  0  0  0  0  0  0  0  0  0  0  0
   53.3400   29.6760   36.5500 C   0  0  0  0  0  0  0  0  0  0  0  0
   53.9330   29.4790   35.3490 N   0  0  0  0  0  0  0  0  0  0  0  0
   55.2080   29.9280   35.1820 C   0  0  0  0  0  0  0  0  0  0  0  0
   55.8680   30.5610   36.2010 C   0  0  0  0  0  0  0  0  0  0  0  0
   55.2350   30.7490   37.4210 C   0  0  0  0  0  0  0  0  0  0  0  0
   53.9500   30.3050   37.6160 C   0  0  0  0  0  0  0  0  0  0  0  0
   53.2330   30.4510   38.8090 C   0  0  0  0  0  0  0  0  0  0  0  0
   47.6505   32.6561   39.9980 H   0  0  0  0  0  0  0  0  0  0  0  0
   49.1359   31.0448   38.8923 H   0  0  0  0  0  0  0  0  0  0  0  0
   47.4482   33.2262   43.1960 H   0  0  0  0  0  0  0  0  0  0  0  0
   49.1084   34.0458   43.3733 H   0  0  0  0  0  0  0  0  0  0  0  0
   48.0909   35.1613   41.1477 H   0  0  0  0  0  0  0  0  0  0  0  0
   48.1238   35.8512   42.8144 H   0  0  0  0  0  0  0  0  0  0  0  0
   46.1272   35.9011   44.2050 H   0  0  0  0  0  0  0  0  0  0  0  0
   43.6136   35.8364   44.1257 H   0  0  0  0  0  0  0  0  0  0  0  0
   43.8038   34.1321   40.2353 H   0  0  0  0  0  0  0  0  0  0  0  0
   50.3424   28.9628   37.8920 H   0  0  0  0  0  0  0  0  0  0  0  0
   51.5907   28.7001   35.7783 H   0  0  0  0  0  0  0  0  0  0  0  0
   55.7138   29.7802   34.2164 H   0  0  0  0  0  0  0  0  0  0  0  0
   56.8973   30.9195   36.0527 H   0  0  0  0  0  0  0  0  0  0  0  0
   55.7665   31.2577   38.2388 H   0  0  0  0  0  0  0  0  0  0  0  0
   53.7015   30.9506   39.6698 H   0  0  0  0  0  0  0  0  0  0  0  0
  1  5  1  0
  1  6  1  0
  2  1  2  0
  3  2  1  0
  3  4  2  0
  4  5  1  0
  7  8  1  0
  7  6  1  0
  8  9  2  0
 10  9  1  0
 11 10  2  0
 12 13  2  0
 12 11  1  0
 13  8  1  0
 14  4  1  0
 15 14  1  0
 16 15  2  0
 17 16  1  0
 18 17  2  0
 18 23  1  0
 19 18  1  0
 20 19  2  0
 20 21  1  0
 21 22  2  0
 22 23  1  0
 23 24  2  0
 24 15  1  0
  2 25  1  0
  3 26  1  0
  6 27  1  0
  6 28  1  0
  7 29  1  0
  7 30  1  0
  9 31  1  0
 10 32  1  0
 12 33  1  0
 16 34  1  0
 17 35  1  0
 20 36  1  0
 21 37  1  0
 22 38  1  0
 24 39  1  0
M  ISO  8  25  14  26  14  27   8  28   8  29   8  30   8  31  14  32  14
M  ISO  7  33  14  34  14  35  14  36  14  37  14  38  14  39  14
M  END
>  <minimizedAffinity>  (1) 
-4.17096424

>  <minimizedRMSD>  (1) 
3.71393347

$$$$
