
     RDKit          3D

 27 28  0  0  0  0  0  0  0  0999 V2000
   48.2120   33.8350   42.6410 C   0  0  0  0  0  0  0  0  0  0  0  0
   49.1120   33.0900   41.8370 C   0  0  0  0  0  0  0  0  0  0  0  0
   49.0160   32.3160   40.6570 C   0  0  0  0  0  0  0  0  0  0  0  0
   50.1030   31.7060   40.1290 C   0  0  0  0  0  0  0  0  0  0  0  0
   51.3430   31.8930   40.8310 C   0  0  0  0  0  0  0  0  0  0  0  0
   50.9490   32.9380   42.2390 S   0  0  0  0  0  0  0  0  0  0  0  0
   52.5060   31.4080   40.5120 O   0  0  0  0  0  0  0  0  0  0  0  0
   52.9640   31.2530   39.1860 C   0  0  0  0  0  0  0  0  0  0  0  0
   47.6760   35.1010   42.1030 C   0  0  0  0  0  0  0  0  0  0  0  0
   46.2200   35.0550   42.0580 C   0  0  0  0  0  0  0  0  0  0  0  0
   45.4520   35.6330   43.0430 C   0  0  0  0  0  0  0  0  0  0  0  0
   44.0540   35.5520   42.9410 C   0  0  0  0  0  0  0  0  0  0  0  0
   43.5490   34.9000   41.8640 N   0  0  0  0  0  0  0  0  0  0  0  0
   44.3190   34.3480   40.9210 C   0  0  0  0  0  0  0  0  0  0  0  0
   45.6290   34.4330   41.0330 N   0  0  0  0  0  0  0  0  0  0  0  0
   47.3526   33.1833   42.8572 H   0  0  0  0  0  0  0  0  0  0  0  0
   48.8141   34.1423   43.5088 H   0  0  0  0  0  0  0  0  0  0  0  0
   48.0409   32.2079   40.1596 H   0  0  0  0  0  0  0  0  0  0  0  0
   50.0406   31.1004   39.2128 H   0  0  0  0  0  0  0  0  0  0  0  0
   54.0059   30.9004   39.1968 H   0  0  0  0  0  0  0  0  0  0  0  0
   52.3336   30.5182   38.6639 H   0  0  0  0  0  0  0  0  0  0  0  0
   52.9094   32.2196   38.6639 H   0  0  0  0  0  0  0  0  0  0  0  0
   47.9930   35.9330   42.7490 H   0  0  0  0  0  0  0  0  0  0  0  0
   48.0611   35.2481   41.0832 H   0  0  0  0  0  0  0  0  0  0  0  0
   45.9238   36.1479   43.8929 H   0  0  0  0  0  0  0  0  0  0  0  0
   43.3965   35.9981   43.7017 H   0  0  0  0  0  0  0  0  0  0  0  0
   43.8652   33.8299   40.0633 H   0  0  0  0  0  0  0  0  0  0  0  0
  2  6  1  0
  2  1  1  0
  3  2  2  0
  4  3  1  0
  4  5  2  0
  5  6  1  0
  7  5  1  0
  8  7  1  0
  9  1  1  0
 10  9  1  0
 10 11  2  0
 12 11  1  0
 13 12  2  0
 14 15  2  0
 14 13  1  0
 15 10  1  0
  1 16  1  0
  1 17  1  0
  3 18  1  0
  4 19  1  0
  8 20  1  0
  8 21  1  0
  8 22  1  0
  9 23  1  0
  9 24  1  0
 11 25  1  0
 12 26  1  0
 14 27  1  0
M  ISO  8  16   8  17   8  18  14  19  14  20   8  21   8  22   8  23   8
M  ISO  4  24   8  25  14  26  14  27  14
M  END
>  <minimizedAffinity>  (1) 
-3.62336349

>  <minimizedRMSD>  (1) 
0.194156617

$$$$
