
     RDKit          3D

 39 41  0  0  0  0  0  0  0  0999 V2000
   49.0220   33.0750   41.2880 C   0  0  0  0  0  0  0  0  0  0  0  0
   48.6890   32.7020   39.9710 C   0  0  0  0  0  0  0  0  0  0  0  0
   49.5180   31.9110   39.2300 C   0  0  0  0  0  0  0  0  0  0  0  0
   50.7390   31.4860   39.8670 C   0  0  0  0  0  0  0  0  0  0  0  0
   50.6910   32.2200   41.5170 S   0  0  0  0  0  0  0  0  0  0  0  0
   48.4210   33.8490   42.3140 C   0  0  0  0  0  0  0  0  0  0  0  0
   47.8140   35.1430   41.9480 C   0  0  0  0  0  0  0  0  0  0  0  0
   46.3570   35.0610   42.0530 C   0  0  0  0  0  0  0  0  0  0  0  0
   45.6800   35.5830   43.1380 C   0  0  0  0  0  0  0  0  0  0  0  0
   44.2990   35.4710   43.1750 C   0  0  0  0  0  0  0  0  0  0  0  0
   43.6740   34.8490   42.1360 N   0  0  0  0  0  0  0  0  0  0  0  0
   44.3660   34.3570   41.1050 C   0  0  0  0  0  0  0  0  0  0  0  0
   45.6680   34.4570   41.0580 N   0  0  0  0  0  0  0  0  0  0  0  0
   51.6550   30.7420   39.3570 O   0  0  0  0  0  0  0  0  0  0  0  0
   52.0650   28.7490   40.6530 C   0  0  0  0  0  0  0  0  0  0  0  0
   52.4880   29.9610   40.1480 C   0  0  0  0  0  0  0  0  0  0  0  0
   53.7610   30.4900   40.3870 C   0  0  0  0  0  0  0  0  0  0  0  0
   54.5920   29.7020   41.1820 C   0  0  0  0  0  0  0  0  0  0  0  0
   54.2040   28.4830   41.7050 C   0  0  0  0  0  0  0  0  0  0  0  0
   52.9220   28.0020   41.4360 C   0  0  0  0  0  0  0  0  0  0  0  0
   50.3130   27.8800   39.1910 N   0  0  0  0  0  0  0  0  0  0  0  0
   50.7400   28.2110   40.3820 C   0  0  0  0  0  0  0  0  0  0  0  0
   49.7410   27.9740   41.3620 N   0  0  0  0  0  0  0  0  0  0  0  0
   49.3440   27.5070   39.1460 H   0  0  0  0  0  0  0  0  0  0  0  0
   47.7440   33.0546   39.5322 H   0  0  0  0  0  0  0  0  0  0  0  0
   49.2677   31.6135   38.2010 H   0  0  0  0  0  0  0  0  0  0  0  0
   47.6288   33.2334   42.7650 H   0  0  0  0  0  0  0  0  0  0  0  0
   49.2568   34.1183   42.9765 H   0  0  0  0  0  0  0  0  0  0  0  0
   48.0908   35.3955   40.9138 H   0  0  0  0  0  0  0  0  0  0  0  0
   48.1818   35.9206   42.6336 H   0  0  0  0  0  0  0  0  0  0  0  0
   46.2254   36.0772   43.9555 H   0  0  0  0  0  0  0  0  0  0  0  0
   43.7226   35.8737   44.0209 H   0  0  0  0  0  0  0  0  0  0  0  0
   43.8313   33.8597   40.2823 H   0  0  0  0  0  0  0  0  0  0  0  0
   54.0832   31.4585   39.9769 H   0  0  0  0  0  0  0  0  0  0  0  0
   55.6053   30.0681   41.4037 H   0  0  0  0  0  0  0  0  0  0  0  0
   54.8982   27.8983   42.3265 H   0  0  0  0  0  0  0  0  0  0  0  0
   52.5965   27.0342   41.8451 H   0  0  0  0  0  0  0  0  0  0  0  0
   49.9300   28.1865   42.3520 H   0  0  0  0  0  0  0  0  0  0  0  0
   48.8270   27.5895   41.0832 H   0  0  0  0  0  0  0  0  0  0  0  0
  1  5  1  0
  1  6  1  0
  2  1  2  0
  3  4  2  0
  3  2  1  0
  4  5  1  0
  7  8  1  0
  7  6  1  0
  8  9  2  0
  9 10  1  0
 11 10  2  0
 12 11  1  0
 13 12  2  0
 13  8  1  0
 14  4  1  0
 14 16  1  0
 15 20  2  0
 16 17  2  0
 16 15  1  0
 17 18  1  0
 18 19  2  0
 20 19  1  0
 21 22  2  0
 22 15  1  0
 22 23  1  0
 24 21  1  0
  2 25  1  0
  3 26  1  0
  6 27  1  0
  6 28  1  0
  7 29  1  0
  7 30  1  0
  9 31  1  0
 10 32  1  0
 12 33  1  0
 17 34  1  0
 18 35  1  0
 19 36  1  0
 20 37  1  0
 23 38  1  0
 23 39  1  0
M  ISO  8  25  14  26  14  27   8  28   8  29   8  30   8  31  14  32  14
M  ISO  5  33  14  34  14  35  14  36  14  37  14
M  END
>  <minimizedAffinity>  (1) 
-3.50669575

>  <minimizedRMSD>  (1) 
2.31186581

$$$$
