
     RDKit          3D

 25 26  0  0  0  0  0  0  0  0999 V2000
   46.9970   32.5170   45.9020 C   0  0  0  0  0  0  0  0  0  0  0  0
   46.3260   31.8730   47.0330 C   0  0  0  0  0  0  0  0  0  0  0  0
   46.2640   32.3380   48.3310 C   0  0  0  0  0  0  0  0  0  0  0  0
   45.5850   31.6180   49.3140 C   0  0  0  0  0  0  0  0  0  0  0  0
   44.9550   30.4200   49.0220 C   0  0  0  0  0  0  0  0  0  0  0  0
   45.0130   29.9400   47.7080 C   0  0  0  0  0  0  0  0  0  0  0  0
   45.6900   30.6700   46.7510 C   0  0  0  0  0  0  0  0  0  0  0  0
   44.6870   35.1990   44.9550 C   0  0  0  0  0  0  0  0  0  0  0  0
   44.3200   34.8650   43.6260 C   0  0  0  0  0  0  0  0  0  0  0  0
   44.8740   33.7280   43.0890 C   0  0  0  0  0  0  0  0  0  0  0  0
   45.7200   33.0020   43.8310 N   0  0  0  0  0  0  0  0  0  0  0  0
   46.0530   33.3360   45.0860 C   0  0  0  0  0  0  0  0  0  0  0  0
   45.5380   34.4410   45.6590 N   0  0  0  0  0  0  0  0  0  0  0  0
   43.4080   35.7710   43.0160 N   0  0  0  0  0  0  0  0  0  0  0  0
   47.7935   33.1708   46.2868 H   0  0  0  0  0  0  0  0  0  0  0  0
   47.4085   31.7275   45.2560 H   0  0  0  0  0  0  0  0  0  0  0  0
   46.7553   33.2866   48.5932 H   0  0  0  0  0  0  0  0  0  0  0  0
   45.5493   32.0096   50.3413 H   0  0  0  0  0  0  0  0  0  0  0  0
   44.4218   29.8589   49.8036 H   0  0  0  0  0  0  0  0  0  0  0  0
   44.5244   28.9914   47.4408 H   0  0  0  0  0  0  0  0  0  0  0  0
   45.7274   30.2829   45.7220 H   0  0  0  0  0  0  0  0  0  0  0  0
   44.2627   36.1019   45.4184 H   0  0  0  0  0  0  0  0  0  0  0  0
   44.6259   33.4182   42.0631 H   0  0  0  0  0  0  0  0  0  0  0  0
   43.0867   35.6068   42.0513 H   0  0  0  0  0  0  0  0  0  0  0  0
   43.0692   36.5910   43.5392 H   0  0  0  0  0  0  0  0  0  0  0  0
  1  2  1  0
  2  3  2  0
  3  4  1  0
  5  4  2  0
  6  5  1  0
  7  2  1  0
  7  6  2  0
  8 13  2  0
  9  8  1  0
 10  9  2  0
 10 11  1  0
 11 12  2  0
 12 13  1  0
 12  1  1  0
 14  9  1  0
  1 15  1  0
  1 16  1  0
  3 17  1  0
  4 18  1  0
  5 19  1  0
  6 20  1  0
  7 21  1  0
  8 22  1  0
 10 23  1  0
 14 24  1  0
 14 25  1  0
M  ISO  8  15   8  16   8  17  14  18  14  19  14  20  14  21  14  22  14
M  ISO  1  23  14
M  END
>  <minimizedAffinity>  (1) 
-4.53438807

>  <minimizedRMSD>  (1) 
1.52176583

$$$$
