
     RDKit          3D

 30 31  0  0  0  0  0  0  0  0999 V2000
   44.5250   35.4900   44.9640 C   0  0  0  0  0  0  0  0  0  0  0  0
   45.0290   35.5680   43.6600 C   0  0  0  0  0  0  0  0  0  0  0  0
   46.0690   34.7330   43.3310 C   0  0  0  0  0  0  0  0  0  0  0  0
   46.5520   33.8900   44.2510 N   0  0  0  0  0  0  0  0  0  0  0  0
   46.0590   33.8250   45.4990 C   0  0  0  0  0  0  0  0  0  0  0  0
   45.0320   34.6340   45.8640 N   0  0  0  0  0  0  0  0  0  0  0  0
   44.4020   36.5170   42.8110 N   0  0  0  0  0  0  0  0  0  0  0  0
   46.5730   32.8970   46.5510 C   0  0  0  0  0  0  0  0  0  0  0  0
   45.8580   31.6680   46.6460 N   0  0  0  0  0  0  0  0  0  0  0  0
   46.4230   30.5790   45.9230 C   0  0  0  0  0  0  0  0  0  0  0  0
   45.3930   29.4920   45.7210 C   0  0  0  0  0  0  0  0  0  0  0  0
   44.5760   29.2010   46.9450 C   0  0  0  0  0  0  0  0  0  0  0  0
   45.0970   29.9080   48.1790 C   0  0  0  0  0  0  0  0  0  0  0  0
   45.3700   31.3540   47.9530 C   0  0  0  0  0  0  0  0  0  0  0  0
   43.6929   36.1467   45.2577 H   0  0  0  0  0  0  0  0  0  0  0  0
   46.5011   34.7572   42.3197 H   0  0  0  0  0  0  0  0  0  0  0  0
   44.7217   36.6282   41.8382 H   0  0  0  0  0  0  0  0  0  0  0  0
   43.6273   37.0945   43.1677 H   0  0  0  0  0  0  0  0  0  0  0  0
   47.6247   32.6676   46.3246 H   0  0  0  0  0  0  0  0  0  0  0  0
   46.4469   33.4113   47.5151 H   0  0  0  0  0  0  0  0  0  0  0  0
   46.7706   30.9361   44.9424 H   0  0  0  0  0  0  0  0  0  0  0  0
   47.2676   30.1691   46.4963 H   0  0  0  0  0  0  0  0  0  0  0  0
   44.7124   29.8039   44.9151 H   0  0  0  0  0  0  0  0  0  0  0  0
   45.9415   28.5711   45.4740 H   0  0  0  0  0  0  0  0  0  0  0  0
   43.5415   29.5276   46.7631 H   0  0  0  0  0  0  0  0  0  0  0  0
   44.6346   28.1188   47.1333 H   0  0  0  0  0  0  0  0  0  0  0  0
   44.3475   29.8142   48.9787 H   0  0  0  0  0  0  0  0  0  0  0  0
   46.0512   29.4329   48.4505 H   0  0  0  0  0  0  0  0  0  0  0  0
   46.1206   31.6809   48.6877 H   0  0  0  0  0  0  0  0  0  0  0  0
   44.4072   31.8748   48.0610 H   0  0  0  0  0  0  0  0  0  0  0  0
  1  6  2  0
  2  1  1  0
  3  2  2  0
  3  4  1  0
  4  5  2  0
  5  6  1  0
  5  8  1  0
  7  2  1  0
  8  9  1  0
  9 14  1  0
 10  9  1  0
 11 10  1  0
 11 12  1  0
 12 13  1  0
 14 13  1  0
  1 15  1  0
  3 16  1  0
  7 17  1  0
  7 18  1  0
  8 19  1  0
  8 20  1  0
 10 21  1  0
 10 22  1  0
 11 23  1  0
 11 24  1  0
 12 25  1  0
 12 26  1  0
 13 27  1  0
 13 28  1  0
 14 29  1  0
 14 30  1  0
M  ISO  8  15  14  16  14  19   8  20   8  21  13  22  13  23  13  24  13
M  ISO  6  25  13  26  13  27  13  28  13  29  13  30  13
M  END
>  <minimizedAffinity>  (1) 
-4.44982481

>  <minimizedRMSD>  (1) 
1.05157435

$$$$
