
     RDKit          3D

 25 26  0  0  0  0  0  0  0  0999 V2000
   45.5340   32.8550   47.4070 C   0  0  0  0  0  0  0  0  0  0  0  0
   45.3420   30.0840   46.7200 F   0  0  0  0  0  0  0  0  0  0  0  0
   46.4540   30.4550   47.3980 C   0  0  0  0  0  0  0  0  0  0  0  0
   46.5140   31.8060   47.7150 C   0  0  0  0  0  0  0  0  0  0  0  0
   47.6320   32.2480   48.4110 C   0  0  0  0  0  0  0  0  0  0  0  0
   48.6470   31.3760   48.7760 C   0  0  0  0  0  0  0  0  0  0  0  0
   48.5890   30.0340   48.4610 C   0  0  0  0  0  0  0  0  0  0  0  0
   47.4710   29.6060   47.7690 C   0  0  0  0  0  0  0  0  0  0  0  0
   45.0710   35.1050   44.5610 C   0  0  0  0  0  0  0  0  0  0  0  0
   46.0530   34.6760   43.6290 C   0  0  0  0  0  0  0  0  0  0  0  0
   46.8480   33.6210   44.0100 C   0  0  0  0  0  0  0  0  0  0  0  0
   46.6780   33.0480   45.2090 N   0  0  0  0  0  0  0  0  0  0  0  0
   45.7330   33.4810   46.0750 C   0  0  0  0  0  0  0  0  0  0  0  0
   44.9190   34.5170   45.7570 N   0  0  0  0  0  0  0  0  0  0  0  0
   46.0660   35.4160   42.4190 N   0  0  0  0  0  0  0  0  0  0  0  0
   44.5281   32.4107   47.4358 H   0  0  0  0  0  0  0  0  0  0  0  0
   45.6625   33.6477   48.1588 H   0  0  0  0  0  0  0  0  0  0  0  0
   47.7141   33.3119   48.6783 H   0  0  0  0  0  0  0  0  0  0  0  0
   49.5164   31.7625   49.3281 H   0  0  0  0  0  0  0  0  0  0  0  0
   49.3924   29.3389   48.7463 H   0  0  0  0  0  0  0  0  0  0  0  0
   47.3914   28.5414   47.5039 H   0  0  0  0  0  0  0  0  0  0  0  0
   44.4143   35.9460   44.2936 H   0  0  0  0  0  0  0  0  0  0  0  0
   47.6259   33.2463   43.3284 H   0  0  0  0  0  0  0  0  0  0  0  0
   45.3989   36.1884   42.2805 H   0  0  0  0  0  0  0  0  0  0  0  0
   46.7426   35.1809   41.6788 H   0  0  0  0  0  0  0  0  0  0  0  0
  1  4  1  0
  2  3  1  0
  3  4  2  0
  3  8  1  0
  4  5  1  0
  5  6  2  0
  7  6  1  0
  8  7  2  0
  9 14  2  0
 10 11  2  0
 10  9  1  0
 11 12  1  0
 12 13  2  0
 13  1  1  0
 14 13  1  0
 15 10  1  0
  1 16  1  0
  1 17  1  0
  5 18  1  0
  6 19  1  0
  7 20  1  0
  8 21  1  0
  9 22  1  0
 11 23  1  0
 15 24  1  0
 15 25  1  0
M  ISO  8  16   8  17   8  18  14  19  14  20  14  21  14  22  14  23  14
M  END
>  <minimizedAffinity>  (1) 
-4.39586639

>  <minimizedRMSD>  (1) 
2.53467512

$$$$
