
     RDKit          3D

 27 28  0  0  0  0  0  0  0  0999 V2000
   44.4990   35.6720   45.1080 C   0  0  0  0  0  0  0  0  0  0  0  0
   45.1470   35.6060   43.8480 C   0  0  0  0  0  0  0  0  0  0  0  0
   46.0130   34.5540   43.6610 C   0  0  0  0  0  0  0  0  0  0  0  0
   46.2060   33.6610   44.6380 N   0  0  0  0  0  0  0  0  0  0  0  0
   45.5770   33.7470   45.8270 C   0  0  0  0  0  0  0  0  0  0  0  0
   44.7160   34.7640   46.0610 N   0  0  0  0  0  0  0  0  0  0  0  0
   44.8090   36.6440   42.9500 N   0  0  0  0  0  0  0  0  0  0  0  0
   45.7680   32.7730   46.9360 C   0  0  0  0  0  0  0  0  0  0  0  0
   47.0870   32.1730   46.9310 N   0  0  0  0  0  0  0  0  0  0  0  0
   47.6600   32.3840   48.2440 C   0  0  0  0  0  0  0  0  0  0  0  0
   47.8130   31.0420   48.8880 C   0  0  0  0  0  0  0  0  0  0  0  0
   47.9760   30.1310   47.6880 C   0  0  0  0  0  0  0  0  0  0  0  0
   47.0580   30.7610   46.6750 C   0  0  0  0  0  0  0  0  0  0  0  0
   43.7972   36.4958   45.3051 H   0  0  0  0  0  0  0  0  0  0  0  0
   46.5481   34.4468   42.7059 H   0  0  0  0  0  0  0  0  0  0  0  0
   45.2341   36.6725   42.0122 H   0  0  0  0  0  0  0  0  0  0  0  0
   44.1376   37.3719   43.2334 H   0  0  0  0  0  0  0  0  0  0  0  0
   45.6227   33.2959   47.8928 H   0  0  0  0  0  0  0  0  0  0  0  0
   45.0344   31.9649   46.7991 H   0  0  0  0  0  0  0  0  0  0  0  0
   48.6422   32.8705   48.1515 H   0  0  0  0  0  0  0  0  0  0  0  0
   47.0114   33.0334   48.8503 H   0  0  0  0  0  0  0  0  0  0  0  0
   48.7002   31.0096   49.5374 H   0  0  0  0  0  0  0  0  0  0  0  0
   46.9726   30.7665   49.5420 H   0  0  0  0  0  0  0  0  0  0  0  0
   49.0167   30.1247   47.3319 H   0  0  0  0  0  0  0  0  0  0  0  0
   47.7385   29.0782   47.9007 H   0  0  0  0  0  0  0  0  0  0  0  0
   46.0356   30.3730   46.7937 H   0  0  0  0  0  0  0  0  0  0  0  0
   47.3786   30.5335   45.6477 H   0  0  0  0  0  0  0  0  0  0  0  0
  1  6  2  0
  2  1  1  0
  3  2  2  0
  3  4  1  0
  4  5  2  0
  5  6  1  0
  5  8  1  0
  7  2  1  0
  9  8  1  0
  9 10  1  0
 10 11  1  0
 12 11  1  0
 13  9  1  0
 13 12  1  0
  1 14  1  0
  3 15  1  0
  7 16  1  0
  7 17  1  0
  8 18  1  0
  8 19  1  0
 10 20  1  0
 10 21  1  0
 11 22  1  0
 11 23  1  0
 12 24  1  0
 12 25  1  0
 13 26  1  0
 13 27  1  0
M  ISO  8  14  14  15  14  18   8  19   8  20  13  21  13  22  13  23  13
M  ISO  4  24  13  25  13  26  13  27  13
M  END
>  <minimizedAffinity>  (1) 
-4.34177208

>  <minimizedRMSD>  (1) 
1.18388104

$$$$
