
     RDKit          3D

 22 23  0  0  0  0  0  0  0  0999 V2000
   44.5520   35.5180   45.0950 C   0  0  0  0  0  0  0  0  0  0  0  0
   45.1020   35.6380   43.8070 C   0  0  0  0  0  0  0  0  0  0  0  0
   46.0690   34.7320   43.4430 C   0  0  0  0  0  0  0  0  0  0  0  0
   46.4440   33.7750   44.3240 N   0  0  0  0  0  0  0  0  0  0  0  0
   45.8940   33.6880   45.5550 C   0  0  0  0  0  0  0  0  0  0  0  0
   44.9340   34.5650   45.9560 N   0  0  0  0  0  0  0  0  0  0  0  0
   44.5890   36.6980   43.0230 N   0  0  0  0  0  0  0  0  0  0  0  0
   46.3080   32.6350   46.5240 C   0  0  0  0  0  0  0  0  0  0  0  0
   45.3290   32.6990   47.7010 C   0  0  0  0  0  0  0  0  0  0  0  0
   45.9120   32.2420   48.9920 C   0  0  0  0  0  0  0  0  0  0  0  0
   44.8620   31.4220   48.3100 C   0  0  0  0  0  0  0  0  0  0  0  0
   43.7780   36.2342   45.4082 H   0  0  0  0  0  0  0  0  0  0  0  0
   46.5331   34.7838   42.4470 H   0  0  0  0  0  0  0  0  0  0  0  0
   44.9428   36.8500   42.0677 H   0  0  0  0  0  0  0  0  0  0  0  0
   43.8617   37.3177   43.4075 H   0  0  0  0  0  0  0  0  0  0  0  0
   46.2620   31.6444   46.0479 H   0  0  0  0  0  0  0  0  0  0  0  0
   47.3413   32.7987   46.8637 H   0  0  0  0  0  0  0  0  0  0  0  0
   44.8003   33.5880   47.3265 H   0  0  0  0  0  0  0  0  0  0  0  0
   46.9513   31.8838   49.0303 H   0  0  0  0  0  0  0  0  0  0  0  0
   46.0274   32.6824   49.9934 H   0  0  0  0  0  0  0  0  0  0  0  0
   43.8515   31.3539   48.7393 H   0  0  0  0  0  0  0  0  0  0  0  0
   44.7871   30.3784   47.9703 H   0  0  0  0  0  0  0  0  0  0  0  0
  1  6  2  0
  2  1  1  0
  3  2  2  0
  3  4  1  0
  4  5  2  0
  5  6  1  0
  5  8  1  0
  7  2  1  0
  8  9  1  0
  9 11  1  0
  9 10  1  0
 11 10  1  0
  1 12  1  0
  3 13  1  0
  7 14  1  0
  7 15  1  0
  8 16  1  0
  8 17  1  0
  9 18  1  0
 10 19  1  0
 10 20  1  0
 11 21  1  0
 11 22  1  0
M  ISO  8  12  14  13  14  16   8  17   8  18  13  19  13  20  13  21  13
M  ISO  1  22  13
M  END
>  <minimizedAffinity>  (1) 
-4.30784464

>  <minimizedRMSD>  (1) 
2.03848767

$$$$
