
     RDKit          3D

 16 16  0  0  0  0  0  0  0  0999 V2000
   44.5180   35.6900   44.9980 C   0  0  0  0  0  0  0  0  0  0  0  0
   45.0940   35.7680   43.7230 C   0  0  0  0  0  0  0  0  0  0  0  0
   46.0320   34.8010   43.3920 C   0  0  0  0  0  0  0  0  0  0  0  0
   46.3260   33.8610   44.3050 N   0  0  0  0  0  0  0  0  0  0  0  0
   45.7590   33.8100   45.5180 C   0  0  0  0  0  0  0  0  0  0  0  0
   44.8350   34.7410   45.8790 N   0  0  0  0  0  0  0  0  0  0  0  0
   44.6430   36.8360   42.9190 N   0  0  0  0  0  0  0  0  0  0  0  0
   46.1030   32.7600   46.5090 C   0  0  0  0  0  0  0  0  0  0  0  0
   47.2140   33.2320   47.2110 O   0  0  0  0  0  0  0  0  0  0  0  0
   43.7713   36.4452   45.2846 H   0  0  0  0  0  0  0  0  0  0  0  0
   46.5222   34.8041   42.4073 H   0  0  0  0  0  0  0  0  0  0  0  0
   45.0199   36.9599   41.9685 H   0  0  0  0  0  0  0  0  0  0  0  0
   43.9369   37.4918   43.2826 H   0  0  0  0  0  0  0  0  0  0  0  0
   45.2604   32.5944   47.1964 H   0  0  0  0  0  0  0  0  0  0  0  0
   46.3197   31.8008   46.0160 H   0  0  0  0  0  0  0  0  0  0  0  0
   47.0447   33.1601   48.1838 H   0  0  0  0  0  0  0  0  0  0  0  0
  1  6  2  0
  2  1  1  0
  3  2  2  0
  3  4  1  0
  4  5  2  0
  5  6  1  0
  5  8  1  0
  7  2  1  0
  8  9  1  0
  1 10  1  0
  3 11  1  0
  7 12  1  0
  7 13  1  0
  8 14  1  0
  8 15  1  0
  9 16  1  0
M  ISO  5  10  14  11  14  14   8  15   8  16   3
M  END
>  <minimizedAffinity>  (1) 
-3.96422124

>  <minimizedRMSD>  (1) 
0.559365213

$$$$
