
     RDKit          3D

 17 17  0  0  0  0  0  0  0  0999 V2000
   44.5500   35.5350   45.0430 C   0  0  0  0  0  0  0  0  0  0  0  0
   45.0910   35.6620   43.7610 C   0  0  0  0  0  0  0  0  0  0  0  0
   46.0740   34.7660   43.4020 C   0  0  0  0  0  0  0  0  0  0  0  0
   46.4660   33.8300   44.2700 N   0  0  0  0  0  0  0  0  0  0  0  0
   45.9240   33.7280   45.5090 C   0  0  0  0  0  0  0  0  0  0  0  0
   44.9530   34.5900   45.9030 N   0  0  0  0  0  0  0  0  0  0  0  0
   44.5660   36.7060   42.9670 N   0  0  0  0  0  0  0  0  0  0  0  0
   46.3360   32.6990   46.4960 C   0  0  0  0  0  0  0  0  0  0  0  0
   45.4590   31.5600   46.5290 N   0  0  0  0  0  0  0  0  0  0  0  0
   43.7639   36.2371   45.3579 H   0  0  0  0  0  0  0  0  0  0  0  0
   46.5341   34.8214   42.4044 H   0  0  0  0  0  0  0  0  0  0  0  0
   44.9209   36.8548   42.0116 H   0  0  0  0  0  0  0  0  0  0  0  0
   43.8283   37.3183   43.3435 H   0  0  0  0  0  0  0  0  0  0  0  0
   47.3480   32.3533   46.2383 H   0  0  0  0  0  0  0  0  0  0  0  0
   46.2992   33.1678   47.4904 H   0  0  0  0  0  0  0  0  0  0  0  0
   45.2632   31.3057   47.5077 H   0  0  0  0  0  0  0  0  0  0  0  0
   44.5764   31.7923   46.0515 H   0  0  0  0  0  0  0  0  0  0  0  0
  1  6  2  0
  2  1  1  0
  3  2  2  0
  3  4  1  0
  4  5  2  0
  5  6  1  0
  5  8  1  0
  7  2  1  0
  8  9  1  0
  1 10  1  0
  3 11  1  0
  7 12  1  0
  7 13  1  0
  8 14  1  0
  8 15  1  0
  9 16  1  0
  9 17  1  0
M  ISO  6  10  14  11  14  14   8  15   8  16   5  17   5
M  END
>  <minimizedAffinity>  (1) 
-3.60035682

>  <minimizedRMSD>  (1) 
0.657967746

$$$$
