
     RDKit          3D

 34 36  0  0  1  0  0  0  0  0999 V2000
   48.9420   28.2700   47.9410 C   0  0  0  0  0  0  0  0  0  0  0  0
   49.1360   29.2590   48.7950 C   0  0  0  0  0  0  0  0  0  0  0  0
   48.3690   30.4510   48.6730 N   0  0  0  0  0  0  0  0  0  0  0  0
   48.3920   31.8700   48.7470 C   0  0  0  0  0  0  0  0  0  0  0  0
   49.2070   32.8130   49.0360 O   0  0  0  0  0  0  0  0  0  0  0  0
   46.9920   31.8960   48.3250 C   0  0  2  0  0  0  0  0  0  0  0  0
   46.9360   30.4120   48.3340 C   0  0  1  0  0  0  0  0  0  0  0  0
   46.8760   29.6120   46.7110 S   0  0  0  0  0  0  0  0  0  0  0  0
   48.0020   28.2020   46.7980 C   0  0  0  0  0  0  0  0  0  0  0  0
   44.3750   35.8360   44.5310 C   0  0  0  0  0  0  0  0  0  0  0  0
   44.9120   35.3270   43.3300 C   0  0  0  0  0  0  0  0  0  0  0  0
   45.7080   34.1870   43.4020 C   0  0  0  0  0  0  0  0  0  0  0  0
   45.9310   33.6160   44.6200 N   0  0  0  0  0  0  0  0  0  0  0  0
   45.4000   34.1330   45.7420 C   0  0  0  0  0  0  0  0  0  0  0  0
   44.6150   35.2500   45.7110 N   0  0  0  0  0  0  0  0  0  0  0  0
   46.7110   32.5580   47.0100 C   0  0  0  0  0  0  0  0  0  0  0  0
   47.4240   32.2250   46.0240 O   0  0  0  0  0  0  0  0  0  0  0  0
   45.6510   33.5100   47.0150 N   0  0  0  0  0  0  0  0  0  0  0  0
   49.7690   27.0510   48.1260 C   0  0  0  0  0  0  0  0  0  0  0  0
   50.1140   29.1660   49.8720 C   0  0  0  0  0  0  0  0  0  0  0  0
   51.3670   29.1110   49.8260 O   0  0  0  0  0  0  0  0  0  0  0  0
   49.7610   29.1250   51.2090 O   0  0  0  0  0  0  0  0  0  0  0  0
   46.2589   32.4722   48.9086 H   0  0  0  0  0  0  0  0  0  0  0  0
   46.1229   29.9263   48.8934 H   0  0  0  0  0  0  0  0  0  0  0  0
   47.4041   27.2835   46.8923 H   0  0  0  0  0  0  0  0  0  0  0  0
   48.6066   28.2118   45.8791 H   0  0  0  0  0  0  0  0  0  0  0  0
   43.7437   36.7362   44.4975 H   0  0  0  0  0  0  0  0  0  0  0  0
   44.7081   35.8159   42.3659 H   0  0  0  0  0  0  0  0  0  0  0  0
   46.1494   33.7544   42.4920 H   0  0  0  0  0  0  0  0  0  0  0  0
   45.1082   33.7343   47.8612 H   0  0  0  0  0  0  0  0  0  0  0  0
   49.9007   26.8569   49.2007 H   0  0  0  0  0  0  0  0  0  0  0  0
   49.2663   26.1922   47.6572 H   0  0  0  0  0  0  0  0  0  0  0  0
   50.7528   27.2007   47.6572 H   0  0  0  0  0  0  0  0  0  0  0  0
   50.4627   29.0616   51.9045 H   0  0  0  0  0  0  0  0  0  0  0  0
  1 19  1  0
  1  2  2  0
  2 20  1  0
  3  4  1  0
  3  2  1  0
  4  5  2  0
  6 16  1  0
  6  7  1  0
  6  4  1  0
  7  8  1  0
  7  3  1  0
  8  9  1  0
  9  1  1  0
 10 15  2  0
 11 12  2  0
 11 10  1  0
 12 13  1  0
 13 14  2  0
 14 18  1  0
 15 14  1  0
 16 18  1  0
 17 16  2  0
 20 22  1  0
 21 20  2  0
  6 23  1  1
  7 24  1  1
  9 25  1  0
  9 26  1  0
 10 27  1  0
 11 28  1  0
 12 29  1  0
 18 30  1  0
 19 31  1  0
 19 32  1  0
 19 33  1  0
 22 34  1  0
M  ISO  8  23  13  24  13  25  13  26  13  27  14  28  14  29  14  31   8
M  ISO  3  32   8  33   8  34   3
M  END
>  <minimizedAffinity>  (1) 
-5.1579628

>  <minimizedRMSD>  (1) 
1.06406569

$$$$
