
     RDKit          3D

 35 38  0  0  0  0  0  0  0  0999 V2000
   44.0660   34.0520   41.7620 C   0  0  0  0  0  0  0  0  0  0  0  0
   45.3590   33.7880   42.1650 C   0  0  0  0  0  0  0  0  0  0  0  0
   45.3880   32.4980   42.6660 C   0  0  0  0  0  0  0  0  0  0  0  0
   44.0870   32.0460   42.5340 C   0  0  0  0  0  0  0  0  0  0  0  0
   43.3650   32.9740   42.0100 O   0  0  0  0  0  0  0  0  0  0  0  0
   43.3790   30.8450   42.8280 N   0  0  0  0  0  0  0  0  0  0  0  0
   44.0160   29.7550   43.3480 C   0  0  0  0  0  0  0  0  0  0  0  0
   43.1420   28.7450   43.5380 N   0  0  0  0  0  0  0  0  0  0  0  0
   41.9500   29.1830   43.1430 C   0  0  0  0  0  0  0  0  0  0  0  0
   40.6720   28.6670   43.0750 C   0  0  0  0  0  0  0  0  0  0  0  0
   39.6470   29.4250   42.5980 N   0  0  0  0  0  0  0  0  0  0  0  0
   39.8300   30.6930   42.1770 C   0  0  0  0  0  0  0  0  0  0  0  0
   41.0850   31.2100   42.2400 N   0  0  0  0  0  0  0  0  0  0  0  0
   42.1000   30.4770   42.7060 C   0  0  0  0  0  0  0  0  0  0  0  0
   40.4640   27.3160   43.5220 N   0  0  0  0  0  0  0  0  0  0  0  0
   43.6400   35.3650   41.1590 C   0  0  0  0  0  0  0  0  0  0  0  0
   41.4020   34.4140   38.4030 C   0  0  0  0  0  0  0  0  0  0  0  0
   40.1340   34.8300   38.8390 C   0  0  0  0  0  0  0  0  0  0  0  0
   40.0570   35.4350   40.0740 C   0  0  0  0  0  0  0  0  0  0  0  0
   41.1850   35.6010   40.8080 N   0  0  0  0  0  0  0  0  0  0  0  0
   42.3920   35.1880   40.3600 C   0  0  0  0  0  0  0  0  0  0  0  0
   42.5010   34.5830   39.1350 N   0  0  0  0  0  0  0  0  0  0  0  0
   39.0700   34.5770   37.9420 N   0  0  0  0  0  0  0  0  0  0  0  0
   46.2129   34.4784   42.0999 H   0  0  0  0  0  0  0  0  0  0  0  0
   46.2515   31.9543   43.0768 H   0  0  0  0  0  0  0  0  0  0  0  0
   45.0903   29.7071   43.5794 H   0  0  0  0  0  0  0  0  0  0  0  0
   38.9893   31.2903   41.7944 H   0  0  0  0  0  0  0  0  0  0  0  0
   39.5223   26.9004   43.4847 H   0  0  0  0  0  0  0  0  0  0  0  0
   41.2567   26.7640   43.8795 H   0  0  0  0  0  0  0  0  0  0  0  0
   43.4552   36.0911   41.9644 H   0  0  0  0  0  0  0  0  0  0  0  0
   44.4392   35.7307   40.4976 H   0  0  0  0  0  0  0  0  0  0  0  0
   41.4908   33.9300   37.4192 H   0  0  0  0  0  0  0  0  0  0  0  0
   39.0876   35.7810   40.4620 H   0  0  0  0  0  0  0  0  0  0  0  0
   38.1096   34.8534   38.1912 H   0  0  0  0  0  0  0  0  0  0  0  0
   39.2556   34.1163   37.0397 H   0  0  0  0  0  0  0  0  0  0  0  0
  1  5  1  0
  1  2  2  0
  2  3  1  0
  4  3  2  0
  4  6  1  0
  5  4  1  0
  6  7  1  0
  7  8  2  0
  9  8  1  0
 10  9  2  0
 10 15  1  0
 11 10  1  0
 12 13  1  0
 12 11  2  0
 13 14  2  0
 14  6  1  0
 14  9  1  0
 16  1  1  0
 17 18  2  0
 17 22  1  0
 18 19  1  0
 19 20  2  0
 21 20  1  0
 21 16  1  0
 22 21  2  0
 23 18  1  0
  2 24  1  0
  3 25  1  0
  7 26  1  0
 12 27  1  0
 15 28  1  0
 15 29  1  0
 16 30  1  0
 16 31  1  0
 17 32  1  0
 19 33  1  0
 23 34  1  0
 23 35  1  0
M  ISO  8  24  14  25  14  26  14  27  14  30   8  31   8  32  14  33  14
M  END
>  <minimizedAffinity>  (1) 
-4.692451

>  <minimizedRMSD>  (1) 
8.23933887

$$$$
