
     RDKit          3D

 26 27  0  0  0  0  0  0  0  0999 V2000
   45.6540   31.4700   43.8400 C   0  0  0  0  0  0  0  0  0  0  0  0
   45.1110   34.9030   44.9710 C   0  0  0  0  0  0  0  0  0  0  0  0
   44.9830   35.6350   43.7910 C   0  0  0  0  0  0  0  0  0  0  0  0
   45.0840   34.9390   42.6000 C   0  0  0  0  0  0  0  0  0  0  0  0
   45.2990   33.6070   42.6440 N   0  0  0  0  0  0  0  0  0  0  0  0
   45.4180   32.9330   43.8100 C   0  0  0  0  0  0  0  0  0  0  0  0
   45.3220   33.5940   44.9840 N   0  0  0  0  0  0  0  0  0  0  0  0
   44.7600   37.0220   43.9220 N   0  0  0  0  0  0  0  0  0  0  0  0
   46.1880   31.0510   45.1890 C   0  0  0  0  0  0  0  0  0  0  0  0
   47.5110   30.8780   45.5000 C   0  0  0  0  0  0  0  0  0  0  0  0
   47.5940   30.4940   46.8300 C   0  0  0  0  0  0  0  0  0  0  0  0
   46.2760   30.4570   47.2530 C   0  0  0  0  0  0  0  0  0  0  0  0
   45.5130   30.7850   46.2720 O   0  0  0  0  0  0  0  0  0  0  0  0
   45.5610   31.1010   49.5450 C   0  0  0  0  0  0  0  0  0  0  0  0
   45.6950   32.3230   49.1980 O   0  0  0  0  0  0  0  0  0  0  0  0
   45.8520   30.1100   48.5670 N   0  0  0  0  0  0  0  0  0  0  0  0
   46.3853   31.2047   43.0623 H   0  0  0  0  0  0  0  0  0  0  0  0
   44.7018   30.9509   43.6560 H   0  0  0  0  0  0  0  0  0  0  0  0
   45.0337   35.4338   45.9313 H   0  0  0  0  0  0  0  0  0  0  0  0
   44.9910   35.4606   41.6360 H   0  0  0  0  0  0  0  0  0  0  0  0
   44.6582   37.6089   43.0817 H   0  0  0  0  0  0  0  0  0  0  0  0
   44.6990   37.4477   44.8579 H   0  0  0  0  0  0  0  0  0  0  0  0
   48.3595   31.0191   44.8143 H   0  0  0  0  0  0  0  0  0  0  0  0
   48.4987   30.2703   47.4144 H   0  0  0  0  0  0  0  0  0  0  0  0
   45.2339   30.8263   50.5587 H   0  0  0  0  0  0  0  0  0  0  0  0
   45.7534   29.1154   48.8160 H   0  0  0  0  0  0  0  0  0  0  0  0
  1  9  1  0
  2  7  2  0
  3  8  1  0
  3  2  1  0
  4  5  1  0
  4  3  2  0
  5  6  2  0
  6  1  1  0
  6  7  1  0
  9 10  2  0
  9 13  1  0
 10 11  1  0
 11 12  2  0
 12 16  1  0
 13 12  1  0
 15 14  2  0
 16 14  1  0
  1 17  1  0
  1 18  1  0
  2 19  1  0
  4 20  1  0
  8 21  1  0
  8 22  1  0
 10 23  1  0
 11 24  1  0
 14 25  1  0
 16 26  1  0
M  ISO  7  17   8  18   8  19  14  20  14  23  14  24  14  25   6
M  END
>  <minimizedAffinity>  (1) 
-4.27141428

>  <minimizedRMSD>  (1) 
1.74409401

$$$$
