
     RDKit          3D

 33 35  0  0  0  0  0  0  0  0999 V2000
   47.2440   31.1820   45.5860 C   0  0  0  0  0  0  0  0  0  0  0  0
   47.3690   31.7320   46.8370 C   0  0  0  0  0  0  0  0  0  0  0  0
   46.9910   30.7420   47.7490 C   0  0  0  0  0  0  0  0  0  0  0  0
   46.6550   29.6370   46.9870 C   0  0  0  0  0  0  0  0  0  0  0  0
   46.8250   29.9660   45.7560 O   0  0  0  0  0  0  0  0  0  0  0  0
   47.1100   27.3030   47.4860 C   0  0  0  0  0  0  0  0  0  0  0  0
   46.1920   28.3310   47.4270 C   0  0  0  0  0  0  0  0  0  0  0  0
   44.8710   28.1120   47.7820 C   0  0  0  0  0  0  0  0  0  0  0  0
   44.4990   26.8400   48.1940 C   0  0  0  0  0  0  0  0  0  0  0  0
   45.4220   25.8040   48.2530 C   0  0  0  0  0  0  0  0  0  0  0  0
   46.7350   26.0290   47.9000 C   0  0  0  0  0  0  0  0  0  0  0  0
   49.5950   27.6790   46.8110 N   0  0  0  0  0  0  0  0  0  0  0  0
   48.4950   27.5080   47.1210 C   0  0  0  0  0  0  0  0  0  0  0  0
   47.5460   31.8950   44.3040 C   0  0  0  0  0  0  0  0  0  0  0  0
   45.1010   34.4960   45.0930 C   0  0  0  0  0  0  0  0  0  0  0  0
   45.1830   35.3840   44.0120 C   0  0  0  0  0  0  0  0  0  0  0  0
   46.0820   35.0820   43.0140 C   0  0  0  0  0  0  0  0  0  0  0  0
   46.8380   33.9610   43.1100 N   0  0  0  0  0  0  0  0  0  0  0  0
   46.7260   33.1300   44.1760 C   0  0  0  0  0  0  0  0  0  0  0  0
   45.8490   33.4070   45.1690 N   0  0  0  0  0  0  0  0  0  0  0  0
   44.3290   36.5170   44.0450 N   0  0  0  0  0  0  0  0  0  0  0  0
   47.7018   32.7529   47.0757 H   0  0  0  0  0  0  0  0  0  0  0  0
   46.9659   30.8245   48.8456 H   0  0  0  0  0  0  0  0  0  0  0  0
   44.1340   28.9274   47.7384 H   0  0  0  0  0  0  0  0  0  0  0  0
   43.4539   26.6489   48.4790 H   0  0  0  0  0  0  0  0  0  0  0  0
   45.1049   24.8033   48.5817 H   0  0  0  0  0  0  0  0  0  0  0  0
   47.4737   25.2152   47.9448 H   0  0  0  0  0  0  0  0  0  0  0  0
   48.6117   32.1671   44.2859 H   0  0  0  0  0  0  0  0  0  0  0  0
   47.3054   31.2255   43.4650 H   0  0  0  0  0  0  0  0  0  0  0  0
   44.3913   34.7113   45.9054 H   0  0  0  0  0  0  0  0  0  0  0  0
   46.1862   35.7466   42.1437 H   0  0  0  0  0  0  0  0  0  0  0  0
   44.3502   37.2005   43.2747 H   0  0  0  0  0  0  0  0  0  0  0  0
   43.6880   36.6558   44.8392 H   0  0  0  0  0  0  0  0  0  0  0  0
  1  5  1  0
  1  2  2  0
  2  3  1  0
  4  7  1  0
  4  3  2  0
  5  4  1  0
  6 11  2  0
  7  6  1  0
  7  8  2  0
  8  9  1  0
  9 10  2  0
 11 10  1  0
 12 13  3  0
 13  6  1  0
 14  1  1  0
 15 20  2  0
 16 21  1  0
 16 15  1  0
 17 18  1  0
 17 16  2  0
 18 19  2  0
 19 14  1  0
 19 20  1  0
  2 22  1  0
  3 23  1  0
  8 24  1  0
  9 25  1  0
 10 26  1  0
 11 27  1  0
 14 28  1  0
 14 29  1  0
 15 30  1  0
 17 31  1  0
 21 32  1  0
 21 33  1  0
M  ISO  8  22  14  23  14  24  14  25  14  26  14  27  14  28   8  29   8
M  ISO  2  30  14  31  14
M  END
>  <minimizedAffinity>  (1) 
-4.25721073

>  <minimizedRMSD>  (1) 
4.14765739

$$$$
