
     RDKit          3D

 24 25  0  0  0  0  0  0  0  0999 V2000
   45.8560   32.1570   44.4840 C   0  0  0  0  0  0  0  0  0  0  0  0
   44.7370   35.6420   44.6900 C   0  0  0  0  0  0  0  0  0  0  0  0
   45.2590   36.2280   43.5180 C   0  0  0  0  0  0  0  0  0  0  0  0
   45.9870   35.4210   42.6740 C   0  0  0  0  0  0  0  0  0  0  0  0
   46.1650   34.1180   43.0060 N   0  0  0  0  0  0  0  0  0  0  0  0
   45.6560   33.5790   44.1330 C   0  0  0  0  0  0  0  0  0  0  0  0
   44.9380   34.3550   44.9740 N   0  0  0  0  0  0  0  0  0  0  0  0
   44.9790   37.5890   43.3310 N   0  0  0  0  0  0  0  0  0  0  0  0
   46.1530   32.0230   45.9610 C   0  0  0  0  0  0  0  0  0  0  0  0
   47.1860   32.6670   46.6100 C   0  0  0  0  0  0  0  0  0  0  0  0
   47.1320   32.2920   47.9470 C   0  0  0  0  0  0  0  0  0  0  0  0
   46.0550   31.4290   48.0360 C   0  0  0  0  0  0  0  0  0  0  0  0
   45.5300   31.3090   46.8670 O   0  0  0  0  0  0  0  0  0  0  0  0
   45.6620   30.8080   49.2970 C   0  0  0  0  0  0  0  0  0  0  0  0
   44.8540   31.4300   50.0580 O   0  0  0  0  0  0  0  0  0  0  0  0
   46.7004   31.7547   43.9051 H   0  0  0  0  0  0  0  0  0  0  0  0
   44.9397   31.5958   44.2487 H   0  0  0  0  0  0  0  0  0  0  0  0
   44.1509   36.2608   45.3854 H   0  0  0  0  0  0  0  0  0  0  0  0
   46.4172   35.8257   41.7460 H   0  0  0  0  0  0  0  0  0  0  0  0
   45.3311   38.0771   42.4952 H   0  0  0  0  0  0  0  0  0  0  0  0
   44.4211   38.1007   44.0295 H   0  0  0  0  0  0  0  0  0  0  0  0
   47.9170   33.3507   46.1537 H   0  0  0  0  0  0  0  0  0  0  0  0
   47.8013   32.6124   48.7591 H   0  0  0  0  0  0  0  0  0  0  0  0
   46.0564   29.8220   49.5837 H   0  0  0  0  0  0  0  0  0  0  0  0
  1  9  1  0
  2  7  2  0
  3  2  1  0
  4  5  1  0
  4  3  2  0
  5  6  2  0
  6  1  1  0
  6  7  1  0
  8  3  1  0
  9 10  2  0
  9 13  1  0
 10 11  1  0
 11 12  2  0
 12 14  1  0
 13 12  1  0
 14 15  2  0
  1 16  1  0
  1 17  1  0
  2 18  1  0
  4 19  1  0
  8 20  1  0
  8 21  1  0
 10 22  1  0
 11 23  1  0
 14 24  1  0
M  ISO  7  16   8  17   8  18  14  19  14  22  14  23  14  24   6
M  END
>  <minimizedAffinity>  (1) 
-4.17059898

>  <minimizedRMSD>  (1) 
0.817007303

$$$$
