
     RDKit          3D

 31 33  0  0  0  0  0  0  0  0999 V2000
   45.7800   34.3540   43.2010 C   0  0  0  0  0  0  0  0  0  0  0  0
   45.5030   35.7060   43.2950 C   0  0  0  0  0  0  0  0  0  0  0  0
   44.5650   36.0240   42.3380 C   0  0  0  0  0  0  0  0  0  0  0  0
   44.3080   34.8260   41.6890 C   0  0  0  0  0  0  0  0  0  0  0  0
   45.0360   33.9140   42.2320 O   0  0  0  0  0  0  0  0  0  0  0  0
   43.3640   34.6710   40.5840 C   0  0  0  0  0  0  0  0  0  0  0  0
   43.6160   33.7750   39.5710 C   0  0  0  0  0  0  0  0  0  0  0  0
   42.7650   33.5750   38.4900 C   0  0  0  0  0  0  0  0  0  0  0  0
   41.6180   34.3780   38.5310 C   0  0  0  0  0  0  0  0  0  0  0  0
   41.3410   35.2790   39.5270 C   0  0  0  0  0  0  0  0  0  0  0  0
   42.2320   35.3940   40.5280 N   0  0  0  0  0  0  0  0  0  0  0  0
   46.7530   33.6210   44.0730 C   0  0  0  0  0  0  0  0  0  0  0  0
   49.5700   31.9570   42.4220 C   0  0  0  0  0  0  0  0  0  0  0  0
   50.4240   33.0090   42.0580 C   0  0  0  0  0  0  0  0  0  0  0  0
   50.0140   34.2880   42.3890 C   0  0  0  0  0  0  0  0  0  0  0  0
   48.8380   34.4690   43.0330 N   0  0  0  0  0  0  0  0  0  0  0  0
   48.0460   33.4260   43.3650 C   0  0  0  0  0  0  0  0  0  0  0  0
   48.4180   32.1600   43.0560 N   0  0  0  0  0  0  0  0  0  0  0  0
   51.6110   32.6570   41.3930 N   0  0  0  0  0  0  0  0  0  0  0  0
   45.9548   36.4075   44.0118 H   0  0  0  0  0  0  0  0  0  0  0  0
   44.1192   37.0087   42.1340 H   0  0  0  0  0  0  0  0  0  0  0  0
   44.5424   33.1839   39.6190 H   0  0  0  0  0  0  0  0  0  0  0  0
   42.9719   32.8573   37.6825 H   0  0  0  0  0  0  0  0  0  0  0  0
   40.8919   34.2794   37.7106 H   0  0  0  0  0  0  0  0  0  0  0  0
   40.4236   35.8856   39.5080 H   0  0  0  0  0  0  0  0  0  0  0  0
   46.9270   34.2036   44.9897 H   0  0  0  0  0  0  0  0  0  0  0  0
   46.3331   32.6354   44.3226 H   0  0  0  0  0  0  0  0  0  0  0  0
   49.8637   30.9263   42.1741 H   0  0  0  0  0  0  0  0  0  0  0  0
   50.6411   35.1538   42.1299 H   0  0  0  0  0  0  0  0  0  0  0  0
   51.8170   31.6672   41.1963 H   0  0  0  0  0  0  0  0  0  0  0  0
   52.2749   33.3889   41.1023 H   0  0  0  0  0  0  0  0  0  0  0  0
  1  2  2  0
  1 12  1  0
  3  2  1  0
  4  5  1  0
  4  3  2  0
  5  1  1  0
  6  4  1  0
  7  6  2  0
  8  9  2  0
  8  7  1  0
  9 10  1  0
 10 11  2  0
 11  6  1  0
 13 18  2  0
 14 15  2  0
 14 13  1  0
 15 16  1  0
 16 17  2  0
 17 12  1  0
 18 17  1  0
 19 14  1  0
  2 20  1  0
  3 21  1  0
  7 22  1  0
  8 23  1  0
  9 24  1  0
 10 25  1  0
 12 26  1  0
 12 27  1  0
 13 28  1  0
 15 29  1  0
 19 30  1  0
 19 31  1  0
M  ISO  8  20  14  21  14  22  14  23  14  24  14  25  14  26   8  27   8
M  ISO  2  28  14  29  14
M  END
>  <minimizedAffinity>  (1) 
-5.01691151

>  <minimizedRMSD>  (1) 
8.37267685

$$$$
