
     RDKit          3D

 21 22  0  0  0  0  0  0  0  0999 V2000
   44.5610   35.9540   44.6240 C   0  0  0  0  0  0  0  0  0  0  0  0
   45.3110   35.5400   43.4970 C   0  0  0  0  0  0  0  0  0  0  0  0
   46.0610   34.3550   43.6200 C   0  0  0  0  0  0  0  0  0  0  0  0
   46.0320   33.6780   44.7870 N   0  0  0  0  0  0  0  0  0  0  0  0
   45.3020   34.1020   45.8460 C   0  0  0  0  0  0  0  0  0  0  0  0
   44.5690   35.2460   45.7500 N   0  0  0  0  0  0  0  0  0  0  0  0
   46.3280   32.3660   47.1630 C   0  0  0  0  0  0  0  0  0  0  0  0
   47.2120   32.1060   46.3010 O   0  0  0  0  0  0  0  0  0  0  0  0
   45.3080   33.3480   47.0560 N   0  0  0  0  0  0  0  0  0  0  0  0
   46.3980   31.5370   48.3980 C   0  0  0  0  0  0  0  0  0  0  0  0
   45.1970   31.6060   49.2820 C   0  0  0  0  0  0  0  0  0  0  0  0
   45.4580   30.3610   48.5120 C   0  0  0  0  0  0  0  0  0  0  0  0
   43.9625   36.8752   44.5677 H   0  0  0  0  0  0  0  0  0  0  0  0
   45.3079   36.1208   42.5628 H   0  0  0  0  0  0  0  0  0  0  0  0
   46.6625   33.9859   42.7762 H   0  0  0  0  0  0  0  0  0  0  0  0
   44.6174   33.5054   47.8038 H   0  0  0  0  0  0  0  0  0  0  0  0
   47.4838   31.6666   48.5171 H   0  0  0  0  0  0  0  0  0  0  0  0
   45.3211   31.6100   50.3750 H   0  0  0  0  0  0  0  0  0  0  0  0
   44.3431   32.2935   49.3729 H   0  0  0  0  0  0  0  0  0  0  0  0
   44.8092   30.0906   47.6659 H   0  0  0  0  0  0  0  0  0  0  0  0
   45.5689   29.2965   48.7659 H   0  0  0  0  0  0  0  0  0  0  0  0
  1  6  2  0
  2  3  2  0
  2  1  1  0
  3  4  1  0
  4  5  2  0
  5  9  1  0
  6  5  1  0
  7 10  1  0
  8  7  2  0
  9  7  1  0
 10 12  1  0
 10 11  1  0
 12 11  1  0
  1 13  1  0
  2 14  1  0
  3 15  1  0
  9 16  1  0
 10 17  1  0
 11 18  1  0
 11 19  1  0
 12 20  1  0
 12 21  1  0
M  ISO  8  13  14  14  14  15  14  17  13  18  13  19  13  20  13  21  13
M  END
>  <minimizedAffinity>  (1) 
-4.88385391

>  <minimizedRMSD>  (1) 
0.468533099

$$$$
