
     RDKit          3D

 41 44  0  0  0  0  0  0  0  0999 V2000
   44.7810   33.0900   43.0390 C   0  0  0  0  0  0  0  0  0  0  0  0
   43.8950   33.9260   42.1710 C   0  0  0  0  0  0  0  0  0  0  0  0
   44.0390   35.2800   42.0070 C   0  0  0  0  0  0  0  0  0  0  0  0
   43.0640   35.7260   41.1490 C   0  0  0  0  0  0  0  0  0  0  0  0
   42.3440   34.5950   40.8170 C   0  0  0  0  0  0  0  0  0  0  0  0
   42.8800   33.6000   41.4410 O   0  0  0  0  0  0  0  0  0  0  0  0
   41.1920   34.5540   39.9200 C   0  0  0  0  0  0  0  0  0  0  0  0
   41.3270   34.8480   38.5930 C   0  0  0  0  0  0  0  0  0  0  0  0
   40.2660   34.8210   37.6940 C   0  0  0  0  0  0  0  0  0  0  0  0
   39.0430   34.4610   38.2860 C   0  0  0  0  0  0  0  0  0  0  0  0
   38.8880   34.1640   39.6060 C   0  0  0  0  0  0  0  0  0  0  0  0
   39.9740   34.2180   40.3970 N   0  0  0  0  0  0  0  0  0  0  0  0
   48.4420   33.3320   43.1460 C   0  0  0  0  0  0  0  0  0  0  0  0
   48.8100   33.3700   41.8040 C   0  0  0  0  0  0  0  0  0  0  0  0
   47.7970   33.3110   40.8800 C   0  0  0  0  0  0  0  0  0  0  0  0
   46.5000   33.2200   41.2920 N   0  0  0  0  0  0  0  0  0  0  0  0
   46.1990   33.1870   42.6140 C   0  0  0  0  0  0  0  0  0  0  0  0
   47.1770   33.2440   43.5360 N   0  0  0  0  0  0  0  0  0  0  0  0
   47.9250   30.6030   39.5590 Cl  0  0  0  0  0  0  0  0  0  0  0  0
   48.0860   32.1610   38.7720 C   0  0  0  0  0  0  0  0  0  0  0  0
   48.0070   33.3470   39.4620 C   0  0  0  0  0  0  0  0  0  0  0  0
   48.1580   34.4190   38.6240 C   0  0  0  0  0  0  0  0  0  0  0  0
   48.3650   34.4060   37.2640 C   0  0  0  0  0  0  0  0  0  0  0  0
   48.4350   33.1940   36.6270 C   0  0  0  0  0  0  0  0  0  0  0  0
   48.2940   32.0580   37.3920 C   0  0  0  0  0  0  0  0  0  0  0  0
   50.1680   33.4710   41.4960 N   0  0  0  0  0  0  0  0  0  0  0  0
   44.6942   33.4370   44.0792 H   0  0  0  0  0  0  0  0  0  0  0  0
   44.4632   32.0406   42.9509 H   0  0  0  0  0  0  0  0  0  0  0  0
   44.8082   35.9052   42.4838 H   0  0  0  0  0  0  0  0  0  0  0  0
   42.8940   36.7561   40.8027 H   0  0  0  0  0  0  0  0  0  0  0  0
   42.3243   35.1196   38.2166 H   0  0  0  0  0  0  0  0  0  0  0  0
   40.3734   35.0580   36.6252 H   0  0  0  0  0  0  0  0  0  0  0  0
   38.1531   34.4163   37.6410 H   0  0  0  0  0  0  0  0  0  0  0  0
   37.9039   33.8882   40.0129 H   0  0  0  0  0  0  0  0  0  0  0  0
   49.2300   33.3766   43.9122 H   0  0  0  0  0  0  0  0  0  0  0  0
   48.1077   35.4116   39.0955 H   0  0  0  0  0  0  0  0  0  0  0  0
   48.4717   35.3452   36.7014 H   0  0  0  0  0  0  0  0  0  0  0  0
   48.5984   33.1313   35.5410 H   0  0  0  0  0  0  0  0  0  0  0  0
   48.3450   31.0670   36.9173 H   0  0  0  0  0  0  0  0  0  0  0  0
   50.4721   33.5013   40.5124 H   0  0  0  0  0  0  0  0  0  0  0  0
   50.8657   33.5152   42.2524 H   0  0  0  0  0  0  0  0  0  0  0  0
  2  1  1  0
  3  2  2  0
  4  3  1  0
  5  4  2  0
  5  6  1  0
  6  2  1  0
  7 12  1  0
  7  5  1  0
  8  7  2  0
  9 10  2  0
  9  8  1  0
 10 11  1  0
 11 12  2  0
 13 18  2  0
 14 13  1  0
 15 16  1  0
 15 14  2  0
 16 17  2  0
 17  1  1  0
 17 18  1  0
 20 21  2  0
 20 19  1  0
 21 15  1  0
 22 21  1  0
 23 22  2  0
 24 23  1  0
 24 25  2  0
 25 20  1  0
 26 14  1  0
  1 27  1  0
  1 28  1  0
  3 29  1  0
  4 30  1  0
  8 31  1  0
  9 32  1  0
 10 33  1  0
 11 34  1  0
 13 35  1  0
 22 36  1  0
 23 37  1  0
 24 38  1  0
 25 39  1  0
 26 40  1  0
 26 41  1  0
M  ISO  8  27   8  28   8  29  14  30  14  31  14  32  14  33  14  34  14
M  ISO  5  35  14  36  14  37  14  38  14  39  14
M  END
>  <minimizedAffinity>  (1) 
-6.13254642

>  <minimizedRMSD>  (1) 
3.77132177

$$$$
