
     RDKit          3D

 32 34  0  0  0  0  0  0  0  0999 V2000
   45.1060   34.1980   43.4570 C   0  0  0  0  0  0  0  0  0  0  0  0
   45.3210   35.5660   43.4810 C   0  0  0  0  0  0  0  0  0  0  0  0
   44.4180   36.1570   42.6320 C   0  0  0  0  0  0  0  0  0  0  0  0
   43.6770   35.1110   42.1160 C   0  0  0  0  0  0  0  0  0  0  0  0
   44.1180   34.0190   42.6260 O   0  0  0  0  0  0  0  0  0  0  0  0
   42.5770   35.2630   41.1500 C   0  0  0  0  0  0  0  0  0  0  0  0
   42.7860   34.9950   39.8160 C   0  0  0  0  0  0  0  0  0  0  0  0
   41.7860   35.1200   38.8540 C   0  0  0  0  0  0  0  0  0  0  0  0
   40.5520   35.5440   39.3850 C   0  0  0  0  0  0  0  0  0  0  0  0
   40.3330   35.8110   40.7000 C   0  0  0  0  0  0  0  0  0  0  0  0
   41.3560   35.6620   41.5490 N   0  0  0  0  0  0  0  0  0  0  0  0
   45.8900   33.2030   44.2490 C   0  0  0  0  0  0  0  0  0  0  0  0
   47.6050   30.8360   42.0230 C   0  0  0  0  0  0  0  0  0  0  0  0
   48.8730   31.3890   41.8560 C   0  0  0  0  0  0  0  0  0  0  0  0
   49.1180   32.5700   42.5140 C   0  0  0  0  0  0  0  0  0  0  0  0
   48.1550   33.1400   43.2770 N   0  0  0  0  0  0  0  0  0  0  0  0
   46.9390   32.5760   43.4140 C   0  0  0  0  0  0  0  0  0  0  0  0
   46.6680   31.4050   42.7730 N   0  0  0  0  0  0  0  0  0  0  0  0
   49.7780   30.7050   41.0450 N   0  0  0  0  0  0  0  0  0  0  0  0
   50.7470   33.2710   42.2940 S   0  0  0  0  0  0  0  0  0  0  0  0
   46.0834   36.0887   44.0772 H   0  0  0  0  0  0  0  0  0  0  0  0
   44.3084   37.2290   42.4109 H   0  0  0  0  0  0  0  0  0  0  0  0
   43.7862   34.6679   39.4956 H   0  0  0  0  0  0  0  0  0  0  0  0
   41.9443   34.9087   37.7862 H   0  0  0  0  0  0  0  0  0  0  0  0
   39.7091   35.6673   38.6891 H   0  0  0  0  0  0  0  0  0  0  0  0
   39.3450   36.1394   41.0549 H   0  0  0  0  0  0  0  0  0  0  0  0
   46.3639   33.7128   45.1008 H   0  0  0  0  0  0  0  0  0  0  0  0
   45.2064   32.4181   44.6048 H   0  0  0  0  0  0  0  0  0  0  0  0
   47.3705   29.8900   41.5131 H   0  0  0  0  0  0  0  0  0  0  0  0
   50.7249   31.0826   40.8976 H   0  0  0  0  0  0  0  0  0  0  0  0
   49.4996   29.8222   40.5934 H   0  0  0  0  0  0  0  0  0  0  0  0
   51.3093   33.5130   43.5196 H   0  0  0  0  0  0  0  0  0  0  0  0
  1  2  2  0
  1 12  1  0
  3  2  1  0
  4  5  1  0
  4  3  2  0
  5  1  1  0
  6 11  1  0
  6  4  1  0
  7  6  2  0
  8  9  2  0
  8  7  1  0
  9 10  1  0
 10 11  2  0
 13 18  2  0
 14 13  1  0
 14 15  2  0
 15 16  1  0
 16 17  2  0
 17 12  1  0
 18 17  1  0
 19 14  1  0
 20 15  1  0
  2 21  1  0
  3 22  1  0
  7 23  1  0
  8 24  1  0
  9 25  1  0
 10 26  1  0
 12 27  1  0
 12 28  1  0
 13 29  1  0
 19 30  1  0
 19 31  1  0
 20 32  1  0
M  ISO  8  21  14  22  14  23  14  24  14  25  14  26  14  27   8  28   8
M  ISO  2  29  14  32  11
M  END
>  <minimizedAffinity>  (1) 
-4.82518435

>  <minimizedRMSD>  (1) 
1.63143194

$$$$
