
     RDKit          3D

 35 37  0  0  1  0  0  0  0  0999 V2000
   42.3670   35.1540   41.4880 C   0  0  0  0  0  0  0  0  0  0  0  0
   42.1080   33.8010   41.3030 C   0  0  0  0  0  0  0  0  0  0  0  0
   43.1000   32.8930   41.6390 C   0  0  0  0  0  0  0  0  0  0  0  0
   44.2800   33.3520   42.1340 N   0  0  0  0  0  0  0  0  0  0  0  0
   44.5070   34.6680   42.3030 C   0  0  0  0  0  0  0  0  0  0  0  0
   43.5530   35.5620   41.9820 N   0  0  0  0  0  0  0  0  0  0  0  0
   40.8260   33.4750   40.7750 N   0  0  0  0  0  0  0  0  0  0  0  0
   39.9930   32.6110   41.5670 C   0  0  0  0  0  0  0  0  0  0  0  0
   38.6670   32.3170   40.9480 C   0  0  0  0  0  0  0  0  0  0  0  0
   38.0260   33.4380   40.3750 N   0  0  0  0  0  0  0  0  0  0  0  0
   38.8310   34.4000   39.7310 C   0  0  0  0  0  0  0  0  0  0  0  0
   40.2530   33.9030   39.5360 C   0  0  0  0  0  0  0  0  0  0  0  0
   45.5070   34.2510   45.1730 O   0  0  0  0  0  0  0  0  0  0  0  0
   46.1780   34.3460   44.0990 C   0  0  0  0  0  0  0  0  0  0  0  0
   45.8230   35.0570   42.8470 C   0  0  1  0  0  0  0  0  0  0  0  0
   46.9610   34.6970   41.9230 C   0  0  0  0  0  0  0  0  0  0  0  0
   48.1270   34.4300   42.8840 C   0  0  0  0  0  0  0  0  0  0  0  0
   47.4570   33.7230   43.9670 N   0  0  0  0  0  0  0  0  0  0  0  0
   41.5985   35.8973   41.2294 H   0  0  0  0  0  0  0  0  0  0  0  0
   42.9343   31.8136   41.5067 H   0  0  0  0  0  0  0  0  0  0  0  0
   40.5241   31.6594   41.7167 H   0  0  0  0  0  0  0  0  0  0  0  0
   39.7949   33.1368   42.5127 H   0  0  0  0  0  0  0  0  0  0  0  0
   38.8155   31.5655   40.1586 H   0  0  0  0  0  0  0  0  0  0  0  0
   38.0141   31.9648   41.7602 H   0  0  0  0  0  0  0  0  0  0  0  0
   37.3540   33.0846   39.6790 H   0  0  0  0  0  0  0  0  0  0  0  0
   38.3952   34.6286   38.7472 H   0  0  0  0  0  0  0  0  0  0  0  0
   38.8656   35.2981   40.3651 H   0  0  0  0  0  0  0  0  0  0  0  0
   40.2441   33.0566   38.8335 H   0  0  0  0  0  0  0  0  0  0  0  0
   40.8597   34.7302   39.1390 H   0  0  0  0  0  0  0  0  0  0  0  0
   45.7106   36.1408   42.9976 H   0  0  0  0  0  0  0  0  0  0  0  0
   46.7217   33.7987   41.3350 H   0  0  0  0  0  0  0  0  0  0  0  0
   47.1823   35.4837   41.1867 H   0  0  0  0  0  0  0  0  0  0  0  0
   48.8998   33.8043   42.4136 H   0  0  0  0  0  0  0  0  0  0  0  0
   48.6603   35.3373   43.2040 H   0  0  0  0  0  0  0  0  0  0  0  0
   47.8277   32.9382   44.5216 H   0  0  0  0  0  0  0  0  0  0  0  0
  1  6  2  0
  2  1  1  0
  2  3  2  0
  3  4  1  0
  4  5  2  0
  6  5  1  0
  7  2  1  0
  7  8  1  0
  9  8  1  0
 10  9  1  0
 11 10  1  0
 12 11  1  0
 12  7  1  0
 14 13  2  0
 15  5  1  0
 15 14  1  0
 16 15  1  0
 16 17  1  0
 17 18  1  0
 18 14  1  0
  1 19  1  0
  3 20  1  0
  8 21  1  0
  8 22  1  0
  9 23  1  0
  9 24  1  0
 10 25  1  0
 11 26  1  0
 11 27  1  0
 12 28  1  0
 12 29  1  0
 15 30  1  1
 16 31  1  0
 16 32  1  0
 17 33  1  0
 17 34  1  0
 18 35  1  0
M  ISO  8  19  14  20  14  21  13  22  13  23  13  24  13  25   5  26  13
M  ISO  8  27  13  28  13  29  13  30  13  31  13  32  13  33  13  34  13
M  ISO  1  35  10
M  END
>  <minimizedAffinity>  (1) 
-5.62355661

>  <minimizedRMSD>  (1) 
4.49795246

$$$$
