
     RDKit          3D

 37 40  0  0  0  0  0  0  0  0999 V2000
   44.9010   34.5430   43.8050 C   0  0  0  0  0  0  0  0  0  0  0  0
   44.6010   33.6630   42.7720 C   0  0  0  0  0  0  0  0  0  0  0  0
   44.8850   32.3220   42.9730 C   0  0  0  0  0  0  0  0  0  0  0  0
   45.4360   31.9160   44.1490 N   0  0  0  0  0  0  0  0  0  0  0  0
   45.7160   32.7940   45.1320 C   0  0  0  0  0  0  0  0  0  0  0  0
   45.4510   34.1060   44.9670 N   0  0  0  0  0  0  0  0  0  0  0  0
   44.0330   34.2350   41.6050 N   0  0  0  0  0  0  0  0  0  0  0  0
   43.9750   33.4000   40.4360 C   0  0  0  0  0  0  0  0  0  0  0  0
   43.2980   34.0370   39.2730 C   0  0  0  0  0  0  0  0  0  0  0  0
   42.1760   34.8160   39.5630 N   0  0  0  0  0  0  0  0  0  0  0  0
   42.1440   35.5140   40.7750 C   0  0  0  0  0  0  0  0  0  0  0  0
   43.5070   35.5560   41.4470 C   0  0  0  0  0  0  0  0  0  0  0  0
   45.8090   32.6800   47.5750 C   0  0  0  0  0  0  0  0  0  0  0  0
   46.3080   32.2690   46.3640 C   0  0  0  0  0  0  0  0  0  0  0  0
   47.3490   31.3790   46.2430 C   0  0  0  0  0  0  0  0  0  0  0  0
   47.9390   30.8570   47.3940 C   0  0  0  0  0  0  0  0  0  0  0  0
   48.9480   29.9880   47.5870 N   0  0  0  0  0  0  0  0  0  0  0  0
   49.1330   29.8120   48.9080 C   0  0  0  0  0  0  0  0  0  0  0  0
   48.2140   30.5920   49.5380 N   0  0  0  0  0  0  0  0  0  0  0  0
   47.4700   31.2420   48.6250 C   0  0  0  0  0  0  0  0  0  0  0  0
   46.4190   32.1420   48.6990 C   0  0  0  0  0  0  0  0  0  0  0  0
   44.6887   35.6149   43.6787 H   0  0  0  0  0  0  0  0  0  0  0  0
   44.6657   31.5875   42.1841 H   0  0  0  0  0  0  0  0  0  0  0  0
   45.0036   33.1450   40.1410 H   0  0  0  0  0  0  0  0  0  0  0  0
   43.3812   32.5141   40.7054 H   0  0  0  0  0  0  0  0  0  0  0  0
   42.9824   33.2359   38.5884 H   0  0  0  0  0  0  0  0  0  0  0  0
   44.0366   34.7321   38.8472 H   0  0  0  0  0  0  0  0  0  0  0  0
   42.0855   35.5117   38.8088 H   0  0  0  0  0  0  0  0  0  0  0  0
   41.8118   36.5447   40.5820 H   0  0  0  0  0  0  0  0  0  0  0  0
   41.4500   34.9905   41.4491 H   0  0  0  0  0  0  0  0  0  0  0  0
   44.1970   36.1479   40.8277 H   0  0  0  0  0  0  0  0  0  0  0  0
   43.3977   36.0147   42.4408 H   0  0  0  0  0  0  0  0  0  0  0  0
   44.9751   33.3935   47.6498 H   0  0  0  0  0  0  0  0  0  0  0  0
   47.7129   31.0816   45.2484 H   0  0  0  0  0  0  0  0  0  0  0  0
   49.4922   29.5303   46.8419 H   0  0  0  0  0  0  0  0  0  0  0  0
   49.8820   29.1633   49.3857 H   0  0  0  0  0  0  0  0  0  0  0  0
   46.0526   32.4428   49.6916 H   0  0  0  0  0  0  0  0  0  0  0  0
  1  6  2  0
  2  3  2  0
  2  1  1  0
  3  4  1  0
  4  5  2  0
  5 14  1  0
  6  5  1  0
  7  2  1  0
  8  7  1  0
  9 10  1  0
  9  8  1  0
 10 11  1  0
 11 12  1  0
 12  7  1  0
 13 21  2  0
 14 13  1  0
 15 14  2  0
 15 16  1  0
 16 17  1  0
 16 20  2  0
 17 18  1  0
 18 19  2  0
 20 21  1  0
 20 19  1  0
  1 22  1  0
  3 23  1  0
  8 24  1  0
  8 25  1  0
  9 26  1  0
  9 27  1  0
 10 28  1  0
 11 29  1  0
 11 30  1  0
 12 31  1  0
 12 32  1  0
 13 33  1  0
 15 34  1  0
 17 35  1  0
 18 36  1  0
 21 37  1  0
M  ISO  8  22  14  23  14  24  13  25  13  26  13  27  13  28   5  29  13
M  ISO  8  30  13  31  13  32  13  33  14  34  14  35   9  36  14  37  14
M  END
>  <minimizedAffinity>  (1) 
-4.94361019

>  <minimizedRMSD>  (1) 
1.57423115

$$$$
