
     RDKit          3D

 27 28  0  0  0  0  0  0  0  0999 V2000
   45.5490   34.2440   43.0330 N   0  0  0  0  0  0  0  0  0  0  0  0
   45.6510   33.4080   41.8690 C   0  0  0  0  0  0  0  0  0  0  0  0
   45.3670   34.1120   40.5930 C   0  0  0  0  0  0  0  0  0  0  0  0
   44.1890   34.9140   40.6400 N   0  0  0  0  0  0  0  0  0  0  0  0
   43.8840   35.5660   41.8550 C   0  0  0  0  0  0  0  0  0  0  0  0
   45.0970   35.5790   42.7740 C   0  0  0  0  0  0  0  0  0  0  0  0
   45.2130   34.1660   45.3890 C   0  0  0  0  0  0  0  0  0  0  0  0
   45.8950   33.6820   44.2780 C   0  0  0  0  0  0  0  0  0  0  0  0
   46.8460   32.6950   44.4900 C   0  0  0  0  0  0  0  0  0  0  0  0
   47.0820   32.2380   45.7480 N   0  0  0  0  0  0  0  0  0  0  0  0
   46.3980   32.7350   46.8070 C   0  0  0  0  0  0  0  0  0  0  0  0
   45.4670   33.6940   46.6260 N   0  0  0  0  0  0  0  0  0  0  0  0
   46.7120   32.1840   48.1570 C   0  0  0  0  0  0  0  0  0  0  0  0
   46.5150   30.8210   48.1630 F   0  0  0  0  0  0  0  0  0  0  0  0
   45.8380   32.7410   49.0470 F   0  0  0  0  0  0  0  0  0  0  0  0
   48.0340   32.4060   48.4650 F   0  0  0  0  0  0  0  0  0  0  0  0
   46.6733   33.0046   41.8214 H   0  0  0  0  0  0  0  0  0  0  0  0
   44.8896   32.6212   41.9746 H   0  0  0  0  0  0  0  0  0  0  0  0
   45.2458   33.3602   39.7992 H   0  0  0  0  0  0  0  0  0  0  0  0
   46.2130   34.7878   40.3991 H   0  0  0  0  0  0  0  0  0  0  0  0
   44.2833   35.6410   39.9165 H   0  0  0  0  0  0  0  0  0  0  0  0
   43.5796   36.6016   41.6432 H   0  0  0  0  0  0  0  0  0  0  0  0
   43.0668   35.0240   42.3534 H   0  0  0  0  0  0  0  0  0  0  0  0
   45.9072   36.1482   42.2949 H   0  0  0  0  0  0  0  0  0  0  0  0
   44.8139   36.0484   43.7277 H   0  0  0  0  0  0  0  0  0  0  0  0
   44.4518   34.9489   45.2560 H   0  0  0  0  0  0  0  0  0  0  0  0
   47.4092   32.2821   43.6401 H   0  0  0  0  0  0  0  0  0  0  0  0
  1  8  1  0
  2  1  1  0
  3  4  1  0
  3  2  1  0
  4  5  1  0
  5  6  1  0
  6  1  1  0
  7 12  2  0
  8  9  2  0
  8  7  1  0
  9 10  1  0
 10 11  2  0
 11 13  1  0
 12 11  1  0
 13 14  1  0
 13 16  1  0
 13 15  1  0
  2 17  1  0
  2 18  1  0
  3 19  1  0
  3 20  1  0
  4 21  1  0
  5 22  1  0
  5 23  1  0
  6 24  1  0
  6 25  1  0
  7 26  1  0
  9 27  1  0
M  ISO  8  17  13  18  13  19  13  20  13  21   5  22  13  23  13  24  13
M  ISO  3  25  13  26  14  27  14
M  END
>  <minimizedAffinity>  (1) 
-4.49997568

>  <minimizedRMSD>  (1) 
1.74221301

$$$$
