
     RDKit          3D

 25 26  0  0  0  0  0  0  0  0999 V2000
   44.2680   34.4230   41.9750 N   0  0  0  0  0  0  0  0  0  0  0  0
   44.3490   33.4190   40.9500 C   0  0  0  0  0  0  0  0  0  0  0  0
   43.7020   33.7780   39.6720 C   0  0  0  0  0  0  0  0  0  0  0  0
   42.5150   34.5430   39.7430 N   0  0  0  0  0  0  0  0  0  0  0  0
   42.3240   35.3780   40.8710 C   0  0  0  0  0  0  0  0  0  0  0  0
   43.6630   35.6480   41.5490 C   0  0  0  0  0  0  0  0  0  0  0  0
   44.6310   35.0670   44.2390 C   0  0  0  0  0  0  0  0  0  0  0  0
   44.7850   34.0920   43.2610 C   0  0  0  0  0  0  0  0  0  0  0  0
   45.4120   32.9080   43.6050 C   0  0  0  0  0  0  0  0  0  0  0  0
   45.8510   32.7400   44.8750 N   0  0  0  0  0  0  0  0  0  0  0  0
   45.6910   33.7000   45.8120 C   0  0  0  0  0  0  0  0  0  0  0  0
   45.0820   34.8610   45.4920 N   0  0  0  0  0  0  0  0  0  0  0  0
   46.1680   33.4580   47.0980 O   0  0  0  0  0  0  0  0  0  0  0  0
   45.4123   33.2204   40.7502 H   0  0  0  0  0  0  0  0  0  0  0  0
   43.8057   32.5431   41.3341 H   0  0  0  0  0  0  0  0  0  0  0  0
   43.4615   32.8413   39.1478 H   0  0  0  0  0  0  0  0  0  0  0  0
   44.4275   34.4258   39.1582 H   0  0  0  0  0  0  0  0  0  0  0  0
   42.4900   35.1463   38.9086 H   0  0  0  0  0  0  0  0  0  0  0  0
   41.8797   36.3311   40.5483 H   0  0  0  0  0  0  0  0  0  0  0  0
   41.6518   34.8769   41.5831 H   0  0  0  0  0  0  0  0  0  0  0  0
   44.3327   36.1538   40.8380 H   0  0  0  0  0  0  0  0  0  0  0  0
   43.4925   36.2844   42.4299 H   0  0  0  0  0  0  0  0  0  0  0  0
   44.1359   36.0166   43.9878 H   0  0  0  0  0  0  0  0  0  0  0  0
   45.5521   32.1137   42.8571 H   0  0  0  0  0  0  0  0  0  0  0  0
   46.0630   34.1456   47.8025 H   0  0  0  0  0  0  0  0  0  0  0  0
  1  8  1  0
  2  1  1  0
  3  4  1  0
  3  2  1  0
  4  5  1  0
  5  6  1  0
  6  1  1  0
  7 12  2  0
  8  9  2  0
  8  7  1  0
  9 10  1  0
 10 11  2  0
 11 13  1  0
 12 11  1  0
  2 14  1  0
  2 15  1  0
  3 16  1  0
  3 17  1  0
  4 18  1  0
  5 19  1  0
  5 20  1  0
  6 21  1  0
  6 22  1  0
  7 23  1  0
  9 24  1  0
 13 25  1  0
M  ISO  8  14  13  15  13  16  13  17  13  18   5  19  13  20  13  21  13
M  ISO  4  22  13  23  14  24  14  25   3
M  END
>  <minimizedAffinity>  (1) 
-3.77964926

>  <minimizedRMSD>  (1) 
0.1057733

$$$$
