
     RDKit          3D

 27 28  0  0  0  0  0  0  0  0999 V2000
   44.2250   34.2130   42.1140 N   0  0  0  0  0  0  0  0  0  0  0  0
   44.0420   33.2700   41.0440 C   0  0  0  0  0  0  0  0  0  0  0  0
   43.4140   33.8430   39.8270 C   0  0  0  0  0  0  0  0  0  0  0  0
   42.2940   34.6720   40.0900 N   0  0  0  0  0  0  0  0  0  0  0  0
   42.3420   35.4900   41.2500 C   0  0  0  0  0  0  0  0  0  0  0  0
   43.7420   35.5300   41.8400 C   0  0  0  0  0  0  0  0  0  0  0  0
   44.9680   34.6610   44.3340 C   0  0  0  0  0  0  0  0  0  0  0  0
   44.8480   33.7370   43.2880 C   0  0  0  0  0  0  0  0  0  0  0  0
   45.3440   32.4640   43.5040 C   0  0  0  0  0  0  0  0  0  0  0  0
   45.9200   32.1590   44.6990 N   0  0  0  0  0  0  0  0  0  0  0  0
   46.0210   33.0690   45.6850 C   0  0  0  0  0  0  0  0  0  0  0  0
   45.5460   34.3190   45.5060 N   0  0  0  0  0  0  0  0  0  0  0  0
   46.6660   32.6340   46.9500 C   0  0  0  0  0  0  0  0  0  0  0  0
   45.0276   32.8679   40.7666 H   0  0  0  0  0  0  0  0  0  0  0  0
   43.3555   32.4966   41.4190 H   0  0  0  0  0  0  0  0  0  0  0  0
   43.0862   33.0130   39.1838 H   0  0  0  0  0  0  0  0  0  0  0  0
   44.1732   34.4778   39.3468 H   0  0  0  0  0  0  0  0  0  0  0  0
   42.1734   35.2945   39.2783 H   0  0  0  0  0  0  0  0  0  0  0  0
   42.0374   36.5121   40.9806 H   0  0  0  0  0  0  0  0  0  0  0  0
   41.6603   35.0662   42.0021 H   0  0  0  0  0  0  0  0  0  0  0  0
   44.4192   36.0189   41.1242 H   0  0  0  0  0  0  0  0  0  0  0  0
   43.7059   36.0915   42.7852 H   0  0  0  0  0  0  0  0  0  0  0  0
   44.5848   35.6832   44.1986 H   0  0  0  0  0  0  0  0  0  0  0  0
   45.2733   31.7019   42.7140 H   0  0  0  0  0  0  0  0  0  0  0  0
   46.0928   33.0205   47.8056 H   0  0  0  0  0  0  0  0  0  0  0  0
   46.6893   31.5350   46.9907 H   0  0  0  0  0  0  0  0  0  0  0  0
   47.6936   33.0243   46.9907 H   0  0  0  0  0  0  0  0  0  0  0  0
  1  8  1  0
  2  1  1  0
  3  4  1  0
  3  2  1  0
  4  5  1  0
  5  6  1  0
  6  1  1  0
  7 12  2  0
  8  9  2  0
  8  7  1  0
  9 10  1  0
 10 11  2  0
 11 13  1  0
 12 11  1  0
  2 14  1  0
  2 15  1  0
  3 16  1  0
  3 17  1  0
  4 18  1  0
  5 19  1  0
  5 20  1  0
  6 21  1  0
  6 22  1  0
  7 23  1  0
  9 24  1  0
 13 25  1  0
 13 26  1  0
 13 27  1  0
M  ISO  8  14  13  15  13  16  13  17  13  18   5  19  13  20  13  21  13
M  ISO  6  22  13  23  14  24  14  25   8  26   8  27   8
M  END
>  <minimizedAffinity>  (1) 
-3.49334502

>  <minimizedRMSD>  (1) 
0.609406888

$$$$
