
     RDKit          3D

 27 29  0  0  0  0  0  0  0  0999 V2000
   44.6180   36.2540   44.6020 C   0  0  0  0  0  0  0  0  0  0  0  0
   45.2550   36.3960   43.3390 C   0  0  0  0  0  0  0  0  0  0  0  0
   45.9750   35.2960   42.8300 C   0  0  0  0  0  0  0  0  0  0  0  0
   46.0090   34.1640   43.5930 N   0  0  0  0  0  0  0  0  0  0  0  0
   45.3990   34.0600   44.7810 C   0  0  0  0  0  0  0  0  0  0  0  0
   44.7070   35.1110   45.2750 N   0  0  0  0  0  0  0  0  0  0  0  0
   46.4920   31.9210   45.0820 C   0  0  0  0  0  0  0  0  0  0  0  0
   47.2970   32.1100   44.1270 O   0  0  0  0  0  0  0  0  0  0  0  0
   45.4960   32.8370   45.4970 N   0  0  0  0  0  0  0  0  0  0  0  0
   47.8380   30.0740   46.1190 C   0  0  0  0  0  0  0  0  0  0  0  0
   46.6310   30.6510   45.7860 C   0  0  0  0  0  0  0  0  0  0  0  0
   45.5480   29.8930   46.1910 C   0  0  0  0  0  0  0  0  0  0  0  0
   45.6090   28.6870   46.8570 C   0  0  0  0  0  0  0  0  0  0  0  0
   44.6740   27.8440   47.3100 N   0  0  0  0  0  0  0  0  0  0  0  0
   45.3150   26.8100   47.8900 C   0  0  0  0  0  0  0  0  0  0  0  0
   46.6510   27.0300   47.7850 N   0  0  0  0  0  0  0  0  0  0  0  0
   46.8510   28.1810   47.1510 C   0  0  0  0  0  0  0  0  0  0  0  0
   47.9820   28.8760   46.7810 C   0  0  0  0  0  0  0  0  0  0  0  0
   44.0483   37.0946   45.0248 H   0  0  0  0  0  0  0  0  0  0  0  0
   45.1880   37.3378   42.7747 H   0  0  0  0  0  0  0  0  0  0  0  0
   46.4882   35.3474   41.8584 H   0  0  0  0  0  0  0  0  0  0  0  0
   44.8677   32.6256   46.2853 H   0  0  0  0  0  0  0  0  0  0  0  0
   48.7546   30.6114   45.8343 H   0  0  0  0  0  0  0  0  0  0  0  0
   44.5472   30.2876   45.9612 H   0  0  0  0  0  0  0  0  0  0  0  0
   43.6540   27.9631   47.2303 H   0  0  0  0  0  0  0  0  0  0  0  0
   44.8391   25.9397   48.3655 H   0  0  0  0  0  0  0  0  0  0  0  0
   48.9823   28.4802   47.0107 H   0  0  0  0  0  0  0  0  0  0  0  0
  1  6  2  0
  2  1  1  0
  3  2  2  0
  3  4  1  0
  4  5  2  0
  5  6  1  0
  5  9  1  0
  7  9  1  0
  7 11  1  0
  8  7  2  0
 10 18  2  0
 11 10  1  0
 11 12  2  0
 12 13  1  0
 13 17  2  0
 13 14  1  0
 14 15  1  0
 16 15  2  0
 17 16  1  0
 18 17  1  0
  1 19  1  0
  2 20  1  0
  3 21  1  0
  9 22  1  0
 10 23  1  0
 12 24  1  0
 14 25  1  0
 15 26  1  0
 18 27  1  0
M  ISO  8  19  14  20  14  21  14  23  14  24  14  25   9  26  14  27  14
M  END
>  <minimizedAffinity>  (1) 
-4.68434238

>  <minimizedRMSD>  (1) 
2.87556314

$$$$
