
     RDKit          3D

 50 55  0  0  1  0  0  0  0  0999 V2000
   46.9220   30.4090   44.9120 C   0  0  0  0  0  0  0  0  0  0  0  0
   46.4360   31.6520   45.1710 C   0  0  0  0  0  0  0  0  0  0  0  0
   46.7170   32.2490   46.3870 C   0  0  0  0  0  0  0  0  0  0  0  0
   47.4900   31.5530   47.3080 C   0  0  0  0  0  0  0  0  0  0  0  0
   47.9840   30.2860   47.0400 C   0  0  0  0  0  0  0  0  0  0  0  0
   47.6970   29.6980   45.8220 C   0  0  0  0  0  0  0  0  0  0  0  0
   48.7110   29.8690   48.1500 O   0  0  0  0  0  0  0  0  0  0  0  0
   48.4210   30.7630   49.2220 C   0  0  2  0  0  0  0  0  0  0  0  0
   47.9200   31.9150   48.5980 O   0  0  0  0  0  0  0  0  0  0  0  0
   50.3430   32.2180   49.7720 C   0  0  0  0  0  0  0  0  0  0  0  0
   49.6520   31.0320   50.0060 C   0  0  0  0  0  0  0  0  0  0  0  0
   50.1600   30.1750   50.9630 C   0  0  0  0  0  0  0  0  0  0  0  0
   51.3100   30.4960   51.6520 C   0  0  0  0  0  0  0  0  0  0  0  0
   52.0030   29.8440   52.6190 N   0  0  0  0  0  0  0  0  0  0  0  0
   53.0800   30.5840   52.9760 C   0  0  0  0  0  0  0  0  0  0  0  0
   53.0620   31.7160   52.2230 N   0  0  0  0  0  0  0  0  0  0  0  0
   51.9930   31.6640   51.4210 C   0  0  0  0  0  0  0  0  0  0  0  0
   51.4970   32.5370   50.4630 C   0  0  0  0  0  0  0  0  0  0  0  0
   44.8300   34.3320   43.2050 C   0  0  0  0  0  0  0  0  0  0  0  0
   44.0860   33.6160   42.2610 C   0  0  0  0  0  0  0  0  0  0  0  0
   44.1520   32.2320   42.3200 C   0  0  0  0  0  0  0  0  0  0  0  0
   44.9130   31.6110   43.2610 N   0  0  0  0  0  0  0  0  0  0  0  0
   45.6180   32.3490   44.1580 C   0  0  0  0  0  0  0  0  0  0  0  0
   45.5810   33.7030   44.1370 N   0  0  0  0  0  0  0  0  0  0  0  0
   43.3450   34.3800   41.3450 N   0  0  0  0  0  0  0  0  0  0  0  0
   43.2350   33.8730   39.9940 C   0  0  0  0  0  0  0  0  0  0  0  0
   42.5310   34.7840   39.0610 C   0  0  0  0  0  0  0  0  0  0  0  0
   41.2900   35.2490   39.6050 N   0  0  0  0  0  0  0  0  0  0  0  0
   41.2570   35.5640   40.9770 C   0  0  0  0  0  0  0  0  0  0  0  0
   42.6700   35.6120   41.5610 C   0  0  0  0  0  0  0  0  0  0  0  0
   46.6924   29.9458   43.9411 H   0  0  0  0  0  0  0  0  0  0  0  0
   46.3361   33.2543   46.6199 H   0  0  0  0  0  0  0  0  0  0  0  0
   48.0722   28.6930   45.5788 H   0  0  0  0  0  0  0  0  0  0  0  0
   47.6937   30.3589   49.9415 H   0  0  0  0  0  0  0  0  0  0  0  0
   49.9602   32.9202   49.0168 H   0  0  0  0  0  0  0  0  0  0  0  0
   49.6424   29.2283   51.1771 H   0  0  0  0  0  0  0  0  0  0  0  0
   51.7498   28.9293   53.0192 H   0  0  0  0  0  0  0  0  0  0  0  0
   53.8306   30.3182   53.7350 H   0  0  0  0  0  0  0  0  0  0  0  0
   52.0212   33.4812   50.2539 H   0  0  0  0  0  0  0  0  0  0  0  0
   44.8034   35.4316   43.1886 H   0  0  0  0  0  0  0  0  0  0  0  0
   43.5823   31.6294   41.5973 H   0  0  0  0  0  0  0  0  0  0  0  0
   44.2497   33.6988   39.6068 H   0  0  0  0  0  0  0  0  0  0  0  0
   42.6370   32.9514   40.0489 H   0  0  0  0  0  0  0  0  0  0  0  0
   42.3291   34.2461   38.1229 H   0  0  0  0  0  0  0  0  0  0  0  0
   43.1757   35.6578   38.8854 H   0  0  0  0  0  0  0  0  0  0  0  0
   41.0259   36.0993   39.0872 H   0  0  0  0  0  0  0  0  0  0  0  0
   40.7791   36.5459   41.1095 H   0  0  0  0  0  0  0  0  0  0  0  0
   40.6861   34.7843   41.5026 H   0  0  0  0  0  0  0  0  0  0  0  0
   42.6075   35.8048   42.6422 H   0  0  0  0  0  0  0  0  0  0  0  0
   43.2318   36.4153   41.0619 H   0  0  0  0  0  0  0  0  0  0  0  0
  1  2  2  0
  1  6  1  0
  2  3  1  0
  3  4  2  0
  4  9  1  0
  5  4  1  0
  5  7  1  0
  6  5  2  0
  7  8  1  0
  8 11  1  0
  9  8  1  0
 10 11  2  0
 10 18  1  0
 11 12  1  0
 12 13  2  0
 13 14  1  0
 14 15  1  0
 16 15  2  0
 17 13  1  0
 17 16  1  0
 18 17  2  0
 19 24  2  0
 20 21  2  0
 20 19  1  0
 21 22  1  0
 22 23  2  0
 23  2  1  0
 24 23  1  0
 25 30  1  0
 25 20  1  0
 26 25  1  0
 27 28  1  0
 27 26  1  0
 28 29  1  0
 29 30  1  0
  1 31  1  0
  3 32  1  0
  6 33  1  0
  8 34  1  1
 10 35  1  0
 12 36  1  0
 14 37  1  0
 15 38  1  0
 18 39  1  0
 19 40  1  0
 21 41  1  0
 26 42  1  0
 26 43  1  0
 27 44  1  0
 27 45  1  0
 28 46  1  0
 29 47  1  0
 29 48  1  0
 30 49  1  0
 30 50  1  0
M  ISO  8  31  14  32  14  33  14  34  13  35  14  36  14  37   9  38  14
M  ISO  8  39  14  40  14  41  14  42  13  43  13  44  13  45  13  46   5
M  ISO  4  47  13  48  13  49  13  50  13
M  END
>  <minimizedAffinity>  (1) 
-6.70120716

>  <minimizedRMSD>  (1) 
1.25836754

$$$$
