
     RDKit          3D

 51 55  0  0  1  0  0  0  0  0999 V2000
   43.2700   34.1690   41.3050 C   0  0  0  0  0  0  0  0  0  0  0  0
   42.1510   33.4180   40.9990 C   0  0  0  0  0  0  0  0  0  0  0  0
   42.0900   32.1270   41.4970 C   0  0  0  0  0  0  0  0  0  0  0  0
   43.1040   31.6430   42.2560 N   0  0  0  0  0  0  0  0  0  0  0  0
   44.1800   32.3980   42.5380 C   0  0  0  0  0  0  0  0  0  0  0  0
   44.2610   33.6510   42.0660 N   0  0  0  0  0  0  0  0  0  0  0  0
   41.1680   34.0500   40.1950 N   0  0  0  0  0  0  0  0  0  0  0  0
   41.3920   34.0710   38.7760 C   0  0  0  0  0  0  0  0  0  0  0  0
   40.3710   34.8400   38.0180 C   0  0  0  0  0  0  0  0  0  0  0  0
   39.0330   34.5000   38.4020 N   0  0  0  0  0  0  0  0  0  0  0  0
   38.7840   34.2570   39.7750 C   0  0  0  0  0  0  0  0  0  0  0  0
   39.9550   34.6840   40.6280 C   0  0  0  0  0  0  0  0  0  0  0  0
   45.9510   30.7460   42.9460 C   0  0  0  0  0  0  0  0  0  0  0  0
   45.2620   31.8450   43.3630 C   0  0  0  0  0  0  0  0  0  0  0  0
   45.6070   32.4110   44.5660 C   0  0  0  0  0  0  0  0  0  0  0  0
   46.6210   31.8810   45.3280 C   0  0  0  0  0  0  0  0  0  0  0  0
   47.3200   30.7530   44.8870 C   0  0  0  0  0  0  0  0  0  0  0  0
   46.9830   30.1700   43.6730 C   0  0  0  0  0  0  0  0  0  0  0  0
   48.2830   30.4380   45.8470 O   0  0  0  0  0  0  0  0  0  0  0  0
   47.9820   31.1790   47.0260 C   0  0  1  0  0  0  0  0  0  0  0  0
   47.1740   32.2360   46.5560 O   0  0  0  0  0  0  0  0  0  0  0  0
   47.3550   30.3840   48.0280 N   0  0  0  0  0  0  0  0  0  0  0  0
   46.9190   29.0920   47.6430 C   0  0  0  0  0  0  0  0  0  0  0  0
   45.4400   28.8610   47.7640 C   0  0  0  0  0  0  0  0  0  0  0  0
   44.8790   29.4300   48.9690 N   0  0  0  0  0  0  0  0  0  0  0  0
   45.1070   30.8690   48.8930 C   0  0  0  0  0  0  0  0  0  0  0  0
   46.6010   31.0670   49.0140 C   0  0  0  0  0  0  0  0  0  0  0  0
   43.3556   35.1981   40.9260 H   0  0  0  0  0  0  0  0  0  0  0  0
   41.2180   31.4937   41.2765 H   0  0  0  0  0  0  0  0  0  0  0  0
   42.3770   34.5228   38.5872 H   0  0  0  0  0  0  0  0  0  0  0  0
   41.3322   33.0295   38.4272 H   0  0  0  0  0  0  0  0  0  0  0  0
   40.4948   34.6293   36.9455 H   0  0  0  0  0  0  0  0  0  0  0  0
   40.5222   35.9067   38.2400 H   0  0  0  0  0  0  0  0  0  0  0  0
   38.4226   35.2771   38.1114 H   0  0  0  0  0  0  0  0  0  0  0  0
   37.8915   34.8215   40.0829 H   0  0  0  0  0  0  0  0  0  0  0  0
   38.6280   33.1771   39.9142 H   0  0  0  0  0  0  0  0  0  0  0  0
   39.7579   34.4061   41.6739 H   0  0  0  0  0  0  0  0  0  0  0  0
   40.0771   35.7731   40.5339 H   0  0  0  0  0  0  0  0  0  0  0  0
   45.6748   30.2918   41.9830 H   0  0  0  0  0  0  0  0  0  0  0  0
   45.0654   33.2990   44.9240 H   0  0  0  0  0  0  0  0  0  0  0  0
   47.5155   29.2825   43.3004 H   0  0  0  0  0  0  0  0  0  0  0  0
   48.8819   31.5485   47.5394 H   0  0  0  0  0  0  0  0  0  0  0  0
   47.4329   28.3549   48.2775 H   0  0  0  0  0  0  0  0  0  0  0  0
   47.1604   28.9909   46.5746 H   0  0  0  0  0  0  0  0  0  0  0  0
   44.9413   29.3162   46.8956 H   0  0  0  0  0  0  0  0  0  0  0  0
   45.2777   27.7738   47.8054 H   0  0  0  0  0  0  0  0  0  0  0  0
   43.8695   29.2319   49.0195 H   0  0  0  0  0  0  0  0  0  0  0  0
   44.7471   31.2617   47.9306 H   0  0  0  0  0  0  0  0  0  0  0  0
   44.5665   31.4028   49.6885 H   0  0  0  0  0  0  0  0  0  0  0  0
   46.9186   30.7064   50.0035 H   0  0  0  0  0  0  0  0  0  0  0  0
   46.7919   32.1411   48.8729 H   0  0  0  0  0  0  0  0  0  0  0  0
  1  6  2  0
  2  1  1  0
  2  3  2  0
  3  4  1  0
  4  5  2  0
  5 14  1  0
  6  5  1  0
  7 12  1  0
  7  2  1  0
  8  7  1  0
  9 10  1  0
  9  8  1  0
 10 11  1  0
 11 12  1  0
 13 14  2  0
 13 18  1  0
 14 15  1  0
 15 16  2  0
 16 21  1  0
 17 16  1  0
 17 19  1  0
 18 17  2  0
 19 20  1  0
 20 22  1  0
 21 20  1  0
 22 27  1  0
 23 24  1  0
 23 22  1  0
 24 25  1  0
 26 25  1  0
 26 27  1  0
  1 28  1  0
  3 29  1  0
  8 30  1  0
  8 31  1  0
  9 32  1  0
  9 33  1  0
 10 34  1  0
 11 35  1  0
 11 36  1  0
 12 37  1  0
 12 38  1  0
 13 39  1  0
 15 40  1  0
 18 41  1  0
 20 42  1  1
 23 43  1  0
 23 44  1  0
 24 45  1  0
 24 46  1  0
 25 47  1  0
 26 48  1  0
 26 49  1  0
 27 50  1  0
 27 51  1  0
M  ISO  8  28  14  29  14  30  13  31  13  32  13  33  13  34   5  35  13
M  ISO  8  36  13  37  13  38  13  39  14  40  14  41  14  42  13  43  13
M  ISO  8  44  13  45  13  46  13  47   5  48  13  49  13  50  13  51  13
M  END
>  <minimizedAffinity>  (1) 
-5.47092342

>  <minimizedRMSD>  (1) 
1.87397814

$$$$
