
     RDKit          3D

 13 13  0  0  0  0  0  0  0  0999 V2000
   46.2550   34.8800   43.1650 C   0  0  0  0  0  0  0  0  0  0  0  0
   45.3300   35.9160   43.2750 C   0  0  0  0  0  0  0  0  0  0  0  0
   44.5630   35.9590   44.4550 C   0  0  0  0  0  0  0  0  0  0  0  0
   44.7610   35.0080   45.4020 N   0  0  0  0  0  0  0  0  0  0  0  0
   45.6780   34.0210   45.2370 C   0  0  0  0  0  0  0  0  0  0  0  0
   46.4210   33.9630   44.1170 N   0  0  0  0  0  0  0  0  0  0  0  0
   46.9920   34.9080   41.9400 C   0  0  0  0  0  0  0  0  0  0  0  0
   48.1330   35.3960   41.7480 O   0  0  0  0  0  0  0  0  0  0  0  0
   46.3510   34.3230   40.8470 O   0  0  0  0  0  0  0  0  0  0  0  0
   45.2049   36.6642   42.4785 H   0  0  0  0  0  0  0  0  0  0  0  0
   43.8150   36.7512   44.6066 H   0  0  0  0  0  0  0  0  0  0  0  0
   45.8144   33.2642   46.0236 H   0  0  0  0  0  0  0  0  0  0  0  0
   46.7975   34.3033   39.9636 H   0  0  0  0  0  0  0  0  0  0  0  0
  1  2  2  0
  1  6  1  0
  2  3  1  0
  3  4  2  0
  5  4  1  0
  6  5  2  0
  7  1  1  0
  8  7  2  0
  9  7  1  0
  2 10  1  0
  3 11  1  0
  5 12  1  0
  9 13  1  0
M  ISO  4  10  14  11  14  12  14  13   3
M  END
>  <minimizedAffinity>  (1) 
-3.40088105

>  <minimizedRMSD>  (1) 
0.11261972

$$$$
