
     RDKit          3D

 30 31  0  0  1  0  0  0  0  0999 V2000
   46.5150   34.9110   41.9580 O   0  0  0  0  0  0  0  0  0  0  0  0
   45.1740   35.0730   43.8870 C   0  0  1  0  0  0  0  0  0  0  0  0
   46.4890   34.5410   43.3300 C   0  0  1  0  0  0  0  0  0  0  0  0
   46.3740   33.1610   43.3860 O   0  0  0  0  0  0  0  0  0  0  0  0
   46.3260   32.6550   44.6620 C   0  0  0  0  0  0  0  0  0  0  0  0
   45.7300   33.4890   45.7090 C   0  0  2  0  0  0  0  0  0  0  0  0
   45.2770   34.8580   45.3700 C   0  0  2  0  0  0  0  0  0  0  0  0
   44.9550   36.4030   43.5650 O   0  0  0  0  0  0  0  0  0  0  0  0
   46.6270   33.6000   46.7890 O   0  0  0  0  0  0  0  0  0  0  0  0
   44.0080   35.1760   45.8980 O   0  0  0  0  0  0  0  0  0  0  0  0
   47.6980   34.7600   41.2170 C   0  0  0  0  0  0  0  0  0  0  0  0
   48.7630   35.0560   41.7960 O   0  0  0  0  0  0  0  0  0  0  0  0
   47.5220   34.2820   39.8870 C   0  0  0  0  0  0  0  0  0  0  0  0
   46.4010   33.4530   39.7380 C   0  0  0  0  0  0  0  0  0  0  0  0
   46.1570   32.9410   38.4590 C   0  0  0  0  0  0  0  0  0  0  0  0
   47.0030   33.2680   37.4460 N   0  0  0  0  0  0  0  0  0  0  0  0
   48.0800   34.0800   37.6460 C   0  0  0  0  0  0  0  0  0  0  0  0
   48.3150   34.5690   38.8680 N   0  0  0  0  0  0  0  0  0  0  0  0
   44.3095   34.5505   43.4516 H   0  0  0  0  0  0  0  0  0  0  0  0
   47.3762   34.9105   43.8651 H   0  0  0  0  0  0  0  0  0  0  0  0
   45.7499   31.7188   44.6215 H   0  0  0  0  0  0  0  0  0  0  0  0
   47.3806   32.5531   44.9579 H   0  0  0  0  0  0  0  0  0  0  0  0
   44.8013   32.9430   45.9312 H   0  0  0  0  0  0  0  0  0  0  0  0
   46.0471   35.5041   45.8167 H   0  0  0  0  0  0  0  0  0  0  0  0
   44.8676   36.9337   44.3962 H   0  0  0  0  0  0  0  0  0  0  0  0
   46.1268   33.5381   47.6411 H   0  0  0  0  0  0  0  0  0  0  0  0
   44.0500   35.1655   46.8871 H   0  0  0  0  0  0  0  0  0  0  0  0
   45.7437   33.2161   40.5876 H   0  0  0  0  0  0  0  0  0  0  0  0
   45.2940   32.2840   38.2758 H   0  0  0  0  0  0  0  0  0  0  0  0
   48.7493   34.3304   36.8097 H   0  0  0  0  0  0  0  0  0  0  0  0
  2  8  1  0
  2  7  1  0
  3  1  1  0
  3  4  1  0
  3  2  1  0
  4  5  1  0
  5  6  1  0
  6  9  1  0
  7  6  1  0
  7 10  1  0
 11 12  2  0
 11  1  1  0
 13 11  1  0
 14 13  2  0
 15 14  1  0
 16 17  1  0
 16 15  2  0
 17 18  2  0
 18 13  1  0
  2 19  1  6
  3 20  1  1
  5 21  1  0
  5 22  1  0
  6 23  1  1
  7 24  1  1
  8 25  1  0
  9 26  1  0
 10 27  1  0
 14 28  1  0
 15 29  1  0
 17 30  1  0
M  ISO  8  19  13  20  13  21  13  22  13  23  13  24  13  25   3  26   3
M  ISO  4  27   3  28  14  29  14  30  14
M  END
>  <minimizedAffinity>  (1) 
-5.26195049

>  <minimizedRMSD>  (1) 
6.56336355

$$$$
