
     RDKit          3D

 33 35  0  0  1  0  0  0  0  0999 V2000
   46.7670   33.1920   38.8890 C   0  0  0  0  0  0  0  0  0  0  0  0
   46.0690   32.9770   37.7920 C   0  0  0  0  0  0  0  0  0  0  0  0
   46.7720   32.6170   36.6090 N   0  0  0  0  0  0  0  0  0  0  0  0
   46.7440   31.7890   35.4530 C   0  0  0  0  0  0  0  0  0  0  0  0
   45.9950   30.9660   34.8380 O   0  0  0  0  0  0  0  0  0  0  0  0
   48.0960   32.2520   35.1080 C   0  0  0  0  0  0  0  0  0  0  0  0
   48.0670   33.2190   36.2420 C   0  0  2  0  0  0  0  0  0  0  0  0
   49.1680   32.7880   37.6320 S   0  0  0  0  0  0  0  0  0  0  0  0
   48.2230   33.1110   39.1400 C   0  0  0  0  0  0  0  0  0  0  0  0
   44.6190   33.0880   37.7160 C   0  0  0  0  0  0  0  0  0  0  0  0
   43.7270   33.8230   38.2020 O   0  0  0  0  0  0  0  0  0  0  0  0
   43.8380   32.2590   36.9650 O   0  0  0  0  0  0  0  0  0  0  0  0
   46.1730   33.5720   40.1760 C   0  0  0  0  0  0  0  0  0  0  0  0
   47.1610   33.5760   41.2250 O   0  0  0  0  0  0  0  0  0  0  0  0
   47.3040   34.7200   42.0230 C   0  0  0  0  0  0  0  0  0  0  0  0
   48.1610   35.5770   41.6670 O   0  0  0  0  0  0  0  0  0  0  0  0
   46.4470   34.7750   43.1580 C   0  0  0  0  0  0  0  0  0  0  0  0
   45.5600   35.8440   43.1300 C   0  0  0  0  0  0  0  0  0  0  0  0
   44.6690   35.9880   44.2100 C   0  0  0  0  0  0  0  0  0  0  0  0
   44.7290   35.0720   45.2170 N   0  0  0  0  0  0  0  0  0  0  0  0
   45.6150   34.0530   45.1860 C   0  0  0  0  0  0  0  0  0  0  0  0
   46.4720   33.9060   44.1590 N   0  0  0  0  0  0  0  0  0  0  0  0
   48.8713   31.4772   35.2006 H   0  0  0  0  0  0  0  0  0  0  0  0
   48.3171   32.6018   34.0888 H   0  0  0  0  0  0  0  0  0  0  0  0
   48.2765   34.2793   36.0372 H   0  0  0  0  0  0  0  0  0  0  0  0
   48.5605   34.0654   39.5704 H   0  0  0  0  0  0  0  0  0  0  0  0
   48.3974   32.2724   39.8302 H   0  0  0  0  0  0  0  0  0  0  0  0
   42.8557   32.3819   36.9516 H   0  0  0  0  0  0  0  0  0  0  0  0
   45.7394   34.5791   40.0877 H   0  0  0  0  0  0  0  0  0  0  0  0
   45.3962   32.8364   40.4319 H   0  0  0  0  0  0  0  0  0  0  0  0
   45.5543   36.5550   42.2907 H   0  0  0  0  0  0  0  0  0  0  0  0
   43.9453   36.8159   44.2403 H   0  0  0  0  0  0  0  0  0  0  0  0
   45.6364   33.3304   46.0151 H   0  0  0  0  0  0  0  0  0  0  0  0
  1  9  1  0
  1 13  1  0
  2  1  2  0
  3  2  1  0
  4  3  1  0
  5  4  2  0
  6  4  1  0
  7  6  1  0
  7  3  1  0
  7  8  1  0
  8  9  1  0
 10  2  1  0
 10 11  2  0
 12 10  1  0
 13 14  1  0
 14 15  1  0
 15 17  1  0
 16 15  2  0
 17 22  1  0
 18 17  2  0
 18 19  1  0
 19 20  2  0
 21 20  1  0
 22 21  2  0
  6 23  1  0
  6 24  1  0
  7 25  1  6
  9 26  1  0
  9 27  1  0
 12 28  1  0
 13 29  1  0
 13 30  1  0
 18 31  1  0
 19 32  1  0
 21 33  1  0
M  ISO  8  23  13  24  13  25  13  26  13  27  13  28   3  29   8  30   8
M  ISO  3  31  14  32  14  33  14
M  END
>  <minimizedAffinity>  (1) 
-4.77711535

>  <minimizedRMSD>  (1) 
1.73877764

$$$$
