
     RDKit          3D

 22 23  0  0  0  0  0  0  0  0999 V2000
   48.3540   35.1000   41.6620 C   0  0  0  0  0  0  0  0  0  0  0  0
   48.7480   36.2700   41.8670 O   0  0  0  0  0  0  0  0  0  0  0  0
   49.1220   33.9260   41.4250 C   0  0  0  0  0  0  0  0  0  0  0  0
   50.1900   33.7950   42.3140 C   0  0  0  0  0  0  0  0  0  0  0  0
   51.0100   32.6550   42.1520 C   0  0  0  0  0  0  0  0  0  0  0  0
   50.7160   31.7730   41.1630 N   0  0  0  0  0  0  0  0  0  0  0  0
   49.6580   31.9620   40.3300 C   0  0  0  0  0  0  0  0  0  0  0  0
   48.8640   33.0470   40.4730 N   0  0  0  0  0  0  0  0  0  0  0  0
   46.9630   34.9140   41.6660 O   0  0  0  0  0  0  0  0  0  0  0  0
   46.2440   34.9580   42.8750 C   0  0  0  0  0  0  0  0  0  0  0  0
   45.3500   35.9850   43.0980 C   0  0  0  0  0  0  0  0  0  0  0  0
   44.6590   36.0080   44.2860 C   0  0  0  0  0  0  0  0  0  0  0  0
   44.8400   35.0330   45.2520 C   0  0  0  0  0  0  0  0  0  0  0  0
   45.7590   34.0360   44.9430 C   0  0  0  0  0  0  0  0  0  0  0  0
   46.4500   33.9810   43.7980 N   0  0  0  0  0  0  0  0  0  0  0  0
   50.3835   34.5401   43.0998 H   0  0  0  0  0  0  0  0  0  0  0  0
   51.8709   32.4857   42.8155 H   0  0  0  0  0  0  0  0  0  0  0  0
   49.4473   31.2295   39.5369 H   0  0  0  0  0  0  0  0  0  0  0  0
   45.1937   36.7682   42.3416 H   0  0  0  0  0  0  0  0  0  0  0  0
   43.9437   36.8222   44.4740 H   0  0  0  0  0  0  0  0  0  0  0  0
   44.2909   35.0461   46.2050 H   0  0  0  0  0  0  0  0  0  0  0  0
   45.9286   33.2429   45.6861 H   0  0  0  0  0  0  0  0  0  0  0  0
  1  9  1  0
  1  2  2  0
  3  1  1  0
  3  4  2  0
  5  4  1  0
  6  5  2  0
  7  8  2  0
  7  6  1  0
  8  3  1  0
  9 10  1  0
 10 11  2  0
 10 15  1  0
 11 12  1  0
 12 13  2  0
 14 13  1  0
 15 14  2  0
  4 16  1  0
  5 17  1  0
  7 18  1  0
 11 19  1  0
 12 20  1  0
 13 21  1  0
 14 22  1  0
M  ISO  7  16  14  17  14  18  14  19  14  20  14  21  14  22  14
M  END
>  <minimizedAffinity>  (1) 
-4.47333384

>  <minimizedRMSD>  (1) 
5.64154768

$$$$
