
     RDKit          3D

 20 21  0  0  0  0  0  0  0  0999 V2000
   47.2650   34.7840   42.0090 C   0  0  0  0  0  0  0  0  0  0  0  0
   48.1960   35.5680   41.7140 O   0  0  0  0  0  0  0  0  0  0  0  0
   46.4160   34.8250   43.1480 C   0  0  0  0  0  0  0  0  0  0  0  0
   45.5180   35.8930   43.1250 C   0  0  0  0  0  0  0  0  0  0  0  0
   44.6410   36.0040   44.2210 C   0  0  0  0  0  0  0  0  0  0  0  0
   44.7190   35.0770   45.2200 N   0  0  0  0  0  0  0  0  0  0  0  0
   45.6170   34.0610   45.1780 C   0  0  0  0  0  0  0  0  0  0  0  0
   46.4610   33.9440   44.1370 N   0  0  0  0  0  0  0  0  0  0  0  0
   47.0220   33.7330   41.1120 O   0  0  0  0  0  0  0  0  0  0  0  0
   47.4090   33.8910   39.7640 C   0  0  0  0  0  0  0  0  0  0  0  0
   46.8650   33.3360   38.6240 C   0  0  0  0  0  0  0  0  0  0  0  0
   47.6230   33.8200   37.5770 C   0  0  0  0  0  0  0  0  0  0  0  0
   48.5900   34.6380   38.0780 N   0  0  0  0  0  0  0  0  0  0  0  0
   48.4630   34.6830   39.4060 N   0  0  0  0  0  0  0  0  0  0  0  0
   45.4964   36.6118   42.2927 H   0  0  0  0  0  0  0  0  0  0  0  0
   43.9072   36.8219   44.2712 H   0  0  0  0  0  0  0  0  0  0  0  0
   45.6552   33.3296   45.9988 H   0  0  0  0  0  0  0  0  0  0  0  0
   46.0066   32.6509   38.5624 H   0  0  0  0  0  0  0  0  0  0  0  0
   47.4712   33.5840   36.5134 H   0  0  0  0  0  0  0  0  0  0  0  0
   49.3004   35.1382   37.5247 H   0  0  0  0  0  0  0  0  0  0  0  0
  1  3  1  0
  2  1  2  0
  3  8  1  0
  4  3  2  0
  4  5  1  0
  5  6  2  0
  7  6  1  0
  8  7  2  0
  9  1  1  0
 10  9  1  0
 11 10  1  0
 12 13  1  0
 12 11  2  0
 13 14  1  0
 14 10  2  0
  4 15  1  0
  5 16  1  0
  7 17  1  0
 11 18  1  0
 12 19  1  0
 13 20  1  0
M  ISO  6  15  14  16  14  17  14  18  14  19  14  20   9
M  END
>  <minimizedAffinity>  (1) 
-4.2755723

>  <minimizedRMSD>  (1) 
0.378065765

$$$$
