
     RDKit          3D

 16 16  0  0  0  0  0  0  0  0999 V2000
   44.7180   35.9980   44.2060 C   0  0  0  0  0  0  0  0  0  0  0  0
   45.5850   35.4370   43.2480 C   0  0  0  0  0  0  0  0  0  0  0  0
   46.2670   34.2730   43.5830 C   0  0  0  0  0  0  0  0  0  0  0  0
   46.0540   33.7470   44.8190 N   0  0  0  0  0  0  0  0  0  0  0  0
   45.2190   34.3020   45.7210 C   0  0  0  0  0  0  0  0  0  0  0  0
   44.5400   35.4460   45.4090 N   0  0  0  0  0  0  0  0  0  0  0  0
   46.0230   32.7300   47.3500 C   0  0  0  0  0  0  0  0  0  0  0  0
   47.0120   32.3700   46.6530 O   0  0  0  0  0  0  0  0  0  0  0  0
   45.0460   33.6950   46.9930 N   0  0  0  0  0  0  0  0  0  0  0  0
   45.9620   32.0410   48.6150 N   0  0  0  0  0  0  0  0  0  0  0  0
   44.1709   36.9188   43.9556 H   0  0  0  0  0  0  0  0  0  0  0  0
   45.7186   35.9069   42.2624 H   0  0  0  0  0  0  0  0  0  0  0  0
   46.9559   33.7933   42.8722 H   0  0  0  0  0  0  0  0  0  0  0  0
   44.2627   33.9392   47.6156 H   0  0  0  0  0  0  0  0  0  0  0  0
   45.1998   32.2459   49.2768 H   0  0  0  0  0  0  0  0  0  0  0  0
   46.6806   31.3439   48.8569 H   0  0  0  0  0  0  0  0  0  0  0  0
  1  6  2  0
  2  3  2  0
  2  1  1  0
  3  4  1  0
  4  5  2  0
  5  9  1  0
  6  5  1  0
  7 10  1  0
  8  7  2  0
  9  7  1  0
  1 11  1  0
  2 12  1  0
  3 13  1  0
  9 14  1  0
 10 15  1  0
 10 16  1  0
M  ISO  3  11  14  12  14  13  14
M  END
>  <minimizedAffinity>  (1) 
-4.2424655

>  <minimizedRMSD>  (1) 
0.227052718

$$$$
