
     RDKit          3D

 26 27  0  0  0  0  0  0  0  0999 V2000
   47.1080   33.8750   39.6190 C   0  0  0  0  0  0  0  0  0  0  0  0
   48.2380   34.4560   39.1140 C   0  0  0  0  0  0  0  0  0  0  0  0
   48.3040   34.1570   37.7590 C   0  0  0  0  0  0  0  0  0  0  0  0
   47.1870   33.3940   37.5100 C   0  0  0  0  0  0  0  0  0  0  0  0
   46.4910   33.2380   38.6270 O   0  0  0  0  0  0  0  0  0  0  0  0
   46.5640   33.8610   40.9230 O   0  0  0  0  0  0  0  0  0  0  0  0
   47.0350   34.7600   41.8970 C   0  0  0  0  0  0  0  0  0  0  0  0
   48.0820   35.3900   41.6110 O   0  0  0  0  0  0  0  0  0  0  0  0
   46.2560   34.8370   43.0820 C   0  0  0  0  0  0  0  0  0  0  0  0
   45.4060   35.9200   43.1020 C   0  0  0  0  0  0  0  0  0  0  0  0
   44.5930   36.0710   44.2500 C   0  0  0  0  0  0  0  0  0  0  0  0
   44.6980   35.1600   45.2410 N   0  0  0  0  0  0  0  0  0  0  0  0
   45.5500   34.1180   45.1650 C   0  0  0  0  0  0  0  0  0  0  0  0
   46.3350   33.9610   44.0730 N   0  0  0  0  0  0  0  0  0  0  0  0
   46.9470   32.9210   36.2260 O   0  0  0  0  0  0  0  0  0  0  0  0
   45.6930   30.7920   35.4440 O   0  0  0  0  0  0  0  0  0  0  0  0
   45.4920   32.2940   35.6530 P   0  0  0  0  0  0  0  0  0  0  0  0
   44.1920   32.4830   36.7060 O   0  0  0  0  0  0  0  0  0  0  0  0
   45.0480   32.9100   34.1460 O   0  0  0  0  0  0  0  0  0  0  0  0
   48.9664   35.0546   39.6807 H   0  0  0  0  0  0  0  0  0  0  0  0
   49.0799   34.4634   37.0420 H   0  0  0  0  0  0  0  0  0  0  0  0
   45.3612   36.6333   42.2658 H   0  0  0  0  0  0  0  0  0  0  0  0
   43.8901   36.9130   44.3335 H   0  0  0  0  0  0  0  0  0  0  0  0
   45.6075   33.3943   45.9914 H   0  0  0  0  0  0  0  0  0  0  0  0
   44.5149   32.4361   37.6407 H   0  0  0  0  0  0  0  0  0  0  0  0
   44.4738   33.7067   34.2713 H   0  0  0  0  0  0  0  0  0  0  0  0
  1  6  1  0
  2  1  2  0
  3  2  1  0
  4  3  2  0
  4  5  1  0
  5  1  1  0
  6  7  1  0
  7  9  1  0
  8  7  2  0
  9 10  2  0
  9 14  1  0
 10 11  1  0
 11 12  2  0
 13 12  1  0
 14 13  2  0
 15  4  1  0
 16 17  2  0
 17 15  1  0
 17 18  1  0
 19 17  1  0
  2 20  1  0
  3 21  1  0
 10 22  1  0
 11 23  1  0
 13 24  1  0
 18 25  1  0
 19 26  1  0
M  ISO  7  20  14  21  14  22  14  23  14  24  14  25   3  26   3
M  END
>  <minimizedAffinity>  (1) 
-5.55548191

>  <minimizedRMSD>  (1) 
0.685703993

$$$$
