
     RDKit          3D

 27 29  0  0  0  0  0  0  0  0999 V2000
   47.3700   33.8510   39.7900 C   0  0  0  0  0  0  0  0  0  0  0  0
   48.3360   34.5980   39.1620 C   0  0  0  0  0  0  0  0  0  0  0  0
   48.2860   34.3530   37.7870 C   0  0  0  0  0  0  0  0  0  0  0  0
   47.2620   33.4480   37.6670 C   0  0  0  0  0  0  0  0  0  0  0  0
   46.7390   33.1630   38.8310 O   0  0  0  0  0  0  0  0  0  0  0  0
   46.7850   32.8570   36.4580 C   0  0  0  0  0  0  0  0  0  0  0  0
   45.5630   32.6110   35.9530 C   0  0  0  0  0  0  0  0  0  0  0  0
   45.4220   32.0120   34.7280 C   0  0  0  0  0  0  0  0  0  0  0  0
   46.6380   31.6860   34.0620 C   0  0  0  0  0  0  0  0  0  0  0  0
   47.9470   32.2360   35.1910 S   0  0  0  0  0  0  0  0  0  0  0  0
   47.0270   33.7500   41.1380 O   0  0  0  0  0  0  0  0  0  0  0  0
   47.2650   34.7840   42.0340 C   0  0  0  0  0  0  0  0  0  0  0  0
   48.2020   35.5530   41.7390 O   0  0  0  0  0  0  0  0  0  0  0  0
   46.4050   34.8330   43.1750 C   0  0  0  0  0  0  0  0  0  0  0  0
   45.5140   35.9010   43.1340 C   0  0  0  0  0  0  0  0  0  0  0  0
   44.6360   36.0120   44.2240 C   0  0  0  0  0  0  0  0  0  0  0  0
   44.6980   35.1040   45.2270 N   0  0  0  0  0  0  0  0  0  0  0  0
   45.5950   34.0880   45.1970 C   0  0  0  0  0  0  0  0  0  0  0  0
   46.4520   33.9510   44.1680 N   0  0  0  0  0  0  0  0  0  0  0  0
   49.0382   35.2812   39.6621 H   0  0  0  0  0  0  0  0  0  0  0  0
   48.9153   34.7819   36.9933 H   0  0  0  0  0  0  0  0  0  0  0  0
   44.6687   32.8930   36.5281 H   0  0  0  0  0  0  0  0  0  0  0  0
   44.4364   31.7976   34.2891 H   0  0  0  0  0  0  0  0  0  0  0  0
   46.7572   31.2063   33.0793 H   0  0  0  0  0  0  0  0  0  0  0  0
   45.4984   36.6155   42.2978 H   0  0  0  0  0  0  0  0  0  0  0  0
   43.9027   36.8310   44.2631 H   0  0  0  0  0  0  0  0  0  0  0  0
   45.6229   33.3650   46.0256 H   0  0  0  0  0  0  0  0  0  0  0  0
  1 11  1  0
  2  1  2  0
  3  2  1  0
  4  3  2  0
  4  5  1  0
  5  1  1  0
  6  4  1  0
  7  6  2  0
  8  7  1  0
  9  8  2  0
  9 10  1  0
 10  6  1  0
 11 12  1  0
 12 14  1  0
 13 12  2  0
 14 19  1  0
 15 14  2  0
 15 16  1  0
 16 17  2  0
 18 17  1  0
 19 18  2  0
  2 20  1  0
  3 21  1  0
  7 22  1  0
  8 23  1  0
  9 24  1  0
 15 25  1  0
 16 26  1  0
 18 27  1  0
M  ISO  8  20  14  21  14  22  14  23  14  24  14  25  14  26  14  27  14
M  END
>  <minimizedAffinity>  (1) 
-4.95987558

>  <minimizedRMSD>  (1) 
0.636719048

$$$$
