
     RDKit          3D

 27 29  0  0  0  0  0  0  0  0999 V2000
   47.3640   33.8980   39.7470 C   0  0  0  0  0  0  0  0  0  0  0  0
   48.3500   34.6460   39.1700 C   0  0  0  0  0  0  0  0  0  0  0  0
   48.3440   34.4040   37.8080 C   0  0  0  0  0  0  0  0  0  0  0  0
   47.3250   33.4920   37.6090 C   0  0  0  0  0  0  0  0  0  0  0  0
   46.7730   33.2200   38.7830 O   0  0  0  0  0  0  0  0  0  0  0  0
   46.8490   32.8660   36.3780 C   0  0  0  0  0  0  0  0  0  0  0  0
   45.4860   32.6720   36.1400 C   0  0  0  0  0  0  0  0  0  0  0  0
   45.3980   32.0610   34.8930 C   0  0  0  0  0  0  0  0  0  0  0  0
   46.6990   31.9200   34.4470 C   0  0  0  0  0  0  0  0  0  0  0  0
   47.5140   32.4060   35.3480 O   0  0  0  0  0  0  0  0  0  0  0  0
   46.9600   33.7820   41.0850 O   0  0  0  0  0  0  0  0  0  0  0  0
   47.2500   34.7900   42.0120 C   0  0  0  0  0  0  0  0  0  0  0  0
   48.2140   35.5400   41.7330 O   0  0  0  0  0  0  0  0  0  0  0  0
   46.4030   34.8280   43.1570 C   0  0  0  0  0  0  0  0  0  0  0  0
   45.5140   35.8840   43.1420 C   0  0  0  0  0  0  0  0  0  0  0  0
   44.6400   36.0020   44.2320 C   0  0  0  0  0  0  0  0  0  0  0  0
   44.7150   35.0830   45.2260 N   0  0  0  0  0  0  0  0  0  0  0  0
   45.6060   34.0730   45.1880 C   0  0  0  0  0  0  0  0  0  0  0  0
   46.4450   33.9520   44.1510 N   0  0  0  0  0  0  0  0  0  0  0  0
   49.0337   35.3262   39.6990 H   0  0  0  0  0  0  0  0  0  0  0  0
   49.0070   34.8427   37.0477 H   0  0  0  0  0  0  0  0  0  0  0  0
   44.6524   32.9464   36.8032 H   0  0  0  0  0  0  0  0  0  0  0  0
   44.4810   31.7532   34.3692 H   0  0  0  0  0  0  0  0  0  0  0  0
   47.0005   31.4715   33.4889 H   0  0  0  0  0  0  0  0  0  0  0  0
   45.4922   36.6029   42.3097 H   0  0  0  0  0  0  0  0  0  0  0  0
   43.9091   36.8227   44.2797 H   0  0  0  0  0  0  0  0  0  0  0  0
   45.6445   33.3450   46.0118 H   0  0  0  0  0  0  0  0  0  0  0  0
  1 11  1  0
  2  1  2  0
  3  2  1  0
  4  3  2  0
  4  5  1  0
  5  1  1  0
  6  4  1  0
  7  6  2  0
  8  7  1  0
  9  8  2  0
  9 10  1  0
 10  6  1  0
 11 12  1  0
 12 14  1  0
 13 12  2  0
 14 19  1  0
 15 14  2  0
 15 16  1  0
 16 17  2  0
 18 17  1  0
 19 18  2  0
  2 20  1  0
  3 21  1  0
  7 22  1  0
  8 23  1  0
  9 24  1  0
 15 25  1  0
 16 26  1  0
 18 27  1  0
M  ISO  8  20  14  21  14  22  14  23  14  24  14  25  14  26  14  27  14
M  END
>  <minimizedAffinity>  (1) 
-4.94268036

>  <minimizedRMSD>  (1) 
0.853104472

$$$$
