
     RDKit          3D

 35 37  0  0  0  0  0  0  0  0999 V2000
   47.7300   33.2880   43.6720 C   0  0  0  0  0  0  0  0  0  0  0  0
   47.8330   31.9610   43.2890 C   0  0  0  0  0  0  0  0  0  0  0  0
   47.4110   31.1750   44.3620 C   0  0  0  0  0  0  0  0  0  0  0  0
   47.0730   32.0770   45.3400 C   0  0  0  0  0  0  0  0  0  0  0  0
   47.2640   33.3030   44.9230 O   0  0  0  0  0  0  0  0  0  0  0  0
   46.5860   31.6650   46.6140 N   0  0  0  0  0  0  0  0  0  0  0  0
   47.0510   32.3400   47.8080 C   0  0  0  0  0  0  0  0  0  0  0  0
   47.1450   31.3140   48.9200 C   0  0  0  0  0  0  0  0  0  0  0  0
   45.7420   30.9630   49.3070 C   0  0  0  0  0  0  0  0  0  0  0  0
   44.8450   30.9310   48.0800 C   0  0  0  0  0  0  0  0  0  0  0  0
   45.6400   30.5960   46.8250 C   0  0  0  0  0  0  0  0  0  0  0  0
   48.0230   34.4700   42.9740 O   0  0  0  0  0  0  0  0  0  0  0  0
   47.3870   34.7670   41.7720 C   0  0  0  0  0  0  0  0  0  0  0  0
   48.1340   34.9510   40.7850 O   0  0  0  0  0  0  0  0  0  0  0  0
   45.9550   34.8210   41.8190 C   0  0  0  0  0  0  0  0  0  0  0  0
   45.3440   34.0630   40.8350 C   0  0  0  0  0  0  0  0  0  0  0  0
   43.9400   34.0670   40.8180 C   0  0  0  0  0  0  0  0  0  0  0  0
   43.2710   34.7960   41.7450 N   0  0  0  0  0  0  0  0  0  0  0  0
   43.9260   35.5150   42.6800 C   0  0  0  0  0  0  0  0  0  0  0  0
   45.2810   35.5380   42.7310 N   0  0  0  0  0  0  0  0  0  0  0  0
   48.1844   31.5927   42.3139 H   0  0  0  0  0  0  0  0  0  0  0  0
   47.3605   30.0773   44.4128 H   0  0  0  0  0  0  0  0  0  0  0  0
   48.0408   32.7834   47.6246 H   0  0  0  0  0  0  0  0  0  0  0  0
   46.3545   33.1441   48.0880 H   0  0  0  0  0  0  0  0  0  0  0  0
   47.6748   30.4180   48.5643 H   0  0  0  0  0  0  0  0  0  0  0  0
   47.7022   31.7147   49.7796 H   0  0  0  0  0  0  0  0  0  0  0  0
   45.7354   29.9730   49.7865 H   0  0  0  0  0  0  0  0  0  0  0  0
   45.3638   31.7243   50.0052 H   0  0  0  0  0  0  0  0  0  0  0  0
   44.0656   30.1685   48.2252 H   0  0  0  0  0  0  0  0  0  0  0  0
   44.3948   31.9264   47.9517 H   0  0  0  0  0  0  0  0  0  0  0  0
   44.9633   30.5171   45.9614 H   0  0  0  0  0  0  0  0  0  0  0  0
   46.1610   29.6342   46.9410 H   0  0  0  0  0  0  0  0  0  0  0  0
   45.9289   33.4865   40.1032 H   0  0  0  0  0  0  0  0  0  0  0  0
   43.3901   33.4864   40.0626 H   0  0  0  0  0  0  0  0  0  0  0  0
   43.3492   36.0944   43.4160 H   0  0  0  0  0  0  0  0  0  0  0  0
  1  5  1  0
  2  1  2  0
  2  3  1  0
  3  4  2  0
  4  6  1  0
  5  4  1  0
  6 11  1  0
  6  7  1  0
  7  8  1  0
  8  9  1  0
 10  9  1  0
 11 10  1  0
 12  1  1  0
 13 15  1  0
 13 12  1  0
 14 13  2  0
 15 20  1  0
 16 15  2  0
 17 16  1  0
 17 18  2  0
 18 19  1  0
 19 20  2  0
  2 21  1  0
  3 22  1  0
  7 23  1  0
  7 24  1  0
  8 25  1  0
  8 26  1  0
  9 27  1  0
  9 28  1  0
 10 29  1  0
 10 30  1  0
 11 31  1  0
 11 32  1  0
 16 33  1  0
 17 34  1  0
 19 35  1  0
M  ISO  8  21  14  22  14  23  13  24  13  25  13  26  13  27  13  28  13
M  ISO  7  29  13  30  13  31  13  32  13  33  14  34  14  35  14
M  END
>  <minimizedAffinity>  (1) 
-4.92777109

>  <minimizedRMSD>  (1) 
7.90339947

$$$$
