
     RDKit          3D

 21 22  0  0  0  0  0  0  0  0999 V2000
   47.2630   34.7490   41.9200 C   0  0  0  0  0  0  0  0  0  0  0  0
   48.1840   35.5310   41.5920 O   0  0  0  0  0  0  0  0  0  0  0  0
   46.4300   34.7840   43.0730 C   0  0  0  0  0  0  0  0  0  0  0  0
   45.5440   35.8610   43.0500 C   0  0  0  0  0  0  0  0  0  0  0  0
   44.6730   35.9870   44.1480 C   0  0  0  0  0  0  0  0  0  0  0  0
   44.7500   35.0650   45.1480 N   0  0  0  0  0  0  0  0  0  0  0  0
   45.6420   34.0410   45.0980 C   0  0  0  0  0  0  0  0  0  0  0  0
   46.4830   33.8980   44.0630 N   0  0  0  0  0  0  0  0  0  0  0  0
   47.0210   33.7030   41.0340 O   0  0  0  0  0  0  0  0  0  0  0  0
   47.2650   33.8230   39.6580 C   0  0  0  0  0  0  0  0  0  0  0  0
   48.3340   34.3440   38.9860 C   0  0  0  0  0  0  0  0  0  0  0  0
   48.1010   34.2330   37.6280 C   0  0  0  0  0  0  0  0  0  0  0  0
   46.8680   33.6350   37.5310 C   0  0  0  0  0  0  0  0  0  0  0  0
   46.4010   33.4050   38.7440 O   0  0  0  0  0  0  0  0  0  0  0  0
   46.1310   33.2790   36.4050 O   0  0  0  0  0  0  0  0  0  0  0  0
   45.5270   36.5766   42.2147 H   0  0  0  0  0  0  0  0  0  0  0  0
   43.9464   36.8113   44.1978 H   0  0  0  0  0  0  0  0  0  0  0  0
   45.6750   33.3145   45.9233 H   0  0  0  0  0  0  0  0  0  0  0  0
   49.2317   34.7798   39.4489 H   0  0  0  0  0  0  0  0  0  0  0  0
   48.7582   34.5530   36.8060 H   0  0  0  0  0  0  0  0  0  0  0  0
   45.2452   32.8492   36.5087 H   0  0  0  0  0  0  0  0  0  0  0  0
  1  3  1  0
  2  1  2  0
  3  8  1  0
  4  3  2  0
  4  5  1  0
  5  6  2  0
  7  6  1  0
  8  7  2  0
  9  1  1  0
 10  9  1  0
 11 10  2  0
 12 11  1  0
 13 12  2  0
 13 14  1  0
 14 10  1  0
 15 13  1  0
  4 16  1  0
  5 17  1  0
  7 18  1  0
 11 19  1  0
 12 20  1  0
 15 21  1  0
M  ISO  6  16  14  17  14  18  14  19  14  20  14  21   3
M  END
>  <minimizedAffinity>  (1) 
-4.45430899

>  <minimizedRMSD>  (1) 
0.156022593

$$$$
