
     RDKit          3D

 26 27  0  0  0  0  0  0  0  0999 V2000
   47.2580   34.7790   42.0120 C   0  0  0  0  0  0  0  0  0  0  0  0
   48.1950   35.5400   41.7140 O   0  0  0  0  0  0  0  0  0  0  0  0
   46.4050   34.8300   43.1560 C   0  0  0  0  0  0  0  0  0  0  0  0
   45.5110   35.9000   43.1310 C   0  0  0  0  0  0  0  0  0  0  0  0
   44.6380   36.0210   44.2150 C   0  0  0  0  0  0  0  0  0  0  0  0
   44.7060   35.1040   45.2250 N   0  0  0  0  0  0  0  0  0  0  0  0
   45.5970   34.0870   45.1910 C   0  0  0  0  0  0  0  0  0  0  0  0
   46.4600   33.9400   44.1510 N   0  0  0  0  0  0  0  0  0  0  0  0
   46.9950   33.7310   41.1160 O   0  0  0  0  0  0  0  0  0  0  0  0
   47.3700   33.8360   39.7700 C   0  0  0  0  0  0  0  0  0  0  0  0
   48.3150   34.6130   39.1470 C   0  0  0  0  0  0  0  0  0  0  0  0
   48.2990   34.3450   37.7830 C   0  0  0  0  0  0  0  0  0  0  0  0
   47.3180   33.3930   37.6540 C   0  0  0  0  0  0  0  0  0  0  0  0
   46.7850   33.1060   38.8140 O   0  0  0  0  0  0  0  0  0  0  0  0
   46.9340   32.7900   36.3470 C   0  0  0  0  0  0  0  0  0  0  0  0
   45.4430   32.6220   36.2300 C   0  0  0  0  0  0  0  0  0  0  0  0
   45.4940   36.6159   42.2960 H   0  0  0  0  0  0  0  0  0  0  0  0
   43.9071   36.8421   44.2545 H   0  0  0  0  0  0  0  0  0  0  0  0
   45.6238   33.3652   46.0206 H   0  0  0  0  0  0  0  0  0  0  0  0
   48.9791   35.3330   39.6475 H   0  0  0  0  0  0  0  0  0  0  0  0
   48.9238   34.7899   36.9945 H   0  0  0  0  0  0  0  0  0  0  0  0
   47.2841   33.4448   35.5354 H   0  0  0  0  0  0  0  0  0  0  0  0
   47.3984   31.7952   36.2778 H   0  0  0  0  0  0  0  0  0  0  0  0
   44.9996   32.5720   37.2354 H   0  0  0  0  0  0  0  0  0  0  0  0
   45.0192   33.4781   35.6845 H   0  0  0  0  0  0  0  0  0  0  0  0
   45.2204   31.6931   35.6845 H   0  0  0  0  0  0  0  0  0  0  0  0
  1  3  1  0
  2  1  2  0
  3  8  1  0
  4  3  2  0
  4  5  1  0
  5  6  2  0
  7  6  1  0
  8  7  2  0
  9  1  1  0
 10  9  1  0
 11 10  2  0
 12 11  1  0
 13 12  2  0
 13 14  1  0
 14 10  1  0
 15 13  1  0
 16 15  1  0
  4 17  1  0
  5 18  1  0
  7 19  1  0
 11 20  1  0
 12 21  1  0
 15 22  1  0
 15 23  1  0
 16 24  1  0
 16 25  1  0
 16 26  1  0
M  ISO  8  17  14  18  14  19  14  20  14  21  14  22   8  23   8  24   8
M  ISO  2  25   8  26   8
M  END
>  <minimizedAffinity>  (1) 
-4.34546137

>  <minimizedRMSD>  (1) 
0.467106909

$$$$
