
     RDKit          3D

 27 29  0  0  0  0  0  0  0  0999 V2000
   47.3030   34.7180   42.0070 C   0  0  0  0  0  0  0  0  0  0  0  0
   48.1600   35.5520   41.6320 O   0  0  0  0  0  0  0  0  0  0  0  0
   46.4350   34.7950   43.1320 C   0  0  0  0  0  0  0  0  0  0  0  0
   45.5520   35.8530   43.0940 C   0  0  0  0  0  0  0  0  0  0  0  0
   44.6670   35.9950   44.1660 C   0  0  0  0  0  0  0  0  0  0  0  0
   44.7240   35.0920   45.1740 N   0  0  0  0  0  0  0  0  0  0  0  0
   45.6010   34.0760   45.1700 C   0  0  0  0  0  0  0  0  0  0  0  0
   46.4550   33.9330   44.1440 N   0  0  0  0  0  0  0  0  0  0  0  0
   47.1820   33.5600   41.2200 O   0  0  0  0  0  0  0  0  0  0  0  0
   47.2310   33.6450   39.8210 C   0  0  0  0  0  0  0  0  0  0  0  0
   48.1950   34.1750   38.9780 C   0  0  0  0  0  0  0  0  0  0  0  0
   47.7850   34.0200   37.6690 C   0  0  0  0  0  0  0  0  0  0  0  0
   46.5600   33.3870   37.7820 C   0  0  0  0  0  0  0  0  0  0  0  0
   46.2550   33.1780   39.0370 O   0  0  0  0  0  0  0  0  0  0  0  0
   45.6980   32.9940   36.6470 C   0  0  0  0  0  0  0  0  0  0  0  0
   44.6990   31.9020   36.8500 C   0  0  0  0  0  0  0  0  0  0  0  0
   45.9600   31.5740   36.1400 C   0  0  0  0  0  0  0  0  0  0  0  0
   45.5444   36.5594   42.2508 H   0  0  0  0  0  0  0  0  0  0  0  0
   43.9409   36.8209   44.1907 H   0  0  0  0  0  0  0  0  0  0  0  0
   45.6200   33.3615   46.0062 H   0  0  0  0  0  0  0  0  0  0  0  0
   49.1363   34.6441   39.3004 H   0  0  0  0  0  0  0  0  0  0  0  0
   48.3089   34.3274   36.7519 H   0  0  0  0  0  0  0  0  0  0  0  0
   45.6356   34.0098   36.2297 H   0  0  0  0  0  0  0  0  0  0  0  0
   44.5237   31.5049   37.8608 H   0  0  0  0  0  0  0  0  0  0  0  0
   43.6317   31.7850   36.6109 H   0  0  0  0  0  0  0  0  0  0  0  0
   45.9464   31.3623   35.0606 H   0  0  0  0  0  0  0  0  0  0  0  0
   46.7614   30.8323   36.2730 H   0  0  0  0  0  0  0  0  0  0  0  0
  1  3  1  0
  2  1  2  0
  3  8  1  0
  4  3  2  0
  4  5  1  0
  5  6  2  0
  7  6  1  0
  8  7  2  0
  9  1  1  0
 10  9  1  0
 11 10  2  0
 12 13  2  0
 12 11  1  0
 13 14  1  0
 14 10  1  0
 15 16  1  0
 15 13  1  0
 17 15  1  0
 17 16  1  0
  4 18  1  0
  5 19  1  0
  7 20  1  0
 11 21  1  0
 12 22  1  0
 15 23  1  0
 16 24  1  0
 16 25  1  0
 17 26  1  0
 17 27  1  0
M  ISO  8  18  14  19  14  20  14  21  14  22  14  23  13  24  13  25  13
M  ISO  2  26  13  27  13
M  END
>  <minimizedAffinity>  (1) 
-4.30552721

>  <minimizedRMSD>  (1) 
0.248422012

$$$$
