
     RDKit          3D

 47 51  0  0  1  0  0  0  0  0999 V2000
   46.1210   32.8090   36.5930 C   0  0  2  0  0  0  0  0  0  0  0  0
   45.7880   31.3740   36.5100 C   0  0  0  0  0  0  0  0  0  0  0  0
   46.9330   31.8880   35.7030 C   0  0  1  0  0  0  0  0  0  0  0  0
   47.3940   33.6690   39.8340 C   0  0  0  0  0  0  0  0  0  0  0  0
   48.2870   34.3640   39.0170 C   0  0  0  0  0  0  0  0  0  0  0  0
   47.9520   34.1490   37.6930 C   0  0  0  0  0  0  0  0  0  0  0  0
   46.8600   33.3250   37.7790 C   0  0  0  0  0  0  0  0  0  0  0  0
   46.5300   33.0400   39.0220 O   0  0  0  0  0  0  0  0  0  0  0  0
   47.3000   33.5620   41.2310 O   0  0  0  0  0  0  0  0  0  0  0  0
   47.3830   34.7290   42.0270 C   0  0  0  0  0  0  0  0  0  0  0  0
   48.2400   35.5780   41.6730 O   0  0  0  0  0  0  0  0  0  0  0  0
   46.4860   34.7950   43.1280 C   0  0  0  0  0  0  0  0  0  0  0  0
   45.5910   35.8360   43.0840 C   0  0  0  0  0  0  0  0  0  0  0  0
   44.6790   35.9680   44.1300 C   0  0  0  0  0  0  0  0  0  0  0  0
   44.7170   35.0720   45.1300 N   0  0  0  0  0  0  0  0  0  0  0  0
   45.6130   34.0630   45.1350 C   0  0  0  0  0  0  0  0  0  0  0  0
   46.4840   33.9400   44.1340 N   0  0  0  0  0  0  0  0  0  0  0  0
   46.8670   32.1100   34.2450 C   0  0  0  0  0  0  0  0  0  0  0  0
   47.2480   31.0050   33.3530 C   0  0  0  0  0  0  0  0  0  0  0  0
   48.0920   31.3980   32.3620 C   0  0  0  0  0  0  0  0  0  0  0  0
   48.6310   30.4790   31.3780 N   0  0  0  0  0  0  0  0  0  0  0  0
   48.7940   30.1900   29.9830 C   0  0  0  0  0  0  0  0  0  0  0  0
   48.8280   30.9310   28.9520 O   0  0  0  0  0  0  0  0  0  0  0  0
   48.8860   28.7450   30.4120 C   0  0  0  0  0  0  0  0  0  0  0  0
   49.3560   29.2410   31.7620 C   0  0  2  0  0  0  0  0  0  0  0  0
   48.4500   28.5990   33.1960 S   0  0  0  0  0  0  0  0  0  0  0  0
   46.8970   29.5710   33.2200 C   0  0  0  0  0  0  0  0  0  0  0  0
   48.5410   32.8010   32.2430 C   0  0  0  0  0  0  0  0  0  0  0  0
   49.4250   33.2750   31.4400 O   0  0  0  0  0  0  0  0  0  0  0  0
   48.6720   34.1420   32.4390 O   0  0  0  0  0  0  0  0  0  0  0  0
   45.5226   33.7250   36.4794 H   0  0  0  0  0  0  0  0  0  0  0  0
   45.9787   30.7185   37.3725 H   0  0  0  0  0  0  0  0  0  0  0  0
   44.8739   30.8089   36.2753 H   0  0  0  0  0  0  0  0  0  0  0  0
   47.9795   31.5671   35.5942 H   0  0  0  0  0  0  0  0  0  0  0  0
   49.1241   34.9841   39.3703 H   0  0  0  0  0  0  0  0  0  0  0  0
   48.4423   34.5431   36.7906 H   0  0  0  0  0  0  0  0  0  0  0  0
   45.5938   36.5473   42.2449 H   0  0  0  0  0  0  0  0  0  0  0  0
   43.9450   36.7872   44.1363 H   0  0  0  0  0  0  0  0  0  0  0  0
   45.6244   33.3419   45.9656 H   0  0  0  0  0  0  0  0  0  0  0  0
   45.8283   32.3800   34.0035 H   0  0  0  0  0  0  0  0  0  0  0  0
   47.6235   32.8855   34.0543 H   0  0  0  0  0  0  0  0  0  0  0  0
   47.9250   28.2101   30.4295 H   0  0  0  0  0  0  0  0  0  0  0  0
   49.4627   28.0070   29.8352 H   0  0  0  0  0  0  0  0  0  0  0  0
   50.4093   29.1179   32.0542 H   0  0  0  0  0  0  0  0  0  0  0  0
   46.3422   29.4090   32.2841 H   0  0  0  0  0  0  0  0  0  0  0  0
   46.2652   29.2555   34.0634 H   0  0  0  0  0  0  0  0  0  0  0  0
   49.3177   34.6608   31.8967 H   0  0  0  0  0  0  0  0  0  0  0  0
  1  7  1  0
  2  1  1  0
  3  2  1  0
  3  1  1  0
  4  9  1  0
  5  4  2  0
  6  7  2  0
  6  5  1  0
  7  8  1  0
  8  4  1  0
  9 10  1  0
 10 12  1  0
 11 10  2  0
 12 17  1  0
 13 12  2  0
 13 14  1  0
 14 15  2  0
 15 16  1  0
 17 16  2  0
 18  3  1  0
 19 18  1  0
 20 19  2  0
 21 25  1  0
 21 20  1  0
 22 24  1  0
 22 21  1  0
 23 22  2  0
 25 24  1  0
 25 26  1  0
 26 27  1  0
 27 19  1  0
 28 20  1  0
 28 30  1  0
 29 28  2  0
  1 31  1  6
  2 32  1  0
  2 33  1  0
  3 34  1  1
  5 35  1  0
  6 36  1  0
 13 37  1  0
 14 38  1  0
 16 39  1  0
 18 40  1  0
 18 41  1  0
 24 42  1  0
 24 43  1  0
 25 44  1  1
 27 45  1  0
 27 46  1  0
 30 47  1  0
M  ISO  8  31  13  32  13  33  13  34  13  35  14  36  14  37  14  38  14
M  ISO  8  39  14  40   8  41   8  42  13  43  13  44  13  45  13  46  13
M  ISO  1  47   3
M  END
>  <minimizedAffinity>  (1) 
-6.4829402

>  <minimizedRMSD>  (1) 
1.7336458

$$$$
