
     RDKit          3D

 37 40  0  0  1  0  0  0  0  0999 V2000
   47.5680   33.7280   39.6080 C   0  0  0  0  0  0  0  0  0  0  0  0
   48.3610   34.6070   38.8730 C   0  0  0  0  0  0  0  0  0  0  0  0
   48.2000   34.3430   37.5230 C   0  0  0  0  0  0  0  0  0  0  0  0
   47.3060   33.3050   37.5030 C   0  0  0  0  0  0  0  0  0  0  0  0
   46.9460   32.9550   38.7230 O   0  0  0  0  0  0  0  0  0  0  0  0
   46.8070   32.6610   36.2710 C   0  0  2  0  0  0  0  0  0  0  0  0
   46.3710   31.2500   36.3100 C   0  0  0  0  0  0  0  0  0  0  0  0
   47.7170   31.5120   35.7690 C   0  0  1  0  0  0  0  0  0  0  0  0
   46.9440   29.3860   33.5630 Cl  0  0  0  0  0  0  0  0  0  0  0  0
   47.8220   30.8440   33.2560 C   0  0  0  0  0  0  0  0  0  0  0  0
   48.0590   31.6160   34.3570 C   0  0  0  0  0  0  0  0  0  0  0  0
   48.7810   32.7990   34.1390 C   0  0  0  0  0  0  0  0  0  0  0  0
   49.2290   33.1600   32.8620 C   0  0  0  0  0  0  0  0  0  0  0  0
   48.9640   32.3470   31.7800 C   0  0  0  0  0  0  0  0  0  0  0  0
   48.2550   31.1860   31.9940 C   0  0  0  0  0  0  0  0  0  0  0  0
   47.8660   30.0870   30.6950 Cl  0  0  0  0  0  0  0  0  0  0  0  0
   47.3730   33.5840   40.9910 O   0  0  0  0  0  0  0  0  0  0  0  0
   47.4690   34.7150   41.8330 C   0  0  0  0  0  0  0  0  0  0  0  0
   48.3260   35.5720   41.5040 O   0  0  0  0  0  0  0  0  0  0  0  0
   46.5860   34.7460   42.9490 C   0  0  0  0  0  0  0  0  0  0  0  0
   45.6450   35.7380   42.9040 C   0  0  0  0  0  0  0  0  0  0  0  0
   44.7420   35.8300   43.9690 C   0  0  0  0  0  0  0  0  0  0  0  0
   44.8480   34.9310   44.9820 N   0  0  0  0  0  0  0  0  0  0  0  0
   45.7810   33.9810   44.9790 C   0  0  0  0  0  0  0  0  0  0  0  0
   46.6400   33.9000   43.9600 N   0  0  0  0  0  0  0  0  0  0  0  0
   49.0112   35.3863   39.2973 H   0  0  0  0  0  0  0  0  0  0  0  0
   48.6768   34.8471   36.6694 H   0  0  0  0  0  0  0  0  0  0  0  0
   46.3474   33.5806   35.8797 H   0  0  0  0  0  0  0  0  0  0  0  0
   46.2678   30.7427   37.2806 H   0  0  0  0  0  0  0  0  0  0  0  0
   45.4891   30.7185   35.9231 H   0  0  0  0  0  0  0  0  0  0  0  0
   48.6816   31.0278   35.9812 H   0  0  0  0  0  0  0  0  0  0  0  0
   49.0005   33.4588   34.9914 H   0  0  0  0  0  0  0  0  0  0  0  0
   49.7933   34.0938   32.7218 H   0  0  0  0  0  0  0  0  0  0  0  0
   49.3101   32.6189   30.7719 H   0  0  0  0  0  0  0  0  0  0  0  0
   45.5997   36.4402   42.0585 H   0  0  0  0  0  0  0  0  0  0  0  0
   43.9665   36.6100   43.9855 H   0  0  0  0  0  0  0  0  0  0  0  0
   45.8438   33.2659   45.8125 H   0  0  0  0  0  0  0  0  0  0  0  0
  1 17  1  0
  2  1  2  0
  3  2  1  0
  4  3  2  0
  4  5  1  0
  5  1  1  0
  6  7  1  0
  6  4  1  0
  8  6  1  0
  8  7  1  0
 10  9  1  0
 10 11  2  0
 11  8  1  0
 12 11  1  0
 13 12  2  0
 14 15  2  0
 14 13  1  0
 15 10  1  0
 16 15  1  0
 17 18  1  0
 18 20  1  0
 19 18  2  0
 20 25  1  0
 21 20  2  0
 21 22  1  0
 22 23  2  0
 24 23  1  0
 25 24  2  0
  2 26  1  0
  3 27  1  0
  6 28  1  6
  7 29  1  0
  7 30  1  0
  8 31  1  1
 12 32  1  0
 13 33  1  0
 14 34  1  0
 21 35  1  0
 22 36  1  0
 24 37  1  0
M  ISO  8  26  14  27  14  28  13  29  13  30  13  31  13  32  14  33  14
M  ISO  4  34  14  35  14  36  14  37  14
M  END
>  <minimizedAffinity>  (1) 
-5.87035608

>  <minimizedRMSD>  (1) 
1.36590302

$$$$
