
     RDKit          3D

 41 45  0  0  1  0  0  0  0  0999 V2000
   48.1050   33.8790   39.0220 C   0  0  0  0  0  0  0  0  0  0  0  0
   48.5910   34.5490   37.9000 C   0  0  0  0  0  0  0  0  0  0  0  0
   47.7140   34.3570   36.8490 C   0  0  0  0  0  0  0  0  0  0  0  0
   46.7240   33.5720   37.3820 C   0  0  0  0  0  0  0  0  0  0  0  0
   46.9700   33.3030   38.6500 O   0  0  0  0  0  0  0  0  0  0  0  0
   45.5440   33.0950   36.6450 C   0  0  2  0  0  0  0  0  0  0  0  0
   45.0350   31.7320   36.8880 C   0  0  0  0  0  0  0  0  0  0  0  0
   45.8560   31.9510   35.6530 C   0  0  2  0  0  0  0  0  0  0  0  0
   47.2370   31.4400   35.5940 C   0  0  0  0  0  0  0  0  0  0  0  0
   47.4890   30.5870   36.6320 N   0  0  0  0  0  0  0  0  0  0  0  0
   48.6790   29.9650   36.7520 C   0  0  0  0  0  0  0  0  0  0  0  0
   49.6580   30.1820   35.8260 N   0  0  0  0  0  0  0  0  0  0  0  0
   49.4520   31.0140   34.7900 C   0  0  0  0  0  0  0  0  0  0  0  0
   50.3740   31.3110   33.8090 C   0  0  0  0  0  0  0  0  0  0  0  0
   50.0680   32.2000   32.7800 C   0  0  0  0  0  0  0  0  0  0  0  0
   48.8220   32.8210   32.7000 C   0  0  0  0  0  0  0  0  0  0  0  0
   47.9020   32.5150   33.6900 C   0  0  0  0  0  0  0  0  0  0  0  0
   48.2290   31.6380   34.6880 C   0  0  0  0  0  0  0  0  0  0  0  0
   48.6110   33.7590   40.3330 O   0  0  0  0  0  0  0  0  0  0  0  0
   48.4090   34.8120   41.2530 C   0  0  0  0  0  0  0  0  0  0  0  0
   48.9990   35.8910   40.9970 O   0  0  0  0  0  0  0  0  0  0  0  0
   47.5580   34.5200   42.3610 C   0  0  0  0  0  0  0  0  0  0  0  0
   46.4140   35.2660   42.4120 C   0  0  0  0  0  0  0  0  0  0  0  0
   45.5300   35.0390   43.4660 C   0  0  0  0  0  0  0  0  0  0  0  0
   45.8500   34.0930   44.3820 N   0  0  0  0  0  0  0  0  0  0  0  0
   46.9800   33.3870   44.2940 C   0  0  0  0  0  0  0  0  0  0  0  0
   47.8270   33.6110   43.2770 N   0  0  0  0  0  0  0  0  0  0  0  0
   49.5210   35.1350   37.8580 H   0  0  0  0  0  0  0  0  0  0  0  0
   47.7922   34.7443   35.8224 H   0  0  0  0  0  0  0  0  0  0  0  0
   45.0585   34.0819   36.6272 H   0  0  0  0  0  0  0  0  0  0  0  0
   45.4487   31.1380   37.7163 H   0  0  0  0  0  0  0  0  0  0  0  0
   44.0346   31.3140   37.0738 H   0  0  0  0  0  0  0  0  0  0  0  0
   45.7145   31.7647   34.5782 H   0  0  0  0  0  0  0  0  0  0  0  0
   48.8609   29.2830   37.5957 H   0  0  0  0  0  0  0  0  0  0  0  0
   51.3671   30.8388   33.8388 H   0  0  0  0  0  0  0  0  0  0  0  0
   50.8267   32.4167   32.0136 H   0  0  0  0  0  0  0  0  0  0  0  0
   48.5803   33.5222   31.8876 H   0  0  0  0  0  0  0  0  0  0  0  0
   46.9048   32.9790   33.6735 H   0  0  0  0  0  0  0  0  0  0  0  0
   46.1971   36.0232   41.6441 H   0  0  0  0  0  0  0  0  0  0  0  0
   44.5959   35.6136   43.5519 H   0  0  0  0  0  0  0  0  0  0  0  0
   47.2158   32.6251   45.0516 H   0  0  0  0  0  0  0  0  0  0  0  0
  1 19  1  0
  2  1  2  0
  3  4  2  0
  3  2  1  0
  4  5  1  0
  5  1  1  0
  6  7  1  0
  6  4  1  0
  8  6  1  0
  8  7  1  0
  9  8  1  0
  9 10  2  0
 10 11  1  0
 12 11  2  0
 13 12  1  0
 14 13  2  0
 15 14  1  0
 16 15  2  0
 16 17  1  0
 17 18  2  0
 18 13  1  0
 18  9  1  0
 19 20  1  0
 20 22  1  0
 21 20  2  0
 22 23  2  0
 22 27  1  0
 23 24  1  0
 24 25  2  0
 26 25  1  0
 27 26  2  0
  2 28  1  0
  3 29  1  0
  6 30  1  6
  7 31  1  0
  7 32  1  0
  8 33  1  6
 11 34  1  0
 14 35  1  0
 15 36  1  0
 16 37  1  0
 17 38  1  0
 23 39  1  0
 24 40  1  0
 26 41  1  0
M  ISO  8  28  14  29  14  30  13  31  13  32  13  33  13  34  14  35  14
M  ISO  6  36  14  37  14  38  14  39  14  40  14  41  14
M  END
>  <minimizedAffinity>  (1) 
-5.38666391

>  <minimizedRMSD>  (1) 
2.52842569

$$$$
