
     RDKit          3D

 40 43  0  0  1  0  0  0  0  0999 V2000
   47.4170   33.7960   39.7600 C   0  0  0  0  0  0  0  0  0  0  0  0
   48.3440   34.5920   39.0960 C   0  0  0  0  0  0  0  0  0  0  0  0
   48.2370   34.3640   37.7290 C   0  0  0  0  0  0  0  0  0  0  0  0
   47.2370   33.4290   37.6350 C   0  0  0  0  0  0  0  0  0  0  0  0
   46.7690   33.1060   38.8240 O   0  0  0  0  0  0  0  0  0  0  0  0
   46.7520   32.8660   36.3670 C   0  0  2  0  0  0  0  0  0  0  0  0
   46.5480   31.4140   36.2350 C   0  0  0  0  0  0  0  0  0  0  0  0
   47.7800   32.0070   35.6250 C   0  0  1  0  0  0  0  0  0  0  0  0
   47.8730   32.0880   34.1470 C   0  0  0  0  0  0  0  0  0  0  0  0
   49.0330   32.8880   33.6380 C   0  0  0  0  0  0  0  0  0  0  0  0
   49.1850   32.4290   32.1900 C   0  0  0  0  0  0  0  0  0  0  0  0
   48.2540   31.2530   32.0070 C   0  0  0  0  0  0  0  0  0  0  0  0
   48.0010   30.7800   33.4440 C   0  0  0  0  0  0  0  0  0  0  0  0
   47.1290   33.6610   41.1290 O   0  0  0  0  0  0  0  0  0  0  0  0
   47.3080   34.7640   41.9980 C   0  0  0  0  0  0  0  0  0  0  0  0
   48.2210   35.5650   41.6800 O   0  0  0  0  0  0  0  0  0  0  0  0
   46.4380   34.8270   43.1160 C   0  0  0  0  0  0  0  0  0  0  0  0
   45.5520   35.8690   43.0990 C   0  0  0  0  0  0  0  0  0  0  0  0
   44.6660   35.9920   44.1690 C   0  0  0  0  0  0  0  0  0  0  0  0
   44.7250   35.0770   45.1690 N   0  0  0  0  0  0  0  0  0  0  0  0
   45.6030   34.0760   45.1490 C   0  0  0  0  0  0  0  0  0  0  0  0
   46.4460   33.9710   44.1170 N   0  0  0  0  0  0  0  0  0  0  0  0
   49.0476   35.2889   39.5748 H   0  0  0  0  0  0  0  0  0  0  0  0
   48.8167   34.8241   36.9152 H   0  0  0  0  0  0  0  0  0  0  0  0
   46.1097   33.7328   36.1521 H   0  0  0  0  0  0  0  0  0  0  0  0
   46.6362   30.7693   37.1219 H   0  0  0  0  0  0  0  0  0  0  0  0
   45.7291   30.7880   35.8510 H   0  0  0  0  0  0  0  0  0  0  0  0
   48.8645   31.8407   35.7042 H   0  0  0  0  0  0  0  0  0  0  0  0
   46.9095   32.5692   33.9233 H   0  0  0  0  0  0  0  0  0  0  0  0
   48.8174   33.9655   33.6869 H   0  0  0  0  0  0  0  0  0  0  0  0
   49.9472   32.7358   34.2305 H   0  0  0  0  0  0  0  0  0  0  0  0
   48.9077   33.2424   31.5034 H   0  0  0  0  0  0  0  0  0  0  0  0
   50.2256   32.1474   31.9715 H   0  0  0  0  0  0  0  0  0  0  0  0
   47.3163   31.5637   31.5231 H   0  0  0  0  0  0  0  0  0  0  0  0
   48.6731   30.4671   31.3615 H   0  0  0  0  0  0  0  0  0  0  0  0
   47.0773   30.1875   33.5190 H   0  0  0  0  0  0  0  0  0  0  0  0
   48.7795   30.1176   33.8503 H   0  0  0  0  0  0  0  0  0  0  0  0
   45.5387   36.5881   42.2667 H   0  0  0  0  0  0  0  0  0  0  0  0
   43.9350   36.8133   44.2015 H   0  0  0  0  0  0  0  0  0  0  0  0
   45.6341   33.3454   45.9707 H   0  0  0  0  0  0  0  0  0  0  0  0
  1 14  1  0
  2  1  2  0
  3  2  1  0
  4  3  2  0
  4  5  1  0
  5  1  1  0
  6  4  1  0
  7  6  1  0
  8  7  1  0
  8  6  1  0
  9  8  1  0
 10  9  1  0
 11 10  1  0
 12 11  1  0
 12 13  1  0
 13  9  1  0
 14 15  1  0
 15 17  1  0
 16 15  2  0
 17 22  1  0
 18 17  2  0
 18 19  1  0
 19 20  2  0
 21 20  1  0
 22 21  2  0
  2 23  1  0
  3 24  1  0
  6 25  1  6
  7 26  1  0
  7 27  1  0
  8 28  1  1
  9 29  1  0
 10 30  1  0
 10 31  1  0
 11 32  1  0
 11 33  1  0
 12 34  1  0
 12 35  1  0
 13 36  1  0
 13 37  1  0
 18 38  1  0
 19 39  1  0
 21 40  1  0
M  ISO  8  23  14  24  14  25  13  26  13  27  13  28  13  29  13  30  13
M  ISO  8  31  13  32  13  33  13  34  13  35  13  36  13  37  13  38  14
M  ISO  2  39  14  40  14
M  END
>  <minimizedAffinity>  (1) 
-5.31518412

>  <minimizedRMSD>  (1) 
1.48913622

$$$$
