
     RDKit          3D

 37 40  0  0  1  0  0  0  0  0999 V2000
   47.4060   33.7240   39.7920 C   0  0  0  0  0  0  0  0  0  0  0  0
   48.2990   34.4360   38.9930 C   0  0  0  0  0  0  0  0  0  0  0  0
   47.9600   34.2420   37.6650 C   0  0  0  0  0  0  0  0  0  0  0  0
   46.8680   33.4140   37.7170 C   0  0  0  0  0  0  0  0  0  0  0  0
   46.5520   33.1180   38.9620 O   0  0  0  0  0  0  0  0  0  0  0  0
   46.1340   32.9210   36.5420 C   0  0  2  0  0  0  0  0  0  0  0  0
   45.4320   31.6240   36.6170 C   0  0  0  0  0  0  0  0  0  0  0  0
   46.7490   31.6510   35.9190 C   0  0  2  0  0  0  0  0  0  0  0  0
   49.1290   32.2940   34.7210 F   0  0  0  0  0  0  0  0  0  0  0  0
   49.1070   31.4750   35.8230 C   0  0  0  0  0  0  0  0  0  0  0  0
   47.9560   31.0800   36.5160 C   0  0  0  0  0  0  0  0  0  0  0  0
   48.1200   30.2590   37.5920 C   0  0  0  0  0  0  0  0  0  0  0  0
   49.3690   29.8300   37.9920 C   0  0  0  0  0  0  0  0  0  0  0  0
   50.5120   30.2110   37.3170 C   0  0  0  0  0  0  0  0  0  0  0  0
   50.3760   31.0430   36.2230 C   0  0  0  0  0  0  0  0  0  0  0  0
   47.3080   33.5890   41.1930 O   0  0  0  0  0  0  0  0  0  0  0  0
   47.3840   34.7330   42.0110 C   0  0  0  0  0  0  0  0  0  0  0  0
   48.2500   35.5850   41.6700 O   0  0  0  0  0  0  0  0  0  0  0  0
   46.4900   34.7930   43.1110 C   0  0  0  0  0  0  0  0  0  0  0  0
   45.6030   35.8350   43.0700 C   0  0  0  0  0  0  0  0  0  0  0  0
   44.6920   35.9600   44.1180 C   0  0  0  0  0  0  0  0  0  0  0  0
   44.7320   35.0540   45.1100 N   0  0  0  0  0  0  0  0  0  0  0  0
   45.6140   34.0470   45.1160 C   0  0  0  0  0  0  0  0  0  0  0  0
   46.4930   33.9270   44.1040 N   0  0  0  0  0  0  0  0  0  0  0  0
   49.1352   35.0507   39.3576 H   0  0  0  0  0  0  0  0  0  0  0  0
   48.4530   34.6565   36.7733 H   0  0  0  0  0  0  0  0  0  0  0  0
   45.8238   33.9243   36.2146 H   0  0  0  0  0  0  0  0  0  0  0  0
   45.3419   31.1111   37.5859 H   0  0  0  0  0  0  0  0  0  0  0  0
   44.4252   31.2849   36.3317 H   0  0  0  0  0  0  0  0  0  0  0  0
   47.1026   31.3299   34.9281 H   0  0  0  0  0  0  0  0  0  0  0  0
   47.2343   29.9303   38.1555 H   0  0  0  0  0  0  0  0  0  0  0  0
   49.4562   29.1701   38.8677 H   0  0  0  0  0  0  0  0  0  0  0  0
   51.5032   29.8615   37.6416 H   0  0  0  0  0  0  0  0  0  0  0  0
   51.2672   31.3665   35.6652 H   0  0  0  0  0  0  0  0  0  0  0  0
   45.6089   36.5518   42.2356 H   0  0  0  0  0  0  0  0  0  0  0  0
   43.9587   36.7798   44.1326 H   0  0  0  0  0  0  0  0  0  0  0  0
   45.6203   33.3219   45.9432 H   0  0  0  0  0  0  0  0  0  0  0  0
  1 16  1  0
  2  1  2  0
  3  4  2  0
  3  2  1  0
  4  5  1  0
  5  1  1  0
  6  7  1  0
  6  4  1  0
  8 11  1  0
  8  6  1  0
  8  7  1  0
  9 10  1  0
 10 15  2  0
 10 11  1  0
 11 12  2  0
 12 13  1  0
 14 13  2  0
 15 14  1  0
 16 17  1  0
 17 19  1  0
 18 17  2  0
 19 24  1  0
 20 19  2  0
 20 21  1  0
 21 22  2  0
 22 23  1  0
 24 23  2  0
  2 25  1  0
  3 26  1  0
  6 27  1  6
  7 28  1  0
  7 29  1  0
  8 30  1  6
 12 31  1  0
 13 32  1  0
 14 33  1  0
 15 34  1  0
 20 35  1  0
 21 36  1  0
 23 37  1  0
M  ISO  8  25  14  26  14  27  13  28  13  29  13  30  13  31  14  32  14
M  ISO  5  33  14  34  14  35  14  36  14  37  14
M  END
>  <minimizedAffinity>  (1) 
-4.81990099

>  <minimizedRMSD>  (1) 
0.787243187

$$$$
