
     RDKit          3D

 28 30  0  0  1  0  0  0  0  0999 V2000
   47.3030   33.6640   39.7960 C   0  0  0  0  0  0  0  0  0  0  0  0
   48.2380   34.2490   38.9440 C   0  0  0  0  0  0  0  0  0  0  0  0
   47.8120   34.0830   37.6330 C   0  0  0  0  0  0  0  0  0  0  0  0
   46.6300   33.3990   37.7580 C   0  0  0  0  0  0  0  0  0  0  0  0
   46.3470   33.1610   39.0240 O   0  0  0  0  0  0  0  0  0  0  0  0
   45.7840   32.9880   36.6280 C   0  0  2  0  0  0  0  0  0  0  0  0
   44.7820   31.9200   36.8200 C   0  0  0  0  0  0  0  0  0  0  0  0
   46.0650   31.5510   36.1410 C   0  0  2  0  0  0  0  0  0  0  0  0
   47.3110   30.5990   37.0270 S   0  0  0  0  0  0  0  0  0  0  0  0
   47.2640   33.5610   41.2000 O   0  0  0  0  0  0  0  0  0  0  0  0
   47.3560   34.7350   41.9850 C   0  0  0  0  0  0  0  0  0  0  0  0
   48.1950   35.5770   41.6230 O   0  0  0  0  0  0  0  0  0  0  0  0
   46.4670   34.8060   43.1010 C   0  0  0  0  0  0  0  0  0  0  0  0
   45.5800   35.8470   43.0740 C   0  0  0  0  0  0  0  0  0  0  0  0
   44.6820   35.9760   44.1320 C   0  0  0  0  0  0  0  0  0  0  0  0
   44.7310   35.0730   45.1270 N   0  0  0  0  0  0  0  0  0  0  0  0
   45.6100   34.0630   45.1270 C   0  0  0  0  0  0  0  0  0  0  0  0
   46.4640   33.9520   44.1050 N   0  0  0  0  0  0  0  0  0  0  0  0
   49.1610   34.7582   39.2583 H   0  0  0  0  0  0  0  0  0  0  0  0
   48.3066   34.4209   36.7104 H   0  0  0  0  0  0  0  0  0  0  0  0
   45.7258   33.9993   36.1992 H   0  0  0  0  0  0  0  0  0  0  0  0
   44.5763   31.5443   37.8332 H   0  0  0  0  0  0  0  0  0  0  0  0
   43.7200   31.8135   36.5539 H   0  0  0  0  0  0  0  0  0  0  0  0
   46.3264   31.0620   35.1910 H   0  0  0  0  0  0  0  0  0  0  0  0
   47.1220   30.7434   38.3762 H   0  0  0  0  0  0  0  0  0  0  0  0
   45.5756   36.5634   42.2393 H   0  0  0  0  0  0  0  0  0  0  0  0
   43.9504   36.7972   44.1525 H   0  0  0  0  0  0  0  0  0  0  0  0
   45.6289   33.3374   45.9536 H   0  0  0  0  0  0  0  0  0  0  0  0
  1 10  1  0
  2  1  2  0
  3  4  2  0
  3  2  1  0
  4  5  1  0
  5  1  1  0
  6  7  1  0
  6  4  1  0
  8  6  1  0
  8  7  1  0
  8  9  1  0
 10 11  1  0
 11 13  1  0
 12 11  2  0
 13 18  1  0
 14 13  2  0
 14 15  1  0
 15 16  2  0
 16 17  1  0
 18 17  2  0
  2 19  1  0
  3 20  1  0
  6 21  1  6
  7 22  1  0
  7 23  1  0
  8 24  1  6
  9 25  1  0
 14 26  1  0
 15 27  1  0
 17 28  1  0
M  ISO  8  19  14  20  14  21  13  22  13  23  13  24  13  25  11  26  14
M  ISO  2  27  14  28  14
M  END
>  <minimizedAffinity>  (1) 
-4.39957666

>  <minimizedRMSD>  (1) 
0.0696852803

$$$$
