
     RDKit          3D

 44 47  0  0  1  0  0  0  0  0999 V2000
   47.5180   33.5270   40.8800 O   0  0  0  0  0  0  0  0  0  0  0  0
   47.5840   33.7110   39.4780 C   0  0  0  0  0  0  0  0  0  0  0  0
   48.4100   34.5230   38.6860 C   0  0  0  0  0  0  0  0  0  0  0  0
   48.0730   34.3390   37.3560 C   0  0  0  0  0  0  0  0  0  0  0  0
   47.0650   33.4320   37.4030 C   0  0  0  0  0  0  0  0  0  0  0  0
   46.7800   33.0650   38.6410 O   0  0  0  0  0  0  0  0  0  0  0  0
   46.3620   32.9130   36.2070 C   0  0  2  0  0  0  0  0  0  0  0  0
   46.2030   31.4760   35.9980 C   0  0  0  0  0  0  0  0  0  0  0  0
   47.2950   32.1380   35.2370 C   0  0  1  0  0  0  0  0  0  0  0  0
   48.0650   32.7260   32.9470 C   0  0  0  0  0  0  0  0  0  0  0  0
   49.2720   32.8210   33.3140 O   0  0  0  0  0  0  0  0  0  0  0  0
   47.0020   32.4200   33.8340 N   0  0  0  0  0  0  0  0  0  0  0  0
   47.5870   34.6610   41.7170 C   0  0  0  0  0  0  0  0  0  0  0  0
   48.4030   35.5660   41.3740 O   0  0  0  0  0  0  0  0  0  0  0  0
   46.7370   34.6690   42.8540 C   0  0  0  0  0  0  0  0  0  0  0  0
   45.6390   35.4630   42.7790 C   0  0  0  0  0  0  0  0  0  0  0  0
   44.7670   35.5140   43.8630 C   0  0  0  0  0  0  0  0  0  0  0  0
   45.0500   34.7750   44.9400 N   0  0  0  0  0  0  0  0  0  0  0  0
   46.1390   33.9960   44.9950 C   0  0  0  0  0  0  0  0  0  0  0  0
   46.9550   33.9670   43.9460 N   0  0  0  0  0  0  0  0  0  0  0  0
   45.2980   32.7660   46.9440 C   0  0  1  0  0  0  0  0  0  0  0  0
   46.5510   33.1300   46.1460 C   0  0  1  0  0  0  0  0  0  0  0  0
   46.9830   31.9030   45.6950 O   0  0  0  0  0  0  0  0  0  0  0  0
   46.8110   30.9860   46.7020 C   0  0  0  0  0  0  0  0  0  0  0  0
   45.7390   31.4860   47.6200 C   0  0  2  0  0  0  0  0  0  0  0  0
   44.9440   33.7480   47.8530 O   0  0  0  0  0  0  0  0  0  0  0  0
   44.6420   30.6200   47.6840 O   0  0  0  0  0  0  0  0  0  0  0  0
   49.1961   35.1952   39.0604 H   0  0  0  0  0  0  0  0  0  0  0  0
   48.5176   34.8157   36.4700 H   0  0  0  0  0  0  0  0  0  0  0  0
   45.6481   33.7494   36.1776 H   0  0  0  0  0  0  0  0  0  0  0  0
   46.4568   30.7808   36.8118 H   0  0  0  0  0  0  0  0  0  0  0  0
   45.3518   30.8444   35.7040 H   0  0  0  0  0  0  0  0  0  0  0  0
   48.3742   31.9646   35.1133 H   0  0  0  0  0  0  0  0  0  0  0  0
   47.8281   32.8892   31.8853 H   0  0  0  0  0  0  0  0  0  0  0  0
   46.0308   32.3967   33.4918 H   0  0  0  0  0  0  0  0  0  0  0  0
   45.4409   36.0576   41.8750 H   0  0  0  0  0  0  0  0  0  0  0  0
   43.8676   36.1467   43.8338 H   0  0  0  0  0  0  0  0  0  0  0  0
   44.3929   32.6585   46.3282 H   0  0  0  0  0  0  0  0  0  0  0  0
   47.3212   33.6739   46.7125 H   0  0  0  0  0  0  0  0  0  0  0  0
   46.5121   30.0173   46.2750 H   0  0  0  0  0  0  0  0  0  0  0  0
   47.7516   30.8537   47.2568 H   0  0  0  0  0  0  0  0  0  0  0  0
   46.1048   31.5949   48.6517 H   0  0  0  0  0  0  0  0  0  0  0  0
   45.0675   33.4055   48.7736 H   0  0  0  0  0  0  0  0  0  0  0  0
   44.4168   30.4422   48.6315 H   0  0  0  0  0  0  0  0  0  0  0  0
  1 13  1  0
  2  1  1  0
  3  2  2  0
  4  5  2  0
  4  3  1  0
  5  6  1  0
  6  2  1  0
  7  5  1  0
  8  7  1  0
  9  8  1  0
  9  7  1  0
 10 11  2  0
 10 12  1  0
 12  9  1  0
 13 15  1  0
 14 13  2  0
 15 20  1  0
 16 15  2  0
 16 17  1  0
 17 18  2  0
 18 19  1  0
 20 19  2  0
 21 25  1  0
 21 26  1  0
 22 19  1  0
 22 21  1  0
 23 22  1  0
 23 24  1  0
 24 25  1  0
 25 27  1  0
  3 28  1  0
  4 29  1  0
  7 30  1  6
  8 31  1  0
  8 32  1  0
  9 33  1  1
 10 34  1  0
 12 35  1  0
 16 36  1  0
 17 37  1  0
 21 38  1  6
 22 39  1  1
 24 40  1  0
 24 41  1  0
 25 42  1  1
 26 43  1  0
 27 44  1  0
M  ISO  8  28  14  29  14  30  13  31  13  32  13  33  13  34   6  36  14
M  ISO  8  37  14  38  13  39  13  40  13  41  13  42  13  43   3  44   3
M  END
>  <minimizedAffinity>  (1) 
-6.58510351

>  <minimizedRMSD>  (1) 
0.664984882

$$$$
