
     RDKit          3D

 41 44  0  0  1  0  0  0  0  0999 V2000
   47.3160   33.5410   40.9720 O   0  0  0  0  0  0  0  0  0  0  0  0
   47.4390   33.7140   39.5690 C   0  0  0  0  0  0  0  0  0  0  0  0
   48.3620   34.4250   38.7910 C   0  0  0  0  0  0  0  0  0  0  0  0
   48.0340   34.2700   37.4580 C   0  0  0  0  0  0  0  0  0  0  0  0
   46.9320   33.4770   37.4830 C   0  0  0  0  0  0  0  0  0  0  0  0
   46.5840   33.1520   38.7230 O   0  0  0  0  0  0  0  0  0  0  0  0
   46.2030   33.0290   36.2800 C   0  0  2  0  0  0  0  0  0  0  0  0
   45.8660   31.6220   36.0840 C   0  0  0  0  0  0  0  0  0  0  0  0
   47.0530   32.1260   35.3450 C   0  0  1  0  0  0  0  0  0  0  0  0
   47.9460   32.5970   33.0730 C   0  0  0  0  0  0  0  0  0  0  0  0
   49.1450   32.5820   33.4780 O   0  0  0  0  0  0  0  0  0  0  0  0
   46.8330   32.4190   33.9320 N   0  0  0  0  0  0  0  0  0  0  0  0
   47.4280   34.6820   41.8070 C   0  0  0  0  0  0  0  0  0  0  0  0
   48.2940   35.5390   41.4690 O   0  0  0  0  0  0  0  0  0  0  0  0
   46.5610   34.7380   42.9260 C   0  0  0  0  0  0  0  0  0  0  0  0
   45.5880   35.6840   42.8810 C   0  0  0  0  0  0  0  0  0  0  0  0
   44.7020   35.7940   43.9480 C   0  0  0  0  0  0  0  0  0  0  0  0
   44.8490   34.9540   44.9840 N   0  0  0  0  0  0  0  0  0  0  0  0
   45.8130   34.0290   45.0100 C   0  0  0  0  0  0  0  0  0  0  0  0
   46.6420   33.9550   43.9680 N   0  0  0  0  0  0  0  0  0  0  0  0
   44.3600   34.1790   47.3880 F   0  0  0  0  0  0  0  0  0  0  0  0
   45.2980   33.1950   47.2530 C   0  0  0  0  0  0  0  0  0  0  0  0
   46.0450   33.0770   46.0940 C   0  0  0  0  0  0  0  0  0  0  0  0
   46.9730   32.0570   46.0320 C   0  0  0  0  0  0  0  0  0  0  0  0
   47.1370   31.1960   47.0950 C   0  0  0  0  0  0  0  0  0  0  0  0
   46.3730   31.3450   48.2340 C   0  0  0  0  0  0  0  0  0  0  0  0
   45.4270   32.3500   48.3520 C   0  0  0  0  0  0  0  0  0  0  0  0
   49.2089   35.0106   39.1780 H   0  0  0  0  0  0  0  0  0  0  0  0
   48.5464   34.6911   36.5804 H   0  0  0  0  0  0  0  0  0  0  0  0
   45.6027   33.9489   36.2217 H   0  0  0  0  0  0  0  0  0  0  0  0
   46.0074   30.9127   36.9128 H   0  0  0  0  0  0  0  0  0  0  0  0
   44.9482   31.1005   35.7745 H   0  0  0  0  0  0  0  0  0  0  0  0
   48.1040   31.8149   35.2528 H   0  0  0  0  0  0  0  0  0  0  0  0
   47.7585   32.7561   32.0008 H   0  0  0  0  0  0  0  0  0  0  0  0
   45.8750   32.4959   33.5617 H   0  0  0  0  0  0  0  0  0  0  0  0
   45.5015   36.3541   42.0130 H   0  0  0  0  0  0  0  0  0  0  0  0
   43.9024   36.5494   43.9425 H   0  0  0  0  0  0  0  0  0  0  0  0
   47.5860   31.9307   45.1274 H   0  0  0  0  0  0  0  0  0  0  0  0
   47.8798   30.3869   47.0353 H   0  0  0  0  0  0  0  0  0  0  0  0
   46.5190   30.6467   49.0713 H   0  0  0  0  0  0  0  0  0  0  0  0
   44.8155   32.4729   49.2580 H   0  0  0  0  0  0  0  0  0  0  0  0
  1 13  1  0
  2  1  1  0
  3  2  2  0
  4  5  2  0
  4  3  1  0
  5  6  1  0
  6  2  1  0
  7  5  1  0
  8  7  1  0
  9  8  1  0
  9  7  1  0
 10 11  2  0
 10 12  1  0
 12  9  1  0
 13 15  1  0
 14 13  2  0
 15 20  1  0
 16 15  2  0
 16 17  1  0
 17 18  2  0
 18 19  1  0
 19 23  1  0
 20 19  2  0
 22 21  1  0
 22 27  2  0
 23 22  1  0
 24 23  2  0
 24 25  1  0
 25 26  2  0
 26 27  1  0
  3 28  1  0
  4 29  1  0
  7 30  1  6
  8 31  1  0
  8 32  1  0
  9 33  1  1
 10 34  1  0
 12 35  1  0
 16 36  1  0
 17 37  1  0
 24 38  1  0
 25 39  1  0
 26 40  1  0
 27 41  1  0
M  ISO  8  28  14  29  14  30  13  31  13  32  13  33  13  34   6  36  14
M  ISO  5  37  14  38  14  39  14  40  14  41  14
M  END
>  <minimizedAffinity>  (1) 
-6.58433485

>  <minimizedRMSD>  (1) 
0.493566483

$$$$
