
     RDKit          3D

 45 48  0  0  1  0  0  0  0  0999 V2000
   47.2850   33.3400   41.4130 O   0  0  0  0  0  0  0  0  0  0  0  0
   47.4280   33.5910   40.0240 C   0  0  0  0  0  0  0  0  0  0  0  0
   48.3770   34.3260   39.3020 C   0  0  0  0  0  0  0  0  0  0  0  0
   48.0570   34.2550   37.9580 C   0  0  0  0  0  0  0  0  0  0  0  0
   46.9380   33.4860   37.9200 C   0  0  0  0  0  0  0  0  0  0  0  0
   46.5780   33.1030   39.1290 O   0  0  0  0  0  0  0  0  0  0  0  0
   46.2030   33.1160   36.6870 C   0  0  2  0  0  0  0  0  0  0  0  0
   45.7400   31.7440   36.4840 C   0  0  0  0  0  0  0  0  0  0  0  0
   46.9890   32.1340   35.7820 C   0  0  1  0  0  0  0  0  0  0  0  0
   48.0210   32.4730   33.5510 C   0  0  0  0  0  0  0  0  0  0  0  0
   49.1930   32.3210   34.0000 O   0  0  0  0  0  0  0  0  0  0  0  0
   46.8590   32.4620   34.3640 N   0  0  0  0  0  0  0  0  0  0  0  0
   47.2600   34.4510   42.2920 C   0  0  0  0  0  0  0  0  0  0  0  0
   47.8020   35.5150   41.8780 O   0  0  0  0  0  0  0  0  0  0  0  0
   46.6280   34.2440   43.5490 C   0  0  0  0  0  0  0  0  0  0  0  0
   45.5930   35.0760   43.8360 C   0  0  0  0  0  0  0  0  0  0  0  0
   44.9270   34.9310   45.0500 C   0  0  0  0  0  0  0  0  0  0  0  0
   45.3360   33.9680   45.8930 N   0  0  0  0  0  0  0  0  0  0  0  0
   46.3630   33.1550   45.5890 C   0  0  0  0  0  0  0  0  0  0  0  0
   46.9750   33.3250   44.4190 N   0  0  0  0  0  0  0  0  0  0  0  0
   46.9020   32.0610   46.4390 C   0  0  0  0  0  0  0  0  0  0  0  0
   47.1910   32.5240   47.8400 C   0  0  0  0  0  0  0  0  0  0  0  0
   46.0350   32.2730   48.7650 C   0  0  0  0  0  0  0  0  0  0  0  0
   45.8340   30.9060   48.9180 O   0  0  0  0  0  0  0  0  0  0  0  0
   46.1790   30.1660   47.8050 C   0  0  0  0  0  0  0  0  0  0  0  0
   45.9200   30.9260   46.5160 C   0  0  0  0  0  0  0  0  0  0  0  0
   49.2324   34.8682   39.7313 H   0  0  0  0  0  0  0  0  0  0  0  0
   48.5880   34.7164   37.1124 H   0  0  0  0  0  0  0  0  0  0  0  0
   45.6976   34.0897   36.6068 H   0  0  0  0  0  0  0  0  0  0  0  0
   45.7898   31.0281   37.3177 H   0  0  0  0  0  0  0  0  0  0  0  0
   44.7874   31.3084   36.1483 H   0  0  0  0  0  0  0  0  0  0  0  0
   48.0037   31.7136   35.7210 H   0  0  0  0  0  0  0  0  0  0  0  0
   47.8954   32.6222   32.4684 H   0  0  0  0  0  0  0  0  0  0  0  0
   45.9370   32.6820   33.9609 H   0  0  0  0  0  0  0  0  0  0  0  0
   45.2858   35.8525   43.1200 H   0  0  0  0  0  0  0  0  0  0  0  0
   44.0858   35.5893   45.3128 H   0  0  0  0  0  0  0  0  0  0  0  0
   47.8411   31.7320   45.9702 H   0  0  0  0  0  0  0  0  0  0  0  0
   48.0719   31.9843   48.2178 H   0  0  0  0  0  0  0  0  0  0  0  0
   47.3721   33.6085   47.8089 H   0  0  0  0  0  0  0  0  0  0  0  0
   46.2502   32.7212   49.7462 H   0  0  0  0  0  0  0  0  0  0  0  0
   45.1275   32.7249   48.3381 H   0  0  0  0  0  0  0  0  0  0  0  0
   47.2488   29.9165   47.8617 H   0  0  0  0  0  0  0  0  0  0  0  0
   45.5593   29.2572   47.7948 H   0  0  0  0  0  0  0  0  0  0  0  0
   44.8932   31.3205   46.5154 H   0  0  0  0  0  0  0  0  0  0  0  0
   46.0391   30.2591   45.6494 H   0  0  0  0  0  0  0  0  0  0  0  0
  1 13  1  0
  2  1  1  0
  3  2  2  0
  4  3  1  0
  5  4  2  0
  5  6  1  0
  6  2  1  0
  7  5  1  0
  8  7  1  0
  9  8  1  0
  9  7  1  0
 10 11  2  0
 10 12  1  0
 12  9  1  0
 13 15  1  0
 14 13  2  0
 15 16  2  0
 15 20  1  0
 16 17  1  0
 17 18  2  0
 19 18  1  0
 19 21  1  0
 20 19  2  0
 21 26  1  0
 21 22  1  0
 22 23  1  0
 23 24  1  0
 25 24  1  0
 26 25  1  0
  3 27  1  0
  4 28  1  0
  7 29  1  6
  8 30  1  0
  8 31  1  0
  9 32  1  1
 10 33  1  0
 12 34  1  0
 16 35  1  0
 17 36  1  0
 21 37  1  0
 22 38  1  0
 22 39  1  0
 23 40  1  0
 23 41  1  0
 25 42  1  0
 25 43  1  0
 26 44  1  0
 26 45  1  0
M  ISO  8  27  14  28  14  29  13  30  13  31  13  32  13  33   6  35  14
M  ISO  8  36  14  37  13  38  13  39  13  40  13  41  13  42  13  43  13
M  ISO  2  44  13  45  13
M  END
>  <minimizedAffinity>  (1) 
-5.83480358

>  <minimizedRMSD>  (1) 
1.14382172

$$$$
