
     RDKit          3D

 35 37  0  0  1  0  0  0  0  0999 V2000
   47.1410   33.6980   39.8700 C   0  0  0  0  0  0  0  0  0  0  0  0
   48.1870   34.2970   39.1530 C   0  0  0  0  0  0  0  0  0  0  0  0
   47.9510   34.1300   37.8020 C   0  0  0  0  0  0  0  0  0  0  0  0
   46.7830   33.4420   37.7550 C   0  0  0  0  0  0  0  0  0  0  0  0
   46.3120   33.1900   38.9670 O   0  0  0  0  0  0  0  0  0  0  0  0
   46.1080   33.0200   36.5090 C   0  0  2  0  0  0  0  0  0  0  0  0
   45.7840   31.6130   36.2790 C   0  0  0  0  0  0  0  0  0  0  0  0
   46.9970   32.1330   35.5970 C   0  0  1  0  0  0  0  0  0  0  0  0
   47.9980   32.6250   33.3790 C   0  0  0  0  0  0  0  0  0  0  0  0
   49.1780   32.6010   33.8370 O   0  0  0  0  0  0  0  0  0  0  0  0
   46.8420   32.4570   34.1830 N   0  0  0  0  0  0  0  0  0  0  0  0
   46.8890   33.5800   41.2590 O   0  0  0  0  0  0  0  0  0  0  0  0
   47.1660   34.6980   42.0940 C   0  0  0  0  0  0  0  0  0  0  0  0
   48.1410   35.4010   41.7680 O   0  0  0  0  0  0  0  0  0  0  0  0
   46.2850   34.8650   43.2010 C   0  0  0  0  0  0  0  0  0  0  0  0
   45.3980   35.9030   43.0830 C   0  0  0  0  0  0  0  0  0  0  0  0
   44.4970   36.1340   44.1320 C   0  0  0  0  0  0  0  0  0  0  0  0
   44.5370   35.3340   45.2010 N   0  0  0  0  0  0  0  0  0  0  0  0
   45.4280   34.3200   45.2810 C   0  0  0  0  0  0  0  0  0  0  0  0
   46.2740   34.1150   44.2810 N   0  0  0  0  0  0  0  0  0  0  0  0
   46.2280   32.2340   46.2610 C   0  0  0  0  0  0  0  0  0  0  0  0
   46.8190   31.8750   45.1980 O   0  0  0  0  0  0  0  0  0  0  0  0
   45.4980   33.4480   46.4060 N   0  0  0  0  0  0  0  0  0  0  0  0
   49.0522   34.8142   39.5934 H   0  0  0  0  0  0  0  0  0  0  0  0
   48.5678   34.4752   36.9592 H   0  0  0  0  0  0  0  0  0  0  0  0
   45.5118   33.9416   36.4368 H   0  0  0  0  0  0  0  0  0  0  0  0
   45.8947   30.8919   37.1022 H   0  0  0  0  0  0  0  0  0  0  0  0
   44.8818   31.0926   35.9252 H   0  0  0  0  0  0  0  0  0  0  0  0
   48.0503   31.8206   35.5424 H   0  0  0  0  0  0  0  0  0  0  0  0
   47.8621   32.7848   32.2992 H   0  0  0  0  0  0  0  0  0  0  0  0
   45.9030   32.5626   33.7731 H   0  0  0  0  0  0  0  0  0  0  0  0
   45.3931   36.5400   42.1862 H   0  0  0  0  0  0  0  0  0  0  0  0
   43.7709   36.9584   44.0758 H   0  0  0  0  0  0  0  0  0  0  0  0
   46.2830   31.5620   47.1301 H   0  0  0  0  0  0  0  0  0  0  0  0
   45.0358   33.6880   47.2947 H   0  0  0  0  0  0  0  0  0  0  0  0
  1 12  1  0
  2  1  2  0
  3  2  1  0
  4  3  2  0
  4  5  1  0
  5  1  1  0
  6  4  1  0
  7  6  1  0
  8  7  1  0
  8  6  1  0
  9 10  2  0
  9 11  1  0
 11  8  1  0
 12 13  1  0
 13 15  1  0
 14 13  2  0
 15 20  1  0
 16 15  2  0
 16 17  1  0
 17 18  2  0
 18 19  1  0
 19 23  1  0
 20 19  2  0
 21 23  1  0
 22 21  2  0
  2 24  1  0
  3 25  1  0
  6 26  1  6
  7 27  1  0
  7 28  1  0
  8 29  1  1
  9 30  1  0
 11 31  1  0
 16 32  1  0
 17 33  1  0
 21 34  1  0
 23 35  1  0
M  ISO  8  24  14  25  14  26  13  27  13  28  13  29  13  30   6  32  14
M  ISO  2  33  14  34   6
M  END
>  <minimizedAffinity>  (1) 
-5.7695055

>  <minimizedRMSD>  (1) 
0.297470778

$$$$
