
     RDKit          3D

 38 41  0  0  0  0  0  0  0  0999 V2000
   45.7020   31.7600   47.1470 C   0  0  0  0  0  0  0  0  0  0  0  0
   45.8180   32.2010   48.4570 C   0  0  0  0  0  0  0  0  0  0  0  0
   45.5700   31.3960   49.5470 C   0  0  0  0  0  0  0  0  0  0  0  0
   45.1870   30.0860   49.2930 C   0  0  0  0  0  0  0  0  0  0  0  0
   45.0680   29.6390   47.9860 C   0  0  0  0  0  0  0  0  0  0  0  0
   45.3290   30.4900   46.9900 N   0  0  0  0  0  0  0  0  0  0  0  0
   44.8100   36.5500   43.5700 C   0  0  0  0  0  0  0  0  0  0  0  0
   45.7600   36.2460   42.5960 C   0  0  0  0  0  0  0  0  0  0  0  0
   46.4530   35.0480   42.7240 C   0  0  0  0  0  0  0  0  0  0  0  0
   46.1830   34.2240   43.7860 N   0  0  0  0  0  0  0  0  0  0  0  0
   45.2530   34.5650   44.7020 C   0  0  0  0  0  0  0  0  0  0  0  0
   44.5540   35.7300   44.6090 N   0  0  0  0  0  0  0  0  0  0  0  0
   45.9770   32.6560   46.0270 C   0  0  0  0  0  0  0  0  0  0  0  0
   47.0170   32.4960   45.3420 O   0  0  0  0  0  0  0  0  0  0  0  0
   45.0060   33.6850   45.7820 N   0  0  0  0  0  0  0  0  0  0  0  0
   44.6700   28.2730   47.6800 C   0  0  0  0  0  0  0  0  0  0  0  0
   44.8530   27.1850   48.5060 C   0  0  0  0  0  0  0  0  0  0  0  0
   44.4550   25.9100   48.1680 C   0  0  0  0  0  0  0  0  0  0  0  0
   43.8420   25.6660   46.9560 C   0  0  0  0  0  0  0  0  0  0  0  0
   43.4700   24.4130   46.6640 N   0  0  0  0  0  0  0  0  0  0  0  0
   42.8590   24.1000   45.4840 C   0  0  0  0  0  0  0  0  0  0  0  0
   42.6490   25.1710   44.6080 C   0  0  0  0  0  0  0  0  0  0  0  0
   43.0250   26.4810   44.8870 C   0  0  0  0  0  0  0  0  0  0  0  0
   43.6380   26.7250   46.0970 C   0  0  0  0  0  0  0  0  0  0  0  0
   44.0530   27.9810   46.4820 C   0  0  0  0  0  0  0  0  0  0  0  0
   46.1225   33.2431   48.6339 H   0  0  0  0  0  0  0  0  0  0  0  0
   45.6711   31.7750   50.5747 H   0  0  0  0  0  0  0  0  0  0  0  0
   44.9779   29.4024   50.1290 H   0  0  0  0  0  0  0  0  0  0  0  0
   44.2492   37.4927   43.4878 H   0  0  0  0  0  0  0  0  0  0  0  0
   45.9541   36.9297   41.7564 H   0  0  0  0  0  0  0  0  0  0  0  0
   47.2114   34.7635   41.9798 H   0  0  0  0  0  0  0  0  0  0  0  0
   44.1644   33.7786   46.3683 H   0  0  0  0  0  0  0  0  0  0  0  0
   45.3393   27.3418   49.4801 H   0  0  0  0  0  0  0  0  0  0  0  0
   44.6272   25.0804   48.8695 H   0  0  0  0  0  0  0  0  0  0  0  0
   42.5518   23.0729   45.2378 H   0  0  0  0  0  0  0  0  0  0  0  0
   42.1591   24.9655   43.6448 H   0  0  0  0  0  0  0  0  0  0  0  0
   42.8398   27.2926   44.1680 H   0  0  0  0  0  0  0  0  0  0  0  0
   43.8794   28.8119   45.7823 H   0  0  0  0  0  0  0  0  0  0  0  0
  1  2  2  0
  2  3  1  0
  4  3  2  0
  5  4  1  0
  6  1  1  0
  6  5  2  0
  7 12  2  0
  8  9  2  0
  8  7  1  0
  9 10  1  0
 10 11  2  0
 11 15  1  0
 12 11  1  0
 13  1  1  0
 14 13  2  0
 15 13  1  0
 16  5  1  0
 16 17  2  0
 18 17  1  0
 19 18  2  0
 20 19  1  0
 21 20  2  0
 22 23  2  0
 22 21  1  0
 23 24  1  0
 24 25  2  0
 24 19  1  0
 25 16  1  0
  2 26  1  0
  3 27  1  0
  4 28  1  0
  7 29  1  0
  8 30  1  0
  9 31  1  0
 15 32  1  0
 17 33  1  0
 18 34  1  0
 21 35  1  0
 22 36  1  0
 23 37  1  0
 25 38  1  0
M  ISO  8  26  14  27  14  28  14  29  14  30  14  31  14  33  14  34  14
M  ISO  4  35  14  36  14  37  14  38  14
M  END
>  <minimizedAffinity>  (1) 
-6.07289791

>  <minimizedRMSD>  (1) 
1.79749441

$$$$
