
     RDKit          3D

 33 35  0  0  1  0  0  0  0  0999 V2000
   47.3070   33.7140   39.8290 C   0  0  0  0  0  0  0  0  0  0  0  0
   48.2990   34.3620   39.0770 C   0  0  0  0  0  0  0  0  0  0  0  0
   48.0070   34.2030   37.7400 C   0  0  0  0  0  0  0  0  0  0  0  0
   46.8630   33.4740   37.7270 C   0  0  0  0  0  0  0  0  0  0  0  0
   46.4520   33.1860   38.9560 O   0  0  0  0  0  0  0  0  0  0  0  0
   46.1420   33.0410   36.5030 C   0  0  2  0  0  0  0  0  0  0  0  0
   45.7970   31.6310   36.3150 C   0  0  0  0  0  0  0  0  0  0  0  0
   46.9960   32.1270   35.5890 C   0  0  1  0  0  0  0  0  0  0  0  0
   47.9760   32.6100   33.3640 C   0  0  0  0  0  0  0  0  0  0  0  0
   49.1560   32.6210   33.8200 O   0  0  0  0  0  0  0  0  0  0  0  0
   46.8230   32.4400   34.1720 N   0  0  0  0  0  0  0  0  0  0  0  0
   47.1120   33.5630   41.2280 O   0  0  0  0  0  0  0  0  0  0  0  0
   47.2760   34.7180   42.0440 C   0  0  0  0  0  0  0  0  0  0  0  0
   48.2010   35.5220   41.7250 O   0  0  0  0  0  0  0  0  0  0  0  0
   46.3760   34.8420   43.1370 C   0  0  0  0  0  0  0  0  0  0  0  0
   45.5390   35.9110   43.0970 C   0  0  0  0  0  0  0  0  0  0  0  0
   44.6290   36.1010   44.1300 C   0  0  0  0  0  0  0  0  0  0  0  0
   44.6170   35.2110   45.1320 N   0  0  0  0  0  0  0  0  0  0  0  0
   45.4510   34.1600   45.1550 C   0  0  0  0  0  0  0  0  0  0  0  0
   46.3050   34.0160   44.1480 N   0  0  0  0  0  0  0  0  0  0  0  0
   45.4900   33.1790   46.1860 N   0  0  0  0  0  0  0  0  0  0  0  0
   49.1637   34.9052   39.4860 H   0  0  0  0  0  0  0  0  0  0  0  0
   48.5741   34.5820   36.8770 H   0  0  0  0  0  0  0  0  0  0  0  0
   45.5539   33.9673   36.4253 H   0  0  0  0  0  0  0  0  0  0  0  0
   45.9240   30.9274   37.1509 H   0  0  0  0  0  0  0  0  0  0  0  0
   44.8809   31.1109   35.9984 H   0  0  0  0  0  0  0  0  0  0  0  0
   48.0415   31.7937   35.5120 H   0  0  0  0  0  0  0  0  0  0  0  0
   47.8366   32.7395   32.2806 H   0  0  0  0  0  0  0  0  0  0  0  0
   45.8806   32.5354   33.7674 H   0  0  0  0  0  0  0  0  0  0  0  0
   45.5810   36.6187   42.2560 H   0  0  0  0  0  0  0  0  0  0  0  0
   43.9384   36.9572   44.1254 H   0  0  0  0  0  0  0  0  0  0  0  0
   46.1614   32.3999   46.1304 H   0  0  0  0  0  0  0  0  0  0  0  0
   44.8468   33.2484   46.9875 H   0  0  0  0  0  0  0  0  0  0  0  0
  1 12  1  0
  2  1  2  0
  3  2  1  0
  4  3  2  0
  4  5  1  0
  5  1  1  0
  6  4  1  0
  7  6  1  0
  8  7  1  0
  8  6  1  0
  9 10  2  0
  9 11  1  0
 11  8  1  0
 12 13  1  0
 13 15  1  0
 14 13  2  0
 15 20  1  0
 16 15  2  0
 16 17  1  0
 17 18  2  0
 18 19  1  0
 19 21  1  0
 20 19  2  0
  2 22  1  0
  3 23  1  0
  6 24  1  6
  7 25  1  0
  7 26  1  0
  8 27  1  1
  9 28  1  0
 11 29  1  0
 16 30  1  0
 17 31  1  0
 21 32  1  0
 21 33  1  0
M  ISO  8  22  14  23  14  24  13  25  13  26  13  27  13  28   6  30  14
M  ISO  1  31  14
M  END
>  <minimizedAffinity>  (1) 
-5.33621883

>  <minimizedRMSD>  (1) 
0.159007877

$$$$
