
     RDKit          3D

 37 39  0  0  1  0  0  0  0  0999 V2000
   47.3550   33.7050   39.7840 C   0  0  0  0  0  0  0  0  0  0  0  0
   48.3010   34.4090   39.0270 C   0  0  0  0  0  0  0  0  0  0  0  0
   48.0210   34.2320   37.6860 C   0  0  0  0  0  0  0  0  0  0  0  0
   46.9230   33.4330   37.6900 C   0  0  0  0  0  0  0  0  0  0  0  0
   46.5330   33.1250   38.9120 O   0  0  0  0  0  0  0  0  0  0  0  0
   46.2420   32.9650   36.4610 C   0  0  2  0  0  0  0  0  0  0  0  0
   46.0160   31.5380   36.2360 C   0  0  0  0  0  0  0  0  0  0  0  0
   47.1640   32.1470   35.5200 C   0  0  1  0  0  0  0  0  0  0  0  0
   48.0550   32.6360   33.2490 C   0  0  0  0  0  0  0  0  0  0  0  0
   49.2540   32.6040   33.6520 O   0  0  0  0  0  0  0  0  0  0  0  0
   46.9420   32.4460   34.1090 N   0  0  0  0  0  0  0  0  0  0  0  0
   47.1820   33.5510   41.1820 O   0  0  0  0  0  0  0  0  0  0  0  0
   47.3310   34.7010   42.0100 C   0  0  0  0  0  0  0  0  0  0  0  0
   48.2390   35.5180   41.6770 O   0  0  0  0  0  0  0  0  0  0  0  0
   46.4450   34.7960   43.1150 C   0  0  0  0  0  0  0  0  0  0  0  0
   45.5170   35.7840   43.0440 C   0  0  0  0  0  0  0  0  0  0  0  0
   44.6140   35.9380   44.0920 C   0  0  0  0  0  0  0  0  0  0  0  0
   44.6980   35.1010   45.1320 N   0  0  0  0  0  0  0  0  0  0  0  0
   45.6250   34.1310   45.1840 C   0  0  0  0  0  0  0  0  0  0  0  0
   46.4710   34.0150   44.1630 N   0  0  0  0  0  0  0  0  0  0  0  0
   45.6350   33.2530   46.3840 C   0  0  0  0  0  0  0  0  0  0  0  0
   46.9180   32.4520   46.4560 C   0  0  0  0  0  0  0  0  0  0  0  0
   49.1310   35.0052   39.4341 H   0  0  0  0  0  0  0  0  0  0  0  0
   48.5603   34.6417   36.8192 H   0  0  0  0  0  0  0  0  0  0  0  0
   45.5783   33.8408   36.4100 H   0  0  0  0  0  0  0  0  0  0  0  0
   46.2053   30.8259   37.0528 H   0  0  0  0  0  0  0  0  0  0  0  0
   45.1443   30.9526   35.9082 H   0  0  0  0  0  0  0  0  0  0  0  0
   48.2368   31.9198   35.4336 H   0  0  0  0  0  0  0  0  0  0  0  0
   47.8662   32.8199   32.1810 H   0  0  0  0  0  0  0  0  0  0  0  0
   45.9833   32.5187   33.7394 H   0  0  0  0  0  0  0  0  0  0  0  0
   45.4791   36.4528   42.1715 H   0  0  0  0  0  0  0  0  0  0  0  0
   43.8499   36.7288   44.0656 H   0  0  0  0  0  0  0  0  0  0  0  0
   45.5478   33.8756   47.2867 H   0  0  0  0  0  0  0  0  0  0  0  0
   44.7878   32.5547   46.3160 H   0  0  0  0  0  0  0  0  0  0  0  0
   47.1868   32.2842   47.5094 H   0  0  0  0  0  0  0  0  0  0  0  0
   46.7740   31.4831   45.9555 H   0  0  0  0  0  0  0  0  0  0  0  0
   47.7252   33.0068   45.9555 H   0  0  0  0  0  0  0  0  0  0  0  0
  1 12  1  0
  2  1  2  0
  3  4  2  0
  3  2  1  0
  4  5  1  0
  5  1  1  0
  6  4  1  0
  7  6  1  0
  8  7  1  0
  8  6  1  0
  9 10  2  0
  9 11  1  0
 11  8  1  0
 12 13  1  0
 13 15  1  0
 14 13  2  0
 15 20  1  0
 16 15  2  0
 16 17  1  0
 17 18  2  0
 18 19  1  0
 19 21  1  0
 20 19  2  0
 21 22  1  0
  2 23  1  0
  3 24  1  0
  6 25  1  6
  7 26  1  0
  7 27  1  0
  8 28  1  1
  9 29  1  0
 11 30  1  0
 16 31  1  0
 17 32  1  0
 21 33  1  0
 21 34  1  0
 22 35  1  0
 22 36  1  0
 22 37  1  0
M  ISO  8  23  14  24  14  25  13  26  13  27  13  28  13  29   6  31  14
M  ISO  6  32  14  33   8  34   8  35   8  36   8  37   8
M  END
>  <minimizedAffinity>  (1) 
-5.27715778

>  <minimizedRMSD>  (1) 
0.0830598846

$$$$
