
     RDKit          3D

 24 26  0  0  0  0  0  0  0  0999 V2000
   44.8790   35.9840   43.8430 C   0  0  0  0  0  0  0  0  0  0  0  0
   44.6230   35.4040   42.5910 C   0  0  0  0  0  0  0  0  0  0  0  0
   44.7000   33.9910   42.5220 C   0  0  0  0  0  0  0  0  0  0  0  0
   45.0080   33.2910   43.6310 N   0  0  0  0  0  0  0  0  0  0  0  0
   45.2450   33.9000   44.8120 C   0  0  0  0  0  0  0  0  0  0  0  0
   45.1800   35.2450   44.9140 N   0  0  0  0  0  0  0  0  0  0  0  0
   45.5750   33.2350   46.0270 N   0  0  0  0  0  0  0  0  0  0  0  0
   45.0590   33.5840   47.2240 C   0  0  0  0  0  0  0  0  0  0  0  0
   45.5370   32.7900   48.2190 N   0  0  0  0  0  0  0  0  0  0  0  0
   46.3830   31.9060   47.6450 C   0  0  0  0  0  0  0  0  0  0  0  0
   47.1550   30.8770   48.1190 C   0  0  0  0  0  0  0  0  0  0  0  0
   47.8920   30.1910   47.2410 N   0  0  0  0  0  0  0  0  0  0  0  0
   47.8860   30.4910   45.9280 C   0  0  0  0  0  0  0  0  0  0  0  0
   47.1460   31.4920   45.4160 N   0  0  0  0  0  0  0  0  0  0  0  0
   46.4000   32.1910   46.2800 C   0  0  0  0  0  0  0  0  0  0  0  0
   47.1270   30.6030   49.4930 N   0  0  0  0  0  0  0  0  0  0  0  0
   44.8070   37.3530   43.9240 O   0  0  0  0  0  0  0  0  0  0  0  0
   44.3756   36.0142   41.7098 H   0  0  0  0  0  0  0  0  0  0  0  0
   44.5101   33.4704   41.5718 H   0  0  0  0  0  0  0  0  0  0  0  0
   44.3434   34.4056   47.3754 H   0  0  0  0  0  0  0  0  0  0  0  0
   48.5107   29.8943   45.2470 H   0  0  0  0  0  0  0  0  0  0  0  0
   47.6970   29.8357   49.8769 H   0  0  0  0  0  0  0  0  0  0  0  0
   46.5365   31.1689   50.1191 H   0  0  0  0  0  0  0  0  0  0  0  0
   44.5825   37.8853   43.1200 H   0  0  0  0  0  0  0  0  0  0  0  0
  1 17  1  0
  1  6  2  0
  2  1  1  0
  3  2  2  0
  3  4  1  0
  4  5  2  0
  5  6  1  0
  5  7  1  0
  7 15  1  0
  7  8  1  0
  8  9  2  0
 10 11  2  0
 10  9  1  0
 11 16  1  0
 12 11  1  0
 13 12  2  0
 14 13  1  0
 14 15  2  0
 15 10  1  0
  2 18  1  0
  3 19  1  0
  8 20  1  0
 13 21  1  0
 16 22  1  0
 16 23  1  0
 17 24  1  0
M  ISO  5  18  14  19  14  20  14  21  14  24   3
M  END
>  <minimizedAffinity>  (1) 
-5.47623968

>  <minimizedRMSD>  (1) 
2.39141607

$$$$
