
     RDKit          3D

 26 27  0  0  0  0  0  0  0  0999 V2000
   44.9360   35.0320   44.5000 C   0  0  0  0  0  0  0  0  0  0  0  0
   45.8500   34.7150   43.4670 C   0  0  0  0  0  0  0  0  0  0  0  0
   46.8300   33.7510   43.7470 C   0  0  0  0  0  0  0  0  0  0  0  0
   46.8500   33.1830   44.9690 N   0  0  0  0  0  0  0  0  0  0  0  0
   45.9560   33.5130   45.9350 C   0  0  0  0  0  0  0  0  0  0  0  0
   45.0170   34.4260   45.6930 N   0  0  0  0  0  0  0  0  0  0  0  0
   46.0900   32.8380   47.1810 N   0  0  0  0  0  0  0  0  0  0  0  0
   44.9350   32.5960   47.9970 C   0  0  0  0  0  0  0  0  0  0  0  0
   44.9550   31.2920   48.7290 C   0  0  0  0  0  0  0  0  0  0  0  0
   46.2900   30.6460   48.8320 C   0  0  0  0  0  0  0  0  0  0  0  0
   47.4580   31.5820   48.7980 C   0  0  0  0  0  0  0  0  0  0  0  0
   47.4060   32.4220   47.5690 C   0  0  0  0  0  0  0  0  0  0  0  0
   43.9790   35.9760   44.2240 O   0  0  0  0  0  0  0  0  0  0  0  0
   45.7942   35.2050   42.4837 H   0  0  0  0  0  0  0  0  0  0  0  0
   47.5682   33.4641   42.9836 H   0  0  0  0  0  0  0  0  0  0  0  0
   44.8626   33.4052   48.7386 H   0  0  0  0  0  0  0  0  0  0  0  0
   44.0725   32.5589   47.3153 H   0  0  0  0  0  0  0  0  0  0  0  0
   44.5823   31.4681   49.7488 H   0  0  0  0  0  0  0  0  0  0  0  0
   44.3263   30.6037   48.1450 H   0  0  0  0  0  0  0  0  0  0  0  0
   46.3267   30.0911   49.7811 H   0  0  0  0  0  0  0  0  0  0  0  0
   46.3874   30.0056   47.9430 H   0  0  0  0  0  0  0  0  0  0  0  0
   47.4288   32.2324   49.6846 H   0  0  0  0  0  0  0  0  0  0  0  0
   48.3888   30.9958   48.7940 H   0  0  0  0  0  0  0  0  0  0  0  0
   47.8404   31.8435   46.7403 H   0  0  0  0  0  0  0  0  0  0  0  0
   47.9666   33.3404   47.7974 H   0  0  0  0  0  0  0  0  0  0  0  0
   43.9484   36.4036   43.3316 H   0  0  0  0  0  0  0  0  0  0  0  0
  1  6  2  0
  2  3  2  0
  2  1  1  0
  3  4  1  0
  4  5  2  0
  5  7  1  0
  6  5  1  0
  7 12  1  0
  7  8  1  0
  8  9  1  0
  9 10  1  0
 11 10  1  0
 12 11  1  0
 13  1  1  0
  2 14  1  0
  3 15  1  0
  8 16  1  0
  8 17  1  0
  9 18  1  0
  9 19  1  0
 10 20  1  0
 10 21  1  0
 11 22  1  0
 11 23  1  0
 12 24  1  0
 12 25  1  0
 13 26  1  0
M  ISO  8  14  14  15  14  16  13  17  13  18  13  19  13  20  13  21  13
M  ISO  5  22  13  23  13  24  13  25  13  26   3
M  END
>  <minimizedAffinity>  (1) 
-5.07971764

>  <minimizedRMSD>  (1) 
0.986819923

$$$$
