
     RDKit          3D

 37 40  0  0  0  0  0  0  0  0999 V2000
   45.7090   31.6950   47.1050 C   0  0  0  0  0  0  0  0  0  0  0  0
   45.8890   32.0980   48.4230 C   0  0  0  0  0  0  0  0  0  0  0  0
   45.6530   31.2510   49.4960 C   0  0  0  0  0  0  0  0  0  0  0  0
   45.2300   29.9760   49.2220 C   0  0  0  0  0  0  0  0  0  0  0  0
   45.0500   29.5710   47.9070 C   0  0  0  0  0  0  0  0  0  0  0  0
   45.2890   30.4230   46.9070 N   0  0  0  0  0  0  0  0  0  0  0  0
   44.7660   36.5850   43.6780 C   0  0  0  0  0  0  0  0  0  0  0  0
   45.7130   36.3100   42.6810 C   0  0  0  0  0  0  0  0  0  0  0  0
   46.4120   35.1120   42.7760 C   0  0  0  0  0  0  0  0  0  0  0  0
   46.1530   34.2670   43.8200 N   0  0  0  0  0  0  0  0  0  0  0  0
   45.2370   34.5710   44.7520 C   0  0  0  0  0  0  0  0  0  0  0  0
   44.5350   35.7330   44.6900 N   0  0  0  0  0  0  0  0  0  0  0  0
   45.9690   32.6210   46.0020 C   0  0  0  0  0  0  0  0  0  0  0  0
   46.9960   32.4670   45.2870 O   0  0  0  0  0  0  0  0  0  0  0  0
   45.0010   33.6660   45.8150 N   0  0  0  0  0  0  0  0  0  0  0  0
   44.7360   27.2280   48.4930 C   0  0  0  0  0  0  0  0  0  0  0  0
   44.6020   28.2310   47.5580 C   0  0  0  0  0  0  0  0  0  0  0  0
   44.0460   27.8720   46.3500 C   0  0  0  0  0  0  0  0  0  0  0  0
   43.6280   26.6100   46.0300 C   0  0  0  0  0  0  0  0  0  0  0  0
   43.0680   26.0960   44.9030 N   0  0  0  0  0  0  0  0  0  0  0  0
   42.8490   24.7870   45.1220 C   0  0  0  0  0  0  0  0  0  0  0  0
   43.2700   24.4500   46.3950 C   0  0  0  0  0  0  0  0  0  0  0  0
   43.7670   25.6120   46.9770 C   0  0  0  0  0  0  0  0  0  0  0  0
   44.3200   25.9260   48.2050 C   0  0  0  0  0  0  0  0  0  0  0  0
   46.2305   33.1245   48.6222 H   0  0  0  0  0  0  0  0  0  0  0  0
   45.8003   31.5909   50.5317 H   0  0  0  0  0  0  0  0  0  0  0  0
   45.0331   29.2735   50.0452 H   0  0  0  0  0  0  0  0  0  0  0  0
   44.1965   37.5248   43.6298 H   0  0  0  0  0  0  0  0  0  0  0  0
   45.8956   37.0145   41.8562 H   0  0  0  0  0  0  0  0  0  0  0  0
   47.1653   34.8465   42.0197 H   0  0  0  0  0  0  0  0  0  0  0  0
   44.1754   33.7526   46.4247 H   0  0  0  0  0  0  0  0  0  0  0  0
   45.1748   27.4547   49.4759 H   0  0  0  0  0  0  0  0  0  0  0  0
   43.9299   28.6568   45.5881 H   0  0  0  0  0  0  0  0  0  0  0  0
   42.8511   26.6140   44.0395 H   0  0  0  0  0  0  0  0  0  0  0  0
   42.4024   24.0900   44.3976 H   0  0  0  0  0  0  0  0  0  0  0  0
   43.2214   23.4538   46.8590 H   0  0  0  0  0  0  0  0  0  0  0  0
   44.4339   25.1395   48.9656 H   0  0  0  0  0  0  0  0  0  0  0  0
  1  2  2  0
  2  3  1  0
  4  3  2  0
  5  4  1  0
  6  1  1  0
  6  5  2  0
  7 12  2  0
  8  9  2  0
  8  7  1  0
  9 10  1  0
 10 11  2  0
 11 15  1  0
 12 11  1  0
 13  1  1  0
 14 13  2  0
 15 13  1  0
 17  5  1  0
 17 16  2  0
 18 17  1  0
 19 18  2  0
 19 23  1  0
 20 21  1  0
 20 19  1  0
 21 22  2  0
 22 23  1  0
 23 24  2  0
 24 16  1  0
  2 25  1  0
  3 26  1  0
  4 27  1  0
  7 28  1  0
  8 29  1  0
  9 30  1  0
 15 31  1  0
 16 32  1  0
 18 33  1  0
 20 34  1  0
 21 35  1  0
 22 36  1  0
 24 37  1  0
M  ISO  8  25  14  26  14  27  14  28  14  29  14  30  14  32  14  33  14
M  ISO  4  34   9  35  14  36  14  37  14
M  END
>  <minimizedAffinity>  (1) 
-5.93690014

>  <minimizedRMSD>  (1) 
0.77330488

$$$$
