
     RDKit          3D

 23 24  0  0  1  0  0  0  0  0999 V2000
   45.1730   34.4250   45.4010 C   0  0  0  0  0  0  0  0  0  0  0  0
   45.8300   34.2830   44.1660 C   0  0  0  0  0  0  0  0  0  0  0  0
   46.8460   33.3080   44.1000 C   0  0  0  0  0  0  0  0  0  0  0  0
   47.1260   32.5780   45.2030 N   0  0  0  0  0  0  0  0  0  0  0  0
   46.4600   32.7580   46.3650 C   0  0  0  0  0  0  0  0  0  0  0  0
   45.4930   33.6670   46.4730 N   0  0  0  0  0  0  0  0  0  0  0  0
   46.4330   30.4800   47.3980 C   0  0  1  0  0  0  0  0  0  0  0  0
   46.8040   31.9300   47.5560 C   0  0  2  0  0  0  0  0  0  0  0  0
   45.8800   32.3620   48.6770 C   0  0  0  0  0  0  0  0  0  0  0  0
   44.6790   31.7510   48.2860 O   0  0  0  0  0  0  0  0  0  0  0  0
   45.0440   30.4460   47.9960 C   0  0  0  0  0  0  0  0  0  0  0  0
   46.4740   30.0380   46.0980 O   0  0  0  0  0  0  0  0  0  0  0  0
   44.1760   35.3770   45.4770 O   0  0  0  0  0  0  0  0  0  0  0  0
   45.5647   34.9012   43.2957 H   0  0  0  0  0  0  0  0  0  0  0  0
   47.4024   33.1437   43.1655 H   0  0  0  0  0  0  0  0  0  0  0  0
   47.1411   29.7970   47.8900 H   0  0  0  0  0  0  0  0  0  0  0  0
   47.8849   32.0523   47.7193 H   0  0  0  0  0  0  0  0  0  0  0  0
   46.2251   31.9870   49.6518 H   0  0  0  0  0  0  0  0  0  0  0  0
   45.8108   33.4514   48.8126 H   0  0  0  0  0  0  0  0  0  0  0  0
   44.3363   30.0102   47.2754 H   0  0  0  0  0  0  0  0  0  0  0  0
   45.0315   29.8304   48.9076 H   0  0  0  0  0  0  0  0  0  0  0  0
   46.5654   29.0523   46.0873 H   0  0  0  0  0  0  0  0  0  0  0  0
   43.9529   35.9247   44.6830 H   0  0  0  0  0  0  0  0  0  0  0  0
  1 13  1  0
  1  6  2  0
  2  1  1  0
  3  2  2  0
  3  4  1  0
  4  5  2  0
  5  6  1  0
  7 12  1  0
  7  8  1  0
  7 11  1  0
  8  5  1  0
  8  9  1  0
 10  9  1  0
 11 10  1  0
  2 14  1  0
  3 15  1  0
  7 16  1  1
  8 17  1  1
  9 18  1  0
  9 19  1  0
 11 20  1  0
 11 21  1  0
 12 22  1  0
 13 23  1  0
M  ISO  8  14  14  15  14  16  13  17  13  18  13  19  13  20  13  21  13
M  ISO  2  22   3  23   3
M  END
>  <minimizedAffinity>  (1) 
-4.44838715

>  <minimizedRMSD>  (1) 
1.8032757

$$$$
