
     RDKit          3D

 12 12  0  0  0  0  0  0  0  0999 V2000
   44.9900   35.5670   44.2130 C   0  0  0  0  0  0  0  0  0  0  0  0
   45.9640   34.9080   43.4170 C   0  0  0  0  0  0  0  0  0  0  0  0
   46.6000   33.7830   43.9620 C   0  0  0  0  0  0  0  0  0  0  0  0
   46.2540   33.3930   45.2050 N   0  0  0  0  0  0  0  0  0  0  0  0
   45.3250   34.0410   45.9350 C   0  0  0  0  0  0  0  0  0  0  0  0
   44.7030   35.1130   45.4440 N   0  0  0  0  0  0  0  0  0  0  0  0
   44.3770   36.6580   43.6780 O   0  0  0  0  0  0  0  0  0  0  0  0
   44.9320   33.6840   47.2130 O   0  0  0  0  0  0  0  0  0  0  0  0
   46.2113   35.2676   42.4073 H   0  0  0  0  0  0  0  0  0  0  0  0
   47.3616   33.2331   43.3897 H   0  0  0  0  0  0  0  0  0  0  0  0
   44.6155   36.9626   42.7667 H   0  0  0  0  0  0  0  0  0  0  0  0
   44.2406   34.2132   47.6842 H   0  0  0  0  0  0  0  0  0  0  0  0
  1  6  2  0
  2  3  2  0
  2  1  1  0
  3  4  1  0
  4  5  2  0
  5  8  1  0
  6  5  1  0
  7  1  1  0
  2  9  1  0
  3 10  1  0
  7 11  1  0
  8 12  1  0
M  ISO  4   9  14  10  14  11   3  12   3
M  END
>  <minimizedAffinity>  (1) 
-3.69119596

>  <minimizedRMSD>  (1) 
0.183317721

$$$$
