
     RDKit          3D

 27 28  0  0  1  0  0  0  0  0999 V2000
   45.6620   32.8210   47.8970 C   0  0  2  0  0  0  0  0  0  0  0  0
   46.6960   32.8130   46.8320 C   0  0  1  0  0  0  0  0  0  0  0  0
   47.0180   31.3830   46.3830 C   0  0  0  0  0  0  0  0  0  0  0  0
   47.3800   30.7300   47.5700 O   0  0  0  0  0  0  0  0  0  0  0  0
   46.2920   30.4790   48.3870 C   0  0  0  0  0  0  0  0  0  0  0  0
   45.1270   31.4130   48.1340 C   0  0  1  0  0  0  0  0  0  0  0  0
   44.8360   34.9770   44.5090 C   0  0  0  0  0  0  0  0  0  0  0  0
   45.5230   34.8310   43.2860 C   0  0  0  0  0  0  0  0  0  0  0  0
   46.6460   33.9650   43.2870 C   0  0  0  0  0  0  0  0  0  0  0  0
   46.9830   33.3420   44.4490 N   0  0  0  0  0  0  0  0  0  0  0  0
   46.2920   33.5170   45.5820 C   0  0  0  0  0  0  0  0  0  0  0  0
   45.2180   34.3370   45.6090 N   0  0  0  0  0  0  0  0  0  0  0  0
   43.7530   35.8100   44.5100 O   0  0  0  0  0  0  0  0  0  0  0  0
   44.6050   33.6920   47.6770 O   0  0  0  0  0  0  0  0  0  0  0  0
   44.3040   31.4810   49.2540 O   0  0  0  0  0  0  0  0  0  0  0  0
   46.1794   33.1951   48.7927 H   0  0  0  0  0  0  0  0  0  0  0  0
   47.5499   33.3259   47.2987 H   0  0  0  0  0  0  0  0  0  0  0  0
   46.1364   30.9078   45.9281 H   0  0  0  0  0  0  0  0  0  0  0  0
   47.8097   31.3461   45.6202 H   0  0  0  0  0  0  0  0  0  0  0  0
   45.9558   29.4461   48.2138 H   0  0  0  0  0  0  0  0  0  0  0  0
   46.6193   30.6388   49.4250 H   0  0  0  0  0  0  0  0  0  0  0  0
   44.5655   31.0353   47.2668 H   0  0  0  0  0  0  0  0  0  0  0  0
   45.2038   35.3621   42.3771 H   0  0  0  0  0  0  0  0  0  0  0  0
   47.2310   33.8007   42.3700 H   0  0  0  0  0  0  0  0  0  0  0  0
   43.4866   36.2766   43.6785 H   0  0  0  0  0  0  0  0  0  0  0  0
   44.2393   33.9933   48.5462 H   0  0  0  0  0  0  0  0  0  0  0  0
   44.8575   31.4353   50.0735 H   0  0  0  0  0  0  0  0  0  0  0  0
  1 14  1  0
  1  6  1  0
  2 11  1  0
  2  1  1  0
  3  2  1  0
  3  4  1  0
  4  5  1  0
  6  5  1  0
  6 15  1  0
  7 13  1  0
  7 12  2  0
  8  9  2  0
  8  7  1  0
  9 10  1  0
 10 11  2  0
 11 12  1  0
  1 16  1  1
  2 17  1  1
  3 18  1  0
  3 19  1  0
  5 20  1  0
  5 21  1  0
  6 22  1  6
  8 23  1  0
  9 24  1  0
 13 25  1  0
 14 26  1  0
 15 27  1  0
M  ISO  8  16  13  17  13  18  13  19  13  20  13  21  13  22  13  23  14
M  ISO  4  24  14  25   3  26   3  27   3
M  END
>  <minimizedAffinity>  (1) 
-5.91200161

>  <minimizedRMSD>  (1) 
1.92161763

$$$$
