
     RDKit          3D

 47 50  0  0  1  0  0  0  0  0999 V2000
   47.3520   32.9750   44.3130 C   0  0  2  0  0  0  0  0  0  0  0  0
   47.2430   33.4050   42.8950 C   0  0  1  0  0  0  0  0  0  0  0  0
   47.3910   32.2420   41.9170 C   0  0  0  0  0  0  0  0  0  0  0  0
   48.5940   31.6390   42.2700 O   0  0  0  0  0  0  0  0  0  0  0  0
   48.5000   30.9520   43.4590 C   0  0  0  0  0  0  0  0  0  0  0  0
   47.4090   31.4340   44.3630 C   0  0  1  0  0  0  0  0  0  0  0  0
   44.1270   35.3140   43.1680 C   0  0  0  0  0  0  0  0  0  0  0  0
   43.5800   35.2770   41.8480 C   0  0  0  0  0  0  0  0  0  0  0  0
   44.3460   34.5670   40.8890 C   0  0  0  0  0  0  0  0  0  0  0  0
   45.5070   33.9870   41.2650 N   0  0  0  0  0  0  0  0  0  0  0  0
   45.9700   34.0590   42.5310 C   0  0  0  0  0  0  0  0  0  0  0  0
   45.2760   34.7230   43.4800 N   0  0  0  0  0  0  0  0  0  0  0  0
   43.4010   35.9900   44.0950 O   0  0  0  0  0  0  0  0  0  0  0  0
   46.2870   33.3930   45.1120 O   0  0  0  0  0  0  0  0  0  0  0  0
   47.5910   31.0930   45.6830 O   0  0  0  0  0  0  0  0  0  0  0  0
   46.1550   28.8250   45.3940 F   0  0  0  0  0  0  0  0  0  0  0  0
   46.1230   29.6310   46.4770 C   0  0  0  0  0  0  0  0  0  0  0  0
   46.8180   30.7980   46.7110 C   0  0  0  0  0  0  0  0  0  0  0  0
   46.5700   31.3960   47.9350 C   0  0  0  0  0  0  0  0  0  0  0  0
   45.7180   30.9370   48.9060 C   0  0  0  0  0  0  0  0  0  0  0  0
   45.0590   29.7800   48.6210 C   0  0  0  0  0  0  0  0  0  0  0  0
   45.2280   29.0980   47.4290 C   0  0  0  0  0  0  0  0  0  0  0  0
   44.4470   27.8700   47.2780 C   0  0  0  0  0  0  0  0  0  0  0  0
   44.7000   26.9340   48.2770 C   0  0  0  0  0  0  0  0  0  0  0  0
   44.0450   25.7210   48.2800 C   0  0  0  0  0  0  0  0  0  0  0  0
   43.1420   25.4520   47.2830 C   0  0  0  0  0  0  0  0  0  0  0  0
   42.8900   26.3840   46.2900 C   0  0  0  0  0  0  0  0  0  0  0  0
   43.5590   27.6140   46.2940 C   0  0  0  0  0  0  0  0  0  0  0  0
   48.2643   33.4426   44.7117 H   0  0  0  0  0  0  0  0  0  0  0  0
   48.0668   34.1295   42.8148 H   0  0  0  0  0  0  0  0  0  0  0  0
   47.4295   32.6084   40.8805 H   0  0  0  0  0  0  0  0  0  0  0  0
   46.5429   31.5433   41.9676 H   0  0  0  0  0  0  0  0  0  0  0  0
   48.3155   29.8919   43.2309 H   0  0  0  0  0  0  0  0  0  0  0  0
   49.4476   31.1151   43.9933 H   0  0  0  0  0  0  0  0  0  0  0  0
   46.4873   30.9546   44.0016 H   0  0  0  0  0  0  0  0  0  0  0  0
   42.6285   35.7666   41.5932 H   0  0  0  0  0  0  0  0  0  0  0  0
   43.9982   34.4891   39.8483 H   0  0  0  0  0  0  0  0  0  0  0  0
   42.5481   36.4216   43.8373 H   0  0  0  0  0  0  0  0  0  0  0  0
   46.5326   33.2966   46.0662 H   0  0  0  0  0  0  0  0  0  0  0  0
   47.1092   32.3305   48.1492 H   0  0  0  0  0  0  0  0  0  0  0  0
   45.5754   31.4707   49.8572 H   0  0  0  0  0  0  0  0  0  0  0  0
   44.3639   29.3708   49.3689 H   0  0  0  0  0  0  0  0  0  0  0  0
   45.4275   27.1639   49.0694 H   0  0  0  0  0  0  0  0  0  0  0  0
   44.2432   24.9808   49.0691 H   0  0  0  0  0  0  0  0  0  0  0  0
   42.6133   24.4874   47.2721 H   0  0  0  0  0  0  0  0  0  0  0  0
   42.1627   26.1574   45.4965 H   0  0  0  0  0  0  0  0  0  0  0  0
   43.3643   28.3591   45.5086 H   0  0  0  0  0  0  0  0  0  0  0  0
  1  6  1  0
  1 14  1  0
  2  1  1  0
  3  4  1  0
  3  2  1  0
  4  5  1  0
  5  6  1  0
  6 15  1  0
  7 12  2  0
  7 13  1  0
  8  7  1  0
  9 10  1  0
  9  8  2  0
 10 11  2  0
 11  2  1  0
 11 12  1  0
 15 18  1  0
 16 17  1  0
 17 18  2  0
 17 22  1  0
 18 19  1  0
 19 20  2  0
 21 20  1  0
 22 21  2  0
 23 22  1  0
 23 24  2  0
 24 25  1  0
 26 25  2  0
 27 28  2  0
 27 26  1  0
 28 23  1  0
  1 29  1  1
  2 30  1  6
  3 31  1  0
  3 32  1  0
  5 33  1  0
  5 34  1  0
  6 35  1  6
  8 36  1  0
  9 37  1  0
 13 38  1  0
 14 39  1  0
 19 40  1  0
 20 41  1  0
 21 42  1  0
 24 43  1  0
 25 44  1  0
 26 45  1  0
 27 46  1  0
 28 47  1  0
M  ISO  8  29  13  30  13  31  13  32  13  33  13  34  13  35  13  36  14
M  ISO  8  37  14  38   3  39   3  40  14  41  14  42  14  43  14  44  14
M  ISO  3  45  14  46  14  47  14
M  END
>  <minimizedAffinity>  (1) 
-6.32670307

>  <minimizedRMSD>  (1) 
1.1150018

$$$$
