
     RDKit          3D

 46 49  0  0  1  0  0  0  0  0999 V2000
   47.5380   33.0390   44.2450 C   0  0  2  0  0  0  0  0  0  0  0  0
   47.3880   33.4390   42.8220 C   0  0  1  0  0  0  0  0  0  0  0  0
   47.2980   32.2260   41.8960 C   0  0  0  0  0  0  0  0  0  0  0  0
   48.4350   31.4720   42.1970 O   0  0  0  0  0  0  0  0  0  0  0  0
   48.3260   30.8520   43.4190 C   0  0  0  0  0  0  0  0  0  0  0  0
   47.3780   31.5170   44.3660 C   0  0  1  0  0  0  0  0  0  0  0  0
   45.0260   36.2360   42.7950 C   0  0  0  0  0  0  0  0  0  0  0  0
   43.9780   35.7920   41.9380 C   0  0  0  0  0  0  0  0  0  0  0  0
   44.1410   34.4960   41.3880 C   0  0  0  0  0  0  0  0  0  0  0  0
   45.2440   33.7790   41.6950 N   0  0  0  0  0  0  0  0  0  0  0  0
   46.2030   34.2580   42.5150 C   0  0  0  0  0  0  0  0  0  0  0  0
   46.0940   35.4870   43.0640 N   0  0  0  0  0  0  0  0  0  0  0  0
   44.8850   37.4770   43.3330 O   0  0  0  0  0  0  0  0  0  0  0  0
   46.5970   33.6370   45.0940 O   0  0  0  0  0  0  0  0  0  0  0  0
   47.5890   31.1910   45.6850 O   0  0  0  0  0  0  0  0  0  0  0  0
   46.2420   28.8740   45.4660 F   0  0  0  0  0  0  0  0  0  0  0  0
   46.1770   29.6890   46.5350 C   0  0  0  0  0  0  0  0  0  0  0  0
   46.8420   30.8840   46.7300 C   0  0  0  0  0  0  0  0  0  0  0  0
   46.6070   31.5050   47.9460 C   0  0  0  0  0  0  0  0  0  0  0  0
   45.7860   31.0350   48.9430 C   0  0  0  0  0  0  0  0  0  0  0  0
   45.1580   29.8550   48.6950 C   0  0  0  0  0  0  0  0  0  0  0  0
   45.3320   29.1510   47.4930 C   0  0  0  0  0  0  0  0  0  0  0  0
   44.5610   27.9220   47.4570 C   0  0  0  0  0  0  0  0  0  0  0  0
   43.6810   27.5130   46.4880 C   0  0  0  0  0  0  0  0  0  0  0  0
   42.9580   26.3480   46.4690 C   0  0  0  0  0  0  0  0  0  0  0  0
   43.1110   25.4750   47.5220 C   0  0  0  0  0  0  0  0  0  0  0  0
   43.9870   25.8730   48.4950 C   0  0  0  0  0  0  0  0  0  0  0  0
   44.6480   27.0250   48.4300 N   0  0  0  0  0  0  0  0  0  0  0  0
   48.5377   33.3760   44.5565 H   0  0  0  0  0  0  0  0  0  0  0  0
   48.2931   34.0404   42.6516 H   0  0  0  0  0  0  0  0  0  0  0  0
   47.3073   32.5399   40.8418 H   0  0  0  0  0  0  0  0  0  0  0  0
   46.3679   31.6569   42.0408 H   0  0  0  0  0  0  0  0  0  0  0  0
   47.9797   29.8213   43.2524 H   0  0  0  0  0  0  0  0  0  0  0  0
   49.3211   30.8994   43.8854 H   0  0  0  0  0  0  0  0  0  0  0  0
   46.3729   31.1677   44.0870 H   0  0  0  0  0  0  0  0  0  0  0  0
   43.0988   36.4151   41.7174 H   0  0  0  0  0  0  0  0  0  0  0  0
   43.3762   34.0777   40.7171 H   0  0  0  0  0  0  0  0  0  0  0  0
   44.0845   38.0199   43.1221 H   0  0  0  0  0  0  0  0  0  0  0  0
   46.8527   33.4745   46.0365 H   0  0  0  0  0  0  0  0  0  0  0  0
   47.1233   32.4588   48.1298 H   0  0  0  0  0  0  0  0  0  0  0  0
   45.6452   31.5819   49.8870 H   0  0  0  0  0  0  0  0  0  0  0  0
   44.4903   29.4373   49.4629 H   0  0  0  0  0  0  0  0  0  0  0  0
   43.5400   28.1924   45.6344 H   0  0  0  0  0  0  0  0  0  0  0  0
   42.2761   26.1180   45.6370 H   0  0  0  0  0  0  0  0  0  0  0  0
   42.5657   24.5213   47.5777 H   0  0  0  0  0  0  0  0  0  0  0  0
   44.1503   25.2163   49.3622 H   0  0  0  0  0  0  0  0  0  0  0  0
  1  6  1  0
  1 14  1  0
  2  1  1  0
  3  4  1  0
  3  2  1  0
  4  5  1  0
  5  6  1  0
  6 15  1  0
  7 12  2  0
  7 13  1  0
  8  7  1  0
  9 10  1  0
  9  8  2  0
 10 11  2  0
 11  2  1  0
 11 12  1  0
 15 18  1  0
 16 17  1  0
 17 18  2  0
 17 22  1  0
 18 19  1  0
 19 20  2  0
 21 20  1  0
 22 21  2  0
 23 22  1  0
 23 28  1  0
 24 23  2  0
 25 24  1  0
 25 26  2  0
 26 27  1  0
 28 27  2  0
  1 29  1  1
  2 30  1  6
  3 31  1  0
  3 32  1  0
  5 33  1  0
  5 34  1  0
  6 35  1  6
  8 36  1  0
  9 37  1  0
 13 38  1  0
 14 39  1  0
 19 40  1  0
 20 41  1  0
 21 42  1  0
 24 43  1  0
 25 44  1  0
 26 45  1  0
 27 46  1  0
M  ISO  8  29  13  30  13  31  13  32  13  33  13  34  13  35  13  36  14
M  ISO  8  37  14  38   3  39   3  40  14  41  14  42  14  43  14  44  14
M  ISO  2  45  14  46  14
M  END
>  <minimizedAffinity>  (1) 
-6.01692009

>  <minimizedRMSD>  (1) 
0.935194254

$$$$
