
     RDKit          3D

 49 52  0  0  1  0  0  0  0  0999 V2000
   47.4620   33.0840   44.3940 C   0  0  2  0  0  0  0  0  0  0  0  0
   47.3320   33.4160   42.9530 C   0  0  1  0  0  0  0  0  0  0  0  0
   47.2200   32.1690   42.0760 C   0  0  0  0  0  0  0  0  0  0  0  0
   48.3450   31.4130   42.4210 O   0  0  0  0  0  0  0  0  0  0  0  0
   48.2060   30.8350   43.6640 C   0  0  0  0  0  0  0  0  0  0  0  0
   47.2780   31.5670   44.5800 C   0  0  1  0  0  0  0  0  0  0  0  0
   45.0170   36.2520   42.7910 C   0  0  0  0  0  0  0  0  0  0  0  0
   43.9640   35.7920   41.9480 C   0  0  0  0  0  0  0  0  0  0  0  0
   44.1060   34.4720   41.4550 C   0  0  0  0  0  0  0  0  0  0  0  0
   45.1950   33.7490   41.8000 N   0  0  0  0  0  0  0  0  0  0  0  0
   46.1600   34.2430   42.6030 C   0  0  0  0  0  0  0  0  0  0  0  0
   46.0650   35.4960   43.0960 N   0  0  0  0  0  0  0  0  0  0  0  0
   44.8900   37.5180   43.2700 O   0  0  0  0  0  0  0  0  0  0  0  0
   46.5320   33.7340   45.2110 O   0  0  0  0  0  0  0  0  0  0  0  0
   47.4860   31.3030   45.9150 O   0  0  0  0  0  0  0  0  0  0  0  0
   46.3950   28.8350   45.8840 F   0  0  0  0  0  0  0  0  0  0  0  0
   46.2050   29.7420   46.8640 C   0  0  0  0  0  0  0  0  0  0  0  0
   46.7320   31.0150   46.9600 C   0  0  0  0  0  0  0  0  0  0  0  0
   46.3790   31.7140   48.1020 C   0  0  0  0  0  0  0  0  0  0  0  0
   45.5630   31.2420   49.1140 C   0  0  0  0  0  0  0  0  0  0  0  0
   45.0660   29.9620   48.9590 C   0  0  0  0  0  0  0  0  0  0  0  0
   45.3740   29.2000   47.8460 C   0  0  0  0  0  0  0  0  0  0  0  0
   45.8110   26.7350   47.6560 C   0  0  2  0  0  0  0  0  0  0  0  0
   44.7880   27.8400   47.7800 C   0  0  2  0  0  0  0  0  0  0  0  0
   44.0060   27.6070   46.5360 C   0  0  0  0  0  0  0  0  0  0  0  0
   43.7290   26.2270   46.6830 O   0  0  0  0  0  0  0  0  0  0  0  0
   44.9440   25.6430   47.0200 C   0  0  0  0  0  0  0  0  0  0  0  0
   46.2490   26.2370   48.8690 O   0  0  0  0  0  0  0  0  0  0  0  0
   48.4626   33.4246   44.6986 H   0  0  0  0  0  0  0  0  0  0  0  0
   48.2550   33.9836   42.7636 H   0  0  0  0  0  0  0  0  0  0  0  0
   47.2409   32.4375   41.0095 H   0  0  0  0  0  0  0  0  0  0  0  0
   46.2778   31.6233   42.2328 H   0  0  0  0  0  0  0  0  0  0  0  0
   47.8220   29.8132   43.5283 H   0  0  0  0  0  0  0  0  0  0  0  0
   49.1993   30.8578   44.1361 H   0  0  0  0  0  0  0  0  0  0  0  0
   46.2683   31.2224   44.3122 H   0  0  0  0  0  0  0  0  0  0  0  0
   43.0974   36.4212   41.6966 H   0  0  0  0  0  0  0  0  0  0  0  0
   43.3376   34.0391   40.7976 H   0  0  0  0  0  0  0  0  0  0  0  0
   44.0989   38.0618   43.0280 H   0  0  0  0  0  0  0  0  0  0  0  0
   46.7595   33.5750   46.1613 H   0  0  0  0  0  0  0  0  0  0  0  0
   46.7819   32.7314   48.2138 H   0  0  0  0  0  0  0  0  0  0  0  0
   45.3222   31.8535   49.9961 H   0  0  0  0  0  0  0  0  0  0  0  0
   44.4121   29.5402   49.7365 H   0  0  0  0  0  0  0  0  0  0  0  0
   46.7147   27.0682   47.1246 H   0  0  0  0  0  0  0  0  0  0  0  0
   44.2047   27.8085   48.7121 H   0  0  0  0  0  0  0  0  0  0  0  0
   44.6013   27.8113   45.6339 H   0  0  0  0  0  0  0  0  0  0  0  0
   43.1215   28.2495   46.4142 H   0  0  0  0  0  0  0  0  0  0  0  0
   44.7827   24.8246   47.7371 H   0  0  0  0  0  0  0  0  0  0  0  0
   45.4356   25.2232   46.1300 H   0  0  0  0  0  0  0  0  0  0  0  0
   45.8127   26.7331   49.6063 H   0  0  0  0  0  0  0  0  0  0  0  0
  1  6  1  0
  1 14  1  0
  2  1  1  0
  3  4  1  0
  3  2  1  0
  4  5  1  0
  5  6  1  0
  6 15  1  0
  7 12  2  0
  7 13  1  0
  8  7  1  0
  9 10  1  0
  9  8  2  0
 10 11  2  0
 11  2  1  0
 11 12  1  0
 15 18  1  0
 16 17  1  0
 17 18  2  0
 17 22  1  0
 18 19  1  0
 19 20  2  0
 21 20  1  0
 22 21  2  0
 23 24  1  0
 23 28  1  0
 24 22  1  0
 25 26  1  0
 25 24  1  0
 26 27  1  0
 27 23  1  0
  1 29  1  1
  2 30  1  6
  3 31  1  0
  3 32  1  0
  5 33  1  0
  5 34  1  0
  6 35  1  6
  8 36  1  0
  9 37  1  0
 13 38  1  0
 14 39  1  0
 19 40  1  0
 20 41  1  0
 21 42  1  0
 23 43  1  6
 24 44  1  1
 25 45  1  0
 25 46  1  0
 27 47  1  0
 27 48  1  0
 28 49  1  0
M  ISO  8  29  13  30  13  31  13  32  13  33  13  34  13  35  13  36  14
M  ISO  8  37  14  38   3  39   3  40  14  41  14  42  14  43  13  44  13
M  ISO  5  45  13  46  13  47  13  48  13  49   3
M  END
>  <minimizedAffinity>  (1) 
-5.90360165

>  <minimizedRMSD>  (1) 
0.706486106

$$$$
