
     RDKit          3D

 47 50  0  0  1  0  0  0  0  0999 V2000
   47.4170   32.9260   44.3520 C   0  0  2  0  0  0  0  0  0  0  0  0
   47.3740   33.3460   42.9280 C   0  0  1  0  0  0  0  0  0  0  0  0
   47.3570   32.1540   41.9690 C   0  0  0  0  0  0  0  0  0  0  0  0
   48.4750   31.4040   42.3370 O   0  0  0  0  0  0  0  0  0  0  0  0
   48.2810   30.7520   43.5350 C   0  0  0  0  0  0  0  0  0  0  0  0
   47.2660   31.3920   44.4280 C   0  0  1  0  0  0  0  0  0  0  0  0
   45.0060   36.1370   42.7630 C   0  0  0  0  0  0  0  0  0  0  0  0
   44.0020   35.6940   41.8490 C   0  0  0  0  0  0  0  0  0  0  0  0
   44.2040   34.3940   41.3120 C   0  0  0  0  0  0  0  0  0  0  0  0
   45.2900   33.6810   41.6800 N   0  0  0  0  0  0  0  0  0  0  0  0
   46.2030   34.1610   42.5500 C   0  0  0  0  0  0  0  0  0  0  0  0
   46.0610   35.3920   43.0940 N   0  0  0  0  0  0  0  0  0  0  0  0
   44.8300   37.3790   43.2910 O   0  0  0  0  0  0  0  0  0  0  0  0
   46.4200   33.4970   45.1420 O   0  0  0  0  0  0  0  0  0  0  0  0
   47.4000   31.0520   45.7550 O   0  0  0  0  0  0  0  0  0  0  0  0
   46.5750   28.4810   45.6370 F   0  0  0  0  0  0  0  0  0  0  0  0
   46.2220   29.3660   46.5920 C   0  0  0  0  0  0  0  0  0  0  0  0
   46.5940   30.6850   46.7340 C   0  0  0  0  0  0  0  0  0  0  0  0
   46.0650   31.3320   47.8380 C   0  0  0  0  0  0  0  0  0  0  0  0
   45.2260   30.7880   48.7760 C   0  0  0  0  0  0  0  0  0  0  0  0
   44.8900   29.4810   48.5870 C   0  0  0  0  0  0  0  0  0  0  0  0
   45.3610   28.7400   47.5190 C   0  0  0  0  0  0  0  0  0  0  0  0
   43.1120   28.5610   45.5020 Br  0  0  0  0  0  0  0  0  0  0  0  0
   43.8620   27.1580   46.5530 C   0  0  0  0  0  0  0  0  0  0  0  0
   44.9070   27.3510   47.4610 C   0  0  0  0  0  0  0  0  0  0  0  0
   45.4280   26.3150   48.2080 C   0  0  0  0  0  0  0  0  0  0  0  0
   44.9140   25.0400   48.0650 C   0  0  0  0  0  0  0  0  0  0  0  0
   43.8720   24.7990   47.1720 C   0  0  0  0  0  0  0  0  0  0  0  0
   43.3610   25.8680   46.4260 C   0  0  0  0  0  0  0  0  0  0  0  0
   48.3839   33.2725   44.7459 H   0  0  0  0  0  0  0  0  0  0  0  0
   48.2902   33.9481   42.8384 H   0  0  0  0  0  0  0  0  0  0  0  0
   47.4397   32.4915   40.9253 H   0  0  0  0  0  0  0  0  0  0  0  0
   46.4228   31.5765   42.0304 H   0  0  0  0  0  0  0  0  0  0  0  0
   47.9507   29.7253   43.3187 H   0  0  0  0  0  0  0  0  0  0  0  0
   49.2403   30.7889   44.0721 H   0  0  0  0  0  0  0  0  0  0  0  0
   46.2882   31.0349   44.0723 H   0  0  0  0  0  0  0  0  0  0  0  0
   43.1346   36.3146   41.5800 H   0  0  0  0  0  0  0  0  0  0  0  0
   43.4797   33.9709   40.6005 H   0  0  0  0  0  0  0  0  0  0  0  0
   44.0408   37.9187   43.0342 H   0  0  0  0  0  0  0  0  0  0  0  0
   46.6429   33.3693   46.0981 H   0  0  0  0  0  0  0  0  0  0  0  0
   46.3456   32.3866   47.9761 H   0  0  0  0  0  0  0  0  0  0  0  0
   44.8474   31.3707   49.6287 H   0  0  0  0  0  0  0  0  0  0  0  0
   44.2186   28.9971   49.3116 H   0  0  0  0  0  0  0  0  0  0  0  0
   46.2496   26.5029   48.9149 H   0  0  0  0  0  0  0  0  0  0  0  0
   45.3292   24.2122   48.6586 H   0  0  0  0  0  0  0  0  0  0  0  0
   43.4580   23.7866   47.0551 H   0  0  0  0  0  0  0  0  0  0  0  0
   42.5392   25.6814   45.7190 H   0  0  0  0  0  0  0  0  0  0  0  0
  1  6  1  0
  1 14  1  0
  2  1  1  0
  3  4  1  0
  3  2  1  0
  4  5  1  0
  5  6  1  0
  6 15  1  0
  7 12  2  0
  7 13  1  0
  8  7  1  0
  9 10  1  0
  9  8  2  0
 10 11  2  0
 11  2  1  0
 11 12  1  0
 15 18  1  0
 16 17  1  0
 17 18  2  0
 17 22  1  0
 18 19  1  0
 19 20  2  0
 21 20  1  0
 22 21  2  0
 23 24  1  0
 24 25  2  0
 25 22  1  0
 25 26  1  0
 27 26  2  0
 28 27  1  0
 29 24  1  0
 29 28  2  0
  1 30  1  1
  2 31  1  6
  3 32  1  0
  3 33  1  0
  5 34  1  0
  5 35  1  0
  6 36  1  6
  8 37  1  0
  9 38  1  0
 13 39  1  0
 14 40  1  0
 19 41  1  0
 20 42  1  0
 21 43  1  0
 26 44  1  0
 27 45  1  0
 28 46  1  0
 29 47  1  0
M  ISO  8  30  13  31  13  32  13  33  13  34  13  35  13  36  13  37  14
M  ISO  8  38  14  39   3  40   3  41  14  42  14  43  14  44  14  45  14
M  ISO  2  46  14  47  14
M  END
>  <minimizedAffinity>  (1) 
-5.87726641

>  <minimizedRMSD>  (1) 
1.15693974

$$$$
