
     RDKit          3D

 38 40  0  0  1  0  0  0  0  0999 V2000
   47.3570   33.0690   44.3410 C   0  0  2  0  0  0  0  0  0  0  0  0
   47.1340   33.3250   42.8940 C   0  0  1  0  0  0  0  0  0  0  0  0
   46.8880   32.0310   42.1140 C   0  0  0  0  0  0  0  0  0  0  0  0
   47.9950   31.2380   42.4190 O   0  0  0  0  0  0  0  0  0  0  0  0
   47.9410   30.7560   43.7110 C   0  0  0  0  0  0  0  0  0  0  0  0
   47.1010   31.5780   44.6400 C   0  0  1  0  0  0  0  0  0  0  0  0
   44.9450   36.2560   42.7450 C   0  0  0  0  0  0  0  0  0  0  0  0
   43.8140   35.8140   41.9930 C   0  0  0  0  0  0  0  0  0  0  0  0
   43.8680   34.4680   41.5550 C   0  0  0  0  0  0  0  0  0  0  0  0
   44.9430   33.7100   41.8630 N   0  0  0  0  0  0  0  0  0  0  0  0
   45.9810   34.1910   42.5790 C   0  0  0  0  0  0  0  0  0  0  0  0
   45.9800   35.4680   43.0210 N   0  0  0  0  0  0  0  0  0  0  0  0
   44.9050   37.5470   43.1720 O   0  0  0  0  0  0  0  0  0  0  0  0
   46.5250   33.8200   45.1830 O   0  0  0  0  0  0  0  0  0  0  0  0
   47.4080   31.3880   45.9680 O   0  0  0  0  0  0  0  0  0  0  0  0
   46.3390   28.9580   46.4800 F   0  0  0  0  0  0  0  0  0  0  0  0
   46.2170   30.0390   47.2780 C   0  0  0  0  0  0  0  0  0  0  0  0
   46.7280   31.3040   47.1000 C   0  0  0  0  0  0  0  0  0  0  0  0
   46.4390   32.2080   48.1090 C   0  0  0  0  0  0  0  0  0  0  0  0
   45.7000   31.9390   49.2440 C   0  0  0  0  0  0  0  0  0  0  0  0
   45.2150   30.6610   49.3690 C   0  0  0  0  0  0  0  0  0  0  0  0
   45.4590   29.7000   48.4060 C   0  0  0  0  0  0  0  0  0  0  0  0
   44.8980   28.4760   48.6930 O   0  0  0  0  0  0  0  0  0  0  0  0
   48.3965   33.3649   44.5456 H   0  0  0  0  0  0  0  0  0  0  0  0
   48.0649   33.8315   42.5994 H   0  0  0  0  0  0  0  0  0  0  0  0
   46.8351   32.2298   41.0334 H   0  0  0  0  0  0  0  0  0  0  0  0
   45.9356   31.5498   42.3813 H   0  0  0  0  0  0  0  0  0  0  0  0
   47.5267   29.7374   43.6819 H   0  0  0  0  0  0  0  0  0  0  0  0
   48.9683   30.7881   44.1028 H   0  0  0  0  0  0  0  0  0  0  0  0
   46.0580   31.2704   44.4742 H   0  0  0  0  0  0  0  0  0  0  0  0
   42.9614   36.4722   41.7698 H   0  0  0  0  0  0  0  0  0  0  0  0
   43.0404   34.0429   40.9682 H   0  0  0  0  0  0  0  0  0  0  0  0
   44.1245   38.1161   42.9552 H   0  0  0  0  0  0  0  0  0  0  0  0
   46.7453   33.6211   46.1275 H   0  0  0  0  0  0  0  0  0  0  0  0
   46.8325   33.2290   47.9963 H   0  0  0  0  0  0  0  0  0  0  0  0
   45.5101   32.7079   50.0073 H   0  0  0  0  0  0  0  0  0  0  0  0
   44.6192   30.3959   50.2548 H   0  0  0  0  0  0  0  0  0  0  0  0
   44.3788   28.3527   49.5269 H   0  0  0  0  0  0  0  0  0  0  0  0
  1  6  1  0
  1 14  1  0
  2  1  1  0
  3  4  1  0
  3  2  1  0
  4  5  1  0
  5  6  1  0
  6 15  1  0
  7 12  2  0
  7 13  1  0
  8  7  1  0
  9 10  1  0
  9  8  2  0
 10 11  2  0
 11  2  1  0
 11 12  1  0
 15 18  1  0
 16 17  1  0
 17 22  2  0
 18 17  1  0
 18 19  2  0
 19 20  1  0
 20 21  2  0
 22 23  1  0
 22 21  1  0
  1 24  1  1
  2 25  1  6
  3 26  1  0
  3 27  1  0
  5 28  1  0
  5 29  1  0
  6 30  1  1
  8 31  1  0
  9 32  1  0
 13 33  1  0
 14 34  1  0
 19 35  1  0
 20 36  1  0
 21 37  1  0
 23 38  1  0
M  ISO  8  24  13  25  13  26  13  27  13  28  13  29  13  30  13  31  14
M  ISO  7  32  14  33   3  34   3  35  14  36  14  37  14  38   3
M  END
>  <minimizedAffinity>  (1) 
-5.57014227

>  <minimizedRMSD>  (1) 
0.224359825

$$$$
