
     RDKit          3D

 39 41  0  0  1  0  0  0  0  0999 V2000
   47.3800   33.0880   44.3610 C   0  0  2  0  0  0  0  0  0  0  0  0
   47.1870   33.3400   42.9080 C   0  0  1  0  0  0  0  0  0  0  0  0
   46.9830   32.0530   42.1160 C   0  0  0  0  0  0  0  0  0  0  0  0
   48.0840   31.2620   42.4460 O   0  0  0  0  0  0  0  0  0  0  0  0
   47.9970   30.7710   43.7280 C   0  0  0  0  0  0  0  0  0  0  0  0
   47.1470   31.5910   44.6450 C   0  0  1  0  0  0  0  0  0  0  0  0
   44.9530   36.2430   42.7220 C   0  0  0  0  0  0  0  0  0  0  0  0
   43.8490   35.7840   41.9420 C   0  0  0  0  0  0  0  0  0  0  0  0
   43.9320   34.4360   41.5000 C   0  0  0  0  0  0  0  0  0  0  0  0
   45.0120   33.6940   41.8280 N   0  0  0  0  0  0  0  0  0  0  0  0
   46.0260   34.1890   42.5700 C   0  0  0  0  0  0  0  0  0  0  0  0
   45.9930   35.4650   43.0160 N   0  0  0  0  0  0  0  0  0  0  0  0
   44.8870   37.5280   43.1530 O   0  0  0  0  0  0  0  0  0  0  0  0
   46.5240   33.8210   45.1820 O   0  0  0  0  0  0  0  0  0  0  0  0
   47.4230   31.3980   45.9800 O   0  0  0  0  0  0  0  0  0  0  0  0
   46.3710   28.9520   46.4330 F   0  0  0  0  0  0  0  0  0  0  0  0
   46.2300   30.0200   47.2450 C   0  0  0  0  0  0  0  0  0  0  0  0
   46.7280   31.2960   47.0960 C   0  0  0  0  0  0  0  0  0  0  0  0
   46.4080   32.1750   48.1170 C   0  0  0  0  0  0  0  0  0  0  0  0
   45.6610   31.8970   49.2300 C   0  0  0  0  0  0  0  0  0  0  0  0
   45.1930   30.6210   49.3280 C   0  0  0  0  0  0  0  0  0  0  0  0
   45.4510   29.6580   48.3660 C   0  0  0  0  0  0  0  0  0  0  0  0
   44.8910   28.3700   48.6150 N   0  0  0  0  0  0  0  0  0  0  0  0
   48.4071   33.4048   44.5950 H   0  0  0  0  0  0  0  0  0  0  0  0
   48.1191   33.8579   42.6380 H   0  0  0  0  0  0  0  0  0  0  0  0
   46.9627   32.2601   41.0359 H   0  0  0  0  0  0  0  0  0  0  0  0
   46.0282   31.5617   42.3546 H   0  0  0  0  0  0  0  0  0  0  0  0
   47.5733   29.7570   43.6804 H   0  0  0  0  0  0  0  0  0  0  0  0
   49.0159   30.7899   44.1422 H   0  0  0  0  0  0  0  0  0  0  0  0
   46.1119   31.2731   44.4514 H   0  0  0  0  0  0  0  0  0  0  0  0
   42.9922   36.4299   41.6996 H   0  0  0  0  0  0  0  0  0  0  0  0
   43.1230   34.0002   40.8954 H   0  0  0  0  0  0  0  0  0  0  0  0
   44.1039   38.0879   42.9222 H   0  0  0  0  0  0  0  0  0  0  0  0
   46.7389   33.6370   46.1307 H   0  0  0  0  0  0  0  0  0  0  0  0
   46.7933   33.2011   48.0243 H   0  0  0  0  0  0  0  0  0  0  0  0
   45.4516   32.6566   49.9976 H   0  0  0  0  0  0  0  0  0  0  0  0
   44.5875   30.3452   50.2040 H   0  0  0  0  0  0  0  0  0  0  0  0
   44.3349   28.2060   49.4664 H   0  0  0  0  0  0  0  0  0  0  0  0
   45.0427   27.6039   47.9435 H   0  0  0  0  0  0  0  0  0  0  0  0
  1  6  1  0
  1 14  1  0
  2  1  1  0
  3  4  1  0
  3  2  1  0
  4  5  1  0
  5  6  1  0
  6 15  1  0
  7 12  2  0
  7 13  1  0
  8  7  1  0
  9 10  1  0
  9  8  2  0
 10 11  2  0
 11  2  1  0
 11 12  1  0
 15 18  1  0
 16 17  1  0
 17 22  2  0
 18 17  1  0
 18 19  2  0
 19 20  1  0
 20 21  2  0
 22 23  1  0
 22 21  1  0
  1 24  1  1
  2 25  1  6
  3 26  1  0
  3 27  1  0
  5 28  1  0
  5 29  1  0
  6 30  1  1
  8 31  1  0
  9 32  1  0
 13 33  1  0
 14 34  1  0
 19 35  1  0
 20 36  1  0
 21 37  1  0
 23 38  1  0
 23 39  1  0
M  ISO  8  24  13  25  13  26  13  27  13  28  13  29  13  30  13  31  14
M  ISO  6  32  14  33   3  34   3  35  14  36  14  37  14
M  END
>  <minimizedAffinity>  (1) 
-5.54286575

>  <minimizedRMSD>  (1) 
0.218005225

$$$$
