
     RDKit          3D

 43 45  0  0  1  0  0  0  0  0999 V2000
   47.5240   33.0010   44.2580 C   0  0  2  0  0  0  0  0  0  0  0  0
   47.3920   33.4300   42.8410 C   0  0  1  0  0  0  0  0  0  0  0  0
   47.3100   32.2360   41.8870 C   0  0  0  0  0  0  0  0  0  0  0  0
   48.4500   31.4810   42.1890 O   0  0  0  0  0  0  0  0  0  0  0  0
   48.3140   30.8230   43.3930 C   0  0  0  0  0  0  0  0  0  0  0  0
   47.3590   31.4720   44.3460 C   0  0  1  0  0  0  0  0  0  0  0  0
   45.0320   36.2250   42.8340 C   0  0  0  0  0  0  0  0  0  0  0  0
   43.9900   35.8060   41.9700 C   0  0  0  0  0  0  0  0  0  0  0  0
   44.1560   34.5070   41.3970 C   0  0  0  0  0  0  0  0  0  0  0  0
   45.2580   33.7960   41.7090 N   0  0  0  0  0  0  0  0  0  0  0  0
   46.2090   34.2520   42.5360 C   0  0  0  0  0  0  0  0  0  0  0  0
   46.0950   35.4740   43.0990 N   0  0  0  0  0  0  0  0  0  0  0  0
   44.8860   37.4630   43.3910 O   0  0  0  0  0  0  0  0  0  0  0  0
   46.5810   33.5830   45.1130 O   0  0  0  0  0  0  0  0  0  0  0  0
   47.5660   31.1250   45.6600 O   0  0  0  0  0  0  0  0  0  0  0  0
   46.1220   28.8710   45.2990 F   0  0  0  0  0  0  0  0  0  0  0  0
   46.1100   29.6260   46.4180 C   0  0  0  0  0  0  0  0  0  0  0  0
   46.8150   30.7820   46.6900 C   0  0  0  0  0  0  0  0  0  0  0  0
   46.5910   31.3210   47.9480 C   0  0  0  0  0  0  0  0  0  0  0  0
   45.7600   30.8280   48.9180 C   0  0  0  0  0  0  0  0  0  0  0  0
   45.0930   29.6860   48.5940 C   0  0  0  0  0  0  0  0  0  0  0  0
   45.2400   29.0590   47.3610 C   0  0  0  0  0  0  0  0  0  0  0  0
   44.4500   27.8110   47.1770 C   0  0  0  0  0  0  0  0  0  0  0  0
   44.7250   26.9610   48.3970 C   0  0  0  0  0  0  0  0  0  0  0  0
   48.5209   33.3313   44.5851 H   0  0  0  0  0  0  0  0  0  0  0  0
   48.3001   34.0335   42.6958 H   0  0  0  0  0  0  0  0  0  0  0  0
   47.3292   32.5708   40.8394 H   0  0  0  0  0  0  0  0  0  0  0  0
   46.3790   31.6624   42.0063 H   0  0  0  0  0  0  0  0  0  0  0  0
   47.9573   29.8026   43.1894 H   0  0  0  0  0  0  0  0  0  0  0  0
   49.3023   30.8424   43.8757 H   0  0  0  0  0  0  0  0  0  0  0  0
   46.3561   31.1285   44.0524 H   0  0  0  0  0  0  0  0  0  0  0  0
   43.1145   36.4363   41.7552 H   0  0  0  0  0  0  0  0  0  0  0  0
   43.3984   34.0951   40.7140 H   0  0  0  0  0  0  0  0  0  0  0  0
   44.0869   38.0087   43.1819 H   0  0  0  0  0  0  0  0  0  0  0  0
   46.8439   33.4208   46.0536 H   0  0  0  0  0  0  0  0  0  0  0  0
   47.1393   32.2427   48.1925 H   0  0  0  0  0  0  0  0  0  0  0  0
   45.6393   31.3214   49.8937 H   0  0  0  0  0  0  0  0  0  0  0  0
   44.4121   29.2424   49.3354 H   0  0  0  0  0  0  0  0  0  0  0  0
   43.3773   28.0443   47.1074 H   0  0  0  0  0  0  0  0  0  0  0  0
   44.7306   27.2890   46.2503 H   0  0  0  0  0  0  0  0  0  0  0  0
   44.5341   27.5510   49.3056 H   0  0  0  0  0  0  0  0  0  0  0  0
   44.0659   26.0804   48.3865 H   0  0  0  0  0  0  0  0  0  0  0  0
   45.7750   26.6333   48.3865 H   0  0  0  0  0  0  0  0  0  0  0  0
  1  6  1  0
  1 14  1  0
  2  1  1  0
  3  4  1  0
  3  2  1  0
  4  5  1  0
  5  6  1  0
  6 15  1  0
  7 12  2  0
  7 13  1  0
  8  7  1  0
  9 10  1  0
  9  8  2  0
 10 11  2  0
 11  2  1  0
 11 12  1  0
 15 18  1  0
 16 17  1  0
 17 18  2  0
 17 22  1  0
 18 19  1  0
 19 20  2  0
 21 20  1  0
 22 21  2  0
 23 22  1  0
 23 24  1  0
  1 25  1  1
  2 26  1  6
  3 27  1  0
  3 28  1  0
  5 29  1  0
  5 30  1  0
  6 31  1  6
  8 32  1  0
  9 33  1  0
 13 34  1  0
 14 35  1  0
 19 36  1  0
 20 37  1  0
 21 38  1  0
 23 39  1  0
 23 40  1  0
 24 41  1  0
 24 42  1  0
 24 43  1  0
M  ISO  8  25  13  26  13  27  13  28  13  29  13  30  13  31  13  32  14
M  ISO  8  33  14  34   3  35   3  36  14  37  14  38  14  39   8  40   8
M  ISO  3  41   8  42   8  43   8
M  END
>  <minimizedAffinity>  (1) 
-5.1431632

>  <minimizedRMSD>  (1) 
0.730078816

$$$$
