
     RDKit          3D

 36 38  0  0  1  0  0  0  0  0999 V2000
   45.6470   31.5910   47.1570 C   0  0  0  0  0  0  0  0  0  0  0  0
   45.6130   32.0340   48.4790 C   0  0  0  0  0  0  0  0  0  0  0  0
   45.3640   31.1650   49.5280 C   0  0  0  0  0  0  0  0  0  0  0  0
   45.1470   29.8400   49.2600 C   0  0  0  0  0  0  0  0  0  0  0  0
   45.1830   29.4080   47.9410 C   0  0  0  0  0  0  0  0  0  0  0  0
   45.4270   30.2750   46.9410 N   0  0  0  0  0  0  0  0  0  0  0  0
   44.7810   36.5550   43.8180 C   0  0  0  0  0  0  0  0  0  0  0  0
   45.6890   36.2670   42.8010 C   0  0  0  0  0  0  0  0  0  0  0  0
   46.3650   35.0350   42.8490 C   0  0  0  0  0  0  0  0  0  0  0  0
   46.0860   34.1960   43.8990 N   0  0  0  0  0  0  0  0  0  0  0  0
   45.2010   34.5170   44.8570 C   0  0  0  0  0  0  0  0  0  0  0  0
   44.5290   35.7040   44.8400 N   0  0  0  0  0  0  0  0  0  0  0  0
   45.9120   32.5310   46.0650 C   0  0  0  0  0  0  0  0  0  0  0  0
   46.9250   32.3620   45.3420 O   0  0  0  0  0  0  0  0  0  0  0  0
   44.9730   33.5920   45.9040 N   0  0  0  0  0  0  0  0  0  0  0  0
   46.2890   27.3360   47.3650 C   0  0  2  0  0  0  0  0  0  0  0  0
   44.9400   27.9620   47.7200 C   0  0  1  0  0  0  0  0  0  0  0  0
   44.5440   27.3330   48.9000 O   0  0  0  0  0  0  0  0  0  0  0  0
   44.7930   25.9890   48.5850 C   0  0  0  0  0  0  0  0  0  0  0  0
   46.2700   26.0750   48.2120 C   0  0  1  0  0  0  0  0  0  0  0  0
   47.3460   28.1640   47.7930 O   0  0  0  0  0  0  0  0  0  0  0  0
   46.5970   24.9960   47.4220 O   0  0  0  0  0  0  0  0  0  0  0  0
   45.7881   33.0986   48.6934 H   0  0  0  0  0  0  0  0  0  0  0  0
   45.3408   31.5347   50.5638 H   0  0  0  0  0  0  0  0  0  0  0  0
   44.9475   29.1297   50.0759 H   0  0  0  0  0  0  0  0  0  0  0  0
   44.2458   37.5156   43.7890 H   0  0  0  0  0  0  0  0  0  0  0  0
   45.8715   36.9819   41.9852 H   0  0  0  0  0  0  0  0  0  0  0  0
   47.0917   34.7535   42.0726 H   0  0  0  0  0  0  0  0  0  0  0  0
   44.1579   33.6821   46.5273 H   0  0  0  0  0  0  0  0  0  0  0  0
   46.4318   27.1714   46.2868 H   0  0  0  0  0  0  0  0  0  0  0  0
   44.1669   27.8457   46.9462 H   0  0  0  0  0  0  0  0  0  0  0  0
   44.6278   25.3294   49.4497 H   0  0  0  0  0  0  0  0  0  0  0  0
   44.1416   25.5669   47.8056 H   0  0  0  0  0  0  0  0  0  0  0  0
   46.9621   26.0847   49.0669 H   0  0  0  0  0  0  0  0  0  0  0  0
   47.3704   28.1831   48.7825 H   0  0  0  0  0  0  0  0  0  0  0  0
   46.8307   24.2248   47.9970 H   0  0  0  0  0  0  0  0  0  0  0  0
  1  2  2  0
  2  3  1  0
  4  3  2  0
  5  4  1  0
  6  1  1  0
  6  5  2  0
  7 12  2  0
  8  9  2  0
  8  7  1  0
  9 10  1  0
 10 11  2  0
 11 15  1  0
 12 11  1  0
 13  1  1  0
 14 13  2  0
 15 13  1  0
 16 17  1  0
 16 21  1  0
 16 20  1  0
 17  5  1  0
 17 18  1  0
 19 18  1  0
 20 22  1  0
 20 19  1  0
  2 23  1  0
  3 24  1  0
  4 25  1  0
  7 26  1  0
  8 27  1  0
  9 28  1  0
 15 29  1  0
 16 30  1  6
 17 31  1  6
 19 32  1  0
 19 33  1  0
 20 34  1  1
 21 35  1  0
 22 36  1  0
M  ISO  8  23  14  24  14  25  14  26  14  27  14  28  14  30  13  31  13
M  ISO  5  32  13  33  13  34  13  35   3  36   3
M  END
>  <minimizedAffinity>  (1) 
-5.62748814

>  <minimizedRMSD>  (1) 
0.34448114

$$$$
