
     RDKit          3D

 31 32  0  0  0  0  0  0  0  0999 V2000
   44.5850   36.1140   44.2840 C   0  0  0  0  0  0  0  0  0  0  0  0
   45.3640   35.9640   43.1140 C   0  0  0  0  0  0  0  0  0  0  0  0
   46.2200   34.8610   43.0830 C   0  0  0  0  0  0  0  0  0  0  0  0
   46.2430   34.0290   44.1610 N   0  0  0  0  0  0  0  0  0  0  0  0
   45.4840   34.2110   45.2510 C   0  0  0  0  0  0  0  0  0  0  0  0
   44.6420   35.2750   45.3080 N   0  0  0  0  0  0  0  0  0  0  0  0
   47.0230   34.7090   41.8730 C   0  0  0  0  0  0  0  0  0  0  0  0
   47.8140   33.5650   41.9760 F   0  0  0  0  0  0  0  0  0  0  0  0
   47.9170   35.7720   41.8620 F   0  0  0  0  0  0  0  0  0  0  0  0
   46.2860   34.6380   40.7260 F   0  0  0  0  0  0  0  0  0  0  0  0
   45.5430   33.2850   46.3870 C   0  0  0  0  0  0  0  0  0  0  0  0
   44.9150   33.5780   47.4480 O   0  0  0  0  0  0  0  0  0  0  0  0
   46.3250   32.0560   46.2620 C   0  0  0  0  0  0  0  0  0  0  0  0
   47.0880   31.6260   47.4640 C   0  0  0  0  0  0  0  0  0  0  0  0
   47.8440   30.3740   47.1340 C   0  0  0  0  0  0  0  0  0  0  0  0
   47.4840   29.7470   45.8160 C   0  0  0  0  0  0  0  0  0  0  0  0
   47.5770   30.7140   44.6590 C   0  0  0  0  0  0  0  0  0  0  0  0
   47.3410   32.1360   45.1200 C   0  0  0  0  0  0  0  0  0  0  0  0
   43.8971   36.9700   44.3475 H   0  0  0  0  0  0  0  0  0  0  0  0
   45.2997   36.6746   42.2768 H   0  0  0  0  0  0  0  0  0  0  0  0
   45.5347   31.3127   46.0803 H   0  0  0  0  0  0  0  0  0  0  0  0
   47.7935   32.4176   47.7568 H   0  0  0  0  0  0  0  0  0  0  0  0
   46.3960   31.4360   48.2977 H   0  0  0  0  0  0  0  0  0  0  0  0
   48.9166   30.6172   47.1152 H   0  0  0  0  0  0  0  0  0  0  0  0
   47.5780   29.6394   47.9084 H   0  0  0  0  0  0  0  0  0  0  0  0
   48.1698   28.9078   45.6278 H   0  0  0  0  0  0  0  0  0  0  0  0
   46.4378   29.4140   45.8841 H   0  0  0  0  0  0  0  0  0  0  0  0
   46.8190   30.4492   43.9071 H   0  0  0  0  0  0  0  0  0  0  0  0
   48.5869   30.6485   44.2280 H   0  0  0  0  0  0  0  0  0  0  0  0
   48.2812   32.5812   45.4775 H   0  0  0  0  0  0  0  0  0  0  0  0
   46.9691   32.7655   44.2982 H   0  0  0  0  0  0  0  0  0  0  0  0
  1  6  2  0
  2  1  1  0
  3  2  2  0
  3  4  1  0
  4  5  2  0
  5  6  1  0
  5 11  1  0
  7  8  1  0
  7  3  1  0
  9  7  1  0
 10  7  1  0
 11 12  2  0
 13 11  1  0
 13 14  1  0
 15 14  1  0
 16 15  1  0
 17 18  1  0
 17 16  1  0
 18 13  1  0
  1 19  1  0
  2 20  1  0
 13 21  1  0
 14 22  1  0
 14 23  1  0
 15 24  1  0
 15 25  1  0
 16 26  1  0
 16 27  1  0
 17 28  1  0
 17 29  1  0
 18 30  1  0
 18 31  1  0
M  ISO  8  19  14  20  14  21  13  22  13  23  13  24  13  25  13  26  13
M  ISO  5  27  13  28  13  29  13  30  13  31  13
M  END
>  <minimizedAffinity>  (1) 
-5.14885759

>  <minimizedRMSD>  (1) 
0.611456335

$$$$
