
     RDKit          3D

 39 41  0  0  1  0  0  0  0  0999 V2000
   46.4190   31.9620   47.2640 C   0  0  2  0  0  0  0  0  0  0  0  0
   47.6560   32.3510   48.0580 C   0  0  0  0  0  0  0  0  0  0  0  0
   48.3630   31.0590   48.3030 C   0  0  0  0  0  0  0  0  0  0  0  0
   47.9280   29.8530   47.5450 C   0  0  0  0  0  0  0  0  0  0  0  0
   47.8500   30.3220   46.1110 C   0  0  0  0  0  0  0  0  0  0  0  0
   46.7020   31.2310   46.0500 C   0  0  1  0  0  0  0  0  0  0  0  0
   45.6590   30.1880   45.7610 C   0  0  0  0  0  0  0  0  0  0  0  0
   44.9250   29.5170   46.7110 C   0  0  0  0  0  0  0  0  0  0  0  0
   43.9930   28.5500   46.4140 C   0  0  0  0  0  0  0  0  0  0  0  0
   43.7510   28.2110   45.1390 N   0  0  0  0  0  0  0  0  0  0  0  0
   44.4520   28.8510   44.1890 C   0  0  0  0  0  0  0  0  0  0  0  0
   45.3420   29.7770   44.5210 N   0  0  0  0  0  0  0  0  0  0  0  0
   45.4680   33.0580   47.0710 C   0  0  0  0  0  0  0  0  0  0  0  0
   44.5790   33.3330   47.9210 O   0  0  0  0  0  0  0  0  0  0  0  0
   44.7480   35.6040   44.5470 C   0  0  0  0  0  0  0  0  0  0  0  0
   45.6690   35.3490   43.5130 C   0  0  0  0  0  0  0  0  0  0  0  0
   46.5520   34.2810   43.7200 C   0  0  0  0  0  0  0  0  0  0  0  0
   46.4070   33.6320   44.8830 N   0  0  0  0  0  0  0  0  0  0  0  0
   45.5510   33.8680   45.8470 C   0  0  0  0  0  0  0  0  0  0  0  0
   44.6910   34.8950   45.6680 N   0  0  0  0  0  0  0  0  0  0  0  0
   47.5300   34.0160   42.6660 C   0  0  0  0  0  0  0  0  0  0  0  0
   48.8030   33.9730   43.2060 F   0  0  0  0  0  0  0  0  0  0  0  0
   47.5570   35.1880   41.9040 F   0  0  0  0  0  0  0  0  0  0  0  0
   47.2600   32.9230   41.9340 F   0  0  0  0  0  0  0  0  0  0  0  0
   45.8996   31.2419   47.9134 H   0  0  0  0  0  0  0  0  0  0  0  0
   48.2903   33.0377   47.4783 H   0  0  0  0  0  0  0  0  0  0  0  0
   47.4063   32.8754   48.9921 H   0  0  0  0  0  0  0  0  0  0  0  0
   49.4258   31.2219   48.0708 H   0  0  0  0  0  0  0  0  0  0  0  0
   48.1255   30.8178   49.3496 H   0  0  0  0  0  0  0  0  0  0  0  0
   48.6624   29.0408   47.6500 H   0  0  0  0  0  0  0  0  0  0  0  0
   46.9709   29.4506   47.9084 H   0  0  0  0  0  0  0  0  0  0  0  0
   48.7727   30.8509   45.8303 H   0  0  0  0  0  0  0  0  0  0  0  0
   47.7356   29.4781   45.4147 H   0  0  0  0  0  0  0  0  0  0  0  0
   46.8117   32.0637   45.3397 H   0  0  0  0  0  0  0  0  0  0  0  0
   45.0929   29.7680   47.7687 H   0  0  0  0  0  0  0  0  0  0  0  0
   43.4433   28.0521   47.2263 H   0  0  0  0  0  0  0  0  0  0  0  0
   44.2872   28.6059   43.1294 H   0  0  0  0  0  0  0  0  0  0  0  0
   44.0382   36.4346   44.4193 H   0  0  0  0  0  0  0  0  0  0  0  0
   45.6939   35.9540   42.5947 H   0  0  0  0  0  0  0  0  0  0  0  0
  1  2  1  0
  2  3  1  0
  4  3  1  0
  5  4  1  0
  6  5  1  0
  6  1  1  0
  7  6  1  0
  7  8  2  0
  9  8  1  0
 10  9  2  0
 11 12  2  0
 11 10  1  0
 12  7  1  0
 13  1  1  0
 13 14  2  0
 15 20  2  0
 16 17  2  0
 16 15  1  0
 17 18  1  0
 18 19  2  0
 19 13  1  0
 20 19  1  0
 21 22  1  0
 21 17  1  0
 23 21  1  0
 24 21  1  0
  1 25  1  1
  2 26  1  0
  2 27  1  0
  3 28  1  0
  3 29  1  0
  4 30  1  0
  4 31  1  0
  5 32  1  0
  5 33  1  0
  6 34  1  6
  8 35  1  0
  9 36  1  0
 11 37  1  0
 15 38  1  0
 16 39  1  0
M  ISO  8  25  13  26  13  27  13  28  13  29  13  30  13  31  13  32  13
M  ISO  7  33  13  34  13  35  14  36  14  37  14  38  14  39  14
M  END
>  <minimizedAffinity>  (1) 
-5.48336077

>  <minimizedRMSD>  (1) 
1.87882936

$$$$
