
     RDKit          3D

 32 34  0  0  0  0  0  0  0  0999 V2000
   45.6870   31.6970   47.1510 C   0  0  0  0  0  0  0  0  0  0  0  0
   45.7250   32.1440   48.4620 C   0  0  0  0  0  0  0  0  0  0  0  0
   45.4680   31.3650   49.5680 C   0  0  0  0  0  0  0  0  0  0  0  0
   45.1510   30.0450   49.3140 C   0  0  0  0  0  0  0  0  0  0  0  0
   45.1040   29.5610   48.0020 C   0  0  0  0  0  0  0  0  0  0  0  0
   45.3710   30.4050   46.9950 N   0  0  0  0  0  0  0  0  0  0  0  0
   44.8260   36.4970   43.5820 C   0  0  0  0  0  0  0  0  0  0  0  0
   45.8020   36.1990   42.6180 C   0  0  0  0  0  0  0  0  0  0  0  0
   46.5080   34.9900   42.7590 C   0  0  0  0  0  0  0  0  0  0  0  0
   46.2150   34.1760   43.8110 N   0  0  0  0  0  0  0  0  0  0  0  0
   45.2700   34.5030   44.7110 C   0  0  0  0  0  0  0  0  0  0  0  0
   44.5700   35.6680   44.6000 N   0  0  0  0  0  0  0  0  0  0  0  0
   45.9740   32.5970   46.0360 C   0  0  0  0  0  0  0  0  0  0  0  0
   47.0280   32.4320   45.3690 O   0  0  0  0  0  0  0  0  0  0  0  0
   44.9940   33.6220   45.7960 N   0  0  0  0  0  0  0  0  0  0  0  0
   44.7630   28.1590   47.7970 C   0  0  0  0  0  0  0  0  0  0  0  0
   44.5860   27.6760   46.5210 C   0  0  0  0  0  0  0  0  0  0  0  0
   44.2650   26.3400   46.3880 C   0  0  0  0  0  0  0  0  0  0  0  0
   44.1450   25.5830   47.5320 C   0  0  0  0  0  0  0  0  0  0  0  0
   44.3230   26.0720   48.8310 C   0  0  0  0  0  0  0  0  0  0  0  0
   44.6340   27.3800   48.8870 N   0  0  0  0  0  0  0  0  0  0  0  0
   45.9796   33.2005   48.6320 H   0  0  0  0  0  0  0  0  0  0  0  0
   45.5124   31.7689   50.5902 H   0  0  0  0  0  0  0  0  0  0  0  0
   44.9331   29.3668   50.1522 H   0  0  0  0  0  0  0  0  0  0  0  0
   44.2579   37.4352   43.4981 H   0  0  0  0  0  0  0  0  0  0  0  0
   46.0073   36.8853   41.7832 H   0  0  0  0  0  0  0  0  0  0  0  0
   47.2834   34.7071   42.0319 H   0  0  0  0  0  0  0  0  0  0  0  0
   44.1455   33.7134   46.3727 H   0  0  0  0  0  0  0  0  0  0  0  0
   44.6959   28.3282   45.6421 H   0  0  0  0  0  0  0  0  0  0  0  0
   44.1093   25.8924   45.3953 H   0  0  0  0  0  0  0  0  0  0  0  0
   43.8913   24.5189   47.4166 H   0  0  0  0  0  0  0  0  0  0  0  0
   44.2180   25.4428   49.7271 H   0  0  0  0  0  0  0  0  0  0  0  0
  1  2  2  0
  2  3  1  0
  4  3  2  0
  5  4  1  0
  6  1  1  0
  6  5  2  0
  7 12  2  0
  8  9  2  0
  8  7  1  0
  9 10  1  0
 10 11  2  0
 11 15  1  0
 12 11  1  0
 13  1  1  0
 14 13  2  0
 15 13  1  0
 16  5  1  0
 16 21  1  0
 17 16  2  0
 18 17  1  0
 18 19  2  0
 19 20  1  0
 20 21  2  0
  2 22  1  0
  3 23  1  0
  4 24  1  0
  7 25  1  0
  8 26  1  0
  9 27  1  0
 15 28  1  0
 17 29  1  0
 18 30  1  0
 19 31  1  0
 20 32  1  0
M  ISO  8  22  14  23  14  24  14  25  14  26  14  27  14  29  14  30  14
M  ISO  2  31  14  32  14
M  END
>  <minimizedAffinity>  (1) 
-5.45849085

>  <minimizedRMSD>  (1) 
0.399737895

$$$$
