
     RDKit          3D

 31 33  0  0  0  0  0  0  0  0999 V2000
   45.6920   31.6990   47.1760 C   0  0  0  0  0  0  0  0  0  0  0  0
   45.6180   32.1860   48.4710 C   0  0  0  0  0  0  0  0  0  0  0  0
   45.3500   31.3830   49.5650 C   0  0  0  0  0  0  0  0  0  0  0  0
   45.1500   30.0390   49.3300 C   0  0  0  0  0  0  0  0  0  0  0  0
   45.2200   29.5330   48.0410 C   0  0  0  0  0  0  0  0  0  0  0  0
   45.4850   30.3880   47.0490 N   0  0  0  0  0  0  0  0  0  0  0  0
   44.8250   36.4740   43.5870 C   0  0  0  0  0  0  0  0  0  0  0  0
   45.7820   36.1710   42.6200 C   0  0  0  0  0  0  0  0  0  0  0  0
   46.4940   34.9660   42.7580 C   0  0  0  0  0  0  0  0  0  0  0  0
   46.2090   34.1660   43.8280 N   0  0  0  0  0  0  0  0  0  0  0  0
   45.2760   34.4990   44.7390 C   0  0  0  0  0  0  0  0  0  0  0  0
   44.5720   35.6590   44.6280 N   0  0  0  0  0  0  0  0  0  0  0  0
   45.9770   32.5790   46.0480 C   0  0  0  0  0  0  0  0  0  0  0  0
   47.0000   32.3910   45.3490 O   0  0  0  0  0  0  0  0  0  0  0  0
   45.0240   33.6350   45.8220 N   0  0  0  0  0  0  0  0  0  0  0  0
   45.0220   28.1290   47.7060 C   0  0  0  0  0  0  0  0  0  0  0  0
   44.5730   27.1880   48.6080 C   0  0  0  0  0  0  0  0  0  0  0  0
   44.3770   25.8540   48.3220 C   0  0  0  0  0  0  0  0  0  0  0  0
   44.6480   25.4420   47.0500 N   0  0  0  0  0  0  0  0  0  0  0  0
   45.0930   26.3590   46.1460 C   0  0  0  0  0  0  0  0  0  0  0  0
   45.2740   27.6520   46.4560 N   0  0  0  0  0  0  0  0  0  0  0  0
   45.7799   33.2613   48.6369 H   0  0  0  0  0  0  0  0  0  0  0  0
   45.2985   31.7998   50.5817 H   0  0  0  0  0  0  0  0  0  0  0  0
   44.9335   29.3637   50.1709 H   0  0  0  0  0  0  0  0  0  0  0  0
   44.2569   37.4115   43.4963 H   0  0  0  0  0  0  0  0  0  0  0  0
   45.9739   36.8514   41.7773 H   0  0  0  0  0  0  0  0  0  0  0  0
   47.2600   34.6755   42.0239 H   0  0  0  0  0  0  0  0  0  0  0  0
   44.1968   33.7527   46.4244 H   0  0  0  0  0  0  0  0  0  0  0  0
   44.3551   27.5269   49.6316 H   0  0  0  0  0  0  0  0  0  0  0  0
   44.0171   25.1508   49.0875 H   0  0  0  0  0  0  0  0  0  0  0  0
   45.3127   26.0261   45.1209 H   0  0  0  0  0  0  0  0  0  0  0  0
  1  2  2  0
  2  3  1  0
  4  3  2  0
  5  4  1  0
  6  1  1  0
  6  5  2  0
  7 12  2  0
  8  9  2  0
  8  7  1  0
  9 10  1  0
 10 11  2  0
 11 15  1  0
 12 11  1  0
 13  1  1  0
 14 13  2  0
 15 13  1  0
 16  5  1  0
 16 17  2  0
 18 17  1  0
 19 18  2  0
 20 21  2  0
 20 19  1  0
 21 16  1  0
  2 22  1  0
  3 23  1  0
  4 24  1  0
  7 25  1  0
  8 26  1  0
  9 27  1  0
 15 28  1  0
 17 29  1  0
 18 30  1  0
 20 31  1  0
M  ISO  8  22  14  23  14  24  14  25  14  26  14  27  14  29  14  30  14
M  ISO  1  31  14
M  END
>  <minimizedAffinity>  (1) 
-5.44941664

>  <minimizedRMSD>  (1) 
0.405661643

$$$$
