
     RDKit          3D

 27 28  0  0  0  0  0  0  0  0999 V2000
   45.7790   31.7490   47.1960 C   0  0  0  0  0  0  0  0  0  0  0  0
   45.4830   32.2470   48.4550 C   0  0  0  0  0  0  0  0  0  0  0  0
   45.2770   31.4670   49.5680 C   0  0  0  0  0  0  0  0  0  0  0  0
   45.3770   30.0980   49.3850 C   0  0  0  0  0  0  0  0  0  0  0  0
   45.6750   29.5740   48.1170 C   0  0  0  0  0  0  0  0  0  0  0  0
   45.8600   30.4220   47.0890 N   0  0  0  0  0  0  0  0  0  0  0  0
   44.8430   27.8100   46.8180 C   0  0  0  0  0  0  0  0  0  0  0  0
   44.0580   28.6980   46.3700 O   0  0  0  0  0  0  0  0  0  0  0  0
   45.8010   28.2040   47.8150 N   0  0  0  0  0  0  0  0  0  0  0  0
   44.7780   36.6520   43.8210 C   0  0  0  0  0  0  0  0  0  0  0  0
   45.6140   36.3320   42.7440 C   0  0  0  0  0  0  0  0  0  0  0  0
   46.2620   35.0930   42.7750 C   0  0  0  0  0  0  0  0  0  0  0  0
   46.0480   34.2620   43.8450 N   0  0  0  0  0  0  0  0  0  0  0  0
   45.2220   34.6310   44.8630 C   0  0  0  0  0  0  0  0  0  0  0  0
   44.5740   35.8370   44.8620 N   0  0  0  0  0  0  0  0  0  0  0  0
   45.9810   32.6720   46.0740 C   0  0  0  0  0  0  0  0  0  0  0  0
   46.9600   32.4790   45.2990 O   0  0  0  0  0  0  0  0  0  0  0  0
   45.0430   33.7340   45.9370 N   0  0  0  0  0  0  0  0  0  0  0  0
   45.4080   33.3383   48.5713 H   0  0  0  0  0  0  0  0  0  0  0  0
   45.0455   31.9060   50.5497 H   0  0  0  0  0  0  0  0  0  0  0  0
   45.2224   29.4186   50.2362 H   0  0  0  0  0  0  0  0  0  0  0  0
   44.7932   26.7724   46.4562 H   0  0  0  0  0  0  0  0  0  0  0  0
   46.4867   27.5702   48.2497 H   0  0  0  0  0  0  0  0  0  0  0  0
   44.2625   37.6237   43.8104 H   0  0  0  0  0  0  0  0  0  0  0  0
   45.7557   37.0291   41.9050 H   0  0  0  0  0  0  0  0  0  0  0  0
   46.9312   34.7904   41.9561 H   0  0  0  0  0  0  0  0  0  0  0  0
   44.2613   33.8436   46.5986 H   0  0  0  0  0  0  0  0  0  0  0  0
  1  2  2  0
  2  3  1  0
  4  3  2  0
  5  4  1  0
  6  1  1  0
  6  5  2  0
  7  9  1  0
  8  7  2  0
  9  5  1  0
 10 15  2  0
 11 12  2  0
 11 10  1  0
 12 13  1  0
 13 14  2  0
 14 18  1  0
 15 14  1  0
 16  1  1  0
 17 16  2  0
 18 16  1  0
  2 19  1  0
  3 20  1  0
  4 21  1  0
  7 22  1  0
  9 23  1  0
 10 24  1  0
 11 25  1  0
 12 26  1  0
 18 27  1  0
M  ISO  7  19  14  20  14  21  14  22   6  24  14  25  14  26  14
M  END
>  <minimizedAffinity>  (1) 
-5.42212725

>  <minimizedRMSD>  (1) 
0.270290524

$$$$
