
     RDKit          3D

 44 46  0  0  1  0  0  0  0  0999 V2000
   45.7660   31.2440   46.6040 C   0  0  2  0  0  0  0  0  0  0  0  0
   45.8300   30.4810   47.8920 C   0  0  0  0  0  0  0  0  0  0  0  0
   45.0410   29.2330   47.7120 C   0  0  0  0  0  0  0  0  0  0  0  0
   44.3360   29.1030   46.4020 C   0  0  0  0  0  0  0  0  0  0  0  0
   45.2980   29.2610   45.2500 C   0  0  0  0  0  0  0  0  0  0  0  0
   46.2410   30.3480   45.4780 C   0  0  2  0  0  0  0  0  0  0  0  0
   47.5400   29.7170   45.8420 C   0  0  0  0  0  0  0  0  0  0  0  0
   48.6040   29.8580   44.8280 C   0  0  0  0  0  0  0  0  0  0  0  0
   48.3650   30.7740   43.8030 C   0  0  0  0  0  0  0  0  0  0  0  0
   49.2390   31.0650   42.7760 C   0  0  0  0  0  0  0  0  0  0  0  0
   50.4480   30.4040   42.7500 C   0  0  0  0  0  0  0  0  0  0  0  0
   50.7200   29.4910   43.7450 C   0  0  0  0  0  0  0  0  0  0  0  0
   49.8100   29.2390   44.7500 C   0  0  0  0  0  0  0  0  0  0  0  0
   46.4570   32.5530   46.6370 C   0  0  0  0  0  0  0  0  0  0  0  0
   47.3960   32.8080   47.4200 O   0  0  0  0  0  0  0  0  0  0  0  0
   44.5950   35.3480   45.2040 C   0  0  0  0  0  0  0  0  0  0  0  0
   45.1020   35.4710   43.8830 C   0  0  0  0  0  0  0  0  0  0  0  0
   46.0920   34.5740   43.5230 C   0  0  0  0  0  0  0  0  0  0  0  0
   46.4410   33.7040   44.4730 N   0  0  0  0  0  0  0  0  0  0  0  0
   45.9840   33.5780   45.6910 C   0  0  0  0  0  0  0  0  0  0  0  0
   45.0230   34.4380   46.0640 N   0  0  0  0  0  0  0  0  0  0  0  0
   46.6250   34.6760   42.1640 C   0  0  0  0  0  0  0  0  0  0  0  0
   47.2810   33.5150   41.8260 F   0  0  0  0  0  0  0  0  0  0  0  0
   47.5010   35.7120   42.1720 F   0  0  0  0  0  0  0  0  0  0  0  0
   45.6100   34.8400   41.2290 F   0  0  0  0  0  0  0  0  0  0  0  0
   44.7160   31.5201   46.4269 H   0  0  0  0  0  0  0  0  0  0  0  0
   46.8750   30.2336   48.1304 H   0  0  0  0  0  0  0  0  0  0  0  0
   45.4222   31.0813   48.7186 H   0  0  0  0  0  0  0  0  0  0  0  0
   45.7279   28.3799   47.8136 H   0  0  0  0  0  0  0  0  0  0  0  0
   44.2526   29.2603   48.4786 H   0  0  0  0  0  0  0  0  0  0  0  0
   43.8657   28.1103   46.3439 H   0  0  0  0  0  0  0  0  0  0  0  0
   43.5758   29.8951   46.3339 H   0  0  0  0  0  0  0  0  0  0  0  0
   44.7258   29.4721   44.3346 H   0  0  0  0  0  0  0  0  0  0  0  0
   45.8703   28.3267   45.1517 H   0  0  0  0  0  0  0  0  0  0  0  0
   46.3368   30.9741   44.5786 H   0  0  0  0  0  0  0  0  0  0  0  0
   47.8943   30.1780   46.7758 H   0  0  0  0  0  0  0  0  0  0  0  0
   47.3441   28.6387   45.9365 H   0  0  0  0  0  0  0  0  0  0  0  0
   47.4027   31.3068   43.8147 H   0  0  0  0  0  0  0  0  0  0  0  0
   48.9789   31.8019   42.0018 H   0  0  0  0  0  0  0  0  0  0  0  0
   51.1795   30.6011   41.9525 H   0  0  0  0  0  0  0  0  0  0  0  0
   51.6798   28.9536   43.7377 H   0  0  0  0  0  0  0  0  0  0  0  0
   50.0731   28.5029   45.5239 H   0  0  0  0  0  0  0  0  0  0  0  0
   43.8073   36.0439   45.5283 H   0  0  0  0  0  0  0  0  0  0  0  0
   44.7289   36.2358   43.1859 H   0  0  0  0  0  0  0  0  0  0  0  0
  1 14  1  0
  1  2  1  0
  3  2  1  0
  4  3  1  0
  5  6  1  0
  5  4  1  0
  6  7  1  0
  6  1  1  0
  8  7  1  0
  9  8  2  0
 10  9  1  0
 11 10  2  0
 11 12  1  0
 12 13  2  0
 13  8  1  0
 14 15  2  0
 16 21  2  0
 17 16  1  0
 18 17  2  0
 18 19  1  0
 19 20  2  0
 20 21  1  0
 20 14  1  0
 22 24  1  0
 22 18  1  0
 23 22  1  0
 25 22  1  0
  1 26  1  6
  2 27  1  0
  2 28  1  0
  3 29  1  0
  3 30  1  0
  4 31  1  0
  4 32  1  0
  5 33  1  0
  5 34  1  0
  6 35  1  6
  7 36  1  0
  7 37  1  0
  9 38  1  0
 10 39  1  0
 11 40  1  0
 12 41  1  0
 13 42  1  0
 16 43  1  0
 17 44  1  0
M  ISO  8  26  13  27  13  28  13  29  13  30  13  31  13  32  13  33  13
M  ISO  8  34  13  35  13  36   8  37   8  38  14  39  14  40  14  41  14
M  ISO  3  42  14  43  14  44  14
M  END
>  <minimizedAffinity>  (1) 
-5.46312523

>  <minimizedRMSD>  (1) 
1.24734819

$$$$
