
     RDKit          3D

 43 45  0  0  1  0  0  0  0  0999 V2000
   45.7660   31.2480   46.6160 C   0  0  2  0  0  0  0  0  0  0  0  0
   45.8760   30.4660   47.8840 C   0  0  0  0  0  0  0  0  0  0  0  0
   45.0900   29.2170   47.7000 C   0  0  0  0  0  0  0  0  0  0  0  0
   44.3470   29.1050   46.4090 C   0  0  0  0  0  0  0  0  0  0  0  0
   45.3010   29.2730   45.2450 C   0  0  0  0  0  0  0  0  0  0  0  0
   46.2180   30.3810   45.4620 C   0  0  2  0  0  0  0  0  0  0  0  0
   47.5300   29.7390   45.7700 C   0  0  0  0  0  0  0  0  0  0  0  0
   48.4770   30.0760   44.6690 C   0  0  0  0  0  0  0  0  0  0  0  0
   49.6370   29.3030   44.7570 C   0  0  0  0  0  0  0  0  0  0  0  0
   50.6700   29.4280   43.8500 C   0  0  0  0  0  0  0  0  0  0  0  0
   50.5590   30.3460   42.8210 C   0  0  0  0  0  0  0  0  0  0  0  0
   49.4170   31.0860   42.7580 C   0  0  0  0  0  0  0  0  0  0  0  0
   48.4250   30.9480   43.6520 N   0  0  0  0  0  0  0  0  0  0  0  0
   46.4580   32.5600   46.6470 C   0  0  0  0  0  0  0  0  0  0  0  0
   47.3990   32.8210   47.4320 O   0  0  0  0  0  0  0  0  0  0  0  0
   44.5970   35.3470   45.1830 C   0  0  0  0  0  0  0  0  0  0  0  0
   45.1180   35.4600   43.8730 C   0  0  0  0  0  0  0  0  0  0  0  0
   46.1140   34.5650   43.5220 C   0  0  0  0  0  0  0  0  0  0  0  0
   46.4640   33.6990   44.4730 N   0  0  0  0  0  0  0  0  0  0  0  0
   45.9870   33.5830   45.6940 C   0  0  0  0  0  0  0  0  0  0  0  0
   45.0190   34.4390   46.0580 N   0  0  0  0  0  0  0  0  0  0  0  0
   46.6460   34.6780   42.1760 C   0  0  0  0  0  0  0  0  0  0  0  0
   47.3330   33.5160   41.8490 F   0  0  0  0  0  0  0  0  0  0  0  0
   47.5260   35.7110   42.1790 F   0  0  0  0  0  0  0  0  0  0  0  0
   45.6460   34.8050   41.2170 F   0  0  0  0  0  0  0  0  0  0  0  0
   44.7077   31.5160   46.4813 H   0  0  0  0  0  0  0  0  0  0  0  0
   46.9294   30.2221   48.0862 H   0  0  0  0  0  0  0  0  0  0  0  0
   45.4922   31.0470   48.7356 H   0  0  0  0  0  0  0  0  0  0  0  0
   45.7854   28.3671   47.7649 H   0  0  0  0  0  0  0  0  0  0  0  0
   44.3229   29.2259   48.4883 H   0  0  0  0  0  0  0  0  0  0  0  0
   43.8693   28.1160   46.3484 H   0  0  0  0  0  0  0  0  0  0  0  0
   43.5810   29.8932   46.3642 H   0  0  0  0  0  0  0  0  0  0  0  0
   44.7194   29.4643   44.3311 H   0  0  0  0  0  0  0  0  0  0  0  0
   45.8920   28.3504   45.1476 H   0  0  0  0  0  0  0  0  0  0  0  0
   46.2719   31.0426   44.5849 H   0  0  0  0  0  0  0  0  0  0  0  0
   47.9175   30.1213   46.7259 H   0  0  0  0  0  0  0  0  0  0  0  0
   47.4120   28.6485   45.8524 H   0  0  0  0  0  0  0  0  0  0  0  0
   49.7302   28.5723   45.5740 H   0  0  0  0  0  0  0  0  0  0  0  0
   51.5714   28.8046   43.9443 H   0  0  0  0  0  0  0  0  0  0  0  0
   51.3630   30.4736   42.0812 H   0  0  0  0  0  0  0  0  0  0  0  0
   49.3039   31.8211   41.9476 H   0  0  0  0  0  0  0  0  0  0  0  0
   43.8044   36.0439   45.4930 H   0  0  0  0  0  0  0  0  0  0  0  0
   44.7503   36.2207   43.1686 H   0  0  0  0  0  0  0  0  0  0  0  0
  1 14  1  0
  1  2  1  0
  3  2  1  0
  4  3  1  0
  5  6  1  0
  5  4  1  0
  6  7  1  0
  6  1  1  0
  8  9  2  0
  8  7  1  0
 10  9  1  0
 11 10  2  0
 12 11  1  0
 12 13  2  0
 13  8  1  0
 14 15  2  0
 16 21  2  0
 17 16  1  0
 18 17  2  0
 18 19  1  0
 19 20  2  0
 20 21  1  0
 20 14  1  0
 22 24  1  0
 22 18  1  0
 23 22  1  0
 25 22  1  0
  1 26  1  6
  2 27  1  0
  2 28  1  0
  3 29  1  0
  3 30  1  0
  4 31  1  0
  4 32  1  0
  5 33  1  0
  5 34  1  0
  6 35  1  6
  7 36  1  0
  7 37  1  0
  9 38  1  0
 10 39  1  0
 11 40  1  0
 12 41  1  0
 16 42  1  0
 17 43  1  0
M  ISO  8  26  13  27  13  28  13  29  13  30  13  31  13  32  13  33  13
M  ISO  8  34  13  35  13  36   8  37   8  38  14  39  14  40  14  41  14
M  ISO  2  42  14  43  14
M  END
>  <minimizedAffinity>  (1) 
-5.39930391

>  <minimizedRMSD>  (1) 
1.36177456

$$$$
