
     RDKit          3D

 30 32  0  0  0  0  0  0  0  0999 V2000
   45.6890   31.8080   47.1690 C   0  0  0  0  0  0  0  0  0  0  0  0
   45.7330   32.2840   48.4830 C   0  0  0  0  0  0  0  0  0  0  0  0
   45.4800   31.5040   49.5940 C   0  0  0  0  0  0  0  0  0  0  0  0
   45.1710   30.1880   49.3780 C   0  0  0  0  0  0  0  0  0  0  0  0
   45.1250   29.7040   48.0780 C   0  0  0  0  0  0  0  0  0  0  0  0
   45.3790   30.5000   47.0120 N   0  0  0  0  0  0  0  0  0  0  0  0
   44.8020   36.5630   43.5660 C   0  0  0  0  0  0  0  0  0  0  0  0
   45.7470   36.2440   42.5820 C   0  0  0  0  0  0  0  0  0  0  0  0
   46.4380   35.0420   42.7210 C   0  0  0  0  0  0  0  0  0  0  0  0
   46.1540   34.2490   43.8010 N   0  0  0  0  0  0  0  0  0  0  0  0
   45.2300   34.6010   44.7270 C   0  0  0  0  0  0  0  0  0  0  0  0
   44.5470   35.7640   44.6130 N   0  0  0  0  0  0  0  0  0  0  0  0
   45.9680   32.6960   46.0400 C   0  0  0  0  0  0  0  0  0  0  0  0
   47.0040   32.5190   45.3630 O   0  0  0  0  0  0  0  0  0  0  0  0
   45.0060   33.7210   45.8020 N   0  0  0  0  0  0  0  0  0  0  0  0
   44.8060   28.3220   47.7300 C   0  0  0  0  0  0  0  0  0  0  0  0
   44.2600   27.9980   46.4850 C   0  0  0  0  0  0  0  0  0  0  0  0
   44.0650   26.6370   46.4380 C   0  0  0  0  0  0  0  0  0  0  0  0
   44.5040   26.1880   47.6660 C   0  0  0  0  0  0  0  0  0  0  0  0
   44.9220   27.2100   48.3730 O   0  0  0  0  0  0  0  0  0  0  0  0
   45.9842   33.3432   48.6411 H   0  0  0  0  0  0  0  0  0  0  0  0
   45.5249   31.9226   50.6102 H   0  0  0  0  0  0  0  0  0  0  0  0
   44.9611   29.5204   50.2267 H   0  0  0  0  0  0  0  0  0  0  0  0
   44.2460   37.5079   43.4763 H   0  0  0  0  0  0  0  0  0  0  0  0
   45.9362   36.9166   41.7324 H   0  0  0  0  0  0  0  0  0  0  0  0
   47.1931   34.7374   41.9814 H   0  0  0  0  0  0  0  0  0  0  0  0
   44.1720   33.8146   46.3991 H   0  0  0  0  0  0  0  0  0  0  0  0
   44.0260   28.7100   45.6798 H   0  0  0  0  0  0  0  0  0  0  0  0
   43.6528   26.0422   45.6096 H   0  0  0  0  0  0  0  0  0  0  0  0
   44.5035   25.1396   47.9991 H   0  0  0  0  0  0  0  0  0  0  0  0
  1  2  2  0
  2  3  1  0
  4  3  2  0
  5  4  1  0
  6  1  1  0
  6  5  2  0
  7 12  2  0
  8  9  2  0
  8  7  1  0
  9 10  1  0
 10 11  2  0
 11 15  1  0
 12 11  1  0
 13  1  1  0
 14 13  2  0
 15 13  1  0
 16  5  1  0
 16 20  1  0
 17 16  2  0
 18 17  1  0
 18 19  2  0
 19 20  1  0
  2 21  1  0
  3 22  1  0
  4 23  1  0
  7 24  1  0
  8 25  1  0
  9 26  1  0
 15 27  1  0
 17 28  1  0
 18 29  1  0
 19 30  1  0
M  ISO  8  21  14  22  14  23  14  24  14  25  14  26  14  28  14  29  14
M  ISO  1  30  14
M  END
>  <minimizedAffinity>  (1) 
-5.41337013

>  <minimizedRMSD>  (1) 
0.527314484

$$$$
