
     RDKit          3D

 41 43  0  0  1  0  0  0  0  0999 V2000
   45.7670   31.2560   46.6210 C   0  0  2  0  0  0  0  0  0  0  0  0
   45.8370   30.4920   47.9030 C   0  0  0  0  0  0  0  0  0  0  0  0
   45.0450   29.2440   47.7090 C   0  0  0  0  0  0  0  0  0  0  0  0
   44.3520   29.1140   46.4000 C   0  0  0  0  0  0  0  0  0  0  0  0
   45.3450   29.2620   45.2710 C   0  0  0  0  0  0  0  0  0  0  0  0
   46.2620   30.3710   45.4940 C   0  0  2  0  0  0  0  0  0  0  0  0
   47.5560   29.7350   45.8590 C   0  0  0  0  0  0  0  0  0  0  0  0
   48.5370   29.9370   44.7620 C   0  0  0  0  0  0  0  0  0  0  0  0
   49.7470   29.4290   44.3370 C   0  0  0  0  0  0  0  0  0  0  0  0
   50.1480   30.0740   43.1860 C   0  0  0  0  0  0  0  0  0  0  0  0
   49.1810   30.9700   42.9170 N   0  0  0  0  0  0  0  0  0  0  0  0
   48.2380   30.8940   43.8360 N   0  0  0  0  0  0  0  0  0  0  0  0
   46.4590   32.5690   46.6560 C   0  0  0  0  0  0  0  0  0  0  0  0
   47.3900   32.8340   47.4470 O   0  0  0  0  0  0  0  0  0  0  0  0
   44.5970   35.3440   45.1730 C   0  0  0  0  0  0  0  0  0  0  0  0
   45.1220   35.4620   43.8590 C   0  0  0  0  0  0  0  0  0  0  0  0
   46.1280   34.5650   43.5200 C   0  0  0  0  0  0  0  0  0  0  0  0
   46.4790   33.7010   44.4750 N   0  0  0  0  0  0  0  0  0  0  0  0
   45.9930   33.5870   45.6950 C   0  0  0  0  0  0  0  0  0  0  0  0
   45.0190   34.4430   46.0500 N   0  0  0  0  0  0  0  0  0  0  0  0
   46.6710   34.6720   42.1750 C   0  0  0  0  0  0  0  0  0  0  0  0
   47.3670   33.5140   41.8600 F   0  0  0  0  0  0  0  0  0  0  0  0
   47.5330   35.7210   42.1800 F   0  0  0  0  0  0  0  0  0  0  0  0
   45.6740   34.7880   41.2140 F   0  0  0  0  0  0  0  0  0  0  0  0
   44.7135   31.5204   46.4475 H   0  0  0  0  0  0  0  0  0  0  0  0
   46.8824   30.2435   48.1383 H   0  0  0  0  0  0  0  0  0  0  0  0
   45.4359   31.0864   48.7372 H   0  0  0  0  0  0  0  0  0  0  0  0
   45.7300   28.3898   47.8145 H   0  0  0  0  0  0  0  0  0  0  0  0
   44.2483   29.2751   48.4669 H   0  0  0  0  0  0  0  0  0  0  0  0
   43.8746   28.1250   46.3375 H   0  0  0  0  0  0  0  0  0  0  0  0
   43.5901   29.9029   46.3156 H   0  0  0  0  0  0  0  0  0  0  0  0
   44.7950   29.4385   44.3349 H   0  0  0  0  0  0  0  0  0  0  0  0
   45.9373   28.3368   45.2155 H   0  0  0  0  0  0  0  0  0  0  0  0
   46.3536   31.0141   44.6063 H   0  0  0  0  0  0  0  0  0  0  0  0
   47.9407   30.1916   46.7829 H   0  0  0  0  0  0  0  0  0  0  0  0
   47.4018   28.6575   46.0176 H   0  0  0  0  0  0  0  0  0  0  0  0
   50.3084   28.6286   44.8411 H   0  0  0  0  0  0  0  0  0  0  0  0
   51.0666   29.8936   42.6084 H   0  0  0  0  0  0  0  0  0  0  0  0
   49.1777   31.6168   42.1154 H   0  0  0  0  0  0  0  0  0  0  0  0
   43.7987   36.0359   45.4795 H   0  0  0  0  0  0  0  0  0  0  0  0
   44.7540   36.2190   43.1508 H   0  0  0  0  0  0  0  0  0  0  0  0
  1 13  1  0
  1  2  1  0
  3  2  1  0
  4  3  1  0
  5  6  1  0
  5  4  1  0
  6  7  1  0
  6  1  1  0
  8  7  1  0
  9  8  1  0
 10  9  2  0
 11 10  1  0
 11 12  1  0
 12  8  2  0
 13 14  2  0
 15 20  2  0
 16 15  1  0
 17 16  2  0
 17 18  1  0
 18 19  2  0
 19 20  1  0
 19 13  1  0
 21 23  1  0
 21 17  1  0
 22 21  1  0
 24 21  1  0
  1 25  1  6
  2 26  1  0
  2 27  1  0
  3 28  1  0
  3 29  1  0
  4 30  1  0
  4 31  1  0
  5 32  1  0
  5 33  1  0
  6 34  1  6
  7 35  1  0
  7 36  1  0
  9 37  1  0
 10 38  1  0
 11 39  1  0
 15 40  1  0
 16 41  1  0
M  ISO  8  25  13  26  13  27  13  28  13  29  13  30  13  31  13  32  13
M  ISO  8  33  13  34  13  35   8  36   8  37  14  38  14  39   9  40  14
M  ISO  1  41  14
M  END
>  <minimizedAffinity>  (1) 
-5.25747585

>  <minimizedRMSD>  (1) 
1.08380425

$$$$
