
     RDKit          3D

 26 27  0  0  0  0  0  0  0  0999 V2000
   44.7750   36.6420   43.7520 C   0  0  0  0  0  0  0  0  0  0  0  0
   45.6550   36.3040   42.7070 C   0  0  0  0  0  0  0  0  0  0  0  0
   46.2980   35.0730   42.7820 C   0  0  0  0  0  0  0  0  0  0  0  0
   46.0550   34.2560   43.8500 N   0  0  0  0  0  0  0  0  0  0  0  0
   45.1940   34.6310   44.8340 C   0  0  0  0  0  0  0  0  0  0  0  0
   44.5500   35.8190   44.7960 N   0  0  0  0  0  0  0  0  0  0  0  0
   45.9120   32.6660   46.0790 C   0  0  0  0  0  0  0  0  0  0  0  0
   46.9030   32.4620   45.3310 O   0  0  0  0  0  0  0  0  0  0  0  0
   44.9890   33.7360   45.9110 N   0  0  0  0  0  0  0  0  0  0  0  0
   45.6630   31.7620   47.2050 C   0  0  0  0  0  0  0  0  0  0  0  0
   45.6090   32.2540   48.5060 C   0  0  0  0  0  0  0  0  0  0  0  0
   45.3790   31.4590   49.6080 C   0  0  0  0  0  0  0  0  0  0  0  0
   45.1980   30.1190   49.3880 C   0  0  0  0  0  0  0  0  0  0  0  0
   45.2480   29.6030   48.0790 C   0  0  0  0  0  0  0  0  0  0  0  0
   45.4770   30.4290   47.0450 N   0  0  0  0  0  0  0  0  0  0  0  0
   45.0650   28.1670   47.7350 C   0  0  0  0  0  0  0  0  0  0  0  0
   46.2580   27.5420   47.4720 F   0  0  0  0  0  0  0  0  0  0  0  0
   44.5490   27.5210   48.8660 F   0  0  0  0  0  0  0  0  0  0  0  0
   44.1360   28.0410   46.7240 F   0  0  0  0  0  0  0  0  0  0  0  0
   44.2534   37.6098   43.7158 H   0  0  0  0  0  0  0  0  0  0  0  0
   45.8278   36.9876   41.8627 H   0  0  0  0  0  0  0  0  0  0  0  0
   46.9946   34.7605   41.9901 H   0  0  0  0  0  0  0  0  0  0  0  0
   44.1942   33.8557   46.5550 H   0  0  0  0  0  0  0  0  0  0  0  0
   45.7575   33.3326   48.6626 H   0  0  0  0  0  0  0  0  0  0  0  0
   45.3423   31.8829   50.6224 H   0  0  0  0  0  0  0  0  0  0  0  0
   45.0130   29.4441   50.2367 H   0  0  0  0  0  0  0  0  0  0  0  0
  1  6  2  0
  2  3  2  0
  2  1  1  0
  3  4  1  0
  4  5  2  0
  5  9  1  0
  6  5  1  0
  7 10  1  0
  8  7  2  0
  9  7  1  0
 10 11  2  0
 11 12  1  0
 13 12  2  0
 14 13  1  0
 15 10  1  0
 15 14  2  0
 16 14  1  0
 16 18  1  0
 17 16  1  0
 19 16  1  0
  1 20  1  0
  2 21  1  0
  3 22  1  0
  9 23  1  0
 11 24  1  0
 12 25  1  0
 13 26  1  0
M  ISO  6  20  14  21  14  22  14  24  14  25  14  26  14
M  END
>  <minimizedAffinity>  (1) 
-5.41277218

>  <minimizedRMSD>  (1) 
0.222864896

$$$$
