
     RDKit          3D

 26 28  0  0  1  0  0  0  0  0999 V2000
   45.1110   34.1380   42.8310 C   0  0  1  0  0  0  0  0  0  0  0  0
   45.6440   35.5910   42.8400 C   0  0  0  0  0  0  0  0  0  0  0  0
   46.0950   34.5800   41.8620 C   0  0  1  0  0  0  0  0  0  0  0  0
   45.4470   33.3810   44.0610 C   0  0  0  0  0  0  0  0  0  0  0  0
   45.6240   31.9700   43.9270 C   0  0  0  0  0  0  0  0  0  0  0  0
   45.9480   31.2360   45.0780 C   0  0  0  0  0  0  0  0  0  0  0  0
   46.0710   31.9260   46.2480 N   0  0  0  0  0  0  0  0  0  0  0  0
   45.8940   33.2690   46.3280 C   0  0  0  0  0  0  0  0  0  0  0  0
   45.5850   33.9830   45.2410 N   0  0  0  0  0  0  0  0  0  0  0  0
   47.5460   34.2370   41.9480 C   0  0  0  0  0  0  0  0  0  0  0  0
   48.4670   35.1400   42.4420 C   0  0  0  0  0  0  0  0  0  0  0  0
   49.8180   34.9030   42.5610 C   0  0  0  0  0  0  0  0  0  0  0  0
   50.3110   33.6770   42.1610 C   0  0  0  0  0  0  0  0  0  0  0  0
   49.3690   32.8020   41.6740 C   0  0  0  0  0  0  0  0  0  0  0  0
   48.0550   33.0550   41.5680 N   0  0  0  0  0  0  0  0  0  0  0  0
   44.1685   33.5850   42.7050 H   0  0  0  0  0  0  0  0  0  0  0  0
   44.9985   36.4236   42.5237 H   0  0  0  0  0  0  0  0  0  0  0  0
   46.1243   36.2557   43.5731 H   0  0  0  0  0  0  0  0  0  0  0  0
   46.1047   34.4619   40.7684 H   0  0  0  0  0  0  0  0  0  0  0  0
   45.5098   31.4742   42.9517 H   0  0  0  0  0  0  0  0  0  0  0  0
   46.0970   30.1469   45.0383 H   0  0  0  0  0  0  0  0  0  0  0  0
   46.0060   33.7756   47.2979 H   0  0  0  0  0  0  0  0  0  0  0  0
   48.0928   36.1228   42.7647 H   0  0  0  0  0  0  0  0  0  0  0  0
   50.4901   35.6738   42.9660 H   0  0  0  0  0  0  0  0  0  0  0  0
   51.3784   33.4194   42.2271 H   0  0  0  0  0  0  0  0  0  0  0  0
   49.7210   31.8134   41.3441 H   0  0  0  0  0  0  0  0  0  0  0  0
  1  2  1  0
  1  4  1  0
  3 10  1  0
  3  1  1  0
  3  2  1  0
  4  9  1  0
  5  4  2  0
  5  6  1  0
  6  7  2  0
  7  8  1  0
  9  8  2  0
 10 11  2  0
 11 12  1  0
 13 12  2  0
 14 13  1  0
 15 14  2  0
 15 10  1  0
  1 16  1  6
  2 17  1  0
  2 18  1  0
  3 19  1  6
  5 20  1  0
  6 21  1  0
  8 22  1  0
 11 23  1  0
 12 24  1  0
 13 25  1  0
 14 26  1  0
M  ISO  8  16  13  17  13  18  13  19  13  20  14  21  14  22  14  23  14
M  ISO  3  24  14  25  14  26  14
M  END
>  <minimizedAffinity>  (1) 
-4.35839653

>  <minimizedRMSD>  (1) 
2.05106902

$$$$
