
     RDKit          3D

 29 31  0  0  0  0  0  0  0  0999 V2000
   45.6550   31.7250   47.1650 C   0  0  0  0  0  0  0  0  0  0  0  0
   45.5850   32.1720   48.4750 C   0  0  0  0  0  0  0  0  0  0  0  0
   45.3530   31.3670   49.5730 C   0  0  0  0  0  0  0  0  0  0  0  0
   45.1840   30.0310   49.3300 C   0  0  0  0  0  0  0  0  0  0  0  0
   45.2490   29.5390   48.0120 C   0  0  0  0  0  0  0  0  0  0  0  0
   45.4770   30.4120   47.0310 N   0  0  0  0  0  0  0  0  0  0  0  0
   44.7700   36.6490   43.8020 C   0  0  0  0  0  0  0  0  0  0  0  0
   45.6370   36.3360   42.7570 C   0  0  0  0  0  0  0  0  0  0  0  0
   46.2750   35.0970   42.8120 C   0  0  0  0  0  0  0  0  0  0  0  0
   46.0250   34.2680   43.8670 N   0  0  0  0  0  0  0  0  0  0  0  0
   45.1810   34.6160   44.8510 C   0  0  0  0  0  0  0  0  0  0  0  0
   44.5340   35.8170   44.8390 N   0  0  0  0  0  0  0  0  0  0  0  0
   45.8970   32.6350   46.0610 C   0  0  0  0  0  0  0  0  0  0  0  0
   46.8780   32.4410   45.3080 O   0  0  0  0  0  0  0  0  0  0  0  0
   44.9550   33.7180   45.9270 N   0  0  0  0  0  0  0  0  0  0  0  0
   45.0650   28.0930   47.7430 C   0  0  0  0  0  0  0  0  0  0  0  0
   45.3810   27.5720   46.4950 C   0  0  0  0  0  0  0  0  0  0  0  0
   44.9690   25.7470   46.7030 S   0  0  0  0  0  0  0  0  0  0  0  0
   44.4370   26.0820   48.4930 C   0  0  0  0  0  0  0  0  0  0  0  0
   44.6020   27.2210   48.6430 N   0  0  0  0  0  0  0  0  0  0  0  0
   45.7247   33.2484   48.6536 H   0  0  0  0  0  0  0  0  0  0  0  0
   45.3064   31.7792   50.5918 H   0  0  0  0  0  0  0  0  0  0  0  0
   44.9971   29.3402   50.1654 H   0  0  0  0  0  0  0  0  0  0  0  0
   44.2533   37.6199   43.7812 H   0  0  0  0  0  0  0  0  0  0  0  0
   45.8105   37.0351   41.9256 H   0  0  0  0  0  0  0  0  0  0  0  0
   46.9702   34.7921   42.0159 H   0  0  0  0  0  0  0  0  0  0  0  0
   44.1629   33.8337   46.5752 H   0  0  0  0  0  0  0  0  0  0  0  0
   45.7728   28.0936   45.6093 H   0  0  0  0  0  0  0  0  0  0  0  0
   44.0561   25.3566   49.2269 H   0  0  0  0  0  0  0  0  0  0  0  0
  1  2  2  0
  2  3  1  0
  4  3  2  0
  5  4  1  0
  6  1  1  0
  6  5  2  0
  7 12  2  0
  8  9  2  0
  8  7  1  0
  9 10  1  0
 10 11  2  0
 11 15  1  0
 12 11  1  0
 13  1  1  0
 14 13  2  0
 15 13  1  0
 16  5  1  0
 16 20  1  0
 17 18  1  0
 17 16  2  0
 18 19  1  0
 19 20  2  0
  2 21  1  0
  3 22  1  0
  4 23  1  0
  7 24  1  0
  8 25  1  0
  9 26  1  0
 15 27  1  0
 17 28  1  0
 19 29  1  0
M  ISO  8  21  14  22  14  23  14  24  14  25  14  26  14  28  14  29  14
M  END
>  <minimizedAffinity>  (1) 
-5.31941748

>  <minimizedRMSD>  (1) 
0.12928009

$$$$
