
     RDKit          3D

 20 21  0  0  1  0  0  0  0  0999 V2000
   44.8320   34.5330   43.6530 C   0  0  1  0  0  0  0  0  0  0  0  0
   45.7120   35.6160   42.9810 C   0  0  0  0  0  0  0  0  0  0  0  0
   45.0200   34.5420   42.2200 C   0  0  2  0  0  0  0  0  0  0  0  0
   45.6160   33.6300   44.5500 C   0  0  0  0  0  0  0  0  0  0  0  0
   46.4360   32.6230   43.9490 C   0  0  0  0  0  0  0  0  0  0  0  0
   47.1670   31.8070   44.8060 C   0  0  0  0  0  0  0  0  0  0  0  0
   47.0620   32.0110   46.1680 N   0  0  0  0  0  0  0  0  0  0  0  0
   46.2630   32.9880   46.6720 C   0  0  0  0  0  0  0  0  0  0  0  0
   45.5440   33.7940   45.8910 N   0  0  0  0  0  0  0  0  0  0  0  0
   43.8730   34.8800   41.3110 C   0  0  0  0  0  0  0  0  0  0  0  0
   44.0980   34.4750   40.0070 F   0  0  0  0  0  0  0  0  0  0  0  0
   42.7050   34.2650   41.7410 F   0  0  0  0  0  0  0  0  0  0  0  0
   43.6830   36.2460   41.3770 F   0  0  0  0  0  0  0  0  0  0  0  0
   43.9224   34.4576   44.2670 H   0  0  0  0  0  0  0  0  0  0  0  0
   45.3648   36.6579   42.9179 H   0  0  0  0  0  0  0  0  0  0  0  0
   46.7451   35.9792   43.0845 H   0  0  0  0  0  0  0  0  0  0  0  0
   45.3641   33.7862   41.4987 H   0  0  0  0  0  0  0  0  0  0  0  0
   46.4860   32.4996   42.8571 H   0  0  0  0  0  0  0  0  0  0  0  0
   47.8165   31.0141   44.4066 H   0  0  0  0  0  0  0  0  0  0  0  0
   46.2077   33.1182   47.7629 H   0  0  0  0  0  0  0  0  0  0  0  0
  1  4  1  0
  2  1  1  0
  3  2  1  0
  3  1  1  0
  4  9  1  0
  5  4  2  0
  5  6  1  0
  6  7  2  0
  7  8  1  0
  9  8  2  0
 10 13  1  0
 10 12  1  0
 10  3  1  0
 11 10  1  0
  1 14  1  6
  2 15  1  0
  2 16  1  0
  3 17  1  6
  5 18  1  0
  6 19  1  0
  8 20  1  0
M  ISO  7  14  13  15  13  16  13  17  13  18  14  19  14  20  14
M  END
>  <minimizedAffinity>  (1) 
-3.63889265

>  <minimizedRMSD>  (1) 
1.33732808

$$$$
