
     RDKit          3D

 19 20  0  0  1  0  0  0  0  0999 V2000
   44.7520   34.4790   43.4950 C   0  0  1  0  0  0  0  0  0  0  0  0
   44.9440   35.9780   43.8300 C   0  0  0  0  0  0  0  0  0  0  0  0
   45.4210   35.3690   42.5680 C   0  0  1  0  0  0  0  0  0  0  0  0
   45.5380   33.5880   44.4110 C   0  0  0  0  0  0  0  0  0  0  0  0
   46.1640   32.4270   43.8610 C   0  0  0  0  0  0  0  0  0  0  0  0
   46.9020   31.6350   44.7360 C   0  0  0  0  0  0  0  0  0  0  0  0
   46.9860   32.0110   46.0590 N   0  0  0  0  0  0  0  0  0  0  0  0
   46.3670   33.1270   46.5200 C   0  0  0  0  0  0  0  0  0  0  0  0
   45.6530   33.9080   45.7190 N   0  0  0  0  0  0  0  0  0  0  0  0
   46.8800   35.2960   42.4660 N   0  0  0  0  0  0  0  0  0  0  0  0
   43.9372   33.7529   43.3576 H   0  0  0  0  0  0  0  0  0  0  0  0
   44.0845   36.6645   43.8281 H   0  0  0  0  0  0  0  0  0  0  0  0
   45.3912   36.5575   44.6511 H   0  0  0  0  0  0  0  0  0  0  0  0
   45.2611   35.5593   41.4965 H   0  0  0  0  0  0  0  0  0  0  0  0
   46.0671   32.1711   42.7956 H   0  0  0  0  0  0  0  0  0  0  0  0
   47.4084   30.7264   44.3782 H   0  0  0  0  0  0  0  0  0  0  0  0
   46.4593   33.3909   47.5839 H   0  0  0  0  0  0  0  0  0  0  0  0
   47.2896   35.2755   43.4108 H   0  0  0  0  0  0  0  0  0  0  0  0
   47.1463   34.4406   41.9577 H   0  0  0  0  0  0  0  0  0  0  0  0
  1  2  1  0
  1  4  1  0
  3  1  1  0
  3  2  1  0
  4  9  1  0
  5  4  2  0
  5  6  1  0
  6  7  2  0
  7  8  1  0
  9  8  2  0
 10  3  1  0
  1 11  1  6
  2 12  1  0
  2 13  1  0
  3 14  1  6
  5 15  1  0
  6 16  1  0
  8 17  1  0
 10 18  1  0
 10 19  1  0
M  ISO  8  11  13  12  13  13  13  14  13  15  14  16  14  17  14  18   5
M  ISO  1  19   5
M  END
>  <minimizedAffinity>  (1) 
-2.95922017

>  <minimizedRMSD>  (1) 
0.672237813

$$$$
