
     RDKit          3D

 30 32  0  0  1  0  0  0  0  0999 V2000
   44.7660   34.5810   43.2920 C   0  0  1  0  0  0  0  0  0  0  0  0
   45.6520   35.7800   42.9860 C   0  0  0  0  0  0  0  0  0  0  0  0
   45.1030   35.0750   41.9300 C   0  0  1  0  0  0  0  0  0  0  0  0
   45.9690   34.3780   40.9760 C   0  0  0  0  0  0  0  0  0  0  0  0
   45.4810   33.4760   40.0180 C   0  0  0  0  0  0  0  0  0  0  0  0
   46.2410   32.7590   39.1250 C   0  0  0  0  0  0  0  0  0  0  0  0
   47.5790   32.9420   39.1820 C   0  0  0  0  0  0  0  0  0  0  0  0
   48.1150   33.8080   40.0930 C   0  0  0  0  0  0  0  0  0  0  0  0
   47.3240   34.5120   40.9690 C   0  0  0  0  0  0  0  0  0  0  0  0
   48.1290   35.4250   41.8270 C   0  0  0  0  0  0  0  0  0  0  0  0
   45.4410   33.4090   43.8890 C   0  0  0  0  0  0  0  0  0  0  0  0
   45.0110   32.1600   43.4050 C   0  0  0  0  0  0  0  0  0  0  0  0
   45.6520   31.0370   43.9730 C   0  0  0  0  0  0  0  0  0  0  0  0
   46.6150   31.2410   44.9220 N   0  0  0  0  0  0  0  0  0  0  0  0
   46.9790   32.4830   45.3390 C   0  0  0  0  0  0  0  0  0  0  0  0
   46.3960   33.5940   44.8280 N   0  0  0  0  0  0  0  0  0  0  0  0
   43.8311   34.3393   43.8187 H   0  0  0  0  0  0  0  0  0  0  0  0
   45.2933   36.7955   43.2100 H   0  0  0  0  0  0  0  0  0  0  0  0
   46.6743   36.0732   43.2670 H   0  0  0  0  0  0  0  0  0  0  0  0
   44.4653   35.3248   41.0693 H   0  0  0  0  0  0  0  0  0  0  0  0
   44.3915   33.3296   39.9782 H   0  0  0  0  0  0  0  0  0  0  0  0
   45.7830   32.0703   38.3998 H   0  0  0  0  0  0  0  0  0  0  0  0
   48.2379   32.3926   38.4935 H   0  0  0  0  0  0  0  0  0  0  0  0
   49.2059   33.9450   40.1260 H   0  0  0  0  0  0  0  0  0  0  0  0
   47.9320   35.2016   42.8859 H   0  0  0  0  0  0  0  0  0  0  0  0
   49.1985   35.2799   41.6144 H   0  0  0  0  0  0  0  0  0  0  0  0
   47.8511   36.4679   41.6144 H   0  0  0  0  0  0  0  0  0  0  0  0
   44.2293   32.0646   42.6370 H   0  0  0  0  0  0  0  0  0  0  0  0
   45.3818   30.0182   43.6581 H   0  0  0  0  0  0  0  0  0  0  0  0
   47.7612   32.5876   46.1053 H   0  0  0  0  0  0  0  0  0  0  0  0
  1 11  1  0
  2  1  1  0
  3  2  1  0
  3  1  1  0
  4  3  1  0
  5  4  2  0
  6  7  2  0
  6  5  1  0
  7  8  1  0
  8  9  2  0
  9  4  1  0
  9 10  1  0
 11 16  1  0
 12 11  2  0
 12 13  1  0
 13 14  2  0
 14 15  1  0
 16 15  2  0
  1 17  1  1
  2 18  1  0
  2 19  1  0
  3 20  1  6
  5 21  1  0
  6 22  1  0
  7 23  1  0
  8 24  1  0
 10 25  1  0
 10 26  1  0
 10 27  1  0
 12 28  1  0
 13 29  1  0
 15 30  1  0
M  ISO  8  17  13  18  13  19  13  20  13  21  14  22  14  23  14  24  14
M  ISO  6  25   8  26   8  27   8  28  14  29  14  30  14
M  END
>  <minimizedAffinity>  (1) 
-4.17990255

>  <minimizedRMSD>  (1) 
1.12832057

$$$$
