
     RDKit          3D

 38 41  0  0  1  0  0  0  0  0999 V2000
   45.0600   33.3390   41.8850 C   0  0  1  0  0  0  0  0  0  0  0  0
   45.3400   34.1860   40.6760 C   0  0  0  0  0  0  0  0  0  0  0  0
   46.3250   33.2910   41.0630 C   0  0  1  0  0  0  0  0  0  0  0  0
   47.6370   33.7920   41.5530 C   0  0  0  0  0  0  0  0  0  0  0  0
   47.9040   35.1270   41.7320 C   0  0  0  0  0  0  0  0  0  0  0  0
   49.1040   35.6420   42.1400 C   0  0  0  0  0  0  0  0  0  0  0  0
   50.1250   34.7530   42.3920 C   0  0  0  0  0  0  0  0  0  0  0  0
   49.8940   33.3920   42.2230 C   0  0  0  0  0  0  0  0  0  0  0  0
   48.6690   32.9480   41.8100 C   0  0  0  0  0  0  0  0  0  0  0  0
   48.4230   30.8620   42.9510 C   0  0  0  0  0  0  0  0  0  0  0  0
   48.1080   31.7170   43.7690 O   0  0  0  0  0  0  0  0  0  0  0  0
   48.7560   31.5140   41.7150 N   0  0  0  0  0  0  0  0  0  0  0  0
   45.0030   33.9660   43.2050 C   0  0  0  0  0  0  0  0  0  0  0  0
   44.5380   35.2870   43.2530 C   0  0  0  0  0  0  0  0  0  0  0  0
   44.4790   35.8860   44.5210 C   0  0  0  0  0  0  0  0  0  0  0  0
   44.8790   35.1410   45.6010 N   0  0  0  0  0  0  0  0  0  0  0  0
   45.3280   33.8500   45.4880 C   0  0  0  0  0  0  0  0  0  0  0  0
   45.3930   33.2460   44.2690 N   0  0  0  0  0  0  0  0  0  0  0  0
   45.7360   33.1310   46.6910 C   0  0  0  0  0  0  0  0  0  0  0  0
   47.0030   32.5750   46.8780 C   0  0  0  0  0  0  0  0  0  0  0  0
   47.0330   31.9820   48.1070 N   0  0  0  0  0  0  0  0  0  0  0  0
   45.8080   32.1670   48.6720 C   0  0  0  0  0  0  0  0  0  0  0  0
   45.0210   32.8670   47.8060 N   0  0  0  0  0  0  0  0  0  0  0  0
   44.3108   32.6087   42.2246 H   0  0  0  0  0  0  0  0  0  0  0  0
   45.5105   35.2658   40.7985 H   0  0  0  0  0  0  0  0  0  0  0  0
   44.8038   34.3659   39.7325 H   0  0  0  0  0  0  0  0  0  0  0  0
   46.8675   32.4656   40.5790 H   0  0  0  0  0  0  0  0  0  0  0  0
   47.0891   35.8382   41.5316 H   0  0  0  0  0  0  0  0  0  0  0  0
   49.2479   36.7257   42.2622 H   0  0  0  0  0  0  0  0  0  0  0  0
   51.1100   35.1144   42.7225 H   0  0  0  0  0  0  0  0  0  0  0  0
   50.6999   32.6704   42.4224 H   0  0  0  0  0  0  0  0  0  0  0  0
   48.4470   29.7773   43.1321 H   0  0  0  0  0  0  0  0  0  0  0  0
   49.0266   31.0120   40.8573 H   0  0  0  0  0  0  0  0  0  0  0  0
   44.2348   35.8268   42.3438 H   0  0  0  0  0  0  0  0  0  0  0  0
   44.1234   36.9196   44.6446 H   0  0  0  0  0  0  0  0  0  0  0  0
   47.8343   32.6090   46.1584 H   0  0  0  0  0  0  0  0  0  0  0  0
   47.8323   31.4874   48.5281 H   0  0  0  0  0  0  0  0  0  0  0  0
   45.5026   31.8095   49.6664 H   0  0  0  0  0  0  0  0  0  0  0  0
  1 13  1  0
  2  3  1  0
  2  1  1  0
  3  4  1  0
  3  1  1  0
  4  5  2  0
  4  9  1  0
  5  6  1  0
  6  7  2  0
  8  7  1  0
  9  8  2  0
 10 11  2  0
 12  9  1  0
 12 10  1  0
 13 14  2  0
 13 18  1  0
 14 15  1  0
 15 16  2  0
 17 16  1  0
 17 19  1  0
 18 17  2  0
 19 20  2  0
 19 23  1  0
 20 21  1  0
 21 22  1  0
 23 22  2  0
  1 24  1  6
  2 25  1  0
  2 26  1  0
  3 27  1  6
  5 28  1  0
  6 29  1  0
  7 30  1  0
  8 31  1  0
 10 32  1  0
 12 33  1  0
 14 34  1  0
 15 35  1  0
 20 36  1  0
 21 37  1  0
 22 38  1  0
M  ISO  8  24  13  25  13  26  13  27  13  28  14  29  14  30  14  31  14
M  ISO  6  32   6  34  14  35  14  36  14  37   9  38  14
M  END
>  <minimizedAffinity>  (1) 
-6.09495449

>  <minimizedRMSD>  (1) 
2.88833356

$$$$
