
     RDKit          3D

 37 39  0  0  1  0  0  0  0  0999 V2000
   44.6500   34.3990   43.4480 C   0  0  1  0  0  0  0  0  0  0  0  0
   45.2390   35.7700   43.6370 C   0  0  0  0  0  0  0  0  0  0  0  0
   45.4330   35.1620   42.4070 C   0  0  1  0  0  0  0  0  0  0  0  0
   46.8040   34.7780   41.9740 C   0  0  0  0  0  0  0  0  0  0  0  0
   47.9140   34.9500   42.7680 C   0  0  0  0  0  0  0  0  0  0  0  0
   49.1960   34.6560   42.3990 C   0  0  0  0  0  0  0  0  0  0  0  0
   49.3930   34.1490   41.1350 C   0  0  0  0  0  0  0  0  0  0  0  0
   48.2960   33.9590   40.2980 C   0  0  0  0  0  0  0  0  0  0  0  0
   47.0400   34.2760   40.7350 C   0  0  0  0  0  0  0  0  0  0  0  0
   45.7780   32.5910   39.5850 C   0  0  0  0  0  0  0  0  0  0  0  0
   46.3360   32.0150   40.5220 O   0  0  0  0  0  0  0  0  0  0  0  0
   46.1370   33.9840   39.6510 N   0  0  0  0  0  0  0  0  0  0  0  0
   45.2150   33.2720   44.1870 C   0  0  0  0  0  0  0  0  0  0  0  0
   45.1300   32.0140   43.5720 C   0  0  0  0  0  0  0  0  0  0  0  0
   45.6840   30.9330   44.2860 C   0  0  0  0  0  0  0  0  0  0  0  0
   46.2510   31.1940   45.5110 N   0  0  0  0  0  0  0  0  0  0  0  0
   46.2950   32.4480   46.0500 C   0  0  0  0  0  0  0  0  0  0  0  0
   45.7740   33.5100   45.3890 N   0  0  0  0  0  0  0  0  0  0  0  0
   46.9040   32.7080   47.3600 C   0  0  0  0  0  0  0  0  0  0  0  0
   46.0740   32.3050   48.5240 C   0  0  0  0  0  0  0  0  0  0  0  0
   43.6661   33.9091   43.4922 H   0  0  0  0  0  0  0  0  0  0  0  0
   44.5715   36.6411   43.7117 H   0  0  0  0  0  0  0  0  0  0  0  0
   45.9165   36.2107   44.3831 H   0  0  0  0  0  0  0  0  0  0  0  0
   45.2194   35.4261   41.3608 H   0  0  0  0  0  0  0  0  0  0  0  0
   47.7572   35.3557   43.7783 H   0  0  0  0  0  0  0  0  0  0  0  0
   50.0392   34.8185   43.0865 H   0  0  0  0  0  0  0  0  0  0  0  0
   50.4062   33.8964   40.7892 H   0  0  0  0  0  0  0  0  0  0  0  0
   48.4402   33.5539   39.2855 H   0  0  0  0  0  0  0  0  0  0  0  0
   45.1237   32.1245   38.8339 H   0  0  0  0  0  0  0  0  0  0  0  0
   45.7859   34.6952   38.9938 H   0  0  0  0  0  0  0  0  0  0  0  0
   44.6575   31.8791   42.5879 H   0  0  0  0  0  0  0  0  0  0  0  0
   45.6635   29.9124   43.8762 H   0  0  0  0  0  0  0  0  0  0  0  0
   47.8548   32.1572   47.4107 H   0  0  0  0  0  0  0  0  0  0  0  0
   47.0296   33.7984   47.4321 H   0  0  0  0  0  0  0  0  0  0  0  0
   46.6002   32.5605   49.4556 H   0  0  0  0  0  0  0  0  0  0  0  0
   45.1113   32.8360   48.4892 H   0  0  0  0  0  0  0  0  0  0  0  0
   45.8958   31.2201   48.4892 H   0  0  0  0  0  0  0  0  0  0  0  0
  1  2  1  0
  1 13  1  0
  3  1  1  0
  3  2  1  0
  4  3  1  0
  4  5  2  0
  6  5  1  0
  7  6  2  0
  8  9  2  0
  8  7  1  0
  9  4  1  0
 10 12  1  0
 10 11  2  0
 12  9  1  0
 13 18  1  0
 14 13  2  0
 14 15  1  0
 15 16  2  0
 16 17  1  0
 17 19  1  0
 18 17  2  0
 19 20  1  0
  1 21  1  6
  2 22  1  0
  2 23  1  0
  3 24  1  6
  5 25  1  0
  6 26  1  0
  7 27  1  0
  8 28  1  0
 10 29  1  0
 12 30  1  0
 14 31  1  0
 15 32  1  0
 19 33  1  0
 19 34  1  0
 20 35  1  0
 20 36  1  0
 20 37  1  0
M  ISO  8  21  13  22  13  23  13  24  13  25  14  26  14  27  14  28  14
M  ISO  8  29   6  31  14  32  14  33   8  34   8  35   8  36   8  37   8
M  END
>  <minimizedAffinity>  (1) 
-4.67165518

>  <minimizedRMSD>  (1) 
0.629556239

$$$$
