
     RDKit          3D

 33 35  0  0  1  0  0  0  0  0999 V2000
   44.6590   34.4180   43.4820 C   0  0  1  0  0  0  0  0  0  0  0  0
   45.2420   35.7920   43.6470 C   0  0  0  0  0  0  0  0  0  0  0  0
   45.4240   35.1730   42.4200 C   0  0  1  0  0  0  0  0  0  0  0  0
   46.7910   34.7930   41.9740 C   0  0  0  0  0  0  0  0  0  0  0  0
   47.9090   34.9750   42.7500 C   0  0  0  0  0  0  0  0  0  0  0  0
   49.1880   34.6780   42.3720 C   0  0  0  0  0  0  0  0  0  0  0  0
   49.3730   34.1560   41.1130 C   0  0  0  0  0  0  0  0  0  0  0  0
   48.2660   33.9560   40.2900 C   0  0  0  0  0  0  0  0  0  0  0  0
   47.0140   34.2770   40.7360 C   0  0  0  0  0  0  0  0  0  0  0  0
   45.7330   32.5850   39.6240 C   0  0  0  0  0  0  0  0  0  0  0  0
   46.2950   32.0190   40.5610 O   0  0  0  0  0  0  0  0  0  0  0  0
   46.1030   33.9750   39.6620 N   0  0  0  0  0  0  0  0  0  0  0  0
   45.2390   33.2990   44.2220 C   0  0  0  0  0  0  0  0  0  0  0  0
   45.1460   32.0340   43.6230 C   0  0  0  0  0  0  0  0  0  0  0  0
   45.7110   30.9620   44.3370 C   0  0  0  0  0  0  0  0  0  0  0  0
   46.3010   31.2350   45.5490 N   0  0  0  0  0  0  0  0  0  0  0  0
   46.3540   32.4970   46.0760 C   0  0  0  0  0  0  0  0  0  0  0  0
   45.8180   33.5510   45.4100 N   0  0  0  0  0  0  0  0  0  0  0  0
   47.0070   32.6540   47.3730 C   0  0  0  0  0  0  0  0  0  0  0  0
   46.3060   32.4150   48.3890 O   0  0  0  0  0  0  0  0  0  0  0  0
   43.6779   33.9249   43.5478 H   0  0  0  0  0  0  0  0  0  0  0  0
   44.5704   36.6600   43.7215 H   0  0  0  0  0  0  0  0  0  0  0  0
   45.9271   36.2441   44.3793 H   0  0  0  0  0  0  0  0  0  0  0  0
   45.1953   35.4237   41.3737 H   0  0  0  0  0  0  0  0  0  0  0  0
   47.7633   35.3935   43.7568 H   0  0  0  0  0  0  0  0  0  0  0  0
   50.0377   34.8499   43.0491 H   0  0  0  0  0  0  0  0  0  0  0  0
   50.3827   33.8994   40.7598 H   0  0  0  0  0  0  0  0  0  0  0  0
   48.3997   33.5395   39.2807 H   0  0  0  0  0  0  0  0  0  0  0  0
   45.0661   32.1122   38.8880 H   0  0  0  0  0  0  0  0  0  0  0  0
   45.7544   34.6774   38.9941 H   0  0  0  0  0  0  0  0  0  0  0  0
   44.6578   31.8884   42.6481 H   0  0  0  0  0  0  0  0  0  0  0  0
   45.6819   29.9371   43.9385 H   0  0  0  0  0  0  0  0  0  0  0  0
   48.0586   32.9655   47.4567 H   0  0  0  0  0  0  0  0  0  0  0  0
  1  2  1  0
  1 13  1  0
  3  1  1  0
  3  2  1  0
  4  3  1  0
  4  5  2  0
  6  5  1  0
  7  6  2  0
  8  9  2  0
  8  7  1  0
  9  4  1  0
 10 12  1  0
 10 11  2  0
 12  9  1  0
 13 18  1  0
 14 13  2  0
 14 15  1  0
 15 16  2  0
 16 17  1  0
 17 19  1  0
 18 17  2  0
 19 20  2  0
  1 21  1  6
  2 22  1  0
  2 23  1  0
  3 24  1  6
  5 25  1  0
  6 26  1  0
  7 27  1  0
  8 28  1  0
 10 29  1  0
 12 30  1  0
 14 31  1  0
 15 32  1  0
 19 33  1  0
M  ISO  8  21  13  22  13  23  13  24  13  25  14  26  14  27  14  28  14
M  ISO  4  29   6  31  14  32  14  33   6
M  END
>  <minimizedAffinity>  (1) 
-4.56459761

>  <minimizedRMSD>  (1) 
0.628700435

$$$$
