
     RDKit          3D

 28 29  0  0  1  0  0  0  0  0999 V2000
   46.6930   33.9080   42.2980 N   0  0  0  0  0  0  0  0  0  0  0  0
   47.5730   32.7760   42.1090 C   0  0  0  0  0  0  0  0  0  0  0  0
   48.7070   33.4920   41.3820 C   0  0  2  0  0  0  0  0  0  0  0  0
   47.8910   34.0830   40.2530 C   0  0  0  0  0  0  0  0  0  0  0  0
   46.6490   34.5480   40.9970 C   0  0  0  0  0  0  0  0  0  0  0  0
   44.5720   35.8980   44.6100 C   0  0  0  0  0  0  0  0  0  0  0  0
   45.2180   35.5430   43.4270 C   0  0  0  0  0  0  0  0  0  0  0  0
   45.9950   34.3780   43.4140 C   0  0  0  0  0  0  0  0  0  0  0  0
   46.0570   33.6740   44.5750 N   0  0  0  0  0  0  0  0  0  0  0  0
   45.4310   34.0270   45.7060 C   0  0  0  0  0  0  0  0  0  0  0  0
   44.6820   35.1410   45.7350 N   0  0  0  0  0  0  0  0  0  0  0  0
   49.6390   32.6450   40.8450 O   0  0  0  0  0  0  0  0  0  0  0  0
   50.8140   31.1920   42.7510 O   0  0  0  0  0  0  0  0  0  0  0  0
   50.9700   32.3910   41.8480 P   0  0  0  0  0  0  0  0  0  0  0  0
   52.3190   32.2130   40.8130 O   0  0  0  0  0  0  0  0  0  0  0  0
   51.2240   33.8030   42.7410 O   0  0  0  0  0  0  0  0  0  0  0  0
   47.9018   32.3422   43.0649 H   0  0  0  0  0  0  0  0  0  0  0  0
   47.1369   31.9138   41.5832 H   0  0  0  0  0  0  0  0  0  0  0  0
   49.2907   34.1684   42.0238 H   0  0  0  0  0  0  0  0  0  0  0  0
   47.6460   33.3258   39.4936 H   0  0  0  0  0  0  0  0  0  0  0  0
   48.4052   34.8778   39.6927 H   0  0  0  0  0  0  0  0  0  0  0  0
   46.6594   35.6422   41.1098 H   0  0  0  0  0  0  0  0  0  0  0  0
   45.7318   34.2828   40.4507 H   0  0  0  0  0  0  0  0  0  0  0  0
   43.9592   36.8112   44.6345 H   0  0  0  0  0  0  0  0  0  0  0  0
   45.1197   36.1638   42.5242 H   0  0  0  0  0  0  0  0  0  0  0  0
   45.5305   33.4058   46.6083 H   0  0  0  0  0  0  0  0  0  0  0  0
   53.1396   32.1047   41.3561 H   0  0  0  0  0  0  0  0  0  0  0  0
   51.1863   33.5933   43.7078 H   0  0  0  0  0  0  0  0  0  0  0  0
  1  8  1  0
  2  1  1  0
  3  2  1  0
  4  5  1  0
  4  3  1  0
  5  1  1  0
  6 11  2  0
  7  6  1  0
  8  7  2  0
  8  9  1  0
  9 10  2  0
 10 11  1  0
 12  3  1  0
 12 14  1  0
 14 16  1  0
 14 13  2  0
 15 14  1  0
  2 17  1  0
  2 18  1  0
  3 19  1  1
  4 20  1  0
  4 21  1  0
  5 22  1  0
  5 23  1  0
  6 24  1  0
  7 25  1  0
 10 26  1  0
 15 27  1  0
 16 28  1  0
M  ISO  8  17  13  18  13  19  13  20  13  21  13  22  13  23  13  24  14
M  ISO  4  25  14  26  14  27   3  28   3
M  END
>  <minimizedAffinity>  (1) 
-5.10249615

>  <minimizedRMSD>  (1) 
1.54582489

$$$$
