
     RDKit          3D

 25 26  0  0  1  0  0  0  0  0999 V2000
   46.6060   33.8840   43.5630 N   0  0  0  0  0  0  0  0  0  0  0  0
   47.9670   34.0850   43.1120 C   0  0  0  0  0  0  0  0  0  0  0  0
   47.7110   35.1960   42.1230 C   0  0  2  0  0  0  0  0  0  0  0  0
   46.6460   34.5340   41.2850 C   0  0  0  0  0  0  0  0  0  0  0  0
   45.8010   33.8570   42.3440 C   0  0  0  0  0  0  0  0  0  0  0  0
   44.6380   34.3850   46.6830 C   0  0  0  0  0  0  0  0  0  0  0  0
   45.1160   34.6030   45.3940 C   0  0  0  0  0  0  0  0  0  0  0  0
   46.0760   33.7370   44.8450 C   0  0  0  0  0  0  0  0  0  0  0  0
   46.4870   32.7130   45.6360 N   0  0  0  0  0  0  0  0  0  0  0  0
   46.0230   32.5090   46.8790 C   0  0  0  0  0  0  0  0  0  0  0  0
   45.0940   33.3450   47.4090 N   0  0  0  0  0  0  0  0  0  0  0  0
   48.9240   35.6130   41.3530 C   0  0  0  0  0  0  0  0  0  0  0  0
   49.3090   36.8640   41.8000 F   0  0  0  0  0  0  0  0  0  0  0  0
   49.9410   34.7470   41.7290 F   0  0  0  0  0  0  0  0  0  0  0  0
   48.7670   35.6440   40.0020 F   0  0  0  0  0  0  0  0  0  0  0  0
   48.6321   34.4019   43.9288 H   0  0  0  0  0  0  0  0  0  0  0  0
   48.4745   33.1952   42.7112 H   0  0  0  0  0  0  0  0  0  0  0  0
   47.4167   36.1578   42.5684 H   0  0  0  0  0  0  0  0  0  0  0  0
   46.0623   35.2751   40.7192 H   0  0  0  0  0  0  0  0  0  0  0  0
   47.0404   33.8475   40.5213 H   0  0  0  0  0  0  0  0  0  0  0  0
   44.8594   34.4058   42.4931 H   0  0  0  0  0  0  0  0  0  0  0  0
   45.5317   32.8301   42.0558 H   0  0  0  0  0  0  0  0  0  0  0  0
   43.8855   35.0639   47.1106 H   0  0  0  0  0  0  0  0  0  0  0  0
   44.7419   35.4535   44.8052 H   0  0  0  0  0  0  0  0  0  0  0  0
   46.3972   31.6606   47.4708 H   0  0  0  0  0  0  0  0  0  0  0  0
  1  8  1  0
  2  1  1  0
  3  2  1  0
  4  3  1  0
  4  5  1  0
  5  1  1  0
  6 11  2  0
  7  6  1  0
  8  7  2  0
  8  9  1  0
  9 10  2  0
 10 11  1  0
 12 14  1  0
 12 13  1  0
 12  3  1  0
 15 12  1  0
  2 16  1  0
  2 17  1  0
  3 18  1  1
  4 19  1  0
  4 20  1  0
  5 21  1  0
  5 22  1  0
  6 23  1  0
  7 24  1  0
 10 25  1  0
M  ISO  8  16  13  17  13  18  13  19  13  20  13  21  13  22  13  23  14
M  ISO  2  24  14  25  14
M  END
>  <minimizedAffinity>  (1) 
-5.01668024

>  <minimizedRMSD>  (1) 
1.93301475

$$$$
