
     RDKit          3D

 23 24  0  0  1  0  0  0  0  0999 V2000
   47.1810   34.3610   42.3700 N   0  0  0  0  0  0  0  0  0  0  0  0
   48.5660   33.9680   42.3700 C   0  0  0  0  0  0  0  0  0  0  0  0
   49.0700   34.8690   41.2670 C   0  0  1  0  0  0  0  0  0  0  0  0
   48.0860   34.5180   40.1770 C   0  0  0  0  0  0  0  0  0  0  0  0
   46.7880   34.3780   40.9610 C   0  0  0  0  0  0  0  0  0  0  0  0
   44.5760   35.9810   44.4660 C   0  0  0  0  0  0  0  0  0  0  0  0
   45.4110   35.7700   43.3700 C   0  0  0  0  0  0  0  0  0  0  0  0
   46.2920   34.6810   43.4030 C   0  0  0  0  0  0  0  0  0  0  0  0
   46.2760   33.8890   44.5200 N   0  0  0  0  0  0  0  0  0  0  0  0
   45.4550   34.1190   45.5650 C   0  0  0  0  0  0  0  0  0  0  0  0
   44.6040   35.1650   45.5420 N   0  0  0  0  0  0  0  0  0  0  0  0
   49.0510   36.1850   41.6460 O   0  0  0  0  0  0  0  0  0  0  0  0
   49.0548   34.1814   43.3320 H   0  0  0  0  0  0  0  0  0  0  0  0
   48.7519   32.8937   42.2240 H   0  0  0  0  0  0  0  0  0  0  0  0
   50.1194   34.7304   40.9678 H   0  0  0  0  0  0  0  0  0  0  0  0
   48.3578   33.5746   39.6809 H   0  0  0  0  0  0  0  0  0  0  0  0
   48.0380   35.2588   39.3653 H   0  0  0  0  0  0  0  0  0  0  0  0
   46.1227   35.2301   40.7579 H   0  0  0  0  0  0  0  0  0  0  0  0
   46.2383   33.4675   40.6801 H   0  0  0  0  0  0  0  0  0  0  0  0
   43.8784   36.8314   44.4544 H   0  0  0  0  0  0  0  0  0  0  0  0
   45.3791   36.4424   42.5000 H   0  0  0  0  0  0  0  0  0  0  0  0
   45.4796   33.4513   46.4388 H   0  0  0  0  0  0  0  0  0  0  0  0
   49.0502   36.2438   42.6343 H   0  0  0  0  0  0  0  0  0  0  0  0
  1  8  1  0
  2  1  1  0
  3 12  1  0
  3  2  1  0
  4  5  1  0
  4  3  1  0
  5  1  1  0
  6 11  2  0
  7  8  2  0
  7  6  1  0
  8  9  1  0
  9 10  2  0
 11 10  1  0
  2 13  1  0
  2 14  1  0
  3 15  1  6
  4 16  1  0
  4 17  1  0
  5 18  1  0
  5 19  1  0
  6 20  1  0
  7 21  1  0
 10 22  1  0
 12 23  1  0
M  ISO  8  13  13  14  13  15  13  16  13  17  13  18  13  19  13  20  14
M  ISO  3  21  14  22  14  23   3
M  END
>  <minimizedAffinity>  (1) 
-4.31184769

>  <minimizedRMSD>  (1) 
0.441310167

$$$$
