
     RDKit          3D

 28 29  0  0  1  0  0  0  0  0999 V2000
   47.3610   34.3450   42.1600 N   0  0  0  0  0  0  0  0  0  0  0  0
   48.0750   35.1910   41.2230 C   0  0  0  0  0  0  0  0  0  0  0  0
   47.8360   34.3610   39.9760 C   0  0  2  0  0  0  0  0  0  0  0  0
   48.3040   33.0170   40.4550 C   0  0  0  0  0  0  0  0  0  0  0  0
   47.7710   32.9690   41.8770 C   0  0  0  0  0  0  0  0  0  0  0  0
   44.7050   35.9650   44.1990 C   0  0  0  0  0  0  0  0  0  0  0  0
   45.5640   35.7440   43.1390 C   0  0  0  0  0  0  0  0  0  0  0  0
   46.4440   34.6730   43.1710 C   0  0  0  0  0  0  0  0  0  0  0  0
   46.4060   33.8730   44.2850 N   0  0  0  0  0  0  0  0  0  0  0  0
   45.5720   34.0820   45.3210 C   0  0  0  0  0  0  0  0  0  0  0  0
   44.7130   35.1400   45.2730 N   0  0  0  0  0  0  0  0  0  0  0  0
   48.7070   34.7560   38.9040 N   0  0  0  0  0  0  0  0  0  0  0  0
   48.6720   34.1200   37.6390 C   0  0  0  0  0  0  0  0  0  0  0  0
   47.6930   34.4070   36.8780 O   0  0  0  0  0  0  0  0  0  0  0  0
   49.7540   33.2250   37.3730 N   0  0  0  0  0  0  0  0  0  0  0  0
   47.6336   36.1957   41.1471 H   0  0  0  0  0  0  0  0  0  0  0  0
   49.1252   35.4079   41.4678 H   0  0  0  0  0  0  0  0  0  0  0  0
   46.8055   34.4309   39.5977 H   0  0  0  0  0  0  0  0  0  0  0  0
   47.8788   32.2073   39.8438 H   0  0  0  0  0  0  0  0  0  0  0  0
   49.3942   32.8847   40.3913 H   0  0  0  0  0  0  0  0  0  0  0  0
   46.9125   32.2849   41.9478 H   0  0  0  0  0  0  0  0  0  0  0  0
   48.5202   32.5996   42.5928 H   0  0  0  0  0  0  0  0  0  0  0  0
   44.0099   36.8170   44.1701 H   0  0  0  0  0  0  0  0  0  0  0  0
   45.5495   36.4180   42.2698 H   0  0  0  0  0  0  0  0  0  0  0  0
   45.5833   33.4103   46.1920 H   0  0  0  0  0  0  0  0  0  0  0  0
   49.3760   35.5235   39.0598 H   0  0  0  0  0  0  0  0  0  0  0  0
   49.7990   32.7242   36.4741 H   0  0  0  0  0  0  0  0  0  0  0  0
   50.4888   33.0808   38.0802 H   0  0  0  0  0  0  0  0  0  0  0  0
  1  8  1  0
  2  1  1  0
  3  4  1  0
  3  2  1  0
  4  5  1  0
  5  1  1  0
  6 11  2  0
  7  8  2  0
  7  6  1  0
  8  9  1  0
  9 10  2  0
 11 10  1  0
 12  3  1  0
 13 12  1  0
 14 13  2  0
 15 13  1  0
  2 16  1  0
  2 17  1  0
  3 18  1  6
  4 19  1  0
  4 20  1  0
  5 21  1  0
  5 22  1  0
  6 23  1  0
  7 24  1  0
 10 25  1  0
 12 26  1  0
 15 27  1  0
 15 28  1  0
M  ISO  8  16  13  17  13  18  13  19  13  20  13  21  13  22  13  23  14
M  ISO  2  24  14  25  14
M  END
>  <minimizedAffinity>  (1) 
-5.03232002

>  <minimizedRMSD>  (1) 
0.915000558

$$$$
