
     RDKit          3D

 34 36  0  0  1  0  0  0  0  0999 V2000
   46.4060   32.2640   44.9780 N   0  0  0  0  0  0  0  0  0  0  0  0
   47.1780   33.2070   44.1910 C   0  0  0  0  0  0  0  0  0  0  0  0
   46.0580   34.0040   43.6160 C   0  0  2  0  0  0  0  0  0  0  0  0
   45.1300   32.9150   43.1110 C   0  0  0  0  0  0  0  0  0  0  0  0
   45.2850   31.8470   44.1680 C   0  0  0  0  0  0  0  0  0  0  0  0
   47.3200   31.9820   48.5860 C   0  0  0  0  0  0  0  0  0  0  0  0
   47.1460   32.5540   47.3320 C   0  0  0  0  0  0  0  0  0  0  0  0
   46.6200   31.7860   46.2790 C   0  0  0  0  0  0  0  0  0  0  0  0
   46.2990   30.4840   46.5510 N   0  0  0  0  0  0  0  0  0  0  0  0
   46.4810   29.9500   47.7900 C   0  0  0  0  0  0  0  0  0  0  0  0
   46.9910   30.7040   48.8030 N   0  0  0  0  0  0  0  0  0  0  0  0
   46.4300   34.8200   42.5050 N   0  0  0  0  0  0  0  0  0  0  0  0
   49.1510   35.8960   41.6810 Cl  0  0  0  0  0  0  0  0  0  0  0  0
   48.0980   34.9030   40.6600 C   0  0  0  0  0  0  0  0  0  0  0  0
   46.8740   34.5030   41.2070 C   0  0  0  0  0  0  0  0  0  0  0  0
   46.1240   33.7340   40.3410 C   0  0  0  0  0  0  0  0  0  0  0  0
   46.4940   33.3740   39.0680 C   0  0  0  0  0  0  0  0  0  0  0  0
   47.7110   33.7970   38.5780 C   0  0  0  0  0  0  0  0  0  0  0  0
   48.4950   34.5610   39.3920 C   0  0  0  0  0  0  0  0  0  0  0  0
   47.8417   33.8209   44.8176 H   0  0  0  0  0  0  0  0  0  0  0  0
   47.8651   32.7597   43.4576 H   0  0  0  0  0  0  0  0  0  0  0  0
   45.6471   34.7026   44.3597 H   0  0  0  0  0  0  0  0  0  0  0  0
   44.0909   33.2715   43.0538 H   0  0  0  0  0  0  0  0  0  0  0  0
   45.3687   32.5680   42.0948 H   0  0  0  0  0  0  0  0  0  0  0  0
   44.3737   31.7770   44.7800 H   0  0  0  0  0  0  0  0  0  0  0  0
   45.4501   30.8545   43.7235 H   0  0  0  0  0  0  0  0  0  0  0  0
   47.7321   32.5858   49.4080 H   0  0  0  0  0  0  0  0  0  0  0  0
   47.4194   33.6061   47.1635 H   0  0  0  0  0  0  0  0  0  0  0  0
   46.2135   28.8991   47.9747 H   0  0  0  0  0  0  0  0  0  0  0  0
   46.3604   35.8313   42.6875 H   0  0  0  0  0  0  0  0  0  0  0  0
   45.1469   33.3791   40.7005 H   0  0  0  0  0  0  0  0  0  0  0  0
   45.8279   32.7563   38.4478 H   0  0  0  0  0  0  0  0  0  0  0  0
   48.0394   33.5272   37.5634 H   0  0  0  0  0  0  0  0  0  0  0  0
   49.4699   34.9117   39.0225 H   0  0  0  0  0  0  0  0  0  0  0  0
  1  8  1  0
  2  1  1  0
  3  2  1  0
  4  3  1  0
  4  5  1  0
  5  1  1  0
  6 11  2  0
  7  6  1  0
  8  9  1  0
  8  7  2  0
  9 10  2  0
 10 11  1  0
 12  3  1  0
 14 15  2  0
 14 13  1  0
 15 12  1  0
 16 15  1  0
 17 16  2  0
 18 17  1  0
 18 19  2  0
 19 14  1  0
  2 20  1  0
  2 21  1  0
  3 22  1  1
  4 23  1  0
  4 24  1  0
  5 25  1  0
  5 26  1  0
  6 27  1  0
  7 28  1  0
 10 29  1  0
 12 30  1  0
 16 31  1  0
 17 32  1  0
 18 33  1  0
 19 34  1  0
M  ISO  8  20  13  21  13  22  13  23  13  24  13  25  13  26  13  27  14
M  ISO  6  28  14  29  14  31  14  32  14  33  14  34  14
M  END
>  <minimizedAffinity>  (1) 
-4.84123039

>  <minimizedRMSD>  (1) 
4.31022406

$$$$
