
     RDKit          3D

 31 33  0  0  1  0  0  0  0  0999 V2000
   47.0460   34.1910   42.5470 N   0  0  0  0  0  0  0  0  0  0  0  0
   47.8620   34.9490   41.6450 C   0  0  0  0  0  0  0  0  0  0  0  0
   47.4940   34.2620   40.3540 C   0  0  2  0  0  0  0  0  0  0  0  0
   47.8010   32.8310   40.7510 C   0  0  0  0  0  0  0  0  0  0  0  0
   47.2780   32.8010   42.1760 C   0  0  0  0  0  0  0  0  0  0  0  0
   44.5150   35.9170   44.6440 C   0  0  0  0  0  0  0  0  0  0  0  0
   45.3160   35.6510   43.5400 C   0  0  0  0  0  0  0  0  0  0  0  0
   46.1850   34.5720   43.5870 C   0  0  0  0  0  0  0  0  0  0  0  0
   46.1950   33.8300   44.7390 N   0  0  0  0  0  0  0  0  0  0  0  0
   45.4200   34.0880   45.8050 C   0  0  0  0  0  0  0  0  0  0  0  0
   44.5650   35.1570   45.7470 N   0  0  0  0  0  0  0  0  0  0  0  0
   48.4350   34.5990   39.3080 N   0  0  0  0  0  0  0  0  0  0  0  0
   48.3280   33.6140   38.2620 C   0  0  0  0  0  0  0  0  0  0  0  0
   47.2680   33.6960   37.2310 C   0  0  0  0  0  0  0  0  0  0  0  0
   48.7220   33.9780   36.8690 C   0  0  0  0  0  0  0  0  0  0  0  0
   47.5876   36.0142   41.6375 H   0  0  0  0  0  0  0  0  0  0  0  0
   48.9362   34.9653   41.8811 H   0  0  0  0  0  0  0  0  0  0  0  0
   46.4830   34.4972   39.9900 H   0  0  0  0  0  0  0  0  0  0  0  0
   47.2684   32.1121   40.1110 H   0  0  0  0  0  0  0  0  0  0  0  0
   48.8608   32.5531   40.6534 H   0  0  0  0  0  0  0  0  0  0  0  0
   46.3393   32.2299   42.2269 H   0  0  0  0  0  0  0  0  0  0  0  0
   47.9920   32.3154   42.8575 H   0  0  0  0  0  0  0  0  0  0  0  0
   43.8233   36.7717   44.6119 H   0  0  0  0  0  0  0  0  0  0  0  0
   45.2614   36.2862   42.6436 H   0  0  0  0  0  0  0  0  0  0  0  0
   45.4705   33.4558   46.7038 H   0  0  0  0  0  0  0  0  0  0  0  0
   48.2155   35.5319   38.9305 H   0  0  0  0  0  0  0  0  0  0  0  0
   48.6273   32.8347   38.9783 H   0  0  0  0  0  0  0  0  0  0  0  0
   46.7778   32.7797   36.8702 H   0  0  0  0  0  0  0  0  0  0  0  0
   46.3184   34.2418   37.1295 H   0  0  0  0  0  0  0  0  0  0  0  0
   49.2862   33.2654   36.2494 H   0  0  0  0  0  0  0  0  0  0  0  0
   49.2668   34.8103   36.3995 H   0  0  0  0  0  0  0  0  0  0  0  0
  1  8  1  0
  2  1  1  0
  3  4  1  0
  3  2  1  0
  4  5  1  0
  5  1  1  0
  6 11  2  0
  7  8  2  0
  7  6  1  0
  8  9  1  0
  9 10  2  0
 11 10  1  0
 12  3  1  0
 13 12  1  0
 14 13  1  0
 15 14  1  0
 15 13  1  0
  2 16  1  0
  2 17  1  0
  3 18  1  6
  4 19  1  0
  4 20  1  0
  5 21  1  0
  5 22  1  0
  6 23  1  0
  7 24  1  0
 10 25  1  0
 12 26  1  0
 13 27  1  0
 14 28  1  0
 14 29  1  0
 15 30  1  0
 15 31  1  0
M  ISO  8  16  13  17  13  18  13  19  13  20  13  21  13  22  13  23  14
M  ISO  8  24  14  25  14  26   5  27  13  28  13  29  13  30  13  31  13
M  END
>  <minimizedAffinity>  (1) 
-4.51709175

>  <minimizedRMSD>  (1) 
0.43968913

$$$$
