
     RDKit          3D

 30 31  0  0  1  0  0  0  0  0999 V2000
   47.2030   34.2550   42.2950 N   0  0  0  0  0  0  0  0  0  0  0  0
   48.0580   35.0000   41.4190 C   0  0  0  0  0  0  0  0  0  0  0  0
   47.7240   34.3340   40.1150 C   0  0  2  0  0  0  0  0  0  0  0  0
   47.9550   32.8880   40.4980 C   0  0  0  0  0  0  0  0  0  0  0  0
   47.4200   32.8680   41.9250 C   0  0  0  0  0  0  0  0  0  0  0  0
   44.6430   36.0570   44.3050 C   0  0  0  0  0  0  0  0  0  0  0  0
   45.4860   35.7580   43.2430 C   0  0  0  0  0  0  0  0  0  0  0  0
   46.3200   34.6430   43.3060 C   0  0  0  0  0  0  0  0  0  0  0  0
   46.2640   33.8750   44.4520 N   0  0  0  0  0  0  0  0  0  0  0  0
   45.4360   34.1820   45.4790 C   0  0  0  0  0  0  0  0  0  0  0  0
   44.6250   35.2800   45.3970 N   0  0  0  0  0  0  0  0  0  0  0  0
   48.6780   34.6540   39.0840 N   0  0  0  0  0  0  0  0  0  0  0  0
   48.1170   34.3260   37.7730 C   0  0  0  0  0  0  0  0  0  0  0  0
   49.0160   33.3860   37.0100 C   0  0  0  0  0  0  0  0  0  0  0  0
   47.8029   36.0700   41.4098 H   0  0  0  0  0  0  0  0  0  0  0  0
   49.1245   34.9905   41.6883 H   0  0  0  0  0  0  0  0  0  0  0  0
   46.7326   34.6110   39.7272 H   0  0  0  0  0  0  0  0  0  0  0  0
   47.3910   32.2039   39.8469 H   0  0  0  0  0  0  0  0  0  0  0  0
   49.0003   32.5585   40.4041 H   0  0  0  0  0  0  0  0  0  0  0  0
   46.4738   32.3087   41.9698 H   0  0  0  0  0  0  0  0  0  0  0  0
   48.1250   32.3755   42.6108 H   0  0  0  0  0  0  0  0  0  0  0  0
   43.9857   36.9373   44.2498 H   0  0  0  0  0  0  0  0  0  0  0  0
   45.4957   36.4017   42.3511 H   0  0  0  0  0  0  0  0  0  0  0  0
   45.4159   33.5487   46.3782 H   0  0  0  0  0  0  0  0  0  0  0  0
   48.8971   35.6598   39.1206 H   0  0  0  0  0  0  0  0  0  0  0  0
   47.1359   33.8486   37.9127 H   0  0  0  0  0  0  0  0  0  0  0  0
   48.0191   35.2570   37.1953 H   0  0  0  0  0  0  0  0  0  0  0  0
   49.5973   32.7782   37.7190 H   0  0  0  0  0  0  0  0  0  0  0  0
   48.4042   32.7263   36.3772 H   0  0  0  0  0  0  0  0  0  0  0  0
   49.7023   33.9678   36.3772 H   0  0  0  0  0  0  0  0  0  0  0  0
  1  8  1  0
  2  1  1  0
  3  4  1  0
  3  2  1  0
  4  5  1  0
  5  1  1  0
  6 11  2  0
  7  8  2  0
  7  6  1  0
  8  9  1  0
  9 10  2  0
 11 10  1  0
 12  3  1  0
 13 12  1  0
 14 13  1  0
  2 15  1  0
  2 16  1  0
  3 17  1  6
  4 18  1  0
  4 19  1  0
  5 20  1  0
  5 21  1  0
  6 22  1  0
  7 23  1  0
 10 24  1  0
 12 25  1  0
 13 26  1  0
 13 27  1  0
 14 28  1  0
 14 29  1  0
 14 30  1  0
M  ISO  8  15  13  16  13  17  13  18  13  19  13  20  13  21  13  22  14
M  ISO  8  23  14  24  14  25   5  26   8  27   8  28   8  29   8  30   8
M  END
>  <minimizedAffinity>  (1) 
-4.35024214

>  <minimizedRMSD>  (1) 
0.209106117

$$$$
