
     RDKit          3D

 51 55  0  0  1  0  0  0  0  0999 V2000
   48.2460   33.0490   38.8750 N   0  0  0  0  0  0  0  0  0  0  0  0
   47.4120   34.3300   42.0900 N   0  0  0  0  0  0  0  0  0  0  0  0
   47.2850   34.4540   40.6450 C   0  0  0  0  0  0  0  0  0  0  0  0
   47.8730   33.1250   40.2530 C   0  0  2  0  0  0  0  0  0  0  0  0
   49.1520   33.1100   41.0680 C   0  0  0  0  0  0  0  0  0  0  0  0
   48.7320   33.7900   42.3460 C   0  0  0  0  0  0  0  0  0  0  0  0
   44.7450   35.9110   44.1560 C   0  0  0  0  0  0  0  0  0  0  0  0
   45.6060   35.7020   43.0790 C   0  0  0  0  0  0  0  0  0  0  0  0
   46.4980   34.6400   43.1100 C   0  0  0  0  0  0  0  0  0  0  0  0
   46.4760   33.8470   44.2180 N   0  0  0  0  0  0  0  0  0  0  0  0
   45.6510   34.0410   45.2540 C   0  0  0  0  0  0  0  0  0  0  0  0
   44.7830   35.0700   45.2310 N   0  0  0  0  0  0  0  0  0  0  0  0
   48.0360   32.0840   36.5970 C   0  0  0  0  0  0  0  0  0  0  0  0
   47.5090   32.7610   37.7080 C   0  0  0  0  0  0  0  0  0  0  0  0
   46.1980   33.1210   37.5580 C   0  0  0  0  0  0  0  0  0  0  0  0
   45.4050   32.8820   36.4600 C   0  0  0  0  0  0  0  0  0  0  0  0
   45.9550   32.2220   35.3990 C   0  0  0  0  0  0  0  0  0  0  0  0
   47.2780   31.8220   35.4750 C   0  0  0  0  0  0  0  0  0  0  0  0
   47.8340   31.1180   34.3220 C   0  0  0  0  0  0  0  0  0  0  0  0
   47.6730   29.7370   34.4290 C   0  0  0  0  0  0  0  0  0  0  0  0
   48.1400   28.9000   33.4230 C   0  0  0  0  0  0  0  0  0  0  0  0
   48.7610   29.4970   32.3310 C   0  0  0  0  0  0  0  0  0  0  0  0
   48.9210   30.8610   32.2240 C   0  0  0  0  0  0  0  0  0  0  0  0
   49.5290   31.4830   31.1620 C   0  0  0  0  0  0  0  0  0  0  0  0
   49.6720   32.8600   31.0890 C   0  0  0  0  0  0  0  0  0  0  0  0
   49.1800   33.6230   32.1310 C   0  0  0  0  0  0  0  0  0  0  0  0
   48.5530   33.0530   33.2380 C   0  0  0  0  0  0  0  0  0  0  0  0
   48.4550   31.6730   33.2230 C   0  0  0  0  0  0  0  0  0  0  0  0
   50.5270   31.3280   36.7320 N   0  0  0  0  0  0  0  0  0  0  0  0
   49.4180   31.6630   36.6650 C   0  0  0  0  0  0  0  0  0  0  0  0
   49.2430   33.2412   38.7017 H   0  0  0  0  0  0  0  0  0  0  0  0
   46.2362   34.5525   40.3283 H   0  0  0  0  0  0  0  0  0  0  0  0
   47.7635   35.3379   40.1981 H   0  0  0  0  0  0  0  0  0  0  0  0
   47.1591   32.3048   40.4192 H   0  0  0  0  0  0  0  0  0  0  0  0
   49.4904   32.0807   41.2579 H   0  0  0  0  0  0  0  0  0  0  0  0
   49.9977   33.6030   40.5662 H   0  0  0  0  0  0  0  0  0  0  0  0
   49.4342   34.5982   42.5986 H   0  0  0  0  0  0  0  0  0  0  0  0
   48.7256   33.0897   43.1942 H   0  0  0  0  0  0  0  0  0  0  0  0
   44.0363   36.7521   44.1395 H   0  0  0  0  0  0  0  0  0  0  0  0
   45.5780   36.3755   42.2098 H   0  0  0  0  0  0  0  0  0  0  0  0
   45.6820   33.3632   46.1198 H   0  0  0  0  0  0  0  0  0  0  0  0
   45.7315   33.6547   38.3992 H   0  0  0  0  0  0  0  0  0  0  0  0
   44.3564   33.2135   36.4373 H   0  0  0  0  0  0  0  0  0  0  0  0
   45.3574   32.0118   34.4997 H   0  0  0  0  0  0  0  0  0  0  0  0
   47.1752   29.3093   35.3118 H   0  0  0  0  0  0  0  0  0  0  0  0
   48.0232   27.8081   33.4877 H   0  0  0  0  0  0  0  0  0  0  0  0
   49.1390   28.8552   31.5216 H   0  0  0  0  0  0  0  0  0  0  0  0
   49.9172   30.8659   30.3383 H   0  0  0  0  0  0  0  0  0  0  0  0
   50.1635   33.3322   30.2256 H   0  0  0  0  0  0  0  0  0  0  0  0
   49.2867   34.7169   32.0854 H   0  0  0  0  0  0  0  0  0  0  0  0
   48.1622   33.6599   34.0680 H   0  0  0  0  0  0  0  0  0  0  0  0
  1  4  1  0
  2  6  1  0
  2  9  1  0
  3  2  1  0
  4  3  1  0
  4  5  1  0
  5  6  1  0
  7 12  2  0
  8  9  2  0
  8  7  1  0
  9 10  1  0
 10 11  2  0
 12 11  1  0
 13 30  1  0
 13 14  2  0
 14  1  1  0
 15 14  1  0
 16 15  2  0
 17 18  2  0
 17 16  1  0
 18 13  1  0
 19 20  2  0
 19 18  1  0
 21 20  1  0
 22 21  2  0
 23 22  1  0
 23 28  2  0
 24 23  1  0
 25 24  2  0
 25 26  1  0
 26 27  2  0
 28 27  1  0
 28 19  1  0
 30 29  3  0
  1 31  1  0
  3 32  1  0
  3 33  1  0
  4 34  1  1
  5 35  1  0
  5 36  1  0
  6 37  1  0
  6 38  1  0
  7 39  1  0
  8 40  1  0
 11 41  1  0
 15 42  1  0
 16 43  1  0
 17 44  1  0
 20 45  1  0
 21 46  1  0
 22 47  1  0
 24 48  1  0
 25 49  1  0
 26 50  1  0
 27 51  1  0
M  ISO  8  32  13  33  13  34  13  35  13  36  13  37  13  38  13  39  14
M  ISO  8  40  14  41  14  42  14  43  14  44  14  45  14  46  14  47  14
M  ISO  4  48  14  49  14  50  14  51  14
M  END
>  <minimizedAffinity>  (1) 
-6.27461624

>  <minimizedRMSD>  (1) 
2.2312696

$$$$
