
     RDKit          3D

 50 53  0  0  1  0  0  0  0  0999 V2000
   47.6990   31.7260   36.8970 C   0  0  0  0  0  0  0  0  0  0  0  0
   47.3410   32.6920   37.8510 C   0  0  0  0  0  0  0  0  0  0  0  0
   46.1300   33.2710   37.5960 C   0  0  0  0  0  0  0  0  0  0  0  0
   45.3020   32.9930   36.5460 C   0  0  0  0  0  0  0  0  0  0  0  0
   45.6980   32.0350   35.6320 C   0  0  0  0  0  0  0  0  0  0  0  0
   46.9150   31.4080   35.8310 C   0  0  0  0  0  0  0  0  0  0  0  0
   48.0200   30.9400   33.7860 C   0  0  0  0  0  0  0  0  0  0  0  0
   47.3490   30.3920   34.8750 C   0  0  0  0  0  0  0  0  0  0  0  0
   47.1520   29.0330   34.9740 C   0  0  0  0  0  0  0  0  0  0  0  0
   47.6050   28.1660   34.0130 C   0  0  0  0  0  0  0  0  0  0  0  0
   48.2690   28.7040   32.9330 C   0  0  0  0  0  0  0  0  0  0  0  0
   48.4800   30.0540   32.8070 C   0  0  0  0  0  0  0  0  0  0  0  0
   49.3590   32.9320   33.9920 N   0  0  0  0  0  0  0  0  0  0  0  0
   48.2870   32.3570   33.5720 C   0  0  0  0  0  0  0  0  0  0  0  0
   47.3350   33.1490   32.8730 N   0  0  0  0  0  0  0  0  0  0  0  0
   49.4640   33.9510   33.7920 H   0  0  0  0  0  0  0  0  0  0  0  0
   48.1280   33.0510   38.9730 N   0  0  0  0  0  0  0  0  0  0  0  0
   47.3080   34.3840   42.1760 N   0  0  0  0  0  0  0  0  0  0  0  0
   47.1420   34.4370   40.7400 C   0  0  0  0  0  0  0  0  0  0  0  0
   47.7830   33.1310   40.3770 C   0  0  2  0  0  0  0  0  0  0  0  0
   49.0890   33.2440   41.1430 C   0  0  0  0  0  0  0  0  0  0  0  0
   48.6660   33.9230   42.4210 C   0  0  0  0  0  0  0  0  0  0  0  0
   44.6810   35.9640   44.2860 C   0  0  0  0  0  0  0  0  0  0  0  0
   45.5280   35.7620   43.1960 C   0  0  0  0  0  0  0  0  0  0  0  0
   46.4130   34.6900   43.2050 C   0  0  0  0  0  0  0  0  0  0  0  0
   46.3910   33.8880   44.3110 N   0  0  0  0  0  0  0  0  0  0  0  0
   45.5800   34.0740   45.3640 C   0  0  0  0  0  0  0  0  0  0  0  0
   44.7170   35.1240   45.3490 N   0  0  0  0  0  0  0  0  0  0  0  0
   49.9940   30.5170   37.2720 N   0  0  0  0  0  0  0  0  0  0  0  0
   48.9860   31.0610   37.1030 C   0  0  0  0  0  0  0  0  0  0  0  0
   45.7879   34.0373   38.3071 H   0  0  0  0  0  0  0  0  0  0  0  0
   44.3429   33.5190   36.4306 H   0  0  0  0  0  0  0  0  0  0  0  0
   45.0636   31.7784   34.7708 H   0  0  0  0  0  0  0  0  0  0  0  0
   46.6169   28.6319   35.8474 H   0  0  0  0  0  0  0  0  0  0  0  0
   47.4441   27.0814   34.1014 H   0  0  0  0  0  0  0  0  0  0  0  0
   48.6417   28.0307   32.1471 H   0  0  0  0  0  0  0  0  0  0  0  0
   49.0156   30.4425   31.9283 H   0  0  0  0  0  0  0  0  0  0  0  0
   47.5143   34.1512   32.7166 H   0  0  0  0  0  0  0  0  0  0  0  0
   46.4662   32.7205   32.5231 H   0  0  0  0  0  0  0  0  0  0  0  0
   49.1046   33.2948   38.7544 H   0  0  0  0  0  0  0  0  0  0  0  0
   46.0817   34.4702   40.4490 H   0  0  0  0  0  0  0  0  0  0  0  0
   47.5683   35.3240   40.2486 H   0  0  0  0  0  0  0  0  0  0  0  0
   47.1338   32.2696   40.5928 H   0  0  0  0  0  0  0  0  0  0  0  0
   49.5179   32.2513   41.3444 H   0  0  0  0  0  0  0  0  0  0  0  0
   49.8702   33.7918   40.5955 H   0  0  0  0  0  0  0  0  0  0  0  0
   49.3278   34.7730   42.6436 H   0  0  0  0  0  0  0  0  0  0  0  0
   48.7204   33.2443   43.2849 H   0  0  0  0  0  0  0  0  0  0  0  0
   43.9791   36.8109   44.2827 H   0  0  0  0  0  0  0  0  0  0  0  0
   45.4958   36.4463   42.3354 H   0  0  0  0  0  0  0  0  0  0  0  0
   45.6131   33.3889   46.2239 H   0  0  0  0  0  0  0  0  0  0  0  0
  1 30  1  0
  1  2  2  0
  2 17  1  0
  3  2  1  0
  4  3  2  0
  5  6  2  0
  5  4  1  0
  6  1  1  0
  7  8  2  0
  8  9  1  0
  8  6  1  0
 10  9  2  0
 11 10  1  0
 12 11  2  0
 12  7  1  0
 14  7  1  0
 14 13  2  0
 15 14  1  0
 16 13  1  0
 17 20  1  0
 18 22  1  0
 18 25  1  0
 19 18  1  0
 20 19  1  0
 20 21  1  0
 21 22  1  0
 23 28  2  0
 24 25  2  0
 24 23  1  0
 25 26  1  0
 26 27  2  0
 28 27  1  0
 30 29  3  0
  3 31  1  0
  4 32  1  0
  5 33  1  0
  9 34  1  0
 10 35  1  0
 11 36  1  0
 12 37  1  0
 15 38  1  0
 15 39  1  0
 17 40  1  0
 19 41  1  0
 19 42  1  0
 20 43  1  1
 21 44  1  0
 21 45  1  0
 22 46  1  0
 22 47  1  0
 23 48  1  0
 24 49  1  0
 27 50  1  0
M  ISO  8  31  14  32  14  33  14  34  14  35  14  36  14  37  14  41  13
M  ISO  8  42  13  43  13  44  13  45  13  46  13  47  13  48  14  49  14
M  ISO  1  50  14
M  END
>  <minimizedAffinity>  (1) 
-5.79954481

>  <minimizedRMSD>  (1) 
2.23372173

$$$$
