
     RDKit          3D

 45 48  0  0  1  0  0  0  0  0999 V2000
   48.0930   33.0010   39.0030 N   0  0  0  0  0  0  0  0  0  0  0  0
   47.3170   34.2730   42.2330 N   0  0  0  0  0  0  0  0  0  0  0  0
   47.2400   34.4440   40.7870 C   0  0  0  0  0  0  0  0  0  0  0  0
   47.6900   33.0710   40.3760 C   0  0  2  0  0  0  0  0  0  0  0  0
   48.9200   32.8730   41.2400 C   0  0  0  0  0  0  0  0  0  0  0  0
   48.5690   33.6040   42.5060 C   0  0  0  0  0  0  0  0  0  0  0  0
   44.6850   36.0110   44.2190 C   0  0  0  0  0  0  0  0  0  0  0  0
   45.5450   35.7470   43.1670 C   0  0  0  0  0  0  0  0  0  0  0  0
   46.3910   34.6580   43.2310 C   0  0  0  0  0  0  0  0  0  0  0  0
   46.3240   33.8910   44.3580 N   0  0  0  0  0  0  0  0  0  0  0  0
   45.5020   34.1290   45.3820 C   0  0  0  0  0  0  0  0  0  0  0  0
   44.6720   35.2040   45.3100 N   0  0  0  0  0  0  0  0  0  0  0  0
   47.9030   32.2090   36.6410 C   0  0  0  0  0  0  0  0  0  0  0  0
   47.3680   32.7770   37.8120 C   0  0  0  0  0  0  0  0  0  0  0  0
   46.0440   33.1090   37.7000 C   0  0  0  0  0  0  0  0  0  0  0  0
   45.2550   32.9330   36.5950 C   0  0  0  0  0  0  0  0  0  0  0  0
   45.8170   32.3760   35.4770 C   0  0  0  0  0  0  0  0  0  0  0  0
   47.1410   32.0180   35.5140 C   0  0  0  0  0  0  0  0  0  0  0  0
   48.7900   33.3670   33.6250 F   0  0  0  0  0  0  0  0  0  0  0  0
   48.6200   32.0440   33.4340 C   0  0  0  0  0  0  0  0  0  0  0  0
   47.8170   31.4170   34.3640 C   0  0  0  0  0  0  0  0  0  0  0  0
   47.5580   30.0440   34.2810 C   0  0  0  0  0  0  0  0  0  0  0  0
   48.1270   29.3070   33.2350 C   0  0  0  0  0  0  0  0  0  0  0  0
   48.9140   29.9610   32.3380 C   0  0  0  0  0  0  0  0  0  0  0  0
   49.1790   31.3150   32.4050 C   0  0  0  0  0  0  0  0  0  0  0  0
   50.4250   31.5320   36.7110 N   0  0  0  0  0  0  0  0  0  0  0  0
   49.3070   31.8300   36.6850 C   0  0  0  0  0  0  0  0  0  0  0  0
   49.1030   33.1405   38.8568 H   0  0  0  0  0  0  0  0  0  0  0  0
   46.2162   34.6629   40.4495 H   0  0  0  0  0  0  0  0  0  0  0  0
   47.8217   35.2810   40.3734 H   0  0  0  0  0  0  0  0  0  0  0  0
   46.8875   32.3277   40.4923 H   0  0  0  0  0  0  0  0  0  0  0  0
   49.0967   31.8052   41.4366 H   0  0  0  0  0  0  0  0  0  0  0  0
   49.8430   33.2424   40.7692 H   0  0  0  0  0  0  0  0  0  0  0  0
   49.3500   34.3374   42.7553 H   0  0  0  0  0  0  0  0  0  0  0  0
   48.4866   32.9189   43.3626 H   0  0  0  0  0  0  0  0  0  0  0  0
   44.0097   36.8780   44.1705 H   0  0  0  0  0  0  0  0  0  0  0  0
   45.5543   36.4023   42.2835 H   0  0  0  0  0  0  0  0  0  0  0  0
   45.4959   33.4712   46.2636 H   0  0  0  0  0  0  0  0  0  0  0  0
   45.5686   33.5607   38.5832 H   0  0  0  0  0  0  0  0  0  0  0  0
   44.1963   33.2314   36.6048 H   0  0  0  0  0  0  0  0  0  0  0  0
   45.2187   32.2188   34.5674 H   0  0  0  0  0  0  0  0  0  0  0  0
   46.9168   29.5510   35.0266 H   0  0  0  0  0  0  0  0  0  0  0  0
   47.9424   28.2267   33.1408 H   0  0  0  0  0  0  0  0  0  0  0  0
   49.3622   29.3816   31.5174 H   0  0  0  0  0  0  0  0  0  0  0  0
   49.8209   31.8006   31.6552 H   0  0  0  0  0  0  0  0  0  0  0  0
  1  4  1  0
  2  6  1  0
  2  9  1  0
  3  2  1  0
  4  3  1  0
  4  5  1  0
  5  6  1  0
  7 12  2  0
  8  9  2  0
  8  7  1  0
  9 10  1  0
 10 11  2  0
 12 11  1  0
 13 27  1  0
 13 14  2  0
 14  1  1  0
 15 14  1  0
 16 15  2  0
 17 18  2  0
 17 16  1  0
 18 13  1  0
 20 19  1  0
 20 21  2  0
 21 18  1  0
 22 21  1  0
 23 22  2  0
 24 25  2  0
 24 23  1  0
 25 20  1  0
 27 26  3  0
  1 28  1  0
  3 29  1  0
  3 30  1  0
  4 31  1  1
  5 32  1  0
  5 33  1  0
  6 34  1  0
  6 35  1  0
  7 36  1  0
  8 37  1  0
 11 38  1  0
 15 39  1  0
 16 40  1  0
 17 41  1  0
 22 42  1  0
 23 43  1  0
 24 44  1  0
 25 45  1  0
M  ISO  8  29  13  30  13  31  13  32  13  33  13  34  13  35  13  36  14
M  ISO  8  37  14  38  14  39  14  40  14  41  14  42  14  43  14  44  14
M  ISO  1  45  14
M  END
>  <minimizedAffinity>  (1) 
-5.3555665

>  <minimizedRMSD>  (1) 
2.36478949

$$$$
