
     RDKit          3D

 48 51  0  0  1  0  0  0  0  0999 V2000
   48.7710   33.2140   39.2920 N   0  0  0  0  0  0  0  0  0  0  0  0
   47.5710   34.3810   42.4350 N   0  0  0  0  0  0  0  0  0  0  0  0
   47.6470   34.5650   40.9900 C   0  0  0  0  0  0  0  0  0  0  0  0
   48.2200   33.2280   40.6220 C   0  0  2  0  0  0  0  0  0  0  0  0
   49.3770   33.1480   41.5870 C   0  0  0  0  0  0  0  0  0  0  0  0
   48.7970   33.7500   42.8410 C   0  0  0  0  0  0  0  0  0  0  0  0
   44.6660   36.0210   44.1000 C   0  0  0  0  0  0  0  0  0  0  0  0
   45.6530   35.7810   43.1450 C   0  0  0  0  0  0  0  0  0  0  0  0
   46.5300   34.7320   43.3220 C   0  0  0  0  0  0  0  0  0  0  0  0
   46.3840   33.9620   44.4480 N   0  0  0  0  0  0  0  0  0  0  0  0
   45.4350   34.1870   45.3710 C   0  0  0  0  0  0  0  0  0  0  0  0
   44.5690   35.2280   45.1920 N   0  0  0  0  0  0  0  0  0  0  0  0
   48.8290   32.2830   36.9680 C   0  0  0  0  0  0  0  0  0  0  0  0
   48.1730   32.9060   38.0450 C   0  0  0  0  0  0  0  0  0  0  0  0
   46.8510   33.2020   37.7740 C   0  0  0  0  0  0  0  0  0  0  0  0
   46.2000   32.9370   36.5950 C   0  0  0  0  0  0  0  0  0  0  0  0
   46.8820   32.3300   35.5820 C   0  0  0  0  0  0  0  0  0  0  0  0
   48.1950   32.0120   35.7870 C   0  0  0  0  0  0  0  0  0  0  0  0
   48.8270   29.9910   34.5620 C   0  0  0  0  0  0  0  0  0  0  0  0
   48.9080   31.3630   34.6890 C   0  0  0  0  0  0  0  0  0  0  0  0
   49.6450   32.1430   33.8090 C   0  0  0  0  0  0  0  0  0  0  0  0
   50.3300   31.5620   32.7640 C   0  0  0  0  0  0  0  0  0  0  0  0
   50.2870   30.1860   32.5820 C   0  0  0  0  0  0  0  0  0  0  0  0
   49.5380   29.4650   33.4890 C   0  0  0  0  0  0  0  0  0  0  0  0
   47.9130   28.9790   35.6470 S   0  0  0  0  0  0  0  0  0  0  0  0
   46.4300   29.2540   35.5330 O   0  0  0  0  0  0  0  0  0  0  0  0
   48.3120   29.1670   37.0820 O   0  0  0  0  0  0  0  0  0  0  0  0
   51.3420   31.6720   37.3420 N   0  0  0  0  0  0  0  0  0  0  0  0
   50.2270   31.9350   37.1680 C   0  0  0  0  0  0  0  0  0  0  0  0
   49.7670   33.4710   39.2379 H   0  0  0  0  0  0  0  0  0  0  0  0
   46.6563   34.7285   40.5409 H   0  0  0  0  0  0  0  0  0  0  0  0
   48.2217   35.4394   40.6506 H   0  0  0  0  0  0  0  0  0  0  0  0
   47.4727   32.4217   40.6599 H   0  0  0  0  0  0  0  0  0  0  0  0
   49.6855   32.1052   41.7524 H   0  0  0  0  0  0  0  0  0  0  0  0
   50.2817   33.6626   41.2310 H   0  0  0  0  0  0  0  0  0  0  0  0
   49.4886   34.4923   43.2661 H   0  0  0  0  0  0  0  0  0  0  0  0
   48.6259   32.9890   43.6166 H   0  0  0  0  0  0  0  0  0  0  0  0
   43.9642   36.8573   43.9653 H   0  0  0  0  0  0  0  0  0  0  0  0
   45.7315   36.4243   42.2562 H   0  0  0  0  0  0  0  0  0  0  0  0
   45.3561   33.5421   46.2586 H   0  0  0  0  0  0  0  0  0  0  0  0
   46.2711   33.6914   38.5704 H   0  0  0  0  0  0  0  0  0  0  0  0
   45.1421   33.2107   36.4689 H   0  0  0  0  0  0  0  0  0  0  0  0
   46.3884   32.1025   34.6256 H   0  0  0  0  0  0  0  0  0  0  0  0
   49.6826   33.2337   33.9468 H   0  0  0  0  0  0  0  0  0  0  0  0
   50.9119   32.1893   32.0727 H   0  0  0  0  0  0  0  0  0  0  0  0
   50.8232   29.6955   31.7562 H   0  0  0  0  0  0  0  0  0  0  0  0
   49.4998   28.3744   33.3507 H   0  0  0  0  0  0  0  0  0  0  0  0
   48.1890   27.6904   35.2727 H   0  0  0  0  0  0  0  0  0  0  0  0
  1  4  1  0
  2  6  1  0
  2  9  1  0
  3  2  1  0
  4  3  1  0
  4  5  1  0
  5  6  1  0
  7 12  2  0
  8  9  2  0
  8  7  1  0
  9 10  1  0
 10 11  2  0
 12 11  1  0
 13 29  1  0
 13 14  2  0
 14  1  1  0
 15 14  1  0
 16 15  2  0
 17 18  2  0
 17 16  1  0
 18 13  1  0
 19 20  2  0
 19 25  1  0
 20 18  1  0
 21 20  1  0
 22 21  2  0
 23 22  1  0
 23 24  2  0
 24 19  1  0
 25 27  2  0
 26 25  2  0
 29 28  3  0
  1 30  1  0
  3 31  1  0
  3 32  1  0
  4 33  1  6
  5 34  1  0
  5 35  1  0
  6 36  1  0
  6 37  1  0
  7 38  1  0
  8 39  1  0
 11 40  1  0
 15 41  1  0
 16 42  1  0
 17 43  1  0
 21 44  1  0
 22 45  1  0
 23 46  1  0
 24 47  1  0
 25 48  1  0
M  ISO  8  31  13  32  13  33  13  34  13  35  13  36  13  37  13  38  14
M  ISO  8  39  14  40  14  41  14  42  14  43  14  44  14  45  14  46  14
M  ISO  2  47  14  48  11
M  END
>  <minimizedAffinity>  (1) 
-5.12544584

>  <minimizedRMSD>  (1) 
2.50339484

$$$$
