
     RDKit          3D

 51 54  0  0  1  0  0  0  0  0999 V2000
   47.3020   33.3410   43.3020 N   0  0  0  0  0  0  0  0  0  0  0  0
   47.9790   33.7180   42.0880 C   0  0  0  0  0  0  0  0  0  0  0  0
   47.8510   32.4280   41.3280 C   0  0  2  0  0  0  0  0  0  0  0  0
   48.3240   31.4350   42.3710 C   0  0  0  0  0  0  0  0  0  0  0  0
   47.7970   32.0320   43.6510 C   0  0  0  0  0  0  0  0  0  0  0  0
   44.6970   35.7350   44.4720 C   0  0  0  0  0  0  0  0  0  0  0  0
   45.6230   35.1310   43.6270 C   0  0  0  0  0  0  0  0  0  0  0  0
   46.3410   34.0340   44.0650 C   0  0  0  0  0  0  0  0  0  0  0  0
   46.0950   33.5940   45.3410 N   0  0  0  0  0  0  0  0  0  0  0  0
   45.2050   34.1750   46.1560 C   0  0  0  0  0  0  0  0  0  0  0  0
   44.4980   35.2480   45.7300 N   0  0  0  0  0  0  0  0  0  0  0  0
   48.7500   32.3400   40.2190 N   0  0  0  0  0  0  0  0  0  0  0  0
   48.7470   31.8040   37.7890 C   0  0  0  0  0  0  0  0  0  0  0  0
   48.6140   32.6840   38.8620 C   0  0  0  0  0  0  0  0  0  0  0  0
   48.3310   33.9720   38.4640 C   0  0  0  0  0  0  0  0  0  0  0  0
   48.1800   34.4110   37.1790 C   0  0  0  0  0  0  0  0  0  0  0  0
   48.3220   33.4940   36.1590 C   0  0  0  0  0  0  0  0  0  0  0  0
   48.6090   32.1840   36.4790 C   0  0  0  0  0  0  0  0  0  0  0  0
   48.7680   31.1680   35.4040 C   0  0  0  0  0  0  0  0  0  0  0  0
   49.4720   31.7530   34.1940 C   0  0  0  0  0  0  0  0  0  0  0  0
   49.4350   30.8190   33.0170 C   0  0  0  0  0  0  0  0  0  0  0  0
   48.0450   30.7530   32.4850 C   0  0  0  0  0  0  0  0  0  0  0  0
   47.0760   31.1920   33.5690 C   0  0  0  0  0  0  0  0  0  0  0  0
   47.4600   30.6220   34.9100 C   0  0  0  0  0  0  0  0  0  0  0  0
   49.2790   29.3070   38.3950 N   0  0  0  0  0  0  0  0  0  0  0  0
   49.0460   30.4110   38.1240 C   0  0  0  0  0  0  0  0  0  0  0  0
   47.4723   34.5491   41.5757 H   0  0  0  0  0  0  0  0  0  0  0  0
   49.0071   34.0870   42.2181 H   0  0  0  0  0  0  0  0  0  0  0  0
   46.8408   32.2883   40.9158 H   0  0  0  0  0  0  0  0  0  0  0  0
   47.8972   30.4370   42.1924 H   0  0  0  0  0  0  0  0  0  0  0  0
   49.4138   31.2856   42.3724 H   0  0  0  0  0  0  0  0  0  0  0  0
   48.6028   32.1135   44.3954 H   0  0  0  0  0  0  0  0  0  0  0  0
   47.0078   31.4065   44.0936 H   0  0  0  0  0  0  0  0  0  0  0  0
   44.1242   36.6074   44.1243 H   0  0  0  0  0  0  0  0  0  0  0  0
   45.7833   35.5256   42.6128 H   0  0  0  0  0  0  0  0  0  0  0  0
   45.0486   33.7805   47.1709 H   0  0  0  0  0  0  0  0  0  0  0  0
   49.6726   31.9506   40.4600 H   0  0  0  0  0  0  0  0  0  0  0  0
   48.2150   34.7220   39.2603 H   0  0  0  0  0  0  0  0  0  0  0  0
   47.9518   35.4654   36.9643 H   0  0  0  0  0  0  0  0  0  0  0  0
   48.2084   33.8021   35.1091 H   0  0  0  0  0  0  0  0  0  0  0  0
   49.3564   30.3617   35.8662 H   0  0  0  0  0  0  0  0  0  0  0  0
   48.9770   32.6951   33.9158 H   0  0  0  0  0  0  0  0  0  0  0  0
   50.5255   31.9219   34.4617 H   0  0  0  0  0  0  0  0  0  0  0  0
   50.1116   31.1892   32.2326 H   0  0  0  0  0  0  0  0  0  0  0  0
   49.7572   29.8156   33.3323 H   0  0  0  0  0  0  0  0  0  0  0  0
   47.9515   31.4200   31.6153 H   0  0  0  0  0  0  0  0  0  0  0  0
   47.8147   29.7222   32.1776 H   0  0  0  0  0  0  0  0  0  0  0  0
   47.0818   32.2902   33.6315 H   0  0  0  0  0  0  0  0  0  0  0  0
   46.0732   30.8223   33.3088 H   0  0  0  0  0  0  0  0  0  0  0  0
   46.6744   30.8705   35.6388 H   0  0  0  0  0  0  0  0  0  0  0  0
   47.5698   29.5335   34.7956 H   0  0  0  0  0  0  0  0  0  0  0  0
  1  5  1  0
  1  8  1  0
  2  1  1  0
  3  2  1  0
  3  4  1  0
  4  5  1  0
  6 11  2  0
  7  8  2  0
  7  6  1  0
  8  9  1  0
  9 10  2  0
 11 10  1  0
 12  3  1  0
 13 26  1  0
 13 14  2  0
 14 12  1  0
 15 14  1  0
 16 15  2  0
 17 18  2  0
 17 16  1  0
 18 13  1  0
 19 18  1  0
 20 19  1  0
 21 20  1  0
 22 21  1  0
 22 23  1  0
 23 24  1  0
 24 19  1  0
 26 25  3  0
  2 27  1  0
  2 28  1  0
  3 29  1  6
  4 30  1  0
  4 31  1  0
  5 32  1  0
  5 33  1  0
  6 34  1  0
  7 35  1  0
 10 36  1  0
 12 37  1  0
 15 38  1  0
 16 39  1  0
 17 40  1  0
 19 41  1  0
 20 42  1  0
 20 43  1  0
 21 44  1  0
 21 45  1  0
 22 46  1  0
 22 47  1  0
 23 48  1  0
 23 49  1  0
 24 50  1  0
 24 51  1  0
M  ISO  8  27  13  28  13  29  13  30  13  31  13  32  13  33  13  34  14
M  ISO  8  35  14  36  14  38  14  39  14  40  14  41  13  42  13  43  13
M  ISO  8  44  13  45  13  46  13  47  13  48  13  49  13  50  13  51  13
M  END
>  <minimizedAffinity>  (1) 
-4.93119574

>  <minimizedRMSD>  (1) 
1.14371407

$$$$
