
     RDKit          3D

 38 40  0  0  1  0  0  0  0  0999 V2000
   47.3500   33.3920   43.6350 N   0  0  0  0  0  0  0  0  0  0  0  0
   48.1360   34.0280   42.5910 C   0  0  0  0  0  0  0  0  0  0  0  0
   48.0410   32.9500   41.5550 C   0  0  2  0  0  0  0  0  0  0  0  0
   48.4070   31.7240   42.3620 C   0  0  0  0  0  0  0  0  0  0  0  0
   47.7640   32.0170   43.6970 C   0  0  0  0  0  0  0  0  0  0  0  0
   44.5760   35.4440   45.0580 C   0  0  0  0  0  0  0  0  0  0  0  0
   45.5240   34.9900   44.1310 C   0  0  0  0  0  0  0  0  0  0  0  0
   46.3530   33.9460   44.4750 C   0  0  0  0  0  0  0  0  0  0  0  0
   46.2070   33.3960   45.7210 N   0  0  0  0  0  0  0  0  0  0  0  0
   45.2960   33.8350   46.6050 C   0  0  0  0  0  0  0  0  0  0  0  0
   44.4770   34.8630   46.2730 N   0  0  0  0  0  0  0  0  0  0  0  0
   49.0150   33.0870   40.5120 N   0  0  0  0  0  0  0  0  0  0  0  0
   49.4110   32.1830   38.2190 C   0  0  0  0  0  0  0  0  0  0  0  0
   48.8840   33.1400   39.0960 C   0  0  0  0  0  0  0  0  0  0  0  0
   48.2090   34.1690   38.4600 C   0  0  0  0  0  0  0  0  0  0  0  0
   48.0460   34.2840   37.1080 C   0  0  0  0  0  0  0  0  0  0  0  0
   48.5730   33.3310   36.2890 C   0  0  0  0  0  0  0  0  0  0  0  0
   49.2530   32.2900   36.8730 C   0  0  0  0  0  0  0  0  0  0  0  0
   50.7180   30.2000   39.2960 N   0  0  0  0  0  0  0  0  0  0  0  0
   50.1340   31.0730   38.8100 C   0  0  0  0  0  0  0  0  0  0  0  0
   49.8410   31.2330   35.9910 C   0  0  0  0  0  0  0  0  0  0  0  0
   47.6857   34.9718   42.2498 H   0  0  0  0  0  0  0  0  0  0  0  0
   49.1550   34.3288   42.8759 H   0  0  0  0  0  0  0  0  0  0  0  0
   47.0592   32.9454   41.0590 H   0  0  0  0  0  0  0  0  0  0  0  0
   47.9913   30.8109   41.9109 H   0  0  0  0  0  0  0  0  0  0  0  0
   49.4903   31.5433   42.4239 H   0  0  0  0  0  0  0  0  0  0  0  0
   48.4881   31.8707   44.5120 H   0  0  0  0  0  0  0  0  0  0  0  0
   46.9154   31.3457   43.8954 H   0  0  0  0  0  0  0  0  0  0  0  0
   43.9090   36.2781   44.7945 H   0  0  0  0  0  0  0  0  0  0  0  0
   45.6047   35.4620   43.1407 H   0  0  0  0  0  0  0  0  0  0  0  0
   45.2148   33.3621   47.5948 H   0  0  0  0  0  0  0  0  0  0  0  0
   49.9857   33.1604   40.8486 H   0  0  0  0  0  0  0  0  0  0  0  0
   47.7700   34.9547   39.0924 H   0  0  0  0  0  0  0  0  0  0  0  0
   47.4950   35.1371   36.6853 H   0  0  0  0  0  0  0  0  0  0  0  0
   48.4578   33.3932   35.1968 H   0  0  0  0  0  0  0  0  0  0  0  0
   50.2821   30.4401   36.6129 H   0  0  0  0  0  0  0  0  0  0  0  0
   49.0516   30.8045   35.3560 H   0  0  0  0  0  0  0  0  0  0  0  0
   50.6214   31.6777   35.3560 H   0  0  0  0  0  0  0  0  0  0  0  0
  1  5  1  0
  1  8  1  0
  2  1  1  0
  3  4  1  0
  3  2  1  0
  4  5  1  0
  6 11  2  0
  7  8  2  0
  7  6  1  0
  8  9  1  0
  9 10  2  0
 11 10  1  0
 12  3  1  0
 13 20  1  0
 13 14  2  0
 14 12  1  0
 15 14  1  0
 16 15  2  0
 17 18  2  0
 17 16  1  0
 18 13  1  0
 20 19  3  0
 21 18  1  0
  2 22  1  0
  2 23  1  0
  3 24  1  6
  4 25  1  0
  4 26  1  0
  5 27  1  0
  5 28  1  0
  6 29  1  0
  7 30  1  0
 10 31  1  0
 12 32  1  0
 15 33  1  0
 16 34  1  0
 17 35  1  0
 21 36  1  0
 21 37  1  0
 21 38  1  0
M  ISO  8  22  13  23  13  24  13  25  13  26  13  27  13  28  13  29  14
M  ISO  8  30  14  31  14  33  14  34  14  35  14  36   8  37   8  38   8
M  END
>  <minimizedAffinity>  (1) 
-4.38293076

>  <minimizedRMSD>  (1) 
0.0400693677

$$$$
