
     RDKit          3D

 36 38  0  0  1  0  0  0  0  0999 V2000
   47.3460   33.4040   43.6410 N   0  0  0  0  0  0  0  0  0  0  0  0
   48.1290   34.0450   42.5890 C   0  0  0  0  0  0  0  0  0  0  0  0
   48.0230   32.9620   41.5460 C   0  0  2  0  0  0  0  0  0  0  0  0
   48.3950   31.7340   42.3530 C   0  0  0  0  0  0  0  0  0  0  0  0
   47.7710   32.0250   43.6960 C   0  0  0  0  0  0  0  0  0  0  0  0
   44.5760   35.4400   45.0730 C   0  0  0  0  0  0  0  0  0  0  0  0
   45.5160   34.9930   44.1540 C   0  0  0  0  0  0  0  0  0  0  0  0
   46.3540   33.9490   44.4760 C   0  0  0  0  0  0  0  0  0  0  0  0
   46.2060   33.3960   45.7220 N   0  0  0  0  0  0  0  0  0  0  0  0
   45.2980   33.8250   46.6130 C   0  0  0  0  0  0  0  0  0  0  0  0
   44.4800   34.8530   46.2840 N   0  0  0  0  0  0  0  0  0  0  0  0
   48.9840   33.1040   40.5010 N   0  0  0  0  0  0  0  0  0  0  0  0
   49.4110   32.1780   38.2300 C   0  0  0  0  0  0  0  0  0  0  0  0
   48.8700   33.1430   39.0990 C   0  0  0  0  0  0  0  0  0  0  0  0
   48.2030   34.1530   38.4510 C   0  0  0  0  0  0  0  0  0  0  0  0
   48.0460   34.2650   37.0880 C   0  0  0  0  0  0  0  0  0  0  0  0
   48.5900   33.3010   36.2770 C   0  0  0  0  0  0  0  0  0  0  0  0
   49.2740   32.2580   36.8770 C   0  0  0  0  0  0  0  0  0  0  0  0
   50.7230   30.2070   39.3390 N   0  0  0  0  0  0  0  0  0  0  0  0
   50.1380   31.0670   38.8470 C   0  0  0  0  0  0  0  0  0  0  0  0
   49.9720   31.0180   35.7970 S   0  0  0  0  0  0  0  0  0  0  0  0
   47.6778   34.9903   42.2532 H   0  0  0  0  0  0  0  0  0  0  0  0
   49.1503   34.3445   42.8667 H   0  0  0  0  0  0  0  0  0  0  0  0
   47.0381   32.9541   41.0562 H   0  0  0  0  0  0  0  0  0  0  0  0
   47.9716   30.8219   41.9071 H   0  0  0  0  0  0  0  0  0  0  0  0
   49.4790   31.5535   42.4027 H   0  0  0  0  0  0  0  0  0  0  0  0
   48.5083   31.8830   44.4999 H   0  0  0  0  0  0  0  0  0  0  0  0
   46.9287   31.3495   43.9063 H   0  0  0  0  0  0  0  0  0  0  0  0
   43.9081   36.2745   44.8131 H   0  0  0  0  0  0  0  0  0  0  0  0
   45.5913   35.4736   43.1674 H   0  0  0  0  0  0  0  0  0  0  0  0
   45.2192   33.3464   47.6003 H   0  0  0  0  0  0  0  0  0  0  0  0
   49.9523   33.1962   40.8397 H   0  0  0  0  0  0  0  0  0  0  0  0
   47.7554   34.9407   39.0748 H   0  0  0  0  0  0  0  0  0  0  0  0
   47.4939   35.1128   36.6563 H   0  0  0  0  0  0  0  0  0  0  0  0
   48.4857   33.3555   35.1833 H   0  0  0  0  0  0  0  0  0  0  0  0
   50.5335   30.0205   36.5498 H   0  0  0  0  0  0  0  0  0  0  0  0
  1  5  1  0
  1  8  1  0
  2  1  1  0
  3  4  1  0
  3  2  1  0
  4  5  1  0
  6 11  2  0
  7  8  2  0
  7  6  1  0
  8  9  1  0
  9 10  2  0
 11 10  1  0
 12  3  1  0
 13 20  1  0
 13 14  2  0
 14 12  1  0
 15 14  1  0
 16 15  2  0
 17 18  2  0
 17 16  1  0
 18 13  1  0
 20 19  3  0
 21 18  1  0
  2 22  1  0
  2 23  1  0
  3 24  1  6
  4 25  1  0
  4 26  1  0
  5 27  1  0
  5 28  1  0
  6 29  1  0
  7 30  1  0
 10 31  1  0
 12 32  1  0
 15 33  1  0
 16 34  1  0
 17 35  1  0
 21 36  1  0
M  ISO  8  22  13  23  13  24  13  25  13  26  13  27  13  28  13  29  14
M  ISO  6  30  14  31  14  33  14  34  14  35  14  36  11
M  END
>  <minimizedAffinity>  (1) 
-4.36218596

>  <minimizedRMSD>  (1) 
0.0369537883

$$$$
