
     RDKit          3D

 36 38  0  0  1  0  0  0  0  0999 V2000
   47.3510   33.4040   43.6290 N   0  0  0  0  0  0  0  0  0  0  0  0
   48.1350   34.0170   42.5880 C   0  0  0  0  0  0  0  0  0  0  0  0
   48.0260   32.9470   41.5450 C   0  0  2  0  0  0  0  0  0  0  0  0
   48.3640   31.7020   42.3340 C   0  0  0  0  0  0  0  0  0  0  0  0
   47.7600   32.0090   43.6860 C   0  0  0  0  0  0  0  0  0  0  0  0
   44.5810   35.4390   45.0590 C   0  0  0  0  0  0  0  0  0  0  0  0
   45.5250   34.9800   44.1580 C   0  0  0  0  0  0  0  0  0  0  0  0
   46.3620   33.9340   44.4840 C   0  0  0  0  0  0  0  0  0  0  0  0
   46.2050   33.3950   45.7250 N   0  0  0  0  0  0  0  0  0  0  0  0
   45.3020   33.8170   46.6160 C   0  0  0  0  0  0  0  0  0  0  0  0
   44.4830   34.8520   46.2760 N   0  0  0  0  0  0  0  0  0  0  0  0
   49.0010   33.0860   40.4970 N   0  0  0  0  0  0  0  0  0  0  0  0
   49.4080   32.2050   38.1940 C   0  0  0  0  0  0  0  0  0  0  0  0
   48.8790   33.1430   39.0960 C   0  0  0  0  0  0  0  0  0  0  0  0
   48.2050   34.1640   38.4670 C   0  0  0  0  0  0  0  0  0  0  0  0
   48.0380   34.2970   37.1080 C   0  0  0  0  0  0  0  0  0  0  0  0
   48.5710   33.3610   36.2760 C   0  0  0  0  0  0  0  0  0  0  0  0
   49.2590   32.3100   36.8450 C   0  0  0  0  0  0  0  0  0  0  0  0
   50.7060   30.1880   39.2470 N   0  0  0  0  0  0  0  0  0  0  0  0
   50.1420   31.0840   38.7820 C   0  0  0  0  0  0  0  0  0  0  0  0
   49.8420   31.2990   36.0770 O   0  0  0  0  0  0  0  0  0  0  0  0
   47.6980   34.9680   42.2494 H   0  0  0  0  0  0  0  0  0  0  0  0
   49.1605   34.2953   42.8723 H   0  0  0  0  0  0  0  0  0  0  0  0
   47.0430   32.9596   41.0514 H   0  0  0  0  0  0  0  0  0  0  0  0
   47.9053   30.8084   41.8855 H   0  0  0  0  0  0  0  0  0  0  0  0
   49.4408   31.4804   42.3707 H   0  0  0  0  0  0  0  0  0  0  0  0
   48.5053   31.8604   44.4813 H   0  0  0  0  0  0  0  0  0  0  0  0
   46.9109   31.3466   43.9103 H   0  0  0  0  0  0  0  0  0  0  0  0
   43.9161   36.2729   44.7898 H   0  0  0  0  0  0  0  0  0  0  0  0
   45.6089   35.4553   43.1695 H   0  0  0  0  0  0  0  0  0  0  0  0
   45.2217   33.3387   47.6033 H   0  0  0  0  0  0  0  0  0  0  0  0
   49.9712   33.1573   40.8354 H   0  0  0  0  0  0  0  0  0  0  0  0
   47.7611   34.9415   39.1061 H   0  0  0  0  0  0  0  0  0  0  0  0
   47.4793   35.1512   36.6979 H   0  0  0  0  0  0  0  0  0  0  0  0
   48.4567   33.4403   35.1848 H   0  0  0  0  0  0  0  0  0  0  0  0
   50.3287   30.5593   36.5198 H   0  0  0  0  0  0  0  0  0  0  0  0
  1  5  1  0
  1  8  1  0
  2  1  1  0
  3  4  1  0
  3  2  1  0
  4  5  1  0
  6 11  2  0
  7  8  2  0
  7  6  1  0
  8  9  1  0
  9 10  2  0
 11 10  1  0
 12  3  1  0
 13 20  1  0
 13 14  2  0
 14 12  1  0
 15 14  1  0
 16 15  2  0
 17 18  2  0
 17 16  1  0
 18 13  1  0
 20 19  3  0
 21 18  1  0
  2 22  1  0
  2 23  1  0
  3 24  1  6
  4 25  1  0
  4 26  1  0
  5 27  1  0
  5 28  1  0
  6 29  1  0
  7 30  1  0
 10 31  1  0
 12 32  1  0
 15 33  1  0
 16 34  1  0
 17 35  1  0
 21 36  1  0
M  ISO  8  22  13  23  13  24  13  25  13  26  13  27  13  28  13  29  14
M  ISO  6  30  14  31  14  33  14  34  14  35  14  36   3
M  END
>  <minimizedAffinity>  (1) 
-4.35894823

>  <minimizedRMSD>  (1) 
0.0342265926

$$$$
