
     RDKit          3D

 39 41  0  0  1  0  0  0  0  0999 V2000
   47.5120   34.4900   42.4350 N   0  0  0  0  0  0  0  0  0  0  0  0
   47.5100   34.7340   40.9980 C   0  0  0  0  0  0  0  0  0  0  0  0
   48.1260   33.4440   40.5480 C   0  0  2  0  0  0  0  0  0  0  0  0
   49.3260   33.3360   41.4710 C   0  0  0  0  0  0  0  0  0  0  0  0
   48.7990   33.9320   42.7510 C   0  0  0  0  0  0  0  0  0  0  0  0
   44.6020   35.8460   44.3320 C   0  0  0  0  0  0  0  0  0  0  0  0
   45.5420   35.7160   43.3150 C   0  0  0  0  0  0  0  0  0  0  0  0
   46.5150   34.7160   43.3980 C   0  0  0  0  0  0  0  0  0  0  0  0
   46.4740   33.9180   44.4970 N   0  0  0  0  0  0  0  0  0  0  0  0
   45.5730   34.0350   45.4820 C   0  0  0  0  0  0  0  0  0  0  0  0
   44.6330   35.0110   45.3890 N   0  0  0  0  0  0  0  0  0  0  0  0
   48.6160   33.4840   39.2060 N   0  0  0  0  0  0  0  0  0  0  0  0
   48.8150   32.2670   37.0390 C   0  0  0  0  0  0  0  0  0  0  0  0
   48.0910   33.0150   37.9840 C   0  0  0  0  0  0  0  0  0  0  0  0
   46.7950   33.2570   37.6100 C   0  0  0  0  0  0  0  0  0  0  0  0
   46.1960   32.8460   36.4500 C   0  0  0  0  0  0  0  0  0  0  0  0
   46.9480   32.1140   35.5540 C   0  0  0  0  0  0  0  0  0  0  0  0
   48.2580   31.8350   35.8690 C   0  0  0  0  0  0  0  0  0  0  0  0
   49.4920   31.7350   33.7560 C   0  0  0  0  0  0  0  0  0  0  0  0
   49.2640   32.9760   33.5660 O   0  0  0  0  0  0  0  0  0  0  0  0
   49.0050   31.0770   34.9190 N   0  0  0  0  0  0  0  0  0  0  0  0
   51.3040   31.7350   37.6160 N   0  0  0  0  0  0  0  0  0  0  0  0
   50.2000   31.9690   37.3680 C   0  0  0  0  0  0  0  0  0  0  0  0
   46.4922   34.8666   40.6023 H   0  0  0  0  0  0  0  0  0  0  0  0
   48.0265   35.6480   40.6698 H   0  0  0  0  0  0  0  0  0  0  0  0
   47.3979   32.6200   40.5788 H   0  0  0  0  0  0  0  0  0  0  0  0
   49.6263   32.2874   41.6135 H   0  0  0  0  0  0  0  0  0  0  0  0
   50.2249   33.8404   41.0868 H   0  0  0  0  0  0  0  0  0  0  0  0
   49.4772   34.7190   43.1125 H   0  0  0  0  0  0  0  0  0  0  0  0
   48.7227   33.1736   43.5441 H   0  0  0  0  0  0  0  0  0  0  0  0
   43.8332   36.6306   44.2733 H   0  0  0  0  0  0  0  0  0  0  0  0
   45.5198   36.3960   42.4507 H   0  0  0  0  0  0  0  0  0  0  0  0
   45.5942   33.3556   46.3468 H   0  0  0  0  0  0  0  0  0  0  0  0
   49.5320   33.9458   39.1132 H   0  0  0  0  0  0  0  0  0  0  0  0
   46.1762   33.8378   38.3098 H   0  0  0  0  0  0  0  0  0  0  0  0
   45.1451   33.0922   36.2380 H   0  0  0  0  0  0  0  0  0  0  0  0
   46.5098   31.7613   34.6087 H   0  0  0  0  0  0  0  0  0  0  0  0
   50.0714   31.1681   33.0124 H   0  0  0  0  0  0  0  0  0  0  0  0
   49.1877   30.0749   35.0720 H   0  0  0  0  0  0  0  0  0  0  0  0
  1  5  1  0
  1  8  1  0
  2  1  1  0
  3  2  1  0
  3  4  1  0
  4  5  1  0
  6 11  2  0
  7  8  2  0
  7  6  1  0
  8  9  1  0
  9 10  2  0
 11 10  1  0
 12  3  1  0
 13 23  1  0
 13 14  2  0
 14 12  1  0
 15 14  1  0
 16 15  2  0
 17 18  2  0
 17 16  1  0
 18 13  1  0
 19 21  1  0
 20 19  2  0
 21 18  1  0
 23 22  3  0
  2 24  1  0
  2 25  1  0
  3 26  1  6
  4 27  1  0
  4 28  1  0
  5 29  1  0
  5 30  1  0
  6 31  1  0
  7 32  1  0
 10 33  1  0
 12 34  1  0
 15 35  1  0
 16 36  1  0
 17 37  1  0
 19 38  1  0
 21 39  1  0
M  ISO  8  24  13  25  13  26  13  27  13  28  13  29  13  30  13  31  14
M  ISO  6  32  14  33  14  35  14  36  14  37  14  38   6
M  END
>  <minimizedAffinity>  (1) 
-4.98574257

>  <minimizedRMSD>  (1) 
1.61422944

$$$$
