
     RDKit          3D

 54 57  0  0  1  0  0  0  0  0999 V2000
   48.2640   32.9510   38.6120 N   0  0  0  0  0  0  0  0  0  0  0  0
   47.4950   34.1590   41.8750 N   0  0  0  0  0  0  0  0  0  0  0  0
   47.3730   34.3360   40.4320 C   0  0  0  0  0  0  0  0  0  0  0  0
   47.8790   32.9890   39.9930 C   0  0  2  0  0  0  0  0  0  0  0  0
   49.1610   32.8680   40.8140 C   0  0  0  0  0  0  0  0  0  0  0  0
   48.7850   33.5440   42.1050 C   0  0  0  0  0  0  0  0  0  0  0  0
   44.8610   35.7870   43.9470 C   0  0  0  0  0  0  0  0  0  0  0  0
   45.7080   35.5560   42.8660 C   0  0  0  0  0  0  0  0  0  0  0  0
   46.5970   34.4880   42.9000 C   0  0  0  0  0  0  0  0  0  0  0  0
   46.5800   33.7180   44.0160 N   0  0  0  0  0  0  0  0  0  0  0  0
   45.7690   33.9280   45.0630 C   0  0  0  0  0  0  0  0  0  0  0  0
   44.9090   34.9650   45.0250 N   0  0  0  0  0  0  0  0  0  0  0  0
   48.0560   32.0930   36.2900 C   0  0  0  0  0  0  0  0  0  0  0  0
   47.5340   32.7120   37.4360 C   0  0  0  0  0  0  0  0  0  0  0  0
   46.2150   33.0730   37.3030 C   0  0  0  0  0  0  0  0  0  0  0  0
   45.4270   32.8850   36.2080 C   0  0  0  0  0  0  0  0  0  0  0  0
   45.9840   32.2720   35.1060 C   0  0  0  0  0  0  0  0  0  0  0  0
   47.3010   31.8810   35.1630 C   0  0  0  0  0  0  0  0  0  0  0  0
   48.3690   32.0730   32.9800 C   0  0  0  0  0  0  0  0  0  0  0  0
   48.3880   33.3340   33.0840 O   0  0  0  0  0  0  0  0  0  0  0  0
   47.8520   31.2470   34.0020 N   0  0  0  0  0  0  0  0  0  0  0  0
   48.9050   31.5700   31.7620 N   0  0  0  0  0  0  0  0  0  0  0  0
   49.4150   32.4500   30.7630 C   0  0  0  0  0  0  0  0  0  0  0  0
   49.0640   32.1210   29.3540 C   0  0  0  0  0  0  0  0  0  0  0  0
   48.6400   30.7190   29.0900 C   0  0  0  0  0  0  0  0  0  0  0  0
   48.0130   30.0030   30.2430 C   0  0  0  0  0  0  0  0  0  0  0  0
   48.9940   30.1650   31.4090 C   0  0  0  0  0  0  0  0  0  0  0  0
   50.5600   31.3430   36.3800 N   0  0  0  0  0  0  0  0  0  0  0  0
   49.4540   31.6780   36.3480 C   0  0  0  0  0  0  0  0  0  0  0  0
   49.2651   33.1335   38.4523 H   0  0  0  0  0  0  0  0  0  0  0  0
   46.3313   34.5073   40.1229 H   0  0  0  0  0  0  0  0  0  0  0  0
   47.9039   35.2033   40.0126 H   0  0  0  0  0  0  0  0  0  0  0  0
   47.1158   32.2079   40.1251 H   0  0  0  0  0  0  0  0  0  0  0  0
   49.4288   31.8141   40.9802 H   0  0  0  0  0  0  0  0  0  0  0  0
   50.0393   33.3142   40.3246 H   0  0  0  0  0  0  0  0  0  0  0  0
   49.5312   34.3086   42.3671 H   0  0  0  0  0  0  0  0  0  0  0  0
   48.7454   32.8264   42.9378 H   0  0  0  0  0  0  0  0  0  0  0  0
   44.1567   36.6317   43.9268 H   0  0  0  0  0  0  0  0  0  0  0  0
   45.6736   36.2170   41.9875 H   0  0  0  0  0  0  0  0  0  0  0  0
   45.8051   33.2642   45.9394 H   0  0  0  0  0  0  0  0  0  0  0  0
   45.7476   33.5640   38.1693 H   0  0  0  0  0  0  0  0  0  0  0  0
   44.3770   33.2127   36.2032 H   0  0  0  0  0  0  0  0  0  0  0  0
   45.3865   32.0990   34.1988 H   0  0  0  0  0  0  0  0  0  0  0  0
   47.8704   30.2208   33.9156 H   0  0  0  0  0  0  0  0  0  0  0  0
   49.0318   33.4586   30.9773 H   0  0  0  0  0  0  0  0  0  0  0  0
   50.5096   32.3586   30.8221 H   0  0  0  0  0  0  0  0  0  0  0  0
   48.2397   32.7832   29.0506 H   0  0  0  0  0  0  0  0  0  0  0  0
   49.9924   32.2594   28.7806 H   0  0  0  0  0  0  0  0  0  0  0  0
   47.9114   30.7358   28.2661 H   0  0  0  0  0  0  0  0  0  0  0  0
   49.5621   30.1655   28.8591 H   0  0  0  0  0  0  0  0  0  0  0  0
   47.0413   30.4539   30.4929 H   0  0  0  0  0  0  0  0  0  0  0  0
   47.8254   28.9440   30.0121 H   0  0  0  0  0  0  0  0  0  0  0  0
   48.6982   29.5308   32.2577 H   0  0  0  0  0  0  0  0  0  0  0  0
   50.0175   29.8636   31.1413 H   0  0  0  0  0  0  0  0  0  0  0  0
  1  4  1  0
  2  6  1  0
  2  9  1  0
  3  2  1  0
  4  3  1  0
  4  5  1  0
  5  6  1  0
  7 12  2  0
  8  9  2  0
  8  7  1  0
  9 10  1  0
 10 11  2  0
 12 11  1  0
 13 29  1  0
 13 14  2  0
 14  1  1  0
 15 14  1  0
 16 15  2  0
 17 18  2  0
 17 16  1  0
 18 13  1  0
 19 20  2  0
 19 21  1  0
 21 18  1  0
 22 19  1  0
 23 22  1  0
 24 23  1  0
 25 24  1  0
 25 26  1  0
 26 27  1  0
 27 22  1  0
 29 28  3  0
  1 30  1  0
  3 31  1  0
  3 32  1  0
  4 33  1  1
  5 34  1  0
  5 35  1  0
  6 36  1  0
  6 37  1  0
  7 38  1  0
  8 39  1  0
 11 40  1  0
 15 41  1  0
 16 42  1  0
 17 43  1  0
 21 44  1  0
 23 45  1  0
 23 46  1  0
 24 47  1  0
 24 48  1  0
 25 49  1  0
 25 50  1  0
 26 51  1  0
 26 52  1  0
 27 53  1  0
 27 54  1  0
M  ISO  8  31  13  32  13  33  13  34  13  35  13  36  13  37  13  38  14
M  ISO  8  39  14  40  14  41  14  42  14  43  14  45  13  46  13  47  13
M  ISO  7  48  13  49  13  50  13  51  13  52  13  53  13  54  13
M  END
>  <minimizedAffinity>  (1) 
-6.50390387

>  <minimizedRMSD>  (1) 
1.24016452

$$$$
