
     RDKit          3D

 32 34  0  0  0  0  0  0  0  0999 V2000
   44.6610   32.9940   41.2050 Br  0  0  0  0  0  0  0  0  0  0  0  0
   46.3150   33.9060   40.9260 C   0  0  0  0  0  0  0  0  0  0  0  0
   46.8340   34.7080   41.9050 C   0  0  0  0  0  0  0  0  0  0  0  0
   48.0510   35.3920   41.7270 C   0  0  0  0  0  0  0  0  0  0  0  0
   48.7040   35.2280   40.5320 C   0  0  0  0  0  0  0  0  0  0  0  0
   48.1510   34.4170   39.5790 C   0  0  0  0  0  0  0  0  0  0  0  0
   46.9760   33.7450   39.7260 C   0  0  0  0  0  0  0  0  0  0  0  0
   45.6230   34.0470   45.2990 C   0  0  0  0  0  0  0  0  0  0  0  0
   44.7110   35.1110   45.5350 C   0  0  0  0  0  0  0  0  0  0  0  0
   44.5340   36.0440   44.5020 C   0  0  0  0  0  0  0  0  0  0  0  0
   45.2360   35.8720   43.3590 N   0  0  0  0  0  0  0  0  0  0  0  0
   46.1000   34.8490   43.1580 C   0  0  0  0  0  0  0  0  0  0  0  0
   46.2730   33.9550   44.1410 N   0  0  0  0  0  0  0  0  0  0  0  0
   46.4500   32.9140   38.6950 N   0  0  0  0  0  0  0  0  0  0  0  0
   45.5580   33.2300   37.5830 C   0  0  0  0  0  0  0  0  0  0  0  0
   46.1050   32.5570   36.3640 C   0  0  0  0  0  0  0  0  0  0  0  0
   47.1950   31.6680   36.9690 C   0  0  0  0  0  0  0  0  0  0  0  0
   46.5930   31.4970   38.3690 C   0  0  0  0  0  0  0  0  0  0  0  0
   48.4638   36.0352   42.5181 H   0  0  0  0  0  0  0  0  0  0  0  0
   49.6584   35.7411   40.3426 H   0  0  0  0  0  0  0  0  0  0  0  0
   48.6928   34.2998   38.6289 H   0  0  0  0  0  0  0  0  0  0  0  0
   45.7934   33.2922   46.0808 H   0  0  0  0  0  0  0  0  0  0  0  0
   44.1670   35.1994   46.4870 H   0  0  0  0  0  0  0  0  0  0  0  0
   43.8432   36.8920   44.6187 H   0  0  0  0  0  0  0  0  0  0  0  0
   44.5454   32.8568   37.7958 H   0  0  0  0  0  0  0  0  0  0  0  0
   45.4975   34.3178   37.4313 H   0  0  0  0  0  0  0  0  0  0  0  0
   46.5278   33.2867   35.6577 H   0  0  0  0  0  0  0  0  0  0  0  0
   45.3523   32.0082   35.7789 H   0  0  0  0  0  0  0  0  0  0  0  0
   47.2905   30.7092   36.4384 H   0  0  0  0  0  0  0  0  0  0  0  0
   48.2173   32.0724   36.9334 H   0  0  0  0  0  0  0  0  0  0  0  0
   45.6258   30.9736   38.3469 H   0  0  0  0  0  0  0  0  0  0  0  0
   47.1770   30.8921   39.0782 H   0  0  0  0  0  0  0  0  0  0  0  0
  2  1  1  0
  2  3  2  0
  3 12  1  0
  4  3  1  0
  5  4  2  0
  6  7  2  0
  6  5  1  0
  7  2  1  0
  8  9  2  0
 10  9  1  0
 11 10  2  0
 12 11  1  0
 12 13  2  0
 13  8  1  0
 14  7  1  0
 15 14  1  0
 16 17  1  0
 16 15  1  0
 17 18  1  0
 18 14  1  0
  4 19  1  0
  5 20  1  0
  6 21  1  0
  8 22  1  0
  9 23  1  0
 10 24  1  0
 15 25  1  0
 15 26  1  0
 16 27  1  0
 16 28  1  0
 17 29  1  0
 17 30  1  0
 18 31  1  0
 18 32  1  0
M  ISO  8  19  14  20  14  21  14  22  14  23  14  24  14  25  13  26  13
M  ISO  6  27  13  28  13  29  13  30  13  31  13  32  13
M  END
>  <minimizedAffinity>  (1) 
-5.32727432

>  <minimizedRMSD>  (1) 
0.419868827

$$$$
