
     RDKit          3D

 32 33  0  0  0  0  0  0  0  0999 V2000
   48.0170   32.4700   42.9230 C   0  0  0  0  0  0  0  0  0  0  0  0
   46.6260   34.5060   41.2470 Cl  0  0  0  0  0  0  0  0  0  0  0  0
   46.2640   34.2620   42.9440 C   0  0  0  0  0  0  0  0  0  0  0  0
   46.9770   33.3000   43.6120 C   0  0  0  0  0  0  0  0  0  0  0  0
   46.7100   33.1010   44.9450 C   0  0  0  0  0  0  0  0  0  0  0  0
   45.7520   33.8530   45.5930 C   0  0  0  0  0  0  0  0  0  0  0  0
   45.0180   34.8410   44.9140 C   0  0  0  0  0  0  0  0  0  0  0  0
   45.3030   35.0230   43.5730 C   0  0  0  0  0  0  0  0  0  0  0  0
   44.5860   36.0450   42.7340 C   0  0  0  0  0  0  0  0  0  0  0  0
   43.3590   35.3930   42.1040 C   0  0  0  0  0  0  0  0  0  0  0  0
   49.2730   33.2240   42.6250 C   0  0  0  0  0  0  0  0  0  0  0  0
   49.9790   32.5920   41.5150 C   0  0  0  0  0  0  0  0  0  0  0  0
   49.3360   32.2740   40.3420 C   0  0  0  0  0  0  0  0  0  0  0  0
   50.0070   31.6620   39.2760 C   0  0  0  0  0  0  0  0  0  0  0  0
   51.3250   31.4080   39.4840 N   0  0  0  0  0  0  0  0  0  0  0  0
   51.9470   31.7240   40.6380 C   0  0  0  0  0  0  0  0  0  0  0  0
   51.2830   32.3120   41.6480 N   0  0  0  0  0  0  0  0  0  0  0  0
   48.2674   31.6163   43.5699 H   0  0  0  0  0  0  0  0  0  0  0  0
   47.5929   32.1497   41.9599 H   0  0  0  0  0  0  0  0  0  0  0  0
   47.2667   32.3330   45.5021 H   0  0  0  0  0  0  0  0  0  0  0  0
   45.5588   33.6761   46.6614 H   0  0  0  0  0  0  0  0  0  0  0  0
   44.2519   35.4419   45.4259 H   0  0  0  0  0  0  0  0  0  0  0  0
   44.2723   36.8882   43.3669 H   0  0  0  0  0  0  0  0  0  0  0  0
   45.2567   36.4174   41.9457 H   0  0  0  0  0  0  0  0  0  0  0  0
   42.6859   35.0353   42.8971 H   0  0  0  0  0  0  0  0  0  0  0  0
   42.8317   36.1299   41.4803 H   0  0  0  0  0  0  0  0  0  0  0  0
   43.6746   34.5437   41.4803 H   0  0  0  0  0  0  0  0  0  0  0  0
   49.0212   34.2601   42.3547 H   0  0  0  0  0  0  0  0  0  0  0  0
   49.9189   33.2190   43.5154 H   0  0  0  0  0  0  0  0  0  0  0  0
   48.2659   32.5065   40.2381 H   0  0  0  0  0  0  0  0  0  0  0  0
   49.5009   31.4044   38.3339 H   0  0  0  0  0  0  0  0  0  0  0  0
   53.0169   31.4965   40.7549 H   0  0  0  0  0  0  0  0  0  0  0  0
  1  4  1  0
  2  3  1  0
  3  8  2  0
  3  4  1  0
  4  5  2  0
  5  6  1  0
  7  6  2  0
  8  7  1  0
  9  8  1  0
 10  9  1  0
 11  1  1  0
 12 17  1  0
 12 11  1  0
 13 12  2  0
 14 15  2  0
 14 13  1  0
 15 16  1  0
 16 17  2  0
  1 18  1  0
  1 19  1  0
  5 20  1  0
  6 21  1  0
  7 22  1  0
  9 23  1  0
  9 24  1  0
 10 25  1  0
 10 26  1  0
 10 27  1  0
 11 28  1  0
 11 29  1  0
 13 30  1  0
 14 31  1  0
 16 32  1  0
M  ISO  8  18   8  19   8  20  14  21  14  22  14  23   8  24   8  25   8
M  ISO  7  26   8  27   8  28   8  29   8  30  14  31  14  32  14
M  END
>  <minimizedAffinity>  (1) 
-4.32831907

>  <minimizedRMSD>  (1) 
2.0724678

$$$$
