
     RDKit          3D

 33 34  0  0  0  0  0  0  0  0999 V2000
   47.8660   35.2250   41.9580 C   0  0  0  0  0  0  0  0  0  0  0  0
   48.9010   34.2380   41.7310 C   0  0  0  0  0  0  0  0  0  0  0  0
   50.0090   34.1500   42.5370 C   0  0  0  0  0  0  0  0  0  0  0  0
   51.0140   33.2040   42.3290 C   0  0  0  0  0  0  0  0  0  0  0  0
   50.8140   32.3740   41.2710 N   0  0  0  0  0  0  0  0  0  0  0  0
   49.7160   32.4700   40.4820 C   0  0  0  0  0  0  0  0  0  0  0  0
   48.7780   33.3890   40.7130 N   0  0  0  0  0  0  0  0  0  0  0  0
   49.7110   31.5380   39.4710 O   0  0  0  0  0  0  0  0  0  0  0  0
   51.0680   29.8850   37.9460 O   0  0  0  0  0  0  0  0  0  0  0  0
   50.9090   31.3620   38.2830 P   0  0  0  0  0  0  0  0  0  0  0  0
   52.3650   31.9640   38.8730 O   0  0  0  0  0  0  0  0  0  0  0  0
   50.4500   32.1170   36.8420 O   0  0  0  0  0  0  0  0  0  0  0  0
   46.5380   34.5650   42.1260 C   0  0  0  0  0  0  0  0  0  0  0  0
   44.6980   36.3350   43.6650 Cl  0  0  0  0  0  0  0  0  0  0  0  0
   45.4250   34.8990   44.3450 C   0  0  0  0  0  0  0  0  0  0  0  0
   46.2560   34.1630   43.5360 C   0  0  0  0  0  0  0  0  0  0  0  0
   46.8380   33.0220   44.0680 C   0  0  0  0  0  0  0  0  0  0  0  0
   46.5900   32.6360   45.3670 C   0  0  0  0  0  0  0  0  0  0  0  0
   45.7320   33.4030   46.1870 C   0  0  0  0  0  0  0  0  0  0  0  0
   45.1690   34.5270   45.6410 C   0  0  0  0  0  0  0  0  0  0  0  0
   44.3060   35.3490   46.3780 O   0  0  0  0  0  0  0  0  0  0  0  0
   47.8235   35.9087   41.0973 H   0  0  0  0  0  0  0  0  0  0  0  0
   48.1033   35.7828   42.8759 H   0  0  0  0  0  0  0  0  0  0  0  0
   50.1084   34.8515   43.3784 H   0  0  0  0  0  0  0  0  0  0  0  0
   51.9026   33.1351   42.9737 H   0  0  0  0  0  0  0  0  0  0  0  0
   52.3481   31.9570   39.8628 H   0  0  0  0  0  0  0  0  0  0  0  0
   49.9470   32.9443   37.0486 H   0  0  0  0  0  0  0  0  0  0  0  0
   45.7555   35.2654   41.7988 H   0  0  0  0  0  0  0  0  0  0  0  0
   46.5499   33.6470   41.5201 H   0  0  0  0  0  0  0  0  0  0  0  0
   47.5089   32.4151   43.4422 H   0  0  0  0  0  0  0  0  0  0  0  0
   47.0619   31.7267   45.7677 H   0  0  0  0  0  0  0  0  0  0  0  0
   45.5235   33.1085   47.2261 H   0  0  0  0  0  0  0  0  0  0  0  0
   44.0898   35.1235   47.3174 H   0  0  0  0  0  0  0  0  0  0  0  0
  1 13  1  0
  2  1  1  0
  2  3  2  0
  4  3  1  0
  5  4  2  0
  6  7  2  0
  6  5  1  0
  7  2  1  0
  8  6  1  0
  9 10  2  0
 10 11  1  0
 10  8  1  0
 12 10  1  0
 13 16  1  0
 14 15  1  0
 15 20  2  0
 16 17  2  0
 16 15  1  0
 17 18  1  0
 18 19  2  0
 20 19  1  0
 20 21  1  0
  1 22  1  0
  1 23  1  0
  3 24  1  0
  4 25  1  0
 11 26  1  0
 12 27  1  0
 13 28  1  0
 13 29  1  0
 17 30  1  0
 18 31  1  0
 19 32  1  0
 21 33  1  0
M  ISO  8  22   8  23   8  24  14  25  14  26   3  27   3  28   8  29   8
M  ISO  4  30  14  31  14  32  14  33   3
M  END
>  <minimizedAffinity>  (1) 
-5.96081781

>  <minimizedRMSD>  (1) 
3.29150081

$$$$
