
     RDKit          3D

 28 29  0  0  0  0  0  0  0  0999 V2000
   46.5120   34.7740   42.2140 C   0  0  0  0  0  0  0  0  0  0  0  0
   44.6200   36.3980   43.8410 Cl  0  0  0  0  0  0  0  0  0  0  0  0
   45.3960   34.9540   44.4500 C   0  0  0  0  0  0  0  0  0  0  0  0
   46.2490   34.2930   43.5980 C   0  0  0  0  0  0  0  0  0  0  0  0
   46.8650   33.1580   44.0650 C   0  0  0  0  0  0  0  0  0  0  0  0
   46.6380   32.6910   45.3470 C   0  0  0  0  0  0  0  0  0  0  0  0
   45.7700   33.3660   46.2100 C   0  0  0  0  0  0  0  0  0  0  0  0
   45.1510   34.5120   45.7320 C   0  0  0  0  0  0  0  0  0  0  0  0
   44.2690   35.2700   46.4870 O   0  0  0  0  0  0  0  0  0  0  0  0
   47.9400   35.2000   42.0000 C   0  0  0  0  0  0  0  0  0  0  0  0
   48.7050   34.0940   41.4520 C   0  0  0  0  0  0  0  0  0  0  0  0
   48.3380   33.4530   40.3010 C   0  0  0  0  0  0  0  0  0  0  0  0
   49.0810   32.3810   39.7730 C   0  0  0  0  0  0  0  0  0  0  0  0
   50.1810   32.0390   40.4920 N   0  0  0  0  0  0  0  0  0  0  0  0
   50.5250   32.6790   41.6190 C   0  0  0  0  0  0  0  0  0  0  0  0
   49.8010   33.6920   42.0970 N   0  0  0  0  0  0  0  0  0  0  0  0
   51.6800   32.2370   42.2750 O   0  0  0  0  0  0  0  0  0  0  0  0
   46.2797   33.9610   41.5104 H   0  0  0  0  0  0  0  0  0  0  0  0
   45.8771   35.6565   42.0465 H   0  0  0  0  0  0  0  0  0  0  0  0
   47.5533   32.6088   43.4058 H   0  0  0  0  0  0  0  0  0  0  0  0
   47.1462   31.7782   45.6913 H   0  0  0  0  0  0  0  0  0  0  0  0
   45.5844   33.0018   47.2312 H   0  0  0  0  0  0  0  0  0  0  0  0
   44.0545   35.0012   47.4153 H   0  0  0  0  0  0  0  0  0  0  0  0
   47.9675   36.0466   41.2982 H   0  0  0  0  0  0  0  0  0  0  0  0
   48.3774   35.5031   42.9627 H   0  0  0  0  0  0  0  0  0  0  0  0
   47.4333   33.7860   39.7712 H   0  0  0  0  0  0  0  0  0  0  0  0
   48.7927   31.8597   38.8482 H   0  0  0  0  0  0  0  0  0  0  0  0
   51.9741   32.6784   43.1109 H   0  0  0  0  0  0  0  0  0  0  0  0
  1  4  1  0
  2  3  1  0
  3  8  2  0
  4  5  2  0
  4  3  1  0
  5  6  1  0
  6  7  2  0
  8  7  1  0
  8  9  1  0
 10  1  1  0
 11 10  1  0
 11 16  1  0
 12 11  2  0
 13 12  1  0
 13 14  2  0
 14 15  1  0
 15 16  2  0
 15 17  1  0
  1 18  1  0
  1 19  1  0
  5 20  1  0
  6 21  1  0
  7 22  1  0
  9 23  1  0
 10 24  1  0
 10 25  1  0
 12 26  1  0
 13 27  1  0
 17 28  1  0
M  ISO  8  18   8  19   8  20  14  21  14  22  14  23   3  24   8  25   8
M  ISO  3  26  14  27  14  28   3
M  END
>  <minimizedAffinity>  (1) 
-5.46836185

>  <minimizedRMSD>  (1) 
0.632939637

$$$$
