
     RDKit          3D

 37 39  0  0  0  0  0  0  0  0999 V2000
   45.7650   31.7950   47.0810 C   0  0  0  0  0  0  0  0  0  0  0  0
   45.5080   32.2590   48.3660 C   0  0  0  0  0  0  0  0  0  0  0  0
   45.3140   31.4220   49.4500 C   0  0  0  0  0  0  0  0  0  0  0  0
   45.3800   30.0730   49.2360 C   0  0  0  0  0  0  0  0  0  0  0  0
   45.6380   29.6010   47.9450 C   0  0  0  0  0  0  0  0  0  0  0  0
   45.8150   30.4660   46.9490 N   0  0  0  0  0  0  0  0  0  0  0  0
   44.7320   36.7510   43.8060 C   0  0  0  0  0  0  0  0  0  0  0  0
   45.5700   36.4710   42.7350 C   0  0  0  0  0  0  0  0  0  0  0  0
   46.2420   35.2280   42.7390 C   0  0  0  0  0  0  0  0  0  0  0  0
   46.0320   34.3780   43.7890 N   0  0  0  0  0  0  0  0  0  0  0  0
   45.1930   34.7180   44.8110 C   0  0  0  0  0  0  0  0  0  0  0  0
   44.5340   35.9140   44.8270 N   0  0  0  0  0  0  0  0  0  0  0  0
   45.9590   32.7390   45.9860 C   0  0  0  0  0  0  0  0  0  0  0  0
   46.9450   32.5680   45.2090 O   0  0  0  0  0  0  0  0  0  0  0  0
   45.0180   33.7970   45.8640 N   0  0  0  0  0  0  0  0  0  0  0  0
   45.7060   28.1700   47.7370 C   0  0  0  0  0  0  0  0  0  0  0  0
   44.6310   27.4200   47.8610 C   0  0  0  0  0  0  0  0  0  0  0  0
   44.5600   25.9440   47.6780 C   0  0  0  0  0  0  0  0  0  0  0  0
   44.9750   25.2540   48.9070 C   0  0  0  0  0  0  0  0  0  0  0  0
   45.8530   24.2260   49.1340 C   0  0  0  0  0  0  0  0  0  0  0  0
   45.8560   23.9770   50.4900 C   0  0  0  0  0  0  0  0  0  0  0  0
   44.9980   24.8400   51.0470 N   0  0  0  0  0  0  0  0  0  0  0  0
   44.4510   25.6260   50.1110 N   0  0  0  0  0  0  0  0  0  0  0  0
   45.4564   33.3457   48.5288 H   0  0  0  0  0  0  0  0  0  0  0  0
   45.1131   31.8285   50.4522 H   0  0  0  0  0  0  0  0  0  0  0  0
   45.2322   29.3687   50.0679 H   0  0  0  0  0  0  0  0  0  0  0  0
   44.2023   37.7151   43.8137 H   0  0  0  0  0  0  0  0  0  0  0  0
   45.7058   37.1902   41.9138 H   0  0  0  0  0  0  0  0  0  0  0  0
   46.9181   34.9508   41.9168 H   0  0  0  0  0  0  0  0  0  0  0  0
   44.2327   33.8881   46.5242 H   0  0  0  0  0  0  0  0  0  0  0  0
   46.6666   27.7040   47.4724 H   0  0  0  0  0  0  0  0  0  0  0  0
   43.6948   27.9334   48.1254 H   0  0  0  0  0  0  0  0  0  0  0  0
   43.5261   25.6586   47.4338 H   0  0  0  0  0  0  0  0  0  0  0  0
   45.2361   25.6533   46.8604 H   0  0  0  0  0  0  0  0  0  0  0  0
   46.4463   23.6969   48.3737 H   0  0  0  0  0  0  0  0  0  0  0  0
   46.4504   23.2142   51.0143 H   0  0  0  0  0  0  0  0  0  0  0  0
   44.7880   24.8922   52.0540 H   0  0  0  0  0  0  0  0  0  0  0  0
  1  2  2  0
  2  3  1  0
  4  3  2  0
  5  4  1  0
  6  1  1  0
  6  5  2  0
  7 12  2  0
  8  9  2  0
  8  7  1  0
  9 10  1  0
 10 11  2  0
 11 12  1  0
 11 15  1  0
 13  1  1  0
 14 13  2  0
 15 13  1  0
 16 17  2  0
 16  5  1  0
 18 17  1  0
 18 19  1  0
 19 20  1  0
 19 23  2  0
 20 21  2  0
 21 22  1  0
 23 22  1  0
  2 24  1  0
  3 25  1  0
  4 26  1  0
  7 27  1  0
  8 28  1  0
  9 29  1  0
 15 30  1  0
 16 31  1  0
 17 32  1  0
 18 33  1  0
 18 34  1  0
 20 35  1  0
 21 36  1  0
 22 37  1  0
M  ISO  8  24  14  25  14  26  14  27  14  28  14  29  14  33   8  34   8
M  ISO  3  35  14  36  14  37   9
M  END
>  <minimizedAffinity>  (1) 
-6.1047492

>  <minimizedRMSD>  (1) 
0.489008904

$$$$
