
     RDKit          3D

 34 36  0  0  0  0  0  0  0  0999 V2000
   46.4900   34.9370   42.3000 C   0  0  0  0  0  0  0  0  0  0  0  0
   44.5670   36.4190   44.0220 Cl  0  0  0  0  0  0  0  0  0  0  0  0
   45.3850   34.9730   44.5500 C   0  0  0  0  0  0  0  0  0  0  0  0
   46.2530   34.3770   43.6590 C   0  0  0  0  0  0  0  0  0  0  0  0
   46.9060   33.2300   44.0680 C   0  0  0  0  0  0  0  0  0  0  0  0
   46.6960   32.6990   45.3270 C   0  0  0  0  0  0  0  0  0  0  0  0
   45.8100   33.3180   46.2180 C   0  0  0  0  0  0  0  0  0  0  0  0
   45.1640   34.4590   45.8020 C   0  0  0  0  0  0  0  0  0  0  0  0
   44.2600   35.1510   46.6190 O   0  0  0  0  0  0  0  0  0  0  0  0
   47.9270   35.1160   41.9720 C   0  0  0  0  0  0  0  0  0  0  0  0
   48.3270   34.2110   40.9170 C   0  0  0  0  0  0  0  0  0  0  0  0
   47.8590   34.3420   39.6390 C   0  0  0  0  0  0  0  0  0  0  0  0
   48.2300   33.4810   38.6030 C   0  0  0  0  0  0  0  0  0  0  0  0
   49.0980   32.4940   38.9490 N   0  0  0  0  0  0  0  0  0  0  0  0
   49.5610   32.3660   40.2110 C   0  0  0  0  0  0  0  0  0  0  0  0
   49.1750   33.2120   41.1590 N   0  0  0  0  0  0  0  0  0  0  0  0
   50.5170   31.2820   40.6060 C   0  0  0  0  0  0  0  0  0  0  0  0
   51.1720   31.3940   41.9680 C   0  0  0  0  0  0  0  0  0  0  0  0
   51.9430   31.6440   40.6760 C   0  0  0  0  0  0  0  0  0  0  0  0
   46.0472   34.2536   41.5604 H   0  0  0  0  0  0  0  0  0  0  0  0
   46.0278   35.9349   42.2777 H   0  0  0  0  0  0  0  0  0  0  0  0
   47.6046   32.7310   43.3803 H   0  0  0  0  0  0  0  0  0  0  0  0
   47.2277   31.7852   45.6308 H   0  0  0  0  0  0  0  0  0  0  0  0
   45.6357   32.9035   47.2219 H   0  0  0  0  0  0  0  0  0  0  0  0
   44.0655   34.8213   47.5320 H   0  0  0  0  0  0  0  0  0  0  0  0
   48.0959   36.1518   41.6426 H   0  0  0  0  0  0  0  0  0  0  0  0
   48.5244   34.8989   42.8697 H   0  0  0  0  0  0  0  0  0  0  0  0
   47.1596   35.1614   39.4166 H   0  0  0  0  0  0  0  0  0  0  0  0
   47.8462   33.5941   37.5784 H   0  0  0  0  0  0  0  0  0  0  0  0
   49.9431   30.4967   40.0921 H   0  0  0  0  0  0  0  0  0  0  0  0
   50.9229   32.2308   42.6372 H   0  0  0  0  0  0  0  0  0  0  0  0
   51.2899   30.7390   42.8438 H   0  0  0  0  0  0  0  0  0  0  0  0
   52.7077   30.9253   40.3463 H   0  0  0  0  0  0  0  0  0  0  0  0
   52.5507   32.4738   40.2858 H   0  0  0  0  0  0  0  0  0  0  0  0
  1  4  1  0
  2  3  1  0
  3  8  2  0
  4  5  2  0
  4  3  1  0
  5  6  1  0
  6  7  2  0
  8  7  1  0
  8  9  1  0
 10  1  1  0
 11 16  1  0
 11 10  1  0
 12 11  2  0
 13 14  2  0
 13 12  1  0
 14 15  1  0
 15 17  1  0
 15 16  2  0
 17 19  1  0
 17 18  1  0
 19 18  1  0
  1 20  1  0
  1 21  1  0
  5 22  1  0
  6 23  1  0
  7 24  1  0
  9 25  1  0
 10 26  1  0
 10 27  1  0
 12 28  1  0
 13 29  1  0
 17 30  1  0
 18 31  1  0
 18 32  1  0
 19 33  1  0
 19 34  1  0
M  ISO  8  20   8  21   8  22  14  23  14  24  14  25   3  26   8  27   8
M  ISO  7  28  14  29  14  30  13  31  13  32  13  33  13  34  13
M  END
>  <minimizedAffinity>  (1) 
-5.55152893

>  <minimizedRMSD>  (1) 
1.92094004

$$$$
