
     RDKit          3D

 47 51  0  0  1  0  0  0  0  0999 V2000
   48.3340   33.9710   41.1490 C   0  0  0  0  0  0  0  0  0  0  0  0
   47.5960   34.3340   40.0450 C   0  0  0  0  0  0  0  0  0  0  0  0
   47.7750   33.7470   38.7910 C   0  0  0  0  0  0  0  0  0  0  0  0
   48.7360   32.7830   38.7280 N   0  0  0  0  0  0  0  0  0  0  0  0
   49.4520   32.4340   39.8080 C   0  0  0  0  0  0  0  0  0  0  0  0
   49.2510   33.0190   40.9930 N   0  0  0  0  0  0  0  0  0  0  0  0
   50.4860   31.3600   39.7560 C   0  0  2  0  0  0  0  0  0  0  0  0
   50.7380   30.5430   40.9840 C   0  0  0  0  0  0  0  0  0  0  0  0
   51.7430   31.6050   40.5190 C   0  0  1  0  0  0  0  0  0  0  0  0
   53.7030   30.1070   40.6690 C   0  0  0  0  0  0  0  0  0  0  0  0
   52.9630   30.9950   39.9260 C   0  0  0  0  0  0  0  0  0  0  0  0
   53.3170   31.3450   38.6330 C   0  0  0  0  0  0  0  0  0  0  0  0
   54.4650   30.7350   38.1540 C   0  0  0  0  0  0  0  0  0  0  0  0
   55.0810   30.8430   36.9690 N   0  0  0  0  0  0  0  0  0  0  0  0
   56.1610   30.0930   36.8930 N   0  0  0  0  0  0  0  0  0  0  0  0
   56.3070   29.4320   38.0730 C   0  0  0  0  0  0  0  0  0  0  0  0
   55.2330   29.8420   38.8640 C   0  0  0  0  0  0  0  0  0  0  0  0
   54.8380   29.5230   40.1550 C   0  0  0  0  0  0  0  0  0  0  0  0
   48.1260   34.5820   42.4460 C   0  0  0  0  0  0  0  0  0  0  0  0
   46.6660   34.6160   42.7700 C   0  0  0  0  0  0  0  0  0  0  0  0
   44.6390   36.0930   44.3870 Cl  0  0  0  0  0  0  0  0  0  0  0  0
   45.4520   34.6500   44.9680 C   0  0  0  0  0  0  0  0  0  0  0  0
   46.3570   34.0650   44.1180 C   0  0  0  0  0  0  0  0  0  0  0  0
   46.9910   32.9170   44.5680 C   0  0  0  0  0  0  0  0  0  0  0  0
   46.7180   32.3910   45.8210 C   0  0  0  0  0  0  0  0  0  0  0  0
   45.7910   33.0130   46.6590 C   0  0  0  0  0  0  0  0  0  0  0  0
   45.1690   34.1440   46.2100 C   0  0  0  0  0  0  0  0  0  0  0  0
   44.2260   34.8380   46.9780 O   0  0  0  0  0  0  0  0  0  0  0  0
   46.8336   35.1192   40.1555 H   0  0  0  0  0  0  0  0  0  0  0  0
   47.1808   34.0425   37.9137 H   0  0  0  0  0  0  0  0  0  0  0  0
   50.2434   31.1023   38.7145 H   0  0  0  0  0  0  0  0  0  0  0  0
   50.1383   30.7088   41.8912 H   0  0  0  0  0  0  0  0  0  0  0  0
   50.7833   29.4686   41.2154 H   0  0  0  0  0  0  0  0  0  0  0  0
   52.2211   32.4982   40.9474 H   0  0  0  0  0  0  0  0  0  0  0  0
   53.3827   29.8589   41.6917 H   0  0  0  0  0  0  0  0  0  0  0  0
   52.7301   32.0546   38.0314 H   0  0  0  0  0  0  0  0  0  0  0  0
   54.7472   31.4453   36.2030 H   0  0  0  0  0  0  0  0  0  0  0  0
   57.1034   28.7240   38.3459 H   0  0  0  0  0  0  0  0  0  0  0  0
   55.4233   28.8138   40.7587 H   0  0  0  0  0  0  0  0  0  0  0  0
   48.6553   33.9972   43.2127 H   0  0  0  0  0  0  0  0  0  0  0  0
   48.5144   35.6110   42.4257 H   0  0  0  0  0  0  0  0  0  0  0  0
   46.3223   35.6602   42.7308 H   0  0  0  0  0  0  0  0  0  0  0  0
   46.1498   33.9861   42.0305 H   0  0  0  0  0  0  0  0  0  0  0  0
   47.7236   32.4148   43.9191 H   0  0  0  0  0  0  0  0  0  0  0  0
   47.2341   31.4794   46.1565 H   0  0  0  0  0  0  0  0  0  0  0  0
   45.5669   32.6034   47.6550 H   0  0  0  0  0  0  0  0  0  0  0  0
   43.9875   34.5123   47.8820 H   0  0  0  0  0  0  0  0  0  0  0  0
  1 19  1  0
  2  1  2  0
  3  2  1  0
  4  3  2  0
  4  5  1  0
  5  6  2  0
  6  1  1  0
  7  5  1  0
  7  9  1  0
  7  8  1  0
  9  8  1  0
 11  9  1  0
 11 10  2  0
 12 11  1  0
 13 12  2  0
 13 17  1  0
 14 13  1  0
 15 14  1  0
 15 16  2  0
 16 17  1  0
 17 18  2  0
 18 10  1  0
 19 20  1  0
 20 23  1  0
 21 22  1  0
 22 27  2  0
 23 24  2  0
 23 22  1  0
 24 25  1  0
 25 26  2  0
 27 26  1  0
 27 28  1  0
  2 29  1  0
  3 30  1  0
  7 31  1  6
  8 32  1  0
  8 33  1  0
  9 34  1  1
 10 35  1  0
 12 36  1  0
 14 37  1  0
 16 38  1  0
 18 39  1  0
 19 40  1  0
 19 41  1  0
 20 42  1  0
 20 43  1  0
 24 44  1  0
 25 45  1  0
 26 46  1  0
 28 47  1  0
M  ISO  8  29  14  30  14  31  13  32  13  33  13  34  13  35  14  36  14
M  ISO  8  37   9  38  14  39  14  40   8  41   8  42   8  43   8  44  14
M  ISO  3  45  14  46  14  47   3
M  END
>  <minimizedAffinity>  (1) 
-6.35849667

>  <minimizedRMSD>  (1) 
1.11476958

$$$$
