
     RDKit          3D

 40 42  0  0  0  0  0  0  0  0999 V2000
   46.3740   31.9730   46.1780 C   0  0  0  0  0  0  0  0  0  0  0  0
   46.8560   32.7290   47.2450 C   0  0  0  0  0  0  0  0  0  0  0  0
   46.7500   32.3340   48.5640 C   0  0  0  0  0  0  0  0  0  0  0  0
   46.1370   31.1320   48.8200 C   0  0  0  0  0  0  0  0  0  0  0  0
   45.6520   30.3720   47.7580 C   0  0  0  0  0  0  0  0  0  0  0  0
   45.7880   30.8160   46.5090 N   0  0  0  0  0  0  0  0  0  0  0  0
   48.9540   34.9880   41.6300 C   0  0  0  0  0  0  0  0  0  0  0  0
   47.9470   34.7890   40.6780 C   0  0  0  0  0  0  0  0  0  0  0  0
   46.7940   34.1070   41.0710 C   0  0  0  0  0  0  0  0  0  0  0  0
   46.6920   33.6660   42.3520 N   0  0  0  0  0  0  0  0  0  0  0  0
   47.6990   33.8840   43.2450 C   0  0  0  0  0  0  0  0  0  0  0  0
   48.8290   34.5460   42.8790 N   0  0  0  0  0  0  0  0  0  0  0  0
   46.5200   32.4550   44.8130 C   0  0  0  0  0  0  0  0  0  0  0  0
   45.7440   32.0110   43.9270 O   0  0  0  0  0  0  0  0  0  0  0  0
   47.5510   33.4100   44.5710 N   0  0  0  0  0  0  0  0  0  0  0  0
   45.0120   29.1080   48.0450 C   0  0  0  0  0  0  0  0  0  0  0  0
   44.8620   28.2020   47.1050 C   0  0  0  0  0  0  0  0  0  0  0  0
   44.2260   26.8650   47.2180 C   0  0  0  0  0  0  0  0  0  0  0  0
   43.3730   26.1180   49.7190 F   0  0  0  0  0  0  0  0  0  0  0  0
   44.6000   25.7040   49.2850 C   0  0  0  0  0  0  0  0  0  0  0  0
   45.1330   26.0170   48.0490 C   0  0  0  0  0  0  0  0  0  0  0  0
   46.3890   25.5340   47.7290 C   0  0  0  0  0  0  0  0  0  0  0  0
   47.0700   24.7650   48.6370 C   0  0  0  0  0  0  0  0  0  0  0  0
   46.5670   24.4350   49.8750 C   0  0  0  0  0  0  0  0  0  0  0  0
   45.2950   24.9290   50.1880 C   0  0  0  0  0  0  0  0  0  0  0  0
   47.3458   33.6891   47.0253 H   0  0  0  0  0  0  0  0  0  0  0  0
   47.1422   32.9592   49.3797 H   0  0  0  0  0  0  0  0  0  0  0  0
   46.0300   30.7727   49.8541 H   0  0  0  0  0  0  0  0  0  0  0  0
   49.8703   35.5224   41.3387 H   0  0  0  0  0  0  0  0  0  0  0  0
   48.0611   35.1598   39.6487 H   0  0  0  0  0  0  0  0  0  0  0  0
   45.9794   33.9292   40.3535 H   0  0  0  0  0  0  0  0  0  0  0  0
   48.1632   33.7416   45.3300 H   0  0  0  0  0  0  0  0  0  0  0  0
   44.6464   28.9022   49.0618 H   0  0  0  0  0  0  0  0  0  0  0  0
   45.2560   28.4666   46.1126 H   0  0  0  0  0  0  0  0  0  0  0  0
   43.2430   26.9544   47.7034 H   0  0  0  0  0  0  0  0  0  0  0  0
   44.0732   26.4184   46.2244 H   0  0  0  0  0  0  0  0  0  0  0  0
   46.8386   25.7654   46.7521 H   0  0  0  0  0  0  0  0  0  0  0  0
   48.0682   24.3932   48.3625 H   0  0  0  0  0  0  0  0  0  0  0  0
   47.1359   23.8143   50.5829 H   0  0  0  0  0  0  0  0  0  0  0  0
   44.8457   24.6961   51.1647 H   0  0  0  0  0  0  0  0  0  0  0  0
  1  6  1  0
  1  2  2  0
  2  3  1  0
  3  4  2  0
  5 16  1  0
  5  4  1  0
  6  5  2  0
  7 12  2  0
  8  9  2  0
  8  7  1  0
  9 10  1  0
 10 11  2  0
 11 15  1  0
 12 11  1  0
 13  1  1  0
 14 13  2  0
 15 13  1  0
 17 18  1  0
 17 16  2  0
 18 21  1  0
 20 19  1  0
 20 25  2  0
 21 20  1  0
 22 21  2  0
 22 23  1  0
 23 24  2  0
 24 25  1  0
  2 26  1  0
  3 27  1  0
  4 28  1  0
  7 29  1  0
  8 30  1  0
  9 31  1  0
 15 32  1  0
 16 33  1  0
 17 34  1  0
 18 35  1  0
 18 36  1  0
 22 37  1  0
 23 38  1  0
 24 39  1  0
 25 40  1  0
M  ISO  8  26  14  27  14  28  14  29  14  30  14  31  14  35   8  36   8
M  ISO  4  37  14  38  14  39  14  40  14
M  END
>  <minimizedAffinity>  (1) 
-6.03493786

>  <minimizedRMSD>  (1) 
2.5344367

$$$$
