
     RDKit          3D

 44 47  0  0  1  0  0  0  0  0999 V2000
   48.3870   34.1030   40.9590 C   0  0  0  0  0  0  0  0  0  0  0  0
   47.7620   34.2230   39.7390 C   0  0  0  0  0  0  0  0  0  0  0  0
   48.0450   33.3910   38.6520 C   0  0  0  0  0  0  0  0  0  0  0  0
   48.9930   32.4400   38.8760 N   0  0  0  0  0  0  0  0  0  0  0  0
   49.5990   32.3290   40.0700 C   0  0  0  0  0  0  0  0  0  0  0  0
   49.2990   33.1470   41.0850 N   0  0  0  0  0  0  0  0  0  0  0  0
   50.6230   31.2680   40.3330 C   0  0  2  0  0  0  0  0  0  0  0  0
   51.2110   31.1650   41.7040 C   0  0  0  0  0  0  0  0  0  0  0  0
   52.0250   31.7340   40.5300 C   0  0  1  0  0  0  0  0  0  0  0  0
   53.1400   30.9040   40.1430 N   0  0  0  0  0  0  0  0  0  0  0  0
   53.8260   30.0260   40.8930 C   0  0  0  0  0  0  0  0  0  0  0  0
   54.8770   29.3080   40.3600 C   0  0  0  0  0  0  0  0  0  0  0  0
   55.2760   29.4510   39.0360 C   0  0  0  0  0  0  0  0  0  0  0  0
   56.2340   28.7970   38.5470 O   0  0  0  0  0  0  0  0  0  0  0  0
   54.5580   30.3460   38.3180 N   0  0  0  0  0  0  0  0  0  0  0  0
   53.5350   31.0430   38.8440 C   0  0  0  0  0  0  0  0  0  0  0  0
   52.9490   31.8510   38.0450 O   0  0  0  0  0  0  0  0  0  0  0  0
   48.0710   34.9660   42.0760 C   0  0  0  0  0  0  0  0  0  0  0  0
   46.6310   34.8920   42.4110 C   0  0  0  0  0  0  0  0  0  0  0  0
   44.6550   36.3200   44.1070 Cl  0  0  0  0  0  0  0  0  0  0  0  0
   45.4680   34.8830   44.6330 C   0  0  0  0  0  0  0  0  0  0  0  0
   46.3620   34.3120   43.7560 C   0  0  0  0  0  0  0  0  0  0  0  0
   47.0180   33.1620   44.1720 C   0  0  0  0  0  0  0  0  0  0  0  0
   46.7830   32.6090   45.4170 C   0  0  0  0  0  0  0  0  0  0  0  0
   45.8690   33.2040   46.2930 C   0  0  0  0  0  0  0  0  0  0  0  0
   45.2180   34.3510   45.8720 C   0  0  0  0  0  0  0  0  0  0  0  0
   44.2850   35.0260   46.6700 O   0  0  0  0  0  0  0  0  0  0  0  0
   47.0043   35.0104   39.6133 H   0  0  0  0  0  0  0  0  0  0  0  0
   47.5367   33.4974   37.6823 H   0  0  0  0  0  0  0  0  0  0  0  0
   50.1285   30.5439   39.6688 H   0  0  0  0  0  0  0  0  0  0  0  0
   50.8605   31.8294   42.5076 H   0  0  0  0  0  0  0  0  0  0  0  0
   51.3521   30.3584   42.4385 H   0  0  0  0  0  0  0  0  0  0  0  0
   52.5420   32.6668   40.2608 H   0  0  0  0  0  0  0  0  0  0  0  0
   53.5462   29.8773   41.9464 H   0  0  0  0  0  0  0  0  0  0  0  0
   55.4172   28.5987   41.0043 H   0  0  0  0  0  0  0  0  0  0  0  0
   54.8048   30.4994   37.3298 H   0  0  0  0  0  0  0  0  0  0  0  0
   48.6606   34.6534   42.9505 H   0  0  0  0  0  0  0  0  0  0  0  0
   48.3141   36.0023   41.7987 H   0  0  0  0  0  0  0  0  0  0  0  0
   46.2140   35.9095   42.3811 H   0  0  0  0  0  0  0  0  0  0  0  0
   46.1612   34.2261   41.6722 H   0  0  0  0  0  0  0  0  0  0  0  0
   47.7404   32.6802   43.4967 H   0  0  0  0  0  0  0  0  0  0  0  0
   47.3174   31.6966   45.7203 H   0  0  0  0  0  0  0  0  0  0  0  0
   45.6735   32.7736   47.2862 H   0  0  0  0  0  0  0  0  0  0  0  0
   44.0674   34.6846   47.5734 H   0  0  0  0  0  0  0  0  0  0  0  0
  1  6  1  0
  1 18  1  0
  2  1  2  0
  3  4  2  0
  3  2  1  0
  4  5  1  0
  5  7  1  0
  5  6  2  0
  7  9  1  0
  7  8  1  0
  9  8  1  0
 10  9  1  0
 10 11  1  0
 12 11  2  0
 13 12  1  0
 14 13  2  0
 15 16  1  0
 15 13  1  0
 16 10  1  0
 17 16  2  0
 18 19  1  0
 19 22  1  0
 20 21  1  0
 21 26  2  0
 22 23  2  0
 22 21  1  0
 23 24  1  0
 24 25  2  0
 26 25  1  0
 26 27  1  0
  2 28  1  0
  3 29  1  0
  7 30  1  6
  8 31  1  0
  8 32  1  0
  9 33  1  1
 11 34  1  0
 12 35  1  0
 15 36  1  0
 18 37  1  0
 18 38  1  0
 19 39  1  0
 19 40  1  0
 23 41  1  0
 24 42  1  0
 25 43  1  0
 27 44  1  0
M  ISO  8  28  14  29  14  30  13  31  13  32  13  33  13  34  14  35  14
M  ISO  8  36   9  37   8  38   8  39   8  40   8  41  14  42  14  43  14
M  ISO  1  44   3
M  END
>  <minimizedAffinity>  (1) 
-6.22988892

>  <minimizedRMSD>  (1) 
0.720378399

$$$$
