
     RDKit          3D

 40 43  0  0  1  0  0  0  0  0999 V2000
   48.4040   34.1400   40.9580 C   0  0  0  0  0  0  0  0  0  0  0  0
   47.8160   34.3410   39.7300 C   0  0  0  0  0  0  0  0  0  0  0  0
   48.0960   33.5480   38.6070 C   0  0  0  0  0  0  0  0  0  0  0  0
   49.0030   32.5510   38.8130 N   0  0  0  0  0  0  0  0  0  0  0  0
   49.5700   32.3650   40.0130 C   0  0  0  0  0  0  0  0  0  0  0  0
   49.2770   33.1440   41.0600 N   0  0  0  0  0  0  0  0  0  0  0  0
   50.5470   31.2520   40.2510 C   0  0  2  0  0  0  0  0  0  0  0  0
   50.9490   30.9410   41.6580 C   0  0  0  0  0  0  0  0  0  0  0  0
   51.9120   31.6510   40.6900 C   0  0  1  0  0  0  0  0  0  0  0  0
   53.0830   30.8040   40.3370 C   0  0  0  0  0  0  0  0  0  0  0  0
   53.8460   30.0740   41.1500 N   0  0  0  0  0  0  0  0  0  0  0  0
   54.8270   29.4330   40.4520 C   0  0  0  0  0  0  0  0  0  0  0  0
   54.6370   29.8000   39.1660 N   0  0  0  0  0  0  0  0  0  0  0  0
   53.5930   30.6190   39.1050 N   0  0  0  0  0  0  0  0  0  0  0  0
   48.0900   34.9630   42.0990 C   0  0  0  0  0  0  0  0  0  0  0  0
   46.6550   34.8970   42.4310 C   0  0  0  0  0  0  0  0  0  0  0  0
   44.6730   36.3310   44.1240 Cl  0  0  0  0  0  0  0  0  0  0  0  0
   45.4840   34.8760   44.6440 C   0  0  0  0  0  0  0  0  0  0  0  0
   46.3780   34.3060   43.7770 C   0  0  0  0  0  0  0  0  0  0  0  0
   47.0200   33.1560   44.1850 C   0  0  0  0  0  0  0  0  0  0  0  0
   46.7720   32.6010   45.4240 C   0  0  0  0  0  0  0  0  0  0  0  0
   45.8560   33.1980   46.2950 C   0  0  0  0  0  0  0  0  0  0  0  0
   45.2150   34.3540   45.8740 C   0  0  0  0  0  0  0  0  0  0  0  0
   44.2820   35.0230   46.6770 O   0  0  0  0  0  0  0  0  0  0  0  0
   47.0921   35.1624   39.6239 H   0  0  0  0  0  0  0  0  0  0  0  0
   47.6183   33.7183   37.6309 H   0  0  0  0  0  0  0  0  0  0  0  0
   50.1402   30.6414   39.4314 H   0  0  0  0  0  0  0  0  0  0  0  0
   50.5003   31.4933   42.4968 H   0  0  0  0  0  0  0  0  0  0  0  0
   50.9883   30.0357   42.2816 H   0  0  0  0  0  0  0  0  0  0  0  0
   52.4641   32.5998   40.6193 H   0  0  0  0  0  0  0  0  0  0  0  0
   55.6036   28.7632   40.8497 H   0  0  0  0  0  0  0  0  0  0  0  0
   55.2077   29.4950   38.3646 H   0  0  0  0  0  0  0  0  0  0  0  0
   48.6738   34.6141   42.9635 H   0  0  0  0  0  0  0  0  0  0  0  0
   48.3411   36.0055   41.8537 H   0  0  0  0  0  0  0  0  0  0  0  0
   46.2456   35.9177   42.4085 H   0  0  0  0  0  0  0  0  0  0  0  0
   46.1817   34.2398   41.6867 H   0  0  0  0  0  0  0  0  0  0  0  0
   47.7425   32.6724   43.5111 H   0  0  0  0  0  0  0  0  0  0  0  0
   47.2980   31.6839   45.7278 H   0  0  0  0  0  0  0  0  0  0  0  0
   45.6497   32.7642   47.2845 H   0  0  0  0  0  0  0  0  0  0  0  0
   44.0617   34.6728   47.5764 H   0  0  0  0  0  0  0  0  0  0  0  0
  1  6  1  0
  1 15  1  0
  2  1  2  0
  3  4  2  0
  3  2  1  0
  4  5  1  0
  5  7  1  0
  5  6  2  0
  7  9  1  0
  7  8  1  0
  9  8  1  0
 10  9  1  0
 10 11  1  0
 12 11  2  0
 13 12  1  0
 14 13  1  0
 14 10  2  0
 15 16  1  0
 16 19  1  0
 17 18  1  0
 18 23  2  0
 19 20  2  0
 19 18  1  0
 20 21  1  0
 21 22  2  0
 23 22  1  0
 23 24  1  0
  2 25  1  0
  3 26  1  0
  7 27  1  6
  8 28  1  0
  8 29  1  0
  9 30  1  1
 12 31  1  0
 13 32  1  0
 15 33  1  0
 15 34  1  0
 16 35  1  0
 16 36  1  0
 20 37  1  0
 21 38  1  0
 22 39  1  0
 24 40  1  0
M  ISO  8  25  14  26  14  27  13  28  13  29  13  30  13  31  14  32   9
M  ISO  8  33   8  34   8  35   8  36   8  37  14  38  14  39  14  40   3
M  END
>  <minimizedAffinity>  (1) 
-5.80513239

>  <minimizedRMSD>  (1) 
0.376790017

$$$$
