
     RDKit          3D

 48 51  0  0  1  0  0  0  0  0999 V2000
   48.2270   33.9800   40.9270 C   0  0  0  0  0  0  0  0  0  0  0  0
   47.3740   34.0460   39.8470 C   0  0  0  0  0  0  0  0  0  0  0  0
   47.5030   33.2180   38.7250 C   0  0  0  0  0  0  0  0  0  0  0  0
   48.5340   32.3370   38.7710 N   0  0  0  0  0  0  0  0  0  0  0  0
   49.3610   32.2780   39.8250 C   0  0  0  0  0  0  0  0  0  0  0  0
   49.2070   33.0860   40.8810 N   0  0  0  0  0  0  0  0  0  0  0  0
   50.4850   31.2860   39.8860 C   0  0  2  0  0  0  0  0  0  0  0  0
   51.6340   31.5640   40.8030 C   0  0  0  0  0  0  0  0  0  0  0  0
   51.7760   31.7050   39.2860 C   0  0  1  0  0  0  0  0  0  0  0  0
   52.7240   30.7970   38.6280 C   0  0  0  0  0  0  0  0  0  0  0  0
   52.0140   30.0290   37.5280 C   0  0  0  0  0  0  0  0  0  0  0  0
   53.0550   29.6770   36.4520 C   0  0  0  0  0  0  0  0  0  0  0  0
   54.2010   29.2810   37.1170 O   0  0  0  0  0  0  0  0  0  0  0  0
   54.9060   30.4390   37.4750 C   0  0  0  0  0  0  0  0  0  0  0  0
   53.9780   31.4570   38.1150 C   0  0  0  0  0  0  0  0  0  0  0  0
   48.0730   34.8350   42.0820 C   0  0  0  0  0  0  0  0  0  0  0  0
   46.6580   34.9410   42.4860 C   0  0  0  0  0  0  0  0  0  0  0  0
   44.6830   36.3640   44.1800 Cl  0  0  0  0  0  0  0  0  0  0  0  0
   45.4680   34.9010   44.6910 C   0  0  0  0  0  0  0  0  0  0  0  0
   46.3630   34.3340   43.8240 C   0  0  0  0  0  0  0  0  0  0  0  0
   46.9970   33.1680   44.2230 C   0  0  0  0  0  0  0  0  0  0  0  0
   46.7340   32.6010   45.4500 C   0  0  0  0  0  0  0  0  0  0  0  0
   45.8140   33.1950   46.3230 C   0  0  0  0  0  0  0  0  0  0  0  0
   45.1910   34.3510   45.9170 C   0  0  0  0  0  0  0  0  0  0  0  0
   44.2500   35.0330   46.7140 O   0  0  0  0  0  0  0  0  0  0  0  0
   46.5560   34.7811   39.8670 H   0  0  0  0  0  0  0  0  0  0  0  0
   46.8171   33.2776   37.8671 H   0  0  0  0  0  0  0  0  0  0  0  0
   49.8093   30.4274   39.7583 H   0  0  0  0  0  0  0  0  0  0  0  0
   51.6270   32.4581   41.4438 H   0  0  0  0  0  0  0  0  0  0  0  0
   52.1607   31.0082   41.5927 H   0  0  0  0  0  0  0  0  0  0  0  0
   52.0236   32.4803   38.5460 H   0  0  0  0  0  0  0  0  0  0  0  0
   53.0783   30.1038   39.4051 H   0  0  0  0  0  0  0  0  0  0  0  0
   51.5744   29.1081   37.9386 H   0  0  0  0  0  0  0  0  0  0  0  0
   51.2055   30.6369   37.0957 H   0  0  0  0  0  0  0  0  0  0  0  0
   53.2654   30.5572   35.8267 H   0  0  0  0  0  0  0  0  0  0  0  0
   52.6856   28.8774   35.7930 H   0  0  0  0  0  0  0  0  0  0  0  0
   55.6981   30.1727   38.1904 H   0  0  0  0  0  0  0  0  0  0  0  0
   55.3435   30.8810   36.5677 H   0  0  0  0  0  0  0  0  0  0  0  0
   54.4989   31.9410   38.9543 H   0  0  0  0  0  0  0  0  0  0  0  0
   53.6968   32.2012   37.3553 H   0  0  0  0  0  0  0  0  0  0  0  0
   48.6537   34.4167   42.9174 H   0  0  0  0  0  0  0  0  0  0  0  0
   48.4355   35.8401   41.8206 H   0  0  0  0  0  0  0  0  0  0  0  0
   46.3864   36.0064   42.5212 H   0  0  0  0  0  0  0  0  0  0  0  0
   46.0705   34.3806   41.7439 H   0  0  0  0  0  0  0  0  0  0  0  0
   47.7217   32.6879   43.5489 H   0  0  0  0  0  0  0  0  0  0  0  0
   47.2498   31.6757   45.7463 H   0  0  0  0  0  0  0  0  0  0  0  0
   45.5963   32.7495   47.3049 H   0  0  0  0  0  0  0  0  0  0  0  0
   44.0115   34.6816   47.6083 H   0  0  0  0  0  0  0  0  0  0  0  0
  1 16  1  0
  2  1  2  0
  3  4  2  0
  3  2  1  0
  4  5  1  0
  5  7  1  0
  5  6  2  0
  6  1  1  0
  7  8  1  0
  9  7  1  0
  9  8  1  0
 10  9  1  0
 11 10  1  0
 12 13  1  0
 12 11  1  0
 13 14  1  0
 14 15  1  0
 15 10  1  0
 16 17  1  0
 17 20  1  0
 18 19  1  0
 19 24  2  0
 20 21  2  0
 20 19  1  0
 21 22  1  0
 22 23  2  0
 24 23  1  0
 24 25  1  0
  2 26  1  0
  3 27  1  0
  7 28  1  6
  8 29  1  0
  8 30  1  0
  9 31  1  1
 10 32  1  0
 11 33  1  0
 11 34  1  0
 12 35  1  0
 12 36  1  0
 14 37  1  0
 14 38  1  0
 15 39  1  0
 15 40  1  0
 16 41  1  0
 16 42  1  0
 17 43  1  0
 17 44  1  0
 21 45  1  0
 22 46  1  0
 23 47  1  0
 25 48  1  0
M  ISO  8  26  14  27  14  28  13  29  13  30  13  31  13  32  13  33  13
M  ISO  8  34  13  35  13  36  13  37  13  38  13  39  13  40  13  41   8
M  ISO  7  42   8  43   8  44   8  45  14  46  14  47  14  48   3
M  END
>  <minimizedAffinity>  (1) 
-5.79692316

>  <minimizedRMSD>  (1) 
1.51407099

$$$$
