
     RDKit          3D

 35 37  0  0  1  0  0  0  0  0999 V2000
   47.9040   35.1160   41.9690 C   0  0  0  0  0  0  0  0  0  0  0  0
   48.3190   34.2110   40.9130 C   0  0  0  0  0  0  0  0  0  0  0  0
   47.8400   34.3180   39.6260 C   0  0  0  0  0  0  0  0  0  0  0  0
   48.2180   33.4490   38.6020 C   0  0  0  0  0  0  0  0  0  0  0  0
   49.1020   32.4780   38.9610 N   0  0  0  0  0  0  0  0  0  0  0  0
   49.5630   32.3830   40.2150 C   0  0  0  0  0  0  0  0  0  0  0  0
   49.1790   33.2330   41.1690 N   0  0  0  0  0  0  0  0  0  0  0  0
   50.5170   31.2990   40.6200 C   0  0  2  0  0  0  0  0  0  0  0  0
   51.1310   31.3580   41.9830 C   0  0  0  0  0  0  0  0  0  0  0  0
   51.9530   31.6860   40.7280 C   0  0  1  0  0  0  0  0  0  0  0  0
   52.8650   30.7130   40.3020 O   0  0  0  0  0  0  0  0  0  0  0  0
   46.4790   34.9310   42.2940 C   0  0  0  0  0  0  0  0  0  0  0  0
   44.5730   36.4090   44.0210 Cl  0  0  0  0  0  0  0  0  0  0  0  0
   45.3820   34.9680   44.5480 C   0  0  0  0  0  0  0  0  0  0  0  0
   46.2450   34.3770   43.6580 C   0  0  0  0  0  0  0  0  0  0  0  0
   46.9030   33.2250   44.0720 C   0  0  0  0  0  0  0  0  0  0  0  0
   46.6970   32.6970   45.3300 C   0  0  0  0  0  0  0  0  0  0  0  0
   45.8100   33.3220   46.2190 C   0  0  0  0  0  0  0  0  0  0  0  0
   45.1600   34.4690   45.7950 C   0  0  0  0  0  0  0  0  0  0  0  0
   44.2570   35.1570   46.6140 O   0  0  0  0  0  0  0  0  0  0  0  0
   48.0658   36.1526   41.6384 H   0  0  0  0  0  0  0  0  0  0  0  0
   48.4992   34.9007   42.8687 H   0  0  0  0  0  0  0  0  0  0  0  0
   47.1280   35.1242   39.3954 H   0  0  0  0  0  0  0  0  0  0  0  0
   47.8293   33.5419   37.5772 H   0  0  0  0  0  0  0  0  0  0  0  0
   49.9569   30.5228   40.0780 H   0  0  0  0  0  0  0  0  0  0  0  0
   50.8476   32.1577   42.6831 H   0  0  0  0  0  0  0  0  0  0  0  0
   51.2337   30.6609   42.8276 H   0  0  0  0  0  0  0  0  0  0  0  0
   52.5705   32.5378   40.4068 H   0  0  0  0  0  0  0  0  0  0  0  0
   53.2742   30.2764   41.0907 H   0  0  0  0  0  0  0  0  0  0  0  0
   45.9768   35.9072   42.2243 H   0  0  0  0  0  0  0  0  0  0  0  0
   46.0765   34.2013   41.5760 H   0  0  0  0  0  0  0  0  0  0  0  0
   47.6008   32.7250   43.3842 H   0  0  0  0  0  0  0  0  0  0  0  0
   47.2293   31.7844   45.6363 H   0  0  0  0  0  0  0  0  0  0  0  0
   45.6356   32.9125   47.2249 H   0  0  0  0  0  0  0  0  0  0  0  0
   44.0674   34.8273   47.5280 H   0  0  0  0  0  0  0  0  0  0  0  0
  1 12  1  0
  2  7  1  0
  2  1  1  0
  3  2  2  0
  4  5  2  0
  4  3  1  0
  5  6  1  0
  6  8  1  0
  6  7  2  0
  8 10  1  0
  8  9  1  0
 10  9  1  0
 11 10  1  0
 12 15  1  0
 13 14  1  0
 14 19  2  0
 15 16  2  0
 15 14  1  0
 16 17  1  0
 17 18  2  0
 19 18  1  0
 19 20  1  0
  1 21  1  0
  1 22  1  0
  3 23  1  0
  4 24  1  0
  8 25  1  6
  9 26  1  0
  9 27  1  0
 10 28  1  1
 11 29  1  0
 12 30  1  0
 12 31  1  0
 16 32  1  0
 17 33  1  0
 18 34  1  0
 20 35  1  0
M  ISO  8  21   8  22   8  23  14  24  14  25  13  26  13  27  13  28  13
M  ISO  7  29   3  30   8  31   8  32  14  33  14  34  14  35   3
M  END
>  <minimizedAffinity>  (1) 
-5.6508007

>  <minimizedRMSD>  (1) 
0.0382336788

$$$$
