
     RDKit          3D

 39 41  0  0  0  0  0  0  0  0999 V2000
   45.7050   33.9650   43.0600 C   0  0  0  0  0  0  0  0  0  0  0  0
   45.0770   35.1620   42.4630 C   0  0  0  0  0  0  0  0  0  0  0  0
   45.1500   36.3760   43.3430 C   0  0  0  0  0  0  0  0  0  0  0  0
   44.5440   36.1140   44.7110 C   0  0  0  0  0  0  0  0  0  0  0  0
   44.9160   34.7730   45.2890 C   0  0  0  0  0  0  0  0  0  0  0  0
   46.0620   34.1370   44.5300 C   0  0  0  0  0  0  0  0  0  0  0  0
   46.9390   33.5570   42.3620 C   0  0  0  0  0  0  0  0  0  0  0  0
   48.0550   33.3070   43.1850 C   0  0  0  0  0  0  0  0  0  0  0  0
   49.2660   32.9150   42.6070 C   0  0  0  0  0  0  0  0  0  0  0  0
   49.2850   32.7970   41.2400 N   0  0  0  0  0  0  0  0  0  0  0  0
   48.1920   33.0460   40.4700 C   0  0  0  0  0  0  0  0  0  0  0  0
   47.0390   33.4200   41.0300 N   0  0  0  0  0  0  0  0  0  0  0  0
   48.2530   32.9120   39.0560 N   0  0  0  0  0  0  0  0  0  0  0  0
   49.3510   32.2120   38.4130 C   0  0  0  0  0  0  0  0  0  0  0  0
   49.3880   32.3810   36.9420 C   0  0  0  0  0  0  0  0  0  0  0  0
   48.8320   33.4900   36.3990 O   0  0  0  0  0  0  0  0  0  0  0  0
   48.0730   34.2990   37.1850 C   0  0  0  0  0  0  0  0  0  0  0  0
   47.2470   33.4520   38.1580 C   0  0  0  0  0  0  0  0  0  0  0  0
   44.9311   33.1905   42.9541 H   0  0  0  0  0  0  0  0  0  0  0  0
   45.5876   35.3874   41.5151 H   0  0  0  0  0  0  0  0  0  0  0  0
   44.0115   34.9307   42.3170 H   0  0  0  0  0  0  0  0  0  0  0  0
   46.2046   36.6624   43.4689 H   0  0  0  0  0  0  0  0  0  0  0  0
   44.5776   37.1833   42.8627 H   0  0  0  0  0  0  0  0  0  0  0  0
   44.8902   36.8980   45.4006 H   0  0  0  0  0  0  0  0  0  0  0  0
   43.4511   36.1194   44.5860 H   0  0  0  0  0  0  0  0  0  0  0  0
   45.2144   34.9073   46.3392 H   0  0  0  0  0  0  0  0  0  0  0  0
   44.0416   34.1102   45.2106 H   0  0  0  0  0  0  0  0  0  0  0  0
   46.2807   33.1511   44.9661 H   0  0  0  0  0  0  0  0  0  0  0  0
   46.9425   34.7920   44.6055 H   0  0  0  0  0  0  0  0  0  0  0  0
   47.9738   33.4196   44.2762 H   0  0  0  0  0  0  0  0  0  0  0  0
   50.1584   32.7115   43.2171 H   0  0  0  0  0  0  0  0  0  0  0  0
   50.2957   32.5916   38.8296 H   0  0  0  0  0  0  0  0  0  0  0  0
   49.2055   31.1394   38.6087 H   0  0  0  0  0  0  0  0  0  0  0  0
   50.4461   32.3696   36.6417 H   0  0  0  0  0  0  0  0  0  0  0  0
   48.7640   31.5579   36.5637 H   0  0  0  0  0  0  0  0  0  0  0  0
   48.7286   34.9741   37.7546 H   0  0  0  0  0  0  0  0  0  0  0  0
   47.3945   34.8884   36.5508 H   0  0  0  0  0  0  0  0  0  0  0  0
   46.5213   34.0723   38.7044 H   0  0  0  0  0  0  0  0  0  0  0  0
   46.6504   32.6749   37.6577 H   0  0  0  0  0  0  0  0  0  0  0  0
  1  6  1  0
  2  1  1  0
  2  3  1  0
  3  4  1  0
  4  5  1  0
  6  5  1  0
  7  1  1  0
  7  8  2  0
  9  8  1  0
 10  9  2  0
 11 12  2  0
 11 10  1  0
 12  7  1  0
 13 11  1  0
 14 13  1  0
 15 14  1  0
 16 15  1  0
 16 17  1  0
 17 18  1  0
 18 13  1  0
  1 19  1  0
  2 20  1  0
  2 21  1  0
  3 22  1  0
  3 23  1  0
  4 24  1  0
  4 25  1  0
  5 26  1  0
  5 27  1  0
  6 28  1  0
  6 29  1  0
  8 30  1  0
  9 31  1  0
 14 32  1  0
 14 33  1  0
 15 34  1  0
 15 35  1  0
 17 36  1  0
 17 37  1  0
 18 38  1  0
 18 39  1  0
M  ISO  8  19  13  20  13  21  13  22  13  23  13  24  13  25  13  26  13
M  ISO  8  27  13  28  13  29  13  30  14  31  14  32  13  33  13  34  13
M  ISO  5  35  13  36  13  37  13  38  13  39  13
M  END
>  <minimizedAffinity>  (1) 
-5.04819775

>  <minimizedRMSD>  (1) 
5.32411385

$$$$
