
     RDKit          3D

 36 38  0  0  0  0  0  0  0  0999 V2000
   49.6990   31.7890   42.4490 C   0  0  0  0  0  0  0  0  0  0  0  0
   50.8210   32.6190   42.2640 C   0  0  0  0  0  0  0  0  0  0  0  0
   50.7080   34.0030   42.4610 C   0  0  0  0  0  0  0  0  0  0  0  0
   49.4690   34.4660   42.8350 N   0  0  0  0  0  0  0  0  0  0  0  0
   48.4030   33.6400   43.0080 C   0  0  0  0  0  0  0  0  0  0  0  0
   48.5250   32.3250   42.8160 N   0  0  0  0  0  0  0  0  0  0  0  0
   49.9080   30.3460   42.2060 C   0  0  0  0  0  0  0  0  0  0  0  0
   49.6700   29.5230   43.4060 C   0  0  0  0  0  0  0  0  0  0  0  0
   50.9190   28.9150   43.9780 C   0  0  0  0  0  0  0  0  0  0  0  0
   51.6850   28.1030   42.9470 C   0  0  0  0  0  0  0  0  0  0  0  0
   51.7460   28.7590   41.5920 C   0  0  0  0  0  0  0  0  0  0  0  0
   51.3190   30.2010   41.6510 C   0  0  0  0  0  0  0  0  0  0  0  0
   47.0840   35.4530   41.3930 F   0  0  0  0  0  0  0  0  0  0  0  0
   46.4690   35.1070   42.5670 C   0  0  0  0  0  0  0  0  0  0  0  0
   47.1100   34.1920   43.4060 C   0  0  0  0  0  0  0  0  0  0  0  0
   46.5210   33.8220   44.5960 C   0  0  0  0  0  0  0  0  0  0  0  0
   45.2840   34.3880   44.9150 C   0  0  0  0  0  0  0  0  0  0  0  0
   44.6360   35.2940   44.0960 C   0  0  0  0  0  0  0  0  0  0  0  0
   45.2470   35.6500   42.9120 C   0  0  0  0  0  0  0  0  0  0  0  0
   51.7854   32.1824   41.9652 H   0  0  0  0  0  0  0  0  0  0  0  0
   51.5636   34.6805   42.3238 H   0  0  0  0  0  0  0  0  0  0  0  0
   49.1726   29.9653   41.4820 H   0  0  0  0  0  0  0  0  0  0  0  0
   49.2083   30.1578   44.1766 H   0  0  0  0  0  0  0  0  0  0  0  0
   49.0176   28.6913   43.1015 H   0  0  0  0  0  0  0  0  0  0  0  0
   51.5688   29.7219   44.3477 H   0  0  0  0  0  0  0  0  0  0  0  0
   50.6228   28.2360   44.7911 H   0  0  0  0  0  0  0  0  0  0  0  0
   52.7130   27.9587   43.3109 H   0  0  0  0  0  0  0  0  0  0  0  0
   51.1499   27.1501   42.8221 H   0  0  0  0  0  0  0  0  0  0  0  0
   51.0798   28.2180   40.9039 H   0  0  0  0  0  0  0  0  0  0  0  0
   52.7880   28.7244   41.2413 H   0  0  0  0  0  0  0  0  0  0  0  0
   52.0158   30.7534   42.2986 H   0  0  0  0  0  0  0  0  0  0  0  0
   51.3293   30.6049   40.6279 H   0  0  0  0  0  0  0  0  0  0  0  0
   47.0088   33.1047   45.2724 H   0  0  0  0  0  0  0  0  0  0  0  0
   44.8035   34.0994   45.8615 H   0  0  0  0  0  0  0  0  0  0  0  0
   43.6618   35.7184   44.3804 H   0  0  0  0  0  0  0  0  0  0  0  0
   44.7585   36.3701   42.2390 H   0  0  0  0  0  0  0  0  0  0  0  0
  1  6  1  0
  2  1  2  0
  2  3  1  0
  3  4  2  0
  4  5  1  0
  5 15  1  0
  6  5  2  0
  7  1  1  0
  7  8  1  0
  8  9  1  0
 10  9  1  0
 11 12  1  0
 11 10  1  0
 12  7  1  0
 13 14  1  0
 14 19  2  0
 14 15  1  0
 15 16  2  0
 16 17  1  0
 18 17  2  0
 19 18  1  0
  2 20  1  0
  3 21  1  0
  7 22  1  0
  8 23  1  0
  8 24  1  0
  9 25  1  0
  9 26  1  0
 10 27  1  0
 10 28  1  0
 11 29  1  0
 11 30  1  0
 12 31  1  0
 12 32  1  0
 16 33  1  0
 17 34  1  0
 18 35  1  0
 19 36  1  0
M  ISO  8  20  14  21  14  22  13  23  13  24  13  25  13  26  13  27  13
M  ISO  8  28  13  29  13  30  13  31  13  32  13  33  14  34  14  35  14
M  ISO  1  36  14
M  END
>  <minimizedAffinity>  (1) 
-4.63844824

>  <minimizedRMSD>  (1) 
6.6362133

$$$$
