
     RDKit          3D

 36 38  0  0  0  0  0  0  0  0999 V2000
   46.7870   33.6240   41.9370 C   0  0  0  0  0  0  0  0  0  0  0  0
   46.7220   34.3170   40.7110 C   0  0  0  0  0  0  0  0  0  0  0  0
   47.7320   34.1860   39.7550 C   0  0  0  0  0  0  0  0  0  0  0  0
   48.7700   33.3480   40.0950 N   0  0  0  0  0  0  0  0  0  0  0  0
   48.8130   32.6900   41.2810 C   0  0  0  0  0  0  0  0  0  0  0  0
   47.8300   32.8310   42.1870 N   0  0  0  0  0  0  0  0  0  0  0  0
   45.6610   33.8520   42.8620 C   0  0  0  0  0  0  0  0  0  0  0  0
   44.8580   35.0380   42.4980 C   0  0  0  0  0  0  0  0  0  0  0  0
   44.9640   36.1610   43.4770 C   0  0  0  0  0  0  0  0  0  0  0  0
   44.6630   35.7450   44.9010 C   0  0  0  0  0  0  0  0  0  0  0  0
   45.2100   34.3810   45.2590 C   0  0  0  0  0  0  0  0  0  0  0  0
   46.2510   33.9200   44.2650 C   0  0  0  0  0  0  0  0  0  0  0  0
   49.9340   31.8130   41.5940 C   0  0  0  0  0  0  0  0  0  0  0  0
   49.8980   31.0350   42.7200 C   0  0  0  0  0  0  0  0  0  0  0  0
   50.9430   30.1810   43.0620 C   0  0  0  0  0  0  0  0  0  0  0  0
   52.0350   30.1510   42.2080 C   0  0  0  0  0  0  0  0  0  0  0  0
   52.1010   30.9230   41.0690 C   0  0  0  0  0  0  0  0  0  0  0  0
   51.0420   31.7440   40.7810 C   0  0  0  0  0  0  0  0  0  0  0  0
   45.8623   34.9712   40.5040 H   0  0  0  0  0  0  0  0  0  0  0  0
   47.7000   34.7180   38.7927 H   0  0  0  0  0  0  0  0  0  0  0  0
   44.9367   33.0260   42.8054 H   0  0  0  0  0  0  0  0  0  0  0  0
   45.1989   35.3999   41.5168 H   0  0  0  0  0  0  0  0  0  0  0  0
   43.8048   34.7208   42.4869 H   0  0  0  0  0  0  0  0  0  0  0  0
   45.9878   36.5614   43.4393 H   0  0  0  0  0  0  0  0  0  0  0  0
   44.2137   36.9132   43.1921 H   0  0  0  0  0  0  0  0  0  0  0  0
   45.1055   36.4873   45.5816 H   0  0  0  0  0  0  0  0  0  0  0  0
   43.5686   35.6906   44.9980 H   0  0  0  0  0  0  0  0  0  0  0  0
   45.6679   34.4311   46.2579 H   0  0  0  0  0  0  0  0  0  0  0  0
   44.3777   33.6619   45.2436 H   0  0  0  0  0  0  0  0  0  0  0  0
   46.6101   32.9215   44.5548 H   0  0  0  0  0  0  0  0  0  0  0  0
   47.0835   34.6390   44.2648 H   0  0  0  0  0  0  0  0  0  0  0  0
   49.0158   31.0863   43.3750 H   0  0  0  0  0  0  0  0  0  0  0  0
   50.9041   29.5586   43.9681 H   0  0  0  0  0  0  0  0  0  0  0  0
   52.8785   29.4872   42.4486 H   0  0  0  0  0  0  0  0  0  0  0  0
   52.9797   30.8817   40.4086 H   0  0  0  0  0  0  0  0  0  0  0  0
   51.0789   32.3655   39.8741 H   0  0  0  0  0  0  0  0  0  0  0  0
  1  6  1  0
  1  7  1  0
  2  1  2  0
  3  4  2  0
  3  2  1  0
  4  5  1  0
  5 13  1  0
  5  6  2  0
  7 12  1  0
  8  7  1  0
  8  9  1  0
  9 10  1  0
 10 11  1  0
 12 11  1  0
 13 14  2  0
 14 15  1  0
 16 15  2  0
 17 16  1  0
 18 17  2  0
 18 13  1  0
  2 19  1  0
  3 20  1  0
  7 21  1  0
  8 22  1  0
  8 23  1  0
  9 24  1  0
  9 25  1  0
 10 26  1  0
 10 27  1  0
 11 28  1  0
 11 29  1  0
 12 30  1  0
 12 31  1  0
 14 32  1  0
 15 33  1  0
 16 34  1  0
 17 35  1  0
 18 36  1  0
M  ISO  8  19  14  20  14  21  13  22  13  23  13  24  13  25  13  26  13
M  ISO  8  27  13  28  13  29  13  30  13  31  13  32  14  33  14  34  14
M  ISO  2  35  14  36  14
M  END
>  <minimizedAffinity>  (1) 
-4.56133842

>  <minimizedRMSD>  (1) 
3.02492118

$$$$
