
     RDKit          3D

 36 38  0  0  0  0  0  0  0  0999 V2000
   48.0840   33.5920   42.8190 C   0  0  0  0  0  0  0  0  0  0  0  0
   48.7880   34.8180   42.7710 C   0  0  0  0  0  0  0  0  0  0  0  0
   50.1580   34.8170   42.4800 C   0  0  0  0  0  0  0  0  0  0  0  0
   50.7380   33.5930   42.2560 N   0  0  0  0  0  0  0  0  0  0  0  0
   50.0360   32.4320   42.3090 C   0  0  0  0  0  0  0  0  0  0  0  0
   48.7290   32.4410   42.5870 N   0  0  0  0  0  0  0  0  0  0  0  0
   46.6480   33.6870   43.1370 C   0  0  0  0  0  0  0  0  0  0  0  0
   45.9380   34.6810   42.3090 C   0  0  0  0  0  0  0  0  0  0  0  0
   45.4840   35.8860   43.0780 C   0  0  0  0  0  0  0  0  0  0  0  0
   44.6220   35.5120   44.2710 C   0  0  0  0  0  0  0  0  0  0  0  0
   45.1300   34.3120   45.0270 C   0  0  0  0  0  0  0  0  0  0  0  0
   46.5440   33.9700   44.6300 C   0  0  0  0  0  0  0  0  0  0  0  0
   50.0520   31.6310   39.4530 Cl  0  0  0  0  0  0  0  0  0  0  0  0
   50.7770   30.6740   40.7540 C   0  0  0  0  0  0  0  0  0  0  0  0
   50.7050   31.1570   42.0610 C   0  0  0  0  0  0  0  0  0  0  0  0
   51.2600   30.4370   43.1020 C   0  0  0  0  0  0  0  0  0  0  0  0
   51.8810   29.2320   42.7970 C   0  0  0  0  0  0  0  0  0  0  0  0
   51.9550   28.7490   41.4980 C   0  0  0  0  0  0  0  0  0  0  0  0
   51.3930   29.4880   40.4800 C   0  0  0  0  0  0  0  0  0  0  0  0
   48.2630   35.7658   42.9609 H   0  0  0  0  0  0  0  0  0  0  0  0
   50.7397   35.7495   42.4333 H   0  0  0  0  0  0  0  0  0  0  0  0
   46.1422   32.7407   42.8949 H   0  0  0  0  0  0  0  0  0  0  0  0
   45.0548   34.1978   41.8658 H   0  0  0  0  0  0  0  0  0  0  0  0
   46.6481   35.0329   41.5461 H   0  0  0  0  0  0  0  0  0  0  0  0
   46.3691   36.4315   43.4372 H   0  0  0  0  0  0  0  0  0  0  0  0
   44.8772   36.5086   42.4041 H   0  0  0  0  0  0  0  0  0  0  0  0
   44.5897   36.3692   44.9596 H   0  0  0  0  0  0  0  0  0  0  0  0
   43.6266   35.2516   43.8819 H   0  0  0  0  0  0  0  0  0  0  0  0
   45.1037   34.5305   46.1048 H   0  0  0  0  0  0  0  0  0  0  0  0
   44.4857   33.4534   44.7871 H   0  0  0  0  0  0  0  0  0  0  0  0
   46.8664   33.0778   45.1869 H   0  0  0  0  0  0  0  0  0  0  0  0
   47.1878   34.8303   44.8654 H   0  0  0  0  0  0  0  0  0  0  0  0
   51.2117   30.8055   44.1373 H   0  0  0  0  0  0  0  0  0  0  0  0
   52.3281   28.6422   43.6108 H   0  0  0  0  0  0  0  0  0  0  0  0
   52.4540   27.7922   41.2848 H   0  0  0  0  0  0  0  0  0  0  0  0
   51.4411   29.1210   39.4442 H   0  0  0  0  0  0  0  0  0  0  0  0
  1  7  1  0
  2  1  2  0
  3  2  1  0
  4  5  1  0
  4  3  2  0
  5  6  2  0
  6  1  1  0
  7 12  1  0
  8  9  1  0
  8  7  1  0
  9 10  1  0
 10 11  1  0
 12 11  1  0
 13 14  1  0
 14 15  2  0
 15  5  1  0
 15 16  1  0
 17 16  2  0
 18 17  1  0
 19 14  1  0
 19 18  2  0
  2 20  1  0
  3 21  1  0
  7 22  1  0
  8 23  1  0
  8 24  1  0
  9 25  1  0
  9 26  1  0
 10 27  1  0
 10 28  1  0
 11 29  1  0
 11 30  1  0
 12 31  1  0
 12 32  1  0
 16 33  1  0
 17 34  1  0
 18 35  1  0
 19 36  1  0
M  ISO  8  20  14  21  14  22  13  23  13  24  13  25  13  26  13  27  13
M  ISO  8  28  13  29  13  30  13  31  13  32  13  33  14  34  14  35  14
M  ISO  1  36  14
M  END
>  <minimizedAffinity>  (1) 
-4.49799013

>  <minimizedRMSD>  (1) 
2.60811353

$$$$
