
     RDKit          3D

 33 35  0  0  0  0  0  0  0  0999 V2000
   46.4180   33.8120   43.2540 C   0  0  0  0  0  0  0  0  0  0  0  0
   45.7640   34.8510   42.4320 C   0  0  0  0  0  0  0  0  0  0  0  0
   45.3790   36.0750   43.1900 C   0  0  0  0  0  0  0  0  0  0  0  0
   44.5430   35.7780   44.4180 C   0  0  0  0  0  0  0  0  0  0  0  0
   44.9930   34.5450   45.1690 C   0  0  0  0  0  0  0  0  0  0  0  0
   46.3790   34.1050   44.7490 C   0  0  0  0  0  0  0  0  0  0  0  0
   47.8380   33.6260   42.8950 C   0  0  0  0  0  0  0  0  0  0  0  0
   48.5910   34.8050   42.7320 C   0  0  0  0  0  0  0  0  0  0  0  0
   49.9470   34.7470   42.3950 C   0  0  0  0  0  0  0  0  0  0  0  0
   50.4730   33.4890   42.2410 N   0  0  0  0  0  0  0  0  0  0  0  0
   49.7280   32.3640   42.4030 C   0  0  0  0  0  0  0  0  0  0  0  0
   48.4340   32.4440   42.7240 N   0  0  0  0  0  0  0  0  0  0  0  0
   50.3260   31.0440   42.2300 C   0  0  0  0  0  0  0  0  0  0  0  0
   50.0250   29.8620   41.6160 C   0  0  0  0  0  0  0  0  0  0  0  0
   51.0650   29.0000   41.8600 C   0  0  0  0  0  0  0  0  0  0  0  0
   51.9770   29.7190   42.6350 C   0  0  0  0  0  0  0  0  0  0  0  0
   51.4880   30.9270   42.8260 O   0  0  0  0  0  0  0  0  0  0  0  0
   45.8355   32.9038   43.0398 H   0  0  0  0  0  0  0  0  0  0  0  0
   44.8546   34.4190   41.9889 H   0  0  0  0  0  0  0  0  0  0  0  0
   46.4981   35.1649   41.6753 H   0  0  0  0  0  0  0  0  0  0  0  0
   46.2962   36.5922   43.5082 H   0  0  0  0  0  0  0  0  0  0  0  0
   44.7662   36.6955   42.5196 H   0  0  0  0  0  0  0  0  0  0  0  0
   44.6031   36.6410   45.0974 H   0  0  0  0  0  0  0  0  0  0  0  0
   43.5156   35.5902   44.0729 H   0  0  0  0  0  0  0  0  0  0  0  0
   45.0014   34.7676   46.2462 H   0  0  0  0  0  0  0  0  0  0  0  0
   44.2913   33.7297   44.9389 H   0  0  0  0  0  0  0  0  0  0  0  0
   46.6530   33.1951   45.3031 H   0  0  0  0  0  0  0  0  0  0  0  0
   47.0906   34.9140   44.9708 H   0  0  0  0  0  0  0  0  0  0  0  0
   48.1069   35.7828   42.8714 H   0  0  0  0  0  0  0  0  0  0  0  0
   50.5547   35.6542   42.2616 H   0  0  0  0  0  0  0  0  0  0  0  0
   49.1179   29.6416   41.0341 H   0  0  0  0  0  0  0  0  0  0  0  0
   51.1601   27.9594   41.5165 H   0  0  0  0  0  0  0  0  0  0  0  0
   52.9365   29.3423   43.0191 H   0  0  0  0  0  0  0  0  0  0  0  0
  1  6  1  0
  2  3  1  0
  2  1  1  0
  3  4  1  0
  4  5  1  0
  6  5  1  0
  7  1  1  0
  8  7  2  0
  9  8  1  0
 10  9  2  0
 10 11  1  0
 11 12  2  0
 12  7  1  0
 13 11  1  0
 13 17  1  0
 14 15  1  0
 14 13  2  0
 15 16  2  0
 16 17  1  0
  1 18  1  0
  2 19  1  0
  2 20  1  0
  3 21  1  0
  3 22  1  0
  4 23  1  0
  4 24  1  0
  5 25  1  0
  5 26  1  0
  6 27  1  0
  6 28  1  0
  8 29  1  0
  9 30  1  0
 14 31  1  0
 15 32  1  0
 16 33  1  0
M  ISO  8  18  13  19  13  20  13  21  13  22  13  23  13  24  13  25  13
M  ISO  8  26  13  27  13  28  13  29  14  30  14  31  14  32  14  33  14
M  END
>  <minimizedAffinity>  (1) 
-4.25908899

>  <minimizedRMSD>  (1) 
2.16984725

$$$$
