
     RDKit          3D

 29 30  0  0  0  0  0  0  0  0999 V2000
   46.4270   33.8090   43.2400 C   0  0  0  0  0  0  0  0  0  0  0  0
   45.7560   34.8390   42.4200 C   0  0  0  0  0  0  0  0  0  0  0  0
   45.3990   36.0780   43.1880 C   0  0  0  0  0  0  0  0  0  0  0  0
   44.5360   35.7580   44.3970 C   0  0  0  0  0  0  0  0  0  0  0  0
   44.9980   34.5460   45.1590 C   0  0  0  0  0  0  0  0  0  0  0  0
   46.3810   34.1100   44.7320 C   0  0  0  0  0  0  0  0  0  0  0  0
   47.8450   33.6230   42.8780 C   0  0  0  0  0  0  0  0  0  0  0  0
   48.6000   34.8020   42.7310 C   0  0  0  0  0  0  0  0  0  0  0  0
   49.9560   34.7140   42.3930 C   0  0  0  0  0  0  0  0  0  0  0  0
   50.4670   33.4520   42.2260 N   0  0  0  0  0  0  0  0  0  0  0  0
   49.7120   32.3320   42.3760 C   0  0  0  0  0  0  0  0  0  0  0  0
   48.4190   32.4230   42.6980 N   0  0  0  0  0  0  0  0  0  0  0  0
   50.4200   31.0390   42.1600 C   0  0  0  0  0  0  0  0  0  0  0  0
   45.8582   32.8922   43.0259 H   0  0  0  0  0  0  0  0  0  0  0  0
   44.8324   34.4075   42.0067 H   0  0  0  0  0  0  0  0  0  0  0  0
   46.4650   35.1389   41.6342 H   0  0  0  0  0  0  0  0  0  0  0  0
   46.3242   36.5656   43.5289 H   0  0  0  0  0  0  0  0  0  0  0  0
   44.8269   36.7418   42.5231 H   0  0  0  0  0  0  0  0  0  0  0  0
   44.5526   36.6235   45.0758 H   0  0  0  0  0  0  0  0  0  0  0  0
   43.5243   35.5401   44.0243 H   0  0  0  0  0  0  0  0  0  0  0  0
   45.0154   34.7852   46.2325 H   0  0  0  0  0  0  0  0  0  0  0  0
   44.2993   33.7227   44.9495 H   0  0  0  0  0  0  0  0  0  0  0  0
   46.6597   33.2037   45.2897 H   0  0  0  0  0  0  0  0  0  0  0  0
   47.0853   34.9279   44.9444 H   0  0  0  0  0  0  0  0  0  0  0  0
   48.1285   35.7845   42.8805 H   0  0  0  0  0  0  0  0  0  0  0  0
   50.5798   35.6113   42.2678 H   0  0  0  0  0  0  0  0  0  0  0  0
   50.6665   30.5889   43.1330 H   0  0  0  0  0  0  0  0  0  0  0  0
   49.7704   30.3554   41.5938 H   0  0  0  0  0  0  0  0  0  0  0  0
   51.3459   31.2181   41.5938 H   0  0  0  0  0  0  0  0  0  0  0  0
  1  6  1  0
  2  3  1  0
  2  1  1  0
  3  4  1  0
  4  5  1  0
  6  5  1  0
  7  1  1  0
  8  7  2  0
  9  8  1  0
 10 11  1  0
 10  9  2  0
 11 12  2  0
 12  7  1  0
 13 11  1  0
  1 14  1  0
  2 15  1  0
  2 16  1  0
  3 17  1  0
  3 18  1  0
  4 19  1  0
  4 20  1  0
  5 21  1  0
  5 22  1  0
  6 23  1  0
  6 24  1  0
  8 25  1  0
  9 26  1  0
 13 27  1  0
 13 28  1  0
 13 29  1  0
M  ISO  8  14  13  15  13  16  13  17  13  18  13  19  13  20  13  21  13
M  ISO  8  22  13  23  13  24  13  25  14  26  14  27   8  28   8  29   8
M  END
>  <minimizedAffinity>  (1) 
-4.09124804

>  <minimizedRMSD>  (1) 
2.03507471

$$$$
