
     RDKit          3D

 27 28  0  0  0  0  0  0  0  0999 V2000
   46.5820   33.5950   42.9850 C   0  0  0  0  0  0  0  0  0  0  0  0
   45.9020   34.6240   42.1830 C   0  0  0  0  0  0  0  0  0  0  0  0
   45.5640   35.8650   42.9510 C   0  0  0  0  0  0  0  0  0  0  0  0
   44.7520   35.5800   44.1970 C   0  0  0  0  0  0  0  0  0  0  0  0
   45.1680   34.3300   44.9160 C   0  0  0  0  0  0  0  0  0  0  0  0
   46.5420   33.8710   44.4830 C   0  0  0  0  0  0  0  0  0  0  0  0
   47.9960   33.4030   42.6110 C   0  0  0  0  0  0  0  0  0  0  0  0
   48.8350   34.5170   42.7970 C   0  0  0  0  0  0  0  0  0  0  0  0
   50.1930   34.4210   42.4740 C   0  0  0  0  0  0  0  0  0  0  0  0
   50.6230   33.2130   41.9850 N   0  0  0  0  0  0  0  0  0  0  0  0
   49.7880   32.1540   41.8160 C   0  0  0  0  0  0  0  0  0  0  0  0
   48.4890   32.2570   42.1300 N   0  0  0  0  0  0  0  0  0  0  0  0
   50.5050   30.6430   41.1680 S   0  0  0  0  0  0  0  0  0  0  0  0
   46.0103   32.6824   42.7607 H   0  0  0  0  0  0  0  0  0  0  0  0
   44.9688   34.1955   41.7886 H   0  0  0  0  0  0  0  0  0  0  0  0
   46.5994   34.9210   41.3859 H   0  0  0  0  0  0  0  0  0  0  0  0
   46.5000   36.3611   43.2471 H   0  0  0  0  0  0  0  0  0  0  0  0
   44.9534   36.5041   42.2963 H   0  0  0  0  0  0  0  0  0  0  0  0
   44.8634   36.4302   44.8860 H   0  0  0  0  0  0  0  0  0  0  0  0
   43.7103   35.4339   43.8752 H   0  0  0  0  0  0  0  0  0  0  0  0
   45.1822   34.5282   45.9979 H   0  0  0  0  0  0  0  0  0  0  0  0
   44.4468   33.5361   44.6719 H   0  0  0  0  0  0  0  0  0  0  0  0
   46.8001   32.9493   45.0250 H   0  0  0  0  0  0  0  0  0  0  0  0
   47.2644   34.6688   44.7104 H   0  0  0  0  0  0  0  0  0  0  0  0
   48.4258   35.4577   43.1940 H   0  0  0  0  0  0  0  0  0  0  0  0
   50.8803   35.2698   42.6052 H   0  0  0  0  0  0  0  0  0  0  0  0
   50.8876   29.8367   42.2074 H   0  0  0  0  0  0  0  0  0  0  0  0
  1  6  1  0
  2  3  1  0
  2  1  1  0
  3  4  1  0
  4  5  1  0
  6  5  1  0
  7  8  2  0
  7  1  1  0
  9  8  1  0
 10  9  2  0
 11 10  1  0
 11 12  2  0
 12  7  1  0
 13 11  1  0
  1 14  1  0
  2 15  1  0
  2 16  1  0
  3 17  1  0
  3 18  1  0
  4 19  1  0
  4 20  1  0
  5 21  1  0
  5 22  1  0
  6 23  1  0
  6 24  1  0
  8 25  1  0
  9 26  1  0
 13 27  1  0
M  ISO  8  14  13  15  13  16  13  17  13  18  13  19  13  20  13  21  13
M  ISO  6  22  13  23  13  24  13  25  14  26  14  27  11
M  END
>  <minimizedAffinity>  (1) 
-3.95419407

>  <minimizedRMSD>  (1) 
1.89366078

$$$$
