
     RDKit          3D

 44 47  0  0  1  0  0  0  0  0999 V2000
   47.9210   33.8540   42.8730 C   0  0  0  0  0  0  0  0  0  0  0  0
   48.5590   35.0870   42.6520 C   0  0  0  0  0  0  0  0  0  0  0  0
   49.9240   35.1320   42.3250 C   0  0  0  0  0  0  0  0  0  0  0  0
   50.5590   33.9150   42.2420 N   0  0  0  0  0  0  0  0  0  0  0  0
   49.9040   32.7320   42.4650 C   0  0  0  0  0  0  0  0  0  0  0  0
   48.6180   32.7220   42.7710 N   0  0  0  0  0  0  0  0  0  0  0  0
   46.4930   33.9460   43.2130 C   0  0  0  0  0  0  0  0  0  0  0  0
   45.7500   34.9390   42.4400 C   0  0  0  0  0  0  0  0  0  0  0  0
   45.2750   36.1050   43.2230 C   0  0  0  0  0  0  0  0  0  0  0  0
   44.5050   35.7240   44.4750 C   0  0  0  0  0  0  0  0  0  0  0  0
   44.9900   34.4550   45.1370 C   0  0  0  0  0  0  0  0  0  0  0  0
   46.4210   34.1710   44.7320 C   0  0  0  0  0  0  0  0  0  0  0  0
   50.7310   31.5360   42.3420 C   0  0  0  0  0  0  0  0  0  0  0  0
   51.3490   31.3210   41.1560 N   0  0  0  0  0  0  0  0  0  0  0  0
   52.0620   30.1850   41.2210 C   0  0  0  0  0  0  0  0  0  0  0  0
   51.8790   29.6810   42.4870 N   0  0  0  0  0  0  0  0  0  0  0  0
   51.0700   30.5080   43.1550 N   0  0  0  0  0  0  0  0  0  0  0  0
   53.8480   28.4260   42.8490 N   0  0  0  0  0  0  0  0  0  0  0  0
   54.4060   29.2460   43.8930 C   0  0  0  0  0  0  0  0  0  0  0  0
   53.5940   28.8870   45.1160 C   0  0  0  0  0  0  0  0  0  0  0  0
   52.2680   28.4410   44.5620 C   0  0  0  0  0  0  0  0  0  0  0  0
   52.4350   28.4600   43.0780 C   0  0  1  0  0  0  0  0  0  0  0  0
   47.9857   36.0220   42.7357 H   0  0  0  0  0  0  0  0  0  0  0  0
   50.4518   36.0805   42.1466 H   0  0  0  0  0  0  0  0  0  0  0  0
   45.9842   33.0116   42.9339 H   0  0  0  0  0  0  0  0  0  0  0  0
   46.4053   35.3090   41.6377 H   0  0  0  0  0  0  0  0  0  0  0  0
   44.8503   34.4301   42.0638 H   0  0  0  0  0  0  0  0  0  0  0  0
   46.1488   36.7031   43.5208 H   0  0  0  0  0  0  0  0  0  0  0  0
   44.5836   36.6667   42.5777 H   0  0  0  0  0  0  0  0  0  0  0  0
   44.5946   36.5471   45.1992 H   0  0  0  0  0  0  0  0  0  0  0  0
   43.4657   35.5417   44.1643 H   0  0  0  0  0  0  0  0  0  0  0  0
   44.9374   34.5716   46.2295 H   0  0  0  0  0  0  0  0  0  0  0  0
   44.3527   33.6168   44.8189 H   0  0  0  0  0  0  0  0  0  0  0  0
   46.7767   33.2697   45.2527 H   0  0  0  0  0  0  0  0  0  0  0  0
   47.0543   35.0282   45.0044 H   0  0  0  0  0  0  0  0  0  0  0  0
   52.6725   29.7443   40.4190 H   0  0  0  0  0  0  0  0  0  0  0  0
   54.2038   27.4617   42.9150 H   0  0  0  0  0  0  0  0  0  0  0  0
   55.4695   29.0115   44.0476 H   0  0  0  0  0  0  0  0  0  0  0  0
   54.3617   30.3194   43.6565 H   0  0  0  0  0  0  0  0  0  0  0  0
   54.0752   28.0733   45.6785 H   0  0  0  0  0  0  0  0  0  0  0  0
   53.4955   29.7283   45.8177 H   0  0  0  0  0  0  0  0  0  0  0  0
   52.0269   27.4256   44.9097 H   0  0  0  0  0  0  0  0  0  0  0  0
   51.4456   29.0934   44.8907 H   0  0  0  0  0  0  0  0  0  0  0  0
   51.9067   27.6113   42.6191 H   0  0  0  0  0  0  0  0  0  0  0  0
  1  7  1  0
  2  1  2  0
  3  2  1  0
  4  3  2  0
  4  5  1  0
  5  6  2  0
  6  1  1  0
  7 12  1  0
  8  7  1  0
  8  9  1  0
  9 10  1  0
 10 11  1  0
 12 11  1  0
 13  5  1  0
 13 17  2  0
 14 15  2  0
 14 13  1  0
 15 16  1  0
 16 17  1  0
 18 22  1  0
 18 19  1  0
 19 20  1  0
 21 20  1  0
 22 16  1  0
 22 21  1  0
  2 23  1  0
  3 24  1  0
  7 25  1  0
  8 26  1  0
  8 27  1  0
  9 28  1  0
  9 29  1  0
 10 30  1  0
 10 31  1  0
 11 32  1  0
 11 33  1  0
 12 34  1  0
 12 35  1  0
 15 36  1  0
 18 37  1  0
 19 38  1  0
 19 39  1  0
 20 40  1  0
 20 41  1  0
 21 42  1  0
 21 43  1  0
 22 44  1  6
M  ISO  8  23  14  24  14  25  13  26  13  27  13  28  13  29  13  30  13
M  ISO  8  31  13  32  13  33  13  34  13  35  13  36  14  37   5  38  13
M  ISO  6  39  13  40  13  41  13  42  13  43  13  44  13
M  END
>  <minimizedAffinity>  (1) 
-4.35074806

>  <minimizedRMSD>  (1) 
1.30496299

$$$$
