
     RDKit          3D

 45 48  0  0  0  0  0  0  0  0999 V2000
   47.9100   33.7460   42.8530 C   0  0  0  0  0  0  0  0  0  0  0  0
   48.6060   34.9610   42.7030 C   0  0  0  0  0  0  0  0  0  0  0  0
   49.9800   34.9390   42.3920 C   0  0  0  0  0  0  0  0  0  0  0  0
   50.5490   33.6970   42.2560 N   0  0  0  0  0  0  0  0  0  0  0  0
   49.8200   32.5360   42.4150 C   0  0  0  0  0  0  0  0  0  0  0  0
   48.5330   32.5880   42.7060 N   0  0  0  0  0  0  0  0  0  0  0  0
   46.4780   33.9040   43.1860 C   0  0  0  0  0  0  0  0  0  0  0  0
   45.7840   34.9220   42.4220 C   0  0  0  0  0  0  0  0  0  0  0  0
   45.3490   36.1060   43.1880 C   0  0  0  0  0  0  0  0  0  0  0  0
   44.5310   35.7370   44.4230 C   0  0  0  0  0  0  0  0  0  0  0  0
   44.9930   34.4860   45.1170 C   0  0  0  0  0  0  0  0  0  0  0  0
   46.4220   34.1470   44.7160 C   0  0  0  0  0  0  0  0  0  0  0  0
   50.6050   31.3210   42.2370 C   0  0  0  0  0  0  0  0  0  0  0  0
   50.6890   30.7830   40.9990 N   0  0  0  0  0  0  0  0  0  0  0  0
   51.4630   29.6740   41.0720 C   0  0  0  0  0  0  0  0  0  0  0  0
   51.8500   29.5370   42.3600 N   0  0  0  0  0  0  0  0  0  0  0  0
   51.3310   30.5410   43.0870 N   0  0  0  0  0  0  0  0  0  0  0  0
   52.6980   28.4810   42.8890 C   0  0  0  0  0  0  0  0  0  0  0  0
   54.7910   29.1380   41.0450 F   0  0  0  0  0  0  0  0  0  0  0  0
   55.0090   29.3590   42.3420 C   0  0  0  0  0  0  0  0  0  0  0  0
   54.0330   29.0570   43.2370 C   0  0  0  0  0  0  0  0  0  0  0  0
   54.2830   29.2960   44.5900 C   0  0  0  0  0  0  0  0  0  0  0  0
   55.4880   29.8300   45.0390 C   0  0  0  0  0  0  0  0  0  0  0  0
   56.4430   30.1180   44.0870 C   0  0  0  0  0  0  0  0  0  0  0  0
   56.2200   29.8910   42.7570 C   0  0  0  0  0  0  0  0  0  0  0  0
   48.0811   35.9196   42.8277 H   0  0  0  0  0  0  0  0  0  0  0  0
   50.5629   35.8632   42.2655 H   0  0  0  0  0  0  0  0  0  0  0  0
   45.9292   32.9940   42.9019 H   0  0  0  0  0  0  0  0  0  0  0  0
   46.4581   35.2643   41.6230 H   0  0  0  0  0  0  0  0  0  0  0  0
   44.8633   34.4467   42.0526 H   0  0  0  0  0  0  0  0  0  0  0  0
   46.2403   36.6647   43.5096 H   0  0  0  0  0  0  0  0  0  0  0  0
   44.7068   36.7109   42.5310 H   0  0  0  0  0  0  0  0  0  0  0  0
   44.5911   36.5705   45.1383 H   0  0  0  0  0  0  0  0  0  0  0  0
   43.5046   35.5457   44.0767 H   0  0  0  0  0  0  0  0  0  0  0  0
   44.9497   34.6394   46.2054 H   0  0  0  0  0  0  0  0  0  0  0  0
   44.3356   33.6543   44.8234 H   0  0  0  0  0  0  0  0  0  0  0  0
   46.7470   33.2389   45.2449 H   0  0  0  0  0  0  0  0  0  0  0  0
   47.0883   34.9807   44.9824 H   0  0  0  0  0  0  0  0  0  0  0  0
   51.7278   29.0079   40.2376 H   0  0  0  0  0  0  0  0  0  0  0  0
   52.2349   28.0528   43.7902 H   0  0  0  0  0  0  0  0  0  0  0  0
   52.8200   27.6895   42.1349 H   0  0  0  0  0  0  0  0  0  0  0  0
   53.5018   29.0543   45.3257 H   0  0  0  0  0  0  0  0  0  0  0  0
   55.6704   30.0143   46.1080 H   0  0  0  0  0  0  0  0  0  0  0  0
   57.4075   30.5406   44.4050 H   0  0  0  0  0  0  0  0  0  0  0  0
   56.9994   30.1299   42.0185 H   0  0  0  0  0  0  0  0  0  0  0  0
  1  7  1  0
  2  1  2  0
  3  2  1  0
  4  3  2  0
  4  5  1  0
  5  6  2  0
  6  1  1  0
  7 12  1  0
  8  7  1  0
  8  9  1  0
  9 10  1  0
 10 11  1  0
 12 11  1  0
 13  5  1  0
 13 17  2  0
 14 15  2  0
 14 13  1  0
 15 16  1  0
 16 18  1  0
 16 17  1  0
 18 21  1  0
 19 20  1  0
 20 25  2  0
 20 21  1  0
 21 22  2  0
 22 23  1  0
 24 23  2  0
 25 24  1  0
  2 26  1  0
  3 27  1  0
  7 28  1  0
  8 29  1  0
  8 30  1  0
  9 31  1  0
  9 32  1  0
 10 33  1  0
 10 34  1  0
 11 35  1  0
 11 36  1  0
 12 37  1  0
 12 38  1  0
 15 39  1  0
 18 40  1  0
 18 41  1  0
 22 42  1  0
 23 43  1  0
 24 44  1  0
 25 45  1  0
M  ISO  8  26  14  27  14  28  13  29  13  30  13  31  13  32  13  33  13
M  ISO  8  34  13  35  13  36  13  37  13  38  13  39  14  40   8  41   8
M  ISO  4  42  14  43  14  44  14  45  14
M  END
>  <minimizedAffinity>  (1) 
-4.5813303

>  <minimizedRMSD>  (1) 
1.77098489

$$$$
