
     RDKit          3D

 45 48  0  0  0  0  0  0  0  0999 V2000
   47.8940   33.7640   42.8570 C   0  0  0  0  0  0  0  0  0  0  0  0
   48.5990   34.9700   42.6970 C   0  0  0  0  0  0  0  0  0  0  0  0
   49.9710   34.9490   42.3820 C   0  0  0  0  0  0  0  0  0  0  0  0
   50.5370   33.7040   42.2490 N   0  0  0  0  0  0  0  0  0  0  0  0
   49.8070   32.5460   42.4130 C   0  0  0  0  0  0  0  0  0  0  0  0
   48.5130   32.5890   42.7100 N   0  0  0  0  0  0  0  0  0  0  0  0
   46.4680   33.9180   43.1890 C   0  0  0  0  0  0  0  0  0  0  0  0
   45.7780   34.9400   42.4240 C   0  0  0  0  0  0  0  0  0  0  0  0
   45.3370   36.1140   43.1980 C   0  0  0  0  0  0  0  0  0  0  0  0
   44.5210   35.7400   44.4370 C   0  0  0  0  0  0  0  0  0  0  0  0
   44.9810   34.4930   45.1160 C   0  0  0  0  0  0  0  0  0  0  0  0
   46.4240   34.1760   44.7190 C   0  0  0  0  0  0  0  0  0  0  0  0
   50.5760   31.3270   42.2420 C   0  0  0  0  0  0  0  0  0  0  0  0
   50.4740   30.6760   41.0550 N   0  0  0  0  0  0  0  0  0  0  0  0
   51.2600   29.5790   41.0900 C   0  0  0  0  0  0  0  0  0  0  0  0
   51.8510   29.5440   42.2970 N   0  0  0  0  0  0  0  0  0  0  0  0
   51.4280   30.6190   43.0030 N   0  0  0  0  0  0  0  0  0  0  0  0
   52.7920   28.5630   42.8120 C   0  0  0  0  0  0  0  0  0  0  0  0
   54.9620   29.2680   40.6830 Cl  0  0  0  0  0  0  0  0  0  0  0  0
   55.1520   29.4680   42.4140 C   0  0  0  0  0  0  0  0  0  0  0  0
   54.0930   29.0930   43.1940 C   0  0  0  0  0  0  0  0  0  0  0  0
   54.3480   29.2780   44.5500 C   0  0  0  0  0  0  0  0  0  0  0  0
   55.5260   29.7800   45.0610 C   0  0  0  0  0  0  0  0  0  0  0  0
   56.5490   30.1350   44.1760 C   0  0  0  0  0  0  0  0  0  0  0  0
   56.3680   29.9780   42.7990 C   0  0  0  0  0  0  0  0  0  0  0  0
   48.0779   35.9311   42.8181 H   0  0  0  0  0  0  0  0  0  0  0  0
   50.5540   35.8725   42.2504 H   0  0  0  0  0  0  0  0  0  0  0  0
   45.9157   33.0079   42.9121 H   0  0  0  0  0  0  0  0  0  0  0  0
   46.4578   35.2899   41.6331 H   0  0  0  0  0  0  0  0  0  0  0  0
   44.8624   34.4669   42.0396 H   0  0  0  0  0  0  0  0  0  0  0  0
   46.2261   36.6758   43.5201 H   0  0  0  0  0  0  0  0  0  0  0  0
   44.6870   36.7143   42.5444 H   0  0  0  0  0  0  0  0  0  0  0  0
   44.5860   36.5693   45.1567 H   0  0  0  0  0  0  0  0  0  0  0  0
   43.4922   35.5539   44.0950 H   0  0  0  0  0  0  0  0  0  0  0  0
   44.9262   34.6315   46.2059 H   0  0  0  0  0  0  0  0  0  0  0  0
   44.3332   33.6582   44.8101 H   0  0  0  0  0  0  0  0  0  0  0  0
   46.7686   33.2802   45.2565 H   0  0  0  0  0  0  0  0  0  0  0  0
   47.0804   35.0197   44.9782 H   0  0  0  0  0  0  0  0  0  0  0  0
   51.3926   28.8475   40.2792 H   0  0  0  0  0  0  0  0  0  0  0  0
   52.3422   28.0930   43.6990 H   0  0  0  0  0  0  0  0  0  0  0  0
   52.9794   27.8581   41.9886 H   0  0  0  0  0  0  0  0  0  0  0  0
   53.5555   29.0050   45.2624 H   0  0  0  0  0  0  0  0  0  0  0  0
   55.6590   29.8993   46.1464 H   0  0  0  0  0  0  0  0  0  0  0  0
   57.4963   30.5379   44.5637 H   0  0  0  0  0  0  0  0  0  0  0  0
   57.1483   30.2453   42.0712 H   0  0  0  0  0  0  0  0  0  0  0  0
  1  7  1  0
  2  1  2  0
  3  2  1  0
  4  3  2  0
  4  5  1  0
  5  6  2  0
  6  1  1  0
  7 12  1  0
  8  7  1  0
  8  9  1  0
  9 10  1  0
 10 11  1  0
 12 11  1  0
 13  5  1  0
 13 17  2  0
 14 15  2  0
 14 13  1  0
 15 16  1  0
 16 18  1  0
 16 17  1  0
 18 21  1  0
 19 20  1  0
 20 25  2  0
 20 21  1  0
 21 22  2  0
 22 23  1  0
 24 23  2  0
 25 24  1  0
  2 26  1  0
  3 27  1  0
  7 28  1  0
  8 29  1  0
  8 30  1  0
  9 31  1  0
  9 32  1  0
 10 33  1  0
 10 34  1  0
 11 35  1  0
 11 36  1  0
 12 37  1  0
 12 38  1  0
 15 39  1  0
 18 40  1  0
 18 41  1  0
 22 42  1  0
 23 43  1  0
 24 44  1  0
 25 45  1  0
M  ISO  8  26  14  27  14  28  13  29  13  30  13  31  13  32  13  33  13
M  ISO  8  34  13  35  13  36  13  37  13  38  13  39  14  40   8  41   8
M  ISO  4  42  14  43  14  44  14  45  14
M  END
>  <minimizedAffinity>  (1) 
-4.58017778

>  <minimizedRMSD>  (1) 
2.02749276

$$$$
