
     RDKit          3D

 49 52  0  0  0  0  0  0  0  0999 V2000
   47.9220   33.8370   42.8670 C   0  0  0  0  0  0  0  0  0  0  0  0
   48.5700   35.0810   42.6550 C   0  0  0  0  0  0  0  0  0  0  0  0
   49.9380   35.1120   42.3320 C   0  0  0  0  0  0  0  0  0  0  0  0
   50.5650   33.8940   42.2430 N   0  0  0  0  0  0  0  0  0  0  0  0
   49.8900   32.7080   42.4580 C   0  0  0  0  0  0  0  0  0  0  0  0
   48.6120   32.7060   42.7580 N   0  0  0  0  0  0  0  0  0  0  0  0
   46.4940   33.9360   43.2040 C   0  0  0  0  0  0  0  0  0  0  0  0
   45.7610   34.9390   42.4570 C   0  0  0  0  0  0  0  0  0  0  0  0
   45.2860   36.0980   43.2380 C   0  0  0  0  0  0  0  0  0  0  0  0
   44.4920   35.6840   44.4770 C   0  0  0  0  0  0  0  0  0  0  0  0
   44.9910   34.4450   45.1350 C   0  0  0  0  0  0  0  0  0  0  0  0
   46.4360   34.1730   44.7360 C   0  0  0  0  0  0  0  0  0  0  0  0
   50.7320   31.5130   42.3280 C   0  0  0  0  0  0  0  0  0  0  0  0
   51.3850   31.3360   41.1460 N   0  0  0  0  0  0  0  0  0  0  0  0
   52.1050   30.1910   41.2440 C   0  0  0  0  0  0  0  0  0  0  0  0
   51.8830   29.6800   42.4900 N   0  0  0  0  0  0  0  0  0  0  0  0
   51.0350   30.4870   43.1730 N   0  0  0  0  0  0  0  0  0  0  0  0
   52.4570   28.4650   43.0430 C   0  0  0  0  0  0  0  0  0  0  0  0
   53.0150   28.7660   44.3300 N   0  0  0  0  0  0  0  0  0  0  0  0
   53.1230   27.6480   45.2110 C   0  0  0  0  0  0  0  0  0  0  0  0
   54.1500   26.6510   44.7100 C   0  0  0  0  0  0  0  0  0  0  0  0
   55.4290   27.3330   44.7170 N   0  0  0  0  0  0  0  0  0  0  0  0
   55.3930   28.4730   43.8350 C   0  0  0  0  0  0  0  0  0  0  0  0
   54.2980   29.4330   44.1970 C   0  0  0  0  0  0  0  0  0  0  0  0
   48.0032   36.0196   42.7432 H   0  0  0  0  0  0  0  0  0  0  0  0
   50.4745   36.0569   42.1606 H   0  0  0  0  0  0  0  0  0  0  0  0
   45.9823   33.0066   42.9134 H   0  0  0  0  0  0  0  0  0  0  0  0
   46.4194   35.3153   41.6602 H   0  0  0  0  0  0  0  0  0  0  0  0
   44.8558   34.4354   42.0868 H   0  0  0  0  0  0  0  0  0  0  0  0
   46.1572   36.6883   43.5584 H   0  0  0  0  0  0  0  0  0  0  0  0
   44.6156   36.6839   42.5920 H   0  0  0  0  0  0  0  0  0  0  0  0
   44.5388   36.5054   45.2072 H   0  0  0  0  0  0  0  0  0  0  0  0
   43.4667   35.4721   44.1395 H   0  0  0  0  0  0  0  0  0  0  0  0
   44.9339   34.5669   46.2267 H   0  0  0  0  0  0  0  0  0  0  0  0
   44.3681   33.5968   44.8147 H   0  0  0  0  0  0  0  0  0  0  0  0
   46.8034   33.2799   45.2627 H   0  0  0  0  0  0  0  0  0  0  0  0
   47.0670   35.0326   45.0059 H   0  0  0  0  0  0  0  0  0  0  0  0
   52.7478   29.7554   40.4649 H   0  0  0  0  0  0  0  0  0  0  0  0
   51.6737   27.7000   43.1486 H   0  0  0  0  0  0  0  0  0  0  0  0
   53.2416   28.0821   42.3738 H   0  0  0  0  0  0  0  0  0  0  0  0
   53.4250   28.0041   46.2070 H   0  0  0  0  0  0  0  0  0  0  0  0
   52.1452   27.1463   45.2580 H   0  0  0  0  0  0  0  0  0  0  0  0
   53.8982   26.3276   43.6892 H   0  0  0  0  0  0  0  0  0  0  0  0
   54.1756   25.7547   45.3471 H   0  0  0  0  0  0  0  0  0  0  0  0
   55.6396   27.6503   45.6740 H   0  0  0  0  0  0  0  0  0  0  0  0
   55.2295   28.1202   42.8060 H   0  0  0  0  0  0  0  0  0  0  0  0
   56.3523   29.0032   43.9277 H   0  0  0  0  0  0  0  0  0  0  0  0
   54.5492   29.9147   45.1535 H   0  0  0  0  0  0  0  0  0  0  0  0
   54.2143   30.1749   43.3892 H   0  0  0  0  0  0  0  0  0  0  0  0
  1  7  1  0
  2  1  2  0
  3  2  1  0
  4  3  2  0
  4  5  1  0
  5  6  2  0
  6  1  1  0
  7 12  1  0
  8  7  1  0
  8  9  1  0
  9 10  1  0
 10 11  1  0
 12 11  1  0
 13  5  1  0
 13 17  2  0
 14 15  2  0
 14 13  1  0
 15 16  1  0
 16 18  1  0
 16 17  1  0
 18 19  1  0
 19 20  1  0
 21 22  1  0
 21 20  1  0
 23 24  1  0
 23 22  1  0
 24 19  1  0
  2 25  1  0
  3 26  1  0
  7 27  1  0
  8 28  1  0
  8 29  1  0
  9 30  1  0
  9 31  1  0
 10 32  1  0
 10 33  1  0
 11 34  1  0
 11 35  1  0
 12 36  1  0
 12 37  1  0
 15 38  1  0
 18 39  1  0
 18 40  1  0
 20 41  1  0
 20 42  1  0
 21 43  1  0
 21 44  1  0
 22 45  1  0
 23 46  1  0
 23 47  1  0
 24 48  1  0
 24 49  1  0
M  ISO  8  25  14  26  14  27  13  28  13  29  13  30  13  31  13  32  13
M  ISO  8  33  13  34  13  35  13  36  13  37  13  38  14  39   8  40   8
M  ISO  8  41  13  42  13  43  13  44  13  45   5  46  13  47  13  48  13
M  ISO  1  49  13
M  END
>  <minimizedAffinity>  (1) 
-4.14020634

>  <minimizedRMSD>  (1) 
2.85167432

$$$$
