
     RDKit          3D

 42 45  0  0  0  0  0  0  0  0999 V2000
   47.9070   33.8490   42.8710 C   0  0  0  0  0  0  0  0  0  0  0  0
   48.5620   35.0890   42.6400 C   0  0  0  0  0  0  0  0  0  0  0  0
   49.9270   35.1150   42.3190 C   0  0  0  0  0  0  0  0  0  0  0  0
   50.5510   33.8900   42.2510 N   0  0  0  0  0  0  0  0  0  0  0  0
   49.8730   32.7090   42.4840 C   0  0  0  0  0  0  0  0  0  0  0  0
   48.5920   32.7200   42.7840 N   0  0  0  0  0  0  0  0  0  0  0  0
   46.4740   33.9660   43.2040 C   0  0  0  0  0  0  0  0  0  0  0  0
   45.7620   34.9810   42.4500 C   0  0  0  0  0  0  0  0  0  0  0  0
   45.2890   36.1320   43.2420 C   0  0  0  0  0  0  0  0  0  0  0  0
   44.4500   35.6870   44.4430 C   0  0  0  0  0  0  0  0  0  0  0  0
   44.9830   34.4790   45.1440 C   0  0  0  0  0  0  0  0  0  0  0  0
   46.4190   34.1860   44.7380 C   0  0  0  0  0  0  0  0  0  0  0  0
   50.7070   31.5210   42.3700 C   0  0  0  0  0  0  0  0  0  0  0  0
   51.4520   31.3620   41.2480 N   0  0  0  0  0  0  0  0  0  0  0  0
   52.1460   30.2020   41.3540 C   0  0  0  0  0  0  0  0  0  0  0  0
   51.8200   29.6520   42.5480 N   0  0  0  0  0  0  0  0  0  0  0  0
   50.9420   30.4490   43.1790 N   0  0  0  0  0  0  0  0  0  0  0  0
   52.3160   28.3900   43.1170 C   0  0  0  0  0  0  0  0  0  0  0  0
   52.8910   28.6970   44.4830 C   0  0  0  0  0  0  0  0  0  0  0  0
   54.1580   29.5030   44.5190 C   0  0  0  0  0  0  0  0  0  0  0  0
   54.1800   28.0110   44.8270 C   0  0  0  0  0  0  0  0  0  0  0  0
   47.9973   36.0301   42.7131 H   0  0  0  0  0  0  0  0  0  0  0  0
   50.4655   36.0560   42.1331 H   0  0  0  0  0  0  0  0  0  0  0  0
   45.9395   33.0504   42.9108 H   0  0  0  0  0  0  0  0  0  0  0  0
   46.4360   35.3597   41.6675 H   0  0  0  0  0  0  0  0  0  0  0  0
   44.8607   34.4915   42.0525 H   0  0  0  0  0  0  0  0  0  0  0  0
   46.1602   36.6967   43.6055 H   0  0  0  0  0  0  0  0  0  0  0  0
   44.6562   36.7568   42.5945 H   0  0  0  0  0  0  0  0  0  0  0  0
   44.4117   36.5166   45.1644 H   0  0  0  0  0  0  0  0  0  0  0  0
   43.4570   35.4167   44.0544 H   0  0  0  0  0  0  0  0  0  0  0  0
   44.9468   34.6510   46.2299 H   0  0  0  0  0  0  0  0  0  0  0  0
   44.3623   33.6155   44.8629 H   0  0  0  0  0  0  0  0  0  0  0  0
   46.7707   33.2801   45.2535 H   0  0  0  0  0  0  0  0  0  0  0  0
   47.0643   35.0324   45.0158 H   0  0  0  0  0  0  0  0  0  0  0  0
   52.8422   29.7862   40.6107 H   0  0  0  0  0  0  0  0  0  0  0  0
   51.4891   27.6708   43.2114 H   0  0  0  0  0  0  0  0  0  0  0  0
   53.0845   27.9487   42.4653 H   0  0  0  0  0  0  0  0  0  0  0  0
   51.9070   28.7889   44.9660 H   0  0  0  0  0  0  0  0  0  0  0  0
   54.5988   29.8798   43.5842 H   0  0  0  0  0  0  0  0  0  0  0  0
   54.4903   30.4131   45.0399 H   0  0  0  0  0  0  0  0  0  0  0  0
   54.3620   27.6629   45.8545 H   0  0  0  0  0  0  0  0  0  0  0  0
   54.7296   27.1417   44.4369 H   0  0  0  0  0  0  0  0  0  0  0  0
  1  7  1  0
  2  1  2  0
  3  2  1  0
  4  3  2  0
  4  5  1  0
  5  6  2  0
  6  1  1  0
  7 12  1  0
  8  7  1  0
  8  9  1  0
  9 10  1  0
 10 11  1  0
 12 11  1  0
 13  5  1  0
 13 17  2  0
 14 15  2  0
 14 13  1  0
 15 16  1  0
 16 18  1  0
 16 17  1  0
 18 19  1  0
 19 20  1  0
 19 21  1  0
 20 21  1  0
  2 22  1  0
  3 23  1  0
  7 24  1  0
  8 25  1  0
  8 26  1  0
  9 27  1  0
  9 28  1  0
 10 29  1  0
 10 30  1  0
 11 31  1  0
 11 32  1  0
 12 33  1  0
 12 34  1  0
 15 35  1  0
 18 36  1  0
 18 37  1  0
 19 38  1  0
 20 39  1  0
 20 40  1  0
 21 41  1  0
 21 42  1  0
M  ISO  8  22  14  23  14  24  13  25  13  26  13  27  13  28  13  29  13
M  ISO  8  30  13  31  13  32  13  33  13  34  13  35  14  36   8  37   8
M  ISO  5  38  13  39  13  40  13  41  13  42  13
M  END
>  <minimizedAffinity>  (1) 
-4.0824585

>  <minimizedRMSD>  (1) 
1.90359211

$$$$
