
     RDKit          3D

 48 51  0  0  0  0  0  0  0  0999 V2000
   47.8900   33.8160   42.8880 C   0  0  0  0  0  0  0  0  0  0  0  0
   48.5790   35.0410   42.6400 C   0  0  0  0  0  0  0  0  0  0  0  0
   49.9440   35.0170   42.3220 C   0  0  0  0  0  0  0  0  0  0  0  0
   50.5440   33.7820   42.2680 N   0  0  0  0  0  0  0  0  0  0  0  0
   49.8390   32.6200   42.5150 C   0  0  0  0  0  0  0  0  0  0  0  0
   48.5620   32.6700   42.8110 N   0  0  0  0  0  0  0  0  0  0  0  0
   46.4660   33.9610   43.2180 C   0  0  0  0  0  0  0  0  0  0  0  0
   45.7730   34.9790   42.4530 C   0  0  0  0  0  0  0  0  0  0  0  0
   45.3250   36.1480   43.2280 C   0  0  0  0  0  0  0  0  0  0  0  0
   44.4860   35.7490   44.4400 C   0  0  0  0  0  0  0  0  0  0  0  0
   44.9630   34.5010   45.1280 C   0  0  0  0  0  0  0  0  0  0  0  0
   46.4150   34.1960   44.7520 C   0  0  0  0  0  0  0  0  0  0  0  0
   50.6450   31.4120   42.4170 C   0  0  0  0  0  0  0  0  0  0  0  0
   51.5030   31.2990   41.3810 N   0  0  0  0  0  0  0  0  0  0  0  0
   52.1500   30.1050   41.4800 C   0  0  0  0  0  0  0  0  0  0  0  0
   51.6690   29.4920   42.5990 N   0  0  0  0  0  0  0  0  0  0  0  0
   50.7530   30.2820   43.1730 N   0  0  0  0  0  0  0  0  0  0  0  0
   52.0710   28.1820   43.1160 C   0  0  0  0  0  0  0  0  0  0  0  0
   51.9160   28.1910   44.6050 C   0  0  0  0  0  0  0  0  0  0  0  0
   53.1840   28.6110   45.3230 C   0  0  0  0  0  0  0  0  0  0  0  0
   52.9060   28.2090   46.7460 C   0  0  0  0  0  0  0  0  0  0  0  0
   52.1330   26.9140   46.6430 C   0  0  0  0  0  0  0  0  0  0  0  0
   51.6520   26.8310   45.1920 C   0  0  0  0  0  0  0  0  0  0  0  0
   48.0417   35.9991   42.6981 H   0  0  0  0  0  0  0  0  0  0  0  0
   50.5071   35.9413   42.1254 H   0  0  0  0  0  0  0  0  0  0  0  0
   45.9142   33.0527   42.9345 H   0  0  0  0  0  0  0  0  0  0  0  0
   46.4526   35.3336   41.6641 H   0  0  0  0  0  0  0  0  0  0  0  0
   44.8610   34.5018   42.0649 H   0  0  0  0  0  0  0  0  0  0  0  0
   46.2091   36.7023   43.5760 H   0  0  0  0  0  0  0  0  0  0  0  0
   44.6968   36.7680   42.5715 H   0  0  0  0  0  0  0  0  0  0  0  0
   44.5111   36.5754   45.1656 H   0  0  0  0  0  0  0  0  0  0  0  0
   43.4709   35.5412   44.0706 H   0  0  0  0  0  0  0  0  0  0  0  0
   44.8938   34.6403   46.2169 H   0  0  0  0  0  0  0  0  0  0  0  0
   44.3313   33.6587   44.8096 H   0  0  0  0  0  0  0  0  0  0  0  0
   46.7574   33.2942   45.2807 H   0  0  0  0  0  0  0  0  0  0  0  0
   47.0703   35.0327   45.0356 H   0  0  0  0  0  0  0  0  0  0  0  0
   52.9122   29.7116   40.7914 H   0  0  0  0  0  0  0  0  0  0  0  0
   51.4319   27.3994   42.6811 H   0  0  0  0  0  0  0  0  0  0  0  0
   53.1175   27.9757   42.8473 H   0  0  0  0  0  0  0  0  0  0  0  0
   51.0761   28.8866   44.7490 H   0  0  0  0  0  0  0  0  0  0  0  0
   54.0604   28.0791   44.9244 H   0  0  0  0  0  0  0  0  0  0  0  0
   53.4171   29.6799   45.2086 H   0  0  0  0  0  0  0  0  0  0  0  0
   53.8467   28.0551   47.2951 H   0  0  0  0  0  0  0  0  0  0  0  0
   52.3456   28.9823   47.2918 H   0  0  0  0  0  0  0  0  0  0  0  0
   52.7836   26.0594   46.8806 H   0  0  0  0  0  0  0  0  0  0  0  0
   51.2917   26.8867   47.3511 H   0  0  0  0  0  0  0  0  0  0  0  0
   50.5776   26.5980   45.1555 H   0  0  0  0  0  0  0  0  0  0  0  0
   52.1701   26.0371   44.6341 H   0  0  0  0  0  0  0  0  0  0  0  0
  1  7  1  0
  2  1  2  0
  3  2  1  0
  4  3  2  0
  4  5  1  0
  5  6  2  0
  6  1  1  0
  7 12  1  0
  8  7  1  0
  8  9  1  0
  9 10  1  0
 10 11  1  0
 12 11  1  0
 13  5  1  0
 13 17  2  0
 14 15  2  0
 14 13  1  0
 15 16  1  0
 16 18  1  0
 16 17  1  0
 18 19  1  0
 19 23  1  0
 19 20  1  0
 20 21  1  0
 22 21  1  0
 23 22  1  0
  2 24  1  0
  3 25  1  0
  7 26  1  0
  8 27  1  0
  8 28  1  0
  9 29  1  0
  9 30  1  0
 10 31  1  0
 10 32  1  0
 11 33  1  0
 11 34  1  0
 12 35  1  0
 12 36  1  0
 15 37  1  0
 18 38  1  0
 18 39  1  0
 19 40  1  0
 20 41  1  0
 20 42  1  0
 21 43  1  0
 21 44  1  0
 22 45  1  0
 22 46  1  0
 23 47  1  0
 23 48  1  0
M  ISO  8  24  14  25  14  26  13  27  13  28  13  29  13  30  13  31  13
M  ISO  8  32  13  33  13  34  13  35  13  36  13  37  14  38   8  39   8
M  ISO  8  40  13  41  13  42  13  43  13  44  13  45  13  46  13  47  13
M  ISO  1  48  13
M  END
>  <minimizedAffinity>  (1) 
-4.07437992

>  <minimizedRMSD>  (1) 
2.7241447

$$$$
