
     RDKit          3D

 42 44  0  0  0  0  0  0  0  0999 V2000
   47.9150   33.8610   42.8630 C   0  0  0  0  0  0  0  0  0  0  0  0
   48.5670   35.1000   42.6470 C   0  0  0  0  0  0  0  0  0  0  0  0
   49.9290   35.1180   42.3250 C   0  0  0  0  0  0  0  0  0  0  0  0
   50.5560   33.9020   42.2380 N   0  0  0  0  0  0  0  0  0  0  0  0
   49.8780   32.7190   42.4570 C   0  0  0  0  0  0  0  0  0  0  0  0
   48.5910   32.7190   42.7600 N   0  0  0  0  0  0  0  0  0  0  0  0
   46.4890   33.9720   43.1980 C   0  0  0  0  0  0  0  0  0  0  0  0
   45.7690   34.9810   42.4410 C   0  0  0  0  0  0  0  0  0  0  0  0
   45.2980   36.1320   43.2380 C   0  0  0  0  0  0  0  0  0  0  0  0
   44.4270   35.6490   44.4060 C   0  0  0  0  0  0  0  0  0  0  0  0
   44.9860   34.4740   45.1330 C   0  0  0  0  0  0  0  0  0  0  0  0
   46.4260   34.2010   44.7310 C   0  0  0  0  0  0  0  0  0  0  0  0
   50.7120   31.5310   42.3280 C   0  0  0  0  0  0  0  0  0  0  0  0
   51.3530   31.3190   41.1550 N   0  0  0  0  0  0  0  0  0  0  0  0
   52.0670   30.1710   41.2520 C   0  0  0  0  0  0  0  0  0  0  0  0
   51.8580   29.6760   42.5070 N   0  0  0  0  0  0  0  0  0  0  0  0
   51.0310   30.5030   43.1650 N   0  0  0  0  0  0  0  0  0  0  0  0
   52.4210   28.4560   43.0680 C   0  0  0  0  0  0  0  0  0  0  0  0
   53.6470   28.8020   43.8220 C   0  0  0  0  0  0  0  0  0  0  0  0
   54.1630   29.6540   44.6910 C   0  0  0  0  0  0  0  0  0  0  0  0
   55.5380   29.7380   45.2990 C   0  0  0  0  0  0  0  0  0  0  0  0
   48.0061   36.0425   42.7318 H   0  0  0  0  0  0  0  0  0  0  0  0
   50.4690   36.0603   42.1506 H   0  0  0  0  0  0  0  0  0  0  0  0
   45.9657   33.0483   42.9101 H   0  0  0  0  0  0  0  0  0  0  0  0
   46.4371   35.3600   41.6536 H   0  0  0  0  0  0  0  0  0  0  0  0
   44.8687   34.4884   42.0450 H   0  0  0  0  0  0  0  0  0  0  0  0
   46.1663   36.6788   43.6344 H   0  0  0  0  0  0  0  0  0  0  0  0
   44.6993   36.7928   42.5939 H   0  0  0  0  0  0  0  0  0  0  0  0
   44.3164   36.4776   45.1209 H   0  0  0  0  0  0  0  0  0  0  0  0
   43.4661   35.3298   43.9760 H   0  0  0  0  0  0  0  0  0  0  0  0
   44.9487   34.6724   46.2143 H   0  0  0  0  0  0  0  0  0  0  0  0
   44.3832   33.5908   44.8747 H   0  0  0  0  0  0  0  0  0  0  0  0
   46.7906   33.3040   45.2529 H   0  0  0  0  0  0  0  0  0  0  0  0
   47.0567   35.0598   45.0042 H   0  0  0  0  0  0  0  0  0  0  0  0
   52.6956   29.7231   40.4682 H   0  0  0  0  0  0  0  0  0  0  0  0
   51.6904   27.9880   43.7441 H   0  0  0  0  0  0  0  0  0  0  0  0
   52.6644   27.7497   42.2606 H   0  0  0  0  0  0  0  0  0  0  0  0
   54.4259   28.0712   43.5586 H   0  0  0  0  0  0  0  0  0  0  0  0
   53.4678   30.4369   45.0283 H   0  0  0  0  0  0  0  0  0  0  0  0
   55.4548   29.7329   46.3958 H   0  0  0  0  0  0  0  0  0  0  0  0
   56.1366   28.8747   44.9727 H   0  0  0  0  0  0  0  0  0  0  0  0
   56.0270   30.6677   44.9727 H   0  0  0  0  0  0  0  0  0  0  0  0
  1  7  1  0
  2  1  2  0
  3  2  1  0
  4  3  2  0
  4  5  1  0
  5  6  2  0
  6  1  1  0
  7 12  1  0
  8  7  1  0
  8  9  1  0
  9 10  1  0
 10 11  1  0
 12 11  1  0
 13  5  1  0
 13 17  2  0
 14 15  2  0
 14 13  1  0
 15 16  1  0
 16 18  1  0
 16 17  1  0
 18 19  1  0
 19 20  2  0
 20 21  1  0
  2 22  1  0
  3 23  1  0
  7 24  1  0
  8 25  1  0
  8 26  1  0
  9 27  1  0
  9 28  1  0
 10 29  1  0
 10 30  1  0
 11 31  1  0
 11 32  1  0
 12 33  1  0
 12 34  1  0
 15 35  1  0
 18 36  1  0
 18 37  1  0
 19 38  1  0
 20 39  1  0
 21 40  1  0
 21 41  1  0
 21 42  1  0
M  ISO  8  22  14  23  14  24  13  25  13  26  13  27  13  28  13  29  13
M  ISO  8  30  13  31  13  32  13  33  13  34  13  35  14  36   8  37   8
M  ISO  3  40   8  41   8  42   8
M  END
>  <minimizedAffinity>  (1) 
-4.12059641

>  <minimizedRMSD>  (1) 
0.931034565

$$$$
