
     RDKit          3D

 52 55  0  0  0  0  0  0  0  0999 V2000
   46.8750   33.5440   42.2350 C   0  0  0  0  0  0  0  0  0  0  0  0
   47.1110   34.0690   40.9330 C   0  0  0  0  0  0  0  0  0  0  0  0
   48.2350   33.6540   40.2090 C   0  0  0  0  0  0  0  0  0  0  0  0
   49.0560   32.7460   40.8150 N   0  0  0  0  0  0  0  0  0  0  0  0
   48.7870   32.2650   42.0790 C   0  0  0  0  0  0  0  0  0  0  0  0
   47.7220   32.6640   42.7550 N   0  0  0  0  0  0  0  0  0  0  0  0
   45.6700   34.0600   42.8900 C   0  0  0  0  0  0  0  0  0  0  0  0
   45.1220   35.2570   42.3060 C   0  0  0  0  0  0  0  0  0  0  0  0
   45.2110   36.4640   43.1500 C   0  0  0  0  0  0  0  0  0  0  0  0
   44.5830   36.2240   44.5230 C   0  0  0  0  0  0  0  0  0  0  0  0
   44.8720   34.8780   45.0990 C   0  0  0  0  0  0  0  0  0  0  0  0
   46.0540   34.2260   44.3950 C   0  0  0  0  0  0  0  0  0  0  0  0
   49.7800   31.3130   42.5610 C   0  0  0  0  0  0  0  0  0  0  0  0
   51.0230   31.3510   42.0570 N   0  0  0  0  0  0  0  0  0  0  0  0
   51.7740   30.3830   42.6430 C   0  0  0  0  0  0  0  0  0  0  0  0
   50.9690   29.7480   43.5190 N   0  0  0  0  0  0  0  0  0  0  0  0
   49.7520   30.3000   43.4820 N   0  0  0  0  0  0  0  0  0  0  0  0
   51.3160   28.6620   44.4020 C   0  0  0  0  0  0  0  0  0  0  0  0
   50.3520   28.6030   45.5050 C   0  0  0  0  0  0  0  0  0  0  0  0
   50.3620   29.0330   46.7630 C   0  0  0  0  0  0  0  0  0  0  0  0
   49.1950   28.9410   47.7670 C   0  0  0  0  0  0  0  0  0  0  0  0
   49.5880   31.2010   49.7730 Cl  0  0  0  0  0  0  0  0  0  0  0  0
   48.4160   31.1200   48.4680 C   0  0  0  0  0  0  0  0  0  0  0  0
   48.2720   30.0620   47.5730 C   0  0  0  0  0  0  0  0  0  0  0  0
   47.2850   30.1770   46.6020 C   0  0  0  0  0  0  0  0  0  0  0  0
   46.4740   31.2960   46.5240 C   0  0  0  0  0  0  0  0  0  0  0  0
   46.6230   32.3290   47.4070 C   0  0  0  0  0  0  0  0  0  0  0  0
   47.5930   32.2430   48.3790 C   0  0  0  0  0  0  0  0  0  0  0  0
   46.4124   34.7984   40.4972 H   0  0  0  0  0  0  0  0  0  0  0  0
   48.4467   34.0404   39.2011 H   0  0  0  0  0  0  0  0  0  0  0  0
   44.8386   33.3524   42.7558 H   0  0  0  0  0  0  0  0  0  0  0  0
   45.6618   35.4565   41.3685 H   0  0  0  0  0  0  0  0  0  0  0  0
   44.0489   35.0632   42.1617 H   0  0  0  0  0  0  0  0  0  0  0  0
   46.2695   36.7331   43.2813 H   0  0  0  0  0  0  0  0  0  0  0  0
   44.6633   37.2784   42.6532 H   0  0  0  0  0  0  0  0  0  0  0  0
   44.9675   36.9862   45.2166 H   0  0  0  0  0  0  0  0  0  0  0  0
   43.4930   36.2834   44.3877 H   0  0  0  0  0  0  0  0  0  0  0  0
   45.1056   34.9869   46.1684 H   0  0  0  0  0  0  0  0  0  0  0  0
   43.9865   34.2402   44.9611 H   0  0  0  0  0  0  0  0  0  0  0  0
   46.2605   33.2418   44.8408 H   0  0  0  0  0  0  0  0  0  0  0  0
   46.9569   34.8457   44.4987 H   0  0  0  0  0  0  0  0  0  0  0  0
   52.8324   30.1604   42.4423 H   0  0  0  0  0  0  0  0  0  0  0  0
   51.2936   27.7142   43.8442 H   0  0  0  0  0  0  0  0  0  0  0  0
   52.3261   28.8256   44.8057 H   0  0  0  0  0  0  0  0  0  0  0  0
   49.4170   28.0917   45.2324 H   0  0  0  0  0  0  0  0  0  0  0  0
   51.2915   29.4989   47.1220 H   0  0  0  0  0  0  0  0  0  0  0  0
   48.6556   27.9950   47.6117 H   0  0  0  0  0  0  0  0  0  0  0  0
   49.5974   28.9799   48.7900 H   0  0  0  0  0  0  0  0  0  0  0  0
   47.1448   29.3602   45.8787 H   0  0  0  0  0  0  0  0  0  0  0  0
   45.7014   31.3547   45.7432 H   0  0  0  0  0  0  0  0  0  0  0  0
   45.9764   33.2165   47.3413 H   0  0  0  0  0  0  0  0  0  0  0  0
   47.7210   33.0690   49.0940 H   0  0  0  0  0  0  0  0  0  0  0  0
  1  6  1  0
  1  7  1  0
  2  1  2  0
  3  4  2  0
  3  2  1  0
  4  5  1  0
  5 13  1  0
  5  6  2  0
  7 12  1  0
  8  7  1  0
  8  9  1  0
  9 10  1  0
 10 11  1  0
 12 11  1  0
 13 17  2  0
 14 13  1  0
 14 15  2  0
 15 16  1  0
 16 18  1  0
 17 16  1  0
 18 19  1  0
 19 20  2  0
 20 21  1  0
 23 22  1  0
 24 21  1  0
 24 23  2  0
 25 24  1  0
 26 25  2  0
 26 27  1  0
 27 28  2  0
 28 23  1  0
  2 29  1  0
  3 30  1  0
  7 31  1  0
  8 32  1  0
  8 33  1  0
  9 34  1  0
  9 35  1  0
 10 36  1  0
 10 37  1  0
 11 38  1  0
 11 39  1  0
 12 40  1  0
 12 41  1  0
 15 42  1  0
 18 43  1  0
 18 44  1  0
 19 45  1  0
 20 46  1  0
 21 47  1  0
 21 48  1  0
 25 49  1  0
 26 50  1  0
 27 51  1  0
 28 52  1  0
M  ISO  8  29  14  30  14  31  13  32  13  33  13  34  13  35  13  36  13
M  ISO  8  37  13  38  13  39  13  40  13  41  13  42  14  43   8  44   8
M  ISO  6  47   8  48   8  49  14  50  14  51  14  52  14
M  END
>  <minimizedAffinity>  (1) 
-5.33293581

>  <minimizedRMSD>  (1) 
4.68830585

$$$$
