
     RDKit          3D

 46 48  0  0  0  0  0  0  0  0999 V2000
   48.0880   33.6190   42.8290 C   0  0  0  0  0  0  0  0  0  0  0  0
   48.7710   34.8620   42.6880 C   0  0  0  0  0  0  0  0  0  0  0  0
   50.1490   34.8790   42.4200 C   0  0  0  0  0  0  0  0  0  0  0  0
   50.7630   33.6620   42.3080 N   0  0  0  0  0  0  0  0  0  0  0  0
   50.0650   32.4870   42.4510 C   0  0  0  0  0  0  0  0  0  0  0  0
   48.7640   32.4840   42.7040 N   0  0  0  0  0  0  0  0  0  0  0  0
   46.6600   33.7410   43.1090 C   0  0  0  0  0  0  0  0  0  0  0  0
   45.9640   34.7230   42.3160 C   0  0  0  0  0  0  0  0  0  0  0  0
   45.4610   35.8970   43.0610 C   0  0  0  0  0  0  0  0  0  0  0  0
   44.5640   35.4440   44.2170 C   0  0  0  0  0  0  0  0  0  0  0  0
   45.1060   34.2870   44.9910 C   0  0  0  0  0  0  0  0  0  0  0  0
   46.5630   34.0220   44.6470 C   0  0  0  0  0  0  0  0  0  0  0  0
   50.8920   31.2960   42.3050 C   0  0  0  0  0  0  0  0  0  0  0  0
   51.1610   30.8310   41.0760 N   0  0  0  0  0  0  0  0  0  0  0  0
   51.9410   29.7220   41.1760 C   0  0  0  0  0  0  0  0  0  0  0  0
   52.1450   29.5140   42.4920 N   0  0  0  0  0  0  0  0  0  0  0  0
   51.5130   30.4630   43.1850 N   0  0  0  0  0  0  0  0  0  0  0  0
   52.9330   28.4710   43.0950 C   0  0  0  0  0  0  0  0  0  0  0  0
   54.2700   28.9830   43.4020 C   0  0  0  0  0  0  0  0  0  0  0  0
   54.8230   29.5410   44.4720 C   0  0  0  0  0  0  0  0  0  0  0  0
   56.3000   29.9490   44.6380 C   0  0  0  0  0  0  0  0  0  0  0  0
   57.8880   31.4320   43.5640 C   0  0  0  0  0  0  0  0  0  0  0  0
   58.7390   31.2870   44.4660 O   0  0  0  0  0  0  0  0  0  0  0  0
   56.6030   30.8140   43.5170 N   0  0  0  0  0  0  0  0  0  0  0  0
   48.2185   35.8078   42.7891 H   0  0  0  0  0  0  0  0  0  0  0  0
   50.7053   35.8211   42.3061 H   0  0  0  0  0  0  0  0  0  0  0  0
   46.1430   32.8133   42.8226 H   0  0  0  0  0  0  0  0  0  0  0  0
   45.1041   34.2283   41.8408 H   0  0  0  0  0  0  0  0  0  0  0  0
   46.7014   35.1118   41.5983 H   0  0  0  0  0  0  0  0  0  0  0  0
   46.3130   36.4648   43.4630 H   0  0  0  0  0  0  0  0  0  0  0  0
   44.8756   36.5314   42.3792 H   0  0  0  0  0  0  0  0  0  0  0  0
   44.4348   36.2911   44.9067 H   0  0  0  0  0  0  0  0  0  0  0  0
   43.6150   35.1113   43.7712 H   0  0  0  0  0  0  0  0  0  0  0  0
   45.0265   34.5070   46.0658 H   0  0  0  0  0  0  0  0  0  0  0  0
   44.5211   33.3925   44.7308 H   0  0  0  0  0  0  0  0  0  0  0  0
   46.9252   33.1483   45.2086 H   0  0  0  0  0  0  0  0  0  0  0  0
   47.1805   34.8923   44.9137 H   0  0  0  0  0  0  0  0  0  0  0  0
   52.3294   29.1138   40.3458 H   0  0  0  0  0  0  0  0  0  0  0  0
   52.4474   28.1349   44.0230 H   0  0  0  0  0  0  0  0  0  0  0  0
   53.0164   27.6251   42.3968 H   0  0  0  0  0  0  0  0  0  0  0  0
   54.9709   28.8832   42.5601 H   0  0  0  0  0  0  0  0  0  0  0  0
   54.1590   29.7318   45.3280 H   0  0  0  0  0  0  0  0  0  0  0  0
   56.4436   30.4877   45.5863 H   0  0  0  0  0  0  0  0  0  0  0  0
   56.9611   29.0701   44.6592 H   0  0  0  0  0  0  0  0  0  0  0  0
   58.1533   32.0972   42.7291 H   0  0  0  0  0  0  0  0  0  0  0  0
   55.9407   30.9713   42.7440 H   0  0  0  0  0  0  0  0  0  0  0  0
  1  7  1  0
  2  1  2  0
  3  2  1  0
  4  3  2  0
  4  5  1  0
  5  6  2  0
  6  1  1  0
  7 12  1  0
  8  9  1  0
  8  7  1  0
  9 10  1  0
 10 11  1  0
 12 11  1  0
 13  5  1  0
 13 17  2  0
 14 15  2  0
 14 13  1  0
 15 16  1  0
 16 18  1  0
 16 17  1  0
 18 19  1  0
 19 20  2  0
 20 21  1  0
 22 23  2  0
 24 22  1  0
 24 21  1  0
  2 25  1  0
  3 26  1  0
  7 27  1  0
  8 28  1  0
  8 29  1  0
  9 30  1  0
  9 31  1  0
 10 32  1  0
 10 33  1  0
 11 34  1  0
 11 35  1  0
 12 36  1  0
 12 37  1  0
 15 38  1  0
 18 39  1  0
 18 40  1  0
 19 41  1  0
 20 42  1  0
 21 43  1  0
 21 44  1  0
 22 45  1  0
 24 46  1  0
M  ISO  8  25  14  26  14  27  13  28  13  29  13  30  13  31  13  32  13
M  ISO  8  33  13  34  13  35  13  36  13  37  13  38  14  39   8  40   8
M  ISO  3  43   8  44   8  45   6
M  END
>  <minimizedAffinity>  (1) 
-4.34862423

>  <minimizedRMSD>  (1) 
0.759583473

$$$$
