
     RDKit          3D

 52 55  0  0  0  0  0  0  0  0999 V2000
   47.9050   33.7040   42.8510 C   0  0  0  0  0  0  0  0  0  0  0  0
   48.6380   34.9090   42.6990 C   0  0  0  0  0  0  0  0  0  0  0  0
   50.0040   34.8550   42.4010 C   0  0  0  0  0  0  0  0  0  0  0  0
   50.5520   33.6050   42.2740 N   0  0  0  0  0  0  0  0  0  0  0  0
   49.7990   32.4680   42.4320 C   0  0  0  0  0  0  0  0  0  0  0  0
   48.5110   32.5390   42.7120 N   0  0  0  0  0  0  0  0  0  0  0  0
   46.4820   33.8970   43.1660 C   0  0  0  0  0  0  0  0  0  0  0  0
   45.8190   34.9270   42.4090 C   0  0  0  0  0  0  0  0  0  0  0  0
   45.3960   36.1130   43.1870 C   0  0  0  0  0  0  0  0  0  0  0  0
   44.5060   35.6960   44.3530 C   0  0  0  0  0  0  0  0  0  0  0  0
   44.9980   34.4960   45.0990 C   0  0  0  0  0  0  0  0  0  0  0  0
   46.4280   34.1510   44.7100 C   0  0  0  0  0  0  0  0  0  0  0  0
   50.5580   31.2350   42.2610 C   0  0  0  0  0  0  0  0  0  0  0  0
   50.5080   30.5920   41.0860 N   0  0  0  0  0  0  0  0  0  0  0  0
   51.2860   29.4780   41.1520 C   0  0  0  0  0  0  0  0  0  0  0  0
   51.8140   29.4520   42.3920 N   0  0  0  0  0  0  0  0  0  0  0  0
   51.3770   30.5190   43.0770 N   0  0  0  0  0  0  0  0  0  0  0  0
   52.7290   28.4770   42.9320 C   0  0  0  0  0  0  0  0  0  0  0  0
   53.9120   29.1570   43.4590 C   0  0  0  0  0  0  0  0  0  0  0  0
   54.5520   29.1290   44.6190 C   0  0  0  0  0  0  0  0  0  0  0  0
   55.8580   29.8710   44.9640 C   0  0  0  0  0  0  0  0  0  0  0  0
   57.1820   31.5990   43.3020 F   0  0  0  0  0  0  0  0  0  0  0  0
   57.5740   30.2820   43.2540 C   0  0  0  0  0  0  0  0  0  0  0  0
   56.9240   29.3640   44.0850 C   0  0  0  0  0  0  0  0  0  0  0  0
   57.3830   28.0490   43.9750 C   0  0  0  0  0  0  0  0  0  0  0  0
   58.4000   27.7440   43.0970 C   0  0  0  0  0  0  0  0  0  0  0  0
   59.0220   28.6680   42.2900 C   0  0  0  0  0  0  0  0  0  0  0  0
   58.5850   29.9850   42.3800 C   0  0  0  0  0  0  0  0  0  0  0  0
   48.1352   35.8805   42.8148 H   0  0  0  0  0  0  0  0  0  0  0  0
   50.6060   35.7670   42.2753 H   0  0  0  0  0  0  0  0  0  0  0  0
   45.9147   33.0020   42.8707 H   0  0  0  0  0  0  0  0  0  0  0  0
   46.5077   35.2658   41.6210 H   0  0  0  0  0  0  0  0  0  0  0  0
   44.8950   34.4723   42.0224 H   0  0  0  0  0  0  0  0  0  0  0  0
   46.2869   36.6268   43.5771 H   0  0  0  0  0  0  0  0  0  0  0  0
   44.8281   36.7868   42.5287 H   0  0  0  0  0  0  0  0  0  0  0  0
   44.4425   36.5385   45.0574 H   0  0  0  0  0  0  0  0  0  0  0  0
   43.5295   35.4249   43.9252 H   0  0  0  0  0  0  0  0  0  0  0  0
   44.9608   34.7050   46.1783 H   0  0  0  0  0  0  0  0  0  0  0  0
   44.3535   33.6414   44.8456 H   0  0  0  0  0  0  0  0  0  0  0  0
   46.7488   33.2452   45.2454 H   0  0  0  0  0  0  0  0  0  0  0  0
   47.0990   34.9808   44.9766 H   0  0  0  0  0  0  0  0  0  0  0  0
   51.4517   28.7428   40.3508 H   0  0  0  0  0  0  0  0  0  0  0  0
   52.2352   27.9200   43.7419 H   0  0  0  0  0  0  0  0  0  0  0  0
   53.0312   27.7788   42.1376 H   0  0  0  0  0  0  0  0  0  0  0  0
   54.3717   29.8428   42.7321 H   0  0  0  0  0  0  0  0  0  0  0  0
   54.1065   28.5147   45.4154 H   0  0  0  0  0  0  0  0  0  0  0  0
   55.7257   30.9511   44.8032 H   0  0  0  0  0  0  0  0  0  0  0  0
   56.1232   29.7011   46.0179 H   0  0  0  0  0  0  0  0  0  0  0  0
   56.9319   27.2564   44.5900 H   0  0  0  0  0  0  0  0  0  0  0  0
   58.7349   26.6979   43.0378 H   0  0  0  0  0  0  0  0  0  0  0  0
   59.8304   28.3776   41.6029 H   0  0  0  0  0  0  0  0  0  0  0  0
   59.0421   30.7718   41.7619 H   0  0  0  0  0  0  0  0  0  0  0  0
  1  7  1  0
  2  1  2  0
  3  2  1  0
  4  3  2  0
  4  5  1  0
  5  6  2  0
  6  1  1  0
  7 12  1  0
  8  7  1  0
  8  9  1  0
  9 10  1  0
 10 11  1  0
 12 11  1  0
 13  5  1  0
 13 17  2  0
 14 15  2  0
 14 13  1  0
 15 16  1  0
 16 18  1  0
 16 17  1  0
 18 19  1  0
 19 20  2  0
 20 21  1  0
 23 22  1  0
 23 24  2  0
 24 21  1  0
 25 24  1  0
 26 25  2  0
 27 28  2  0
 27 26  1  0
 28 23  1  0
  2 29  1  0
  3 30  1  0
  7 31  1  0
  8 32  1  0
  8 33  1  0
  9 34  1  0
  9 35  1  0
 10 36  1  0
 10 37  1  0
 11 38  1  0
 11 39  1  0
 12 40  1  0
 12 41  1  0
 15 42  1  0
 18 43  1  0
 18 44  1  0
 19 45  1  0
 20 46  1  0
 21 47  1  0
 21 48  1  0
 25 49  1  0
 26 50  1  0
 27 51  1  0
 28 52  1  0
M  ISO  8  29  14  30  14  31  13  32  13  33  13  34  13  35  13  36  13
M  ISO  8  37  13  38  13  39  13  40  13  41  13  42  14  43   8  44   8
M  ISO  6  47   8  48   8  49  14  50  14  51  14  52  14
M  END
>  <minimizedAffinity>  (1) 
-4.20393705

>  <minimizedRMSD>  (1) 
0.828954577

$$$$
