
     RDKit          3D

 43 45  0  0  0  0  0  0  0  0999 V2000
   47.8590   33.7620   42.8610 C   0  0  0  0  0  0  0  0  0  0  0  0
   48.5870   34.9730   42.6750 C   0  0  0  0  0  0  0  0  0  0  0  0
   49.9530   34.9270   42.3660 C   0  0  0  0  0  0  0  0  0  0  0  0
   50.5150   33.6840   42.2600 N   0  0  0  0  0  0  0  0  0  0  0  0
   49.7740   32.5390   42.4480 C   0  0  0  0  0  0  0  0  0  0  0  0
   48.4760   32.5820   42.7410 N   0  0  0  0  0  0  0  0  0  0  0  0
   46.4460   33.9410   43.1850 C   0  0  0  0  0  0  0  0  0  0  0  0
   45.7800   34.9720   42.4310 C   0  0  0  0  0  0  0  0  0  0  0  0
   45.3520   36.1520   43.2200 C   0  0  0  0  0  0  0  0  0  0  0  0
   44.4680   35.7190   44.3900 C   0  0  0  0  0  0  0  0  0  0  0  0
   44.9760   34.5250   45.1270 C   0  0  0  0  0  0  0  0  0  0  0  0
   46.4040   34.1890   44.7310 C   0  0  0  0  0  0  0  0  0  0  0  0
   50.5530   31.3170   42.2990 C   0  0  0  0  0  0  0  0  0  0  0  0
   51.5440   31.2690   41.3990 N   0  0  0  0  0  0  0  0  0  0  0  0
   52.1270   30.0430   41.4330 C   0  0  0  0  0  0  0  0  0  0  0  0
   51.4720   29.3340   42.3750 N   0  0  0  0  0  0  0  0  0  0  0  0
   50.5130   30.0930   42.9100 N   0  0  0  0  0  0  0  0  0  0  0  0
   51.7370   27.9810   42.7970 C   0  0  0  0  0  0  0  0  0  0  0  0
   52.8650   27.9730   43.7330 C   0  0  0  0  0  0  0  0  0  0  0  0
   53.0540   28.4640   44.9520 C   0  0  0  0  0  0  0  0  0  0  0  0
   54.3080   28.2900   45.8330 C   0  0  0  0  0  0  0  0  0  0  0  0
   55.0700   29.8920   46.1430 S   0  0  0  0  0  0  0  0  0  0  0  0
   48.0772   35.9427   42.7739 H   0  0  0  0  0  0  0  0  0  0  0  0
   50.5432   35.8431   42.2163 H   0  0  0  0  0  0  0  0  0  0  0  0
   45.8761   33.0454   42.8969 H   0  0  0  0  0  0  0  0  0  0  0  0
   46.4683   35.3185   41.6460 H   0  0  0  0  0  0  0  0  0  0  0  0
   44.8593   34.5168   42.0371 H   0  0  0  0  0  0  0  0  0  0  0  0
   46.2411   36.6693   43.6096 H   0  0  0  0  0  0  0  0  0  0  0  0
   44.7769   36.8269   42.5690 H   0  0  0  0  0  0  0  0  0  0  0  0
   44.3967   36.5577   45.0982 H   0  0  0  0  0  0  0  0  0  0  0  0
   43.4931   35.4386   43.9647 H   0  0  0  0  0  0  0  0  0  0  0  0
   44.9443   34.7319   46.2069 H   0  0  0  0  0  0  0  0  0  0  0  0
   44.3373   33.6663   44.8726 H   0  0  0  0  0  0  0  0  0  0  0  0
   46.7326   33.2829   45.2612 H   0  0  0  0  0  0  0  0  0  0  0  0
   47.0743   35.0194   44.9978 H   0  0  0  0  0  0  0  0  0  0  0  0
   52.9678   29.6964   40.8142 H   0  0  0  0  0  0  0  0  0  0  0  0
   50.8455   27.5706   43.2937 H   0  0  0  0  0  0  0  0  0  0  0  0
   51.9842   27.3651   41.9197 H   0  0  0  0  0  0  0  0  0  0  0  0
   53.7466   27.4455   43.3400 H   0  0  0  0  0  0  0  0  0  0  0  0
   52.2308   29.0564   45.3779 H   0  0  0  0  0  0  0  0  0  0  0  0
   54.0196   27.8323   46.7908 H   0  0  0  0  0  0  0  0  0  0  0  0
   55.0284   27.6423   45.3119 H   0  0  0  0  0  0  0  0  0  0  0  0
   55.1677   30.0974   47.4940 H   0  0  0  0  0  0  0  0  0  0  0  0
  1  7  1  0
  2  1  2  0
  3  2  1  0
  4  3  2  0
  4  5  1  0
  5  6  2  0
  6  1  1  0
  7 12  1  0
  8  7  1  0
  8  9  1  0
  9 10  1  0
 10 11  1  0
 12 11  1  0
 13  5  1  0
 13 17  2  0
 14 15  2  0
 14 13  1  0
 15 16  1  0
 16 18  1  0
 16 17  1  0
 18 19  1  0
 19 20  2  0
 20 21  1  0
 21 22  1  0
  2 23  1  0
  3 24  1  0
  7 25  1  0
  8 26  1  0
  8 27  1  0
  9 28  1  0
  9 29  1  0
 10 30  1  0
 10 31  1  0
 11 32  1  0
 11 33  1  0
 12 34  1  0
 12 35  1  0
 15 36  1  0
 18 37  1  0
 18 38  1  0
 19 39  1  0
 20 40  1  0
 21 41  1  0
 21 42  1  0
 22 43  1  0
M  ISO  8  23  14  24  14  25  13  26  13  27  13  28  13  29  13  30  13
M  ISO  8  31  13  32  13  33  13  34  13  35  13  36  14  37   8  38   8
M  ISO  3  41   8  42   8  43  11
M  END
>  <minimizedAffinity>  (1) 
-3.89524746

>  <minimizedRMSD>  (1) 
0.796749532

$$$$
