
     RDKit          3D

 40 42  0  0  0  0  0  0  0  0999 V2000
   45.6320   31.5290   47.0940 C   0  0  0  0  0  0  0  0  0  0  0  0
   45.4330   31.9940   48.3930 C   0  0  0  0  0  0  0  0  0  0  0  0
   45.1960   31.1660   49.4700 C   0  0  0  0  0  0  0  0  0  0  0  0
   45.1590   29.8130   49.2340 C   0  0  0  0  0  0  0  0  0  0  0  0
   45.3580   29.3460   47.9420 C   0  0  0  0  0  0  0  0  0  0  0  0
   45.5840   30.2010   46.9350 N   0  0  0  0  0  0  0  0  0  0  0  0
   44.7790   36.5570   43.8550 C   0  0  0  0  0  0  0  0  0  0  0  0
   45.6760   36.2690   42.8160 C   0  0  0  0  0  0  0  0  0  0  0  0
   46.3220   35.0330   42.8440 C   0  0  0  0  0  0  0  0  0  0  0  0
   46.0740   34.1520   43.8580 N   0  0  0  0  0  0  0  0  0  0  0  0
   45.1890   34.4900   44.8460 C   0  0  0  0  0  0  0  0  0  0  0  0
   44.5490   35.6870   44.8370 N   0  0  0  0  0  0  0  0  0  0  0  0
   45.8780   32.4830   46.0130 C   0  0  0  0  0  0  0  0  0  0  0  0
   46.8710   32.3030   45.2700 O   0  0  0  0  0  0  0  0  0  0  0  0
   44.9450   33.5620   45.8930 N   0  0  0  0  0  0  0  0  0  0  0  0
   45.3220   27.9210   47.6740 C   0  0  0  0  0  0  0  0  0  0  0  0
   44.6070   27.1260   48.4370 C   0  0  0  0  0  0  0  0  0  0  0  0
   44.4520   25.6490   48.3180 C   0  0  0  0  0  0  0  0  0  0  0  0
   45.2390   23.4310   46.5250 Cl  0  0  0  0  0  0  0  0  0  0  0  0
   43.6990   24.2630   46.4840 C   0  0  0  0  0  0  0  0  0  0  0  0
   43.3730   25.3010   47.3430 C   0  0  0  0  0  0  0  0  0  0  0  0
   42.1410   25.9500   47.2900 C   0  0  0  0  0  0  0  0  0  0  0  0
   41.2130   25.5310   46.3370 C   0  0  0  0  0  0  0  0  0  0  0  0
   41.5330   24.5020   45.4820 C   0  0  0  0  0  0  0  0  0  0  0  0
   42.7680   23.8560   45.5400 C   0  0  0  0  0  0  0  0  0  0  0  0
   45.4668   33.0794   48.5683 H   0  0  0  0  0  0  0  0  0  0  0  0
   45.0423   31.5735   50.4801 H   0  0  0  0  0  0  0  0  0  0  0  0
   44.9740   29.1087   50.0585 H   0  0  0  0  0  0  0  0  0  0  0  0
   44.2535   37.5233   43.8590 H   0  0  0  0  0  0  0  0  0  0  0  0
   45.8633   36.9917   42.0082 H   0  0  0  0  0  0  0  0  0  0  0  0
   47.0328   34.7672   42.0477 H   0  0  0  0  0  0  0  0  0  0  0  0
   44.1417   33.6599   46.5303 H   0  0  0  0  0  0  0  0  0  0  0  0
   45.8939   27.5057   46.8311 H   0  0  0  0  0  0  0  0  0  0  0  0
   44.0585   27.6071   49.2602 H   0  0  0  0  0  0  0  0  0  0  0  0
   45.4019   25.2140   47.9739 H   0  0  0  0  0  0  0  0  0  0  0  0
   44.1780   25.2445   49.3036 H   0  0  0  0  0  0  0  0  0  0  0  0
   41.9064   26.7720   47.9823 H   0  0  0  0  0  0  0  0  0  0  0  0
   40.2304   26.0208   46.2694 H   0  0  0  0  0  0  0  0  0  0  0  0
   40.7952   24.1799   44.7324 H   0  0  0  0  0  0  0  0  0  0  0  0
   43.0004   23.0346   44.8462 H   0  0  0  0  0  0  0  0  0  0  0  0
  1  2  2  0
  2  3  1  0
  4  3  2  0
  5  4  1  0
  6  1  1  0
  6  5  2  0
  7 12  2  0
  8  9  2  0
  8  7  1  0
  9 10  1  0
 10 11  2  0
 11 15  1  0
 12 11  1  0
 13  1  1  0
 14 13  2  0
 15 13  1  0
 16  5  1  0
 16 17  2  0
 18 17  1  0
 20 19  1  0
 20 21  2  0
 21 18  1  0
 22 21  1  0
 23 22  2  0
 24 25  2  0
 24 23  1  0
 25 20  1  0
  2 26  1  0
  3 27  1  0
  4 28  1  0
  7 29  1  0
  8 30  1  0
  9 31  1  0
 15 32  1  0
 16 33  1  0
 17 34  1  0
 18 35  1  0
 18 36  1  0
 22 37  1  0
 23 38  1  0
 24 39  1  0
 25 40  1  0
M  ISO  8  26  14  27  14  28  14  29  14  30  14  31  14  35   8  36   8
M  ISO  4  37  14  38  14  39  14  40  14
M  END
>  <minimizedAffinity>  (1) 
-6.04095221

>  <minimizedRMSD>  (1) 
1.16560102

$$$$
