
     RDKit          3D

 31 32  0  0  0  0  0  0  0  0999 V2000
   45.6300   34.0760   43.0880 C   0  0  0  0  0  0  0  0  0  0  0  0
   44.7610   35.2750   42.9210 C   0  0  0  0  0  0  0  0  0  0  0  0
   44.8360   36.2130   44.0620 C   0  0  0  0  0  0  0  0  0  0  0  0
   44.5230   35.5340   45.3810 C   0  0  0  0  0  0  0  0  0  0  0  0
   45.2180   34.2250   45.5590 C   0  0  0  0  0  0  0  0  0  0  0  0
   46.2330   33.9720   44.4710 C   0  0  0  0  0  0  0  0  0  0  0  0
   46.7400   34.0360   42.1240 C   0  0  0  0  0  0  0  0  0  0  0  0
   48.0300   33.8800   42.6960 C   0  0  0  0  0  0  0  0  0  0  0  0
   49.1420   33.8350   41.8550 C   0  0  0  0  0  0  0  0  0  0  0  0
   48.9120   33.9450   40.5040 N   0  0  0  0  0  0  0  0  0  0  0  0
   47.6560   34.0940   39.9950 C   0  0  0  0  0  0  0  0  0  0  0  0
   46.5940   34.1370   40.7960 N   0  0  0  0  0  0  0  0  0  0  0  0
   47.5650   34.2000   38.5700 N   0  0  0  0  0  0  0  0  0  0  0  0
   50.5260   33.6750   42.3520 C   0  0  0  0  0  0  0  0  0  0  0  0
   44.9492   33.2300   42.9126 H   0  0  0  0  0  0  0  0  0  0  0  0
   45.0714   35.8074   42.0099 H   0  0  0  0  0  0  0  0  0  0  0  0
   43.7220   34.9192   42.8583 H   0  0  0  0  0  0  0  0  0  0  0  0
   45.8522   36.6313   44.1109 H   0  0  0  0  0  0  0  0  0  0  0  0
   44.0865   37.0020   43.9013 H   0  0  0  0  0  0  0  0  0  0  0  0
   44.8287   36.2040   46.1982 H   0  0  0  0  0  0  0  0  0  0  0  0
   43.4423   35.3292   45.3899 H   0  0  0  0  0  0  0  0  0  0  0  0
   45.7321   34.2251   46.5315 H   0  0  0  0  0  0  0  0  0  0  0  0
   44.4609   33.4285   45.5097 H   0  0  0  0  0  0  0  0  0  0  0  0
   46.6468   32.9612   44.6014 H   0  0  0  0  0  0  0  0  0  0  0  0
   47.0155   34.7404   44.5555 H   0  0  0  0  0  0  0  0  0  0  0  0
   48.1508   33.7959   43.7861 H   0  0  0  0  0  0  0  0  0  0  0  0
   46.6457   34.3144   38.1197 H   0  0  0  0  0  0  0  0  0  0  0  0
   48.4188   34.1619   37.9952 H   0  0  0  0  0  0  0  0  0  0  0  0
   50.5229   33.6754   43.4520 H   0  0  0  0  0  0  0  0  0  0  0  0
   50.9390   32.7231   41.9868 H   0  0  0  0  0  0  0  0  0  0  0  0
   51.1453   34.5075   41.9868 H   0  0  0  0  0  0  0  0  0  0  0  0
  1  6  1  0
  2  1  1  0
  2  3  1  0
  3  4  1  0
  4  5  1  0
  6  5  1  0
  7  8  2  0
  7  1  1  0
  9 14  1  0
  9  8  1  0
 10  9  2  0
 11 10  1  0
 11 12  2  0
 12  7  1  0
 13 11  1  0
  1 15  1  0
  2 16  1  0
  2 17  1  0
  3 18  1  0
  3 19  1  0
  4 20  1  0
  4 21  1  0
  5 22  1  0
  5 23  1  0
  6 24  1  0
  6 25  1  0
  8 26  1  0
 13 27  1  0
 13 28  1  0
 14 29  1  0
 14 30  1  0
 14 31  1  0
M  ISO  8  15  13  16  13  17  13  18  13  19  13  20  13  21  13  22  13
M  ISO  7  23  13  24  13  25  13  26  14  29   8  30   8  31   8
M  END
>  <minimizedAffinity>  (1) 
-4.71981668

>  <minimizedRMSD>  (1) 
2.08774948

$$$$
