
     RDKit          3D

 33 34  0  0  0  0  0  0  0  0999 V2000
   46.6290   32.8090   46.3440 C   0  0  0  0  0  0  0  0  0  0  0  0
   47.0950   31.4650   45.9390 C   0  0  0  0  0  0  0  0  0  0  0  0
   46.1480   30.3970   46.4060 C   0  0  0  0  0  0  0  0  0  0  0  0
   45.9530   30.4340   47.9090 C   0  0  0  0  0  0  0  0  0  0  0  0
   45.7420   31.8070   48.4470 C   0  0  0  0  0  0  0  0  0  0  0  0
   45.5400   32.8300   47.3630 C   0  0  0  0  0  0  0  0  0  0  0  0
   46.1680   33.6020   45.1630 C   0  0  0  0  0  0  0  0  0  0  0  0
   46.9120   33.5240   43.9980 C   0  0  0  0  0  0  0  0  0  0  0  0
   46.5780   34.3020   42.9050 C   0  0  0  0  0  0  0  0  0  0  0  0
   45.4840   35.1250   43.0570 N   0  0  0  0  0  0  0  0  0  0  0  0
   44.7630   35.1820   44.2100 C   0  0  0  0  0  0  0  0  0  0  0  0
   45.1020   34.4320   45.2490 N   0  0  0  0  0  0  0  0  0  0  0  0
   43.6310   36.0510   44.2310 N   0  0  0  0  0  0  0  0  0  0  0  0
   48.6820   33.8410   42.0110 C   0  0  0  0  0  0  0  0  0  0  0  0
   49.0080   33.5300   43.1770 O   0  0  0  0  0  0  0  0  0  0  0  0
   47.3320   34.2760   41.7130 N   0  0  0  0  0  0  0  0  0  0  0  0
   49.5970   33.7940   40.8810 O   0  0  0  0  0  0  0  0  0  0  0  0
   47.5182   33.2569   46.8117 H   0  0  0  0  0  0  0  0  0  0  0  0
   47.1669   31.4259   44.8420 H   0  0  0  0  0  0  0  0  0  0  0  0
   48.0775   31.2842   46.3994 H   0  0  0  0  0  0  0  0  0  0  0  0
   45.1741   30.5464   45.9170 H   0  0  0  0  0  0  0  0  0  0  0  0
   46.5781   29.4198   46.1414 H   0  0  0  0  0  0  0  0  0  0  0  0
   45.0743   29.8223   48.1613 H   0  0  0  0  0  0  0  0  0  0  0  0
   46.8760   30.0461   48.3647 H   0  0  0  0  0  0  0  0  0  0  0  0
   44.8521   31.7988   49.0935 H   0  0  0  0  0  0  0  0  0  0  0  0
   46.6473   32.0882   49.0050 H   0  0  0  0  0  0  0  0  0  0  0  0
   45.5071   33.8287   47.8229 H   0  0  0  0  0  0  0  0  0  0  0  0
   44.5980   32.5888   46.8488 H   0  0  0  0  0  0  0  0  0  0  0  0
   47.7720   32.8405   43.9418 H   0  0  0  0  0  0  0  0  0  0  0  0
   43.0556   36.1267   45.0819 H   0  0  0  0  0  0  0  0  0  0  0  0
   43.3895   36.6024   43.3952 H   0  0  0  0  0  0  0  0  0  0  0  0
   46.9789   34.5266   40.7784 H   0  0  0  0  0  0  0  0  0  0  0  0
   49.2827   34.0523   39.9785 H   0  0  0  0  0  0  0  0  0  0  0  0
  1  6  1  0
  2  1  1  0
  2  3  1  0
  3  4  1  0
  4  5  1  0
  6  5  1  0
  7 12  1  0
  7  1  1  0
  8  7  2  0
  9 10  2  0
  9  8  1  0
 10 11  1  0
 11 13  1  0
 11 12  2  0
 14 15  2  0
 16 14  1  0
 16  9  1  0
 17 14  1  0
  1 18  1  0
  2 19  1  0
  2 20  1  0
  3 21  1  0
  3 22  1  0
  4 23  1  0
  4 24  1  0
  5 25  1  0
  5 26  1  0
  6 27  1  0
  6 28  1  0
  8 29  1  0
 13 30  1  0
 13 31  1  0
 16 32  1  0
 17 33  1  0
M  ISO  8  18  13  19  13  20  13  21  13  22  13  23  13  24  13  25  13
M  ISO  5  26  13  27  13  28  13  29  14  33   3
M  END
>  <minimizedAffinity>  (1) 
-5.69796371

>  <minimizedRMSD>  (1) 
0.555571258

$$$$
