
     RDKit          3D

 34 35  0  0  0  0  0  0  0  0999 V2000
   46.6210   32.8070   46.3850 C   0  0  0  0  0  0  0  0  0  0  0  0
   47.1050   31.4660   45.9940 C   0  0  0  0  0  0  0  0  0  0  0  0
   46.1600   30.3930   46.4580 C   0  0  0  0  0  0  0  0  0  0  0  0
   45.9510   30.4350   47.9570 C   0  0  0  0  0  0  0  0  0  0  0  0
   45.7090   31.8000   48.4790 C   0  0  0  0  0  0  0  0  0  0  0  0
   45.5290   32.8280   47.3960 C   0  0  0  0  0  0  0  0  0  0  0  0
   46.1610   33.5870   45.1940 C   0  0  0  0  0  0  0  0  0  0  0  0
   46.8920   33.4740   44.0230 C   0  0  0  0  0  0  0  0  0  0  0  0
   46.5600   34.2380   42.9190 C   0  0  0  0  0  0  0  0  0  0  0  0
   45.4800   35.0810   43.0650 N   0  0  0  0  0  0  0  0  0  0  0  0
   44.7710   35.1710   44.2220 C   0  0  0  0  0  0  0  0  0  0  0  0
   45.1080   34.4360   45.2730 N   0  0  0  0  0  0  0  0  0  0  0  0
   43.6510   36.0580   44.2400 N   0  0  0  0  0  0  0  0  0  0  0  0
   48.6450   33.7080   42.0080 C   0  0  0  0  0  0  0  0  0  0  0  0
   48.9770   33.4310   43.1810 O   0  0  0  0  0  0  0  0  0  0  0  0
   47.3020   34.1780   41.7210 N   0  0  0  0  0  0  0  0  0  0  0  0
   49.4760   33.6260   40.7670 N   0  0  0  0  0  0  0  0  0  0  0  0
   47.5027   33.2661   46.8559 H   0  0  0  0  0  0  0  0  0  0  0  0
   47.1904   31.4203   44.8983 H   0  0  0  0  0  0  0  0  0  0  0  0
   48.0843   31.2968   46.4655 H   0  0  0  0  0  0  0  0  0  0  0  0
   45.1896   30.5337   45.9595 H   0  0  0  0  0  0  0  0  0  0  0  0
   46.5993   29.4175   46.2020 H   0  0  0  0  0  0  0  0  0  0  0  0
   45.0825   29.8075   48.2057 H   0  0  0  0  0  0  0  0  0  0  0  0
   46.8766   30.0678   48.4244 H   0  0  0  0  0  0  0  0  0  0  0  0
   44.7993   31.7812   49.0972 H   0  0  0  0  0  0  0  0  0  0  0  0
   46.5981   32.0895   49.0584 H   0  0  0  0  0  0  0  0  0  0  0  0
   45.5008   33.8248   47.8604 H   0  0  0  0  0  0  0  0  0  0  0  0
   44.5914   32.5918   46.8716 H   0  0  0  0  0  0  0  0  0  0  0  0
   47.7393   32.7744   43.9709 H   0  0  0  0  0  0  0  0  0  0  0  0
   43.0861   36.1570   45.0956 H   0  0  0  0  0  0  0  0  0  0  0  0
   43.4085   36.5985   43.3974 H   0  0  0  0  0  0  0  0  0  0  0  0
   46.9461   34.4287   40.7875 H   0  0  0  0  0  0  0  0  0  0  0  0
   49.0702   33.8879   39.8572 H   0  0  0  0  0  0  0  0  0  0  0  0
   50.4540   33.3077   40.8222 H   0  0  0  0  0  0  0  0  0  0  0  0
  1  6  1  0
  2  1  1  0
  2  3  1  0
  3  4  1  0
  4  5  1  0
  6  5  1  0
  7 12  1  0
  7  1  1  0
  8  7  2  0
  9 10  2  0
  9  8  1  0
 10 11  1  0
 11 13  1  0
 11 12  2  0
 14 15  2  0
 16 14  1  0
 16  9  1  0
 17 14  1  0
  1 18  1  0
  2 19  1  0
  2 20  1  0
  3 21  1  0
  3 22  1  0
  4 23  1  0
  4 24  1  0
  5 25  1  0
  5 26  1  0
  6 27  1  0
  6 28  1  0
  8 29  1  0
 13 30  1  0
 13 31  1  0
 16 32  1  0
 17 33  1  0
 17 34  1  0
M  ISO  8  18  13  19  13  20  13  21  13  22  13  23  13  24  13  25  13
M  ISO  4  26  13  27  13  28  13  29  14
M  END
>  <minimizedAffinity>  (1) 
-5.67097044

>  <minimizedRMSD>  (1) 
0.625421822

$$$$
