
     RDKit          3D

 25 26  0  0  0  0  0  0  0  0999 V2000
   47.9710   33.2600   40.1090 O   0  0  0  0  0  0  0  0  0  0  0  0
   47.9580   34.4210   41.0890 P   0  0  1  0  0  0  0  0  0  0  0  0
   48.8570   35.7190   40.5150 O   0  0  0  0  0  0  0  0  0  0  0  0
   46.3510   34.9410   41.3550 O   0  0  0  0  0  0  0  0  0  0  0  0
   44.7430   36.1030   44.4330 C   0  0  0  0  0  0  0  0  0  0  0  0
   45.2570   36.1040   43.1100 C   0  0  0  0  0  0  0  0  0  0  0  0
   45.8510   34.9220   42.6570 C   0  0  0  0  0  0  0  0  0  0  0  0
   45.9090   33.8510   43.4860 N   0  0  0  0  0  0  0  0  0  0  0  0
   45.4130   33.8760   44.7350 C   0  0  0  0  0  0  0  0  0  0  0  0
   44.8360   34.9880   45.2080 N   0  0  0  0  0  0  0  0  0  0  0  0
   48.5790   33.8670   42.5690 O   0  0  0  0  0  0  0  0  0  0  0  0
   49.2870   32.6590   42.6700 C   0  0  0  0  0  0  0  0  0  0  0  0
   50.6090   32.6390   42.2870 C   0  0  0  0  0  0  0  0  0  0  0  0
   51.2180   31.4060   42.4240 C   0  0  0  0  0  0  0  0  0  0  0  0
   50.4870   30.3280   42.9150 C   0  0  0  0  0  0  0  0  0  0  0  0
   49.1600   30.4150   43.2820 C   0  0  0  0  0  0  0  0  0  0  0  0
   48.5890   31.6250   43.1400 N   0  0  0  0  0  0  0  0  0  0  0  0
   49.2152   36.2361   41.2795 H   0  0  0  0  0  0  0  0  0  0  0  0
   44.2663   37.0093   44.8346 H   0  0  0  0  0  0  0  0  0  0  0  0
   45.1910   36.9956   42.4691 H   0  0  0  0  0  0  0  0  0  0  0  0
   45.4812   32.9806   45.3703 H   0  0  0  0  0  0  0  0  0  0  0  0
   51.1347   33.5267   41.9053 H   0  0  0  0  0  0  0  0  0  0  0  0
   52.2746   31.2772   42.1465 H   0  0  0  0  0  0  0  0  0  0  0  0
   50.9935   29.3567   43.0156 H   0  0  0  0  0  0  0  0  0  0  0  0
   48.6029   29.5482   43.6671 H   0  0  0  0  0  0  0  0  0  0  0  0
  2  1  2  0
  2  4  1  0
  2 11  1  0
  3  2  1  0
  4  7  1  0
  5 10  2  0
  6  5  1  0
  7  6  2  0
  7  8  1  0
  8  9  2  0
  9 10  1  0
 11 12  1  0
 12 17  2  0
 13 14  2  0
 13 12  1  0
 14 15  1  0
 15 16  2  0
 17 16  1  0
  3 18  1  0
  5 19  1  0
  6 20  1  0
  9 21  1  0
 13 22  1  0
 14 23  1  0
 15 24  1  0
 16 25  1  0
M  ISO  8  18   3  19  14  20  14  21  14  22  14  23  14  24  14  25  14
M  END
>  <minimizedAffinity>  (1) 
-4.35229635

>  <minimizedRMSD>  (1) 
1.22981918

$$$$
