
     RDKit          3D

 18 18  0  0  0  0  0  0  0  0999 V2000
   44.6560   36.1080   44.4950 C   0  0  0  0  0  0  0  0  0  0  0  0
   45.1560   36.0630   43.1830 C   0  0  0  0  0  0  0  0  0  0  0  0
   45.8170   34.9080   42.7740 C   0  0  0  0  0  0  0  0  0  0  0  0
   45.9470   33.8770   43.6650 N   0  0  0  0  0  0  0  0  0  0  0  0
   45.4530   33.9610   44.9150 C   0  0  0  0  0  0  0  0  0  0  0  0
   44.8110   35.0580   45.3440 N   0  0  0  0  0  0  0  0  0  0  0  0
   46.3020   34.8800   41.4800 O   0  0  0  0  0  0  0  0  0  0  0  0
   47.8360   32.7880   40.9930 O   0  0  0  0  0  0  0  0  0  0  0  0
   47.8970   34.3030   41.1940 P   0  0  1  0  0  0  0  0  0  0  0  0
   48.5220   35.0850   39.8620 O   0  0  0  0  0  0  0  0  0  0  0  0
   48.7900   34.5910   42.6000 O   0  0  0  0  0  0  0  0  0  0  0  0
   50.1780   34.7510   42.6360 C   0  0  0  0  0  0  0  0  0  0  0  0
   50.7960   33.7120   42.3540 O   0  0  0  0  0  0  0  0  0  0  0  0
   44.1294   37.0095   44.8416 H   0  0  0  0  0  0  0  0  0  0  0  0
   45.0290   36.9151   42.4991 H   0  0  0  0  0  0  0  0  0  0  0  0
   45.5789   33.1100   45.6005 H   0  0  0  0  0  0  0  0  0  0  0  0
   49.1116   35.8227   40.1590 H   0  0  0  0  0  0  0  0  0  0  0  0
   50.6723   35.7007   42.8885 H   0  0  0  0  0  0  0  0  0  0  0  0
  1  6  2  0
  2  1  1  0
  3  2  2  0
  3  4  1  0
  4  5  2  0
  5  6  1  0
  7  3  1  0
  9  8  2  0
  9  7  1  0
  9 11  1  0
 10  9  1  0
 11 12  1  0
 13 12  2  0
  1 14  1  0
  2 15  1  0
  5 16  1  0
 10 17  1  0
 12 18  1  0
M  ISO  5  14  14  15  14  16  14  17   3  18   6
M  END
>  <minimizedAffinity>  (1) 
-4.04980946

>  <minimizedRMSD>  (1) 
0.912831962

$$$$
