
     RDKit          3D

 24 25  0  0  0  0  0  0  0  0999 V2000
   46.7670   33.8930   39.6700 O   0  0  0  0  0  0  0  0  0  0  0  0
   46.5730   33.4230   41.1100 P   0  0  0  0  0  0  0  0  0  0  0  0
   47.5920   32.1650   41.4960 O   0  0  0  0  0  0  0  0  0  0  0  0
   46.8750   34.7310   42.1650 O   0  0  0  0  0  0  0  0  0  0  0  0
   45.5820   33.9880   45.5080 C   0  0  0  0  0  0  0  0  0  0  0  0
   46.3360   33.8680   44.3190 C   0  0  0  0  0  0  0  0  0  0  0  0
   46.1280   34.8490   43.3430 C   0  0  0  0  0  0  0  0  0  0  0  0
   45.2380   35.8450   43.5740 N   0  0  0  0  0  0  0  0  0  0  0  0
   44.5400   35.9200   44.7240 C   0  0  0  0  0  0  0  0  0  0  0  0
   44.7090   34.9970   45.6900 N   0  0  0  0  0  0  0  0  0  0  0  0
   44.9310   33.0050   41.2870 O   0  0  0  0  0  0  0  0  0  0  0  0
   43.9320   33.4540   40.4420 C   0  0  0  0  0  0  0  0  0  0  0  0
   43.4890   34.7450   40.6450 C   0  0  0  0  0  0  0  0  0  0  0  0
   42.4830   35.1870   39.7890 C   0  0  0  0  0  0  0  0  0  0  0  0
   42.0360   34.3410   38.8550 N   0  0  0  0  0  0  0  0  0  0  0  0
   42.4630   33.0960   38.6580 C   0  0  0  0  0  0  0  0  0  0  0  0
   43.4410   32.6600   39.4880 N   0  0  0  0  0  0  0  0  0  0  0  0
   47.6578   32.0838   42.4805 H   0  0  0  0  0  0  0  0  0  0  0  0
   45.7112   33.2395   46.3037 H   0  0  0  0  0  0  0  0  0  0  0  0
   47.0503   33.0451   44.1682 H   0  0  0  0  0  0  0  0  0  0  0  0
   43.8256   36.7426   44.8752 H   0  0  0  0  0  0  0  0  0  0  0  0
   43.9054   35.3867   41.4355 H   0  0  0  0  0  0  0  0  0  0  0  0
   42.0685   36.2020   39.8787 H   0  0  0  0  0  0  0  0  0  0  0  0
   42.0454   32.4570   37.8660 H   0  0  0  0  0  0  0  0  0  0  0  0
  2  1  2  0
  2 11  1  0
  2  3  1  0
  2  4  1  0
  4  7  1  0
  5 10  2  0
  6  5  1  0
  7  8  1  0
  7  6  2  0
  8  9  2  0
  9 10  1  0
 12 13  2  0
 12 11  1  0
 14 13  1  0
 15 14  2  0
 16 15  1  0
 16 17  2  0
 17 12  1  0
  3 18  1  0
  5 19  1  0
  6 20  1  0
  9 21  1  0
 13 22  1  0
 14 23  1  0
 16 24  1  0
M  ISO  7  18   3  19  14  20  14  21  14  22  14  23  14  24  14
M  END
>  <minimizedAffinity>  (1) 
-4.04952383

>  <minimizedRMSD>  (1) 
5.44293928

$$$$
