
     RDKit          3D

 19 19  0  0  0  0  0  0  0  0999 V2000
   44.6480   36.0080   44.5190 C   0  0  0  0  0  0  0  0  0  0  0  0
   45.1810   36.0090   43.2000 C   0  0  0  0  0  0  0  0  0  0  0  0
   45.9130   34.9030   42.7960 C   0  0  0  0  0  0  0  0  0  0  0  0
   46.0910   33.8800   43.6620 N   0  0  0  0  0  0  0  0  0  0  0  0
   45.5800   33.8950   44.9090 C   0  0  0  0  0  0  0  0  0  0  0  0
   44.8600   34.9610   45.3310 N   0  0  0  0  0  0  0  0  0  0  0  0
   46.4300   34.9120   41.5070 O   0  0  0  0  0  0  0  0  0  0  0  0
   48.1280   32.9420   41.0950 O   0  0  0  0  0  0  0  0  0  0  0  0
   48.0590   34.4580   41.2480 P   0  0  1  0  0  0  0  0  0  0  0  0
   48.6270   35.2380   39.8810 O   0  0  0  0  0  0  0  0  0  0  0  0
   48.9290   34.8910   42.6280 O   0  0  0  0  0  0  0  0  0  0  0  0
   50.2590   34.4230   42.5820 C   0  0  0  0  0  0  0  0  0  0  0  0
   44.0607   36.8676   44.8741 H   0  0  0  0  0  0  0  0  0  0  0  0
   45.0176   36.8600   42.5224 H   0  0  0  0  0  0  0  0  0  0  0  0
   45.7477   33.0421   45.5831 H   0  0  0  0  0  0  0  0  0  0  0  0
   49.1879   36.0083   40.1496 H   0  0  0  0  0  0  0  0  0  0  0  0
   50.6366   34.2901   43.6066 H   0  0  0  0  0  0  0  0  0  0  0  0
   50.2906   33.4597   42.0518 H   0  0  0  0  0  0  0  0  0  0  0  0
   50.8869   35.1542   42.0518 H   0  0  0  0  0  0  0  0  0  0  0  0
  1  6  2  0
  2  1  1  0
  3  2  2  0
  3  4  1  0
  4  5  2  0
  5  6  1  0
  7  3  1  0
  9  8  2  0
  9  7  1  0
  9 11  1  0
 10  9  1  0
 12 11  1  0
  1 13  1  0
  2 14  1  0
  5 15  1  0
 10 16  1  0
 12 17  1  0
 12 18  1  0
 12 19  1  0
M  ISO  7  13  14  14  14  15  14  16   3  17   8  18   8  19   8
M  END
>  <minimizedAffinity>  (1) 
-3.99262381

>  <minimizedRMSD>  (1) 
0.63793242

$$$$
