
     RDKit          3D

 22 22  0  0  0  0  0  0  0  0999 V2000
   47.1710   34.1010   39.7990 O   0  0  0  0  0  0  0  0  0  0  0  0
   47.2520   34.0040   41.3130 P   0  0  0  0  0  0  0  0  0  0  0  0
   45.6670   33.7430   41.9410 O   0  0  0  0  0  0  0  0  0  0  0  0
   45.3840   34.0140   45.5850 C   0  0  0  0  0  0  0  0  0  0  0  0
   45.7030   33.5140   44.3050 C   0  0  0  0  0  0  0  0  0  0  0  0
   45.3440   34.2540   43.1900 C   0  0  0  0  0  0  0  0  0  0  0  0
   44.7020   35.4240   43.3830 N   0  0  0  0  0  0  0  0  0  0  0  0
   44.4050   35.8890   44.6100 C   0  0  0  0  0  0  0  0  0  0  0  0
   44.7350   35.2030   45.7010 N   0  0  0  0  0  0  0  0  0  0  0  0
   47.7860   35.4760   41.9270 O   0  0  0  0  0  0  0  0  0  0  0  0
   49.0010   35.8570   41.3870 C   0  0  0  0  0  0  0  0  0  0  0  0
   48.9500   35.8030   40.0060 F   0  0  0  0  0  0  0  0  0  0  0  0
   49.4470   37.0780   41.8490 F   0  0  0  0  0  0  0  0  0  0  0  0
   49.9270   34.9020   41.8060 F   0  0  0  0  0  0  0  0  0  0  0  0
   48.2220   32.7370   41.8140 O   0  0  0  0  0  0  0  0  0  0  0  0
   48.4420   31.9370   40.6780 C   0  0  0  0  0  0  0  0  0  0  0  0
   49.1040   30.7820   40.9510 F   0  0  0  0  0  0  0  0  0  0  0  0
   47.2150   31.7110   40.0690 F   0  0  0  0  0  0  0  0  0  0  0  0
   49.1800   32.7440   39.8060 F   0  0  0  0  0  0  0  0  0  0  0  0
   45.6591   33.4445   46.4850 H   0  0  0  0  0  0  0  0  0  0  0  0
   46.2275   32.5535   44.1941 H   0  0  0  0  0  0  0  0  0  0  0  0
   43.8814   36.8509   44.7127 H   0  0  0  0  0  0  0  0  0  0  0  0
  1  2  2  0
  2 15  1  0
  2 10  1  0
  2  3  1  0
  3  6  1  0
  4  9  2  0
  5  4  1  0
  6  7  1  0
  6  5  2  0
  7  8  2  0
  8  9  1  0
 11 14  1  0
 11 13  1  0
 11 10  1  0
 12 11  1  0
 16 17  1  0
 16 15  1  0
 18 16  1  0
 19 16  1  0
  4 20  1  0
  5 21  1  0
  8 22  1  0
M  ISO  3  20  14  21  14  22  14
M  END
>  <minimizedAffinity>  (1) 
-4.78250504

>  <minimizedRMSD>  (1) 
1.10357416

$$$$
