
     RDKit          3D

 25 25  0  0  0  0  0  0  0  0999 V2000
   48.0970   32.9090   41.9330 O   0  0  0  0  0  0  0  0  0  0  0  0
   47.2150   34.0120   41.3590 P   0  0  2  0  0  0  0  0  0  0  0  0
   45.6070   33.8010   41.9600 O   0  0  0  0  0  0  0  0  0  0  0  0
   44.3870   35.9330   44.6760 C   0  0  0  0  0  0  0  0  0  0  0  0
   44.6790   35.4890   43.3630 C   0  0  0  0  0  0  0  0  0  0  0  0
   45.3170   34.2440   43.2480 C   0  0  0  0  0  0  0  0  0  0  0  0
   45.6170   33.5440   44.3680 N   0  0  0  0  0  0  0  0  0  0  0  0
   45.3140   34.0180   45.6020 C   0  0  0  0  0  0  0  0  0  0  0  0
   44.7100   35.1920   45.7670 N   0  0  0  0  0  0  0  0  0  0  0  0
   47.1450   33.9540   39.6850 O   0  0  0  0  0  0  0  0  0  0  0  0
   47.9190   32.8640   39.2240 C   0  0  0  0  0  0  0  0  0  0  0  0
   48.6270   33.2350   37.9230 C   0  0  0  0  0  0  0  0  0  0  0  0
   47.7840   35.4940   41.9130 O   0  0  0  0  0  0  0  0  0  0  0  0
   49.0280   35.7970   41.4050 C   0  0  0  0  0  0  0  0  0  0  0  0
   49.5010   37.0360   41.8340 F   0  0  0  0  0  0  0  0  0  0  0  0
   49.9090   34.7720   41.6800 F   0  0  0  0  0  0  0  0  0  0  0  0
   48.9010   35.8760   40.0280 F   0  0  0  0  0  0  0  0  0  0  0  0
   43.8860   36.9023   44.8153 H   0  0  0  0  0  0  0  0  0  0  0  0
   44.4191   36.0892   42.4786 H   0  0  0  0  0  0  0  0  0  0  0  0
   45.5735   33.4181   46.4868 H   0  0  0  0  0  0  0  0  0  0  0  0
   48.6694   32.6033   39.9848 H   0  0  0  0  0  0  0  0  0  0  0  0
   47.2570   32.0048   39.0408 H   0  0  0  0  0  0  0  0  0  0  0  0
   49.5797   33.7342   38.1535 H   0  0  0  0  0  0  0  0  0  0  0  0
   48.8225   32.3235   37.3391 H   0  0  0  0  0  0  0  0  0  0  0  0
   47.9888   33.9146   37.3391 H   0  0  0  0  0  0  0  0  0  0  0  0
  2 13  1  0
  2  1  2  0
  2  3  1  0
  3  6  1  0
  4  9  2  0
  5  4  1  0
  6  5  2  0
  6  7  1  0
  7  8  2  0
  8  9  1  0
 10  2  1  0
 11 10  1  0
 12 11  1  0
 14 16  1  0
 14 15  1  0
 14 13  1  0
 17 14  1  0
  4 18  1  0
  5 19  1  0
  8 20  1  0
 11 21  1  0
 11 22  1  0
 12 23  1  0
 12 24  1  0
 12 25  1  0
M  ISO  8  18  14  19  14  20  14  21   8  22   8  23   8  24   8  25   8
M  END
>  <minimizedAffinity>  (1) 
-4.64682913

>  <minimizedRMSD>  (1) 
0.416108638

$$$$
