
     RDKit          3D

 34 36  0  0  1  0  0  0  0  0999 V2000
   47.9750   32.8790   41.6830 O   0  0  0  0  0  0  0  0  0  0  0  0
   47.1170   34.0850   41.2750 P   0  0  2  0  0  0  0  0  0  0  0  0
   45.5370   33.8790   41.9000 O   0  0  0  0  0  0  0  0  0  0  0  0
   44.4040   35.9200   44.6990 C   0  0  0  0  0  0  0  0  0  0  0  0
   44.6660   35.4940   43.3760 C   0  0  0  0  0  0  0  0  0  0  0  0
   45.2970   34.2590   43.2020 C   0  0  0  0  0  0  0  0  0  0  0  0
   45.6250   33.5350   44.2960 N   0  0  0  0  0  0  0  0  0  0  0  0
   45.3630   33.9680   45.5500 C   0  0  0  0  0  0  0  0  0  0  0  0
   44.7610   35.1410   45.7640 N   0  0  0  0  0  0  0  0  0  0  0  0
   47.0410   34.1660   39.6140 O   0  0  0  0  0  0  0  0  0  0  0  0
   46.8560   33.1580   38.7080 C   0  0  0  0  0  0  0  0  0  0  0  0
   45.6160   32.8830   38.3250 O   0  0  0  0  0  0  0  0  0  0  0  0
   47.1790   32.0680   37.7850 C   0  0  0  0  0  0  0  0  0  0  0  0
   47.1620   32.4910   36.3350 C   0  0  0  0  0  0  0  0  0  0  0  0
   48.5200   33.0960   36.1240 C   0  0  0  0  0  0  0  0  0  0  0  0
   49.3510   32.7790   37.3090 C   0  0  0  0  0  0  0  0  0  0  0  0
   48.6500   31.6720   38.0150 C   0  0  0  0  0  0  0  0  0  0  0  0
   47.7910   35.4220   41.9660 O   0  0  0  0  0  0  0  0  0  0  0  0
   49.0320   35.7410   41.4390 C   0  0  0  0  0  0  0  0  0  0  0  0
   49.4410   37.0310   41.7610 F   0  0  0  0  0  0  0  0  0  0  0  0
   49.9490   34.8040   41.7940 F   0  0  0  0  0  0  0  0  0  0  0  0
   48.8860   35.7270   40.0600 F   0  0  0  0  0  0  0  0  0  0  0  0
   43.9086   36.8867   44.8724 H   0  0  0  0  0  0  0  0  0  0  0  0
   44.3826   36.1140   42.5127 H   0  0  0  0  0  0  0  0  0  0  0  0
   45.6506   33.3435   46.4086 H   0  0  0  0  0  0  0  0  0  0  0  0
   46.7620   32.4350   39.5316 H   0  0  0  0  0  0  0  0  0  0  0  0
   47.0123   31.6236   35.6752 H   0  0  0  0  0  0  0  0  0  0  0  0
   46.3440   33.1894   36.1046 H   0  0  0  0  0  0  0  0  0  0  0  0
   48.9814   32.6718   35.2201 H   0  0  0  0  0  0  0  0  0  0  0  0
   48.4375   34.1853   35.9952 H   0  0  0  0  0  0  0  0  0  0  0  0
   50.3558   32.4580   36.9968 H   0  0  0  0  0  0  0  0  0  0  0  0
   49.4775   33.6567   37.9598 H   0  0  0  0  0  0  0  0  0  0  0  0
   48.9010   31.6518   39.0858 H   0  0  0  0  0  0  0  0  0  0  0  0
   48.9119   30.6655   37.6566 H   0  0  0  0  0  0  0  0  0  0  0  0
  2  1  2  0
  2  3  1  0
  2 18  1  0
  3  6  1  0
  4  9  2  0
  5  4  1  0
  6  5  2  0
  6  7  1  0
  7  8  2  0
  8  9  1  0
 10  2  1  0
 11 10  1  0
 12 11  1  0
 13 17  1  0
 13 12  1  0
 13 11  1  0
 14 13  1  0
 15 14  1  0
 15 16  1  0
 16 17  1  0
 19 20  1  0
 19 21  1  0
 19 18  1  0
 22 19  1  0
  4 23  1  0
  5 24  1  0
  8 25  1  0
 11 26  1  0
 14 27  1  0
 14 28  1  0
 15 29  1  0
 15 30  1  0
 16 31  1  0
 16 32  1  0
 17 33  1  0
 17 34  1  0
M  ISO  8  23  14  24  14  25  14  26  13  27  13  28  13  29  13  30  13
M  ISO  4  31  13  32  13  33  13  34  13
M  END
>  <minimizedAffinity>  (1) 
-5.17148161

>  <minimizedRMSD>  (1) 
1.16472304

$$$$
