
     RDKit          3D

 22 22  0  0  0  0  0  0  0  0999 V2000
   48.0330   32.9100   41.8020 O   0  0  0  0  0  0  0  0  0  0  0  0
   47.1720   34.0800   41.3140 P   0  0  2  0  0  0  0  0  0  0  0  0
   45.5740   33.8920   41.9100 O   0  0  0  0  0  0  0  0  0  0  0  0
   44.3900   35.9340   44.6860 C   0  0  0  0  0  0  0  0  0  0  0  0
   44.6750   35.5060   43.3710 C   0  0  0  0  0  0  0  0  0  0  0  0
   45.3130   34.2710   43.2080 C   0  0  0  0  0  0  0  0  0  0  0  0
   45.6250   33.5480   44.3080 N   0  0  0  0  0  0  0  0  0  0  0  0
   45.3400   33.9820   45.5580 C   0  0  0  0  0  0  0  0  0  0  0  0
   44.7310   35.1570   45.7590 N   0  0  0  0  0  0  0  0  0  0  0  0
   47.1330   34.0940   39.6530 O   0  0  0  0  0  0  0  0  0  0  0  0
   46.6300   33.1320   38.8080 C   0  0  0  0  0  0  0  0  0  0  0  0
   46.6490   33.3470   37.5000 O   0  0  0  0  0  0  0  0  0  0  0  0
   46.0610   31.9710   38.3640 O   0  0  0  0  0  0  0  0  0  0  0  0
   47.8030   35.4700   41.9570 O   0  0  0  0  0  0  0  0  0  0  0  0
   49.0520   35.7840   41.4390 C   0  0  0  0  0  0  0  0  0  0  0  0
   49.4730   37.0610   41.7880 F   0  0  0  0  0  0  0  0  0  0  0  0
   49.9600   34.8280   41.7620 F   0  0  0  0  0  0  0  0  0  0  0  0
   48.8990   35.7990   40.0590 F   0  0  0  0  0  0  0  0  0  0  0  0
   43.8897   36.9000   44.8490 H   0  0  0  0  0  0  0  0  0  0  0  0
   44.4041   36.1237   42.5021 H   0  0  0  0  0  0  0  0  0  0  0  0
   45.6132   33.3592   46.4225 H   0  0  0  0  0  0  0  0  0  0  0  0
   45.9286   31.8240   37.3940 H   0  0  0  0  0  0  0  0  0  0  0  0
  2  1  2  0
  2  3  1  0
  2 14  1  0
  3  6  1  0
  4  9  2  0
  5  4  1  0
  6  5  2  0
  6  7  1  0
  7  8  2  0
  8  9  1  0
 10  2  1  0
 11 10  1  0
 12 11  2  0
 13 11  1  0
 15 17  1  0
 15 16  1  0
 15 14  1  0
 18 15  1  0
  4 19  1  0
  5 20  1  0
  8 21  1  0
 13 22  1  0
M  ISO  4  19  14  20  14  21  14  22   3
M  END
>  <minimizedAffinity>  (1) 
-4.79696274

>  <minimizedRMSD>  (1) 
0.200231031

$$$$
