
     RDKit          3D

 53 56  0  0  1  0  0  0  0  0999 V2000
   45.4050   27.8490   47.6310 C   0  0  0  0  0  0  0  0  0  0  0  0
   44.3760   27.2750   47.0630 C   0  0  0  0  0  0  0  0  0  0  0  0
   45.6350   31.4700   47.0490 C   0  0  0  0  0  0  0  0  0  0  0  0
   45.3940   31.9230   48.3530 C   0  0  0  0  0  0  0  0  0  0  0  0
   45.1570   31.0810   49.4210 C   0  0  0  0  0  0  0  0  0  0  0  0
   45.1640   29.7330   49.1700 C   0  0  0  0  0  0  0  0  0  0  0  0
   45.4020   29.2800   47.8820 C   0  0  0  0  0  0  0  0  0  0  0  0
   45.6240   30.1440   46.8880 N   0  0  0  0  0  0  0  0  0  0  0  0
   44.7860   36.5430   43.8860 C   0  0  0  0  0  0  0  0  0  0  0  0
   45.6680   36.2560   42.8310 C   0  0  0  0  0  0  0  0  0  0  0  0
   46.3090   35.0110   42.8320 C   0  0  0  0  0  0  0  0  0  0  0  0
   46.0650   34.1220   43.8390 N   0  0  0  0  0  0  0  0  0  0  0  0
   45.1950   34.4550   44.8420 C   0  0  0  0  0  0  0  0  0  0  0  0
   44.5670   35.6570   44.8550 N   0  0  0  0  0  0  0  0  0  0  0  0
   45.8750   32.4340   45.9860 C   0  0  0  0  0  0  0  0  0  0  0  0
   46.8650   32.2560   45.2330 O   0  0  0  0  0  0  0  0  0  0  0  0
   44.9480   33.5200   45.8860 N   0  0  0  0  0  0  0  0  0  0  0  0
   44.2480   25.8130   46.7470 C   0  0  0  0  0  0  0  0  0  0  0  0
   44.0340   23.1740   45.4470 Cl  0  0  0  0  0  0  0  0  0  0  0  0
   42.6940   24.2300   45.7880 C   0  0  0  0  0  0  0  0  0  0  0  0
   42.8490   25.4540   46.3930 C   0  0  0  0  0  0  0  0  0  0  0  0
   41.7720   26.2980   46.6550 C   0  0  0  0  0  0  0  0  0  0  0  0
   40.4870   25.8690   46.2810 C   0  0  0  0  0  0  0  0  0  0  0  0
   40.3330   24.6360   45.6720 C   0  0  0  0  0  0  0  0  0  0  0  0
   41.4400   23.8070   45.4210 C   0  0  0  0  0  0  0  0  0  0  0  0
   39.6100   22.3680   44.5620 C   0  0  2  0  0  0  0  0  0  0  0  0
   41.0870   22.4960   44.7600 C   0  0  2  0  0  0  0  0  0  0  0  0
   41.4800   21.4390   45.5160 O   0  0  0  0  0  0  0  0  0  0  0  0
   40.4420   20.5970   45.7970 C   0  0  0  0  0  0  0  0  0  0  0  0
   39.1810   21.4200   45.6490 C   0  0  2  0  0  0  0  0  0  0  0  0
   39.3580   21.7930   43.3110 O   0  0  0  0  0  0  0  0  0  0  0  0
   38.0960   20.6350   45.2610 O   0  0  0  0  0  0  0  0  0  0  0  0
   46.2775   27.2448   47.9203 H   0  0  0  0  0  0  0  0  0  0  0  0
   43.5282   27.9217   46.7926 H   0  0  0  0  0  0  0  0  0  0  0  0
   45.3936   33.0078   48.5354 H   0  0  0  0  0  0  0  0  0  0  0  0
   44.9704   31.4749   50.4309 H   0  0  0  0  0  0  0  0  0  0  0  0
   44.9821   29.0166   49.9847 H   0  0  0  0  0  0  0  0  0  0  0  0
   44.2690   37.5136   43.9117 H   0  0  0  0  0  0  0  0  0  0  0  0
   45.8495   36.9866   42.0290 H   0  0  0  0  0  0  0  0  0  0  0  0
   47.0075   34.7499   42.0233 H   0  0  0  0  0  0  0  0  0  0  0  0
   44.1506   33.6188   46.5305 H   0  0  0  0  0  0  0  0  0  0  0  0
   44.9049   25.5716   45.8984 H   0  0  0  0  0  0  0  0  0  0  0  0
   44.5367   25.2396   47.6402 H   0  0  0  0  0  0  0  0  0  0  0  0
   41.9232   27.2731   47.1411 H   0  0  0  0  0  0  0  0  0  0  0  0
   39.6116   26.5075   46.4706 H   0  0  0  0  0  0  0  0  0  0  0  0
   39.3276   24.2990   45.3795 H   0  0  0  0  0  0  0  0  0  0  0  0
   39.0826   23.3325   44.6014 H   0  0  0  0  0  0  0  0  0  0  0  0
   41.6085   22.4914   43.7915 H   0  0  0  0  0  0  0  0  0  0  0  0
   40.4325   19.7539   45.0905 H   0  0  0  0  0  0  0  0  0  0  0  0
   40.5298   20.1754   46.8092 H   0  0  0  0  0  0  0  0  0  0  0  0
   38.8332   21.9075   46.5717 H   0  0  0  0  0  0  0  0  0  0  0  0
   38.9637   20.8934   43.4347 H   0  0  0  0  0  0  0  0  0  0  0  0
   37.6288   20.2970   46.0657 H   0  0  0  0  0  0  0  0  0  0  0  0
  1  7  1  0
  2  1  2  0
  3  4  2  0
  4  5  1  0
  6  5  2  0
  7  6  1  0
  8  3  1  0
  8  7  2  0
  9 14  2  0
 10 11  2  0
 10  9  1  0
 11 12  1  0
 12 13  2  0
 13 14  1  0
 13 17  1  0
 15  3  1  0
 16 15  2  0
 17 15  1  0
 18  2  1  0
 19 20  1  0
 20 21  2  0
 21 22  1  0
 21 18  1  0
 23 22  2  0
 24 23  1  0
 25 24  2  0
 25 20  1  0
 26 31  1  0
 26 27  1  0
 26 30  1  0
 27 25  1  0
 27 28  1  0
 28 29  1  0
 30 32  1  0
 30 29  1  0
  1 33  1  0
  2 34  1  0
  4 35  1  0
  5 36  1  0
  6 37  1  0
  9 38  1  0
 10 39  1  0
 11 40  1  0
 17 41  1  0
 18 42  1  0
 18 43  1  0
 22 44  1  0
 23 45  1  0
 24 46  1  0
 26 47  1  6
 27 48  1  6
 29 49  1  0
 29 50  1  0
 30 51  1  1
 31 52  1  0
 32 53  1  0
M  ISO  8  35  14  36  14  37  14  38  14  39  14  40  14  42   8  43   8
M  ISO  8  44  14  45  14  46  14  47  13  48  13  49  13  50  13  51  13
M  ISO  2  52   3  53   3
M  END
>  <minimizedAffinity>  (1) 
-6.79986095

>  <minimizedRMSD>  (1) 
1.68335783

$$$$
