
     RDKit          3D

 27 28  0  0  1  0  0  0  0  0999 V2000
   45.9940   34.2190   41.6230 N   0  0  0  0  0  0  0  0  0  0  0  0
   45.0370   34.2320   40.5500 C   0  0  0  0  0  0  0  0  0  0  0  0
   45.4780   33.3680   39.3960 C   0  0  0  0  0  0  0  0  0  0  0  0
   46.8170   33.6030   38.9530 N   0  0  0  0  0  0  0  0  0  0  0  0
   47.7620   33.9250   39.9540 C   0  0  0  0  0  0  0  0  0  0  0  0
   47.3610   33.8530   41.3820 C   0  0  1  0  0  0  0  0  0  0  0  0
   44.6050   35.9720   44.6340 C   0  0  0  0  0  0  0  0  0  0  0  0
   44.9610   35.7390   43.3080 C   0  0  0  0  0  0  0  0  0  0  0  0
   45.5900   34.5640   42.9390 C   0  0  0  0  0  0  0  0  0  0  0  0
   45.8140   33.6960   43.9720 N   0  0  0  0  0  0  0  0  0  0  0  0
   45.4680   33.9250   45.2510 C   0  0  0  0  0  0  0  0  0  0  0  0
   44.8630   35.0670   45.5780 N   0  0  0  0  0  0  0  0  0  0  0  0
   48.2260   34.8130   42.1450 C   0  0  0  0  0  0  0  0  0  0  0  0
   48.5330   35.9590   41.7520 O   0  0  0  0  0  0  0  0  0  0  0  0
   48.7420   34.4280   43.3860 O   0  0  0  0  0  0  0  0  0  0  0  0
   44.0739   33.8577   40.9273 H   0  0  0  0  0  0  0  0  0  0  0  0
   44.9444   35.2662   40.1870 H   0  0  0  0  0  0  0  0  0  0  0  0
   45.3991   32.3155   39.7059 H   0  0  0  0  0  0  0  0  0  0  0  0
   44.8215   33.6197   38.5500 H   0  0  0  0  0  0  0  0  0  0  0  0
   47.1436   32.7505   38.4761 H   0  0  0  0  0  0  0  0  0  0  0  0
   48.6127   33.2397   39.8246 H   0  0  0  0  0  0  0  0  0  0  0  0
   47.9585   34.9951   39.7922 H   0  0  0  0  0  0  0  0  0  0  0  0
   47.4785   32.8061   41.6987 H   0  0  0  0  0  0  0  0  0  0  0  0
   44.1052   36.9136   44.9054 H   0  0  0  0  0  0  0  0  0  0  0  0
   44.7391   36.4991   42.5445 H   0  0  0  0  0  0  0  0  0  0  0  0
   45.6833   33.1730   46.0244 H   0  0  0  0  0  0  0  0  0  0  0  0
   49.3140   35.0520   43.8994 H   0  0  0  0  0  0  0  0  0  0  0  0
  1  9  1  0
  2  1  1  0
  3  2  1  0
  4  3  1  0
  4  5  1  0
  5  6  1  0
  6  1  1  0
  6 13  1  0
  7 12  2  0
  8  7  1  0
  9  8  2  0
  9 10  1  0
 10 11  2  0
 11 12  1  0
 13 15  1  0
 14 13  2  0
  2 16  1  0
  2 17  1  0
  3 18  1  0
  3 19  1  0
  4 20  1  0
  5 21  1  0
  5 22  1  0
  6 23  1  1
  7 24  1  0
  8 25  1  0
 11 26  1  0
 15 27  1  0
M  ISO  8  16  13  17  13  18  13  19  13  20   5  21  13  22  13  23  13
M  ISO  4  24  14  25  14  26  14  27   3
M  END
>  <minimizedAffinity>  (1) 
-4.59531784

>  <minimizedRMSD>  (1) 
0.481021911

$$$$
