
     RDKit          3D

 35 38  0  0  1  0  0  0  0  0999 V2000
   46.7260   33.7090   39.7640 N   0  0  0  0  0  0  0  0  0  0  0  0
   48.0020   34.3230   39.8250 C   0  0  0  0  0  0  0  0  0  0  0  0
   48.4730   34.6060   41.2170 C   0  0  0  0  0  0  0  0  0  0  0  0
   47.5280   35.2070   42.0910 N   0  0  0  0  0  0  0  0  0  0  0  0
   46.1750   34.8930   41.8640 C   0  0  0  0  0  0  0  0  0  0  0  0
   45.8380   33.8800   40.8610 C   0  0  1  0  0  0  0  0  0  0  0  0
   45.8040   32.5690   36.3550 C   0  0  0  0  0  0  0  0  0  0  0  0
   46.2170   33.4310   37.3860 C   0  0  0  0  0  0  0  0  0  0  0  0
   46.3080   32.9280   38.6660 C   0  0  0  0  0  0  0  0  0  0  0  0
   45.9830   31.6000   38.8530 N   0  0  0  0  0  0  0  0  0  0  0  0
   45.5880   30.7920   37.8430 C   0  0  0  0  0  0  0  0  0  0  0  0
   45.4950   31.2720   36.5800 N   0  0  0  0  0  0  0  0  0  0  0  0
   44.4710   33.9510   40.4330 C   0  0  0  0  0  0  0  0  0  0  0  0
   43.5700   33.7750   41.2220 O   0  0  0  0  0  0  0  0  0  0  0  0
   43.1710   34.0800   39.6930 C   0  0  1  0  0  0  0  0  0  0  0  0
   42.4530   35.1830   39.7850 C   0  0  0  0  0  0  0  0  0  0  0  0
   41.3140   35.4510   39.1650 C   0  0  0  0  0  0  0  0  0  0  0  0
   40.9070   34.3880   38.3400 C   0  0  0  0  0  0  0  0  0  0  0  0
   42.3230   33.0930   38.6120 S   0  0  0  0  0  0  0  0  0  0  0  0
   48.7309   33.6558   39.3417 H   0  0  0  0  0  0  0  0  0  0  0  0
   47.9141   35.2933   39.3143 H   0  0  0  0  0  0  0  0  0  0  0  0
   48.7849   33.6514   41.6659 H   0  0  0  0  0  0  0  0  0  0  0  0
   49.2825   35.3428   41.1087 H   0  0  0  0  0  0  0  0  0  0  0  0
   47.7601   34.9155   43.0512 H   0  0  0  0  0  0  0  0  0  0  0  0
   45.7593   34.5481   42.8223 H   0  0  0  0  0  0  0  0  0  0  0  0
   45.7551   35.8220   41.4509 H   0  0  0  0  0  0  0  0  0  0  0  0
   45.9849   32.9538   41.4359 H   0  0  0  0  0  0  0  0  0  0  0  0
   45.7297   32.9630   35.3307 H   0  0  0  0  0  0  0  0  0  0  0  0
   46.4619   34.4826   37.1760 H   0  0  0  0  0  0  0  0  0  0  0  0
   45.3411   29.7399   38.0483 H   0  0  0  0  0  0  0  0  0  0  0  0
   44.4852   32.8741   40.2090 H   0  0  0  0  0  0  0  0  0  0  0  0
   42.8438   35.9669   40.4505 H   0  0  0  0  0  0  0  0  0  0  0  0
   40.7545   36.3909   39.2813 H   0  0  0  0  0  0  0  0  0  0  0  0
   40.8490   34.7002   37.2868 H   0  0  0  0  0  0  0  0  0  0  0  0
   39.9046   34.0028   38.5785 H   0  0  0  0  0  0  0  0  0  0  0  0
  1  2  1  0
  1  6  1  0
  2  3  1  0
  3  4  1  0
  5  4  1  0
  6  5  1  0
  7 12  2  0
  7  8  1  0
  8  9  2  0
  9 10  1  0
  9  1  1  0
 11 10  2  0
 12 11  1  0
 13  6  1  0
 13 14  1  0
 15 19  1  0
 15 16  1  0
 15 13  1  0
 15 14  1  1
 17 16  2  0
 18 19  1  0
 18 17  1  0
  2 20  1  0
  2 21  1  0
  3 22  1  0
  3 23  1  0
  4 24  1  0
  5 25  1  0
  5 26  1  0
  6 27  1  1
  7 28  1  0
  8 29  1  0
 11 30  1  0
 13 31  1  0
 16 32  1  0
 17 33  1  0
 18 34  1  0
 18 35  1  0
M  ISO  8  20  13  21  13  22  13  23  13  24   5  25  13  26  13  27  13
M  ISO  8  28  14  29  14  30  14  31  13  32  13  33  13  34  13  35  13
M  END
>  <minimizedAffinity>  (1) 
-4.06509447

>  <minimizedRMSD>  (1) 
6.73177719

$$$$
