
     RDKit          3D

 26 27  0  0  1  0  0  0  0  0999 V2000
   45.9580   32.7220   48.0560 C   0  0  2  0  0  0  0  0  0  0  0  0
   46.4280   32.0380   46.8010 C   0  0  1  0  0  0  0  0  0  0  0  0
   45.4880   30.9640   46.6480 O   0  0  0  0  0  0  0  0  0  0  0  0
   45.6610   30.3860   47.9370 C   0  0  0  0  0  0  0  0  0  0  0  0
   45.2670   31.5750   48.8030 C   0  0  2  0  0  0  0  0  0  0  0  0
   45.4280   34.7290   44.5310 C   0  0  0  0  0  0  0  0  0  0  0  0
   46.3250   34.6000   43.4580 C   0  0  0  0  0  0  0  0  0  0  0  0
   47.2880   33.5640   43.5080 C   0  0  0  0  0  0  0  0  0  0  0  0
   47.3130   32.7370   44.5830 N   0  0  0  0  0  0  0  0  0  0  0  0
   46.4190   32.8970   45.6120 C   0  0  0  0  0  0  0  0  0  0  0  0
   45.4910   33.8770   45.5860 N   0  0  0  0  0  0  0  0  0  0  0  0
   44.3860   35.7890   44.5600 C   0  0  0  0  0  0  0  0  0  0  0  0
   45.0030   33.7250   47.7360 O   0  0  0  0  0  0  0  0  0  0  0  0
   43.8870   31.7150   48.7070 O   0  0  0  0  0  0  0  0  0  0  0  0
   46.7613   33.2148   48.6233 H   0  0  0  0  0  0  0  0  0  0  0  0
   47.4781   31.7230   46.8906 H   0  0  0  0  0  0  0  0  0  0  0  0
   44.9936   29.5258   48.0935 H   0  0  0  0  0  0  0  0  0  0  0  0
   46.6622   29.9753   48.1345 H   0  0  0  0  0  0  0  0  0  0  0  0
   45.5350   31.5107   49.8679 H   0  0  0  0  0  0  0  0  0  0  0  0
   46.2802   35.2870   42.6001 H   0  0  0  0  0  0  0  0  0  0  0  0
   48.0067   33.4312   42.6859 H   0  0  0  0  0  0  0  0  0  0  0  0
   44.1432   36.0360   45.6040 H   0  0  0  0  0  0  0  0  0  0  0  0
   44.7624   36.6873   44.0487 H   0  0  0  0  0  0  0  0  0  0  0  0
   43.4814   35.4280   44.0487 H   0  0  0  0  0  0  0  0  0  0  0  0
   44.6364   34.1100   48.5711 H   0  0  0  0  0  0  0  0  0  0  0  0
   43.4954   31.7547   49.6154 H   0  0  0  0  0  0  0  0  0  0  0  0
  1  5  1  0
  2  1  1  0
  3  2  1  0
  3  4  1  0
  4  5  1  0
  6 12  1  0
  6 11  2  0
  7  8  2  0
  7  6  1  0
  8  9  1  0
  9 10  2  0
 10  2  1  0
 11 10  1  0
 13  1  1  0
 14  5  1  0
  1 15  1  1
  2 16  1  1
  4 17  1  0
  4 18  1  0
  5 19  1  1
  7 20  1  0
  8 21  1  0
 12 22  1  0
 12 23  1  0
 12 24  1  0
 13 25  1  0
 14 26  1  0
M  ISO  8  15  13  16  13  17  13  18  13  19  13  20  14  21  14  22   8
M  ISO  4  23   8  24   8  25   3  26   3
M  END
>  <minimizedAffinity>  (1) 
-4.91161108

>  <minimizedRMSD>  (1) 
1.31303525

$$$$
