
     RDKit          3D

 27 28  0  0  1  0  0  0  0  0999 V2000
   46.3180   33.0520   46.6580 C   0  0  2  0  0  0  0  0  0  0  0  0
   46.6860   32.4790   45.3160 C   0  0  1  0  0  0  0  0  0  0  0  0
   45.9400   31.2550   45.2710 O   0  0  0  0  0  0  0  0  0  0  0  0
   46.4230   30.7000   46.4880 C   0  0  0  0  0  0  0  0  0  0  0  0
   45.9870   31.7890   47.4570 C   0  0  2  0  0  0  0  0  0  0  0  0
   44.6240   34.0720   42.7500 C   0  0  0  0  0  0  0  0  0  0  0  0
   45.5210   34.9290   42.0940 C   0  0  0  0  0  0  0  0  0  0  0  0
   46.8690   34.9580   42.5340 C   0  0  0  0  0  0  0  0  0  0  0  0
   47.2390   34.1610   43.5680 N   0  0  0  0  0  0  0  0  0  0  0  0
   46.3310   33.3370   44.1820 C   0  0  0  0  0  0  0  0  0  0  0  0
   45.0470   33.2930   43.7810 N   0  0  0  0  0  0  0  0  0  0  0  0
   42.6470   33.2870   41.2880 C   0  0  0  0  0  0  0  0  0  0  0  0
   43.1310   32.3800   40.5570 O   0  0  0  0  0  0  0  0  0  0  0  0
   43.2780   34.0690   42.2810 N   0  0  0  0  0  0  0  0  0  0  0  0
   45.1620   33.8690   46.5430 O   0  0  0  0  0  0  0  0  0  0  0  0
   44.6010   31.6810   47.5950 O   0  0  0  0  0  0  0  0  0  0  0  0
   47.1010   33.6805   47.1073 H   0  0  0  0  0  0  0  0  0  0  0  0
   47.7752   32.3571   45.2223 H   0  0  0  0  0  0  0  0  0  0  0  0
   45.9468   29.7348   46.7154 H   0  0  0  0  0  0  0  0  0  0  0  0
   47.4982   30.4679   46.5004 H   0  0  0  0  0  0  0  0  0  0  0  0
   46.4478   31.7588   48.4554 H   0  0  0  0  0  0  0  0  0  0  0  0
   45.1869   35.5626   41.2592 H   0  0  0  0  0  0  0  0  0  0  0  0
   47.6026   35.6158   42.0450 H   0  0  0  0  0  0  0  0  0  0  0  0
   41.5795   33.4997   41.1293 H   0  0  0  0  0  0  0  0  0  0  0  0
   42.6616   34.7520   42.7441 H   0  0  0  0  0  0  0  0  0  0  0  0
   44.8317   34.1025   47.4466 H   0  0  0  0  0  0  0  0  0  0  0  0
   44.3655   31.6627   48.5564 H   0  0  0  0  0  0  0  0  0  0  0  0
  1  5  1  0
  2  1  1  0
  3  2  1  0
  3  4  1  0
  4  5  1  0
  5 16  1  0
  6 11  2  0
  7  8  2  0
  7  6  1  0
  8  9  1  0
  9 10  2  0
 10  2  1  0
 11 10  1  0
 12 14  1  0
 13 12  2  0
 14  6  1  0
 15  1  1  0
  1 17  1  1
  2 18  1  1
  4 19  1  0
  4 20  1  0
  5 21  1  1
  7 22  1  0
  8 23  1  0
 12 24  1  0
 14 25  1  0
 15 26  1  0
 16 27  1  0
M  ISO  8  17  13  18  13  19  13  20  13  21  13  22  14  23  14  24   6
M  ISO  2  26   3  27   3
M  END
>  <minimizedAffinity>  (1) 
-4.89768028

>  <minimizedRMSD>  (1) 
2.43176365

$$$$
