
     RDKit          3D

 47 50  0  0  0  0  0  0  0  0999 V2000
   45.4150   27.9180   47.7010 C   0  0  0  0  0  0  0  0  0  0  0  0
   44.4260   27.3390   47.0760 C   0  0  0  0  0  0  0  0  0  0  0  0
   45.6340   31.5320   47.0800 C   0  0  0  0  0  0  0  0  0  0  0  0
   45.3900   31.9990   48.3800 C   0  0  0  0  0  0  0  0  0  0  0  0
   45.1540   31.1700   49.4640 C   0  0  0  0  0  0  0  0  0  0  0  0
   45.1660   29.8200   49.2240 C   0  0  0  0  0  0  0  0  0  0  0  0
   45.4080   29.3520   47.9360 C   0  0  0  0  0  0  0  0  0  0  0  0
   45.6290   30.2040   46.9310 N   0  0  0  0  0  0  0  0  0  0  0  0
   44.7780   36.5620   43.8570 C   0  0  0  0  0  0  0  0  0  0  0  0
   45.6570   36.2770   42.8150 C   0  0  0  0  0  0  0  0  0  0  0  0
   46.2970   35.0380   42.8370 C   0  0  0  0  0  0  0  0  0  0  0  0
   46.0670   34.1480   43.8450 N   0  0  0  0  0  0  0  0  0  0  0  0
   45.1880   34.4930   44.8420 C   0  0  0  0  0  0  0  0  0  0  0  0
   44.5520   35.6940   44.8440 N   0  0  0  0  0  0  0  0  0  0  0  0
   45.8710   32.4870   46.0090 C   0  0  0  0  0  0  0  0  0  0  0  0
   46.8660   32.3030   45.2600 O   0  0  0  0  0  0  0  0  0  0  0  0
   44.9470   33.5660   45.8930 N   0  0  0  0  0  0  0  0  0  0  0  0
   44.3000   25.8860   46.7670 C   0  0  0  0  0  0  0  0  0  0  0  0
   44.0950   23.1960   45.6010 Cl  0  0  0  0  0  0  0  0  0  0  0  0
   42.7410   24.2730   45.8360 C   0  0  0  0  0  0  0  0  0  0  0  0
   42.9040   25.5250   46.3920 C   0  0  0  0  0  0  0  0  0  0  0  0
   41.8260   26.3880   46.5880 C   0  0  0  0  0  0  0  0  0  0  0  0
   40.5620   25.9650   46.2080 C   0  0  0  0  0  0  0  0  0  0  0  0
   40.4050   24.7250   45.6580 C   0  0  0  0  0  0  0  0  0  0  0  0
   41.4910   23.8530   45.4600 C   0  0  0  0  0  0  0  0  0  0  0  0
   41.1560   22.5750   44.8640 C   0  0  0  0  0  0  0  0  0  0  0  0
   40.9780   21.2990   45.3390 C   0  0  0  0  0  0  0  0  0  0  0  0
   40.6670   20.4020   44.3960 N   0  0  0  0  0  0  0  0  0  0  0  0
   40.6400   21.1200   43.2610 C   0  0  0  0  0  0  0  0  0  0  0  0
   40.9290   22.3970   43.5500 N   0  0  0  0  0  0  0  0  0  0  0  0
   46.2635   27.3134   48.0539 H   0  0  0  0  0  0  0  0  0  0  0  0
   43.6027   27.9885   46.7439 H   0  0  0  0  0  0  0  0  0  0  0  0
   45.3859   33.0861   48.5481 H   0  0  0  0  0  0  0  0  0  0  0  0
   44.9660   31.5751   50.4693 H   0  0  0  0  0  0  0  0  0  0  0  0
   44.9853   29.1108   50.0452 H   0  0  0  0  0  0  0  0  0  0  0  0
   44.2556   37.5300   43.8662 H   0  0  0  0  0  0  0  0  0  0  0  0
   45.8393   37.0004   42.0067 H   0  0  0  0  0  0  0  0  0  0  0  0
   46.9970   34.7748   42.0303 H   0  0  0  0  0  0  0  0  0  0  0  0
   44.1484   33.6687   46.5353 H   0  0  0  0  0  0  0  0  0  0  0  0
   44.9698   25.6395   45.9300 H   0  0  0  0  0  0  0  0  0  0  0  0
   44.5726   25.3173   47.6683 H   0  0  0  0  0  0  0  0  0  0  0  0
   41.9756   27.3822   47.0342 H   0  0  0  0  0  0  0  0  0  0  0  0
   39.6919   26.6232   46.3484 H   0  0  0  0  0  0  0  0  0  0  0  0
   39.3978   24.3977   45.3605 H   0  0  0  0  0  0  0  0  0  0  0  0
   41.0820   21.0370   46.4023 H   0  0  0  0  0  0  0  0  0  0  0  0
   40.4894   19.3942   44.5133 H   0  0  0  0  0  0  0  0  0  0  0  0
   40.4173   20.7251   42.2588 H   0  0  0  0  0  0  0  0  0  0  0  0
  1  7  1  0
  2  1  2  0
  3  4  2  0
  4  5  1  0
  6  5  2  0
  7  6  1  0
  8  3  1  0
  8  7  2  0
  9 14  2  0
 10 11  2  0
 10  9  1  0
 11 12  1  0
 12 13  2  0
 13 14  1  0
 13 17  1  0
 15  3  1  0
 16 15  2  0
 17 15  1  0
 18  2  1  0
 19 20  1  0
 20 21  2  0
 21 22  1  0
 21 18  1  0
 23 22  2  0
 24 23  1  0
 25 24  2  0
 25 20  1  0
 26 27  2  0
 26 25  1  0
 28 27  1  0
 29 30  2  0
 29 28  1  0
 30 26  1  0
  1 31  1  0
  2 32  1  0
  4 33  1  0
  5 34  1  0
  6 35  1  0
  9 36  1  0
 10 37  1  0
 11 38  1  0
 17 39  1  0
 18 40  1  0
 18 41  1  0
 22 42  1  0
 23 43  1  0
 24 44  1  0
 27 45  1  0
 28 46  1  0
 29 47  1  0
M  ISO  8  33  14  34  14  35  14  36  14  37  14  38  14  40   8  41   8
M  ISO  6  42  14  43  14  44  14  45  14  46   9  47  14
M  END
>  <minimizedAffinity>  (1) 
-6.17210913

>  <minimizedRMSD>  (1) 
1.30461574

$$$$
