
     RDKit          3D

 30 32  0  0  1  0  0  0  0  0999 V2000
   47.4650   32.1000   44.7130 C   0  0  2  0  0  0  0  0  0  0  0  0
   46.3490   32.4190   43.7780 C   0  0  1  0  0  0  0  0  0  0  0  0
   45.3510   31.4120   44.0800 O   0  0  0  0  0  0  0  0  0  0  0  0
   46.2060   30.2820   43.8900 C   0  0  0  0  0  0  0  0  0  0  0  0
   47.2690   30.5850   44.9290 C   0  0  2  0  0  0  0  0  0  0  0  0
   44.6760   35.2290   45.4260 C   0  0  0  0  0  0  0  0  0  0  0  0
   44.7000   36.2400   44.4560 C   0  0  0  0  0  0  0  0  0  0  0  0
   45.3000   35.9570   43.1890 C   0  0  0  0  0  0  0  0  0  0  0  0
   45.8220   34.7120   42.9860 N   0  0  0  0  0  0  0  0  0  0  0  0
   45.7780   33.7600   43.9520 C   0  0  0  0  0  0  0  0  0  0  0  0
   45.2160   34.0080   45.1540 N   0  0  0  0  0  0  0  0  0  0  0  0
   44.1060   35.4480   46.6750 O   0  0  0  0  0  0  0  0  0  0  0  0
   47.2820   32.7770   45.9480 O   0  0  0  0  0  0  0  0  0  0  0  0
   46.7050   30.3550   46.1720 O   0  0  0  0  0  0  0  0  0  0  0  0
   47.3740   30.4840   47.3830 C   0  0  0  0  0  0  0  0  0  0  0  0
   48.6210   30.3930   47.9040 N   0  0  0  0  0  0  0  0  0  0  0  0
   48.5440   30.6580   49.2330 C   0  0  0  0  0  0  0  0  0  0  0  0
   47.2570   30.9110   49.5250 N   0  0  0  0  0  0  0  0  0  0  0  0
   46.5540   30.8070   48.4160 N   0  0  0  0  0  0  0  0  0  0  0  0
   48.4573   32.3877   44.3354 H   0  0  0  0  0  0  0  0  0  0  0  0
   46.7073   32.4137   42.7380 H   0  0  0  0  0  0  0  0  0  0  0  0
   45.6862   29.3357   44.1005 H   0  0  0  0  0  0  0  0  0  0  0  0
   46.5818   30.1501   42.8646 H   0  0  0  0  0  0  0  0  0  0  0  0
   48.1987   30.0012   44.8598 H   0  0  0  0  0  0  0  0  0  0  0  0
   44.2669   37.2294   44.6645 H   0  0  0  0  0  0  0  0  0  0  0  0
   45.3398   36.7218   42.3994 H   0  0  0  0  0  0  0  0  0  0  0  0
   44.0973   34.7230   47.3491 H   0  0  0  0  0  0  0  0  0  0  0  0
   47.4513   32.1508   46.6959 H   0  0  0  0  0  0  0  0  0  0  0  0
   49.3840   30.6645   49.9432 H   0  0  0  0  0  0  0  0  0  0  0  0
   46.8843   31.1459   50.4560 H   0  0  0  0  0  0  0  0  0  0  0  0
  1  5  1  0
  1 13  1  0
  2 10  1  0
  2  3  1  0
  2  1  1  0
  4  3  1  0
  4  5  1  0
  5 14  1  0
  6 12  1  0
  7  6  2  0
  8  7  1  0
  9  8  2  0
  9 10  1  0
 10 11  2  0
 11  6  1  0
 14 15  1  0
 15 16  1  0
 15 19  2  0
 16 17  2  0
 17 18  1  0
 19 18  1  0
  1 20  1  6
  2 21  1  6
  4 22  1  0
  4 23  1  0
  5 24  1  6
  7 25  1  0
  8 26  1  0
 12 27  1  0
 13 28  1  0
 17 29  1  0
 18 30  1  0
M  ISO  8  20  13  21  13  22  13  23  13  24  13  25  14  26  14  27   3
M  ISO  3  28   3  29  14  30   9
M  END
>  <minimizedAffinity>  (1) 
-5.53650761

>  <minimizedRMSD>  (1) 
3.75127578

$$$$
