
     RDKit          3D

 53 56  0  0  0  0  0  0  0  0999 V2000
   45.6590   31.5750   47.0620 C   0  0  0  0  0  0  0  0  0  0  0  0
   45.4140   32.0360   48.3590 C   0  0  0  0  0  0  0  0  0  0  0  0
   45.1830   31.1990   49.4330 C   0  0  0  0  0  0  0  0  0  0  0  0
   45.1980   29.8500   49.1980 C   0  0  0  0  0  0  0  0  0  0  0  0
   45.4420   29.3870   47.9100 C   0  0  0  0  0  0  0  0  0  0  0  0
   45.6580   30.2450   46.9140 N   0  0  0  0  0  0  0  0  0  0  0  0
   44.7590   36.6140   43.8550 C   0  0  0  0  0  0  0  0  0  0  0  0
   45.6440   36.3340   42.8150 C   0  0  0  0  0  0  0  0  0  0  0  0
   46.2960   35.1000   42.8340 C   0  0  0  0  0  0  0  0  0  0  0  0
   46.0630   34.2160   43.8410 N   0  0  0  0  0  0  0  0  0  0  0  0
   45.1820   34.5410   44.8400 C   0  0  0  0  0  0  0  0  0  0  0  0
   44.5420   35.7370   44.8310 N   0  0  0  0  0  0  0  0  0  0  0  0
   45.8910   32.5350   45.9940 C   0  0  0  0  0  0  0  0  0  0  0  0
   46.8810   32.3660   45.2500 O   0  0  0  0  0  0  0  0  0  0  0  0
   44.9500   33.6080   45.8830 N   0  0  0  0  0  0  0  0  0  0  0  0
   45.4580   27.9540   47.6650 C   0  0  0  0  0  0  0  0  0  0  0  0
   44.6110   27.1700   48.2760 C   0  0  0  0  0  0  0  0  0  0  0  0
   44.5000   25.6800   48.1330 C   0  0  0  0  0  0  0  0  0  0  0  0
   45.0010   23.1490   46.7190 Cl  0  0  0  0  0  0  0  0  0  0  0  0
   43.5650   24.1360   46.5100 C   0  0  0  0  0  0  0  0  0  0  0  0
   43.3940   25.3130   47.2180 C   0  0  0  0  0  0  0  0  0  0  0  0
   42.2580   26.0870   47.0690 C   0  0  0  0  0  0  0  0  0  0  0  0
   41.2710   25.6470   46.1720 C   0  0  0  0  0  0  0  0  0  0  0  0
   41.4580   24.4790   45.4790 C   0  0  0  0  0  0  0  0  0  0  0  0
   42.6150   23.6850   45.6280 C   0  0  0  0  0  0  0  0  0  0  0  0
   42.6370   22.4970   44.8270 C   0  0  0  0  0  0  0  0  0  0  0  0
   41.7390   22.5520   43.5820 C   0  0  0  0  0  0  0  0  0  0  0  0
   42.1170   21.2040   42.9550 C   0  0  0  0  0  0  0  0  0  0  0  0
   42.5570   20.3150   44.1220 C   0  0  0  0  0  0  0  0  0  0  0  0
   42.2480   21.1810   45.3730 C   0  0  0  0  0  0  0  0  0  0  0  0
   45.4047   33.1221   48.5331 H   0  0  0  0  0  0  0  0  0  0  0  0
   44.9941   31.6009   50.4394 H   0  0  0  0  0  0  0  0  0  0  0  0
   45.0190   29.1405   50.0193 H   0  0  0  0  0  0  0  0  0  0  0  0
   44.2302   37.5784   43.8687 H   0  0  0  0  0  0  0  0  0  0  0  0
   45.8222   37.0599   42.0079 H   0  0  0  0  0  0  0  0  0  0  0  0
   47.0016   34.8413   42.0308 H   0  0  0  0  0  0  0  0  0  0  0  0
   44.1492   33.6976   46.5246 H   0  0  0  0  0  0  0  0  0  0  0  0
   46.1878   27.5277   46.9609 H   0  0  0  0  0  0  0  0  0  0  0  0
   43.9049   27.6521   48.9680 H   0  0  0  0  0  0  0  0  0  0  0  0
   45.4450   25.2863   47.7304 H   0  0  0  0  0  0  0  0  0  0  0  0
   44.2921   25.2485   49.1232 H   0  0  0  0  0  0  0  0  0  0  0  0
   42.1310   27.0206   47.6367 H   0  0  0  0  0  0  0  0  0  0  0  0
   40.3535   26.2360   46.0264 H   0  0  0  0  0  0  0  0  0  0  0  0
   40.6760   24.1480   44.7798 H   0  0  0  0  0  0  0  0  0  0  0  0
   43.7264   22.5301   44.6779 H   0  0  0  0  0  0  0  0  0  0  0  0
   40.6719   22.6001   43.8447 H   0  0  0  0  0  0  0  0  0  0  0  0
   41.8793   23.4308   42.9355 H   0  0  0  0  0  0  0  0  0  0  0  0
   41.2498   20.7626   42.4420 H   0  0  0  0  0  0  0  0  0  0  0  0
   42.9136   21.3137   42.2044 H   0  0  0  0  0  0  0  0  0  0  0  0
   41.9819   19.3775   44.1408 H   0  0  0  0  0  0  0  0  0  0  0  0
   43.6135   20.0156   44.0582 H   0  0  0  0  0  0  0  0  0  0  0  0
   42.8623   20.8931   46.2389 H   0  0  0  0  0  0  0  0  0  0  0  0
   41.2221   21.1091   45.7632 H   0  0  0  0  0  0  0  0  0  0  0  0
  1  2  2  0
  2  3  1  0
  4  3  2  0
  5  4  1  0
  6  1  1  0
  6  5  2  0
  7 12  2  0
  8  9  2  0
  8  7  1  0
  9 10  1  0
 10 11  2  0
 11 15  1  0
 12 11  1  0
 13  1  1  0
 14 13  2  0
 15 13  1  0
 16  5  1  0
 16 17  2  0
 18 17  1  0
 20 19  1  0
 20 21  2  0
 21 18  1  0
 22 21  1  0
 23 22  2  0
 24 25  2  0
 24 23  1  0
 25 20  1  0
 26 30  1  0
 26 25  1  0
 27 26  1  0
 28 27  1  0
 28 29  1  0
 29 30  1  0
  2 31  1  0
  3 32  1  0
  4 33  1  0
  7 34  1  0
  8 35  1  0
  9 36  1  0
 15 37  1  0
 16 38  1  0
 17 39  1  0
 18 40  1  0
 18 41  1  0
 22 42  1  0
 23 43  1  0
 24 44  1  0
 26 45  1  0
 27 46  1  0
 27 47  1  0
 28 48  1  0
 28 49  1  0
 29 50  1  0
 29 51  1  0
 30 52  1  0
 30 53  1  0
M  ISO  8  31  14  32  14  33  14  34  14  35  14  36  14  40   8  41   8
M  ISO  8  42  14  43  14  44  14  45  13  46  13  47  13  48  13  49  13
M  ISO  4  50  13  51  13  52  13  53  13
M  END
>  <minimizedAffinity>  (1) 
-6.14307737

>  <minimizedRMSD>  (1) 
0.836564124

$$$$
