
     RDKit          3D

 26 27  0  0  0  0  0  0  0  0999 V2000
   44.6150   33.1580   41.1480 Br  0  0  0  0  0  0  0  0  0  0  0  0
   46.3190   34.0180   40.9210 C   0  0  0  0  0  0  0  0  0  0  0  0
   46.8520   34.7600   41.9430 C   0  0  0  0  0  0  0  0  0  0  0  0
   48.0870   35.3930   41.7900 C   0  0  0  0  0  0  0  0  0  0  0  0
   48.7540   35.2590   40.6120 C   0  0  0  0  0  0  0  0  0  0  0  0
   48.1770   34.5000   39.6130 C   0  0  0  0  0  0  0  0  0  0  0  0
   46.9700   33.8670   39.7210 C   0  0  0  0  0  0  0  0  0  0  0  0
   45.6060   34.0500   45.3110 C   0  0  0  0  0  0  0  0  0  0  0  0
   44.7030   35.0890   45.5650 C   0  0  0  0  0  0  0  0  0  0  0  0
   44.5400   36.0360   44.5500 C   0  0  0  0  0  0  0  0  0  0  0  0
   45.2440   35.9040   43.4000 N   0  0  0  0  0  0  0  0  0  0  0  0
   46.1070   34.8860   43.1890 C   0  0  0  0  0  0  0  0  0  0  0  0
   46.2820   33.9560   44.1590 N   0  0  0  0  0  0  0  0  0  0  0  0
   46.3470   33.0510   38.6520 C   0  0  0  0  0  0  0  0  0  0  0  0
   46.8760   33.4220   37.2810 C   0  0  0  0  0  0  0  0  0  0  0  0
   48.5139   35.9906   42.6090 H   0  0  0  0  0  0  0  0  0  0  0  0
   49.7296   35.7436   40.4589 H   0  0  0  0  0  0  0  0  0  0  0  0
   48.7261   34.3977   38.6654 H   0  0  0  0  0  0  0  0  0  0  0  0
   45.7658   33.2843   46.0845 H   0  0  0  0  0  0  0  0  0  0  0  0
   44.1506   35.1566   46.5138 H   0  0  0  0  0  0  0  0  0  0  0  0
   43.8472   36.8799   44.6835 H   0  0  0  0  0  0  0  0  0  0  0  0
   46.5638   31.9895   38.8421 H   0  0  0  0  0  0  0  0  0  0  0  0
   45.2636   33.2412   38.6637 H   0  0  0  0  0  0  0  0  0  0  0  0
   47.7720   34.0504   37.3914 H   0  0  0  0  0  0  0  0  0  0  0  0
   47.1357   32.5071   36.7283 H   0  0  0  0  0  0  0  0  0  0  0  0
   46.1042   33.9778   36.7283 H   0  0  0  0  0  0  0  0  0  0  0  0
  2  1  1  0
  2  3  2  0
  3 12  1  0
  4  3  1  0
  5  4  2  0
  6  7  2  0
  6  5  1  0
  7  2  1  0
  8  9  2  0
 10  9  1  0
 11 10  2  0
 12 11  1  0
 12 13  2  0
 13  8  1  0
 14  7  1  0
 15 14  1  0
  4 16  1  0
  5 17  1  0
  6 18  1  0
  8 19  1  0
  9 20  1  0
 10 21  1  0
 14 22  1  0
 14 23  1  0
 15 24  1  0
 15 25  1  0
 15 26  1  0
M  ISO  8  16  14  17  14  18  14  19  14  20  14  21  14  22   8  23   8
M  ISO  3  24   8  25   8  26   8
M  END
>  <minimizedAffinity>  (1) 
-5.15230942

>  <minimizedRMSD>  (1) 
0.236537516

$$$$
