
     RDKit          3D

 40 42  0  0  1  0  0  0  0  0999 V2000
   46.4430   32.5370   46.7640 C   0  0  2  0  0  0  0  0  0  0  0  0
   47.0520   32.5580   45.4170 C   0  0  1  0  0  0  0  0  0  0  0  0
   46.7000   31.2440   44.8600 O   0  0  0  0  0  0  0  0  0  0  0  0
   47.2350   30.4800   45.9170 C   0  0  0  0  0  0  0  0  0  0  0  0
   46.3980   31.0540   47.0960 C   0  0  2  0  0  0  0  0  0  0  0  0
   44.8830   35.1940   44.1290 C   0  0  0  0  0  0  0  0  0  0  0  0
   45.5490   35.6480   42.9890 C   0  0  0  0  0  0  0  0  0  0  0  0
   46.7750   35.0340   42.6450 C   0  0  0  0  0  0  0  0  0  0  0  0
   47.2570   34.0280   43.4310 N   0  0  0  0  0  0  0  0  0  0  0  0
   46.5840   33.6160   44.5260 C   0  0  0  0  0  0  0  0  0  0  0  0
   45.4010   34.1860   44.8850 N   0  0  0  0  0  0  0  0  0  0  0  0
   43.6640   35.7610   44.5280 O   0  0  0  0  0  0  0  0  0  0  0  0
   45.0920   33.0170   46.6870 O   0  0  0  0  0  0  0  0  0  0  0  0
   45.1570   30.5360   46.9520 O   0  0  0  0  0  0  0  0  0  0  0  0
   44.9970   29.1780   46.9230 C   0  0  0  0  0  0  0  0  0  0  0  0
   44.5080   28.5880   45.6790 C   0  0  0  0  0  0  0  0  0  0  0  0
   43.4070   27.6220   46.0320 C   0  0  0  0  0  0  0  0  0  0  0  0
   43.7120   26.6430   46.9680 C   0  0  0  0  0  0  0  0  0  0  0  0
   42.7470   25.7280   47.3340 C   0  0  0  0  0  0  0  0  0  0  0  0
   41.4580   25.7520   46.7910 C   0  0  0  0  0  0  0  0  0  0  0  0
   41.2230   26.7520   45.8660 C   0  0  0  0  0  0  0  0  0  0  0  0
   42.1510   27.6900   45.4640 C   0  0  0  0  0  0  0  0  0  0  0  0
   46.9900   33.1508   47.4948 H   0  0  0  0  0  0  0  0  0  0  0  0
   48.1295   32.7615   45.5035 H   0  0  0  0  0  0  0  0  0  0  0  0
   47.0598   29.4034   45.7750 H   0  0  0  0  0  0  0  0  0  0  0  0
   48.3260   30.5487   46.0396 H   0  0  0  0  0  0  0  0  0  0  0  0
   46.7300   30.8420   48.1231 H   0  0  0  0  0  0  0  0  0  0  0  0
   45.1316   36.4604   42.3759 H   0  0  0  0  0  0  0  0  0  0  0  0
   47.3329   35.3627   41.7558 H   0  0  0  0  0  0  0  0  0  0  0  0
   43.2628   36.4951   43.9987 H   0  0  0  0  0  0  0  0  0  0  0  0
   44.7343   33.1441   47.6013 H   0  0  0  0  0  0  0  0  0  0  0  0
   45.9754   28.7251   47.1414 H   0  0  0  0  0  0  0  0  0  0  0  0
   44.2101   28.9702   47.6630 H   0  0  0  0  0  0  0  0  0  0  0  0
   45.3251   28.0553   45.1705 H   0  0  0  0  0  0  0  0  0  0  0  0
   44.1322   29.3703   45.0032 H   0  0  0  0  0  0  0  0  0  0  0  0
   44.7162   26.5974   47.4146 H   0  0  0  0  0  0  0  0  0  0  0  0
   42.9987   24.9556   48.0757 H   0  0  0  0  0  0  0  0  0  0  0  0
   40.6847   25.0251   47.0802 H   0  0  0  0  0  0  0  0  0  0  0  0
   40.2203   26.8036   45.4166 H   0  0  0  0  0  0  0  0  0  0  0  0
   41.9001   28.4611   44.7207 H   0  0  0  0  0  0  0  0  0  0  0  0
  1  5  1  0
  2  1  1  0
  3  2  1  0
  3  4  1  0
  4  5  1  0
  6 12  1  0
  6 11  2  0
  7  6  1  0
  8  7  2  0
  8  9  1  0
  9 10  2  0
 10 11  1  0
 10  2  1  0
 13  1  1  0
 14  5  1  0
 15 14  1  0
 16 17  1  0
 16 15  1  0
 17 18  2  0
 18 19  1  0
 20 19  2  0
 21 20  1  0
 22 21  2  0
 22 17  1  0
  1 23  1  1
  2 24  1  1
  4 25  1  0
  4 26  1  0
  5 27  1  1
  7 28  1  0
  8 29  1  0
 12 30  1  0
 13 31  1  0
 15 32  1  0
 15 33  1  0
 16 34  1  0
 16 35  1  0
 18 36  1  0
 19 37  1  0
 20 38  1  0
 21 39  1  0
 22 40  1  0
M  ISO  8  23  13  24  13  25  13  26  13  27  13  28  14  29  14  30   3
M  ISO  8  31   3  32   8  33   8  34   8  35   8  36  14  37  14  38  14
M  ISO  2  39  14  40  14
M  END
>  <minimizedAffinity>  (1) 
-5.8162303

>  <minimizedRMSD>  (1) 
2.48872018

$$$$
