
     RDKit          3D

 44 46  0  0  1  0  0  0  0  0999 V2000
   46.6000   32.9120   46.7430 C   0  0  2  0  0  0  0  0  0  0  0  0
   47.0360   32.7940   45.3350 C   0  0  1  0  0  0  0  0  0  0  0  0
   46.5740   31.4570   44.9420 O   0  0  0  0  0  0  0  0  0  0  0  0
   47.1980   30.7600   45.9950 C   0  0  0  0  0  0  0  0  0  0  0  0
   46.5390   31.4600   47.2040 C   0  0  2  0  0  0  0  0  0  0  0  0
   44.7140   35.2410   43.9640 C   0  0  0  0  0  0  0  0  0  0  0  0
   45.3530   35.7070   42.8130 C   0  0  0  0  0  0  0  0  0  0  0  0
   46.6180   35.1630   42.4930 C   0  0  0  0  0  0  0  0  0  0  0  0
   47.1610   34.2180   43.3050 N   0  0  0  0  0  0  0  0  0  0  0  0
   46.5100   33.7900   44.4130 C   0  0  0  0  0  0  0  0  0  0  0  0
   45.2920   34.2920   44.7520 N   0  0  0  0  0  0  0  0  0  0  0  0
   43.4590   35.7420   44.3390 O   0  0  0  0  0  0  0  0  0  0  0  0
   45.2660   33.4490   46.7730 O   0  0  0  0  0  0  0  0  0  0  0  0
   45.2680   31.0240   47.2880 O   0  0  0  0  0  0  0  0  0  0  0  0
   44.9930   29.7460   47.6810 C   0  0  0  0  0  0  0  0  0  0  0  0
   44.3320   28.8840   46.6240 C   0  0  0  0  0  0  0  0  0  0  0  0
   44.4830   27.4820   46.7850 N   0  0  0  0  0  0  0  0  0  0  0  0
   45.2020   27.0530   47.9340 C   0  0  0  0  0  0  0  0  0  0  0  0
   44.2950   26.3240   48.9000 C   0  0  0  0  0  0  0  0  0  0  0  0
   43.9060   25.0650   48.2410 N   0  0  0  0  0  0  0  0  0  0  0  0
   43.5400   25.2630   46.8660 C   0  0  0  0  0  0  0  0  0  0  0  0
   43.2950   26.7180   46.5130 C   0  0  0  0  0  0  0  0  0  0  0  0
   47.2534   33.5520   47.3541 H   0  0  0  0  0  0  0  0  0  0  0  0
   48.1222   32.9580   45.2778 H   0  0  0  0  0  0  0  0  0  0  0  0
   46.9652   29.6853   45.9682 H   0  0  0  0  0  0  0  0  0  0  0  0
   48.2975   30.7895   45.9840 H   0  0  0  0  0  0  0  0  0  0  0  0
   46.9988   31.2911   48.1889 H   0  0  0  0  0  0  0  0  0  0  0  0
   44.8869   36.4729   42.1757 H   0  0  0  0  0  0  0  0  0  0  0  0
   47.1574   35.5011   41.5959 H   0  0  0  0  0  0  0  0  0  0  0  0
   43.0158   36.4323   43.7848 H   0  0  0  0  0  0  0  0  0  0  0  0
   44.9780   33.5649   47.7131 H   0  0  0  0  0  0  0  0  0  0  0  0
   45.9393   29.2661   47.9711 H   0  0  0  0  0  0  0  0  0  0  0  0
   44.2742   29.8250   48.5099 H   0  0  0  0  0  0  0  0  0  0  0  0
   44.7595   29.1594   45.6486 H   0  0  0  0  0  0  0  0  0  0  0  0
   43.2531   29.0796   46.7119 H   0  0  0  0  0  0  0  0  0  0  0  0
   46.0111   26.3770   47.6204 H   0  0  0  0  0  0  0  0  0  0  0  0
   45.6140   27.9383   48.4403 H   0  0  0  0  0  0  0  0  0  0  0  0
   44.8301   26.1125   49.8375 H   0  0  0  0  0  0  0  0  0  0  0  0
   43.4122   26.9304   49.1510 H   0  0  0  0  0  0  0  0  0  0  0  0
   44.6999   24.4101   48.2820 H   0  0  0  0  0  0  0  0  0  0  0  0
   44.3526   24.8817   46.2302 H   0  0  0  0  0  0  0  0  0  0  0  0
   42.5955   24.7243   46.6998 H   0  0  0  0  0  0  0  0  0  0  0  0
   42.4621   27.1070   47.1171 H   0  0  0  0  0  0  0  0  0  0  0  0
   43.0419   26.7996   45.4456 H   0  0  0  0  0  0  0  0  0  0  0  0
  1 13  1  0
  1  5  1  0
  2  1  1  0
  3  2  1  0
  3  4  1  0
  4  5  1  0
  5 14  1  0
  6 12  1  0
  6 11  2  0
  7  6  1  0
  8  7  2  0
  8  9  1  0
  9 10  2  0
 10 11  1  0
 10  2  1  0
 14 15  1  0
 16 17  1  0
 16 15  1  0
 17 18  1  0
 18 19  1  0
 20 19  1  0
 21 20  1  0
 22 17  1  0
 22 21  1  0
  1 23  1  1
  2 24  1  1
  4 25  1  0
  4 26  1  0
  5 27  1  1
  7 28  1  0
  8 29  1  0
 12 30  1  0
 13 31  1  0
 15 32  1  0
 15 33  1  0
 16 34  1  0
 16 35  1  0
 18 36  1  0
 18 37  1  0
 19 38  1  0
 19 39  1  0
 20 40  1  0
 21 41  1  0
 21 42  1  0
 22 43  1  0
 22 44  1  0
M  ISO  8  23  13  24  13  25  13  26  13  27  13  28  14  29  14  30   3
M  ISO  8  31   3  32   8  33   8  34   8  35   8  36  13  37  13  38  13
M  ISO  6  39  13  40   5  41  13  42  13  43  13  44  13
M  END
>  <minimizedAffinity>  (1) 
-5.54027987

>  <minimizedRMSD>  (1) 
1.46765733

$$$$
