
     RDKit          3D

 45 47  0  0  1  0  0  0  0  0999 V2000
   46.7040   32.8380   46.5740 C   0  0  2  0  0  0  0  0  0  0  0  0
   47.0830   32.7730   45.1490 C   0  0  1  0  0  0  0  0  0  0  0  0
   46.5800   31.4610   44.7130 O   0  0  0  0  0  0  0  0  0  0  0  0
   47.2230   30.6900   45.6940 C   0  0  0  0  0  0  0  0  0  0  0  0
   46.6370   31.3680   46.9660 C   0  0  2  0  0  0  0  0  0  0  0  0
   44.7050   35.2730   43.9610 C   0  0  0  0  0  0  0  0  0  0  0  0
   45.3150   35.8030   42.8260 C   0  0  0  0  0  0  0  0  0  0  0  0
   46.5820   35.2950   42.4380 C   0  0  0  0  0  0  0  0  0  0  0  0
   47.1580   34.3040   43.1930 N   0  0  0  0  0  0  0  0  0  0  0  0
   46.5270   33.8180   44.2880 C   0  0  0  0  0  0  0  0  0  0  0  0
   45.3070   34.2870   44.6850 N   0  0  0  0  0  0  0  0  0  0  0  0
   43.4630   35.7420   44.3790 O   0  0  0  0  0  0  0  0  0  0  0  0
   45.3770   33.3860   46.6870 O   0  0  0  0  0  0  0  0  0  0  0  0
   45.3480   30.9410   47.0810 O   0  0  0  0  0  0  0  0  0  0  0  0
   45.0630   30.0040   48.0500 C   0  0  0  0  0  0  0  0  0  0  0  0
   45.4840   28.5880   47.6910 C   0  0  0  0  0  0  0  0  0  0  0  0
   44.2930   27.7750   47.5520 N   0  0  0  0  0  0  0  0  0  0  0  0
   43.8530   27.7920   46.1370 C   0  0  0  0  0  0  0  0  0  0  0  0
   43.2570   26.4880   45.7100 C   0  0  0  0  0  0  0  0  0  0  0  0
   42.5520   25.7370   46.7910 C   0  0  0  0  0  0  0  0  0  0  0  0
   43.2940   25.6860   48.1030 C   0  0  0  0  0  0  0  0  0  0  0  0
   44.6260   26.3580   47.8390 C   0  0  0  0  0  0  0  0  0  0  0  0
   47.3893   33.4461   47.1828 H   0  0  0  0  0  0  0  0  0  0  0  0
   48.1692   32.9215   45.0592 H   0  0  0  0  0  0  0  0  0  0  0  0
   46.9463   29.6273   45.6293 H   0  0  0  0  0  0  0  0  0  0  0  0
   48.3212   30.6708   45.6336 H   0  0  0  0  0  0  0  0  0  0  0  0
   47.1430   31.1597   47.9202 H   0  0  0  0  0  0  0  0  0  0  0  0
   44.8254   36.5975   42.2437 H   0  0  0  0  0  0  0  0  0  0  0  0
   47.0937   35.6887   41.5474 H   0  0  0  0  0  0  0  0  0  0  0  0
   43.0068   36.4575   43.8690 H   0  0  0  0  0  0  0  0  0  0  0  0
   45.1406   33.4836   47.6434 H   0  0  0  0  0  0  0  0  0  0  0  0
   45.5834   30.2946   48.9745 H   0  0  0  0  0  0  0  0  0  0  0  0
   43.9689   29.9893   48.1632 H   0  0  0  0  0  0  0  0  0  0  0  0
   46.0406   28.5958   46.7423 H   0  0  0  0  0  0  0  0  0  0  0  0
   46.1312   28.1762   48.4793 H   0  0  0  0  0  0  0  0  0  0  0  0
   43.0993   28.5832   46.0108 H   0  0  0  0  0  0  0  0  0  0  0  0
   44.7393   27.9766   45.5121 H   0  0  0  0  0  0  0  0  0  0  0  0
   42.5339   26.6894   44.9059 H   0  0  0  0  0  0  0  0  0  0  0  0
   44.0970   25.8540   45.3901 H   0  0  0  0  0  0  0  0  0  0  0  0
   41.5785   26.2186   46.9653 H   0  0  0  0  0  0  0  0  0  0  0  0
   42.4613   24.6977   46.4421 H   0  0  0  0  0  0  0  0  0  0  0  0
   42.7371   26.2282   48.8813 H   0  0  0  0  0  0  0  0  0  0  0  0
   43.4208   24.6537   48.4611 H   0  0  0  0  0  0  0  0  0  0  0  0
   45.1271   25.8964   46.9754 H   0  0  0  0  0  0  0  0  0  0  0  0
   45.3134   26.2605   48.6922 H   0  0  0  0  0  0  0  0  0  0  0  0
  1 13  1  0
  1  5  1  0
  2  1  1  0
  3  2  1  0
  3  4  1  0
  4  5  1  0
  5 14  1  0
  6 12  1  0
  6 11  2  0
  7  6  1  0
  8  7  2  0
  8  9  1  0
  9 10  2  0
 10 11  1  0
 10  2  1  0
 14 15  1  0
 16 15  1  0
 17 16  1  0
 17 22  1  0
 18 17  1  0
 19 18  1  0
 19 20  1  0
 20 21  1  0
 22 21  1  0
  1 23  1  1
  2 24  1  1
  4 25  1  0
  4 26  1  0
  5 27  1  1
  7 28  1  0
  8 29  1  0
 12 30  1  0
 13 31  1  0
 15 32  1  0
 15 33  1  0
 16 34  1  0
 16 35  1  0
 18 36  1  0
 18 37  1  0
 19 38  1  0
 19 39  1  0
 20 40  1  0
 20 41  1  0
 21 42  1  0
 21 43  1  0
 22 44  1  0
 22 45  1  0
M  ISO  8  23  13  24  13  25  13  26  13  27  13  28  14  29  14  30   3
M  ISO  8  31   3  32   8  33   8  34   8  35   8  36  13  37  13  38  13
M  ISO  7  39  13  40  13  41  13  42  13  43  13  44  13  45  13
M  END
>  <minimizedAffinity>  (1) 
-5.40594244

>  <minimizedRMSD>  (1) 
0.925590873

$$$$
