
     RDKit          3D

 32 33  0  0  1  0  0  0  0  0999 V2000
   46.6690   32.8560   46.6500 C   0  0  2  0  0  0  0  0  0  0  0  0
   47.0590   32.7450   45.2270 C   0  0  1  0  0  0  0  0  0  0  0  0
   46.5520   31.4250   44.8270 O   0  0  0  0  0  0  0  0  0  0  0  0
   47.2070   30.6980   45.8440 C   0  0  0  0  0  0  0  0  0  0  0  0
   46.6010   31.4010   47.0950 C   0  0  2  0  0  0  0  0  0  0  0  0
   44.7140   35.2390   43.9750 C   0  0  0  0  0  0  0  0  0  0  0  0
   45.3340   35.7390   42.8220 C   0  0  0  0  0  0  0  0  0  0  0  0
   46.5850   35.2060   42.4560 C   0  0  0  0  0  0  0  0  0  0  0  0
   47.1420   34.2240   43.2370 N   0  0  0  0  0  0  0  0  0  0  0  0
   46.5120   33.7690   44.3410 C   0  0  0  0  0  0  0  0  0  0  0  0
   45.3010   34.2650   44.7190 N   0  0  0  0  0  0  0  0  0  0  0  0
   43.4710   35.7360   44.3850 O   0  0  0  0  0  0  0  0  0  0  0  0
   45.3480   33.4130   46.7390 O   0  0  0  0  0  0  0  0  0  0  0  0
   45.3280   30.9560   47.1850 O   0  0  0  0  0  0  0  0  0  0  0  0
   45.0070   29.9880   48.0980 C   0  0  0  0  0  0  0  0  0  0  0  0
   45.0070   28.5970   47.6150 C   0  0  0  0  0  0  0  0  0  0  0  0
   44.9570   27.7050   48.7810 N   0  0  0  0  0  0  0  0  0  0  0  0
   47.3522   33.4824   47.2423 H   0  0  0  0  0  0  0  0  0  0  0  0
   48.1468   32.8801   45.1353 H   0  0  0  0  0  0  0  0  0  0  0  0
   46.9535   29.6281   45.8117 H   0  0  0  0  0  0  0  0  0  0  0  0
   48.3057   30.7043   45.7901 H   0  0  0  0  0  0  0  0  0  0  0  0
   47.0827   31.2354   48.0700 H   0  0  0  0  0  0  0  0  0  0  0  0
   44.8567   36.5260   42.2196 H   0  0  0  0  0  0  0  0  0  0  0  0
   47.1072   35.5705   41.5591 H   0  0  0  0  0  0  0  0  0  0  0  0
   43.0238   36.4457   43.8592 H   0  0  0  0  0  0  0  0  0  0  0  0
   45.0978   33.5185   47.6910 H   0  0  0  0  0  0  0  0  0  0  0  0
   45.7317   30.0544   48.9228 H   0  0  0  0  0  0  0  0  0  0  0  0
   43.9651   30.1946   48.3839 H   0  0  0  0  0  0  0  0  0  0  0  0
   44.1279   28.4247   46.9767 H   0  0  0  0  0  0  0  0  0  0  0  0
   45.9144   28.4001   47.0253 H   0  0  0  0  0  0  0  0  0  0  0  0
   44.9885   28.2661   49.6442 H   0  0  0  0  0  0  0  0  0  0  0  0
   44.0841   27.1588   48.7582 H   0  0  0  0  0  0  0  0  0  0  0  0
  1 13  1  0
  1  5  1  0
  2  1  1  0
  3  2  1  0
  3  4  1  0
  4  5  1  0
  5 14  1  0
  6 12  1  0
  6 11  2  0
  7  6  1  0
  8  7  2  0
  8  9  1  0
  9 10  2  0
 10 11  1  0
 10  2  1  0
 14 15  1  0
 16 15  1  0
 16 17  1  0
  1 18  1  1
  2 19  1  1
  4 20  1  0
  4 21  1  0
  5 22  1  1
  7 23  1  0
  8 24  1  0
 12 25  1  0
 13 26  1  0
 15 27  1  0
 15 28  1  0
 16 29  1  0
 16 30  1  0
 17 31  1  0
 17 32  1  0
M  ISO  8  18  13  19  13  20  13  21  13  22  13  23  14  24  14  25   3
M  ISO  7  26   3  27   8  28   8  29   8  30   8  31   5  32   5
M  END
>  <minimizedAffinity>  (1) 
-4.99061728

>  <minimizedRMSD>  (1) 
0.15906401

$$$$
