
     RDKit          3D

 56 59  0  0  1  0  0  0  0  0999 V2000
   45.0770   28.7220   48.8290 C   0  0  0  0  0  0  0  0  0  0  0  0
   45.3920   27.8390   47.6140 C   0  0  0  0  0  0  0  0  0  0  0  0
   43.6670   28.3680   45.9860 C   0  0  0  0  0  0  0  0  0  0  0  0
   44.1430   27.4630   46.9480 C   0  0  0  0  0  0  0  0  0  0  0  0
   43.3360   26.3630   47.1300 C   0  0  0  0  0  0  0  0  0  0  0  0
   42.1680   26.1250   46.4640 C   0  0  0  0  0  0  0  0  0  0  0  0
   41.7180   27.0350   45.5200 C   0  0  0  0  0  0  0  0  0  0  0  0
   42.4930   28.1910   45.2760 C   0  0  0  0  0  0  0  0  0  0  0  0
   44.2700   29.5460   45.5980 O   0  0  0  0  0  0  0  0  0  0  0  0
   41.9630   28.9920   44.3490 O   0  0  0  0  0  0  0  0  0  0  0  0
   41.8530   29.1230   43.0150 C   0  0  0  0  0  0  0  0  0  0  0  0
   41.8460   30.5470   42.4950 C   0  0  0  0  0  0  0  0  0  0  0  0
   40.5130   31.2240   42.6950 C   0  0  0  0  0  0  0  0  0  0  0  0
   39.6270   30.5270   41.8450 O   0  0  0  0  0  0  0  0  0  0  0  0
   39.3890   29.3210   42.4830 C   0  0  0  0  0  0  0  0  0  0  0  0
   40.5920   28.4190   42.5430 C   0  0  0  0  0  0  0  0  0  0  0  0
   45.0280   30.0220   48.5290 O   0  0  0  0  0  0  0  0  0  0  0  0
   45.7870   32.2690   48.3260 C   0  0  2  0  0  0  0  0  0  0  0  0
   46.7850   32.3250   47.2580 C   0  0  1  0  0  0  0  0  0  0  0  0
   46.9670   30.8960   46.8980 O   0  0  0  0  0  0  0  0  0  0  0  0
   47.2820   30.4380   48.1710 C   0  0  0  0  0  0  0  0  0  0  0  0
   45.9270   30.9200   48.9440 C   0  0  2  0  0  0  0  0  0  0  0  0
   45.0410   34.7380   45.1540 C   0  0  0  0  0  0  0  0  0  0  0  0
   45.6460   34.5890   43.9050 C   0  0  0  0  0  0  0  0  0  0  0  0
   46.6680   33.6370   43.7670 C   0  0  0  0  0  0  0  0  0  0  0  0
   47.0300   32.8990   44.8410 N   0  0  0  0  0  0  0  0  0  0  0  0
   46.4300   33.0570   46.0450 C   0  0  0  0  0  0  0  0  0  0  0  0
   45.4350   33.9740   46.2110 N   0  0  0  0  0  0  0  0  0  0  0  0
   44.0210   35.6690   45.3490 O   0  0  0  0  0  0  0  0  0  0  0  0
   44.4640   32.3140   47.7140 O   0  0  0  0  0  0  0  0  0  0  0  0
   44.1021   28.4196   49.2390 H   0  0  0  0  0  0  0  0  0  0  0  0
   45.8893   28.5822   49.5575 H   0  0  0  0  0  0  0  0  0  0  0  0
   46.0293   28.3958   46.9112 H   0  0  0  0  0  0  0  0  0  0  0  0
   45.9184   26.9320   47.9460 H   0  0  0  0  0  0  0  0  0  0  0  0
   43.6575   25.6162   47.8709 H   0  0  0  0  0  0  0  0  0  0  0  0
   41.5868   25.2154   46.6756 H   0  0  0  0  0  0  0  0  0  0  0  0
   40.7793   26.8612   44.9735 H   0  0  0  0  0  0  0  0  0  0  0  0
   43.8471   30.1142   44.9063 H   0  0  0  0  0  0  0  0  0  0  0  0
   42.7650   28.6644   42.6052 H   0  0  0  0  0  0  0  0  0  0  0  0
   42.0770   30.5318   41.4196 H   0  0  0  0  0  0  0  0  0  0  0  0
   42.5995   31.1149   43.0604 H   0  0  0  0  0  0  0  0  0  0  0  0
   40.1898   31.1426   43.7433 H   0  0  0  0  0  0  0  0  0  0  0  0
   40.5528   32.2988   42.4641 H   0  0  0  0  0  0  0  0  0  0  0  0
   39.0614   29.5314   43.5118 H   0  0  0  0  0  0  0  0  0  0  0  0
   38.6217   28.7939   41.8969 H   0  0  0  0  0  0  0  0  0  0  0  0
   40.3739   27.5931   43.2360 H   0  0  0  0  0  0  0  0  0  0  0  0
   40.7826   28.0645   41.5193 H   0  0  0  0  0  0  0  0  0  0  0  0
   45.9155   33.0894   49.0474 H   0  0  0  0  0  0  0  0  0  0  0  0
   47.6630   32.8713   47.6330 H   0  0  0  0  0  0  0  0  0  0  0  0
   47.4087   29.3457   48.1989 H   0  0  0  0  0  0  0  0  0  0  0  0
   48.2288   30.8082   48.5911 H   0  0  0  0  0  0  0  0  0  0  0  0
   45.8690   30.9766   50.0410 H   0  0  0  0  0  0  0  0  0  0  0  0
   45.3293   35.2032   43.0491 H   0  0  0  0  0  0  0  0  0  0  0  0
   47.1681   33.4930   42.7979 H   0  0  0  0  0  0  0  0  0  0  0  0
   43.7174   36.2357   44.5961 H   0  0  0  0  0  0  0  0  0  0  0  0
   43.7732   32.3375   48.4227 H   0  0  0  0  0  0  0  0  0  0  0  0
  2  1  1  0
  3  4  2  0
  4  5  1  0
  4  2  1  0
  6  5  2  0
  7  6  1  0
  8  7  2  0
  8  3  1  0
  9  3  1  0
 10  8  1  0
 11 10  1  0
 12 13  1  0
 12 11  1  0
 14 15  1  0
 14 13  1  0
 15 16  1  0
 16 11  1  0
 17  1  1  0
 17 22  1  0
 18 22  1  0
 19 18  1  0
 20 19  1  0
 20 21  1  0
 21 22  1  0
 23 29  1  0
 23 28  2  0
 24 23  1  0
 25 24  2  0
 25 26  1  0
 26 27  2  0
 27 28  1  0
 27 19  1  0
 30 18  1  0
  1 31  1  0
  1 32  1  0
  2 33  1  0
  2 34  1  0
  5 35  1  0
  6 36  1  0
  7 37  1  0
  9 38  1  0
 11 39  1  0
 12 40  1  0
 12 41  1  0
 13 42  1  0
 13 43  1  0
 15 44  1  0
 15 45  1  0
 16 46  1  0
 16 47  1  0
 18 48  1  1
 19 49  1  1
 21 50  1  0
 21 51  1  0
 22 52  1  1
 24 53  1  0
 25 54  1  0
 29 55  1  0
 30 56  1  0
M  ISO  8  31   8  32   8  33   8  34   8  35  14  36  14  37  14  38   3
M  ISO  8  39  13  40  13  41  13  42  13  43  13  44  13  45  13  46  13
M  ISO  8  47  13  48  13  49  13  50  13  51  13  52  13  53  14  54  14
M  ISO  2  55   3  56   3
M  END
>  <minimizedAffinity>  (1) 
-6.147686

>  <minimizedRMSD>  (1) 
1.81196594

$$$$
