
     RDKit          3D

 44 46  0  0  1  0  0  0  0  0999 V2000
   46.0170   31.4100   47.9290 C   0  0  2  0  0  0  0  0  0  0  0  0
   46.9050   31.7460   46.8170 C   0  0  1  0  0  0  0  0  0  0  0  0
   47.0230   30.4600   46.0840 O   0  0  0  0  0  0  0  0  0  0  0  0
   47.4570   29.6930   47.1590 C   0  0  0  0  0  0  0  0  0  0  0  0
   46.1980   29.9500   48.1650 C   0  0  2  0  0  0  0  0  0  0  0  0
   45.0300   34.6280   45.6020 C   0  0  0  0  0  0  0  0  0  0  0  0
   45.4800   34.7970   44.3010 C   0  0  0  0  0  0  0  0  0  0  0  0
   46.4470   33.8990   43.8060 C   0  0  0  0  0  0  0  0  0  0  0  0
   46.9000   32.9120   44.6110 N   0  0  0  0  0  0  0  0  0  0  0  0
   46.4490   32.7640   45.8750 C   0  0  0  0  0  0  0  0  0  0  0  0
   45.5100   33.6200   46.3830 N   0  0  0  0  0  0  0  0  0  0  0  0
   44.0710   35.4880   46.1450 O   0  0  0  0  0  0  0  0  0  0  0  0
   44.6420   31.6020   47.4900 O   0  0  0  0  0  0  0  0  0  0  0  0
   45.2450   29.1810   47.6320 O   0  0  0  0  0  0  0  0  0  0  0  0
   45.2540   27.8450   47.6520 C   0  0  0  0  0  0  0  0  0  0  0  0
   44.8950   27.2170   46.3010 C   0  0  0  0  0  0  0  0  0  0  0  0
   42.7520   28.1500   45.6590 C   0  0  0  0  0  0  0  0  0  0  0  0
   43.4430   27.0630   46.2120 C   0  0  0  0  0  0  0  0  0  0  0  0
   42.6310   26.0210   46.6000 C   0  0  0  0  0  0  0  0  0  0  0  0
   41.2700   26.0010   46.4790 C   0  0  0  0  0  0  0  0  0  0  0  0
   40.6100   27.0760   45.9360 C   0  0  0  0  0  0  0  0  0  0  0  0
   41.3790   28.1660   45.5220 C   0  0  0  0  0  0  0  0  0  0  0  0
   43.2940   29.3270   45.1840 O   0  0  0  0  0  0  0  0  0  0  0  0
   40.6310   29.1880   44.9910 O   0  0  0  0  0  0  0  0  0  0  0  0
   40.1540   29.0510   43.6850 C   0  0  0  0  0  0  0  0  0  0  0  0
   40.7050   30.2020   43.6590 O   0  0  0  0  0  0  0  0  0  0  0  0
   46.2295   32.0194   48.8198 H   0  0  0  0  0  0  0  0  0  0  0  0
   47.8256   32.1827   47.2315 H   0  0  0  0  0  0  0  0  0  0  0  0
   47.5650   28.6310   46.8934 H   0  0  0  0  0  0  0  0  0  0  0  0
   48.4485   29.9507   47.5597 H   0  0  0  0  0  0  0  0  0  0  0  0
   46.2562   29.7242   49.2400 H   0  0  0  0  0  0  0  0  0  0  0  0
   45.0920   35.6113   43.6714 H   0  0  0  0  0  0  0  0  0  0  0  0
   46.8278   33.9999   42.7789 H   0  0  0  0  0  0  0  0  0  0  0  0
   43.7051   36.2289   45.5997 H   0  0  0  0  0  0  0  0  0  0  0  0
   44.0517   31.6844   48.2805 H   0  0  0  0  0  0  0  0  0  0  0  0
   46.2609   27.5067   47.9379 H   0  0  0  0  0  0  0  0  0  0  0  0
   44.4889   27.5244   48.3743 H   0  0  0  0  0  0  0  0  0  0  0  0
   45.2463   27.8688   45.4875 H   0  0  0  0  0  0  0  0  0  0  0  0
   45.3769   26.2322   46.2119 H   0  0  0  0  0  0  0  0  0  0  0  0
   43.1148   25.1370   47.0411 H   0  0  0  0  0  0  0  0  0  0  0  0
   40.7018   25.1219   46.8173 H   0  0  0  0  0  0  0  0  0  0  0  0
   39.5150   27.0785   45.8309 H   0  0  0  0  0  0  0  0  0  0  0  0
   42.7035   30.0295   44.8128 H   0  0  0  0  0  0  0  0  0  0  0  0
   39.6088   28.3460   43.0402 H   0  0  0  0  0  0  0  0  0  0  0  0
  1  5  1  0
  2  1  1  0
  3  2  1  0
  3  4  1  0
  4  5  1  0
  6 12  1  0
  6 11  2  0
  7  6  1  0
  8  7  2  0
  8  9  1  0
  9 10  2  0
 10 11  1  0
 10  2  1  0
 13  1  1  0
 14 15  1  0
 14  5  1  0
 16 15  1  0
 17 18  2  0
 18 16  1  0
 18 19  1  0
 20 19  2  0
 21 20  1  0
 22 17  1  0
 22 21  2  0
 23 17  1  0
 24 22  1  0
 25 24  1  0
 26 25  2  0
  1 27  1  1
  2 28  1  1
  4 29  1  0
  4 30  1  0
  5 31  1  1
  7 32  1  0
  8 33  1  0
 12 34  1  0
 13 35  1  0
 15 36  1  0
 15 37  1  0
 16 38  1  0
 16 39  1  0
 19 40  1  0
 20 41  1  0
 21 42  1  0
 23 43  1  0
 25 44  1  0
M  ISO  8  27  13  28  13  29  13  30  13  31  13  32  14  33  14  34   3
M  ISO  8  35   3  36   8  37   8  38   8  39   8  40  14  41  14  42  14
M  ISO  2  43   3  44   6
M  END
>  <minimizedAffinity>  (1) 
-5.7125001

>  <minimizedRMSD>  (1) 
1.36795628

$$$$
