
     RDKit          3D

 33 35  0  0  1  0  0  0  0  0999 V2000
   47.2570   34.0070   42.4910 C   0  0  2  0  0  0  0  0  0  0  0  0
   48.5860   34.6400   42.6280 C   0  0  0  0  0  0  0  0  0  0  0  0
   48.8700   35.6720   41.5820 C   0  0  0  0  0  0  0  0  0  0  0  0
   48.6760   35.1570   40.1700 C   0  0  0  0  0  0  0  0  0  0  0  0
   47.4860   34.2560   40.0190 C   0  0  2  0  0  0  0  0  0  0  0  0
   46.5370   34.3750   41.1990 C   0  0  0  0  0  0  0  0  0  0  0  0
   46.3520   34.3740   43.6020 C   0  0  0  0  0  0  0  0  0  0  0  0
   45.5240   35.5070   43.3880 C   0  0  0  0  0  0  0  0  0  0  0  0
   44.6380   35.9220   44.3860 C   0  0  0  0  0  0  0  0  0  0  0  0
   44.6320   35.1770   45.5480 N   0  0  0  0  0  0  0  0  0  0  0  0
   45.4330   34.1040   45.7220 C   0  0  0  0  0  0  0  0  0  0  0  0
   46.2930   33.6970   44.7570 N   0  0  0  0  0  0  0  0  0  0  0  0
   47.8130   32.8090   39.8290 C   0  0  0  0  0  0  0  0  0  0  0  0
   47.6860   32.2800   38.4210 C   0  0  0  0  0  0  0  0  0  0  0  0
   48.9990   32.3180   39.1100 C   0  0  0  0  0  0  0  0  0  0  0  0
   47.4747   32.9288   42.4956 H   0  0  0  0  0  0  0  0  0  0  0  0
   48.6415   35.1216   43.6154 H   0  0  0  0  0  0  0  0  0  0  0  0
   49.3358   33.8442   42.5073 H   0  0  0  0  0  0  0  0  0  0  0  0
   48.1937   36.5252   41.7394 H   0  0  0  0  0  0  0  0  0  0  0  0
   49.9269   35.9596   41.6837 H   0  0  0  0  0  0  0  0  0  0  0  0
   48.5468   36.0195   39.4997 H   0  0  0  0  0  0  0  0  0  0  0  0
   49.5661   34.5618   39.9179 H   0  0  0  0  0  0  0  0  0  0  0  0
   47.0089   34.6117   39.0939 H   0  0  0  0  0  0  0  0  0  0  0  0
   46.1714   35.4101   41.2686 H   0  0  0  0  0  0  0  0  0  0  0  0
   45.6910   33.6878   41.0506 H   0  0  0  0  0  0  0  0  0  0  0  0
   45.5797   36.0579   42.4375 H   0  0  0  0  0  0  0  0  0  0  0  0
   43.9815   36.7945   44.2528 H   0  0  0  0  0  0  0  0  0  0  0  0
   45.3864   33.5471   46.6694 H   0  0  0  0  0  0  0  0  0  0  0  0
   47.4224   32.5891   40.8335 H   0  0  0  0  0  0  0  0  0  0  0  0
   47.4783   32.9681   37.5883 H   0  0  0  0  0  0  0  0  0  0  0  0
   47.0823   31.5052   37.9257 H   0  0  0  0  0  0  0  0  0  0  0  0
   49.4780   31.3790   39.4243 H   0  0  0  0  0  0  0  0  0  0  0  0
   49.9830   32.7455   38.8672 H   0  0  0  0  0  0  0  0  0  0  0  0
  1  2  1  0
  1  7  1  0
  3  2  1  0
  4  3  1  0
  5  4  1  0
  5  6  1  0
  6  1  1  0
  7 12  1  0
  8  7  2  0
  8  9  1  0
  9 10  2  0
 10 11  1  0
 12 11  2  0
 13  5  1  0
 14 15  1  0
 14 13  1  0
 15 13  1  0
  1 16  1  6
  2 17  1  0
  2 18  1  0
  3 19  1  0
  3 20  1  0
  4 21  1  0
  4 22  1  0
  5 23  1  6
  6 24  1  0
  6 25  1  0
  8 26  1  0
  9 27  1  0
 11 28  1  0
 13 29  1  0
 14 30  1  0
 14 31  1  0
 15 32  1  0
 15 33  1  0
M  ISO  8  16  13  17  13  18  13  19  13  20  13  21  13  22  13  23  13
M  ISO  8  24  13  25  13  26  14  27  14  28  14  29  13  30  13  31  13
M  ISO  2  32  13  33  13
M  END
>  <minimizedAffinity>  (1) 
-5.16991568

>  <minimizedRMSD>  (1) 
5.24489069

$$$$
