
     RDKit          3D

 46 49  0  0  0  0  0  0  0  0999 V2000
   45.6300   31.5090   47.0680 C   0  0  0  0  0  0  0  0  0  0  0  0
   45.3830   31.9760   48.3700 C   0  0  0  0  0  0  0  0  0  0  0  0
   45.1530   31.1460   49.4430 C   0  0  0  0  0  0  0  0  0  0  0  0
   45.1700   29.7940   49.2090 C   0  0  0  0  0  0  0  0  0  0  0  0
   45.4150   29.3260   47.9210 C   0  0  0  0  0  0  0  0  0  0  0  0
   45.6310   30.1800   46.9250 N   0  0  0  0  0  0  0  0  0  0  0  0
   44.7760   36.5570   43.8690 C   0  0  0  0  0  0  0  0  0  0  0  0
   45.6700   36.2660   42.8160 C   0  0  0  0  0  0  0  0  0  0  0  0
   46.3150   35.0210   42.8350 C   0  0  0  0  0  0  0  0  0  0  0  0
   46.0700   34.1380   43.8490 N   0  0  0  0  0  0  0  0  0  0  0  0
   45.1940   34.4820   44.8400 C   0  0  0  0  0  0  0  0  0  0  0  0
   44.5560   35.6850   44.8410 N   0  0  0  0  0  0  0  0  0  0  0  0
   45.8630   32.4710   46.0000 C   0  0  0  0  0  0  0  0  0  0  0  0
   46.8570   32.2780   45.2460 O   0  0  0  0  0  0  0  0  0  0  0  0
   44.9470   33.5550   45.8890 N   0  0  0  0  0  0  0  0  0  0  0  0
   45.4300   27.8950   47.6900 C   0  0  0  0  0  0  0  0  0  0  0  0
   44.4430   27.3120   47.0650 C   0  0  0  0  0  0  0  0  0  0  0  0
   44.3080   25.8550   46.7490 C   0  0  0  0  0  0  0  0  0  0  0  0
   44.0810   23.1940   45.4630 Cl  0  0  0  0  0  0  0  0  0  0  0  0
   42.7260   24.2730   45.7820 C   0  0  0  0  0  0  0  0  0  0  0  0
   42.9100   25.5070   46.3900 C   0  0  0  0  0  0  0  0  0  0  0  0
   41.8500   26.3540   46.6410 C   0  0  0  0  0  0  0  0  0  0  0  0
   40.5540   25.9540   46.2710 C   0  0  0  0  0  0  0  0  0  0  0  0
   40.3840   24.7200   45.6650 C   0  0  0  0  0  0  0  0  0  0  0  0
   41.4570   23.8730   45.4160 C   0  0  0  0  0  0  0  0  0  0  0  0
   41.2350   22.5980   44.7840 C   0  0  0  0  0  0  0  0  0  0  0  0
   41.0200   21.4350   45.4000 N   0  0  0  0  0  0  0  0  0  0  0  0
   40.8530   20.4560   44.4920 C   0  0  0  0  0  0  0  0  0  0  0  0
   40.9750   21.0800   43.3060 N   0  0  0  0  0  0  0  0  0  0  0  0
   41.2050   22.3690   43.4520 N   0  0  0  0  0  0  0  0  0  0  0  0
   45.3730   33.0627   48.5405 H   0  0  0  0  0  0  0  0  0  0  0  0
   44.9631   31.5501   50.4483 H   0  0  0  0  0  0  0  0  0  0  0  0
   44.9916   29.0862   50.0319 H   0  0  0  0  0  0  0  0  0  0  0  0
   44.2531   37.5247   43.8823 H   0  0  0  0  0  0  0  0  0  0  0  0
   45.8542   36.9904   42.0089 H   0  0  0  0  0  0  0  0  0  0  0  0
   47.0190   34.7547   42.0328 H   0  0  0  0  0  0  0  0  0  0  0  0
   44.1500   33.6617   46.5326 H   0  0  0  0  0  0  0  0  0  0  0  0
   46.2808   27.2947   48.0446 H   0  0  0  0  0  0  0  0  0  0  0  0
   43.6203   27.9630   46.7343 H   0  0  0  0  0  0  0  0  0  0  0  0
   44.9667   25.6095   45.9029 H   0  0  0  0  0  0  0  0  0  0  0  0
   44.5902   25.2788   47.6425 H   0  0  0  0  0  0  0  0  0  0  0  0
   42.0166   27.3283   47.1237 H   0  0  0  0  0  0  0  0  0  0  0  0
   39.6906   26.6091   46.4593 H   0  0  0  0  0  0  0  0  0  0  0  0
   39.3722   24.4020   45.3730 H   0  0  0  0  0  0  0  0  0  0  0  0
   40.6606   19.3889   44.6771 H   0  0  0  0  0  0  0  0  0  0  0  0
   40.8979   20.6070   42.3943 H   0  0  0  0  0  0  0  0  0  0  0  0
  1  2  2  0
  2  3  1  0
  4  3  2  0
  5  4  1  0
  6  1  1  0
  6  5  2  0
  7 12  2  0
  8  9  2  0
  8  7  1  0
  9 10  1  0
 10 11  2  0
 11 12  1  0
 11 15  1  0
 13  1  1  0
 14 13  2  0
 15 13  1  0
 16  5  1  0
 17 16  2  0
 18 17  1  0
 19 20  1  0
 20 21  2  0
 21 22  1  0
 21 18  1  0
 23 22  2  0
 24 23  1  0
 25 24  2  0
 25 20  1  0
 26 27  1  0
 26 25  1  0
 28 27  2  0
 29 30  1  0
 29 28  1  0
 30 26  2  0
  2 31  1  0
  3 32  1  0
  4 33  1  0
  7 34  1  0
  8 35  1  0
  9 36  1  0
 15 37  1  0
 16 38  1  0
 17 39  1  0
 18 40  1  0
 18 41  1  0
 22 42  1  0
 23 43  1  0
 24 44  1  0
 28 45  1  0
 29 46  1  0
M  ISO  8  31  14  32  14  33  14  34  14  35  14  36  14  40   8  41   8
M  ISO  5  42  14  43  14  44  14  45  14  46   9
M  END
>  <minimizedAffinity>  (1) 
-6.12395716

>  <minimizedRMSD>  (1) 
1.28885972

$$$$
