
     RDKit          3D

 42 44  0  0  1  0  0  0  0  0999 V2000
   48.2220   33.0050   41.0750 C   0  0  2  0  0  0  0  0  0  0  0  0
   48.3590   34.2270   40.2550 C   0  0  0  0  0  0  0  0  0  0  0  0
   48.7210   35.4450   41.0660 C   0  0  0  0  0  0  0  0  0  0  0  0
   47.6890   35.6960   42.1270 C   0  0  0  0  0  0  0  0  0  0  0  0
   47.3310   34.4510   42.9210 C   0  0  2  0  0  0  0  0  0  0  0  0
   48.2140   33.3000   42.5670 C   0  0  0  0  0  0  0  0  0  0  0  0
   49.3040   32.0290   40.8280 C   0  0  0  0  0  0  0  0  0  0  0  0
   50.5430   32.3000   41.4660 C   0  0  0  0  0  0  0  0  0  0  0  0
   51.6010   31.4160   41.2860 C   0  0  0  0  0  0  0  0  0  0  0  0
   51.3690   30.3160   40.4850 N   0  0  0  0  0  0  0  0  0  0  0  0
   50.1890   30.0910   39.8990 C   0  0  0  0  0  0  0  0  0  0  0  0
   49.1750   30.9380   40.0720 N   0  0  0  0  0  0  0  0  0  0  0  0
   45.9020   34.0700   42.7840 C   0  0  0  0  0  0  0  0  0  0  0  0
   44.9800   35.2690   42.6080 C   0  0  0  0  0  0  0  0  0  0  0  0
   45.0480   36.2250   43.7790 C   0  0  0  0  0  0  0  0  0  0  0  0
   44.4960   35.4890   44.9790 C   0  0  0  0  0  0  0  0  0  0  0  0
   45.3970   34.2970   45.2260 C   0  0  0  0  0  0  0  0  0  0  0  0
   45.3950   33.3680   44.0150 C   0  0  0  0  0  0  0  0  0  0  0  0
   47.2547   32.5797   40.7692 H   0  0  0  0  0  0  0  0  0  0  0  0
   47.4022   34.4166   39.7464 H   0  0  0  0  0  0  0  0  0  0  0  0
   49.1773   34.0531   39.5408 H   0  0  0  0  0  0  0  0  0  0  0  0
   49.6991   35.2846   41.5431 H   0  0  0  0  0  0  0  0  0  0  0  0
   48.7636   36.3176   40.3976 H   0  0  0  0  0  0  0  0  0  0  0  0
   48.0797   36.4536   42.8223 H   0  0  0  0  0  0  0  0  0  0  0  0
   46.7737   36.0338   41.6190 H   0  0  0  0  0  0  0  0  0  0  0  0
   47.4986   34.7088   43.9772 H   0  0  0  0  0  0  0  0  0  0  0  0
   47.8585   32.4063   43.1007 H   0  0  0  0  0  0  0  0  0  0  0  0
   49.2406   33.5660   42.8591 H   0  0  0  0  0  0  0  0  0  0  0  0
   50.6641   33.1956   42.0931 H   0  0  0  0  0  0  0  0  0  0  0  0
   52.5788   31.5856   41.7605 H   0  0  0  0  0  0  0  0  0  0  0  0
   50.0539   29.1995   39.2689 H   0  0  0  0  0  0  0  0  0  0  0  0
   45.8799   33.4234   41.8944 H   0  0  0  0  0  0  0  0  0  0  0  0
   45.2716   35.8079   41.6945 H   0  0  0  0  0  0  0  0  0  0  0  0
   43.9486   34.8924   42.5416 H   0  0  0  0  0  0  0  0  0  0  0  0
   46.0906   36.5226   43.9644 H   0  0  0  0  0  0  0  0  0  0  0  0
   44.4689   37.1380   43.5763 H   0  0  0  0  0  0  0  0  0  0  0  0
   44.4950   36.1495   45.8586 H   0  0  0  0  0  0  0  0  0  0  0  0
   43.4608   35.1651   44.7964 H   0  0  0  0  0  0  0  0  0  0  0  0
   46.4224   34.6499   45.4103 H   0  0  0  0  0  0  0  0  0  0  0  0
   45.0245   33.7436   46.1006 H   0  0  0  0  0  0  0  0  0  0  0  0
   44.3673   33.0212   43.8316 H   0  0  0  0  0  0  0  0  0  0  0  0
   46.0610   32.5190   44.2286 H   0  0  0  0  0  0  0  0  0  0  0  0
  1  6  1  0
  2  3  1  0
  2  1  1  0
  3  4  1  0
  4  5  1  0
  6  5  1  0
  7  1  1  0
  7  8  2  0
  9  8  1  0
 10  9  2  0
 11 12  2  0
 11 10  1  0
 12  7  1  0
 13  5  1  0
 13 18  1  0
 14 13  1  0
 14 15  1  0
 15 16  1  0
 16 17  1  0
 18 17  1  0
  1 19  1  6
  2 20  1  0
  2 21  1  0
  3 22  1  0
  3 23  1  0
  4 24  1  0
  4 25  1  0
  5 26  1  1
  6 27  1  0
  6 28  1  0
  8 29  1  0
  9 30  1  0
 11 31  1  0
 13 32  1  0
 14 33  1  0
 14 34  1  0
 15 35  1  0
 15 36  1  0
 16 37  1  0
 16 38  1  0
 17 39  1  0
 17 40  1  0
 18 41  1  0
 18 42  1  0
M  ISO  8  19  13  20  13  21  13  22  13  23  13  24  13  25  13  26  13
M  ISO  8  27  13  28  13  29  14  30  14  31  14  32  13  33  13  34  13
M  ISO  8  35  13  36  13  37  13  38  13  39  13  40  13  41  13  42  13
M  END
>  <minimizedAffinity>  (1) 
-4.97706556

>  <minimizedRMSD>  (1) 
2.60922384

$$$$
