
     RDKit          3D

 29 30  0  0  1  0  0  0  0  0999 V2000
   47.2220   33.8560   42.5760 C   0  0  2  0  0  0  0  0  0  0  0  0
   48.4660   34.6390   42.4750 C   0  0  0  0  0  0  0  0  0  0  0  0
   48.5520   35.4730   41.2270 C   0  0  0  0  0  0  0  0  0  0  0  0
   48.4060   34.6210   39.9760 C   0  0  0  0  0  0  0  0  0  0  0  0
   47.3460   33.5620   40.0970 C   0  0  1  0  0  0  0  0  0  0  0  0
   46.4410   33.8320   41.2680 C   0  0  0  0  0  0  0  0  0  0  0  0
   46.3130   34.3380   43.6350 C   0  0  0  0  0  0  0  0  0  0  0  0
   45.5610   35.4880   43.3180 C   0  0  0  0  0  0  0  0  0  0  0  0
   44.6730   36.0030   44.2630 C   0  0  0  0  0  0  0  0  0  0  0  0
   44.5930   35.3350   45.4670 N   0  0  0  0  0  0  0  0  0  0  0  0
   45.3270   34.2380   45.7370 C   0  0  0  0  0  0  0  0  0  0  0  0
   46.1890   33.7390   44.8200 N   0  0  0  0  0  0  0  0  0  0  0  0
   46.5190   33.4190   38.8560 C   0  0  0  0  0  0  0  0  0  0  0  0
   47.5640   32.8415   42.8287 H   0  0  0  0  0  0  0  0  0  0  0  0
   48.5273   35.3085   43.3457 H   0  0  0  0  0  0  0  0  0  0  0  0
   49.2980   33.9202   42.4409 H   0  0  0  0  0  0  0  0  0  0  0  0
   47.7489   36.2245   41.2433 H   0  0  0  0  0  0  0  0  0  0  0  0
   49.5400   35.9560   41.2022 H   0  0  0  0  0  0  0  0  0  0  0  0
   49.3691   34.1293   39.7743 H   0  0  0  0  0  0  0  0  0  0  0  0
   48.1035   35.2922   39.1587 H   0  0  0  0  0  0  0  0  0  0  0  0
   47.8843   32.6156   40.2536 H   0  0  0  0  0  0  0  0  0  0  0  0
   45.9509   34.8064   41.1251 H   0  0  0  0  0  0  0  0  0  0  0  0
   45.6946   33.0259   41.3236 H   0  0  0  0  0  0  0  0  0  0  0  0
   45.6731   35.9733   42.3373 H   0  0  0  0  0  0  0  0  0  0  0  0
   44.0667   36.8976   44.0579 H   0  0  0  0  0  0  0  0  0  0  0  0
   45.2248   33.7421   46.7136 H   0  0  0  0  0  0  0  0  0  0  0  0
   45.4701   33.2376   39.1333 H   0  0  0  0  0  0  0  0  0  0  0  0
   46.5868   34.3422   38.2618 H   0  0  0  0  0  0  0  0  0  0  0  0
   46.8929   32.5722   38.2618 H   0  0  0  0  0  0  0  0  0  0  0  0
  1  7  1  0
  2  1  1  0
  3  2  1  0
  4  5  1  0
  4  3  1  0
  5  6  1  0
  6  1  1  0
  7 12  1  0
  8  7  2  0
  8  9  1  0
  9 10  2  0
 10 11  1  0
 12 11  2  0
 13  5  1  0
  1 14  1  1
  2 15  1  0
  2 16  1  0
  3 17  1  0
  3 18  1  0
  4 19  1  0
  4 20  1  0
  5 21  1  1
  6 22  1  0
  6 23  1  0
  8 24  1  0
  9 25  1  0
 11 26  1  0
 13 27  1  0
 13 28  1  0
 13 29  1  0
M  ISO  8  14  13  15  13  16  13  17  13  18  13  19  13  20  13  21  13
M  ISO  8  22  13  23  13  24  14  25  14  26  14  27   8  28   8  29   8
M  END
>  <minimizedAffinity>  (1) 
-4.80286074

>  <minimizedRMSD>  (1) 
4.97148037

$$$$
