
     RDKit          3D

 29 30  0  0  1  0  0  0  0  0999 V2000
   44.6220   33.8310   41.2760 C   0  0  2  0  0  0  0  0  0  0  0  0
   44.4160   34.4690   42.5850 C   0  0  0  0  0  0  0  0  0  0  0  0
   45.3040   35.6540   42.8220 C   0  0  0  0  0  0  0  0  0  0  0  0
   46.7740   35.2850   42.6800 C   0  0  0  0  0  0  0  0  0  0  0  0
   47.0530   34.3900   41.5080 C   0  0  1  0  0  0  0  0  0  0  0  0
   45.8790   34.3150   40.5640 C   0  0  0  0  0  0  0  0  0  0  0  0
   43.4880   34.0170   40.3540 C   0  0  0  0  0  0  0  0  0  0  0  0
   43.1360   32.8980   39.5820 C   0  0  0  0  0  0  0  0  0  0  0  0
   42.0630   32.9800   38.6910 C   0  0  0  0  0  0  0  0  0  0  0  0
   41.4110   34.1920   38.6370 N   0  0  0  0  0  0  0  0  0  0  0  0
   41.7630   35.2460   39.3820 C   0  0  0  0  0  0  0  0  0  0  0  0
   42.7950   35.1500   40.2310 N   0  0  0  0  0  0  0  0  0  0  0  0
   48.3040   34.6920   40.7600 C   0  0  0  0  0  0  0  0  0  0  0  0
   48.7770   35.9620   41.0700 F   0  0  0  0  0  0  0  0  0  0  0  0
   49.2650   33.7380   41.0640 F   0  0  0  0  0  0  0  0  0  0  0  0
   48.0610   34.6760   39.3890 F   0  0  0  0  0  0  0  0  0  0  0  0
   44.7250   32.7640   41.5229 H   0  0  0  0  0  0  0  0  0  0  0  0
   43.3691   34.8006   42.6493 H   0  0  0  0  0  0  0  0  0  0  0  0
   44.6657   33.7205   43.3514 H   0  0  0  0  0  0  0  0  0  0  0  0
   45.0592   36.4367   42.0889 H   0  0  0  0  0  0  0  0  0  0  0  0
   45.1352   36.0129   43.8480 H   0  0  0  0  0  0  0  0  0  0  0  0
   47.3557   36.2106   42.5582 H   0  0  0  0  0  0  0  0  0  0  0  0
   47.0590   34.7313   43.5867 H   0  0  0  0  0  0  0  0  0  0  0  0
   47.2160   33.4030   41.9655 H   0  0  0  0  0  0  0  0  0  0  0  0
   46.1196   33.6169   39.7487 H   0  0  0  0  0  0  0  0  0  0  0  0
   45.6867   35.3240   40.1705 H   0  0  0  0  0  0  0  0  0  0  0  0
   43.7030   31.9603   39.6784 H   0  0  0  0  0  0  0  0  0  0  0  0
   41.7567   32.1262   38.0688 H   0  0  0  0  0  0  0  0  0  0  0  0
   41.2056   36.1906   39.2976 H   0  0  0  0  0  0  0  0  0  0  0  0
  1  2  1  0
  2  3  1  0
  4  3  1  0
  5  4  1  0
  6  1  1  0
  6  5  1  0
  7  1  1  0
  8  7  2  0
  9  8  1  0
 10  9  2  0
 10 11  1  0
 11 12  2  0
 12  7  1  0
 13 15  1  0
 13 14  1  0
 13  5  1  0
 16 13  1  0
  1 17  1  1
  2 18  1  0
  2 19  1  0
  3 20  1  0
  3 21  1  0
  4 22  1  0
  4 23  1  0
  5 24  1  1
  6 25  1  0
  6 26  1  0
  8 27  1  0
  9 28  1  0
 11 29  1  0
M  ISO  8  17  13  18  13  19  13  20  13  21  13  22  13  23  13  24  13
M  ISO  5  25  13  26  13  27  14  28  14  29  14
M  END
>  <minimizedAffinity>  (1) 
-4.73590946

>  <minimizedRMSD>  (1) 
6.10453033

$$$$
