
     RDKit          3D

 28 29  0  0  1  0  0  0  0  0999 V2000
   43.7250   34.5270   41.7970 C   0  0  2  0  0  0  0  0  0  0  0  0
   43.9620   35.2950   43.0360 C   0  0  0  0  0  0  0  0  0  0  0  0
   45.2050   36.1240   43.0050 C   0  0  0  0  0  0  0  0  0  0  0  0
   46.4490   35.3380   42.6220 C   0  0  0  0  0  0  0  0  0  0  0  0
   46.2020   34.2900   41.5710 C   0  0  1  0  0  0  0  0  0  0  0  0
   44.9040   34.5310   40.8350 C   0  0  0  0  0  0  0  0  0  0  0  0
   42.5470   35.0070   41.0520 C   0  0  0  0  0  0  0  0  0  0  0  0
   42.6170   34.8730   39.6510 C   0  0  0  0  0  0  0  0  0  0  0  0
   41.5490   35.3000   38.8510 C   0  0  0  0  0  0  0  0  0  0  0  0
   40.4750   35.8330   39.5070 N   0  0  0  0  0  0  0  0  0  0  0  0
   40.4350   35.9490   40.8580 C   0  0  0  0  0  0  0  0  0  0  0  0
   41.4690   35.5360   41.6260 N   0  0  0  0  0  0  0  0  0  0  0  0
   47.3100   34.2000   40.6170 C   0  0  0  0  0  0  0  0  0  0  0  0
   48.2160   35.0310   40.5970 O   0  0  0  0  0  0  0  0  0  0  0  0
   43.5603   33.5011   42.1582 H   0  0  0  0  0  0  0  0  0  0  0  0
   43.1037   35.9634   43.1989 H   0  0  0  0  0  0  0  0  0  0  0  0
   44.0863   34.5626   43.8473 H   0  0  0  0  0  0  0  0  0  0  0  0
   45.0655   36.9334   42.2732 H   0  0  0  0  0  0  0  0  0  0  0  0
   45.3647   36.5059   44.0242 H   0  0  0  0  0  0  0  0  0  0  0  0
   47.2013   36.0433   42.2392 H   0  0  0  0  0  0  0  0  0  0  0  0
   46.7887   34.8125   43.5267 H   0  0  0  0  0  0  0  0  0  0  0  0
   46.1273   33.3298   42.1024 H   0  0  0  0  0  0  0  0  0  0  0  0
   44.9527   35.5066   40.3292 H   0  0  0  0  0  0  0  0  0  0  0  0
   44.7613   33.7241   40.1011 H   0  0  0  0  0  0  0  0  0  0  0  0
   43.5109   34.4328   39.1850 H   0  0  0  0  0  0  0  0  0  0  0  0
   41.5736   35.2111   37.7549 H   0  0  0  0  0  0  0  0  0  0  0  0
   39.5466   36.3863   41.3370 H   0  0  0  0  0  0  0  0  0  0  0  0
   47.3321   33.3667   39.8993 H   0  0  0  0  0  0  0  0  0  0  0  0
  1  2  1  0
  3  2  1  0
  4  3  1  0
  5  4  1  0
  6  5  1  0
  6  1  1  0
  7 12  1  0
  7  1  1  0
  8  7  2  0
  9 10  2  0
  9  8  1  0
 10 11  1  0
 11 12  2  0
 13  5  1  0
 14 13  2  0
  1 15  1  1
  2 16  1  0
  2 17  1  0
  3 18  1  0
  3 19  1  0
  4 20  1  0
  4 21  1  0
  5 22  1  1
  6 23  1  0
  6 24  1  0
  8 25  1  0
  9 26  1  0
 11 27  1  0
 13 28  1  0
M  ISO  8  15  13  16  13  17  13  18  13  19  13  20  13  21  13  22  13
M  ISO  6  23  13  24  13  25  14  26  14  27  14  28   6
M  END
>  <minimizedAffinity>  (1) 
-4.4675827

>  <minimizedRMSD>  (1) 
6.77201223

$$$$
