
     RDKit          3D

 43 45  0  0  0  0  0  0  0  0999 V2000
   45.6400   31.5280   47.0620 C   0  0  0  0  0  0  0  0  0  0  0  0
   45.3870   31.9970   48.3610 C   0  0  0  0  0  0  0  0  0  0  0  0
   45.1580   31.1700   49.4380 C   0  0  0  0  0  0  0  0  0  0  0  0
   45.1830   29.8170   49.2120 C   0  0  0  0  0  0  0  0  0  0  0  0
   45.4330   29.3460   47.9240 C   0  0  0  0  0  0  0  0  0  0  0  0
   45.6480   30.2020   46.9190 N   0  0  0  0  0  0  0  0  0  0  0  0
   44.7860   36.5810   43.8620 C   0  0  0  0  0  0  0  0  0  0  0  0
   45.6790   36.2790   42.8100 C   0  0  0  0  0  0  0  0  0  0  0  0
   46.3080   35.0400   42.8290 C   0  0  0  0  0  0  0  0  0  0  0  0
   46.0620   34.1560   43.8380 N   0  0  0  0  0  0  0  0  0  0  0  0
   45.1950   34.4900   44.8290 C   0  0  0  0  0  0  0  0  0  0  0  0
   44.5570   35.6960   44.8450 N   0  0  0  0  0  0  0  0  0  0  0  0
   45.8690   32.4880   45.9960 C   0  0  0  0  0  0  0  0  0  0  0  0
   46.8640   32.3050   45.2450 O   0  0  0  0  0  0  0  0  0  0  0  0
   44.9270   33.5730   45.8910 N   0  0  0  0  0  0  0  0  0  0  0  0
   45.4580   27.9160   47.6870 C   0  0  0  0  0  0  0  0  0  0  0  0
   44.4620   27.3270   47.0860 C   0  0  0  0  0  0  0  0  0  0  0  0
   44.3220   25.8800   46.7650 C   0  0  0  0  0  0  0  0  0  0  0  0
   44.0800   23.1710   45.5860 Cl  0  0  0  0  0  0  0  0  0  0  0  0
   42.7320   24.2760   45.8400 C   0  0  0  0  0  0  0  0  0  0  0  0
   42.9260   25.5340   46.4010 C   0  0  0  0  0  0  0  0  0  0  0  0
   41.8720   26.4020   46.6030 C   0  0  0  0  0  0  0  0  0  0  0  0
   40.5770   26.0000   46.2320 C   0  0  0  0  0  0  0  0  0  0  0  0
   40.4030   24.7470   45.6770 C   0  0  0  0  0  0  0  0  0  0  0  0
   41.4660   23.8810   45.4770 C   0  0  0  0  0  0  0  0  0  0  0  0
   41.2670   22.5290   44.8770 C   0  0  0  0  0  0  0  0  0  0  0  0
   41.9160   22.4660   43.6470 F   0  0  0  0  0  0  0  0  0  0  0  0
   41.7210   21.5560   45.7310 F   0  0  0  0  0  0  0  0  0  0  0  0
   39.9210   22.3150   44.6110 F   0  0  0  0  0  0  0  0  0  0  0  0
   45.3708   33.0842   48.5274 H   0  0  0  0  0  0  0  0  0  0  0  0
   44.9626   31.5783   50.4406 H   0  0  0  0  0  0  0  0  0  0  0  0
   45.0077   29.1118   50.0378 H   0  0  0  0  0  0  0  0  0  0  0  0
   44.2719   37.5534   43.8759 H   0  0  0  0  0  0  0  0  0  0  0  0
   45.8702   37.0008   42.0023 H   0  0  0  0  0  0  0  0  0  0  0  0
   47.0088   34.7705   42.0251 H   0  0  0  0  0  0  0  0  0  0  0  0
   44.1258   33.6789   46.5295 H   0  0  0  0  0  0  0  0  0  0  0  0
   46.3240   27.3232   48.0168 H   0  0  0  0  0  0  0  0  0  0  0  0
   43.6274   27.9752   46.7804 H   0  0  0  0  0  0  0  0  0  0  0  0
   44.9822   25.6364   45.9196 H   0  0  0  0  0  0  0  0  0  0  0  0
   44.5982   25.3010   47.6586 H   0  0  0  0  0  0  0  0  0  0  0  0
   42.0428   27.3935   47.0477 H   0  0  0  0  0  0  0  0  0  0  0  0
   39.7181   26.6708   46.3809 H   0  0  0  0  0  0  0  0  0  0  0  0
   39.3916   24.4276   45.3855 H   0  0  0  0  0  0  0  0  0  0  0  0
  1  2  2  0
  2  3  1  0
  4  3  2  0
  5  4  1  0
  6  1  1  0
  6  5  2  0
  7 12  2  0
  8  9  2  0
  8  7  1  0
  9 10  1  0
 10 11  2  0
 11 12  1  0
 11 15  1  0
 13  1  1  0
 14 13  2  0
 15 13  1  0
 16  5  1  0
 17 16  2  0
 18 17  1  0
 19 20  1  0
 20 21  2  0
 21 22  1  0
 21 18  1  0
 23 22  2  0
 24 23  1  0
 25 24  2  0
 25 20  1  0
 26 25  1  0
 26 28  1  0
 27 26  1  0
 29 26  1  0
  2 30  1  0
  3 31  1  0
  4 32  1  0
  7 33  1  0
  8 34  1  0
  9 35  1  0
 15 36  1  0
 16 37  1  0
 17 38  1  0
 18 39  1  0
 18 40  1  0
 22 41  1  0
 23 42  1  0
 24 43  1  0
M  ISO  8  30  14  31  14  32  14  33  14  34  14  35  14  39   8  40   8
M  ISO  3  41  14  42  14  43  14
M  END
>  <minimizedAffinity>  (1) 
-6.10342026

>  <minimizedRMSD>  (1) 
1.15705097

$$$$
