
     RDKit          3D

 32 33  0  0  1  0  0  0  0  0999 V2000
   47.3400   34.0280   42.5220 C   0  0  2  0  0  0  0  0  0  0  0  0
   48.6640   34.6480   42.6590 C   0  0  0  0  0  0  0  0  0  0  0  0
   48.9390   35.7260   41.6490 C   0  0  0  0  0  0  0  0  0  0  0  0
   48.7470   35.2570   40.2250 C   0  0  0  0  0  0  0  0  0  0  0  0
   47.5800   34.3220   40.0380 C   0  0  2  0  0  0  0  0  0  0  0  0
   46.6470   34.3900   41.2150 C   0  0  0  0  0  0  0  0  0  0  0  0
   46.4130   34.3710   43.6150 C   0  0  0  0  0  0  0  0  0  0  0  0
   45.5750   35.4760   43.3790 C   0  0  0  0  0  0  0  0  0  0  0  0
   44.6560   35.8770   44.3560 C   0  0  0  0  0  0  0  0  0  0  0  0
   44.6360   35.1420   45.5140 N   0  0  0  0  0  0  0  0  0  0  0  0
   45.4570   34.0790   45.7150 C   0  0  0  0  0  0  0  0  0  0  0  0
   46.3310   33.7070   44.7710 N   0  0  0  0  0  0  0  0  0  0  0  0
   48.1260   32.9630   39.7600 C   0  0  0  0  0  0  0  0  0  0  0  0
   47.1430   31.9340   39.3330 C   0  0  0  0  0  0  0  0  0  0  0  0
   47.5601   32.9506   42.5500 H   0  0  0  0  0  0  0  0  0  0  0  0
   48.7379   35.0883   43.6643 H   0  0  0  0  0  0  0  0  0  0  0  0
   49.4071   33.8548   42.4897 H   0  0  0  0  0  0  0  0  0  0  0  0
   48.2552   36.5668   41.8373 H   0  0  0  0  0  0  0  0  0  0  0  0
   49.9921   36.0236   41.7606 H   0  0  0  0  0  0  0  0  0  0  0  0
   48.5877   36.1401   39.5888 H   0  0  0  0  0  0  0  0  0  0  0  0
   49.6517   34.6943   39.9513 H   0  0  0  0  0  0  0  0  0  0  0  0
   46.9595   34.6155   39.1784 H   0  0  0  0  0  0  0  0  0  0  0  0
   46.2524   35.4137   41.2953 H   0  0  0  0  0  0  0  0  0  0  0  0
   45.8402   33.6611   41.0481 H   0  0  0  0  0  0  0  0  0  0  0  0
   45.6418   36.0244   42.4278 H   0  0  0  0  0  0  0  0  0  0  0  0
   43.9857   36.7357   44.2032 H   0  0  0  0  0  0  0  0  0  0  0  0
   45.4037   33.5193   46.6604 H   0  0  0  0  0  0  0  0  0  0  0  0
   48.8774   33.0602   38.9625 H   0  0  0  0  0  0  0  0  0  0  0  0
   48.5268   32.6056   40.7200 H   0  0  0  0  0  0  0  0  0  0  0  0
   46.6945   31.4645   40.2210 H   0  0  0  0  0  0  0  0  0  0  0  0
   46.3539   32.4082   38.7310 H   0  0  0  0  0  0  0  0  0  0  0  0
   47.6528   31.1674   38.7310 H   0  0  0  0  0  0  0  0  0  0  0  0
  1  2  1  0
  1  7  1  0
  3  2  1  0
  4  3  1  0
  5  4  1  0
  5  6  1  0
  6  1  1  0
  7 12  1  0
  8  7  2  0
  8  9  1  0
  9 10  2  0
 10 11  1  0
 12 11  2  0
 13  5  1  0
 14 13  1  0
  1 15  1  6
  2 16  1  0
  2 17  1  0
  3 18  1  0
  3 19  1  0
  4 20  1  0
  4 21  1  0
  5 22  1  6
  6 23  1  0
  6 24  1  0
  8 25  1  0
  9 26  1  0
 11 27  1  0
 13 28  1  0
 13 29  1  0
 14 30  1  0
 14 31  1  0
 14 32  1  0
M  ISO  8  15  13  16  13  17  13  18  13  19  13  20  13  21  13  22  13
M  ISO  8  23  13  24  13  25  14  26  14  27  14  28   8  29   8  30   8
M  ISO  2  31   8  32   8
M  END
>  <minimizedAffinity>  (1) 
-4.99657202

>  <minimizedRMSD>  (1) 
5.10888243

$$$$
