
     RDKit          3D

 46 49  0  0  1  0  0  0  0  0999 V2000
   47.3590   34.0870   42.4760 C   0  0  2  0  0  0  0  0  0  0  0  0
   48.7060   34.6790   42.6400 C   0  0  0  0  0  0  0  0  0  0  0  0
   48.9830   35.7550   41.6440 C   0  0  0  0  0  0  0  0  0  0  0  0
   48.7900   35.3130   40.2160 C   0  0  0  0  0  0  0  0  0  0  0  0
   47.6440   34.3660   40.0170 C   0  0  2  0  0  0  0  0  0  0  0  0
   46.6810   34.4190   41.1870 C   0  0  0  0  0  0  0  0  0  0  0  0
   46.4490   34.3750   43.5960 C   0  0  0  0  0  0  0  0  0  0  0  0
   45.5990   35.4540   43.3650 C   0  0  0  0  0  0  0  0  0  0  0  0
   44.6670   35.8260   44.3370 C   0  0  0  0  0  0  0  0  0  0  0  0
   44.6620   35.0670   45.4950 N   0  0  0  0  0  0  0  0  0  0  0  0
   45.5020   34.0330   45.6800 C   0  0  0  0  0  0  0  0  0  0  0  0
   46.3810   33.7000   44.7320 N   0  0  0  0  0  0  0  0  0  0  0  0
   48.1660   33.0140   39.7210 C   0  0  0  0  0  0  0  0  0  0  0  0
   47.1710   32.0310   39.2340 C   0  0  0  0  0  0  0  0  0  0  0  0
   46.3620   31.1020   37.0860 C   0  0  0  0  0  0  0  0  0  0  0  0
   47.2480   31.9550   37.7540 C   0  0  0  0  0  0  0  0  0  0  0  0
   48.0980   32.6320   36.9260 C   0  0  0  0  0  0  0  0  0  0  0  0
   48.1070   32.5100   35.5720 C   0  0  0  0  0  0  0  0  0  0  0  0
   48.8940   33.1220   34.6590 N   0  0  0  0  0  0  0  0  0  0  0  0
   48.5190   32.6710   33.4500 C   0  0  0  0  0  0  0  0  0  0  0  0
   47.4920   31.7690   33.5760 C   0  0  0  0  0  0  0  0  0  0  0  0
   47.2210   31.6600   34.9380 C   0  0  0  0  0  0  0  0  0  0  0  0
   46.3360   30.9470   35.7160 C   0  0  0  0  0  0  0  0  0  0  0  0
   47.5733   33.0081   42.4642 H   0  0  0  0  0  0  0  0  0  0  0  0
   48.7829   35.1059   43.6509 H   0  0  0  0  0  0  0  0  0  0  0  0
   49.4440   33.8789   42.4813 H   0  0  0  0  0  0  0  0  0  0  0  0
   48.3043   36.5975   41.8430 H   0  0  0  0  0  0  0  0  0  0  0  0
   50.0402   36.0373   41.7565 H   0  0  0  0  0  0  0  0  0  0  0  0
   48.6111   36.2061   39.5993 H   0  0  0  0  0  0  0  0  0  0  0  0
   49.7025   34.7717   39.9257 H   0  0  0  0  0  0  0  0  0  0  0  0
   47.0475   34.6727   39.1452 H   0  0  0  0  0  0  0  0  0  0  0  0
   46.2599   35.4328   41.2565 H   0  0  0  0  0  0  0  0  0  0  0  0
   45.8899   33.6746   41.0140 H   0  0  0  0  0  0  0  0  0  0  0  0
   45.6614   36.0121   42.4192 H   0  0  0  0  0  0  0  0  0  0  0  0
   43.9784   36.6713   44.1911 H   0  0  0  0  0  0  0  0  0  0  0  0
   45.4645   33.4587   46.6174 H   0  0  0  0  0  0  0  0  0  0  0  0
   48.9457   33.1143   38.9516 H   0  0  0  0  0  0  0  0  0  0  0  0
   48.5318   32.6185   40.6801 H   0  0  0  0  0  0  0  0  0  0  0  0
   47.3879   31.0427   39.6654 H   0  0  0  0  0  0  0  0  0  0  0  0
   46.1611   32.3446   39.5370 H   0  0  0  0  0  0  0  0  0  0  0  0
   45.6462   30.5227   37.6876 H   0  0  0  0  0  0  0  0  0  0  0  0
   48.8225   33.3209   37.3849 H   0  0  0  0  0  0  0  0  0  0  0  0
   49.6401   33.8050   34.8534 H   0  0  0  0  0  0  0  0  0  0  0  0
   48.9705   32.9804   32.4958 H   0  0  0  0  0  0  0  0  0  0  0  0
   46.9821   31.2359   32.7600 H   0  0  0  0  0  0  0  0  0  0  0  0
   45.6150   30.2601   35.2488 H   0  0  0  0  0  0  0  0  0  0  0  0
  1  2  1  0
  1  7  1  0
  3  2  1  0
  4  3  1  0
  5  4  1  0
  5  6  1  0
  6  1  1  0
  7 12  1  0
  8  7  2  0
  8  9  1  0
  9 10  2  0
 10 11  1  0
 12 11  2  0
 13  5  1  0
 14 13  1  0
 15 16  2  0
 16 14  1  0
 17 16  1  0
 18 17  2  0
 19 18  1  0
 20 21  2  0
 20 19  1  0
 21 22  1  0
 22 18  1  0
 22 23  2  0
 23 15  1  0
  1 24  1  6
  2 25  1  0
  2 26  1  0
  3 27  1  0
  3 28  1  0
  4 29  1  0
  4 30  1  0
  5 31  1  6
  6 32  1  0
  6 33  1  0
  8 34  1  0
  9 35  1  0
 11 36  1  0
 13 37  1  0
 13 38  1  0
 14 39  1  0
 14 40  1  0
 15 41  1  0
 17 42  1  0
 19 43  1  0
 20 44  1  0
 21 45  1  0
 23 46  1  0
M  ISO  8  24  13  25  13  26  13  27  13  28  13  29  13  30  13  31  13
M  ISO  8  32  13  33  13  34  14  35  14  36  14  37   8  38   8  39   8
M  ISO  7  40   8  41  14  42  14  43   9  44  14  45  14  46  14
M  END
>  <minimizedAffinity>  (1) 
-6.22293186

>  <minimizedRMSD>  (1) 
1.79467428

$$$$
