
     RDKit          3D

 40 42  0  0  1  0  0  0  0  0999 V2000
   47.2080   34.0430   42.4990 C   0  0  2  0  0  0  0  0  0  0  0  0
   48.5790   34.5890   42.6260 C   0  0  0  0  0  0  0  0  0  0  0  0
   48.8740   35.6330   41.6020 C   0  0  0  0  0  0  0  0  0  0  0  0
   48.6360   35.1590   40.1820 C   0  0  0  0  0  0  0  0  0  0  0  0
   47.4340   34.2480   40.0220 C   0  0  2  0  0  0  0  0  0  0  0  0
   46.5380   34.3860   41.2120 C   0  0  0  0  0  0  0  0  0  0  0  0
   46.3310   34.3950   43.6200 C   0  0  0  0  0  0  0  0  0  0  0  0
   45.5330   35.5140   43.3930 C   0  0  0  0  0  0  0  0  0  0  0  0
   44.6430   35.9460   44.3780 C   0  0  0  0  0  0  0  0  0  0  0  0
   44.6130   35.2120   45.5490 N   0  0  0  0  0  0  0  0  0  0  0  0
   45.3970   34.1360   45.7370 C   0  0  0  0  0  0  0  0  0  0  0  0
   46.2310   33.7560   44.7760 N   0  0  0  0  0  0  0  0  0  0  0  0
   47.8990   32.8700   39.7770 C   0  0  0  0  0  0  0  0  0  0  0  0
   48.8120   32.6280   38.6850 C   0  0  0  0  0  0  0  0  0  0  0  0
   48.4810   32.5290   37.2940 C   0  0  0  0  0  0  0  0  0  0  0  0
   47.1570   32.1060   37.0860 C   0  0  0  0  0  0  0  0  0  0  0  0
   46.5320   31.9210   35.8700 C   0  0  0  0  0  0  0  0  0  0  0  0
   47.2430   32.1640   34.7490 N   0  0  0  0  0  0  0  0  0  0  0  0
   48.5110   32.5690   34.9020 C   0  0  0  0  0  0  0  0  0  0  0  0
   49.0660   32.7320   36.0990 N   0  0  0  0  0  0  0  0  0  0  0  0
   47.3662   32.9546   42.5157 H   0  0  0  0  0  0  0  0  0  0  0  0
   48.6906   35.0338   43.6259 H   0  0  0  0  0  0  0  0  0  0  0  0
   49.2852   33.7598   42.4718 H   0  0  0  0  0  0  0  0  0  0  0  0
   48.2285   36.5029   41.7933 H   0  0  0  0  0  0  0  0  0  0  0  0
   49.9414   35.8843   41.6887 H   0  0  0  0  0  0  0  0  0  0  0  0
   48.4860   36.0426   39.5443 H   0  0  0  0  0  0  0  0  0  0  0  0
   49.5190   34.5695   39.8942 H   0  0  0  0  0  0  0  0  0  0  0  0
   46.8294   34.5349   39.1490 H   0  0  0  0  0  0  0  0  0  0  0  0
   46.1890   35.4277   41.2671 H   0  0  0  0  0  0  0  0  0  0  0  0
   45.7079   33.6767   41.0782 H   0  0  0  0  0  0  0  0  0  0  0  0
   45.6040   36.0566   42.4388 H   0  0  0  0  0  0  0  0  0  0  0  0
   43.9988   36.8252   44.2299 H   0  0  0  0  0  0  0  0  0  0  0  0
   45.3479   33.5738   46.6812 H   0  0  0  0  0  0  0  0  0  0  0  0
   48.3969   32.5285   40.6965 H   0  0  0  0  0  0  0  0  0  0  0  0
   46.9865   32.3291   39.4858 H   0  0  0  0  0  0  0  0  0  0  0  0
   49.5486   33.4428   38.7445 H   0  0  0  0  0  0  0  0  0  0  0  0
   49.0552   31.5742   38.8860 H   0  0  0  0  0  0  0  0  0  0  0  0
   46.5573   31.9014   37.9852 H   0  0  0  0  0  0  0  0  0  0  0  0
   45.4858   31.5856   35.8159 H   0  0  0  0  0  0  0  0  0  0  0  0
   49.1142   32.7739   34.0053 H   0  0  0  0  0  0  0  0  0  0  0  0
  1  2  1  0
  1  7  1  0
  3  2  1  0
  4  3  1  0
  5  4  1  0
  5  6  1  0
  6  1  1  0
  7 12  1  0
  8  7  2  0
  8  9  1  0
  9 10  2  0
 10 11  1  0
 12 11  2  0
 13  5  1  0
 14 13  1  0
 15 14  1  0
 16 15  2  0
 17 16  1  0
 18 19  1  0
 18 17  2  0
 19 20  2  0
 20 15  1  0
  1 21  1  6
  2 22  1  0
  2 23  1  0
  3 24  1  0
  3 25  1  0
  4 26  1  0
  4 27  1  0
  5 28  1  6
  6 29  1  0
  6 30  1  0
  8 31  1  0
  9 32  1  0
 11 33  1  0
 13 34  1  0
 13 35  1  0
 14 36  1  0
 14 37  1  0
 16 38  1  0
 17 39  1  0
 19 40  1  0
M  ISO  8  21  13  22  13  23  13  24  13  25  13  26  13  27  13  28  13
M  ISO  8  29  13  30  13  31  14  32  14  33  14  34   8  35   8  36   8
M  ISO  4  37   8  38  14  39  14  40  14
M  END
>  <minimizedAffinity>  (1) 
-5.57551193

>  <minimizedRMSD>  (1) 
3.4344883

$$$$
