
     RDKit          3D

 42 44  0  0  1  0  0  0  0  0999 V2000
   47.3270   34.1250   42.4800 C   0  0  2  0  0  0  0  0  0  0  0  0
   48.6710   34.7250   42.6340 C   0  0  0  0  0  0  0  0  0  0  0  0
   48.9550   35.7680   41.6030 C   0  0  0  0  0  0  0  0  0  0  0  0
   48.7840   35.2720   40.1900 C   0  0  0  0  0  0  0  0  0  0  0  0
   47.6330   34.3290   40.0100 C   0  0  2  0  0  0  0  0  0  0  0  0
   46.6650   34.4010   41.1720 C   0  0  0  0  0  0  0  0  0  0  0  0
   46.4010   34.4600   43.5740 C   0  0  0  0  0  0  0  0  0  0  0  0
   45.6030   35.5730   43.3180 C   0  0  0  0  0  0  0  0  0  0  0  0
   44.6650   35.9890   44.2630 C   0  0  0  0  0  0  0  0  0  0  0  0
   44.6000   35.2410   45.4270 N   0  0  0  0  0  0  0  0  0  0  0  0
   45.3910   34.1730   45.6370 C   0  0  0  0  0  0  0  0  0  0  0  0
   46.2780   33.7970   44.7120 N   0  0  0  0  0  0  0  0  0  0  0  0
   48.1730   32.9770   39.7620 C   0  0  0  0  0  0  0  0  0  0  0  0
   47.2180   31.9530   39.2650 C   0  0  0  0  0  0  0  0  0  0  0  0
   44.5050   33.1070   38.4270 Cl  0  0  0  0  0  0  0  0  0  0  0  0
   45.7560   32.5050   37.3270 C   0  0  0  0  0  0  0  0  0  0  0  0
   46.9390   32.0080   37.8290 C   0  0  0  0  0  0  0  0  0  0  0  0
   47.8330   31.5700   36.8700 C   0  0  0  0  0  0  0  0  0  0  0  0
   47.6040   31.6070   35.5330 C   0  0  0  0  0  0  0  0  0  0  0  0
   46.3930   32.1180   35.0650 C   0  0  0  0  0  0  0  0  0  0  0  0
   45.4370   32.5810   35.9760 C   0  0  0  0  0  0  0  0  0  0  0  0
   47.5440   33.0473   42.5189 H   0  0  0  0  0  0  0  0  0  0  0  0
   48.7390   35.1864   43.6302 H   0  0  0  0  0  0  0  0  0  0  0  0
   49.4115   33.9213   42.5083 H   0  0  0  0  0  0  0  0  0  0  0  0
   48.2681   36.6123   41.7621 H   0  0  0  0  0  0  0  0  0  0  0  0
   50.0083   36.0628   41.7195 H   0  0  0  0  0  0  0  0  0  0  0  0
   48.6246   36.1414   39.5352 H   0  0  0  0  0  0  0  0  0  0  0  0
   49.6965   34.7124   39.9365 H   0  0  0  0  0  0  0  0  0  0  0  0
   47.0323   34.6192   39.1354 H   0  0  0  0  0  0  0  0  0  0  0  0
   46.2255   35.4089   41.2040 H   0  0  0  0  0  0  0  0  0  0  0  0
   45.8951   33.6310   41.0161 H   0  0  0  0  0  0  0  0  0  0  0  0
   45.7125   36.1231   42.3717 H   0  0  0  0  0  0  0  0  0  0  0  0
   44.0150   36.8601   44.0937 H   0  0  0  0  0  0  0  0  0  0  0  0
   45.3066   33.6063   46.5760 H   0  0  0  0  0  0  0  0  0  0  0  0
   48.9766   33.0716   39.0168 H   0  0  0  0  0  0  0  0  0  0  0  0
   48.4975   32.6123   40.7477 H   0  0  0  0  0  0  0  0  0  0  0  0
   47.6335   30.9604   39.4935 H   0  0  0  0  0  0  0  0  0  0  0  0
   46.2621   32.1552   39.7704 H   0  0  0  0  0  0  0  0  0  0  0  0
   48.7956   31.1638   37.2141 H   0  0  0  0  0  0  0  0  0  0  0  0
   48.3633   31.2389   34.8273 H   0  0  0  0  0  0  0  0  0  0  0  0
   46.1906   32.1568   33.9845 H   0  0  0  0  0  0  0  0  0  0  0  0
   44.4730   32.9882   35.6372 H   0  0  0  0  0  0  0  0  0  0  0  0
  1  2  1  0
  1  7  1  0
  3  2  1  0
  4  3  1  0
  5  4  1  0
  5  6  1  0
  6  1  1  0
  7 12  1  0
  8  7  2  0
  8  9  1  0
  9 10  2  0
 10 11  1  0
 12 11  2  0
 13  5  1  0
 14 13  1  0
 16 17  2  0
 16 15  1  0
 17 14  1  0
 18 17  1  0
 19 18  2  0
 20 19  1  0
 20 21  2  0
 21 16  1  0
  1 22  1  6
  2 23  1  0
  2 24  1  0
  3 25  1  0
  3 26  1  0
  4 27  1  0
  4 28  1  0
  5 29  1  6
  6 30  1  0
  6 31  1  0
  8 32  1  0
  9 33  1  0
 11 34  1  0
 13 35  1  0
 13 36  1  0
 14 37  1  0
 14 38  1  0
 18 39  1  0
 19 40  1  0
 20 41  1  0
 21 42  1  0
M  ISO  8  22  13  23  13  24  13  25  13  26  13  27  13  28  13  29  13
M  ISO  8  30  13  31  13  32  14  33  14  34  14  35   8  36   8  37   8
M  ISO  5  38   8  39  14  40  14  41  14  42  14
M  END
>  <minimizedAffinity>  (1) 
-5.5274992

>  <minimizedRMSD>  (1) 
1.20439959

$$$$
