
     RDKit          3D

 41 43  0  0  0  0  0  0  0  0999 V2000
   45.6380   31.5300   47.0860 C   0  0  0  0  0  0  0  0  0  0  0  0
   45.4310   32.0060   48.3920 C   0  0  0  0  0  0  0  0  0  0  0  0
   45.1950   31.1740   49.4620 C   0  0  0  0  0  0  0  0  0  0  0  0
   45.1640   29.8200   49.2260 C   0  0  0  0  0  0  0  0  0  0  0  0
   45.3700   29.3490   47.9300 C   0  0  0  0  0  0  0  0  0  0  0  0
   45.5930   30.1990   46.9280 N   0  0  0  0  0  0  0  0  0  0  0  0
   44.7750   36.5590   43.8560 C   0  0  0  0  0  0  0  0  0  0  0  0
   45.6670   36.2750   42.8170 C   0  0  0  0  0  0  0  0  0  0  0  0
   46.3130   35.0420   42.8470 C   0  0  0  0  0  0  0  0  0  0  0  0
   46.0820   34.1470   43.8540 N   0  0  0  0  0  0  0  0  0  0  0  0
   45.1940   34.4880   44.8440 C   0  0  0  0  0  0  0  0  0  0  0  0
   44.5500   35.6870   44.8390 N   0  0  0  0  0  0  0  0  0  0  0  0
   45.8820   32.4840   46.0090 C   0  0  0  0  0  0  0  0  0  0  0  0
   46.8800   32.2960   45.2620 O   0  0  0  0  0  0  0  0  0  0  0  0
   44.9450   33.5650   45.9000 N   0  0  0  0  0  0  0  0  0  0  0  0
   45.3350   27.9200   47.6910 C   0  0  0  0  0  0  0  0  0  0  0  0
   44.6010   27.1400   48.4360 C   0  0  0  0  0  0  0  0  0  0  0  0
   44.4510   25.6550   48.3260 C   0  0  0  0  0  0  0  0  0  0  0  0
   45.2390   23.4300   46.5350 Cl  0  0  0  0  0  0  0  0  0  0  0  0
   43.6850   24.2600   46.4790 C   0  0  0  0  0  0  0  0  0  0  0  0
   43.3860   25.2980   47.3540 C   0  0  0  0  0  0  0  0  0  0  0  0
   42.1700   25.9480   47.3110 C   0  0  0  0  0  0  0  0  0  0  0  0
   41.2140   25.5490   46.3610 C   0  0  0  0  0  0  0  0  0  0  0  0
   41.5240   24.5130   45.4950 C   0  0  0  0  0  0  0  0  0  0  0  0
   42.7550   23.8630   45.5460 C   0  0  0  0  0  0  0  0  0  0  0  0
   43.0510   22.8300   44.6740 O   0  0  0  0  0  0  0  0  0  0  0  0
   45.4589   33.0917   48.5664 H   0  0  0  0  0  0  0  0  0  0  0  0
   45.0364   31.5786   50.4725 H   0  0  0  0  0  0  0  0  0  0  0  0
   44.9787   29.1159   50.0506 H   0  0  0  0  0  0  0  0  0  0  0  0
   44.2470   37.5240   43.8623 H   0  0  0  0  0  0  0  0  0  0  0  0
   45.8510   36.9973   42.0080 H   0  0  0  0  0  0  0  0  0  0  0  0
   47.0216   34.7836   42.0464 H   0  0  0  0  0  0  0  0  0  0  0  0
   44.1461   33.6668   46.5421 H   0  0  0  0  0  0  0  0  0  0  0  0
   45.9326   27.4892   46.8742 H   0  0  0  0  0  0  0  0  0  0  0  0
   44.0269   27.6297   49.2363 H   0  0  0  0  0  0  0  0  0  0  0  0
   45.4044   25.2210   47.9904 H   0  0  0  0  0  0  0  0  0  0  0  0
   44.1725   25.2569   49.3129 H   0  0  0  0  0  0  0  0  0  0  0  0
   41.9514   26.7679   48.0110 H   0  0  0  0  0  0  0  0  0  0  0  0
   40.2366   26.0506   46.3061 H   0  0  0  0  0  0  0  0  0  0  0  0
   40.7802   24.1961   44.7492 H   0  0  0  0  0  0  0  0  0  0  0  0
   43.9303   22.3778   44.7226 H   0  0  0  0  0  0  0  0  0  0  0  0
  1  2  2  0
  2  3  1  0
  4  3  2  0
  5  4  1  0
  6  1  1  0
  6  5  2  0
  7 12  2  0
  8  9  2  0
  8  7  1  0
  9 10  1  0
 10 11  2  0
 11 15  1  0
 12 11  1  0
 13  1  1  0
 14 13  2  0
 15 13  1  0
 16  5  1  0
 16 17  2  0
 18 17  1  0
 20 19  1  0
 20 21  2  0
 21 18  1  0
 22 21  1  0
 23 22  2  0
 24 25  2  0
 24 23  1  0
 25 20  1  0
 26 25  1  0
  2 27  1  0
  3 28  1  0
  4 29  1  0
  7 30  1  0
  8 31  1  0
  9 32  1  0
 15 33  1  0
 16 34  1  0
 17 35  1  0
 18 36  1  0
 18 37  1  0
 22 38  1  0
 23 39  1  0
 24 40  1  0
 26 41  1  0
M  ISO  8  27  14  28  14  29  14  30  14  31  14  32  14  36   8  37   8
M  ISO  4  38  14  39  14  40  14  41   3
M  END
>  <minimizedAffinity>  (1) 
-6.07857323

>  <minimizedRMSD>  (1) 
0.011028233

$$$$
