
     RDKit          3D

 41 43  0  0  1  0  0  0  0  0999 V2000
   47.3110   34.0750   42.5040 C   0  0  2  0  0  0  0  0  0  0  0  0
   48.6700   34.6380   42.6660 C   0  0  0  0  0  0  0  0  0  0  0  0
   48.9680   35.7080   41.6680 C   0  0  0  0  0  0  0  0  0  0  0  0
   48.7620   35.2760   40.2390 C   0  0  0  0  0  0  0  0  0  0  0  0
   47.6020   34.3470   40.0440 C   0  0  2  0  0  0  0  0  0  0  0  0
   46.6410   34.4120   41.2150 C   0  0  0  0  0  0  0  0  0  0  0  0
   46.4060   34.3850   43.6230 C   0  0  0  0  0  0  0  0  0  0  0  0
   45.5760   35.4780   43.3860 C   0  0  0  0  0  0  0  0  0  0  0  0
   44.6530   35.8730   44.3560 C   0  0  0  0  0  0  0  0  0  0  0  0
   44.6340   35.1230   45.5200 N   0  0  0  0  0  0  0  0  0  0  0  0
   45.4560   34.0740   45.7090 C   0  0  0  0  0  0  0  0  0  0  0  0
   46.3270   33.7190   44.7640 N   0  0  0  0  0  0  0  0  0  0  0  0
   48.1140   32.9900   39.7530 C   0  0  0  0  0  0  0  0  0  0  0  0
   47.0840   31.9820   39.3530 C   0  0  0  0  0  0  0  0  0  0  0  0
   47.0790   31.7760   37.8620 C   0  0  0  0  0  0  0  0  0  0  0  0
   46.6720   32.6600   36.9010 C   0  0  0  0  0  0  0  0  0  0  0  0
   46.7460   32.2790   35.5790 C   0  0  0  0  0  0  0  0  0  0  0  0
   47.2160   31.0350   35.1890 C   0  0  0  0  0  0  0  0  0  0  0  0
   47.6160   30.1760   36.2100 C   0  0  0  0  0  0  0  0  0  0  0  0
   47.5370   30.5650   37.4910 N   0  0  0  0  0  0  0  0  0  0  0  0
   47.5041   32.9921   42.4971 H   0  0  0  0  0  0  0  0  0  0  0  0
   48.7574   35.0638   43.6765 H   0  0  0  0  0  0  0  0  0  0  0  0
   49.3909   33.8225   42.5072 H   0  0  0  0  0  0  0  0  0  0  0  0
   48.3091   36.5653   41.8703 H   0  0  0  0  0  0  0  0  0  0  0  0
   50.0325   35.9628   41.7772 H   0  0  0  0  0  0  0  0  0  0  0  0
   48.5924   36.1743   39.6271 H   0  0  0  0  0  0  0  0  0  0  0  0
   49.6654   34.7241   39.9400 H   0  0  0  0  0  0  0  0  0  0  0  0
   47.0038   34.6604   39.1757 H   0  0  0  0  0  0  0  0  0  0  0  0
   46.2315   35.4307   41.2828 H   0  0  0  0  0  0  0  0  0  0  0  0
   45.8433   33.6745   41.0425 H   0  0  0  0  0  0  0  0  0  0  0  0
   45.6476   36.0288   42.4365 H   0  0  0  0  0  0  0  0  0  0  0  0
   43.9801   36.7299   44.2046 H   0  0  0  0  0  0  0  0  0  0  0  0
   45.4088   33.5057   46.6496 H   0  0  0  0  0  0  0  0  0  0  0  0
   48.8432   33.0721   38.9335 H   0  0  0  0  0  0  0  0  0  0  0  0
   48.5441   32.6223   40.6963 H   0  0  0  0  0  0  0  0  0  0  0  0
   47.3068   31.0249   39.8473 H   0  0  0  0  0  0  0  0  0  0  0  0
   46.0945   32.3531   39.6581 H   0  0  0  0  0  0  0  0  0  0  0  0
   46.2933   33.6549   37.1779 H   0  0  0  0  0  0  0  0  0  0  0  0
   46.4199   32.9886   34.8043 H   0  0  0  0  0  0  0  0  0  0  0  0
   47.2703   30.7417   34.1302 H   0  0  0  0  0  0  0  0  0  0  0  0
   47.9983   29.1742   35.9645 H   0  0  0  0  0  0  0  0  0  0  0  0
  1  2  1  0
  1  7  1  0
  3  2  1  0
  4  3  1  0
  5  4  1  0
  5  6  1  0
  6  1  1  0
  7 12  1  0
  8  7  2  0
  8  9  1  0
  9 10  2  0
 10 11  1  0
 12 11  2  0
 13  5  1  0
 14 13  1  0
 15 14  1  0
 16 15  2  0
 17 16  1  0
 18 17  2  0
 18 19  1  0
 19 20  2  0
 20 15  1  0
  1 21  1  6
  2 22  1  0
  2 23  1  0
  3 24  1  0
  3 25  1  0
  4 26  1  0
  4 27  1  0
  5 28  1  6
  6 29  1  0
  6 30  1  0
  8 31  1  0
  9 32  1  0
 11 33  1  0
 13 34  1  0
 13 35  1  0
 14 36  1  0
 14 37  1  0
 16 38  1  0
 17 39  1  0
 18 40  1  0
 19 41  1  0
M  ISO  8  21  13  22  13  23  13  24  13  25  13  26  13  27  13  28  13
M  ISO  8  29  13  30  13  31  14  32  14  33  14  34   8  35   8  36   8
M  ISO  5  37   8  38  14  39  14  40  14  41  14
M  END
>  <minimizedAffinity>  (1) 
-5.25141668

>  <minimizedRMSD>  (1) 
2.08054256

$$$$
