
     RDKit          3D

 34 35  0  0  1  0  0  0  0  0999 V2000
   47.3200   34.0690   42.5170 C   0  0  2  0  0  0  0  0  0  0  0  0
   48.6690   34.6620   42.6590 C   0  0  0  0  0  0  0  0  0  0  0  0
   48.9400   35.7210   41.6440 C   0  0  0  0  0  0  0  0  0  0  0  0
   48.7440   35.2560   40.2270 C   0  0  0  0  0  0  0  0  0  0  0  0
   47.5880   34.3230   40.0450 C   0  0  2  0  0  0  0  0  0  0  0  0
   46.6370   34.3650   41.2240 C   0  0  0  0  0  0  0  0  0  0  0  0
   46.4110   34.3890   43.6300 C   0  0  0  0  0  0  0  0  0  0  0  0
   45.5830   35.4810   43.3890 C   0  0  0  0  0  0  0  0  0  0  0  0
   44.6540   35.8780   44.3540 C   0  0  0  0  0  0  0  0  0  0  0  0
   44.6270   35.1330   45.5220 N   0  0  0  0  0  0  0  0  0  0  0  0
   45.4510   34.0840   45.7140 C   0  0  0  0  0  0  0  0  0  0  0  0
   46.3280   33.7250   44.7720 N   0  0  0  0  0  0  0  0  0  0  0  0
   48.0980   32.9720   39.7540 C   0  0  0  0  0  0  0  0  0  0  0  0
   47.1370   31.9530   39.2940 C   0  0  0  0  0  0  0  0  0  0  0  0
   46.3590   32.2540   38.1630 N   0  0  0  0  0  0  0  0  0  0  0  0
   47.5366   32.9907   42.5365 H   0  0  0  0  0  0  0  0  0  0  0  0
   48.7552   35.1051   43.6621 H   0  0  0  0  0  0  0  0  0  0  0  0
   49.4040   33.8581   42.5060 H   0  0  0  0  0  0  0  0  0  0  0  0
   48.2599   36.5651   41.8310 H   0  0  0  0  0  0  0  0  0  0  0  0
   49.9970   36.0070   41.7481 H   0  0  0  0  0  0  0  0  0  0  0  0
   48.5780   36.1396   39.5932 H   0  0  0  0  0  0  0  0  0  0  0  0
   49.6497   34.6975   39.9480 H   0  0  0  0  0  0  0  0  0  0  0  0
   46.9859   34.6492   39.1841 H   0  0  0  0  0  0  0  0  0  0  0  0
   46.1906   35.3687   41.2821 H   0  0  0  0  0  0  0  0  0  0  0  0
   45.8712   33.5916   41.0647 H   0  0  0  0  0  0  0  0  0  0  0  0
   45.6598   36.0312   42.4396 H   0  0  0  0  0  0  0  0  0  0  0  0
   43.9817   36.7340   44.1954 H   0  0  0  0  0  0  0  0  0  0  0  0
   45.4011   33.5176   46.6557 H   0  0  0  0  0  0  0  0  0  0  0  0
   48.8658   33.0736   38.9729 H   0  0  0  0  0  0  0  0  0  0  0  0
   48.4516   32.5969   40.7257 H   0  0  0  0  0  0  0  0  0  0  0  0
   47.7084   31.0410   39.0667 H   0  0  0  0  0  0  0  0  0  0  0  0
   46.4112   31.8634   40.1157 H   0  0  0  0  0  0  0  0  0  0  0  0
   45.4401   32.6095   38.4631 H   0  0  0  0  0  0  0  0  0  0  0  0
   46.8368   32.9709   37.5985 H   0  0  0  0  0  0  0  0  0  0  0  0
  1  2  1  0
  1  7  1  0
  3  2  1  0
  4  3  1  0
  5  4  1  0
  5  6  1  0
  6  1  1  0
  7 12  1  0
  8  7  2  0
  8  9  1  0
  9 10  2  0
 10 11  1  0
 12 11  2  0
 13  5  1  0
 14 13  1  0
 15 14  1  0
  1 16  1  6
  2 17  1  0
  2 18  1  0
  3 19  1  0
  3 20  1  0
  4 21  1  0
  4 22  1  0
  5 23  1  6
  6 24  1  0
  6 25  1  0
  8 26  1  0
  9 27  1  0
 11 28  1  0
 13 29  1  0
 13 30  1  0
 14 31  1  0
 14 32  1  0
 15 33  1  0
 15 34  1  0
M  ISO  8  16  13  17  13  18  13  19  13  20  13  21  13  22  13  23  13
M  ISO  8  24  13  25  13  26  14  27  14  28  14  29   8  30   8  31   8
M  ISO  3  32   8  33   5  34   5
M  END
>  <minimizedAffinity>  (1) 
-4.85692453

>  <minimizedRMSD>  (1) 
0.0379505269

$$$$
