
     RDKit          3D

 34 37  0  0  0  0  0  0  0  0999 V2000
   44.8520   32.8850   41.1290 Br  0  0  0  0  0  0  0  0  0  0  0  0
   46.4530   33.9040   40.9230 C   0  0  0  0  0  0  0  0  0  0  0  0
   46.9270   34.7580   41.8900 C   0  0  0  0  0  0  0  0  0  0  0  0
   48.0920   35.4480   41.6400 C   0  0  0  0  0  0  0  0  0  0  0  0
   48.8020   35.3210   40.4660 C   0  0  0  0  0  0  0  0  0  0  0  0
   48.3320   34.4580   39.4770 C   0  0  0  0  0  0  0  0  0  0  0  0
   47.1530   33.7650   39.7410 C   0  0  0  0  0  0  0  0  0  0  0  0
   46.8510   31.5160   38.5960 C   0  0  0  0  0  0  0  0  0  0  0  0
   46.7540   32.8900   38.6410 C   0  0  0  0  0  0  0  0  0  0  0  0
   46.2090   33.4730   37.4950 C   0  0  0  0  0  0  0  0  0  0  0  0
   45.7880   32.7760   36.3820 C   0  0  0  0  0  0  0  0  0  0  0  0
   45.2520   33.1350   35.2120 N   0  0  0  0  0  0  0  0  0  0  0  0
   45.0350   32.0210   34.4890 C   0  0  0  0  0  0  0  0  0  0  0  0
   45.4360   30.9000   35.1980 C   0  0  0  0  0  0  0  0  0  0  0  0
   45.9070   31.4040   36.3860 C   0  0  0  0  0  0  0  0  0  0  0  0
   46.4400   30.7970   37.5040 C   0  0  0  0  0  0  0  0  0  0  0  0
   44.4830   35.9850   44.5210 C   0  0  0  0  0  0  0  0  0  0  0  0
   45.2290   35.8770   43.3410 C   0  0  0  0  0  0  0  0  0  0  0  0
   46.1530   34.8690   43.1180 C   0  0  0  0  0  0  0  0  0  0  0  0
   46.2760   33.9870   44.1480 N   0  0  0  0  0  0  0  0  0  0  0  0
   45.5630   34.0840   45.2840 C   0  0  0  0  0  0  0  0  0  0  0  0
   44.6810   35.0620   45.4760 N   0  0  0  0  0  0  0  0  0  0  0  0
   48.4733   36.1318   42.4127 H   0  0  0  0  0  0  0  0  0  0  0  0
   49.7284   35.8935   40.3109 H   0  0  0  0  0  0  0  0  0  0  0  0
   48.8706   34.3296   38.5265 H   0  0  0  0  0  0  0  0  0  0  0  0
   47.2702   30.9812   39.4611 H   0  0  0  0  0  0  0  0  0  0  0  0
   46.1081   34.5682   37.4789 H   0  0  0  0  0  0  0  0  0  0  0  0
   45.0412   34.0984   34.9147 H   0  0  0  0  0  0  0  0  0  0  0  0
   44.6009   32.0028   33.4785 H   0  0  0  0  0  0  0  0  0  0  0  0
   45.3881   29.8475   34.8819 H   0  0  0  0  0  0  0  0  0  0  0  0
   46.5383   29.7015   37.5197 H   0  0  0  0  0  0  0  0  0  0  0  0
   43.7578   36.8001   44.6612 H   0  0  0  0  0  0  0  0  0  0  0  0
   45.0740   36.6287   42.5530 H   0  0  0  0  0  0  0  0  0  0  0  0
   45.7127   33.3351   46.0756 H   0  0  0  0  0  0  0  0  0  0  0  0
  2  1  1  0
  2  3  2  0
  3 19  1  0
  4  3  1  0
  5  4  2  0
  6  7  2  0
  6  5  1  0
  7  2  1  0
  8  9  2  0
  9  7  1  0
 10  9  1  0
 11 15  1  0
 11 10  2  0
 12 11  1  0
 13 14  2  0
 13 12  1  0
 14 15  1  0
 15 16  2  0
 16  8  1  0
 17 22  2  0
 18 17  1  0
 19 18  2  0
 19 20  1  0
 20 21  2  0
 21 22  1  0
  4 23  1  0
  5 24  1  0
  6 25  1  0
  8 26  1  0
 10 27  1  0
 12 28  1  0
 13 29  1  0
 14 30  1  0
 16 31  1  0
 17 32  1  0
 18 33  1  0
 21 34  1  0
M  ISO  8  23  14  24  14  25  14  26  14  27  14  28   9  29  14  30  14
M  ISO  4  31  14  32  14  33  14  34  14
M  END
>  <minimizedAffinity>  (1) 
-6.47841454

>  <minimizedRMSD>  (1) 
0.481823027

$$$$
