
     RDKit          3D

 46 48  0  0  0  0  0  0  0  0999 V2000
   45.6300   31.5040   47.0650 C   0  0  0  0  0  0  0  0  0  0  0  0
   45.4030   31.9760   48.3660 C   0  0  0  0  0  0  0  0  0  0  0  0
   45.1690   31.1410   49.4460 C   0  0  0  0  0  0  0  0  0  0  0  0
   45.1640   29.7890   49.2020 C   0  0  0  0  0  0  0  0  0  0  0  0
   45.3890   29.3220   47.9080 C   0  0  0  0  0  0  0  0  0  0  0  0
   45.6100   30.1780   46.9030 N   0  0  0  0  0  0  0  0  0  0  0  0
   44.7750   36.5520   43.8580 C   0  0  0  0  0  0  0  0  0  0  0  0
   45.6630   36.2730   42.8220 C   0  0  0  0  0  0  0  0  0  0  0  0
   46.3150   35.0380   42.8440 C   0  0  0  0  0  0  0  0  0  0  0  0
   46.0800   34.1460   43.8550 N   0  0  0  0  0  0  0  0  0  0  0  0
   45.1950   34.4850   44.8410 C   0  0  0  0  0  0  0  0  0  0  0  0
   44.5510   35.6800   44.8370 N   0  0  0  0  0  0  0  0  0  0  0  0
   45.8670   32.4650   45.9950 C   0  0  0  0  0  0  0  0  0  0  0  0
   46.8590   32.2750   45.2350 O   0  0  0  0  0  0  0  0  0  0  0  0
   44.9570   33.5520   45.8880 N   0  0  0  0  0  0  0  0  0  0  0  0
   45.3820   27.8910   47.6640 C   0  0  0  0  0  0  0  0  0  0  0  0
   44.6110   27.1060   48.3680 C   0  0  0  0  0  0  0  0  0  0  0  0
   44.4740   25.6240   48.2560 C   0  0  0  0  0  0  0  0  0  0  0  0
   45.2330   23.3410   46.5180 Cl  0  0  0  0  0  0  0  0  0  0  0  0
   43.6910   24.1870   46.4440 C   0  0  0  0  0  0  0  0  0  0  0  0
   43.4090   25.2520   47.2950 C   0  0  0  0  0  0  0  0  0  0  0  0
   42.2000   25.9180   47.2380 C   0  0  0  0  0  0  0  0  0  0  0  0
   41.2370   25.5080   46.3000 C   0  0  0  0  0  0  0  0  0  0  0  0
   41.5320   24.4470   45.4590 C   0  0  0  0  0  0  0  0  0  0  0  0
   42.7520   23.7790   45.5200 C   0  0  0  0  0  0  0  0  0  0  0  0
   43.0540   22.7240   44.6890 O   0  0  0  0  0  0  0  0  0  0  0  0
   43.3920   20.4940   46.1450 O   0  0  0  0  0  0  0  0  0  0  0  0
   42.5740   21.1350   45.0410 P   0  0  0  0  0  0  0  0  0  0  0  0
   40.9560   21.1670   45.5700 O   0  0  0  0  0  0  0  0  0  0  0  0
   42.7540   20.1590   43.6710 O   0  0  0  0  0  0  0  0  0  0  0  0
   45.4112   33.0626   48.5371 H   0  0  0  0  0  0  0  0  0  0  0  0
   44.9948   31.5428   50.4551 H   0  0  0  0  0  0  0  0  0  0  0  0
   44.9835   29.0793   50.0228 H   0  0  0  0  0  0  0  0  0  0  0  0
   44.2463   37.5166   43.8668 H   0  0  0  0  0  0  0  0  0  0  0  0
   45.8443   36.9989   42.0157 H   0  0  0  0  0  0  0  0  0  0  0  0
   47.0229   34.7803   42.0425 H   0  0  0  0  0  0  0  0  0  0  0  0
   44.1642   33.6587   46.5368 H   0  0  0  0  0  0  0  0  0  0  0  0
   46.0290   27.4657   46.8826 H   0  0  0  0  0  0  0  0  0  0  0  0
   43.9898   27.5945   49.1332 H   0  0  0  0  0  0  0  0  0  0  0  0
   45.4297   25.2009   47.9130 H   0  0  0  0  0  0  0  0  0  0  0  0
   44.2038   25.2250   49.2448 H   0  0  0  0  0  0  0  0  0  0  0  0
   41.9938   26.7580   47.9177 H   0  0  0  0  0  0  0  0  0  0  0  0
   40.2659   26.0205   46.2346 H   0  0  0  0  0  0  0  0  0  0  0  0
   40.7815   24.1235   44.7228 H   0  0  0  0  0  0  0  0  0  0  0  0
   40.9323   21.1675   46.5597 H   0  0  0  0  0  0  0  0  0  0  0  0
   42.9262   19.2253   43.9513 H   0  0  0  0  0  0  0  0  0  0  0  0
  1  2  2  0
  2  3  1  0
  4  3  2  0
  5  4  1  0
  6  1  1  0
  6  5  2  0
  7 12  2  0
  8  9  2  0
  8  7  1  0
  9 10  1  0
 10 11  2  0
 11 15  1  0
 12 11  1  0
 13  1  1  0
 14 13  2  0
 15 13  1  0
 16  5  1  0
 16 17  2  0
 18 17  1  0
 20 19  1  0
 20 21  2  0
 21 18  1  0
 22 21  1  0
 23 22  2  0
 24 25  2  0
 24 23  1  0
 25 20  1  0
 26 28  1  0
 26 25  1  0
 28 29  1  0
 28 27  2  0
 30 28  1  0
  2 31  1  0
  3 32  1  0
  4 33  1  0
  7 34  1  0
  8 35  1  0
  9 36  1  0
 15 37  1  0
 16 38  1  0
 17 39  1  0
 18 40  1  0
 18 41  1  0
 22 42  1  0
 23 43  1  0
 24 44  1  0
 29 45  1  0
 30 46  1  0
M  ISO  8  31  14  32  14  33  14  34  14  35  14  36  14  40   8  41   8
M  ISO  5  42  14  43  14  44  14  45   3  46   3
M  END
>  <minimizedAffinity>  (1) 
-6.00457668

>  <minimizedRMSD>  (1) 
0.470549613

$$$$
