
     RDKit          3D

 36 38  0  0  0  0  0  0  0  0999 V2000
   44.7340   32.9890   41.1540 Br  0  0  0  0  0  0  0  0  0  0  0  0
   46.3800   33.9490   40.9540 C   0  0  0  0  0  0  0  0  0  0  0  0
   46.8980   34.7630   41.9430 C   0  0  0  0  0  0  0  0  0  0  0  0
   48.0830   35.3970   41.6870 C   0  0  0  0  0  0  0  0  0  0  0  0
   48.7720   35.2650   40.5070 C   0  0  0  0  0  0  0  0  0  0  0  0
   48.2570   34.4460   39.5050 C   0  0  0  0  0  0  0  0  0  0  0  0
   47.0500   33.8000   39.7660 C   0  0  0  0  0  0  0  0  0  0  0  0
   44.4830   36.0090   44.5880 C   0  0  0  0  0  0  0  0  0  0  0  0
   45.2110   35.9140   43.3940 C   0  0  0  0  0  0  0  0  0  0  0  0
   46.1320   34.8750   43.1830 C   0  0  0  0  0  0  0  0  0  0  0  0
   46.2560   33.9990   44.1980 N   0  0  0  0  0  0  0  0  0  0  0  0
   45.5620   34.0860   45.3450 C   0  0  0  0  0  0  0  0  0  0  0  0
   44.6890   35.0790   45.5310 N   0  0  0  0  0  0  0  0  0  0  0  0
   46.4980   32.9220   38.6870 C   0  0  0  0  0  0  0  0  0  0  0  0
   46.5140   33.5750   37.3480 C   0  0  0  0  0  0  0  0  0  0  0  0
   46.1110   32.5490   36.3190 C   0  0  0  0  0  0  0  0  0  0  0  0
   46.9140   31.2900   36.3710 C   0  0  0  0  0  0  0  0  0  0  0  0
   47.9700   31.4130   37.4770 C   0  0  0  0  0  0  0  0  0  0  0  0
   47.1760   31.5870   38.7580 C   0  0  0  0  0  0  0  0  0  0  0  0
   48.5058   36.0465   42.4676 H   0  0  0  0  0  0  0  0  0  0  0  0
   49.7207   35.8004   40.3544 H   0  0  0  0  0  0  0  0  0  0  0  0
   48.7814   34.3145   38.5470 H   0  0  0  0  0  0  0  0  0  0  0  0
   43.7622   36.8246   44.7468 H   0  0  0  0  0  0  0  0  0  0  0  0
   45.0580   36.6675   42.6073 H   0  0  0  0  0  0  0  0  0  0  0  0
   45.7137   33.3355   46.1348 H   0  0  0  0  0  0  0  0  0  0  0  0
   45.4249   32.7487   38.8553 H   0  0  0  0  0  0  0  0  0  0  0  0
   45.8036   34.4148   37.3347 H   0  0  0  0  0  0  0  0  0  0  0  0
   47.5195   33.9617   37.1257 H   0  0  0  0  0  0  0  0  0  0  0  0
   46.2305   32.9948   35.3205 H   0  0  0  0  0  0  0  0  0  0  0  0
   45.0690   32.2717   36.5364 H   0  0  0  0  0  0  0  0  0  0  0  0
   46.2513   30.4392   36.5876 H   0  0  0  0  0  0  0  0  0  0  0  0
   47.4092   31.1263   35.4025 H   0  0  0  0  0  0  0  0  0  0  0  0
   48.5876   30.5040   37.5251 H   0  0  0  0  0  0  0  0  0  0  0  0
   48.6590   32.2520   37.2999 H   0  0  0  0  0  0  0  0  0  0  0  0
   47.8508   31.5536   39.6261 H   0  0  0  0  0  0  0  0  0  0  0  0
   46.4359   30.7808   38.8689 H   0  0  0  0  0  0  0  0  0  0  0  0
  2  1  1  0
  2  3  2  0
  3 10  1  0
  4  3  1  0
  5  4  2  0
  6  7  2  0
  6  5  1  0
  7  2  1  0
  8 13  2  0
  9  8  1  0
 10  9  2  0
 10 11  1  0
 11 12  2  0
 12 13  1  0
 14 19  1  0
 14  7  1  0
 15 14  1  0
 16 17  1  0
 16 15  1  0
 17 18  1  0
 18 19  1  0
  4 20  1  0
  5 21  1  0
  6 22  1  0
  8 23  1  0
  9 24  1  0
 12 25  1  0
 14 26  1  0
 15 27  1  0
 15 28  1  0
 16 29  1  0
 16 30  1  0
 17 31  1  0
 17 32  1  0
 18 33  1  0
 18 34  1  0
 19 35  1  0
 19 36  1  0
M  ISO  8  20  14  21  14  22  14  23  14  24  14  25  14  26  13  27  13
M  ISO  8  28  13  29  13  30  13  31  13  32  13  33  13  34  13  35  13
M  ISO  1  36  13
M  END
>  <minimizedAffinity>  (1) 
-5.58996868

>  <minimizedRMSD>  (1) 
0.355759799

$$$$
