
     RDKit          3D

 34 36  0  0  0  0  0  0  0  0999 V2000
   44.6210   32.8960   41.2580 Br  0  0  0  0  0  0  0  0  0  0  0  0
   46.2490   33.8450   40.9860 C   0  0  0  0  0  0  0  0  0  0  0  0
   46.7940   34.6890   41.9220 C   0  0  0  0  0  0  0  0  0  0  0  0
   47.9820   35.3310   41.6260 C   0  0  0  0  0  0  0  0  0  0  0  0
   48.6420   35.1640   40.4360 C   0  0  0  0  0  0  0  0  0  0  0  0
   48.1010   34.3080   39.4700 C   0  0  0  0  0  0  0  0  0  0  0  0
   46.9050   33.6680   39.7830 C   0  0  0  0  0  0  0  0  0  0  0  0
   44.4950   36.0200   44.6280 C   0  0  0  0  0  0  0  0  0  0  0  0
   45.1820   35.8940   43.4120 C   0  0  0  0  0  0  0  0  0  0  0  0
   46.0670   34.8440   43.1760 C   0  0  0  0  0  0  0  0  0  0  0  0
   46.2020   33.9680   44.2120 N   0  0  0  0  0  0  0  0  0  0  0  0
   45.5430   34.0940   45.3740 C   0  0  0  0  0  0  0  0  0  0  0  0
   44.6990   35.1050   45.5830 N   0  0  0  0  0  0  0  0  0  0  0  0
   46.4520   32.8260   38.7290 N   0  0  0  0  0  0  0  0  0  0  0  0
   45.4450   33.2700   37.7900 C   0  0  0  0  0  0  0  0  0  0  0  0
   45.8460   32.7630   36.4210 C   0  0  0  0  0  0  0  0  0  0  0  0
   45.9340   31.3140   36.5480 N   0  0  0  0  0  0  0  0  0  0  0  0
   47.1550   30.9960   37.2920 C   0  0  0  0  0  0  0  0  0  0  0  0
   47.0730   31.5200   38.6900 C   0  0  0  0  0  0  0  0  0  0  0  0
   48.4169   36.0055   42.3783 H   0  0  0  0  0  0  0  0  0  0  0  0
   49.5851   35.6962   40.2429 H   0  0  0  0  0  0  0  0  0  0  0  0
   48.6003   34.1475   38.5031 H   0  0  0  0  0  0  0  0  0  0  0  0
   43.8003   36.8566   44.7940 H   0  0  0  0  0  0  0  0  0  0  0  0
   45.0179   36.6437   42.6239 H   0  0  0  0  0  0  0  0  0  0  0  0
   45.7018   33.3500   46.1685 H   0  0  0  0  0  0  0  0  0  0  0  0
   44.4634   32.8600   38.0699 H   0  0  0  0  0  0  0  0  0  0  0  0
   45.3708   34.3675   37.7908 H   0  0  0  0  0  0  0  0  0  0  0  0
   46.8195   33.1821   36.1267 H   0  0  0  0  0  0  0  0  0  0  0  0
   45.1205   33.0598   35.6493 H   0  0  0  0  0  0  0  0  0  0  0  0
   45.1123   30.9575   37.0566 H   0  0  0  0  0  0  0  0  0  0  0  0
   47.2853   29.9042   37.3226 H   0  0  0  0  0  0  0  0  0  0  0  0
   48.0104   31.4682   36.7867 H   0  0  0  0  0  0  0  0  0  0  0  0
   46.4788   30.8229   39.2991 H   0  0  0  0  0  0  0  0  0  0  0  0
   48.0952   31.6110   39.0860 H   0  0  0  0  0  0  0  0  0  0  0  0
  2  1  1  0
  2  3  2  0
  3 10  1  0
  4  3  1  0
  5  4  2  0
  6  7  2  0
  6  5  1  0
  7  2  1  0
  8 13  2  0
  9  8  1  0
 10  9  2  0
 10 11  1  0
 11 12  2  0
 12 13  1  0
 14  7  1  0
 15 14  1  0
 16 17  1  0
 16 15  1  0
 17 18  1  0
 18 19  1  0
 19 14  1  0
  4 20  1  0
  5 21  1  0
  6 22  1  0
  8 23  1  0
  9 24  1  0
 12 25  1  0
 15 26  1  0
 15 27  1  0
 16 28  1  0
 16 29  1  0
 17 30  1  0
 18 31  1  0
 18 32  1  0
 19 33  1  0
 19 34  1  0
M  ISO  8  20  14  21  14  22  14  23  14  24  14  25  14  26  13  27  13
M  ISO  7  28  13  29  13  30   5  31  13  32  13  33  13  34  13
M  END
>  <minimizedAffinity>  (1) 
-5.43253231

>  <minimizedRMSD>  (1) 
0.581988335

$$$$
