
     RDKit          3D

 21 22  0  0  0  0  0  0  0  0999 V2000
   44.5420   33.1010   41.2920 Br  0  0  0  0  0  0  0  0  0  0  0  0
   46.2270   33.9930   41.0970 C   0  0  0  0  0  0  0  0  0  0  0  0
   46.8030   34.7430   42.1040 C   0  0  0  0  0  0  0  0  0  0  0  0
   48.0120   35.3390   41.8560 C   0  0  0  0  0  0  0  0  0  0  0  0
   48.6640   35.2130   40.6480 C   0  0  0  0  0  0  0  0  0  0  0  0
   48.0990   34.4620   39.6250 C   0  0  0  0  0  0  0  0  0  0  0  0
   46.8860   33.8710   39.8880 C   0  0  0  0  0  0  0  0  0  0  0  0
   44.4650   35.9550   44.8290 C   0  0  0  0  0  0  0  0  0  0  0  0
   45.1660   35.8750   43.6110 C   0  0  0  0  0  0  0  0  0  0  0  0
   46.0680   34.8400   43.3600 C   0  0  0  0  0  0  0  0  0  0  0  0
   46.2020   33.9450   44.3660 N   0  0  0  0  0  0  0  0  0  0  0  0
   45.5360   34.0180   45.5270 C   0  0  0  0  0  0  0  0  0  0  0  0
   44.6730   35.0160   45.7560 N   0  0  0  0  0  0  0  0  0  0  0  0
   46.3200   33.1210   38.8670 O   0  0  0  0  0  0  0  0  0  0  0  0
   48.4792   35.9400   42.6501 H   0  0  0  0  0  0  0  0  0  0  0  0
   49.6340   35.7083   40.4937 H   0  0  0  0  0  0  0  0  0  0  0  0
   48.5980   34.3458   38.6516 H   0  0  0  0  0  0  0  0  0  0  0  0
   43.7578   36.7769   45.0143 H   0  0  0  0  0  0  0  0  0  0  0  0
   44.9996   36.6435   42.8417 H   0  0  0  0  0  0  0  0  0  0  0  0
   45.6998   33.2513   46.2985 H   0  0  0  0  0  0  0  0  0  0  0  0
   45.4472   32.6749   39.0059 H   0  0  0  0  0  0  0  0  0  0  0  0
  2  1  1  0
  2  3  2  0
  3 10  1  0
  4  3  1  0
  5  4  2  0
  6  7  2  0
  6  5  1  0
  7  2  1  0
  8 13  2  0
  9  8  1  0
 10  9  2  0
 10 11  1  0
 11 12  2  0
 12 13  1  0
 14  7  1  0
  4 15  1  0
  5 16  1  0
  6 17  1  0
  8 18  1  0
  9 19  1  0
 12 20  1  0
 14 21  1  0
M  ISO  7  15  14  16  14  17  14  18  14  19  14  20  14  21   3
M  END
>  <minimizedAffinity>  (1) 
-5.16143227

>  <minimizedRMSD>  (1) 
0.00776281999

$$$$
