
     RDKit          3D

 22 23  0  0  0  0  0  0  0  0999 V2000
   44.5550   33.0680   41.3090 Br  0  0  0  0  0  0  0  0  0  0  0  0
   46.2310   33.9750   41.1050 C   0  0  0  0  0  0  0  0  0  0  0  0
   46.7890   34.7410   42.1050 C   0  0  0  0  0  0  0  0  0  0  0  0
   47.9920   35.3450   41.8520 C   0  0  0  0  0  0  0  0  0  0  0  0
   48.6640   35.2220   40.6530 C   0  0  0  0  0  0  0  0  0  0  0  0
   48.1070   34.4510   39.6400 C   0  0  0  0  0  0  0  0  0  0  0  0
   46.8930   33.8440   39.9060 C   0  0  0  0  0  0  0  0  0  0  0  0
   44.4610   35.9510   44.8360 C   0  0  0  0  0  0  0  0  0  0  0  0
   45.1530   35.8710   43.6240 C   0  0  0  0  0  0  0  0  0  0  0  0
   46.0540   34.8490   43.3580 C   0  0  0  0  0  0  0  0  0  0  0  0
   46.2080   33.9380   44.3640 N   0  0  0  0  0  0  0  0  0  0  0  0
   45.5380   34.0190   45.5300 C   0  0  0  0  0  0  0  0  0  0  0  0
   44.6730   35.0210   45.7570 N   0  0  0  0  0  0  0  0  0  0  0  0
   46.3400   33.0580   38.8530 N   0  0  0  0  0  0  0  0  0  0  0  0
   48.4452   35.9589   42.6443 H   0  0  0  0  0  0  0  0  0  0  0  0
   49.6288   35.7281   40.5010 H   0  0  0  0  0  0  0  0  0  0  0  0
   48.6095   34.3288   38.6692 H   0  0  0  0  0  0  0  0  0  0  0  0
   43.7526   36.7716   45.0225 H   0  0  0  0  0  0  0  0  0  0  0  0
   44.9783   36.6410   42.8581 H   0  0  0  0  0  0  0  0  0  0  0  0
   45.7013   33.2557   46.3050 H   0  0  0  0  0  0  0  0  0  0  0  0
   45.4379   32.5793   38.9869 H   0  0  0  0  0  0  0  0  0  0  0  0
   46.8426   32.9689   37.9584 H   0  0  0  0  0  0  0  0  0  0  0  0
  2  1  1  0
  2  3  2  0
  3 10  1  0
  4  3  1  0
  5  4  2  0
  6  7  2  0
  6  5  1  0
  7  2  1  0
  8 13  2  0
  9  8  1  0
 10  9  2  0
 10 11  1  0
 11 12  2  0
 12 13  1  0
 14  7  1  0
  4 15  1  0
  5 16  1  0
  6 17  1  0
  8 18  1  0
  9 19  1  0
 12 20  1  0
 14 21  1  0
 14 22  1  0
M  ISO  6  15  14  16  14  17  14  18  14  19  14  20  14
M  END
>  <minimizedAffinity>  (1) 
-5.15223026

>  <minimizedRMSD>  (1) 
0.0171947572

$$$$
