
     RDKit          3D

 41 44  0  0  1  0  0  0  0  0999 V2000
   44.7310   33.0550   41.1210 Br  0  0  0  0  0  0  0  0  0  0  0  0
   46.3690   33.9960   40.9380 C   0  0  0  0  0  0  0  0  0  0  0  0
   46.9200   34.7490   41.9660 C   0  0  0  0  0  0  0  0  0  0  0  0
   48.1200   35.3900   41.7260 C   0  0  0  0  0  0  0  0  0  0  0  0
   48.7880   35.3210   40.5310 C   0  0  0  0  0  0  0  0  0  0  0  0
   48.2460   34.5700   39.4940 C   0  0  0  0  0  0  0  0  0  0  0  0
   47.0430   33.9330   39.7500 C   0  0  0  0  0  0  0  0  0  0  0  0
   44.5240   35.8460   44.6980 C   0  0  0  0  0  0  0  0  0  0  0  0
   45.2370   35.7910   43.5010 C   0  0  0  0  0  0  0  0  0  0  0  0
   46.1790   34.8000   43.2190 C   0  0  0  0  0  0  0  0  0  0  0  0
   46.3550   33.8830   44.2040 N   0  0  0  0  0  0  0  0  0  0  0  0
   45.6690   33.9340   45.3590 C   0  0  0  0  0  0  0  0  0  0  0  0
   44.7690   34.8930   45.6100 N   0  0  0  0  0  0  0  0  0  0  0  0
   46.5160   33.1530   38.6640 C   0  0  0  0  0  0  0  0  0  0  0  0
   45.3380   33.2320   38.2600 O   0  0  0  0  0  0  0  0  0  0  0  0
   45.4950   30.5160   34.3580 C   0  0  0  0  0  0  0  0  0  0  0  0
   45.5420   32.0480   34.4740 C   0  0  0  0  0  0  0  0  0  0  0  0
   46.4740   32.3460   35.5500 N   0  0  0  0  0  0  0  0  0  0  0  0
   47.5050   32.7140   36.4460 C   0  0  0  0  0  0  0  0  0  0  0  0
   48.5930   33.3290   36.2350 O   0  0  0  0  0  0  0  0  0  0  0  0
   46.8480   32.1290   37.6620 C   0  0  2  0  0  0  0  0  0  0  0  0
   45.7310   31.8500   36.7260 C   0  0  2  0  0  0  0  0  0  0  0  0
   45.5850   30.1060   36.1480 S   0  0  0  0  0  0  0  0  0  0  0  0
   46.6730   29.9840   33.6170 C   0  0  0  0  0  0  0  0  0  0  0  0
   44.1600   30.1600   33.7810 C   0  0  0  0  0  0  0  0  0  0  0  0
   48.5628   35.9873   42.5366 H   0  0  0  0  0  0  0  0  0  0  0  0
   49.7409   35.8531   40.3942 H   0  0  0  0  0  0  0  0  0  0  0  0
   48.7477   34.4859   38.5187 H   0  0  0  0  0  0  0  0  0  0  0  0
   43.7880   36.6412   44.8875 H   0  0  0  0  0  0  0  0  0  0  0  0
   45.0483   36.5653   42.7428 H   0  0  0  0  0  0  0  0  0  0  0  0
   45.8529   33.1634   46.1221 H   0  0  0  0  0  0  0  0  0  0  0  0
   45.8944   32.4910   33.5309 H   0  0  0  0  0  0  0  0  0  0  0  0
   44.5452   32.4647   34.6808 H   0  0  0  0  0  0  0  0  0  0  0  0
   47.3075   31.3660   38.3075 H   0  0  0  0  0  0  0  0  0  0  0  0
   44.7642   32.1970   37.1196 H   0  0  0  0  0  0  0  0  0  0  0  0
   47.4330   29.6408   34.3344 H   0  0  0  0  0  0  0  0  0  0  0  0
   46.3582   29.1407   32.9848 H   0  0  0  0  0  0  0  0  0  0  0  0
   47.0975   30.7778   32.9848 H   0  0  0  0  0  0  0  0  0  0  0  0
   43.4469   29.9698   34.5967 H   0  0  0  0  0  0  0  0  0  0  0  0
   43.7947   30.9921   33.1612 H   0  0  0  0  0  0  0  0  0  0  0  0
   44.2576   29.2565   33.1612 H   0  0  0  0  0  0  0  0  0  0  0  0
  2  1  1  0
  2  3  2  0
  3 10  1  0
  4  3  1  0
  5  4  2  0
  6  7  2  0
  6  5  1  0
  7  2  1  0
  8 13  2  0
  9  8  1  0
 10  9  2  0
 10 11  1  0
 11 12  2  0
 12 13  1  0
 14  7  1  0
 15 14  2  0
 16 17  1  0
 16 23  1  0
 17 18  1  0
 18 19  1  0
 18 22  1  0
 19 21  1  0
 20 19  2  0
 21 14  1  0
 22 23  1  0
 22 21  1  0
 24 16  1  0
 25 16  1  0
  4 26  1  0
  5 27  1  0
  6 28  1  0
  8 29  1  0
  9 30  1  0
 12 31  1  0
 17 32  1  0
 17 33  1  0
 21 34  1  1
 22 35  1  1
 24 36  1  0
 24 37  1  0
 24 38  1  0
 25 39  1  0
 25 40  1  0
 25 41  1  0
M  ISO  8  26  14  27  14  28  14  29  14  30  14  31  14  32  13  33  13
M  ISO  8  34  13  35  13  36   8  37   8  38   8  39   8  40   8  41   8
M  END
>  <minimizedAffinity>  (1) 
-6.51443291

>  <minimizedRMSD>  (1) 
2.61533976

$$$$
