
     RDKit          3D

 36 38  0  0  0  0  0  0  0  0999 V2000
   44.4200   33.3840   41.1240 Br  0  0  0  0  0  0  0  0  0  0  0  0
   46.1720   34.1060   40.9870 C   0  0  0  0  0  0  0  0  0  0  0  0
   46.7660   34.8060   42.0180 C   0  0  0  0  0  0  0  0  0  0  0  0
   48.0370   35.3210   41.8020 C   0  0  0  0  0  0  0  0  0  0  0  0
   48.7260   35.1670   40.6130 C   0  0  0  0  0  0  0  0  0  0  0  0
   48.1210   34.4570   39.5740 C   0  0  0  0  0  0  0  0  0  0  0  0
   46.8600   33.9550   39.8160 C   0  0  0  0  0  0  0  0  0  0  0  0
   46.3240   33.1620   38.7420 C   0  0  0  0  0  0  0  0  0  0  0  0
   46.6530   33.4120   37.5080 O   0  0  0  0  0  0  0  0  0  0  0  0
   45.4540   32.0490   38.4790 N   0  0  0  0  0  0  0  0  0  0  0  0
   44.2740   32.7140   37.9890 C   0  0  0  0  0  0  0  0  0  0  0  0
   43.1900   31.6800   37.7810 C   0  0  0  0  0  0  0  0  0  0  0  0
   43.0170   30.9570   39.0300 N   0  0  0  0  0  0  0  0  0  0  0  0
   44.2020   30.1770   39.3450 C   0  0  0  0  0  0  0  0  0  0  0  0
   45.3760   30.5800   38.5080 C   0  0  0  0  0  0  0  0  0  0  0  0
   44.4770   36.0440   44.7510 C   0  0  0  0  0  0  0  0  0  0  0  0
   45.1710   35.9680   43.5310 C   0  0  0  0  0  0  0  0  0  0  0  0
   46.0250   34.9300   43.2640 C   0  0  0  0  0  0  0  0  0  0  0  0
   46.1300   34.0090   44.2710 N   0  0  0  0  0  0  0  0  0  0  0  0
   45.4720   34.0810   45.4270 C   0  0  0  0  0  0  0  0  0  0  0  0
   44.6540   35.0870   45.6680 N   0  0  0  0  0  0  0  0  0  0  0  0
   48.5201   35.8794   42.6174 H   0  0  0  0  0  0  0  0  0  0  0  0
   49.7313   35.5956   40.4881 H   0  0  0  0  0  0  0  0  0  0  0  0
   48.6263   34.3055   38.6087 H   0  0  0  0  0  0  0  0  0  0  0  0
   43.9378   33.4612   38.7229 H   0  0  0  0  0  0  0  0  0  0  0  0
   44.4958   33.2228   37.0393 H   0  0  0  0  0  0  0  0  0  0  0  0
   42.2485   32.1762   37.5029 H   0  0  0  0  0  0  0  0  0  0  0  0
   43.4703   30.9880   36.9732 H   0  0  0  0  0  0  0  0  0  0  0  0
   42.8454   31.6315   39.7893 H   0  0  0  0  0  0  0  0  0  0  0  0
   44.4538   30.3257   40.4054 H   0  0  0  0  0  0  0  0  0  0  0  0
   43.9801   29.1205   39.1338 H   0  0  0  0  0  0  0  0  0  0  0  0
   45.2502   30.1959   37.4849 H   0  0  0  0  0  0  0  0  0  0  0  0
   46.3006   30.1644   38.9352 H   0  0  0  0  0  0  0  0  0  0  0  0
   43.7943   36.8833   44.9496 H   0  0  0  0  0  0  0  0  0  0  0  0
   45.0260   36.7558   42.7771 H   0  0  0  0  0  0  0  0  0  0  0  0
   45.6118   33.2965   46.1853 H   0  0  0  0  0  0  0  0  0  0  0  0
  2  1  1  0
  2  3  2  0
  3 18  1  0
  4  3  1  0
  5  4  2  0
  6  7  2  0
  6  5  1  0
  7  2  1  0
  8  7  1  0
  9  8  2  0
 10 15  1  0
 10  8  1  0
 11 10  1  0
 12 11  1  0
 12 13  1  0
 13 14  1  0
 15 14  1  0
 16 21  2  0
 17 16  1  0
 18 17  2  0
 18 19  1  0
 19 20  2  0
 20 21  1  0
  4 22  1  0
  5 23  1  0
  6 24  1  0
 11 25  1  0
 11 26  1  0
 12 27  1  0
 12 28  1  0
 13 29  1  0
 14 30  1  0
 14 31  1  0
 15 32  1  0
 15 33  1  0
 16 34  1  0
 17 35  1  0
 20 36  1  0
M  ISO  8  22  14  23  14  24  14  25  13  26  13  27  13  28  13  29   5
M  ISO  7  30  13  31  13  32  13  33  13  34  14  35  14  36  14
M  END
>  <minimizedAffinity>  (1) 
-5.73529911

>  <minimizedRMSD>  (1) 
0.566703737

$$$$
