
     RDKit          3D

 32 34  0  0  0  0  0  0  0  0999 V2000
   44.6510   33.0050   41.2220 Br  0  0  0  0  0  0  0  0  0  0  0  0
   46.2950   33.9420   41.0050 C   0  0  0  0  0  0  0  0  0  0  0  0
   46.8360   34.7260   42.0090 C   0  0  0  0  0  0  0  0  0  0  0  0
   48.0460   35.3730   41.7520 C   0  0  0  0  0  0  0  0  0  0  0  0
   48.7120   35.2590   40.5490 C   0  0  0  0  0  0  0  0  0  0  0  0
   48.1710   34.4700   39.5360 C   0  0  0  0  0  0  0  0  0  0  0  0
   46.9720   33.8410   39.8170 C   0  0  0  0  0  0  0  0  0  0  0  0
   44.4910   35.9220   44.7240 C   0  0  0  0  0  0  0  0  0  0  0  0
   45.1900   35.8400   43.5140 C   0  0  0  0  0  0  0  0  0  0  0  0
   46.1080   34.8210   43.2560 C   0  0  0  0  0  0  0  0  0  0  0  0
   46.2700   33.9260   44.2590 N   0  0  0  0  0  0  0  0  0  0  0  0
   45.5900   34.0160   45.4210 C   0  0  0  0  0  0  0  0  0  0  0  0
   44.7110   34.9970   45.6580 N   0  0  0  0  0  0  0  0  0  0  0  0
   46.4210   33.0250   38.7560 C   0  0  0  0  0  0  0  0  0  0  0  0
   45.3490   33.3650   38.1530 O   0  0  0  0  0  0  0  0  0  0  0  0
   48.1440   33.1320   36.2370 Cl  0  0  0  0  0  0  0  0  0  0  0  0
   47.7150   31.6590   37.0850 C   0  0  0  0  0  0  0  0  0  0  0  0
   46.9280   31.7710   38.2120 C   0  0  0  0  0  0  0  0  0  0  0  0
   46.5470   30.6530   38.9360 C   0  0  0  0  0  0  0  0  0  0  0  0
   46.9300   29.4010   38.5710 C   0  0  0  0  0  0  0  0  0  0  0  0
   47.7240   29.2840   37.4360 C   0  0  0  0  0  0  0  0  0  0  0  0
   48.1130   30.3920   36.7000 C   0  0  0  0  0  0  0  0  0  0  0  0
   48.4868   35.9997   42.5413 H   0  0  0  0  0  0  0  0  0  0  0  0
   49.6637   35.7875   40.3907 H   0  0  0  0  0  0  0  0  0  0  0  0
   48.6716   34.3535   38.5634 H   0  0  0  0  0  0  0  0  0  0  0  0
   43.7725   36.7359   44.9010 H   0  0  0  0  0  0  0  0  0  0  0  0
   45.0100   36.6028   42.7422 H   0  0  0  0  0  0  0  0  0  0  0  0
   45.7638   33.2581   46.1991 H   0  0  0  0  0  0  0  0  0  0  0  0
   45.9183   30.7819   39.8294 H   0  0  0  0  0  0  0  0  0  0  0  0
   46.6243   28.5169   39.1498 H   0  0  0  0  0  0  0  0  0  0  0  0
   48.0524   28.2850   37.1133 H   0  0  0  0  0  0  0  0  0  0  0  0
   48.7408   30.2630   35.8060 H   0  0  0  0  0  0  0  0  0  0  0  0
  2  1  1  0
  2  3  2  0
  3 10  1  0
  4  3  1  0
  5  4  2  0
  6  7  2  0
  6  5  1  0
  7  2  1  0
  8 13  2  0
  9  8  1  0
 10  9  2  0
 10 11  1  0
 11 12  2  0
 12 13  1  0
 14  7  1  0
 15 14  2  0
 16 17  1  0
 17 18  2  0
 18 14  1  0
 18 19  1  0
 20 19  2  0
 21 20  1  0
 22 17  1  0
 22 21  2  0
  4 23  1  0
  5 24  1  0
  6 25  1  0
  8 26  1  0
  9 27  1  0
 12 28  1  0
 19 29  1  0
 20 30  1  0
 21 31  1  0
 22 32  1  0
M  ISO  8  23  14  24  14  25  14  26  14  27  14  28  14  29  14  30  14
M  ISO  2  31  14  32  14
M  END
>  <minimizedAffinity>  (1) 
-5.44568634

>  <minimizedRMSD>  (1) 
2.08864617

$$$$
