
     RDKit          3D

 38 41  0  0  1  0  0  0  0  0999 V2000
   44.6630   32.9870   41.2190 Br  0  0  0  0  0  0  0  0  0  0  0  0
   46.3100   33.9440   41.0010 C   0  0  0  0  0  0  0  0  0  0  0  0
   46.8380   34.7350   41.9910 C   0  0  0  0  0  0  0  0  0  0  0  0
   48.0460   35.3890   41.7370 C   0  0  0  0  0  0  0  0  0  0  0  0
   48.7150   35.2650   40.5400 C   0  0  0  0  0  0  0  0  0  0  0  0
   48.1710   34.4600   39.5400 C   0  0  0  0  0  0  0  0  0  0  0  0
   46.9830   33.8280   39.8140 C   0  0  0  0  0  0  0  0  0  0  0  0
   44.5020   35.9000   44.7230 C   0  0  0  0  0  0  0  0  0  0  0  0
   45.1910   35.8420   43.5010 C   0  0  0  0  0  0  0  0  0  0  0  0
   46.0990   34.8410   43.2400 C   0  0  0  0  0  0  0  0  0  0  0  0
   46.2500   33.9530   44.2480 N   0  0  0  0  0  0  0  0  0  0  0  0
   45.6030   33.9960   45.4130 C   0  0  0  0  0  0  0  0  0  0  0  0
   44.7340   34.9570   45.6590 N   0  0  0  0  0  0  0  0  0  0  0  0
   46.4530   33.0040   38.7600 C   0  0  0  0  0  0  0  0  0  0  0  0
   45.4300   33.4130   38.0670 O   0  0  0  0  0  0  0  0  0  0  0  0
   47.5840   30.8090   39.0180 C   0  0  0  0  0  0  0  0  0  0  0  0
   46.8510   31.6950   38.2580 C   0  0  0  0  0  0  0  0  0  0  0  0
   46.4930   31.2540   36.9780 C   0  0  0  0  0  0  0  0  0  0  0  0
   46.8190   30.0280   36.4490 C   0  0  0  0  0  0  0  0  0  0  0  0
   46.5770   29.4280   35.2700 N   0  0  0  0  0  0  0  0  0  0  0  0
   47.1370   28.2090   35.2870 C   0  0  0  0  0  0  0  0  0  0  0  0
   47.7620   27.9950   36.4990 C   0  0  0  0  0  0  0  0  0  0  0  0
   47.5510   29.1520   37.2190 C   0  0  0  0  0  0  0  0  0  0  0  0
   47.9160   29.5580   38.4780 C   0  0  0  0  0  0  0  0  0  0  0  0
   48.4786   36.0265   42.5222 H   0  0  0  0  0  0  0  0  0  0  0  0
   49.6654   35.7937   40.3749 H   0  0  0  0  0  0  0  0  0  0  0  0
   48.6738   34.3360   38.5695 H   0  0  0  0  0  0  0  0  0  0  0  0
   43.7797   36.7070   44.9152 H   0  0  0  0  0  0  0  0  0  0  0  0
   45.0016   36.6111   42.7377 H   0  0  0  0  0  0  0  0  0  0  0  0
   45.7952   33.2251   46.1737 H   0  0  0  0  0  0  0  0  0  0  0  0
   47.1324   33.4860   38.0416 H   0  0  0  0  0  0  0  0  0  0  0  0
   44.7092   33.7012   38.6814 H   0  0  0  0  0  0  0  0  0  0  0  0
   47.9044   31.0796   40.0349 H   0  0  0  0  0  0  0  0  0  0  0  0
   45.9070   31.9401   36.3488 H   0  0  0  0  0  0  0  0  0  0  0  0
   46.0497   29.8362   34.4850 H   0  0  0  0  0  0  0  0  0  0  0  0
   47.1031   27.4869   34.4579 H   0  0  0  0  0  0  0  0  0  0  0  0
   48.3094   27.0967   36.8206 H   0  0  0  0  0  0  0  0  0  0  0  0
   48.5016   28.8635   39.0982 H   0  0  0  0  0  0  0  0  0  0  0  0
  2  1  1  0
  2  3  2  0
  3 10  1  0
  4  3  1  0
  5  4  2  0
  6  7  2  0
  6  5  1  0
  7  2  1  0
  8 13  2  0
  9  8  1  0
 10  9  2  0
 10 11  1  0
 11 12  2  0
 12 13  1  0
 14 15  1  0
 14  7  1  0
 17 14  1  0
 17 16  2  0
 18 17  1  0
 19 18  2  0
 19 23  1  0
 20 21  1  0
 20 19  1  0
 21 22  2  0
 22 23  1  0
 23 24  2  0
 24 16  1  0
  4 25  1  0
  5 26  1  0
  6 27  1  0
  8 28  1  0
  9 29  1  0
 12 30  1  0
 14 31  1  0
 15 32  1  0
 16 33  1  0
 18 34  1  0
 20 35  1  0
 21 36  1  0
 22 37  1  0
 24 38  1  0
M  ISO  8  25  14  26  14  27  14  28  14  29  14  30  14  31   8  32   3
M  ISO  6  33  14  34  14  35   9  36  14  37  14  38  14
M  END
>  <minimizedAffinity>  (1) 
-5.33519888

>  <minimizedRMSD>  (1) 
2.09975505

$$$$
