
     RDKit          3D

 37 40  0  0  1  0  0  0  0  0999 V2000
   44.6810   33.0310   41.1820 Br  0  0  0  0  0  0  0  0  0  0  0  0
   46.3310   33.9610   40.9880 C   0  0  0  0  0  0  0  0  0  0  0  0
   46.8440   34.7550   41.9860 C   0  0  0  0  0  0  0  0  0  0  0  0
   48.0520   35.4120   41.7460 C   0  0  0  0  0  0  0  0  0  0  0  0
   48.7320   35.2890   40.5520 C   0  0  0  0  0  0  0  0  0  0  0  0
   48.2140   34.4820   39.5360 C   0  0  0  0  0  0  0  0  0  0  0  0
   47.0190   33.8490   39.8110 C   0  0  0  0  0  0  0  0  0  0  0  0
   44.5080   35.8850   44.7310 C   0  0  0  0  0  0  0  0  0  0  0  0
   45.1940   35.8470   43.5020 C   0  0  0  0  0  0  0  0  0  0  0  0
   46.1020   34.8500   43.2380 C   0  0  0  0  0  0  0  0  0  0  0  0
   46.2660   33.9370   44.2450 N   0  0  0  0  0  0  0  0  0  0  0  0
   45.6130   33.9790   45.4070 C   0  0  0  0  0  0  0  0  0  0  0  0
   44.7440   34.9420   45.6450 N   0  0  0  0  0  0  0  0  0  0  0  0
   46.5230   32.9980   38.7560 C   0  0  0  0  0  0  0  0  0  0  0  0
   45.5650   33.3770   37.9830 O   0  0  0  0  0  0  0  0  0  0  0  0
   47.6890   30.8400   39.1670 C   0  0  0  0  0  0  0  0  0  0  0  0
   46.9400   31.6590   38.3590 C   0  0  0  0  0  0  0  0  0  0  0  0
   46.5920   31.1090   37.1320 C   0  0  0  0  0  0  0  0  0  0  0  0
   46.9380   29.8490   36.6950 C   0  0  0  0  0  0  0  0  0  0  0  0
   46.7070   29.1500   35.5720 N   0  0  0  0  0  0  0  0  0  0  0  0
   47.3000   27.9590   35.7120 C   0  0  0  0  0  0  0  0  0  0  0  0
   47.9040   27.8900   36.9070 N   0  0  0  0  0  0  0  0  0  0  0  0
   47.6910   29.0550   37.5330 C   0  0  0  0  0  0  0  0  0  0  0  0
   48.0500   29.5600   38.7420 C   0  0  0  0  0  0  0  0  0  0  0  0
   48.4761   36.0495   42.5358 H   0  0  0  0  0  0  0  0  0  0  0  0
   49.6803   35.8253   40.4002 H   0  0  0  0  0  0  0  0  0  0  0  0
   48.7292   34.3583   38.5720 H   0  0  0  0  0  0  0  0  0  0  0  0
   43.7828   36.6863   44.9361 H   0  0  0  0  0  0  0  0  0  0  0  0
   45.0013   36.6226   42.7462 H   0  0  0  0  0  0  0  0  0  0  0  0
   45.7998   33.2082   46.1692 H   0  0  0  0  0  0  0  0  0  0  0  0
   47.2561   33.4328   38.0606 H   0  0  0  0  0  0  0  0  0  0  0  0
   44.7987   33.6802   38.5315 H   0  0  0  0  0  0  0  0  0  0  0  0
   48.0076   31.1954   40.1581 H   0  0  0  0  0  0  0  0  0  0  0  0
   45.9903   31.7309   36.4529 H   0  0  0  0  0  0  0  0  0  0  0  0
   46.1715   29.4718   34.7531 H   0  0  0  0  0  0  0  0  0  0  0  0
   47.2931   27.1567   34.9595 H   0  0  0  0  0  0  0  0  0  0  0  0
   48.6518   28.9326   39.4160 H   0  0  0  0  0  0  0  0  0  0  0  0
  2  1  1  0
  2  3  2  0
  3 10  1  0
  4  3  1  0
  5  4  2  0
  6  7  2  0
  6  5  1  0
  7  2  1  0
  8 13  2  0
  9  8  1  0
 10  9  2  0
 10 11  1  0
 11 12  2  0
 12 13  1  0
 14 15  1  0
 14  7  1  0
 17 14  1  0
 17 16  2  0
 18 17  1  0
 19 18  2  0
 19 23  1  0
 20 21  1  0
 20 19  1  0
 21 22  2  0
 22 23  1  0
 23 24  2  0
 24 16  1  0
  4 25  1  0
  5 26  1  0
  6 27  1  0
  8 28  1  0
  9 29  1  0
 12 30  1  0
 14 31  1  0
 15 32  1  0
 16 33  1  0
 18 34  1  0
 20 35  1  0
 21 36  1  0
 24 37  1  0
M  ISO  8  25  14  26  14  27  14  28  14  29  14  30  14  31   8  32   3
M  ISO  5  33  14  34  14  35   9  36  14  37  14
M  END
>  <minimizedAffinity>  (1) 
-5.29151106

>  <minimizedRMSD>  (1) 
2.15234375

$$$$
