
     RDKit          3D

 34 36  0  0  1  0  0  0  0  0999 V2000
   44.6380   33.0250   41.2300 Br  0  0  0  0  0  0  0  0  0  0  0  0
   46.2870   33.9470   41.0170 C   0  0  0  0  0  0  0  0  0  0  0  0
   46.8290   34.7430   42.0080 C   0  0  0  0  0  0  0  0  0  0  0  0
   48.0410   35.3930   41.7580 C   0  0  0  0  0  0  0  0  0  0  0  0
   48.7060   35.2600   40.5530 C   0  0  0  0  0  0  0  0  0  0  0  0
   48.1510   34.4520   39.5510 C   0  0  0  0  0  0  0  0  0  0  0  0
   46.9690   33.8370   39.8390 C   0  0  0  0  0  0  0  0  0  0  0  0
   44.4930   35.9250   44.7290 C   0  0  0  0  0  0  0  0  0  0  0  0
   45.1890   35.8550   43.5090 C   0  0  0  0  0  0  0  0  0  0  0  0
   46.0880   34.8510   43.2560 C   0  0  0  0  0  0  0  0  0  0  0  0
   46.2270   33.9690   44.2660 N   0  0  0  0  0  0  0  0  0  0  0  0
   45.5760   34.0160   45.4270 C   0  0  0  0  0  0  0  0  0  0  0  0
   44.7140   34.9850   45.6640 N   0  0  0  0  0  0  0  0  0  0  0  0
   46.4430   32.9970   38.8170 C   0  0  0  0  0  0  0  0  0  0  0  0
   45.4460   33.3740   38.0630 O   0  0  0  0  0  0  0  0  0  0  0  0
   46.7550   31.6680   38.3170 C   0  0  0  0  0  0  0  0  0  0  0  0
   47.4980   31.4820   37.1390 C   0  0  0  0  0  0  0  0  0  0  0  0
   47.8790   30.2690   36.6110 C   0  0  0  0  0  0  0  0  0  0  0  0
   47.5110   29.1320   37.2760 C   0  0  0  0  0  0  0  0  0  0  0  0
   46.7820   29.2300   38.4330 C   0  0  0  0  0  0  0  0  0  0  0  0
   46.4370   30.4710   38.9030 C   0  0  0  0  0  0  0  0  0  0  0  0
   48.4782   36.0284   42.5423 H   0  0  0  0  0  0  0  0  0  0  0  0
   49.6592   35.7820   40.3827 H   0  0  0  0  0  0  0  0  0  0  0  0
   48.6462   34.3203   38.5776 H   0  0  0  0  0  0  0  0  0  0  0  0
   43.7768   36.7387   44.9157 H   0  0  0  0  0  0  0  0  0  0  0  0
   45.0084   36.6219   42.7414 H   0  0  0  0  0  0  0  0  0  0  0  0
   45.7580   33.2446   46.1898 H   0  0  0  0  0  0  0  0  0  0  0  0
   47.1520   33.4301   38.0961 H   0  0  0  0  0  0  0  0  0  0  0  0
   44.6898   33.6599   38.6344 H   0  0  0  0  0  0  0  0  0  0  0  0
   47.8021   32.3855   36.5901 H   0  0  0  0  0  0  0  0  0  0  0  0
   48.4630   30.2158   35.6804 H   0  0  0  0  0  0  0  0  0  0  0  0
   47.7982   28.1448   36.8849 H   0  0  0  0  0  0  0  0  0  0  0  0
   46.4776   28.3241   38.9776 H   0  0  0  0  0  0  0  0  0  0  0  0
   45.8525   30.5090   39.8341 H   0  0  0  0  0  0  0  0  0  0  0  0
  2  1  1  0
  2  3  2  0
  3 10  1  0
  4  3  1  0
  5  4  2  0
  6  7  2  0
  6  5  1  0
  7  2  1  0
  8 13  2  0
  9  8  1  0
 10  9  2  0
 10 11  1  0
 11 12  2  0
 12 13  1  0
 14 15  1  0
 14  7  1  0
 16 14  1  0
 16 21  1  0
 17 16  2  0
 18 17  1  0
 18 19  2  0
 19 20  1  0
 20 21  2  0
  4 22  1  0
  5 23  1  0
  6 24  1  0
  8 25  1  0
  9 26  1  0
 12 27  1  0
 14 28  1  0
 15 29  1  0
 17 30  1  0
 18 31  1  0
 19 32  1  0
 20 33  1  0
 21 34  1  0
M  ISO  8  22  14  23  14  24  14  25  14  26  14  27  14  28   8  29   3
M  ISO  5  30  14  31  14  32  14  33  14  34  14
M  END
>  <minimizedAffinity>  (1) 
-5.19117355

>  <minimizedRMSD>  (1) 
1.49888456

$$$$
