
     RDKit          3D

 23 24  0  0  0  0  0  0  0  0999 V2000
   44.5850   32.9990   41.2140 Br  0  0  0  0  0  0  0  0  0  0  0  0
   46.2410   33.9110   40.9740 C   0  0  0  0  0  0  0  0  0  0  0  0
   46.8010   34.7350   41.9430 C   0  0  0  0  0  0  0  0  0  0  0  0
   48.0070   35.3470   41.6670 C   0  0  0  0  0  0  0  0  0  0  0  0
   48.6680   35.1700   40.4710 C   0  0  0  0  0  0  0  0  0  0  0  0
   48.1280   34.3570   39.4990 C   0  0  0  0  0  0  0  0  0  0  0  0
   46.9370   33.7610   39.7910 C   0  0  0  0  0  0  0  0  0  0  0  0
   44.4880   36.0280   44.6390 C   0  0  0  0  0  0  0  0  0  0  0  0
   45.1830   35.9190   43.4250 C   0  0  0  0  0  0  0  0  0  0  0  0
   46.0600   34.8860   43.1880 C   0  0  0  0  0  0  0  0  0  0  0  0
   46.1960   33.9890   44.2180 N   0  0  0  0  0  0  0  0  0  0  0  0
   45.5290   34.0990   45.3740 C   0  0  0  0  0  0  0  0  0  0  0  0
   44.6890   35.0990   45.5850 N   0  0  0  0  0  0  0  0  0  0  0  0
   46.3660   32.8760   38.7750 C   0  0  0  0  0  0  0  0  0  0  0  0
   45.6360   33.3220   37.8560 O   0  0  0  0  0  0  0  0  0  0  0  0
   46.5050   31.5010   38.6410 O   0  0  0  0  0  0  0  0  0  0  0  0
   48.4568   35.9998   42.4296 H   0  0  0  0  0  0  0  0  0  0  0  0
   49.6271   35.6781   40.2924 H   0  0  0  0  0  0  0  0  0  0  0  0
   48.6327   34.1965   38.5349 H   0  0  0  0  0  0  0  0  0  0  0  0
   43.7905   36.8609   44.8117 H   0  0  0  0  0  0  0  0  0  0  0  0
   45.0228   36.6774   42.6445 H   0  0  0  0  0  0  0  0  0  0  0  0
   45.6820   33.3457   46.1608 H   0  0  0  0  0  0  0  0  0  0  0  0
   46.0562   31.0284   37.8958 H   0  0  0  0  0  0  0  0  0  0  0  0
  2  1  1  0
  2  3  2  0
  3 10  1  0
  4  3  1  0
  5  4  2  0
  6  7  2  0
  6  5  1  0
  7  2  1  0
  8 13  2  0
  9  8  1  0
 10  9  2  0
 10 11  1  0
 11 12  2  0
 12 13  1  0
 14  7  1  0
 15 14  2  0
 16 14  1  0
  4 17  1  0
  5 18  1  0
  6 19  1  0
  8 20  1  0
  9 21  1  0
 12 22  1  0
 16 23  1  0
M  ISO  7  17  14  18  14  19  14  20  14  21  14  22  14  23   3
M  END
>  <minimizedAffinity>  (1) 
-5.12647104

>  <minimizedRMSD>  (1) 
0.371279657

$$$$
