
     RDKit          3D

 17 18  0  0  0  0  0  0  0  0999 V2000
   44.5500   35.8740   44.4080 C   0  0  0  0  0  0  0  0  0  0  0  0
   45.2980   35.6000   43.2400 C   0  0  0  0  0  0  0  0  0  0  0  0
   46.2080   34.5190   43.2780 C   0  0  0  0  0  0  0  0  0  0  0  0
   46.3020   33.8160   44.4380 N   0  0  0  0  0  0  0  0  0  0  0  0
   45.5790   34.0960   45.5360 C   0  0  0  0  0  0  0  0  0  0  0  0
   44.7040   35.1240   45.5260 N   0  0  0  0  0  0  0  0  0  0  0  0
   45.7300   33.3000   46.7470 C   0  0  0  0  0  0  0  0  0  0  0  0
   46.8550   32.5470   47.0700 C   0  0  0  0  0  0  0  0  0  0  0  0
   46.6240   31.9450   48.2760 C   0  0  0  0  0  0  0  0  0  0  0  0
   45.3900   32.3180   48.6820 N   0  0  0  0  0  0  0  0  0  0  0  0
   44.8750   33.1320   47.7450 N   0  0  0  0  0  0  0  0  0  0  0  0
   43.8327   36.7080   44.4092 H   0  0  0  0  0  0  0  0  0  0  0  0
   45.1758   36.2081   42.3315 H   0  0  0  0  0  0  0  0  0  0  0  0
   46.8179   34.2561   42.4011 H   0  0  0  0  0  0  0  0  0  0  0  0
   47.7676   32.4528   46.4632 H   0  0  0  0  0  0  0  0  0  0  0  0
   47.3146   31.2803   48.8157 H   0  0  0  0  0  0  0  0  0  0  0  0
   44.9263   32.0294   49.5552 H   0  0  0  0  0  0  0  0  0  0  0  0
  1  6  2  0
  2  3  2  0
  2  1  1  0
  3  4  1  0
  4  5  2  0
  5  7  1  0
  6  5  1  0
  7  8  1  0
  7 11  2  0
  8  9  2  0
  9 10  1  0
 11 10  1  0
  1 12  1  0
  2 13  1  0
  3 14  1  0
  8 15  1  0
  9 16  1  0
 10 17  1  0
M  ISO  6  12  14  13  14  14  14  15  14  16  14  17   9
M  END
>  <minimizedAffinity>  (1) 
-4.14631319

>  <minimizedRMSD>  (1) 
0.424900681

$$$$
