
     RDKit          3D

 24 26  0  0  0  0  0  0  0  0999 V2000
   46.1000   33.4250   45.7700 C   0  0  0  0  0  0  0  0  0  0  0  0
   45.1540   34.4270   45.5260 C   0  0  0  0  0  0  0  0  0  0  0  0
   45.3690   34.9240   44.2800 C   0  0  0  0  0  0  0  0  0  0  0  0
   46.4140   34.2520   43.7720 N   0  0  0  0  0  0  0  0  0  0  0  0
   46.8420   33.3540   44.6820 N   0  0  0  0  0  0  0  0  0  0  0  0
   47.5500   31.6110   48.6180 C   0  0  0  0  0  0  0  0  0  0  0  0
   46.4050   31.1950   49.3170 C   0  0  0  0  0  0  0  0  0  0  0  0
   45.1230   31.5420   48.8050 C   0  0  0  0  0  0  0  0  0  0  0  0
   45.0930   32.2650   47.6520 N   0  0  0  0  0  0  0  0  0  0  0  0
   46.1970   32.6520   47.0010 C   0  0  0  0  0  0  0  0  0  0  0  0
   47.4150   32.3240   47.4850 N   0  0  0  0  0  0  0  0  0  0  0  0
   47.0240   34.4050   42.4960 C   0  0  0  0  0  0  0  0  0  0  0  0
   46.4450   33.9070   41.2790 C   0  0  0  0  0  0  0  0  0  0  0  0
   47.1390   34.1240   40.1230 C   0  0  0  0  0  0  0  0  0  0  0  0
   48.3740   34.8100   40.1410 C   0  0  0  0  0  0  0  0  0  0  0  0
   48.5910   35.1930   41.9450 S   0  0  0  0  0  0  0  0  0  0  0  0
   44.3701   34.7561   46.2240 H   0  0  0  0  0  0  0  0  0  0  0  0
   44.7976   35.7222   43.7837 H   0  0  0  0  0  0  0  0  0  0  0  0
   48.5514   31.3554   48.9947 H   0  0  0  0  0  0  0  0  0  0  0  0
   46.4974   30.6109   50.2445 H   0  0  0  0  0  0  0  0  0  0  0  0
   44.1981   31.2395   49.3180 H   0  0  0  0  0  0  0  0  0  0  0  0
   45.4831   33.3734   41.2784 H   0  0  0  0  0  0  0  0  0  0  0  0
   46.7321   33.7608   39.1677 H   0  0  0  0  0  0  0  0  0  0  0  0
   49.0387   35.0551   39.2995 H   0  0  0  0  0  0  0  0  0  0  0  0
  1 10  1  0
  2  1  1  0
  3  2  2  0
  4  3  1  0
  4  5  1  0
  5  1  2  0
  6  7  2  0
  8  7  1  0
  9  8  2  0
 10 11  2  0
 10  9  1  0
 11  6  1  0
 12  4  1  0
 13 12  2  0
 14 15  2  0
 14 13  1  0
 15 16  1  0
 16 12  1  0
  2 17  1  0
  3 18  1  0
  6 19  1  0
  7 20  1  0
  8 21  1  0
 13 22  1  0
 14 23  1  0
 15 24  1  0
M  ISO  8  17  14  18  14  19  14  20  14  21  14  22  14  23  14  24  14
M  END
>  <minimizedAffinity>  (1) 
-4.89994812

>  <minimizedRMSD>  (1) 
7.33969116

$$$$
