
     RDKit          3D

 20 21  0  0  0  0  0  0  0  0999 V2000
   44.4820   35.9320   44.6920 C   0  0  0  0  0  0  0  0  0  0  0  0
   45.1330   35.8770   43.4480 C   0  0  0  0  0  0  0  0  0  0  0  0
   46.0730   34.8450   43.2160 C   0  0  0  0  0  0  0  0  0  0  0  0
   46.2880   33.9560   44.2290 N   0  0  0  0  0  0  0  0  0  0  0  0
   45.6520   34.0290   45.4130 C   0  0  0  0  0  0  0  0  0  0  0  0
   44.7580   35.0110   45.6330 N   0  0  0  0  0  0  0  0  0  0  0  0
   45.9250   33.0520   46.4490 C   0  0  0  0  0  0  0  0  0  0  0  0
   47.0020   32.1560   46.4620 C   0  0  0  0  0  0  0  0  0  0  0  0
   46.9320   31.3990   47.5870 C   0  0  0  0  0  0  0  0  0  0  0  0
   45.8420   31.8170   48.2490 N   0  0  0  0  0  0  0  0  0  0  0  0
   45.2330   32.8120   47.5660 N   0  0  0  0  0  0  0  0  0  0  0  0
   45.2670   31.3810   49.5020 C   0  0  0  0  0  0  0  0  0  0  0  0
   43.7486   36.7261   44.8959 H   0  0  0  0  0  0  0  0  0  0  0  0
   44.9159   36.6225   42.6688 H   0  0  0  0  0  0  0  0  0  0  0  0
   46.6084   34.7627   42.2586 H   0  0  0  0  0  0  0  0  0  0  0  0
   47.7783   32.0784   45.6866 H   0  0  0  0  0  0  0  0  0  0  0  0
   47.6278   30.6041   47.8937 H   0  0  0  0  0  0  0  0  0  0  0  0
   45.8373   31.8134   50.3373 H   0  0  0  0  0  0  0  0  0  0  0  0
   44.2205   31.7146   49.5610 H   0  0  0  0  0  0  0  0  0  0  0  0
   45.3058   30.2833   49.5610 H   0  0  0  0  0  0  0  0  0  0  0  0
  1  6  2  0
  2  1  1  0
  3  2  2  0
  3  4  1  0
  4  5  2  0
  5  6  1  0
  5  7  1  0
  7  8  1  0
  7 11  2  0
  8  9  2  0
  9 10  1  0
 10 12  1  0
 11 10  1  0
  1 13  1  0
  2 14  1  0
  3 15  1  0
  8 16  1  0
  9 17  1  0
 12 18  1  0
 12 19  1  0
 12 20  1  0
M  ISO  8  13  14  14  14  15  14  16  14  17  14  18   8  19   8  20   8
M  END
>  <minimizedAffinity>  (1) 
-4.43485498

>  <minimizedRMSD>  (1) 
0.568177283

$$$$
