
     RDKit          3D

 41 44  0  0  1  0  0  0  0  0999 V2000
   47.7910   32.8210   44.2470 N   0  0  0  0  0  0  0  0  0  0  0  0
   48.4700   33.0780   43.0450 C   0  0  1  0  0  0  0  0  0  0  0  0
   49.1360   31.8030   42.5750 C   0  0  0  0  0  0  0  0  0  0  0  0
   48.0330   30.8890   42.2630 N   0  0  0  0  0  0  0  0  0  0  0  0
   47.3280   30.5180   43.4580 C   0  0  0  0  0  0  0  0  0  0  0  0
   47.0390   31.6270   44.3990 C   0  0  1  0  0  0  0  0  0  0  0  0
   45.4720   33.1690   46.3620 Cl  0  0  0  0  0  0  0  0  0  0  0  0
   46.5270   31.8260   46.8220 C   0  0  0  0  0  0  0  0  0  0  0  0
   47.2260   31.1630   45.8080 C   0  0  0  0  0  0  0  0  0  0  0  0
   48.0650   30.1040   46.1270 C   0  0  0  0  0  0  0  0  0  0  0  0
   48.2210   29.6910   47.4470 C   0  0  0  0  0  0  0  0  0  0  0  0
   47.5160   30.3720   48.4000 C   0  0  0  0  0  0  0  0  0  0  0  0
   46.6770   31.4220   48.1440 C   0  0  0  0  0  0  0  0  0  0  0  0
   45.7730   32.2920   49.3820 Cl  0  0  0  0  0  0  0  0  0  0  0  0
   45.7710   34.1080   40.9790 C   0  0  0  0  0  0  0  0  0  0  0  0
   46.7930   34.1610   40.0540 C   0  0  0  0  0  0  0  0  0  0  0  0
   47.9350   33.7880   40.6850 C   0  0  0  0  0  0  0  0  0  0  0  0
   47.6270   33.5120   41.9650 N   0  0  0  0  0  0  0  0  0  0  0  0
   46.3180   33.7090   42.1240 N   0  0  0  0  0  0  0  0  0  0  0  0
   42.3790   35.4800   41.3510 C   0  0  0  0  0  0  0  0  0  0  0  0
   41.7090   34.9760   40.2180 C   0  0  0  0  0  0  0  0  0  0  0  0
   42.4530   34.1730   39.3530 C   0  0  0  0  0  0  0  0  0  0  0  0
   43.7490   33.9290   39.6470 N   0  0  0  0  0  0  0  0  0  0  0  0
   44.3620   34.4270   40.7420 C   0  0  0  0  0  0  0  0  0  0  0  0
   43.6710   35.2010   41.5910 N   0  0  0  0  0  0  0  0  0  0  0  0
   47.1375   33.6038   44.3919 H   0  0  0  0  0  0  0  0  0  0  0  0
   49.1762   33.8891   43.2760 H   0  0  0  0  0  0  0  0  0  0  0  0
   49.7453   31.9931   41.6791 H   0  0  0  0  0  0  0  0  0  0  0  0
   49.8135   31.3872   43.3354 H   0  0  0  0  0  0  0  0  0  0  0  0
   47.3805   31.3547   41.6163 H   0  0  0  0  0  0  0  0  0  0  0  0
   46.3696   30.0678   43.1601 H   0  0  0  0  0  0  0  0  0  0  0  0
   47.9926   29.8284   43.9990 H   0  0  0  0  0  0  0  0  0  0  0  0
   46.0000   31.8922   44.1536 H   0  0  0  0  0  0  0  0  0  0  0  0
   48.6131   29.5850   45.3269 H   0  0  0  0  0  0  0  0  0  0  0  0
   48.8827   28.8532   47.7119 H   0  0  0  0  0  0  0  0  0  0  0  0
   47.6314   30.0533   49.4465 H   0  0  0  0  0  0  0  0  0  0  0  0
   46.6993   34.4525   38.9975 H   0  0  0  0  0  0  0  0  0  0  0  0
   48.9347   33.7229   40.2306 H   0  0  0  0  0  0  0  0  0  0  0  0
   41.8292   36.1190   42.0577 H   0  0  0  0  0  0  0  0  0  0  0  0
   40.6505   35.2047   40.0250 H   0  0  0  0  0  0  0  0  0  0  0  0
   41.9933   33.7468   38.4491 H   0  0  0  0  0  0  0  0  0  0  0  0
  1  6  1  0
  2  1  1  0
  3  2  1  0
  4  3  1  0
  4  5  1  0
  5  6  1  0
  6  9  1  0
  7  8  1  0
  8 13  2  0
  9 10  2  0
  9  8  1  0
 10 11  1  0
 11 12  2  0
 13 12  1  0
 13 14  1  0
 15 19  2  0
 16 17  2  0
 16 15  1  0
 17 18  1  0
 18 19  1  0
 18  2  1  0
 20 25  2  0
 21 20  1  0
 22 23  1  0
 22 21  2  0
 23 24  2  0
 24 15  1  0
 24 25  1  0
  1 26  1  0
  2 27  1  1
  3 28  1  0
  3 29  1  0
  4 30  1  0
  5 31  1  0
  5 32  1  0
  6 33  1  1
 10 34  1  0
 11 35  1  0
 12 36  1  0
 16 37  1  0
 17 38  1  0
 20 39  1  0
 21 40  1  0
 22 41  1  0
M  ISO  8  26   5  27  13  28  13  29  13  30   5  31  13  32  13  33  13
M  ISO  8  34  14  35  14  36  14  37  14  38  14  39  14  40  14  41  14
M  END
>  <minimizedAffinity>  (1) 
-5.14092541

>  <minimizedRMSD>  (1) 
5.22624922

$$$$
