
     RDKit          3D

 33 35  0  0  1  0  0  0  0  0999 V2000
   47.5340   30.9750   48.5220 N   0  0  0  0  0  0  0  0  0  0  0  0
   47.9260   30.2770   47.3650 C   0  0  1  0  0  0  0  0  0  0  0  0
   47.2220   28.9240   47.3300 C   0  0  0  0  0  0  0  0  0  0  0  0
   45.8100   29.2260   47.2100 N   0  0  0  0  0  0  0  0  0  0  0  0
   45.2900   29.8960   48.3850 C   0  0  0  0  0  0  0  0  0  0  0  0
   46.1970   30.9290   48.9450 C   0  0  2  0  0  0  0  0  0  0  0  0
   46.7640   32.5210   44.8660 C   0  0  0  0  0  0  0  0  0  0  0  0
   47.2210   31.4990   44.0540 C   0  0  0  0  0  0  0  0  0  0  0  0
   47.7170   30.5220   44.8550 C   0  0  0  0  0  0  0  0  0  0  0  0
   47.5650   30.9390   46.1300 N   0  0  0  0  0  0  0  0  0  0  0  0
   46.9920   32.1360   46.1080 N   0  0  0  0  0  0  0  0  0  0  0  0
   44.6820   35.5450   44.7280 C   0  0  0  0  0  0  0  0  0  0  0  0
   45.0380   36.1250   43.4830 C   0  0  0  0  0  0  0  0  0  0  0  0
   46.0000   35.4390   42.7240 C   0  0  0  0  0  0  0  0  0  0  0  0
   46.5210   34.2870   43.2140 N   0  0  0  0  0  0  0  0  0  0  0  0
   46.1510   33.7700   44.4100 C   0  0  0  0  0  0  0  0  0  0  0  0
   45.2360   34.3980   45.1620 N   0  0  0  0  0  0  0  0  0  0  0  0
   45.6090   32.2860   48.7560 C   0  0  0  0  0  0  0  0  0  0  0  0
   44.7640   32.9090   48.1020 O   0  0  0  0  0  0  0  0  0  0  0  0
   47.7627   31.9667   48.3638 H   0  0  0  0  0  0  0  0  0  0  0  0
   49.0219   30.2031   47.4249 H   0  0  0  0  0  0  0  0  0  0  0  0
   47.5640   28.3348   46.4663 H   0  0  0  0  0  0  0  0  0  0  0  0
   47.4372   28.3283   48.2294 H   0  0  0  0  0  0  0  0  0  0  0  0
   45.6699   29.8356   46.3917 H   0  0  0  0  0  0  0  0  0  0  0  0
   44.3401   30.3803   48.1145 H   0  0  0  0  0  0  0  0  0  0  0  0
   45.1685   29.1262   49.1613 H   0  0  0  0  0  0  0  0  0  0  0  0
   46.2654   30.6071   49.9946 H   0  0  0  0  0  0  0  0  0  0  0  0
   47.1883   31.4811   42.9546 H   0  0  0  0  0  0  0  0  0  0  0  0
   48.1595   29.5698   44.5271 H   0  0  0  0  0  0  0  0  0  0  0  0
   43.9317   36.0473   45.3564 H   0  0  0  0  0  0  0  0  0  0  0  0
   44.5842   37.0630   43.1307 H   0  0  0  0  0  0  0  0  0  0  0  0
   46.3254   35.8296   41.7485 H   0  0  0  0  0  0  0  0  0  0  0  0
   46.1050   32.9841   49.4464 H   0  0  0  0  0  0  0  0  0  0  0  0
  1  6  1  0
  2  1  1  0
  3  2  1  0
  4  3  1  0
  4  5  1  0
  5  6  1  0
  7 11  2  0
  8  9  2  0
  8  7  1  0
  9 10  1  0
 10  2  1  0
 11 10  1  0
 12 17  2  0
 13 12  1  0
 14 15  1  0
 14 13  2  0
 15 16  2  0
 16  7  1  0
 16 17  1  0
 18  6  1  0
 19 18  2  0
  1 20  1  0
  2 21  1  1
  3 22  1  0
  3 23  1  0
  4 24  1  0
  5 25  1  0
  5 26  1  0
  6 27  1  1
  8 28  1  0
  9 29  1  0
 12 30  1  0
 13 31  1  0
 14 32  1  0
 18 33  1  0
M  ISO  8  20   5  21  13  22  13  23  13  24   5  25  13  26  13  27  13
M  ISO  6  28  14  29  14  30  14  31  14  32  14  33   6
M  END
>  <minimizedAffinity>  (1) 
-4.84000874

>  <minimizedRMSD>  (1) 
1.74853504

$$$$
