
     RDKit          3D

 38 41  0  0  1  0  0  0  0  0999 V2000
   47.5590   30.0930   47.6510 N   0  0  0  0  0  0  0  0  0  0  0  0
   48.0640   29.8060   46.3580 C   0  0  1  0  0  0  0  0  0  0  0  0
   47.5130   28.4810   45.9080 C   0  0  0  0  0  0  0  0  0  0  0  0
   46.0770   28.6900   45.7730 N   0  0  0  0  0  0  0  0  0  0  0  0
   45.4570   28.9230   47.0510 C   0  0  0  0  0  0  0  0  0  0  0  0
   46.2180   29.8340   47.9630 C   0  0  2  0  0  0  0  0  0  0  0  0
   46.7910   32.5840   44.5580 C   0  0  0  0  0  0  0  0  0  0  0  0
   47.4400   31.9160   43.5310 C   0  0  0  0  0  0  0  0  0  0  0  0
   47.9990   30.7970   44.0540 C   0  0  0  0  0  0  0  0  0  0  0  0
   47.6980   30.7830   45.3760 N   0  0  0  0  0  0  0  0  0  0  0  0
   46.9770   31.8600   45.6510 N   0  0  0  0  0  0  0  0  0  0  0  0
   44.6090   35.4520   45.3040 C   0  0  0  0  0  0  0  0  0  0  0  0
   44.6870   36.2170   44.1340 C   0  0  0  0  0  0  0  0  0  0  0  0
   45.4910   35.7340   43.1040 C   0  0  0  0  0  0  0  0  0  0  0  0
   46.1490   34.5560   43.2930 N   0  0  0  0  0  0  0  0  0  0  0  0
   46.0500   33.8460   44.4320 C   0  0  0  0  0  0  0  0  0  0  0  0
   45.2800   34.2840   45.4520 N   0  0  0  0  0  0  0  0  0  0  0  0
   45.3560   31.0730   48.1700 C   0  0  0  0  0  0  0  0  0  0  0  0
   45.0000   31.3020   49.6390 C   0  0  0  0  0  0  0  0  0  0  0  0
   45.8620   32.2600   48.8780 C   0  0  0  0  0  0  0  0  0  0  0  0
   47.7103   31.0993   47.8105 H   0  0  0  0  0  0  0  0  0  0  0  0
   49.1610   29.8023   46.4392 H   0  0  0  0  0  0  0  0  0  0  0  0
   47.9525   28.1882   44.9431 H   0  0  0  0  0  0  0  0  0  0  0  0
   47.7460   27.6757   46.6202 H   0  0  0  0  0  0  0  0  0  0  0  0
   45.9128   29.5067   45.1672 H   0  0  0  0  0  0  0  0  0  0  0  0
   44.4658   29.3661   46.8744 H   0  0  0  0  0  0  0  0  0  0  0  0
   45.4133   27.9466   47.5557 H   0  0  0  0  0  0  0  0  0  0  0  0
   46.3776   29.3025   48.9127 H   0  0  0  0  0  0  0  0  0  0  0  0
   47.4921   32.2365   42.4800 H   0  0  0  0  0  0  0  0  0  0  0  0
   48.5858   30.0430   43.5089 H   0  0  0  0  0  0  0  0  0  0  0  0
   43.9809   35.8117   46.1323 H   0  0  0  0  0  0  0  0  0  0  0  0
   44.1348   37.1629   44.0320 H   0  0  0  0  0  0  0  0  0  0  0  0
   45.5922   36.2904   42.1605 H   0  0  0  0  0  0  0  0  0  0  0  0
   44.8523   30.9666   47.1979 H   0  0  0  0  0  0  0  0  0  0  0  0
   43.9756   31.5835   49.9243 H   0  0  0  0  0  0  0  0  0  0  0  0
   45.0944   30.7267   50.5718 H   0  0  0  0  0  0  0  0  0  0  0  0
   46.9331   32.3362   49.1165 H   0  0  0  0  0  0  0  0  0  0  0  0
   45.8196   33.3423   48.6861 H   0  0  0  0  0  0  0  0  0  0  0  0
  1  6  1  0
  2  1  1  0
  3  2  1  0
  4  3  1  0
  4  5  1  0
  5  6  1  0
  6 18  1  0
  7 11  2  0
  8  9  2  0
  8  7  1  0
  9 10  1  0
 10 11  1  0
 10  2  1  0
 12 17  2  0
 13 12  1  0
 14 15  1  0
 14 13  2  0
 15 16  2  0
 16  7  1  0
 16 17  1  0
 18 20  1  0
 18 19  1  0
 20 19  1  0
  1 21  1  0
  2 22  1  1
  3 23  1  0
  3 24  1  0
  4 25  1  0
  5 26  1  0
  5 27  1  0
  6 28  1  1
  8 29  1  0
  9 30  1  0
 12 31  1  0
 13 32  1  0
 14 33  1  0
 18 34  1  0
 19 35  1  0
 19 36  1  0
 20 37  1  0
 20 38  1  0
M  ISO  8  21   5  22  13  23  13  24  13  25   5  26  13  27  13  28  13
M  ISO  8  29  14  30  14  31  14  32  14  33  14  34  13  35  13  36  13
M  ISO  2  37  13  38  13
M  END
>  <minimizedAffinity>  (1) 
-5.07025099

>  <minimizedRMSD>  (1) 
2.38766575

$$$$
