
     RDKit          3D

 27 29  0  0  1  0  0  0  0  0999 V2000
   46.4690   32.7080   45.6820 C   0  0  1  0  0  0  0  0  0  0  0  0
   47.0860   32.8800   47.0220 C   0  0  0  0  0  0  0  0  0  0  0  0
   45.7500   32.2200   46.8730 C   0  0  2  0  0  0  0  0  0  0  0  0
   44.5260   35.7440   44.8100 C   0  0  0  0  0  0  0  0  0  0  0  0
   45.0020   36.0390   43.4970 C   0  0  0  0  0  0  0  0  0  0  0  0
   45.9910   35.1780   42.9530 C   0  0  0  0  0  0  0  0  0  0  0  0
   46.4340   34.1350   43.6800 N   0  0  0  0  0  0  0  0  0  0  0  0
   45.9500   33.8910   44.9380 C   0  0  0  0  0  0  0  0  0  0  0  0
   45.0070   34.6950   45.4810 N   0  0  0  0  0  0  0  0  0  0  0  0
   45.1820   31.1030   49.7330 Cl  0  0  0  0  0  0  0  0  0  0  0  0
   45.1750   30.1350   48.3070 C   0  0  0  0  0  0  0  0  0  0  0  0
   45.4450   30.8390   47.1550 C   0  0  0  0  0  0  0  0  0  0  0  0
   45.4340   30.0650   45.9790 C   0  0  0  0  0  0  0  0  0  0  0  0
   45.1750   28.7130   45.9860 C   0  0  0  0  0  0  0  0  0  0  0  0
   44.9160   28.0730   47.1620 C   0  0  0  0  0  0  0  0  0  0  0  0
   44.9160   28.7930   48.3350 C   0  0  0  0  0  0  0  0  0  0  0  0
   46.7978   32.2556   44.7348 H   0  0  0  0  0  0  0  0  0  0  0  0
   47.9672   32.2852   47.3045 H   0  0  0  0  0  0  0  0  0  0  0  0
   47.4785   33.7302   47.5992 H   0  0  0  0  0  0  0  0  0  0  0  0
   44.7533   32.3786   47.3105 H   0  0  0  0  0  0  0  0  0  0  0  0
   43.7593   36.3840   45.2710 H   0  0  0  0  0  0  0  0  0  0  0  0
   44.6178   36.8993   42.9293 H   0  0  0  0  0  0  0  0  0  0  0  0
   46.3922   35.3616   41.9454 H   0  0  0  0  0  0  0  0  0  0  0  0
   45.6402   30.5593   45.0182 H   0  0  0  0  0  0  0  0  0  0  0  0
   45.1770   28.1483   45.0420 H   0  0  0  0  0  0  0  0  0  0  0  0
   44.7093   26.9927   47.1730 H   0  0  0  0  0  0  0  0  0  0  0  0
   44.7084   28.2906   49.2913 H   0  0  0  0  0  0  0  0  0  0  0  0
  1  3  1  0
  1  2  1  0
  3  2  1  0
  3 12  1  0
  4  9  2  0
  5  4  1  0
  6  5  2  0
  6  7  1  0
  7  8  2  0
  8  9  1  0
  8  1  1  0
 11 16  2  0
 11 10  1  0
 12 11  1  0
 13 14  1  0
 13 12  2  0
 14 15  2  0
 15 16  1  0
  1 17  1  6
  2 18  1  0
  2 19  1  0
  3 20  1  1
  4 21  1  0
  5 22  1  0
  6 23  1  0
 13 24  1  0
 14 25  1  0
 15 26  1  0
 16 27  1  0
M  ISO  8  17  13  18  13  19  13  20  13  21  14  22  14  23  14  24  14
M  ISO  3  25  14  26  14  27  14
M  END
>  <minimizedAffinity>  (1) 
-4.90152693

>  <minimizedRMSD>  (1) 
1.42543745

$$$$
