
     RDKit          3D

 40 43  0  0  1  0  0  0  0  0999 V2000
   46.9960   29.6130   47.2470 N   0  0  0  0  0  0  0  0  0  0  0  0
   47.4000   29.3820   45.9240 C   0  0  1  0  0  0  0  0  0  0  0  0
   46.4870   28.3440   45.3190 C   0  0  0  0  0  0  0  0  0  0  0  0
   45.1790   28.9800   45.2700 N   0  0  0  0  0  0  0  0  0  0  0  0
   44.6410   29.1900   46.5940 C   0  0  0  0  0  0  0  0  0  0  0  0
   45.6290   29.6750   47.6020 C   0  0  2  0  0  0  0  0  0  0  0  0
   46.6630   32.5310   44.4630 C   0  0  0  0  0  0  0  0  0  0  0  0
   47.6130   32.0620   43.5560 C   0  0  0  0  0  0  0  0  0  0  0  0
   48.0130   30.8380   43.9730 C   0  0  0  0  0  0  0  0  0  0  0  0
   47.3280   30.5570   45.1080 N   0  0  0  0  0  0  0  0  0  0  0  0
   46.5290   31.5830   45.3790 N   0  0  0  0  0  0  0  0  0  0  0  0
   44.6180   35.4480   45.3470 C   0  0  0  0  0  0  0  0  0  0  0  0
   44.6920   36.2410   44.1970 C   0  0  0  0  0  0  0  0  0  0  0  0
   45.4430   35.7640   43.1340 C   0  0  0  0  0  0  0  0  0  0  0  0
   46.0550   34.5660   43.2750 N   0  0  0  0  0  0  0  0  0  0  0  0
   45.9720   33.8170   44.3880 C   0  0  0  0  0  0  0  0  0  0  0  0
   45.2440   34.2550   45.4490 N   0  0  0  0  0  0  0  0  0  0  0  0
   45.1820   31.0590   48.0250 C   0  0  1  0  0  0  0  0  0  0  0  0
   44.9650   31.2180   49.5300 C   0  0  0  0  0  0  0  0  0  0  0  0
   46.0410   31.9600   48.8220 C   0  0  1  0  0  0  0  0  0  0  0  0
   47.4730   31.5810   49.0810 C   0  0  0  0  0  0  0  0  0  0  0  0
   48.1160   32.3090   48.3100 O   0  0  0  0  0  0  0  0  0  0  0  0
   47.4092   30.5150   47.5237 H   0  0  0  0  0  0  0  0  0  0  0  0
   48.4488   29.0516   45.9543 H   0  0  0  0  0  0  0  0  0  0  0  0
   46.8244   28.0740   44.3074 H   0  0  0  0  0  0  0  0  0  0  0  0
   46.4733   27.4126   45.9040 H   0  0  0  0  0  0  0  0  0  0  0  0
   45.2674   29.8905   44.7966 H   0  0  0  0  0  0  0  0  0  0  0  0
   43.8336   29.9335   46.5212 H   0  0  0  0  0  0  0  0  0  0  0  0
   44.2958   28.2071   46.9472 H   0  0  0  0  0  0  0  0  0  0  0  0
   45.6162   28.9666   48.4434 H   0  0  0  0  0  0  0  0  0  0  0  0
   47.9728   32.5920   42.6618 H   0  0  0  0  0  0  0  0  0  0  0  0
   48.7556   30.1918   43.4821 H   0  0  0  0  0  0  0  0  0  0  0  0
   44.0272   35.8097   46.2015 H   0  0  0  0  0  0  0  0  0  0  0  0
   44.1726   37.2089   44.1383 H   0  0  0  0  0  0  0  0  0  0  0  0
   45.5384   36.3426   42.2033 H   0  0  0  0  0  0  0  0  0  0  0  0
   44.6282   31.2100   47.0866 H   0  0  0  0  0  0  0  0  0  0  0  0
   44.0810   31.7521   49.9085 H   0  0  0  0  0  0  0  0  0  0  0  0
   44.9170   30.5374   50.3929 H   0  0  0  0  0  0  0  0  0  0  0  0
   46.3162   33.0216   48.7367 H   0  0  0  0  0  0  0  0  0  0  0  0
   47.8597   30.8330   49.7888 H   0  0  0  0  0  0  0  0  0  0  0  0
  1  6  1  0
  2  1  1  0
  3  2  1  0
  4  3  1  0
  4  5  1  0
  5  6  1  0
  6 18  1  0
  7 11  2  0
  8  9  2  0
  8  7  1  0
  9 10  1  0
 10 11  1  0
 10  2  1  0
 12 17  2  0
 13 12  1  0
 14 15  1  0
 14 13  2  0
 15 16  2  0
 16  7  1  0
 16 17  1  0
 18 20  1  0
 18 19  1  0
 20 21  1  0
 20 19  1  0
 22 21  2  0
  1 23  1  0
  2 24  1  1
  3 25  1  0
  3 26  1  0
  4 27  1  0
  5 28  1  0
  5 29  1  0
  6 30  1  1
  8 31  1  0
  9 32  1  0
 12 33  1  0
 13 34  1  0
 14 35  1  0
 18 36  1  6
 19 37  1  0
 19 38  1  0
 20 39  1  6
 21 40  1  0
M  ISO  8  23   5  24  13  25  13  26  13  27   5  28  13  29  13  30  13
M  ISO  8  31  14  32  14  33  14  34  14  35  14  36  13  37  13  38  13
M  ISO  2  39  13  40   6
M  END
>  <minimizedAffinity>  (1) 
-5.24262381

>  <minimizedRMSD>  (1) 
0.704972684

$$$$
