
     RDKit          3D

 45 49  0  0  1  0  0  0  0  0999 V2000
   47.7730   29.7450   47.5460 N   0  0  0  0  0  0  0  0  0  0  0  0
   48.5000   29.0170   46.5790 C   0  0  1  0  0  0  0  0  0  0  0  0
   47.9530   27.6120   46.4990 C   0  0  0  0  0  0  0  0  0  0  0  0
   46.6050   27.7600   45.9960 N   0  0  0  0  0  0  0  0  0  0  0  0
   45.7490   28.4200   46.9450 C   0  0  0  0  0  0  0  0  0  0  0  0
   46.3700   29.5960   47.6390 C   0  0  2  0  0  0  0  0  0  0  0  0
   47.9890   31.0690   43.7390 C   0  0  0  0  0  0  0  0  0  0  0  0
   48.4890   29.9260   43.1200 C   0  0  0  0  0  0  0  0  0  0  0  0
   48.7430   29.0160   44.0870 C   0  0  0  0  0  0  0  0  0  0  0  0
   48.4090   29.5850   45.2700 N   0  0  0  0  0  0  0  0  0  0  0  0
   47.9650   30.8010   45.0320 N   0  0  0  0  0  0  0  0  0  0  0  0
   46.1110   33.4750   41.7070 C   0  0  0  0  0  0  0  0  0  0  0  0
   46.8600   34.6480   41.8190 C   0  0  0  0  0  0  0  0  0  0  0  0
   48.0220   34.5880   42.6060 C   0  0  0  0  0  0  0  0  0  0  0  0
   48.3360   33.4090   43.1980 N   0  0  0  0  0  0  0  0  0  0  0  0
   47.5830   32.3020   43.0610 C   0  0  0  0  0  0  0  0  0  0  0  0
   46.4570   32.3250   42.3100 N   0  0  0  0  0  0  0  0  0  0  0  0
   45.5760   30.8360   47.2170 C   0  0  1  0  0  0  0  0  0  0  0  0
   44.9200   31.5160   48.4120 C   0  0  0  0  0  0  0  0  0  0  0  0
   45.9750   32.1870   47.5930 C   0  0  2  0  0  0  0  0  0  0  0  0
   45.3890   33.3770   46.9020 C   0  0  0  0  0  0  0  0  0  0  0  0
   45.6970   33.7640   45.5900 C   0  0  0  0  0  0  0  0  0  0  0  0
   44.9960   34.8840   45.1960 C   0  0  0  0  0  0  0  0  0  0  0  0
   44.2640   35.1560   46.3030 N   0  0  0  0  0  0  0  0  0  0  0  0
   44.4870   34.2990   47.2780 N   0  0  0  0  0  0  0  0  0  0  0  0
   47.9542   30.7426   47.3647 H   0  0  0  0  0  0  0  0  0  0  0  0
   49.5530   29.0368   46.8964 H   0  0  0  0  0  0  0  0  0  0  0  0
   48.5567   27.0012   45.8116 H   0  0  0  0  0  0  0  0  0  0  0  0
   47.9752   27.1051   47.4750 H   0  0  0  0  0  0  0  0  0  0  0  0
   46.6320   28.3155   45.1290 H   0  0  0  0  0  0  0  0  0  0  0  0
   44.8531   28.7709   46.4119 H   0  0  0  0  0  0  0  0  0  0  0  0
   45.5255   27.6804   47.7279 H   0  0  0  0  0  0  0  0  0  0  0  0
   46.2893   29.4196   48.7218 H   0  0  0  0  0  0  0  0  0  0  0  0
   48.6483   29.7886   42.0403 H   0  0  0  0  0  0  0  0  0  0  0  0
   49.1456   28.0029   43.9405 H   0  0  0  0  0  0  0  0  0  0  0  0
   45.1957   33.4931   41.0972 H   0  0  0  0  0  0  0  0  0  0  0  0
   46.5543   35.5763   41.3142 H   0  0  0  0  0  0  0  0  0  0  0  0
   48.6604   35.4739   42.7386 H   0  0  0  0  0  0  0  0  0  0  0  0
   45.3070   30.4167   46.2363 H   0  0  0  0  0  0  0  0  0  0  0  0
   43.8742   31.8524   48.3554 H   0  0  0  0  0  0  0  0  0  0  0  0
   44.7771   31.2787   49.4766 H   0  0  0  0  0  0  0  0  0  0  0  0
   46.9814   32.6126   47.7192 H   0  0  0  0  0  0  0  0  0  0  0  0
   46.4162   33.2343   44.9480 H   0  0  0  0  0  0  0  0  0  0  0  0
   45.0238   35.4172   44.2343 H   0  0  0  0  0  0  0  0  0  0  0  0
   43.6061   35.9453   46.3743 H   0  0  0  0  0  0  0  0  0  0  0  0
  1  6  1  0
  2  1  1  0
  3  2  1  0
  4  3  1  0
  4  5  1  0
  5  6  1  0
  7 11  2  0
  8  7  1  0
  8  9  2  0
  9 10  1  0
 10  2  1  0
 11 10  1  0
 12 13  2  0
 12 17  1  0
 13 14  1  0
 14 15  2  0
 16 15  1  0
 16  7  1  0
 17 16  2  0
 18 20  1  0
 18  6  1  0
 18 19  1  0
 20 19  1  0
 21 25  2  0
 21 20  1  0
 22 21  1  0
 23 22  2  0
 23 24  1  0
 24 25  1  0
  1 26  1  0
  2 27  1  1
  3 28  1  0
  3 29  1  0
  4 30  1  0
  5 31  1  0
  5 32  1  0
  6 33  1  1
  8 34  1  0
  9 35  1  0
 12 36  1  0
 13 37  1  0
 14 38  1  0
 18 39  1  6
 19 40  1  0
 19 41  1  0
 20 42  1  1
 22 43  1  0
 23 44  1  0
 24 45  1  0
M  ISO  8  26   5  27  13  28  13  29  13  30   5  31  13  32  13  33  13
M  ISO  8  34  14  35  14  36  14  37  14  38  14  39  13  40  13  41  13
M  ISO  4  42  13  43  14  44  14  45   9
M  END
>  <minimizedAffinity>  (1) 
-5.10973787

>  <minimizedRMSD>  (1) 
2.29649806

$$$$
