
     RDKit          3D

 44 47  0  0  1  0  0  0  0  0999 V2000
   48.4520   29.7560   46.3170 N   0  0  0  0  0  0  0  0  0  0  0  0
   48.4660   29.6250   44.9150 C   0  0  1  0  0  0  0  0  0  0  0  0
   47.5250   28.5200   44.5160 C   0  0  0  0  0  0  0  0  0  0  0  0
   46.2110   28.9930   44.8910 N   0  0  0  0  0  0  0  0  0  0  0  0
   46.0640   29.0780   46.3260 C   0  0  0  0  0  0  0  0  0  0  0  0
   47.2440   29.6430   47.0440 C   0  0  2  0  0  0  0  0  0  0  0  0
   47.0020   32.7050   43.9440 C   0  0  0  0  0  0  0  0  0  0  0  0
   47.7220   32.4180   42.7920 C   0  0  0  0  0  0  0  0  0  0  0  0
   48.3630   31.2420   42.9900 C   0  0  0  0  0  0  0  0  0  0  0  0
   48.0380   30.8170   44.2430 N   0  0  0  0  0  0  0  0  0  0  0  0
   47.2290   31.7070   44.7860 N   0  0  0  0  0  0  0  0  0  0  0  0
   44.7350   35.1500   45.4840 C   0  0  0  0  0  0  0  0  0  0  0  0
   44.6100   36.1310   44.4960 C   0  0  0  0  0  0  0  0  0  0  0  0
   45.3070   35.9380   43.3170 C   0  0  0  0  0  0  0  0  0  0  0  0
   46.0660   34.8140   43.1870 N   0  0  0  0  0  0  0  0  0  0  0  0
   46.1610   33.8930   44.1590 C   0  0  0  0  0  0  0  0  0  0  0  0
   45.4970   34.0450   45.3260 N   0  0  0  0  0  0  0  0  0  0  0  0
   46.8010   30.9500   47.6730 C   0  0  1  0  0  0  0  0  0  0  0  0
   46.1210   30.7940   49.0330 C   0  0  0  0  0  0  0  0  0  0  0  0
   47.4320   31.5000   48.8910 C   0  0  1  0  0  0  0  0  0  0  0  0
   48.6160   30.8310   49.5340 C   0  0  0  0  0  0  0  0  0  0  0  0
   49.7800   31.7980   49.4850 C   0  0  0  0  0  0  0  0  0  0  0  0
   48.8358   30.6881   46.5285 H   0  0  0  0  0  0  0  0  0  0  0  0
   49.5053   29.4131   44.6235 H   0  0  0  0  0  0  0  0  0  0  0  0
   47.7694   27.5915   45.0529 H   0  0  0  0  0  0  0  0  0  0  0  0
   47.5901   28.2897   43.4423 H   0  0  0  0  0  0  0  0  0  0  0  0
   46.0639   29.9278   44.4843 H   0  0  0  0  0  0  0  0  0  0  0  0
   45.1939   29.7149   46.5437 H   0  0  0  0  0  0  0  0  0  0  0  0
   45.9474   28.0454   46.6869 H   0  0  0  0  0  0  0  0  0  0  0  0
   47.5434   28.9059   47.8037 H   0  0  0  0  0  0  0  0  0  0  0  0
   47.7640   33.0350   41.8823 H   0  0  0  0  0  0  0  0  0  0  0  0
   49.0214   30.7272   42.2748 H   0  0  0  0  0  0  0  0  0  0  0  0
   44.1900   35.2831   46.4302 H   0  0  0  0  0  0  0  0  0  0  0  0
   43.9823   37.0211   44.6501 H   0  0  0  0  0  0  0  0  0  0  0  0
   45.2498   36.6753   42.5027 H   0  0  0  0  0  0  0  0  0  0  0  0
   46.5935   31.3977   46.6899 H   0  0  0  0  0  0  0  0  0  0  0  0
   45.2079   31.3621   49.2644 H   0  0  0  0  0  0  0  0  0  0  0  0
   45.7417   29.9521   49.6308 H   0  0  0  0  0  0  0  0  0  0  0  0
   47.8317   32.4978   49.1246 H   0  0  0  0  0  0  0  0  0  0  0  0
   48.3818   30.5806   50.5792 H   0  0  0  0  0  0  0  0  0  0  0  0
   48.8670   29.9018   49.0015 H   0  0  0  0  0  0  0  0  0  0  0  0
   50.0877   32.0536   50.5097 H   0  0  0  0  0  0  0  0  0  0  0  0
   50.6229   31.3306   48.9549 H   0  0  0  0  0  0  0  0  0  0  0  0
   49.4751   32.7123   48.9549 H   0  0  0  0  0  0  0  0  0  0  0  0
  1  6  1  0
  2  1  1  0
  3  4  1  0
  3  2  1  0
  4  5  1  0
  5  6  1  0
  6 18  1  0
  7 16  1  0
  7 11  2  0
  8  9  2  0
  8  7  1  0
  9 10  1  0
 10 11  1  0
 10  2  1  0
 13 12  2  0
 14 13  1  0
 15 14  2  0
 15 16  1  0
 16 17  2  0
 17 12  1  0
 18 20  1  0
 18 19  1  0
 20 19  1  0
 20 21  1  0
 22 21  1  0
  1 23  1  0
  2 24  1  6
  3 25  1  0
  3 26  1  0
  4 27  1  0
  5 28  1  0
  5 29  1  0
  6 30  1  1
  8 31  1  0
  9 32  1  0
 12 33  1  0
 13 34  1  0
 14 35  1  0
 18 36  1  6
 19 37  1  0
 19 38  1  0
 20 39  1  6
 21 40  1  0
 21 41  1  0
 22 42  1  0
 22 43  1  0
 22 44  1  0
M  ISO  8  23   5  24  13  25  13  26  13  27   5  28  13  29  13  30  13
M  ISO  8  31  14  32  14  33  14  34  14  35  14  36  13  37  13  38  13
M  ISO  6  39  13  40   8  41   8  42   8  43   8  44   8
M  END
>  <minimizedAffinity>  (1) 
-4.91792679

>  <minimizedRMSD>  (1) 
1.2556721

$$$$
