
     RDKit          3D

 44 47  0  0  1  0  0  0  0  0999 V2000
   46.5710   29.0690   47.1300 N   0  0  0  0  0  0  0  0  0  0  0  0
   46.8410   28.8710   45.7570 C   0  0  1  0  0  0  0  0  0  0  0  0
   45.7870   27.9650   45.1760 C   0  0  0  0  0  0  0  0  0  0  0  0
   44.5580   28.7210   45.2630 N   0  0  0  0  0  0  0  0  0  0  0  0
   44.1450   28.9020   46.6330 C   0  0  0  0  0  0  0  0  0  0  0  0
   45.2430   29.2490   47.5810 C   0  0  2  0  0  0  0  0  0  0  0  0
   46.3230   32.1340   44.4820 C   0  0  0  0  0  0  0  0  0  0  0  0
   47.1700   31.6400   43.5060 C   0  0  0  0  0  0  0  0  0  0  0  0
   47.4810   30.3640   43.8410 C   0  0  0  0  0  0  0  0  0  0  0  0
   46.8300   30.0890   45.0040 N   0  0  0  0  0  0  0  0  0  0  0  0
   46.1450   31.1610   45.3680 N   0  0  0  0  0  0  0  0  0  0  0  0
   44.7190   35.2340   45.6740 C   0  0  0  0  0  0  0  0  0  0  0  0
   44.6580   36.0140   44.5110 C   0  0  0  0  0  0  0  0  0  0  0  0
   45.1700   35.4590   43.3350 C   0  0  0  0  0  0  0  0  0  0  0  0
   45.6910   34.2110   43.3860 N   0  0  0  0  0  0  0  0  0  0  0  0
   45.7390   33.4800   44.5180 C   0  0  0  0  0  0  0  0  0  0  0  0
   45.2540   33.9820   45.6750 N   0  0  0  0  0  0  0  0  0  0  0  0
   44.9710   30.6470   48.0980 C   0  0  1  0  0  0  0  0  0  0  0  0
   44.6750   30.7210   49.5930 C   0  0  0  0  0  0  0  0  0  0  0  0
   45.8830   31.3640   48.9870 C   0  0  1  0  0  0  0  0  0  0  0  0
   47.0940   30.8280   49.4090 O   0  0  0  0  0  0  0  0  0  0  0  0
   49.3410   32.2080   49.4850 O   0  0  0  0  0  0  0  0  0  0  0  0
   48.3100   31.6180   48.5320 P   0  0  0  0  0  0  0  0  0  0  0  0
   49.0890   30.5370   47.4610 O   0  0  0  0  0  0  0  0  0  0  0  0
   47.6920   32.9000   47.6180 O   0  0  0  0  0  0  0  0  0  0  0  0
   47.0962   29.9076   47.4162 H   0  0  0  0  0  0  0  0  0  0  0  0
   47.8485   28.4345   45.6897 H   0  0  0  0  0  0  0  0  0  0  0  0
   45.7116   27.0353   45.7590 H   0  0  0  0  0  0  0  0  0  0  0  0
   46.0191   27.6692   44.1422 H   0  0  0  0  0  0  0  0  0  0  0  0
   44.7023   29.6453   44.8320 H   0  0  0  0  0  0  0  0  0  0  0  0
   43.4011   29.7118   46.6611 H   0  0  0  0  0  0  0  0  0  0  0  0
   43.7468   27.9319   46.9651 H   0  0  0  0  0  0  0  0  0  0  0  0
   45.2119   28.5056   48.3912 H   0  0  0  0  0  0  0  0  0  0  0  0
   47.5264   32.1841   42.6189 H   0  0  0  0  0  0  0  0  0  0  0  0
   48.1352   29.6807   43.2796 H   0  0  0  0  0  0  0  0  0  0  0  0
   44.3228   35.6457   46.6140 H   0  0  0  0  0  0  0  0  0  0  0  0
   44.2237   37.0245   44.5235 H   0  0  0  0  0  0  0  0  0  0  0  0
   45.1500   36.0229   42.3908 H   0  0  0  0  0  0  0  0  0  0  0  0
   44.5054   30.9401   47.1455 H   0  0  0  0  0  0  0  0  0  0  0  0
   43.8443   31.3385   49.9653 H   0  0  0  0  0  0  0  0  0  0  0  0
   44.4857   29.9957   50.3981 H   0  0  0  0  0  0  0  0  0  0  0  0
   46.3154   32.3725   48.9096 H   0  0  0  0  0  0  0  0  0  0  0  0
   49.5812   29.8539   47.9818 H   0  0  0  0  0  0  0  0  0  0  0  0
   47.3524   33.6045   48.2250 H   0  0  0  0  0  0  0  0  0  0  0  0
  1  6  1  0
  2  1  1  0
  3  4  1  0
  3  2  1  0
  4  5  1  0
  5  6  1  0
  6 18  1  0
  7 16  1  0
  7 11  2  0
  8  9  2  0
  8  7  1  0
  9 10  1  0
 10 11  1  0
 10  2  1  0
 12 17  2  0
 13 12  1  0
 14 15  1  0
 14 13  2  0
 15 16  2  0
 16 17  1  0
 18 20  1  0
 18 19  1  0
 20 21  1  0
 20 19  1  0
 23 21  1  0
 23 22  2  0
 24 23  1  0
 25 23  1  0
  1 26  1  0
  2 27  1  1
  3 28  1  0
  3 29  1  0
  4 30  1  0
  5 31  1  0
  5 32  1  0
  6 33  1  1
  8 34  1  0
  9 35  1  0
 12 36  1  0
 13 37  1  0
 14 38  1  0
 18 39  1  6
 19 40  1  0
 19 41  1  0
 20 42  1  6
 24 43  1  0
 25 44  1  0
M  ISO  8  26   5  27  13  28  13  29  13  30   5  31  13  32  13  33  13
M  ISO  8  34  14  35  14  36  14  37  14  38  14  39  13  40  13  41  13
M  ISO  3  42  13  43   3  44   3
M  END
>  <minimizedAffinity>  (1) 
-4.75098372

>  <minimizedRMSD>  (1) 
1.2030822

$$$$
