
     RDKit          3D

 24 26  0  0  1  0  0  0  0  0999 V2000
   46.3890   32.5430   46.2690 C   0  0  1  0  0  0  0  0  0  0  0  0
   47.1550   32.7790   47.5140 C   0  0  0  0  0  0  0  0  0  0  0  0
   45.7110   32.3070   47.5720 C   0  0  2  0  0  0  0  0  0  0  0  0
   44.5550   35.5280   45.0720 C   0  0  0  0  0  0  0  0  0  0  0  0
   45.0970   35.6950   43.7630 C   0  0  0  0  0  0  0  0  0  0  0  0
   46.0920   34.7820   43.3220 C   0  0  0  0  0  0  0  0  0  0  0  0
   46.4720   33.7990   44.1720 N   0  0  0  0  0  0  0  0  0  0  0  0
   45.9300   33.6750   45.4090 C   0  0  0  0  0  0  0  0  0  0  0  0
   44.9970   34.5200   45.8440 N   0  0  0  0  0  0  0  0  0  0  0  0
   45.4210   30.8770   47.8210 C   0  0  0  0  0  0  0  0  0  0  0  0
   45.2480   29.9010   46.8960 C   0  0  0  0  0  0  0  0  0  0  0  0
   45.0010   28.7340   47.6090 C   0  0  0  0  0  0  0  0  0  0  0  0
   45.0330   29.0440   48.9210 N   0  0  0  0  0  0  0  0  0  0  0  0
   45.2860   30.3340   49.0640 N   0  0  0  0  0  0  0  0  0  0  0  0
   46.5831   31.9436   45.3673 H   0  0  0  0  0  0  0  0  0  0  0  0
   47.9701   32.0970   47.7978 H   0  0  0  0  0  0  0  0  0  0  0  0
   47.7182   33.6242   47.9364 H   0  0  0  0  0  0  0  0  0  0  0  0
   44.8271   32.6701   48.1169 H   0  0  0  0  0  0  0  0  0  0  0  0
   43.7833   36.2170   45.4459 H   0  0  0  0  0  0  0  0  0  0  0  0
   44.7527   36.5111   43.1108 H   0  0  0  0  0  0  0  0  0  0  0  0
   46.5398   34.8709   42.3212 H   0  0  0  0  0  0  0  0  0  0  0  0
   45.2939   30.0107   45.8024 H   0  0  0  0  0  0  0  0  0  0  0  0
   44.8134   27.7382   47.1809 H   0  0  0  0  0  0  0  0  0  0  0  0
   44.8834   28.3785   49.6928 H   0  0  0  0  0  0  0  0  0  0  0  0
  1  2  1  0
  1  3  1  0
  2  3  1  0
  3 10  1  0
  4  9  2  0
  5  4  1  0
  6  5  2  0
  6  7  1  0
  7  8  2  0
  8  9  1  0
  8  1  1  0
 10 14  2  0
 11 12  2  0
 11 10  1  0
 12 13  1  0
 13 14  1  0
  1 15  1  6
  2 16  1  0
  2 17  1  0
  3 18  1  1
  4 19  1  0
  5 20  1  0
  6 21  1  0
 11 22  1  0
 12 23  1  0
 13 24  1  0
M  ISO  8  15  13  16  13  17  13  18  13  19  14  20  14  21  14  22  14
M  ISO  2  23  14  24   9
M  END
>  <minimizedAffinity>  (1) 
-4.70840931

>  <minimizedRMSD>  (1) 
0.937230468

$$$$
