
     RDKit          3D

 41 44  0  0  1  0  0  0  0  0999 V2000
   47.0590   29.6140   47.1770 N   0  0  0  0  0  0  0  0  0  0  0  0
   47.3860   29.3740   45.8270 C   0  0  1  0  0  0  0  0  0  0  0  0
   46.4360   28.3530   45.2750 C   0  0  0  0  0  0  0  0  0  0  0  0
   45.1400   28.9940   45.2930 N   0  0  0  0  0  0  0  0  0  0  0  0
   44.6660   29.2270   46.6360 C   0  0  0  0  0  0  0  0  0  0  0  0
   45.7120   29.7010   47.5940 C   0  0  2  0  0  0  0  0  0  0  0  0
   46.6360   32.5160   44.3810 C   0  0  0  0  0  0  0  0  0  0  0  0
   47.5250   32.0360   43.4410 C   0  0  0  0  0  0  0  0  0  0  0  0
   47.9290   30.8010   43.8440 C   0  0  0  0  0  0  0  0  0  0  0  0
   47.2920   30.5450   45.0110 N   0  0  0  0  0  0  0  0  0  0  0  0
   46.5230   31.5850   45.3140 N   0  0  0  0  0  0  0  0  0  0  0  0
   44.6270   35.4480   45.3300 C   0  0  0  0  0  0  0  0  0  0  0  0
   44.7010   36.2630   44.1950 C   0  0  0  0  0  0  0  0  0  0  0  0
   45.4380   35.7920   43.1220 C   0  0  0  0  0  0  0  0  0  0  0  0
   46.0430   34.5770   43.2340 N   0  0  0  0  0  0  0  0  0  0  0  0
   45.9500   33.8200   44.3440 C   0  0  0  0  0  0  0  0  0  0  0  0
   45.2410   34.2450   45.4070 N   0  0  0  0  0  0  0  0  0  0  0  0
   45.3100   31.0960   48.0300 C   0  0  1  0  0  0  0  0  0  0  0  0
   45.1620   31.2670   49.5390 C   0  0  0  0  0  0  0  0  0  0  0  0
   46.2170   31.9860   48.7720 C   0  0  1  0  0  0  0  0  0  0  0  0
   47.6830   31.5920   48.9540 C   0  0  0  0  0  0  0  0  0  0  0  0
   47.5029   30.5079   47.4316 H   0  0  0  0  0  0  0  0  0  0  0  0
   48.4301   29.0284   45.8055 H   0  0  0  0  0  0  0  0  0  0  0  0
   46.4294   27.4514   45.9052 H   0  0  0  0  0  0  0  0  0  0  0  0
   46.7214   28.0299   44.2630 H   0  0  0  0  0  0  0  0  0  0  0  0
   45.2102   29.8980   44.8044 H   0  0  0  0  0  0  0  0  0  0  0  0
   43.8718   29.9869   46.5921 H   0  0  0  0  0  0  0  0  0  0  0  0
   44.3149   28.2557   47.0146 H   0  0  0  0  0  0  0  0  0  0  0  0
   45.7265   28.9956   48.4379 H   0  0  0  0  0  0  0  0  0  0  0  0
   47.8491   32.5585   42.5289 H   0  0  0  0  0  0  0  0  0  0  0  0
   48.6360   30.1388   43.3228 H   0  0  0  0  0  0  0  0  0  0  0  0
   44.0458   35.7999   46.1951 H   0  0  0  0  0  0  0  0  0  0  0  0
   44.1941   37.2385   44.1569 H   0  0  0  0  0  0  0  0  0  0  0  0
   45.5328   36.3852   42.2005 H   0  0  0  0  0  0  0  0  0  0  0  0
   44.7159   31.2500   47.1171 H   0  0  0  0  0  0  0  0  0  0  0  0
   44.3048   31.8181   49.9530 H   0  0  0  0  0  0  0  0  0  0  0  0
   45.1419   30.5943   50.4091 H   0  0  0  0  0  0  0  0  0  0  0  0
   46.5044   33.0429   48.6700 H   0  0  0  0  0  0  0  0  0  0  0  0
   47.9154   31.5296   50.0274 H   0  0  0  0  0  0  0  0  0  0  0  0
   47.8611   30.6141   48.4828 H   0  0  0  0  0  0  0  0  0  0  0  0
   48.3273   32.3489   48.4828 H   0  0  0  0  0  0  0  0  0  0  0  0
  1  6  1  0
  2  1  1  0
  3  4  1  0
  3  2  1  0
  4  5  1  0
  5  6  1  0
  6 18  1  0
  7 11  2  0
  8  9  2  0
  8  7  1  0
  9 10  1  0
 10 11  1  0
 10  2  1  0
 12 17  2  0
 13 12  1  0
 14 15  1  0
 14 13  2  0
 15 16  2  0
 16  7  1  0
 16 17  1  0
 18 20  1  0
 18 19  1  0
 20 21  1  0
 20 19  1  0
  1 22  1  0
  2 23  1  1
  3 24  1  0
  3 25  1  0
  4 26  1  0
  5 27  1  0
  5 28  1  0
  6 29  1  1
  8 30  1  0
  9 31  1  0
 12 32  1  0
 13 33  1  0
 14 34  1  0
 18 35  1  6
 19 36  1  0
 19 37  1  0
 20 38  1  6
 21 39  1  0
 21 40  1  0
 21 41  1  0
M  ISO  8  22   5  23  13  24  13  25  13  26   5  27  13  28  13  29  13
M  ISO  8  30  14  31  14  32  14  33  14  34  14  35  13  36  13  37  13
M  ISO  4  38  13  39   8  40   8  41   8
M  END
>  <minimizedAffinity>  (1) 
-5.2982893

>  <minimizedRMSD>  (1) 
0.603101254

$$$$
