
     RDKit          3D

 30 32  0  0  1  0  0  0  0  0999 V2000
   45.6580   32.9030   45.2510 C   0  0  1  0  0  0  0  0  0  0  0  0
   46.9700   32.4350   45.7410 C   0  0  0  0  0  0  0  0  0  0  0  0
   45.9410   32.9740   46.7070 C   0  0  2  0  0  0  0  0  0  0  0  0
   44.6470   36.3250   44.2860 C   0  0  0  0  0  0  0  0  0  0  0  0
   45.2660   36.4710   43.0090 C   0  0  0  0  0  0  0  0  0  0  0  0
   46.0270   35.3800   42.5140 C   0  0  0  0  0  0  0  0  0  0  0  0
   46.1310   34.2680   43.2630 N   0  0  0  0  0  0  0  0  0  0  0  0
   45.5230   34.1680   44.4850 C   0  0  0  0  0  0  0  0  0  0  0  0
   44.7910   35.1890   44.9820 N   0  0  0  0  0  0  0  0  0  0  0  0
   45.1780   32.0800   47.6350 C   0  0  0  0  0  0  0  0  0  0  0  0
   45.4460   30.5980   47.3680 C   0  0  0  0  0  0  0  0  0  0  0  0
   45.1510   29.9520   48.7270 C   0  0  0  0  0  0  0  0  0  0  0  0
   45.2720   31.0390   49.7460 C   0  0  0  0  0  0  0  0  0  0  0  0
   45.8540   32.2050   48.9960 C   0  0  0  0  0  0  0  0  0  0  0  0
   44.8797   32.4440   44.6236 H   0  0  0  0  0  0  0  0  0  0  0  0
   47.2101   31.3615   45.7338 H   0  0  0  0  0  0  0  0  0  0  0  0
   48.0190   32.6696   45.5074 H   0  0  0  0  0  0  0  0  0  0  0  0
   45.9558   33.7523   47.4842 H   0  0  0  0  0  0  0  0  0  0  0  0
   44.0485   37.1491   44.7014 H   0  0  0  0  0  0  0  0  0  0  0  0
   45.1571   37.3983   42.4274 H   0  0  0  0  0  0  0  0  0  0  0  0
   46.5233   35.4430   41.5343 H   0  0  0  0  0  0  0  0  0  0  0  0
   44.1164   32.3529   47.5425 H   0  0  0  0  0  0  0  0  0  0  0  0
   44.7746   30.2075   46.5891 H   0  0  0  0  0  0  0  0  0  0  0  0
   46.4634   30.3976   47.0010 H   0  0  0  0  0  0  0  0  0  0  0  0
   44.1339   29.5332   48.7364 H   0  0  0  0  0  0  0  0  0  0  0  0
   45.8495   29.1287   48.9373 H   0  0  0  0  0  0  0  0  0  0  0  0
   44.2847   31.2965   50.1571 H   0  0  0  0  0  0  0  0  0  0  0  0
   45.8979   30.7402   50.5998 H   0  0  0  0  0  0  0  0  0  0  0  0
   46.9470   32.1177   48.9083 H   0  0  0  0  0  0  0  0  0  0  0  0
   45.6850   33.1751   49.4863 H   0  0  0  0  0  0  0  0  0  0  0  0
  1  2  1  0
  1  3  1  0
  2  3  1  0
  3 10  1  0
  4  9  2  0
  5  4  1  0
  6  5  2  0
  6  7  1  0
  7  8  2  0
  8  9  1  0
  8  1  1  0
 10 14  1  0
 11 10  1  0
 11 12  1  0
 12 13  1  0
 14 13  1  0
  1 15  1  1
  2 16  1  0
  2 17  1  0
  3 18  1  1
  4 19  1  0
  5 20  1  0
  6 21  1  0
 10 22  1  0
 11 23  1  0
 11 24  1  0
 12 25  1  0
 12 26  1  0
 13 27  1  0
 13 28  1  0
 14 29  1  0
 14 30  1  0
M  ISO  8  15  13  16  13  17  13  18  13  19  14  20  14  21  14  22  13
M  ISO  8  23  13  24  13  25  13  26  13  27  13  28  13  29  13  30  13
M  END
>  <minimizedAffinity>  (1) 
-4.65766716

>  <minimizedRMSD>  (1) 
1.28381979

$$$$
