
     RDKit          3D

 56 61  0  0  1  0  0  0  0  0999 V2000
   47.1260   29.2560   46.3380 N   0  0  0  0  0  0  0  0  0  0  0  0
   46.7000   29.0740   45.0070 C   0  0  1  0  0  0  0  0  0  0  0  0
   45.3450   28.4270   45.0160 C   0  0  0  0  0  0  0  0  0  0  0  0
   44.4680   29.3970   45.6120 N   0  0  0  0  0  0  0  0  0  0  0  0
   44.7650   29.6060   47.0100 C   0  0  0  0  0  0  0  0  0  0  0  0
   46.2250   29.6700   47.3410 C   0  0  2  0  0  0  0  0  0  0  0  0
   46.0970   32.3780   43.9120 C   0  0  0  0  0  0  0  0  0  0  0  0
   46.6790   31.8570   42.7700 C   0  0  0  0  0  0  0  0  0  0  0  0
   46.9860   30.5560   43.0150 C   0  0  0  0  0  0  0  0  0  0  0  0
   46.5910   30.3010   44.2890 N   0  0  0  0  0  0  0  0  0  0  0  0
   46.0640   31.4030   44.8040 N   0  0  0  0  0  0  0  0  0  0  0  0
   44.6750   35.4250   45.3790 C   0  0  0  0  0  0  0  0  0  0  0  0
   44.7250   36.3490   44.3330 C   0  0  0  0  0  0  0  0  0  0  0  0
   45.2500   35.9050   43.1320 C   0  0  0  0  0  0  0  0  0  0  0  0
   45.6780   34.6140   43.0510 N   0  0  0  0  0  0  0  0  0  0  0  0
   45.6110   33.7570   44.0870 C   0  0  0  0  0  0  0  0  0  0  0  0
   45.1080   34.1560   45.2650 N   0  0  0  0  0  0  0  0  0  0  0  0
   46.5000   31.0620   47.8640 C   0  0  1  0  0  0  0  0  0  0  0  0
   46.3070   31.2520   49.3630 C   0  0  0  0  0  0  0  0  0  0  0  0
   47.6490   31.3570   48.7400 C   0  0  1  0  0  0  0  0  0  0  0  0
   48.7130   30.2850   48.9960 C   0  0  0  0  0  0  0  0  0  0  0  0
   49.7360   30.8830   49.9000 C   0  0  0  0  0  0  0  0  0  0  0  0
   50.1960   32.1620   49.6630 C   0  0  0  0  0  0  0  0  0  0  0  0
   51.1460   32.7400   50.4870 C   0  0  0  0  0  0  0  0  0  0  0  0
   51.6200   32.0100   51.5480 C   0  0  0  0  0  0  0  0  0  0  0  0
   52.5410   32.4950   52.3940 N   0  0  0  0  0  0  0  0  0  0  0  0
   53.0400   31.8270   53.4470 C   0  0  0  0  0  0  0  0  0  0  0  0
   52.6180   30.5410   53.7360 C   0  0  0  0  0  0  0  0  0  0  0  0
   51.6610   29.9750   52.8940 C   0  0  0  0  0  0  0  0  0  0  0  0
   51.1880   30.7150   51.8290 C   0  0  0  0  0  0  0  0  0  0  0  0
   50.2380   30.1820   50.9770 C   0  0  0  0  0  0  0  0  0  0  0  0
   47.8771   29.9602   46.3109 H   0  0  0  0  0  0  0  0  0  0  0  0
   47.4558   28.4498   44.5078 H   0  0  0  0  0  0  0  0  0  0  0  0
   45.0222   28.1937   43.9906 H   0  0  0  0  0  0  0  0  0  0  0  0
   45.3464   27.4778   45.5719 H   0  0  0  0  0  0  0  0  0  0  0  0
   44.5724   30.2916   45.1122 H   0  0  0  0  0  0  0  0  0  0  0  0
   44.3023   30.5547   47.3197 H   0  0  0  0  0  0  0  0  0  0  0  0
   44.3649   28.7320   47.5449 H   0  0  0  0  0  0  0  0  0  0  0  0
   46.4258   28.9065   48.1070 H   0  0  0  0  0  0  0  0  0  0  0  0
   46.8609   32.3995   41.8305 H   0  0  0  0  0  0  0  0  0  0  0  0
   47.4608   29.8490   42.3187 H   0  0  0  0  0  0  0  0  0  0  0  0
   44.2609   35.7509   46.3446 H   0  0  0  0  0  0  0  0  0  0  0  0
   44.3642   37.3806   44.4578 H   0  0  0  0  0  0  0  0  0  0  0  0
   45.3200   36.5776   42.2644 H   0  0  0  0  0  0  0  0  0  0  0  0
   46.1423   31.5148   46.9275 H   0  0  0  0  0  0  0  0  0  0  0  0
   45.8029   32.1513   49.7466 H   0  0  0  0  0  0  0  0  0  0  0  0
   45.8640   30.6618   50.1787 H   0  0  0  0  0  0  0  0  0  0  0  0
   48.4342   32.1273   48.7455 H   0  0  0  0  0  0  0  0  0  0  0  0
   48.2550   29.4068   49.4746 H   0  0  0  0  0  0  0  0  0  0  0  0
   49.1716   29.9580   48.0512 H   0  0  0  0  0  0  0  0  0  0  0  0
   49.8023   32.7302   48.8073 H   0  0  0  0  0  0  0  0  0  0  0  0
   51.5121   33.7596   50.2961 H   0  0  0  0  0  0  0  0  0  0  0  0
   53.7936   32.3081   54.0878 H   0  0  0  0  0  0  0  0  0  0  0  0
   53.0216   29.9869   54.5962 H   0  0  0  0  0  0  0  0  0  0  0  0
   51.2893   28.9558   53.0756 H   0  0  0  0  0  0  0  0  0  0  0  0
   49.8695   29.1627   51.1647 H   0  0  0  0  0  0  0  0  0  0  0  0
  1  6  1  0
  2  3  1  0
  2  1  1  0
  3  4  1  0
  4  5  1  0
  5  6  1  0
  6 18  1  0
  7 16  1  0
  7 11  2  0
  8  9  2  0
  8  7  1  0
  9 10  1  0
 10 11  1  0
 10  2  1  0
 13 12  2  0
 14 13  1  0
 15 14  2  0
 15 16  1  0
 16 17  2  0
 17 12  1  0
 18 20  1  0
 18 19  1  0
 20 21  1  0
 20 19  1  0
 21 22  1  0
 22 31  1  0
 23 22  2  0
 23 24  1  0
 24 25  2  0
 25 30  1  0
 25 26  1  0
 26 27  2  0
 27 28  1  0
 29 28  2  0
 30 29  1  0
 31 30  2  0
  1 32  1  0
  2 33  1  6
  3 34  1  0
  3 35  1  0
  4 36  1  0
  5 37  1  0
  5 38  1  0
  6 39  1  1
  8 40  1  0
  9 41  1  0
 12 42  1  0
 13 43  1  0
 14 44  1  0
 18 45  1  6
 19 46  1  0
 19 47  1  0
 20 48  1  6
 21 49  1  0
 21 50  1  0
 23 51  1  0
 24 52  1  0
 27 53  1  0
 28 54  1  0
 29 55  1  0
 31 56  1  0
M  ISO  8  32   5  33  13  34  13  35  13  36   5  37  13  38  13  39  13
M  ISO  8  40  14  41  14  42  14  43  14  44  14  45  13  46  13  47  13
M  ISO  8  48  13  49   8  50   8  51  14  52  14  53  14  54  14  55  14
M  ISO  1  56  14
M  END
>  <minimizedAffinity>  (1) 
-6.66292334

>  <minimizedRMSD>  (1) 
2.0668025

$$$$
