
     RDKit          3D

 50 54  0  0  1  0  0  0  0  0999 V2000
   47.1510   29.2910   46.3590 N   0  0  0  0  0  0  0  0  0  0  0  0
   46.7320   29.0880   45.0380 C   0  0  1  0  0  0  0  0  0  0  0  0
   45.3860   28.4290   45.0520 C   0  0  0  0  0  0  0  0  0  0  0  0
   44.4980   29.4080   45.6390 N   0  0  0  0  0  0  0  0  0  0  0  0
   44.7930   29.6380   47.0330 C   0  0  0  0  0  0  0  0  0  0  0  0
   46.2480   29.7120   47.3620 C   0  0  2  0  0  0  0  0  0  0  0  0
   46.1080   32.3750   43.8920 C   0  0  0  0  0  0  0  0  0  0  0  0
   46.6690   31.8430   42.7560 C   0  0  0  0  0  0  0  0  0  0  0  0
   46.9800   30.5520   43.0160 C   0  0  0  0  0  0  0  0  0  0  0  0
   46.6110   30.3050   44.2960 N   0  0  0  0  0  0  0  0  0  0  0  0
   46.0890   31.4220   44.8000 N   0  0  0  0  0  0  0  0  0  0  0  0
   44.6700   35.4440   45.3460 C   0  0  0  0  0  0  0  0  0  0  0  0
   44.7320   36.3510   44.2870 C   0  0  0  0  0  0  0  0  0  0  0  0
   45.2620   35.9040   43.0980 C   0  0  0  0  0  0  0  0  0  0  0  0
   45.6950   34.6120   43.0140 N   0  0  0  0  0  0  0  0  0  0  0  0
   45.6170   33.7650   44.0600 C   0  0  0  0  0  0  0  0  0  0  0  0
   45.1050   34.1670   45.2360 N   0  0  0  0  0  0  0  0  0  0  0  0
   46.5190   31.1160   47.8520 C   0  0  1  0  0  0  0  0  0  0  0  0
   46.1990   31.3610   49.3320 C   0  0  0  0  0  0  0  0  0  0  0  0
   47.5850   31.4160   48.8200 C   0  0  1  0  0  0  0  0  0  0  0  0
   48.6080   30.3460   49.1970 C   0  0  0  0  0  0  0  0  0  0  0  0
   49.7130   31.0130   49.9710 C   0  0  0  0  0  0  0  0  0  0  0  0
   50.1770   32.2710   49.6210 C   0  0  0  0  0  0  0  0  0  0  0  0
   51.1940   32.8310   50.3700 C   0  0  0  0  0  0  0  0  0  0  0  0
   51.7030   32.1160   51.4300 C   0  0  0  0  0  0  0  0  0  0  0  0
   51.2490   30.8730   51.7790 C   0  0  0  0  0  0  0  0  0  0  0  0
   50.2670   30.3690   51.0310 N   0  0  0  0  0  0  0  0  0  0  0  0
   47.8964   30.0009   46.3220 H   0  0  0  0  0  0  0  0  0  0  0  0
   47.4976   28.4653   44.5521 H   0  0  0  0  0  0  0  0  0  0  0  0
   45.0662   28.1805   44.0293 H   0  0  0  0  0  0  0  0  0  0  0  0
   45.3931   27.4852   45.6170 H   0  0  0  0  0  0  0  0  0  0  0  0
   44.5972   30.2963   45.1271 H   0  0  0  0  0  0  0  0  0  0  0  0
   44.3266   30.5892   47.3289 H   0  0  0  0  0  0  0  0  0  0  0  0
   44.3957   28.7706   47.5805 H   0  0  0  0  0  0  0  0  0  0  0  0
   46.4491   28.9629   48.1420 H   0  0  0  0  0  0  0  0  0  0  0  0
   46.8354   32.3717   41.8058 H   0  0  0  0  0  0  0  0  0  0  0  0
   47.4445   29.8381   42.3198 H   0  0  0  0  0  0  0  0  0  0  0  0
   44.2518   35.7797   46.3064 H   0  0  0  0  0  0  0  0  0  0  0  0
   44.3709   37.3841   44.3984 H   0  0  0  0  0  0  0  0  0  0  0  0
   45.3354   36.5762   42.2304 H   0  0  0  0  0  0  0  0  0  0  0  0
   46.2645   31.5430   46.8707 H   0  0  0  0  0  0  0  0  0  0  0  0
   45.6859   32.2830   49.6430 H   0  0  0  0  0  0  0  0  0  0  0  0
   45.6745   30.8087   50.1257 H   0  0  0  0  0  0  0  0  0  0  0  0
   48.3821   32.1722   48.8722 H   0  0  0  0  0  0  0  0  0  0  0  0
   48.1298   29.5745   49.8183 H   0  0  0  0  0  0  0  0  0  0  0  0
   49.0101   29.8656   48.2928 H   0  0  0  0  0  0  0  0  0  0  0  0
   49.7452   32.8117   48.7659 H   0  0  0  0  0  0  0  0  0  0  0  0
   51.5887   33.8279   50.1241 H   0  0  0  0  0  0  0  0  0  0  0  0
   52.5126   32.5645   52.0245 H   0  0  0  0  0  0  0  0  0  0  0  0
   51.6714   30.3196   52.6306 H   0  0  0  0  0  0  0  0  0  0  0  0
  1  6  1  0
  2  3  1  0
  2  1  1  0
  3  4  1  0
  4  5  1  0
  5  6  1  0
  6 18  1  0
  7 16  1  0
  7 11  2  0
  8  9  2  0
  8  7  1  0
  9 10  1  0
 10 11  1  0
 10  2  1  0
 13 12  2  0
 14 13  1  0
 15 14  2  0
 15 16  1  0
 16 17  2  0
 17 12  1  0
 18 20  1  0
 18 19  1  0
 20 21  1  0
 20 19  1  0
 21 22  1  0
 22 27  1  0
 23 22  2  0
 23 24  1  0
 24 25  2  0
 25 26  1  0
 27 26  2  0
  1 28  1  0
  2 29  1  6
  3 30  1  0
  3 31  1  0
  4 32  1  0
  5 33  1  0
  5 34  1  0
  6 35  1  1
  8 36  1  0
  9 37  1  0
 12 38  1  0
 13 39  1  0
 14 40  1  0
 18 41  1  6
 19 42  1  0
 19 43  1  0
 20 44  1  6
 21 45  1  0
 21 46  1  0
 23 47  1  0
 24 48  1  0
 25 49  1  0
 26 50  1  0
M  ISO  8  28   5  29  13  30  13  31  13  32   5  33  13  34  13  35  13
M  ISO  8  36  14  37  14  38  14  39  14  40  14  41  13  42  13  43  13
M  ISO  7  44  13  45   8  46   8  47  14  48  14  49  14  50  14
M  END
>  <minimizedAffinity>  (1) 
-5.75851345

>  <minimizedRMSD>  (1) 
1.51982129

$$$$
