
     RDKit          3D

 31 33  0  0  1  0  0  0  0  0999 V2000
   45.9870   32.6040   44.9290 C   0  0  1  0  0  0  0  0  0  0  0  0
   47.2650   31.9840   44.5090 C   0  0  0  0  0  0  0  0  0  0  0  0
   47.0510   32.4440   45.9500 C   0  0  2  0  0  0  0  0  0  0  0  0
   44.5390   36.0160   44.8100 C   0  0  0  0  0  0  0  0  0  0  0  0
   44.9460   36.4620   43.5230 C   0  0  0  0  0  0  0  0  0  0  0  0
   45.7180   35.5760   42.7310 C   0  0  0  0  0  0  0  0  0  0  0  0
   46.0320   34.3630   43.2190 N   0  0  0  0  0  0  0  0  0  0  0  0
   45.6200   33.9710   44.4640 C   0  0  0  0  0  0  0  0  0  0  0  0
   44.8840   34.7950   45.2420 N   0  0  0  0  0  0  0  0  0  0  0  0
   46.9130   31.5130   47.0150 N   0  0  0  0  0  0  0  0  0  0  0  0
   45.5220   31.4320   47.3790 C   0  0  0  0  0  0  0  0  0  0  0  0
   45.2750   30.6340   48.6250 C   0  0  0  0  0  0  0  0  0  0  0  0
   46.1600   31.0750   49.6830 N   0  0  0  0  0  0  0  0  0  0  0  0
   47.5190   30.7320   49.2380 C   0  0  0  0  0  0  0  0  0  0  0  0
   47.8060   31.6880   48.0990 C   0  0  0  0  0  0  0  0  0  0  0  0
   44.9338   32.2952   44.8558 H   0  0  0  0  0  0  0  0  0  0  0  0
   47.3069   30.9107   44.2720 H   0  0  0  0  0  0  0  0  0  0  0  0
   48.0119   32.1822   43.7261 H   0  0  0  0  0  0  0  0  0  0  0  0
   47.5818   33.1118   46.6445 H   0  0  0  0  0  0  0  0  0  0  0  0
   43.9386   36.6755   45.4538 H   0  0  0  0  0  0  0  0  0  0  0  0
   44.6709   37.4612   43.1543 H   0  0  0  0  0  0  0  0  0  0  0  0
   46.0565   35.8771   41.7286 H   0  0  0  0  0  0  0  0  0  0  0  0
   45.1438   32.4526   47.5385 H   0  0  0  0  0  0  0  0  0  0  0  0
   45.0019   30.9180   46.5572 H   0  0  0  0  0  0  0  0  0  0  0  0
   44.2310   30.7708   48.9435 H   0  0  0  0  0  0  0  0  0  0  0  0
   45.4666   29.5713   48.4154 H   0  0  0  0  0  0  0  0  0  0  0  0
   46.0741   32.0920   49.8218 H   0  0  0  0  0  0  0  0  0  0  0  0
   48.2417   30.8745   50.0549 H   0  0  0  0  0  0  0  0  0  0  0  0
   47.6011   29.6799   48.9277 H   0  0  0  0  0  0  0  0  0  0  0  0
   48.8327   31.5167   47.7432 H   0  0  0  0  0  0  0  0  0  0  0  0
   47.6790   32.7126   48.4786 H   0  0  0  0  0  0  0  0  0  0  0  0
  1  3  1  0
  2  1  1  0
  2  3  1  0
  3 10  1  0
  4  9  2  0
  5  4  1  0
  6  7  1  0
  6  5  2  0
  7  8  2  0
  8  1  1  0
  8  9  1  0
 10 11  1  0
 10 15  1  0
 11 12  1  0
 12 13  1  0
 14 13  1  0
 15 14  1  0
  1 16  1  1
  2 17  1  0
  2 18  1  0
  3 19  1  1
  4 20  1  0
  5 21  1  0
  6 22  1  0
 11 23  1  0
 11 24  1  0
 12 25  1  0
 12 26  1  0
 13 27  1  0
 14 28  1  0
 14 29  1  0
 15 30  1  0
 15 31  1  0
M  ISO  8  16  13  17  13  18  13  19  13  20  14  21  14  22  14  23  13
M  ISO  8  24  13  25  13  26  13  27   5  28  13  29  13  30  13  31  13
M  END
>  <minimizedAffinity>  (1) 
-4.65690136

>  <minimizedRMSD>  (1) 
1.85017705

$$$$
