
     RDKit          3D

 37 40  0  0  0  0  0  0  0  0999 V2000
   46.1580   32.5850   47.0870 C   0  0  0  0  0  0  0  0  0  0  0  0
   45.1550   32.4550   47.9790 C   0  0  0  0  0  0  0  0  0  0  0  0
   45.3290   31.6910   49.0990 C   0  0  0  0  0  0  0  0  0  0  0  0
   46.5480   31.0600   49.2960 C   0  0  0  0  0  0  0  0  0  0  0  0
   47.5740   31.1880   48.3950 C   0  0  0  0  0  0  0  0  0  0  0  0
   47.3050   31.9400   47.3550 N   0  0  0  0  0  0  0  0  0  0  0  0
   44.9800   34.9740   44.5720 C   0  0  0  0  0  0  0  0  0  0  0  0
   45.9360   34.8080   43.5510 C   0  0  0  0  0  0  0  0  0  0  0  0
   46.9690   33.8820   43.7400 C   0  0  0  0  0  0  0  0  0  0  0  0
   46.9740   33.2030   44.9060 N   0  0  0  0  0  0  0  0  0  0  0  0
   46.0510   33.3790   45.8640 C   0  0  0  0  0  0  0  0  0  0  0  0
   45.0660   34.2550   45.6960 N   0  0  0  0  0  0  0  0  0  0  0  0
   43.9310   35.9130   44.3800 N   0  0  0  0  0  0  0  0  0  0  0  0
   48.8710   30.5510   48.4000 C   0  0  0  0  0  0  0  0  0  0  0  0
   49.0060   29.3700   47.6550 C   0  0  0  0  0  0  0  0  0  0  0  0
   50.1490   28.6430   47.5320 C   0  0  0  0  0  0  0  0  0  0  0  0
   51.2880   29.0580   48.1690 C   0  0  0  0  0  0  0  0  0  0  0  0
   51.2300   30.2120   48.9180 C   0  0  0  0  0  0  0  0  0  0  0  0
   52.3610   30.6810   49.5430 C   0  0  0  0  0  0  0  0  0  0  0  0
   52.3830   31.8590   50.2830 C   0  0  0  0  0  0  0  0  0  0  0  0
   51.1710   32.5520   50.3550 C   0  0  0  0  0  0  0  0  0  0  0  0
   50.0600   32.0550   49.7190 C   0  0  0  0  0  0  0  0  0  0  0  0
   50.0470   30.8930   48.9970 C   0  0  0  0  0  0  0  0  0  0  0  0
   44.1957   32.9644   47.8051 H   0  0  0  0  0  0  0  0  0  0  0  0
   44.5160   31.5786   49.8314 H   0  0  0  0  0  0  0  0  0  0  0  0
   46.6953   30.4432   50.1948 H   0  0  0  0  0  0  0  0  0  0  0  0
   45.8722   35.3948   42.6227 H   0  0  0  0  0  0  0  0  0  0  0  0
   47.7405   33.7158   42.9737 H   0  0  0  0  0  0  0  0  0  0  0  0
   43.8810   36.4580   43.5074 H   0  0  0  0  0  0  0  0  0  0  0  0
   43.2206   36.0487   45.1134 H   0  0  0  0  0  0  0  0  0  0  0  0
   48.1142   29.0016   47.1269 H   0  0  0  0  0  0  0  0  0  0  0  0
   50.1584   27.7264   46.9239 H   0  0  0  0  0  0  0  0  0  0  0  0
   52.2234   28.4853   48.0847 H   0  0  0  0  0  0  0  0  0  0  0  0
   53.2901   30.0989   49.4541 H   0  0  0  0  0  0  0  0  0  0  0  0
   53.2952   32.2217   50.7794 H   0  0  0  0  0  0  0  0  0  0  0  0
   51.1074   33.4936   50.9200 H   0  0  0  0  0  0  0  0  0  0  0  0
   49.1230   32.6262   49.7947 H   0  0  0  0  0  0  0  0  0  0  0  0
  1  6  1  0
  1  2  2  0
  2  3  1  0
  3  4  2  0
  5 14  1  0
  5  4  1  0
  6  5  2  0
  7 12  2  0
  8  9  2  0
  8  7  1  0
  9 10  1  0
 10 11  2  0
 11  1  1  0
 12 11  1  0
 13  7  1  0
 14 23  1  0
 15 14  2  0
 16 15  1  0
 16 17  2  0
 17 18  1  0
 18 23  2  0
 18 19  1  0
 19 20  2  0
 20 21  1  0
 22 21  2  0
 23 22  1  0
  2 24  1  0
  3 25  1  0
  4 26  1  0
  8 27  1  0
  9 28  1  0
 13 29  1  0
 13 30  1  0
 15 31  1  0
 16 32  1  0
 17 33  1  0
 19 34  1  0
 20 35  1  0
 21 36  1  0
 22 37  1  0
M  ISO  8  24  14  25  14  26  14  27  14  28  14  31  14  32  14  33  14
M  ISO  4  34  14  35  14  36  14  37  14
M  END
>  <minimizedAffinity>  (1) 
-6.96788883

>  <minimizedRMSD>  (1) 
0.405867755

$$$$
