
     RDKit          3D

 31 33  0  0  0  0  0  0  0  0999 V2000
   46.1390   32.6420   47.0800 C   0  0  0  0  0  0  0  0  0  0  0  0
   45.0680   32.3430   47.8600 C   0  0  0  0  0  0  0  0  0  0  0  0
   45.2460   31.6110   49.0040 C   0  0  0  0  0  0  0  0  0  0  0  0
   46.5360   31.1830   49.3530 C   0  0  0  0  0  0  0  0  0  0  0  0
   47.5970   31.5060   48.5360 C   0  0  0  0  0  0  0  0  0  0  0  0
   47.3730   32.2110   47.4500 N   0  0  0  0  0  0  0  0  0  0  0  0
   44.9480   35.0060   44.5470 C   0  0  0  0  0  0  0  0  0  0  0  0
   45.8930   34.8440   43.5300 C   0  0  0  0  0  0  0  0  0  0  0  0
   46.9360   33.9300   43.7050 C   0  0  0  0  0  0  0  0  0  0  0  0
   46.9570   33.2530   44.8710 N   0  0  0  0  0  0  0  0  0  0  0  0
   46.0430   33.4200   45.8390 C   0  0  0  0  0  0  0  0  0  0  0  0
   45.0340   34.2970   45.6810 N   0  0  0  0  0  0  0  0  0  0  0  0
   43.8760   35.9470   44.3630 N   0  0  0  0  0  0  0  0  0  0  0  0
   48.9660   31.1000   48.8300 C   0  0  0  0  0  0  0  0  0  0  0  0
   49.4170   29.9030   48.3100 C   0  0  0  0  0  0  0  0  0  0  0  0
   50.6900   29.3980   48.5090 C   0  0  0  0  0  0  0  0  0  0  0  0
   51.5760   30.1160   49.2670 C   0  0  0  0  0  0  0  0  0  0  0  0
   51.1360   31.3120   49.7920 C   0  0  0  0  0  0  0  0  0  0  0  0
   49.8650   31.8070   49.5880 C   0  0  0  0  0  0  0  0  0  0  0  0
   44.0629   32.6869   47.5745 H   0  0  0  0  0  0  0  0  0  0  0  0
   44.3861   31.3611   49.6429 H   0  0  0  0  0  0  0  0  0  0  0  0
   46.6982   30.5960   50.2690 H   0  0  0  0  0  0  0  0  0  0  0  0
   45.8168   35.4295   42.6019 H   0  0  0  0  0  0  0  0  0  0  0  0
   47.7010   33.7710   42.9307 H   0  0  0  0  0  0  0  0  0  0  0  0
   43.8121   36.4907   43.4905 H   0  0  0  0  0  0  0  0  0  0  0  0
   43.1722   36.0772   45.1037 H   0  0  0  0  0  0  0  0  0  0  0  0
   48.7193   29.3126   47.6980 H   0  0  0  0  0  0  0  0  0  0  0  0
   50.9853   28.4356   48.0656 H   0  0  0  0  0  0  0  0  0  0  0  0
   52.5981   29.7527   49.4496 H   0  0  0  0  0  0  0  0  0  0  0  0
   51.8339   31.9015   50.4047 H   0  0  0  0  0  0  0  0  0  0  0  0
   49.5718   32.7692   50.0332 H   0  0  0  0  0  0  0  0  0  0  0  0
  1  6  1  0
  1  2  2  0
  2  3  1  0
  3  4  2  0
  5 14  1  0
  5  4  1  0
  6  5  2  0
  7 12  2  0
  8  9  2  0
  8  7  1  0
  9 10  1  0
 10 11  2  0
 11  1  1  0
 12 11  1  0
 13  7  1  0
 14 19  2  0
 15 16  2  0
 15 14  1  0
 16 17  1  0
 17 18  2  0
 19 18  1  0
  2 20  1  0
  3 21  1  0
  4 22  1  0
  8 23  1  0
  9 24  1  0
 13 25  1  0
 13 26  1  0
 15 27  1  0
 16 28  1  0
 17 29  1  0
 18 30  1  0
 19 31  1  0
M  ISO  8  20  14  21  14  22  14  23  14  24  14  27  14  28  14  29  14
M  ISO  2  30  14  31  14
M  END
>  <minimizedAffinity>  (1) 
-6.30827522

>  <minimizedRMSD>  (1) 
0.760301054

$$$$
