
     RDKit          3D

 34 36  0  0  0  0  0  0  0  0999 V2000
   46.1320   32.6920   47.0570 C   0  0  0  0  0  0  0  0  0  0  0  0
   45.0640   32.4330   47.8640 C   0  0  0  0  0  0  0  0  0  0  0  0
   45.2400   31.7010   49.0160 C   0  0  0  0  0  0  0  0  0  0  0  0
   46.5280   31.2360   49.3350 C   0  0  0  0  0  0  0  0  0  0  0  0
   47.5840   31.5150   48.5000 C   0  0  0  0  0  0  0  0  0  0  0  0
   47.3410   32.2180   47.4170 N   0  0  0  0  0  0  0  0  0  0  0  0
   44.9160   35.0290   44.5160 C   0  0  0  0  0  0  0  0  0  0  0  0
   45.8670   34.8690   43.5070 C   0  0  0  0  0  0  0  0  0  0  0  0
   46.9180   33.9710   43.6850 C   0  0  0  0  0  0  0  0  0  0  0  0
   46.9390   33.3000   44.8620 N   0  0  0  0  0  0  0  0  0  0  0  0
   46.0320   33.4580   45.8180 C   0  0  0  0  0  0  0  0  0  0  0  0
   45.0190   34.3280   45.6350 N   0  0  0  0  0  0  0  0  0  0  0  0
   43.8450   35.9580   44.3070 N   0  0  0  0  0  0  0  0  0  0  0  0
   49.3730   29.7910   48.4510 C   0  0  0  0  0  0  0  0  0  0  0  0
   48.9130   31.0310   48.8360 C   0  0  0  0  0  0  0  0  0  0  0  0
   49.8290   31.7570   49.5630 C   0  0  0  0  0  0  0  0  0  0  0  0
   51.0980   31.3380   49.9040 C   0  0  0  0  0  0  0  0  0  0  0  0
   51.5110   30.0960   49.4970 C   0  0  0  0  0  0  0  0  0  0  0  0
   50.6530   29.3270   48.7750 C   0  0  0  0  0  0  0  0  0  0  0  0
   48.3490   28.7270   47.5180 S   0  0  0  0  0  0  0  0  0  0  0  0
   48.6290   27.2790   47.8570 O   0  0  0  0  0  0  0  0  0  0  0  0
   48.6060   28.8650   46.0460 O   0  0  0  0  0  0  0  0  0  0  0  0
   44.0653   32.8078   47.5953 H   0  0  0  0  0  0  0  0  0  0  0  0
   44.3874   31.4834   49.6761 H   0  0  0  0  0  0  0  0  0  0  0  0
   46.6906   30.6497   50.2515 H   0  0  0  0  0  0  0  0  0  0  0  0
   45.7874   35.4489   42.5757 H   0  0  0  0  0  0  0  0  0  0  0  0
   47.6868   33.8158   42.9137 H   0  0  0  0  0  0  0  0  0  0  0  0
   43.7892   36.4902   43.4269 H   0  0  0  0  0  0  0  0  0  0  0  0
   43.1310   36.0935   45.0369 H   0  0  0  0  0  0  0  0  0  0  0  0
   49.5224   32.7578   49.9012 H   0  0  0  0  0  0  0  0  0  0  0  0
   51.7649   31.9871   50.4905 H   0  0  0  0  0  0  0  0  0  0  0  0
   52.5166   29.7287   49.7495 H   0  0  0  0  0  0  0  0  0  0  0  0
   50.9689   28.3276   48.4413 H   0  0  0  0  0  0  0  0  0  0  0  0
   47.0599   29.0768   47.8227 H   0  0  0  0  0  0  0  0  0  0  0  0
  1  6  1  0
  1  2  2  0
  2  3  1  0
  3  4  2  0
  5 15  1  0
  5  4  1  0
  6  5  2  0
  7 12  2  0
  8  9  2  0
  8  7  1  0
  9 10  1  0
 10 11  2  0
 11  1  1  0
 12 11  1  0
 13  7  1  0
 14 19  2  0
 14 15  1  0
 15 16  2  0
 16 17  1  0
 18 17  2  0
 19 18  1  0
 20 21  2  0
 20 14  1  0
 22 20  2  0
  2 23  1  0
  3 24  1  0
  4 25  1  0
  8 26  1  0
  9 27  1  0
 13 28  1  0
 13 29  1  0
 16 30  1  0
 17 31  1  0
 18 32  1  0
 19 33  1  0
 20 34  1  0
M  ISO  8  23  14  24  14  25  14  26  14  27  14  30  14  31  14  32  14
M  ISO  2  33  14  34  11
M  END
>  <minimizedAffinity>  (1) 
-6.30499458

>  <minimizedRMSD>  (1) 
1.19386458

$$$$
