
     RDKit          3D

 37 39  0  0  0  0  0  0  0  0999 V2000
   46.2130   32.6890   46.9820 C   0  0  0  0  0  0  0  0  0  0  0  0
   45.2160   32.5140   47.8860 C   0  0  0  0  0  0  0  0  0  0  0  0
   45.4010   31.7660   49.0200 C   0  0  0  0  0  0  0  0  0  0  0  0
   46.6410   31.1820   49.2310 C   0  0  0  0  0  0  0  0  0  0  0  0
   47.6440   31.3670   48.3050 C   0  0  0  0  0  0  0  0  0  0  0  0
   47.4020   32.1000   47.2310 N   0  0  0  0  0  0  0  0  0  0  0  0
   44.9180   35.0450   44.5030 C   0  0  0  0  0  0  0  0  0  0  0  0
   45.8400   34.9110   43.4630 C   0  0  0  0  0  0  0  0  0  0  0  0
   46.8990   34.0170   43.6130 C   0  0  0  0  0  0  0  0  0  0  0  0
   46.9580   33.3310   44.7780 N   0  0  0  0  0  0  0  0  0  0  0  0
   46.0610   33.4730   45.7690 C   0  0  0  0  0  0  0  0  0  0  0  0
   45.0340   34.3350   45.6330 N   0  0  0  0  0  0  0  0  0  0  0  0
   43.8440   35.9580   44.3390 N   0  0  0  0  0  0  0  0  0  0  0  0
   48.9710   30.7230   48.5630 C   0  0  0  0  0  0  0  0  0  0  0  0
   48.9070   29.2390   48.3140 C   0  0  0  0  0  0  0  0  0  0  0  0
   50.2710   28.6480   48.4550 C   0  0  0  0  0  0  0  0  0  0  0  0
   50.9470   29.0840   49.7200 C   0  0  0  0  0  0  0  0  0  0  0  0
   50.0640   29.8880   50.6340 C   0  0  0  0  0  0  0  0  0  0  0  0
   49.4470   31.0760   49.9360 C   0  0  0  0  0  0  0  0  0  0  0  0
   44.2375   32.9828   47.7048 H   0  0  0  0  0  0  0  0  0  0  0  0
   44.5850   31.6322   49.7454 H   0  0  0  0  0  0  0  0  0  0  0  0
   46.8223   30.5758   50.1308 H   0  0  0  0  0  0  0  0  0  0  0  0
   45.7325   35.5010   42.5408 H   0  0  0  0  0  0  0  0  0  0  0  0
   47.6506   33.8759   42.8223 H   0  0  0  0  0  0  0  0  0  0  0  0
   43.7587   36.5018   43.4684 H   0  0  0  0  0  0  0  0  0  0  0  0
   43.1497   36.0768   45.0905 H   0  0  0  0  0  0  0  0  0  0  0  0
   49.7164   31.1128   47.8541 H   0  0  0  0  0  0  0  0  0  0  0  0
   48.5314   29.0544   47.2967 H   0  0  0  0  0  0  0  0  0  0  0  0
   48.2302   28.7746   49.0464 H   0  0  0  0  0  0  0  0  0  0  0  0
   50.1836   27.5515   48.4594 H   0  0  0  0  0  0  0  0  0  0  0  0
   50.8802   28.9967   47.6081 H   0  0  0  0  0  0  0  0  0  0  0  0
   51.2813   28.1868   50.2616 H   0  0  0  0  0  0  0  0  0  0  0  0
   51.7837   29.7357   49.4279 H   0  0  0  0  0  0  0  0  0  0  0  0
   49.2579   29.2395   51.0077 H   0  0  0  0  0  0  0  0  0  0  0  0
   50.6881   30.2678   51.4564 H   0  0  0  0  0  0  0  0  0  0  0  0
   50.1995   31.8746   49.8584 H   0  0  0  0  0  0  0  0  0  0  0  0
   48.5798   31.4085   50.5254 H   0  0  0  0  0  0  0  0  0  0  0  0
  1  6  1  0
  1  2  2  0
  2  3  1  0
  3  4  2  0
  5 14  1  0
  5  4  1  0
  6  5  2  0
  7 12  2  0
  8  9  2  0
  8  7  1  0
  9 10  1  0
 10 11  2  0
 11  1  1  0
 12 11  1  0
 13  7  1  0
 14 19  1  0
 15 16  1  0
 15 14  1  0
 16 17  1  0
 17 18  1  0
 19 18  1  0
  2 20  1  0
  3 21  1  0
  4 22  1  0
  8 23  1  0
  9 24  1  0
 13 25  1  0
 13 26  1  0
 14 27  1  0
 15 28  1  0
 15 29  1  0
 16 30  1  0
 16 31  1  0
 17 32  1  0
 17 33  1  0
 18 34  1  0
 18 35  1  0
 19 36  1  0
 19 37  1  0
M  ISO  8  20  14  21  14  22  14  23  14  24  14  27  13  28  13  29  13
M  ISO  8  30  13  31  13  32  13  33  13  34  13  35  13  36  13  37  13
M  END
>  <minimizedAffinity>  (1) 
-6.27037907

>  <minimizedRMSD>  (1) 
0.943323851

$$$$
