
     RDKit          3D

 23 24  0  0  0  0  0  0  0  0999 V2000
   46.1300   32.6690   47.0780 C   0  0  0  0  0  0  0  0  0  0  0  0
   45.0510   32.2600   47.8010 C   0  0  0  0  0  0  0  0  0  0  0  0
   45.2470   31.5460   48.9540 C   0  0  0  0  0  0  0  0  0  0  0  0
   46.5340   31.2440   49.3790 C   0  0  0  0  0  0  0  0  0  0  0  0
   47.6020   31.6730   48.6230 C   0  0  0  0  0  0  0  0  0  0  0  0
   47.3880   32.3590   47.5170 N   0  0  0  0  0  0  0  0  0  0  0  0
   44.9350   35.0170   44.5370 C   0  0  0  0  0  0  0  0  0  0  0  0
   45.8890   34.8470   43.5290 C   0  0  0  0  0  0  0  0  0  0  0  0
   46.9390   33.9430   43.6970 C   0  0  0  0  0  0  0  0  0  0  0  0
   46.9510   33.2750   44.8700 N   0  0  0  0  0  0  0  0  0  0  0  0
   46.0430   33.4370   45.8290 C   0  0  0  0  0  0  0  0  0  0  0  0
   45.0290   34.3100   45.6670 N   0  0  0  0  0  0  0  0  0  0  0  0
   43.8710   35.9460   44.3470 N   0  0  0  0  0  0  0  0  0  0  0  0
   48.9470   31.3480   49.0820 C   0  0  0  0  0  0  0  0  0  0  0  0
   49.1500   30.5660   50.0460 O   0  0  0  0  0  0  0  0  0  0  0  0
   44.0322   32.5004   47.4628 H   0  0  0  0  0  0  0  0  0  0  0  0
   44.3818   31.2109   49.5450 H   0  0  0  0  0  0  0  0  0  0  0  0
   46.6976   30.6717   50.3040 H   0  0  0  0  0  0  0  0  0  0  0  0
   45.8116   35.4288   42.5987 H   0  0  0  0  0  0  0  0  0  0  0  0
   47.7061   33.7853   42.9246 H   0  0  0  0  0  0  0  0  0  0  0  0
   43.8085   36.4856   43.4719 H   0  0  0  0  0  0  0  0  0  0  0  0
   43.1645   36.0778   45.0848 H   0  0  0  0  0  0  0  0  0  0  0  0
   49.8095   31.7999   48.5703 H   0  0  0  0  0  0  0  0  0  0  0  0
  1  6  1  0
  1  2  2  0
  2  3  1  0
  3  4  2  0
  5 14  1  0
  5  4  1  0
  6  5  2  0
  7 12  2  0
  8  9  2  0
  8  7  1  0
  9 10  1  0
 10 11  2  0
 11  1  1  0
 12 11  1  0
 13  7  1  0
 14 15  2  0
  2 16  1  0
  3 17  1  0
  4 18  1  0
  8 19  1  0
  9 20  1  0
 13 21  1  0
 13 22  1  0
 14 23  1  0
M  ISO  6  16  14  17  14  18  14  19  14  20  14  23   6
M  END
>  <minimizedAffinity>  (1) 
-5.47946548

>  <minimizedRMSD>  (1) 
0.574551284

$$$$
