
     RDKit          3D

 22 23  0  0  0  0  0  0  0  0999 V2000
   44.9220   35.0280   44.5230 C   0  0  0  0  0  0  0  0  0  0  0  0
   45.8520   34.8970   43.4890 C   0  0  0  0  0  0  0  0  0  0  0  0
   46.9110   33.9970   43.6300 C   0  0  0  0  0  0  0  0  0  0  0  0
   46.9520   33.3060   44.7880 N   0  0  0  0  0  0  0  0  0  0  0  0
   46.0570   33.4390   45.7720 C   0  0  0  0  0  0  0  0  0  0  0  0
   45.0430   34.2980   45.6420 N   0  0  0  0  0  0  0  0  0  0  0  0
   43.8610   35.9540   44.3380 N   0  0  0  0  0  0  0  0  0  0  0  0
   46.1970   32.6400   46.9870 C   0  0  0  0  0  0  0  0  0  0  0  0
   45.2250   32.5470   47.9270 C   0  0  0  0  0  0  0  0  0  0  0  0
   45.4410   31.7720   49.0400 C   0  0  0  0  0  0  0  0  0  0  0  0
   46.6410   31.0910   49.2000 C   0  0  0  0  0  0  0  0  0  0  0  0
   47.6180   31.2090   48.2140 C   0  0  0  0  0  0  0  0  0  0  0  0
   47.3650   31.9620   47.1670 N   0  0  0  0  0  0  0  0  0  0  0  0
   48.8660   30.5760   48.2540 O   0  0  0  0  0  0  0  0  0  0  0  0
   45.7514   35.4968   42.5724 H   0  0  0  0  0  0  0  0  0  0  0  0
   47.6672   33.8597   42.8430 H   0  0  0  0  0  0  0  0  0  0  0  0
   43.7987   36.4983   43.4658 H   0  0  0  0  0  0  0  0  0  0  0  0
   43.1539   36.0812   45.0761 H   0  0  0  0  0  0  0  0  0  0  0  0
   44.2745   33.0858   47.7999 H   0  0  0  0  0  0  0  0  0  0  0  0
   44.6591   31.6901   49.8093 H   0  0  0  0  0  0  0  0  0  0  0  0
   46.8169   30.4691   50.0901 H   0  0  0  0  0  0  0  0  0  0  0  0
   49.5114   30.7070   47.5148 H   0  0  0  0  0  0  0  0  0  0  0  0
  1  6  2  0
  2  3  2  0
  2  1  1  0
  3  4  1  0
  4  5  2  0
  5  8  1  0
  6  5  1  0
  7  1  1  0
  8 13  1  0
  8  9  2  0
  9 10  1  0
 10 11  2  0
 12 14  1  0
 12 11  1  0
 13 12  2  0
  2 15  1  0
  3 16  1  0
  7 17  1  0
  7 18  1  0
  9 19  1  0
 10 20  1  0
 11 21  1  0
 14 22  1  0
M  ISO  6  15  14  16  14  19  14  20  14  21  14  22   3
M  END
>  <minimizedAffinity>  (1) 
-5.33071995

>  <minimizedRMSD>  (1) 
0.0500430353

$$$$
