
     RDKit          3D

 21 22  0  0  0  0  0  0  0  0999 V2000
   44.5770   33.1360   41.1790 Br  0  0  0  0  0  0  0  0  0  0  0  0
   46.2830   33.9960   40.9450 C   0  0  0  0  0  0  0  0  0  0  0  0
   46.8340   34.7420   41.9630 C   0  0  0  0  0  0  0  0  0  0  0  0
   48.0710   35.3710   41.8040 C   0  0  0  0  0  0  0  0  0  0  0  0
   48.7130   35.2210   40.6070 C   0  0  0  0  0  0  0  0  0  0  0  0
   48.1250   34.4660   39.6150 C   0  0  0  0  0  0  0  0  0  0  0  0
   46.9180   33.8400   39.7410 C   0  0  0  0  0  0  0  0  0  0  0  0
   45.6000   34.0410   45.3300 C   0  0  0  0  0  0  0  0  0  0  0  0
   44.7020   35.0950   45.5820 C   0  0  0  0  0  0  0  0  0  0  0  0
   44.5340   36.0470   44.5690 C   0  0  0  0  0  0  0  0  0  0  0  0
   45.2350   35.8990   43.4230 N   0  0  0  0  0  0  0  0  0  0  0  0
   46.1010   34.8610   43.2110 C   0  0  0  0  0  0  0  0  0  0  0  0
   46.2670   33.9450   44.1780 N   0  0  0  0  0  0  0  0  0  0  0  0
   46.3400   33.0880   38.7430 O   0  0  0  0  0  0  0  0  0  0  0  0
   48.5137   35.9673   42.6154 H   0  0  0  0  0  0  0  0  0  0  0  0
   49.6894   35.6981   40.4368 H   0  0  0  0  0  0  0  0  0  0  0  0
   48.6624   34.3611   38.6609 H   0  0  0  0  0  0  0  0  0  0  0  0
   45.7564   33.2751   46.1039 H   0  0  0  0  0  0  0  0  0  0  0  0
   44.1556   35.1678   46.5339 H   0  0  0  0  0  0  0  0  0  0  0  0
   43.8473   36.8958   44.7029 H   0  0  0  0  0  0  0  0  0  0  0  0
   45.4613   32.6574   38.8935 H   0  0  0  0  0  0  0  0  0  0  0  0
  2  1  1  0
  2  3  2  0
  3 12  1  0
  4  3  1  0
  5  4  2  0
  6  7  2  0
  6  5  1  0
  7  2  1  0
  8  9  2  0
 10  9  1  0
 11 10  2  0
 12 11  1  0
 12 13  2  0
 13  8  1  0
 14  7  1  0
  4 15  1  0
  5 16  1  0
  6 17  1  0
  8 18  1  0
  9 19  1  0
 10 20  1  0
 14 21  1  0
M  ISO  7  15  14  16  14  17  14  18  14  19  14  20  14  21   3
M  END
>  <minimizedAffinity>  (1) 
-5.07314396

>  <minimizedRMSD>  (1) 
0.00424191356

$$$$
