
     RDKit          3D

 35 36  0  0  0  0  0  0  0  0999 V2000
   46.2510   32.5880   46.9220 C   0  0  0  0  0  0  0  0  0  0  0  0
   45.3390   32.5760   47.9360 C   0  0  0  0  0  0  0  0  0  0  0  0
   45.5730   31.7610   49.0290 C   0  0  0  0  0  0  0  0  0  0  0  0
   46.7140   30.9760   49.0850 C   0  0  0  0  0  0  0  0  0  0  0  0
   47.6160   31.0230   48.0200 C   0  0  0  0  0  0  0  0  0  0  0  0
   47.3590   31.8100   46.9990 N   0  0  0  0  0  0  0  0  0  0  0  0
   44.9310   35.0340   44.5390 C   0  0  0  0  0  0  0  0  0  0  0  0
   45.8730   34.9210   43.4760 C   0  0  0  0  0  0  0  0  0  0  0  0
   46.9400   34.0080   43.5950 C   0  0  0  0  0  0  0  0  0  0  0  0
   46.9720   33.3090   44.7320 N   0  0  0  0  0  0  0  0  0  0  0  0
   46.0960   33.4120   45.7250 C   0  0  0  0  0  0  0  0  0  0  0  0
   45.0850   34.2750   45.6140 N   0  0  0  0  0  0  0  0  0  0  0  0
   43.8700   35.9520   44.4110 N   0  0  0  0  0  0  0  0  0  0  0  0
   48.8400   30.2170   48.0270 C   0  0  0  0  0  0  0  0  0  0  0  0
   49.8080   30.3820   48.8980 C   0  0  0  0  0  0  0  0  0  0  0  0
   49.7430   31.4180   49.9710 C   0  0  0  0  0  0  0  0  0  0  0  0
   49.9890   28.6700   50.4530 N   0  0  0  0  0  0  0  0  0  0  0  0
   50.2700   29.4340   51.4500 C   0  0  0  0  0  0  0  0  0  0  0  0
   50.4550   30.8090   51.1060 N   0  0  0  0  0  0  0  0  0  0  0  0
   50.4210   29.0830   52.8410 N   0  0  0  0  0  0  0  0  0  0  0  0
   49.8190   27.6590   50.4820 H   0  0  0  0  0  0  0  0  0  0  0  0
   44.4357   33.2017   47.8857 H   0  0  0  0  0  0  0  0  0  0  0  0
   44.8501   31.7358   49.8577 H   0  0  0  0  0  0  0  0  0  0  0  0
   46.9055   30.3277   49.9527 H   0  0  0  0  0  0  0  0  0  0  0  0
   45.7686   35.5396   42.5724 H   0  0  0  0  0  0  0  0  0  0  0  0
   47.6948   33.8801   42.8051 H   0  0  0  0  0  0  0  0  0  0  0  0
   43.7843   36.5246   43.5591 H   0  0  0  0  0  0  0  0  0  0  0  0
   43.1800   36.0506   45.1693 H   0  0  0  0  0  0  0  0  0  0  0  0
   48.9533   29.4336   47.2632 H   0  0  0  0  0  0  0  0  0  0  0  0
   50.6960   29.7359   48.8353 H   0  0  0  0  0  0  0  0  0  0  0  0
   50.2418   32.3442   49.6495 H   0  0  0  0  0  0  0  0  0  0  0  0
   48.7097   31.6980   50.2237 H   0  0  0  0  0  0  0  0  0  0  0  0
   51.1003   31.3859   51.6643 H   0  0  0  0  0  0  0  0  0  0  0  0
   50.6496   29.8101   53.5337 H   0  0  0  0  0  0  0  0  0  0  0  0
   50.3002   28.1052   53.1415 H   0  0  0  0  0  0  0  0  0  0  0  0
  1  6  1  0
  1  2  2  0
  2  3  1  0
  3  4  2  0
  5 14  1  0
  5  4  1  0
  6  5  2  0
  7 12  2  0
  8  9  2  0
  8  7  1  0
  9 10  1  0
 10 11  2  0
 11  1  1  0
 12 11  1  0
 13  7  1  0
 14 15  2  0
 15 16  1  0
 16 19  1  0
 17 21  1  0
 17 18  2  0
 18 20  1  0
 19 18  1  0
  2 22  1  0
  3 23  1  0
  4 24  1  0
  8 25  1  0
  9 26  1  0
 13 27  1  0
 13 28  1  0
 14 29  1  0
 15 30  1  0
 16 31  1  0
 16 32  1  0
 19 33  1  0
 20 34  1  0
 20 35  1  0
M  ISO  7  22  14  23  14  24  14  25  14  26  14  31   8  32   8
M  END
>  <minimizedAffinity>  (1) 
-6.52457333

>  <minimizedRMSD>  (1) 
0.521478772

$$$$
