
     RDKit          3D

 35 37  0  0  0  0  0  0  0  0999 V2000
   46.1400   32.5740   46.9570 C   0  0  0  0  0  0  0  0  0  0  0  0
   45.2370   32.5960   47.9610 C   0  0  0  0  0  0  0  0  0  0  0  0
   45.4160   31.7780   49.0610 C   0  0  0  0  0  0  0  0  0  0  0  0
   46.5160   30.9480   49.1250 C   0  0  0  0  0  0  0  0  0  0  0  0
   47.4430   30.9430   48.0670 C   0  0  0  0  0  0  0  0  0  0  0  0
   47.2230   31.7350   47.0530 N   0  0  0  0  0  0  0  0  0  0  0  0
   44.9400   35.0250   44.5390 C   0  0  0  0  0  0  0  0  0  0  0  0
   45.9070   34.9000   43.5020 C   0  0  0  0  0  0  0  0  0  0  0  0
   46.9700   33.9680   43.6460 C   0  0  0  0  0  0  0  0  0  0  0  0
   46.9570   33.2680   44.7920 N   0  0  0  0  0  0  0  0  0  0  0  0
   46.0400   33.3950   45.7590 C   0  0  0  0  0  0  0  0  0  0  0  0
   45.0380   34.2730   45.6260 N   0  0  0  0  0  0  0  0  0  0  0  0
   43.8950   35.9640   44.3620 N   0  0  0  0  0  0  0  0  0  0  0  0
   48.6100   30.0790   48.1070 C   0  0  0  0  0  0  0  0  0  0  0  0
   49.7210   30.4010   48.7690 C   0  0  0  0  0  0  0  0  0  0  0  0
   49.8520   31.6700   49.5170 C   0  0  0  0  0  0  0  0  0  0  0  0
   50.5290   31.3660   50.8060 C   0  0  0  0  0  0  0  0  0  0  0  0
   51.2870   32.1690   51.6330 C   0  0  0  0  0  0  0  0  0  0  0  0
   51.6630   31.3600   52.6940 C   0  0  0  0  0  0  0  0  0  0  0  0
   51.1420   30.1180   52.4960 N   0  0  0  0  0  0  0  0  0  0  0  0
   50.4620   30.1330   51.3580 N   0  0  0  0  0  0  0  0  0  0  0  0
   44.3632   33.2617   47.9038 H   0  0  0  0  0  0  0  0  0  0  0  0
   44.6841   31.7889   49.8821 H   0  0  0  0  0  0  0  0  0  0  0  0
   46.6671   30.2948   49.9971 H   0  0  0  0  0  0  0  0  0  0  0  0
   45.8320   35.5199   42.5964 H   0  0  0  0  0  0  0  0  0  0  0  0
   47.7446   33.8304   42.8772 H   0  0  0  0  0  0  0  0  0  0  0  0
   43.8520   36.5309   43.5031 H   0  0  0  0  0  0  0  0  0  0  0  0
   43.1779   36.0802   45.0922 H   0  0  0  0  0  0  0  0  0  0  0  0
   48.5754   29.1201   47.5691 H   0  0  0  0  0  0  0  0  0  0  0  0
   50.5684   29.6998   48.7587 H   0  0  0  0  0  0  0  0  0  0  0  0
   50.4531   32.3863   48.9377 H   0  0  0  0  0  0  0  0  0  0  0  0
   48.8625   32.1158   49.6967 H   0  0  0  0  0  0  0  0  0  0  0  0
   51.5399   33.2288   51.4821 H   0  0  0  0  0  0  0  0  0  0  0  0
   52.2786   31.6695   53.5515 H   0  0  0  0  0  0  0  0  0  0  0  0
   51.2562   29.3077   53.1215 H   0  0  0  0  0  0  0  0  0  0  0  0
  1  6  1  0
  1  2  2  0
  2  3  1  0
  3  4  2  0
  5 14  1  0
  5  4  1  0
  6  5  2  0
  7 12  2  0
  8  9  2  0
  8  7  1  0
  9 10  1  0
 10 11  2  0
 11  1  1  0
 12 11  1  0
 13  7  1  0
 14 15  2  0
 15 16  1  0
 16 17  1  0
 17 21  2  0
 17 18  1  0
 18 19  2  0
 20 19  1  0
 21 20  1  0
  2 22  1  0
  3 23  1  0
  4 24  1  0
  8 25  1  0
  9 26  1  0
 13 27  1  0
 13 28  1  0
 14 29  1  0
 15 30  1  0
 16 31  1  0
 16 32  1  0
 18 33  1  0
 19 34  1  0
 20 35  1  0
M  ISO  8  22  14  23  14  24  14  25  14  26  14  31   8  32   8  33  14
M  ISO  2  34  14  35   9
M  END
>  <minimizedAffinity>  (1) 
-6.51801443

>  <minimizedRMSD>  (1) 
0.413842231

$$$$
