
     RDKit          3D

 41 43  0  0  0  0  0  0  0  0999 V2000
   46.1710   32.5710   46.9470 C   0  0  0  0  0  0  0  0  0  0  0  0
   45.2810   32.6160   47.9700 C   0  0  0  0  0  0  0  0  0  0  0  0
   45.4870   31.7910   49.0610 C   0  0  0  0  0  0  0  0  0  0  0  0
   46.5750   30.9390   49.1070 C   0  0  0  0  0  0  0  0  0  0  0  0
   47.4620   30.9250   48.0400 C   0  0  0  0  0  0  0  0  0  0  0  0
   47.2410   31.7210   47.0150 N   0  0  0  0  0  0  0  0  0  0  0  0
   44.9420   35.0190   44.5360 C   0  0  0  0  0  0  0  0  0  0  0  0
   45.8980   34.8970   43.5080 C   0  0  0  0  0  0  0  0  0  0  0  0
   46.9590   33.9920   43.6240 C   0  0  0  0  0  0  0  0  0  0  0  0
   46.9580   33.2870   44.7730 N   0  0  0  0  0  0  0  0  0  0  0  0
   46.0610   33.3950   45.7430 C   0  0  0  0  0  0  0  0  0  0  0  0
   45.0570   34.2670   45.6110 N   0  0  0  0  0  0  0  0  0  0  0  0
   43.8770   35.9580   44.3590 N   0  0  0  0  0  0  0  0  0  0  0  0
   48.6240   30.0480   48.0370 C   0  0  0  0  0  0  0  0  0  0  0  0
   49.7190   30.2800   48.7590 C   0  0  0  0  0  0  0  0  0  0  0  0
   49.8300   31.4490   49.6470 C   0  0  0  0  0  0  0  0  0  0  0  0
   50.3230   31.1770   50.9610 N   0  0  0  0  0  0  0  0  0  0  0  0
   51.5430   31.9000   51.2280 C   0  0  0  0  0  0  0  0  0  0  0  0
   52.4080   31.2140   52.2510 C   0  0  0  0  0  0  0  0  0  0  0  0
   51.5780   30.4590   53.1130 O   0  0  0  0  0  0  0  0  0  0  0  0
   51.2330   29.3380   52.3470 C   0  0  0  0  0  0  0  0  0  0  0  0
   50.3850   29.7740   51.1870 C   0  0  0  0  0  0  0  0  0  0  0  0
   44.4151   33.2933   47.9327 H   0  0  0  0  0  0  0  0  0  0  0  0
   44.7774   31.8130   49.9013 H   0  0  0  0  0  0  0  0  0  0  0  0
   46.7348   30.2829   49.9753 H   0  0  0  0  0  0  0  0  0  0  0  0
   45.8094   35.5194   42.6053 H   0  0  0  0  0  0  0  0  0  0  0  0
   47.7264   33.8669   42.8459 H   0  0  0  0  0  0  0  0  0  0  0  0
   43.8278   36.5252   43.5006 H   0  0  0  0  0  0  0  0  0  0  0  0
   43.1595   36.0668   45.0899 H   0  0  0  0  0  0  0  0  0  0  0  0
   48.5963   29.1474   47.4060 H   0  0  0  0  0  0  0  0  0  0  0  0
   50.5637   29.5788   48.6899 H   0  0  0  0  0  0  0  0  0  0  0  0
   50.5098   32.1721   49.1726 H   0  0  0  0  0  0  0  0  0  0  0  0
   48.8054   31.8265   49.7801 H   0  0  0  0  0  0  0  0  0  0  0  0
   52.1109   31.9918   50.2904 H   0  0  0  0  0  0  0  0  0  0  0  0
   51.2660   32.8851   51.6314 H   0  0  0  0  0  0  0  0  0  0  0  0
   53.1211   30.5465   51.7452 H   0  0  0  0  0  0  0  0  0  0  0  0
   52.9687   31.9622   52.8305 H   0  0  0  0  0  0  0  0  0  0  0  0
   52.1466   28.8528   51.9729 H   0  0  0  0  0  0  0  0  0  0  0  0
   50.6709   28.6250   52.9681 H   0  0  0  0  0  0  0  0  0  0  0  0
   49.3605   29.4145   51.3634 H   0  0  0  0  0  0  0  0  0  0  0  0
   50.8597   29.3468   50.2914 H   0  0  0  0  0  0  0  0  0  0  0  0
  1  6  1  0
  1  2  2  0
  2  3  1  0
  3  4  2  0
  5  4  1  0
  6  5  2  0
  7 12  2  0
  8  9  2  0
  8  7  1  0
  9 10  1  0
 10 11  2  0
 11  1  1  0
 12 11  1  0
 13  7  1  0
 14  5  1  0
 14 15  2  0
 15 16  1  0
 16 17  1  0
 17 22  1  0
 17 18  1  0
 18 19  1  0
 19 20  1  0
 21 20  1  0
 22 21  1  0
  2 23  1  0
  3 24  1  0
  4 25  1  0
  8 26  1  0
  9 27  1  0
 13 28  1  0
 13 29  1  0
 14 30  1  0
 15 31  1  0
 16 32  1  0
 16 33  1  0
 18 34  1  0
 18 35  1  0
 19 36  1  0
 19 37  1  0
 21 38  1  0
 21 39  1  0
 22 40  1  0
 22 41  1  0
M  ISO  8  23  14  24  14  25  14  26  14  27  14  32   8  33   8  34  13
M  ISO  7  35  13  36  13  37  13  38  13  39  13  40  13  41  13
M  END
>  <minimizedAffinity>  (1) 
-6.4999299

>  <minimizedRMSD>  (1) 
0.429685116

$$$$
