
     RDKit          3D

 35 37  0  0  0  0  0  0  0  0999 V2000
   46.1440   32.5750   46.9760 C   0  0  0  0  0  0  0  0  0  0  0  0
   45.2120   32.5790   47.9680 C   0  0  0  0  0  0  0  0  0  0  0  0
   45.4090   31.7670   49.0660 C   0  0  0  0  0  0  0  0  0  0  0  0
   46.5330   30.9620   49.1580 C   0  0  0  0  0  0  0  0  0  0  0  0
   47.4760   30.9850   48.1100 C   0  0  0  0  0  0  0  0  0  0  0  0
   47.2500   31.7680   47.0910 N   0  0  0  0  0  0  0  0  0  0  0  0
   44.9430   35.0090   44.5360 C   0  0  0  0  0  0  0  0  0  0  0  0
   45.9040   34.8810   43.5170 C   0  0  0  0  0  0  0  0  0  0  0  0
   46.9610   33.9650   43.6590 C   0  0  0  0  0  0  0  0  0  0  0  0
   46.9620   33.2640   44.8060 N   0  0  0  0  0  0  0  0  0  0  0  0
   46.0520   33.3890   45.7630 C   0  0  0  0  0  0  0  0  0  0  0  0
   45.0560   34.2530   45.6280 N   0  0  0  0  0  0  0  0  0  0  0  0
   43.8870   35.9490   44.3520 N   0  0  0  0  0  0  0  0  0  0  0  0
   48.6590   30.1540   48.1790 C   0  0  0  0  0  0  0  0  0  0  0  0
   49.7510   30.5080   48.8520 C   0  0  0  0  0  0  0  0  0  0  0  0
   49.8540   31.7940   49.5950 C   0  0  0  0  0  0  0  0  0  0  0  0
   51.2460   32.1290   50.0010 C   0  0  0  0  0  0  0  0  0  0  0  0
   51.4730   33.5780   50.4120 C   0  0  0  0  0  0  0  0  0  0  0  0
   51.4520   32.5750   51.4820 C   0  0  0  0  0  0  0  0  0  0  0  0
   44.3190   33.2172   47.8957 H   0  0  0  0  0  0  0  0  0  0  0  0
   44.6658   31.7586   49.8769 H   0  0  0  0  0  0  0  0  0  0  0  0
   46.6872   30.3154   50.0345 H   0  0  0  0  0  0  0  0  0  0  0  0
   45.8286   35.4975   42.6091 H   0  0  0  0  0  0  0  0  0  0  0  0
   47.7325   33.8314   42.8863 H   0  0  0  0  0  0  0  0  0  0  0  0
   43.8422   36.5110   43.4900 H   0  0  0  0  0  0  0  0  0  0  0  0
   43.1689   36.0661   45.0811 H   0  0  0  0  0  0  0  0  0  0  0  0
   48.6552   29.1882   47.6524 H   0  0  0  0  0  0  0  0  0  0  0  0
   50.6118   29.8232   48.8597 H   0  0  0  0  0  0  0  0  0  0  0  0
   49.4744   32.6008   48.9509 H   0  0  0  0  0  0  0  0  0  0  0  0
   49.2627   31.6864   50.5163 H   0  0  0  0  0  0  0  0  0  0  0  0
   51.7158   31.4024   49.3217 H   0  0  0  0  0  0  0  0  0  0  0  0
   52.4203   34.0730   50.1518 H   0  0  0  0  0  0  0  0  0  0  0  0
   50.9221   34.5137   50.2358 H   0  0  0  0  0  0  0  0  0  0  0  0
   50.6088   32.5424   52.1876 H   0  0  0  0  0  0  0  0  0  0  0  0
   52.1409   32.2880   52.2901 H   0  0  0  0  0  0  0  0  0  0  0  0
  1  6  1  0
  1  2  2  0
  2  3  1  0
  3  4  2  0
  5 14  1  0
  5  4  1  0
  6  5  2  0
  7 12  2  0
  8  9  2  0
  8  7  1  0
  9 10  1  0
 10 11  2  0
 11  1  1  0
 12 11  1  0
 13  7  1  0
 14 15  2  0
 15 16  1  0
 16 17  1  0
 17 18  1  0
 17 19  1  0
 18 19  1  0
  2 20  1  0
  3 21  1  0
  4 22  1  0
  8 23  1  0
  9 24  1  0
 13 25  1  0
 13 26  1  0
 14 27  1  0
 15 28  1  0
 16 29  1  0
 16 30  1  0
 17 31  1  0
 18 32  1  0
 18 33  1  0
 19 34  1  0
 19 35  1  0
M  ISO  8  20  14  21  14  22  14  23  14  24  14  29   8  30   8  31  13
M  ISO  4  32  13  33  13  34  13  35  13
M  END
>  <minimizedAffinity>  (1) 
-6.00432301

>  <minimizedRMSD>  (1) 
0.887983501

$$$$
