
     RDKit          3D

 30 31  0  0  0  0  0  0  0  0999 V2000
   46.2060   32.5660   47.0040 C   0  0  0  0  0  0  0  0  0  0  0  0
   45.2600   32.5470   47.9820 C   0  0  0  0  0  0  0  0  0  0  0  0
   45.4700   31.7420   49.0910 C   0  0  0  0  0  0  0  0  0  0  0  0
   46.6180   30.9780   49.1980 C   0  0  0  0  0  0  0  0  0  0  0  0
   47.5550   31.0310   48.1740 C   0  0  0  0  0  0  0  0  0  0  0  0
   47.3220   31.8040   47.1400 N   0  0  0  0  0  0  0  0  0  0  0  0
   44.9790   34.9870   44.5590 C   0  0  0  0  0  0  0  0  0  0  0  0
   45.9270   34.8450   43.5240 C   0  0  0  0  0  0  0  0  0  0  0  0
   46.9860   33.9170   43.6700 C   0  0  0  0  0  0  0  0  0  0  0  0
   46.9800   33.2420   44.8200 N   0  0  0  0  0  0  0  0  0  0  0  0
   46.0850   33.3770   45.7950 C   0  0  0  0  0  0  0  0  0  0  0  0
   45.0800   34.2570   45.6600 N   0  0  0  0  0  0  0  0  0  0  0  0
   43.9200   35.9250   44.4000 N   0  0  0  0  0  0  0  0  0  0  0  0
   48.7840   30.2420   48.2420 C   0  0  0  0  0  0  0  0  0  0  0  0
   49.8550   30.6130   48.9090 C   0  0  0  0  0  0  0  0  0  0  0  0
   49.9060   31.8970   49.6650 C   0  0  0  0  0  0  0  0  0  0  0  0
   51.2810   32.3540   49.7960 N   0  0  0  0  0  0  0  0  0  0  0  0
   44.3488   33.1569   47.8946 H   0  0  0  0  0  0  0  0  0  0  0  0
   44.7173   31.7106   49.8925 H   0  0  0  0  0  0  0  0  0  0  0  0
   46.7859   30.3399   50.0782 H   0  0  0  0  0  0  0  0  0  0  0  0
   45.8439   35.4512   42.6099 H   0  0  0  0  0  0  0  0  0  0  0  0
   47.7529   33.7648   42.8963 H   0  0  0  0  0  0  0  0  0  0  0  0
   43.8538   36.4859   43.5386 H   0  0  0  0  0  0  0  0  0  0  0  0
   43.2200   36.0428   45.1463 H   0  0  0  0  0  0  0  0  0  0  0  0
   48.8146   29.2829   47.7043 H   0  0  0  0  0  0  0  0  0  0  0  0
   50.7382   29.9574   48.9091 H   0  0  0  0  0  0  0  0  0  0  0  0
   49.3209   32.6577   49.1274 H   0  0  0  0  0  0  0  0  0  0  0  0
   49.4859   31.7369   50.6690 H   0  0  0  0  0  0  0  0  0  0  0  0
   51.5225   32.4343   50.7941 H   0  0  0  0  0  0  0  0  0  0  0  0
   51.9122   31.6776   49.3433 H   0  0  0  0  0  0  0  0  0  0  0  0
  1  6  1  0
  1  2  2  0
  2  3  1  0
  3  4  2  0
  5 14  1  0
  5  4  1  0
  6  5  2  0
  7 12  2  0
  8  9  2  0
  8  7  1  0
  9 10  1  0
 10 11  2  0
 11  1  1  0
 12 11  1  0
 13  7  1  0
 14 15  2  0
 15 16  1  0
 16 17  1  0
  2 18  1  0
  3 19  1  0
  4 20  1  0
  8 21  1  0
  9 22  1  0
 13 23  1  0
 13 24  1  0
 14 25  1  0
 15 26  1  0
 16 27  1  0
 16 28  1  0
 17 29  1  0
 17 30  1  0
M  ISO  8  18  14  19  14  20  14  21  14  22  14  27   8  28   8  29   5
M  ISO  1  30   5
M  END
>  <minimizedAffinity>  (1) 
-5.57621193

>  <minimizedRMSD>  (1) 
0.218983054

$$$$
