
     RDKit          3D

 23 24  0  0  0  0  0  0  0  0999 V2000
   45.5080   34.4630   44.1420 C   0  0  0  0  0  0  0  0  0  0  0  0
   46.5360   34.0180   43.2820 C   0  0  0  0  0  0  0  0  0  0  0  0
   47.4950   33.1210   43.8000 C   0  0  0  0  0  0  0  0  0  0  0  0
   47.3680   32.7400   45.1050 N   0  0  0  0  0  0  0  0  0  0  0  0
   46.3650   33.1990   45.8780 C   0  0  0  0  0  0  0  0  0  0  0  0
   45.4450   34.0460   45.4160 N   0  0  0  0  0  0  0  0  0  0  0  0
   44.5160   35.4060   43.5770 C   0  0  0  0  0  0  0  0  0  0  0  0
   45.1100   36.7940   43.2520 C   0  0  0  0  0  0  0  0  0  0  0  0
   44.5510   35.8760   42.2090 C   0  0  0  0  0  0  0  0  0  0  0  0
   48.4840   32.7120   42.9150 O   0  0  0  0  0  0  0  0  0  0  0  0
   50.9820   33.1290   42.0280 O   0  0  0  0  0  0  0  0  0  0  0  0
   49.6420   33.7640   42.2560 P   0  0  0  0  0  0  0  0  0  0  0  0
   49.8510   35.0110   43.3830 O   0  0  0  0  0  0  0  0  0  0  0  0
   49.0960   34.4140   40.7720 O   0  0  0  0  0  0  0  0  0  0  0  0
   46.5879   34.3607   42.2380 H   0  0  0  0  0  0  0  0  0  0  0  0
   46.3030   32.8643   46.9240 H   0  0  0  0  0  0  0  0  0  0  0  0
   43.6986   34.9614   44.1637 H   0  0  0  0  0  0  0  0  0  0  0  0
   44.5731   37.7116   43.5345 H   0  0  0  0  0  0  0  0  0  0  0  0
   46.0640   37.3128   43.4275 H   0  0  0  0  0  0  0  0  0  0  0  0
   43.6104   36.1405   41.7038 H   0  0  0  0  0  0  0  0  0  0  0  0
   44.9513   35.4579   41.2736 H   0  0  0  0  0  0  0  0  0  0  0  0
   49.7891   34.6414   44.2993 H   0  0  0  0  0  0  0  0  0  0  0  0
   48.4695   35.1598   40.9490 H   0  0  0  0  0  0  0  0  0  0  0  0
  1  6  2  0
  2  3  2  0
  2  1  1  0
  3  4  1  0
  4  5  2  0
  6  5  1  0
  7  1  1  0
  8  7  1  0
  9  8  1  0
  9  7  1  0
 10  3  1  0
 11 12  2  0
 12 10  1  0
 12 13  1  0
 14 12  1  0
  2 15  1  0
  5 16  1  0
  7 17  1  0
  8 18  1  0
  8 19  1  0
  9 20  1  0
  9 21  1  0
 13 22  1  0
 14 23  1  0
M  ISO  8  15  14  16  14  17  13  18  13  19  13  20  13  21  13  22   3
M  ISO  1  23   3
M  END
>  <minimizedAffinity>  (1) 
-4.55289316

>  <minimizedRMSD>  (1) 
1.43535912

$$$$
