
     RDKit          3D

 27 29  0  0  0  0  0  0  0  0999 V2000
   45.4590   34.4390   44.2440 C   0  0  0  0  0  0  0  0  0  0  0  0
   46.4170   33.9030   43.3560 C   0  0  0  0  0  0  0  0  0  0  0  0
   47.3600   32.9770   43.8410 C   0  0  0  0  0  0  0  0  0  0  0  0
   47.2750   32.6570   45.1630 N   0  0  0  0  0  0  0  0  0  0  0  0
   46.3530   33.1870   45.9730 C   0  0  0  0  0  0  0  0  0  0  0  0
   45.4380   34.0800   45.5250 N   0  0  0  0  0  0  0  0  0  0  0  0
   49.4750   34.9440   42.8600 Cl  0  0  0  0  0  0  0  0  0  0  0  0
   49.3570   33.2240   42.4920 C   0  0  0  0  0  0  0  0  0  0  0  0
   48.3700   32.3920   42.9710 C   0  0  0  0  0  0  0  0  0  0  0  0
   48.4280   31.0700   42.5820 C   0  0  0  0  0  0  0  0  0  0  0  0
   49.3840   30.5440   41.7670 C   0  0  0  0  0  0  0  0  0  0  0  0
   50.3700   31.4070   41.2970 C   0  0  0  0  0  0  0  0  0  0  0  0
   51.5980   30.7100   40.2450 Cl  0  0  0  0  0  0  0  0  0  0  0  0
   50.3500   32.7340   41.6600 C   0  0  0  0  0  0  0  0  0  0  0  0
   44.4840   35.4020   43.6900 C   0  0  0  0  0  0  0  0  0  0  0  0
   45.1220   36.7620   43.3100 C   0  0  0  0  0  0  0  0  0  0  0  0
   44.4630   35.8520   42.3180 C   0  0  0  0  0  0  0  0  0  0  0  0
   46.4264   34.2052   42.2984 H   0  0  0  0  0  0  0  0  0  0  0  0
   46.3368   32.8900   47.0320 H   0  0  0  0  0  0  0  0  0  0  0  0
   47.6466   30.3924   42.9566 H   0  0  0  0  0  0  0  0  0  0  0  0
   49.3773   29.4792   41.4910 H   0  0  0  0  0  0  0  0  0  0  0  0
   51.1306   33.4126   41.2856 H   0  0  0  0  0  0  0  0  0  0  0  0
   43.6778   34.9917   44.3159 H   0  0  0  0  0  0  0  0  0  0  0  0
   44.6431   37.7068   43.6066 H   0  0  0  0  0  0  0  0  0  0  0  0
   46.1060   37.2406   43.4224 H   0  0  0  0  0  0  0  0  0  0  0  0
   43.5075   36.1512   41.8624 H   0  0  0  0  0  0  0  0  0  0  0  0
   44.7912   35.4025   41.3692 H   0  0  0  0  0  0  0  0  0  0  0  0
  1  6  2  0
  2  3  2  0
  2  1  1  0
  3  4  1  0
  4  5  2  0
  6  5  1  0
  8  7  1  0
  8  9  2  0
  9  3  1  0
 10  9  1  0
 11 10  2  0
 12 14  2  0
 12 11  1  0
 13 12  1  0
 14  8  1  0
 15  1  1  0
 16 15  1  0
 17 16  1  0
 17 15  1  0
  2 18  1  0
  5 19  1  0
 10 20  1  0
 11 21  1  0
 14 22  1  0
 15 23  1  0
 16 24  1  0
 16 25  1  0
 17 26  1  0
 17 27  1  0
M  ISO  8  18  14  19  14  20  14  21  14  22  14  23  13  24  13  25  13
M  ISO  2  26  13  27  13
M  END
>  <minimizedAffinity>  (1) 
-4.45960474

>  <minimizedRMSD>  (1) 
1.22105348

$$$$
