
     RDKit          3D

 27 29  0  0  0  0  0  0  0  0999 V2000
   45.3440   34.5950   44.3050 C   0  0  0  0  0  0  0  0  0  0  0  0
   46.4180   34.1770   43.4900 C   0  0  0  0  0  0  0  0  0  0  0  0
   47.3480   33.2550   43.9990 C   0  0  0  0  0  0  0  0  0  0  0  0
   47.1350   32.8230   45.2810 N   0  0  0  0  0  0  0  0  0  0  0  0
   46.1040   33.2450   46.0190 C   0  0  0  0  0  0  0  0  0  0  0  0
   45.2100   34.1210   45.5520 N   0  0  0  0  0  0  0  0  0  0  0  0
   48.4670   32.7880   43.2160 C   0  0  0  0  0  0  0  0  0  0  0  0
   48.7160   31.4790   42.8650 C   0  0  0  0  0  0  0  0  0  0  0  0
   49.7970   31.0710   42.1150 C   0  0  0  0  0  0  0  0  0  0  0  0
   50.6870   32.0260   41.6850 C   0  0  0  0  0  0  0  0  0  0  0  0
   50.4880   33.3600   42.0080 C   0  0  0  0  0  0  0  0  0  0  0  0
   49.3800   33.7200   42.7680 C   0  0  0  0  0  0  0  0  0  0  0  0
   44.3960   35.5710   43.7300 C   0  0  0  0  0  0  0  0  0  0  0  0
   45.0940   36.8610   43.2280 C   0  0  0  0  0  0  0  0  0  0  0  0
   44.3650   35.9230   42.3270 C   0  0  0  0  0  0  0  0  0  0  0  0
   46.5257   34.5687   42.4678 H   0  0  0  0  0  0  0  0  0  0  0  0
   45.9879   32.8592   47.0426 H   0  0  0  0  0  0  0  0  0  0  0  0
   48.0062   30.7107   43.2055 H   0  0  0  0  0  0  0  0  0  0  0  0
   49.9440   30.0095   41.8669 H   0  0  0  0  0  0  0  0  0  0  0  0
   51.5594   31.7315   41.0831 H   0  0  0  0  0  0  0  0  0  0  0  0
   51.1996   34.1261   41.6664 H   0  0  0  0  0  0  0  0  0  0  0  0
   49.2272   34.7799   43.0194 H   0  0  0  0  0  0  0  0  0  0  0  0
   43.5902   35.2589   44.4106 H   0  0  0  0  0  0  0  0  0  0  0  0
   44.6744   37.8505   43.4619 H   0  0  0  0  0  0  0  0  0  0  0  0
   46.1051   37.2910   43.2799 H   0  0  0  0  0  0  0  0  0  0  0  0
   43.4156   36.2409   41.8714 H   0  0  0  0  0  0  0  0  0  0  0  0
   44.6446   35.3880   41.4075 H   0  0  0  0  0  0  0  0  0  0  0  0
  1  6  2  0
  2  3  2  0
  2  1  1  0
  3  4  1  0
  4  5  2  0
  6  5  1  0
  7  3  1  0
  8  7  2  0
  9  8  1  0
 10 11  1  0
 10  9  2  0
 11 12  2  0
 12  7  1  0
 13  1  1  0
 14 13  1  0
 15 14  1  0
 15 13  1  0
  2 16  1  0
  5 17  1  0
  8 18  1  0
  9 19  1  0
 10 20  1  0
 11 21  1  0
 12 22  1  0
 13 23  1  0
 14 24  1  0
 14 25  1  0
 15 26  1  0
 15 27  1  0
M  ISO  8  16  14  17  14  18  14  19  14  20  14  21  14  22  14  23  13
M  ISO  4  24  13  25  13  26  13  27  13
M  END
>  <minimizedAffinity>  (1) 
-4.29834509

>  <minimizedRMSD>  (1) 
1.32302392

$$$$
