
     RDKit          3D

 20 21  0  0  0  0  0  0  0  0999 V2000
   45.9530   34.1220   43.6980 C   0  0  0  0  0  0  0  0  0  0  0  0
   47.0290   34.7240   42.9840 C   0  0  0  0  0  0  0  0  0  0  0  0
   48.2100   34.0010   42.7930 C   0  0  0  0  0  0  0  0  0  0  0  0
   48.2450   32.7430   43.3200 N   0  0  0  0  0  0  0  0  0  0  0  0
   47.2040   32.1990   43.9960 C   0  0  0  0  0  0  0  0  0  0  0  0
   46.0770   32.8810   44.1800 N   0  0  0  0  0  0  0  0  0  0  0  0
   44.7200   34.9160   43.8900 C   0  0  0  0  0  0  0  0  0  0  0  0
   44.5890   35.4480   45.3450 C   0  0  0  0  0  0  0  0  0  0  0  0
   44.7260   36.3360   44.1550 C   0  0  0  0  0  0  0  0  0  0  0  0
   49.3450   34.5950   42.0560 C   0  0  0  0  0  0  0  0  0  0  0  0
   48.9570   35.3500   40.9930 F   0  0  0  0  0  0  0  0  0  0  0  0
   50.0830   35.4600   42.8780 F   0  0  0  0  0  0  0  0  0  0  0  0
   50.2520   33.6570   41.6280 F   0  0  0  0  0  0  0  0  0  0  0  0
   46.9315   35.7455   42.5878 H   0  0  0  0  0  0  0  0  0  0  0  0
   47.2923   31.1790   44.3982 H   0  0  0  0  0  0  0  0  0  0  0  0
   44.1571   34.3271   43.1509 H   0  0  0  0  0  0  0  0  0  0  0  0
   43.6319   35.3768   45.8824 H   0  0  0  0  0  0  0  0  0  0  0  0
   45.1198   35.3037   46.2976 H   0  0  0  0  0  0  0  0  0  0  0  0
   45.6556   36.9067   44.0128 H   0  0  0  0  0  0  0  0  0  0  0  0
   44.1313   37.1774   43.7697 H   0  0  0  0  0  0  0  0  0  0  0  0
  1  7  1  0
  1  6  1  0
  2  1  2  0
  3  2  1  0
  3  4  2  0
  4  5  1  0
  5  6  2  0
  7  9  1  0
  7  8  1  0
  9  8  1  0
 10  3  1  0
 10 12  1  0
 11 10  1  0
 13 10  1  0
  2 14  1  0
  5 15  1  0
  7 16  1  0
  8 17  1  0
  8 18  1  0
  9 19  1  0
  9 20  1  0
M  ISO  7  14  14  15  14  16  13  17  13  18  13  19  13  20  13
M  END
>  <minimizedAffinity>  (1) 
-4.16764116

>  <minimizedRMSD>  (1) 
2.81167793

$$$$
