
     RDKit          3D

 23 24  0  0  1  0  0  0  0  0999 V2000
   46.0560   32.5680   46.0380 C   0  0  1  0  0  0  0  0  0  0  0  0
   47.0940   32.6480   47.0930 C   0  0  0  0  0  0  0  0  0  0  0  0
   45.6120   32.5050   47.4540 C   0  0  2  0  0  0  0  0  0  0  0  0
   44.5520   35.7830   44.9680 C   0  0  0  0  0  0  0  0  0  0  0  0
   45.0880   35.9430   43.6630 C   0  0  0  0  0  0  0  0  0  0  0  0
   45.9640   34.9380   43.1820 C   0  0  0  0  0  0  0  0  0  0  0  0
   46.2480   33.8880   43.9740 N   0  0  0  0  0  0  0  0  0  0  0  0
   45.7050   33.7770   45.2280 C   0  0  0  0  0  0  0  0  0  0  0  0
   44.8670   34.7240   45.7070 N   0  0  0  0  0  0  0  0  0  0  0  0
   45.1220   31.1880   48.0100 C   0  0  0  0  0  0  0  0  0  0  0  0
   45.1470   31.3590   49.5330 C   0  0  0  0  0  0  0  0  0  0  0  0
   45.9249   31.9247   45.1554 H   0  0  0  0  0  0  0  0  0  0  0  0
   47.7854   31.8075   47.2530 H   0  0  0  0  0  0  0  0  0  0  0  0
   47.8983   33.3534   47.3490 H   0  0  0  0  0  0  0  0  0  0  0  0
   44.8974   33.0631   48.0768 H   0  0  0  0  0  0  0  0  0  0  0  0
   43.8683   36.5441   45.3721 H   0  0  0  0  0  0  0  0  0  0  0  0
   44.8321   36.8172   43.0463 H   0  0  0  0  0  0  0  0  0  0  0  0
   46.4047   35.0152   42.1771 H   0  0  0  0  0  0  0  0  0  0  0  0
   44.0995   30.9793   47.6622 H   0  0  0  0  0  0  0  0  0  0  0  0
   45.7477   30.3452   47.6811 H   0  0  0  0  0  0  0  0  0  0  0  0
   45.0039   30.3803   50.0143 H   0  0  0  0  0  0  0  0  0  0  0  0
   46.1162   31.7798   49.8389 H   0  0  0  0  0  0  0  0  0  0  0  0
   44.3388   32.0397   49.8389 H   0  0  0  0  0  0  0  0  0  0  0  0
  1  2  1  0
  1  3  1  0
  2  3  1  0
  3 10  1  0
  4  9  2  0
  5  4  1  0
  6  5  2  0
  6  7  1  0
  7  8  2  0
  8  9  1  0
  8  1  1  0
 10 11  1  0
  1 12  1  6
  2 13  1  0
  2 14  1  0
  3 15  1  1
  4 16  1  0
  5 17  1  0
  6 18  1  0
 10 19  1  0
 10 20  1  0
 11 21  1  0
 11 22  1  0
 11 23  1  0
M  ISO  8  12  13  13  13  14  13  15  13  16  14  17  14  18  14  19   8
M  ISO  4  20   8  21   8  22   8  23   8
M  END
>  <minimizedAffinity>  (1) 
-4.1982336

>  <minimizedRMSD>  (1) 
0.117872082

$$$$
