
     RDKit          3D

 26 28  0  0  0  0  0  0  0  0999 V2000
   45.3480   34.6230   44.3200 C   0  0  0  0  0  0  0  0  0  0  0  0
   46.4340   34.2270   43.5030 C   0  0  0  0  0  0  0  0  0  0  0  0
   47.3550   33.2900   44.0160 C   0  0  0  0  0  0  0  0  0  0  0  0
   47.1420   32.8200   45.2770 N   0  0  0  0  0  0  0  0  0  0  0  0
   46.0820   33.2340   46.0200 C   0  0  0  0  0  0  0  0  0  0  0  0
   45.1990   34.1160   45.5590 N   0  0  0  0  0  0  0  0  0  0  0  0
   44.4040   35.6150   43.7630 C   0  0  0  0  0  0  0  0  0  0  0  0
   45.1080   36.9080   43.2830 C   0  0  0  0  0  0  0  0  0  0  0  0
   44.3940   35.9850   42.3650 C   0  0  0  0  0  0  0  0  0  0  0  0
   48.4770   32.8750   43.1840 C   0  0  0  0  0  0  0  0  0  0  0  0
   49.3820   33.8290   42.7690 C   0  0  0  0  0  0  0  0  0  0  0  0
   50.4060   33.3410   41.9890 C   0  0  0  0  0  0  0  0  0  0  0  0
   50.4970   32.0200   41.6660 C   0  0  0  0  0  0  0  0  0  0  0  0
   49.5650   31.0820   42.1010 C   0  0  0  0  0  0  0  0  0  0  0  0
   48.5550   31.5790   42.8740 N   0  0  0  0  0  0  0  0  0  0  0  0
   46.5568   34.6406   42.4911 H   0  0  0  0  0  0  0  0  0  0  0  0
   45.9501   32.8274   47.0335 H   0  0  0  0  0  0  0  0  0  0  0  0
   43.5921   35.3012   44.4356 H   0  0  0  0  0  0  0  0  0  0  0  0
   44.6858   37.8953   43.5218 H   0  0  0  0  0  0  0  0  0  0  0  0
   46.1188   37.3364   43.3529 H   0  0  0  0  0  0  0  0  0  0  0  0
   43.4515   36.3094   41.8998 H   0  0  0  0  0  0  0  0  0  0  0  0
   44.6867   35.4609   41.4432 H   0  0  0  0  0  0  0  0  0  0  0  0
   49.2931   34.8917   43.0388 H   0  0  0  0  0  0  0  0  0  0  0  0
   51.1722   34.0366   41.6160 H   0  0  0  0  0  0  0  0  0  0  0  0
   51.3363   31.6833   41.0397 H   0  0  0  0  0  0  0  0  0  0  0  0
   49.6370   30.0157   41.8405 H   0  0  0  0  0  0  0  0  0  0  0  0
  1  6  2  0
  2  3  2  0
  2  1  1  0
  3  4  1  0
  4  5  2  0
  6  5  1  0
  7  1  1  0
  8  7  1  0
  9  8  1  0
  9  7  1  0
 10  3  1  0
 11 10  2  0
 12 11  1  0
 13 12  2  0
 13 14  1  0
 14 15  2  0
 15 10  1  0
  2 16  1  0
  5 17  1  0
  7 18  1  0
  8 19  1  0
  8 20  1  0
  9 21  1  0
  9 22  1  0
 11 23  1  0
 12 24  1  0
 13 25  1  0
 14 26  1  0
M  ISO  8  16  14  17  14  18  13  19  13  20  13  21  13  22  13  23  14
M  ISO  3  24  14  25  14  26  14
M  END
>  <minimizedAffinity>  (1) 
-4.16494465

>  <minimizedRMSD>  (1) 
1.39797437

$$$$
