
     RDKit          3D

 33 35  0  0  0  0  0  0  0  0999 V2000
   44.0310   34.6000   41.2920 C   0  0  0  0  0  0  0  0  0  0  0  0
   42.9170   35.3760   40.9320 C   0  0  0  0  0  0  0  0  0  0  0  0
   42.3150   35.1920   39.6970 C   0  0  0  0  0  0  0  0  0  0  0  0
   42.8650   34.2380   38.8850 N   0  0  0  0  0  0  0  0  0  0  0  0
   43.9390   33.5110   39.2640 C   0  0  0  0  0  0  0  0  0  0  0  0
   44.5170   33.6800   40.4360 N   0  0  0  0  0  0  0  0  0  0  0  0
   44.6490   34.7920   42.6300 C   0  0  0  0  0  0  0  0  0  0  0  0
   46.1330   35.2490   42.5300 C   0  0  0  0  0  0  0  0  0  0  0  0
   45.0350   36.0770   43.1240 C   0  0  0  0  0  0  0  0  0  0  0  0
   41.1370   36.0150   39.3440 C   0  0  0  0  0  0  0  0  0  0  0  0
   39.9130   35.6630   40.1900 C   0  0  0  0  0  0  0  0  0  0  0  0
   39.7620   33.8300   42.1970 F   0  0  0  0  0  0  0  0  0  0  0  0
   39.2890   33.5030   40.9510 C   0  0  0  0  0  0  0  0  0  0  0  0
   39.3070   34.3700   39.8400 C   0  0  0  0  0  0  0  0  0  0  0  0
   38.7730   33.7900   38.7140 C   0  0  0  0  0  0  0  0  0  0  0  0
   38.2720   32.5130   38.6540 C   0  0  0  0  0  0  0  0  0  0  0  0
   38.2750   31.7110   39.7520 C   0  0  0  0  0  0  0  0  0  0  0  0
   38.7950   32.2190   40.9200 C   0  0  0  0  0  0  0  0  0  0  0  0
   42.5225   36.1293   41.6297 H   0  0  0  0  0  0  0  0  0  0  0  0
   44.3428   32.7557   38.5737 H   0  0  0  0  0  0  0  0  0  0  0  0
   44.0452   33.9974   43.0926 H   0  0  0  0  0  0  0  0  0  0  0  0
   46.9041   34.7964   43.1708 H   0  0  0  0  0  0  0  0  0  0  0  0
   46.8842   35.3652   41.7349 H   0  0  0  0  0  0  0  0  0  0  0  0
   44.6964   36.9805   42.5958 H   0  0  0  0  0  0  0  0  0  0  0  0
   44.9116   36.5779   44.0956 H   0  0  0  0  0  0  0  0  0  0  0  0
   41.3847   37.0749   39.5029 H   0  0  0  0  0  0  0  0  0  0  0  0
   40.8888   35.8158   38.2911 H   0  0  0  0  0  0  0  0  0  0  0  0
   40.2185   35.6292   41.2462 H   0  0  0  0  0  0  0  0  0  0  0  0
   39.1551   36.4367   39.9979 H   0  0  0  0  0  0  0  0  0  0  0  0
   38.7450   34.3926   37.7942 H   0  0  0  0  0  0  0  0  0  0  0  0
   37.8631   32.1340   37.7058 H   0  0  0  0  0  0  0  0  0  0  0  0
   37.8740   30.6876   39.7078 H   0  0  0  0  0  0  0  0  0  0  0  0
   38.8159   31.5992   41.8285 H   0  0  0  0  0  0  0  0  0  0  0  0
  1  7  1  0
  2  1  2  0
  3  2  1  0
  4  5  1  0
  4  3  2  0
  5  6  2  0
  6  1  1  0
  7  9  1  0
  8  7  1  0
  8  9  1  0
 10  3  1  0
 10 11  1  0
 13 12  1  0
 14 11  1  0
 14 13  2  0
 15 14  1  0
 16 15  2  0
 16 17  1  0
 17 18  2  0
 18 13  1  0
  2 19  1  0
  5 20  1  0
  7 21  1  0
  8 22  1  0
  8 23  1  0
  9 24  1  0
  9 25  1  0
 10 26  1  0
 10 27  1  0
 11 28  1  0
 11 29  1  0
 15 30  1  0
 16 31  1  0
 17 32  1  0
 18 33  1  0
M  ISO  8  19  14  20  14  21  13  22  13  23  13  24  13  25  13  26   8
M  ISO  7  27   8  28   8  29   8  30  14  31  14  32  14  33  14
M  END
>  <minimizedAffinity>  (1) 
-5.39571619

>  <minimizedRMSD>  (1) 
2.13340759

$$$$
