
     RDKit          3D

 19 20  0  0  1  0  0  0  0  0999 V2000
   45.8150   32.7620   45.8700 C   0  0  1  0  0  0  0  0  0  0  0  0
   46.8630   32.7550   46.9170 C   0  0  0  0  0  0  0  0  0  0  0  0
   45.3750   32.8380   47.2860 C   0  0  2  0  0  0  0  0  0  0  0  0
   44.6160   36.0050   44.5510 C   0  0  0  0  0  0  0  0  0  0  0  0
   45.2800   36.0880   43.2910 C   0  0  0  0  0  0  0  0  0  0  0  0
   46.1370   35.0160   42.9360 C   0  0  0  0  0  0  0  0  0  0  0  0
   46.2850   33.9820   43.7870 N   0  0  0  0  0  0  0  0  0  0  0  0
   45.6290   33.9420   44.9860 C   0  0  0  0  0  0  0  0  0  0  0  0
   44.8060   34.9540   45.3480 N   0  0  0  0  0  0  0  0  0  0  0  0
   44.8700   31.6770   47.9710 N   0  0  0  0  0  0  0  0  0  0  0  0
   45.5882   32.0954   45.0249 H   0  0  0  0  0  0  0  0  0  0  0  0
   47.4333   31.8371   47.1224 H   0  0  0  0  0  0  0  0  0  0  0  0
   47.7591   33.3552   47.1334 H   0  0  0  0  0  0  0  0  0  0  0  0
   44.6941   33.5167   47.8206 H   0  0  0  0  0  0  0  0  0  0  0  0
   43.9420   36.8148   44.8671 H   0  0  0  0  0  0  0  0  0  0  0  0
   45.1330   36.9488   42.6222 H   0  0  0  0  0  0  0  0  0  0  0  0
   46.6750   35.0282   41.9766 H   0  0  0  0  0  0  0  0  0  0  0  0
   44.9339   31.8238   48.9885 H   0  0  0  0  0  0  0  0  0  0  0  0
   43.8862   31.5237   47.7073 H   0  0  0  0  0  0  0  0  0  0  0  0
  1  2  1  0
  1  3  1  0
  2  3  1  0
  3 10  1  0
  4  9  2  0
  5  4  1  0
  6  5  2  0
  6  7  1  0
  7  8  2  0
  8  9  1  0
  8  1  1  0
  1 11  1  6
  2 12  1  0
  2 13  1  0
  3 14  1  6
  4 15  1  0
  5 16  1  0
  6 17  1  0
 10 18  1  0
 10 19  1  0
M  ISO  8  11  13  12  13  13  13  14  13  15  14  16  14  17  14  18   5
M  ISO  1  19   5
M  END
>  <minimizedAffinity>  (1) 
-3.85764265

>  <minimizedRMSD>  (1) 
0.305213153

$$$$
