
     RDKit          3D

 40 43  0  0  0  0  0  0  0  0999 V2000
   40.6550   35.7270   39.3030 C   0  0  0  0  0  0  0  0  0  0  0  0
   39.8760   34.0410   40.8850 C   0  0  0  0  0  0  0  0  0  0  0  0
   40.1260   34.7380   41.9080 O   0  0  0  0  0  0  0  0  0  0  0  0
   40.0590   34.4310   39.5350 N   0  0  0  0  0  0  0  0  0  0  0  0
   38.0420   32.2580   41.0220 N   0  0  0  0  0  0  0  0  0  0  0  0
   39.3380   32.6800   41.1070 C   0  0  0  0  0  0  0  0  0  0  0  0
   40.0520   31.5680   41.4430 N   0  0  0  0  0  0  0  0  0  0  0  0
   39.2620   30.5030   41.5670 C   0  0  0  0  0  0  0  0  0  0  0  0
   39.5930   29.1920   41.8930 C   0  0  0  0  0  0  0  0  0  0  0  0
   38.5410   28.3310   41.9380 N   0  0  0  0  0  0  0  0  0  0  0  0
   37.2890   28.7400   41.6800 C   0  0  0  0  0  0  0  0  0  0  0  0
   37.0050   30.0220   41.3650 N   0  0  0  0  0  0  0  0  0  0  0  0
   37.9820   30.9430   41.2990 C   0  0  0  0  0  0  0  0  0  0  0  0
   40.9480   28.8470   42.1510 N   0  0  0  0  0  0  0  0  0  0  0  0
   42.0780   35.6340   38.7960 C   0  0  0  0  0  0  0  0  0  0  0  0
   44.1860   34.3300   41.6530 C   0  0  0  0  0  0  0  0  0  0  0  0
   43.4360   35.2120   40.8420 C   0  0  0  0  0  0  0  0  0  0  0  0
   42.8800   34.7400   39.6660 C   0  0  0  0  0  0  0  0  0  0  0  0
   43.1010   33.4170   39.3580 N   0  0  0  0  0  0  0  0  0  0  0  0
   43.8300   32.6090   40.1700 C   0  0  0  0  0  0  0  0  0  0  0  0
   44.3660   33.0590   41.3020 N   0  0  0  0  0  0  0  0  0  0  0  0
   44.7860   34.8490   42.9060 C   0  0  0  0  0  0  0  0  0  0  0  0
   46.2820   35.2810   42.7040 C   0  0  0  0  0  0  0  0  0  0  0  0
   45.2020   36.1880   43.1080 C   0  0  0  0  0  0  0  0  0  0  0  0
   40.0503   36.2639   38.5573 H   0  0  0  0  0  0  0  0  0  0  0  0
   40.6798   36.2581   40.2660 H   0  0  0  0  0  0  0  0  0  0  0  0
   39.7801   33.8189   38.7549 H   0  0  0  0  0  0  0  0  0  0  0  0
   37.2363   32.8536   40.7831 H   0  0  0  0  0  0  0  0  0  0  0  0
   36.4690   28.0083   41.7266 H   0  0  0  0  0  0  0  0  0  0  0  0
   41.1954   27.8768   42.3926 H   0  0  0  0  0  0  0  0  0  0  0  0
   41.6822   29.5673   42.0963 H   0  0  0  0  0  0  0  0  0  0  0  0
   42.0722   35.2331   37.7717 H   0  0  0  0  0  0  0  0  0  0  0  0
   42.5267   36.6383   38.8066 H   0  0  0  0  0  0  0  0  0  0  0  0
   43.2960   36.2610   41.1421 H   0  0  0  0  0  0  0  0  0  0  0  0
   43.9812   31.5573   39.8854 H   0  0  0  0  0  0  0  0  0  0  0  0
   44.1554   34.1971   43.5284 H   0  0  0  0  0  0  0  0  0  0  0  0
   47.0572   34.9751   43.4219 H   0  0  0  0  0  0  0  0  0  0  0  0
   47.0309   35.2315   41.8999 H   0  0  0  0  0  0  0  0  0  0  0  0
   44.8652   36.9626   42.4033 H   0  0  0  0  0  0  0  0  0  0  0  0
   45.0926   36.8778   43.9578 H   0  0  0  0  0  0  0  0  0  0  0  0
  1  4  1  0
  2  6  1  0
  2  3  2  0
  4  2  1  0
  5  6  1  0
  5 13  1  0
  6  7  2  0
  7  8  1  0
  8  9  2  0
  9 10  1  0
  9 14  1  0
 11 10  2  0
 12 11  1  0
 13 12  2  0
 13  8  1  0
 15  1  1  0
 15 18  1  0
 16 22  1  0
 17 16  2  0
 18 17  1  0
 19 18  2  0
 19 20  1  0
 20 21  2  0
 21 16  1  0
 22 24  1  0
 23 22  1  0
 23 24  1  0
  1 25  1  0
  1 26  1  0
  4 27  1  0
  5 28  1  0
 11 29  1  0
 14 30  1  0
 14 31  1  0
 15 32  1  0
 15 33  1  0
 17 34  1  0
 20 35  1  0
 22 36  1  0
 23 37  1  0
 23 38  1  0
 24 39  1  0
 24 40  1  0
M  ISO  8  25   8  26   8  28   9  29  14  32   8  33   8  34  14  35  14
M  ISO  5  36  13  37  13  38  13  39  13  40  13
M  END
>  <minimizedAffinity>  (1) 
-5.64517498

>  <minimizedRMSD>  (1) 
2.10890269

$$$$
