
     RDKit          3D

 40 42  0  0  0  0  0  0  0  0999 V2000
   40.8600   35.6400   39.3990 C   0  0  0  0  0  0  0  0  0  0  0  0
   43.9110   34.7510   41.4430 C   0  0  0  0  0  0  0  0  0  0  0  0
   42.6820   35.3390   41.0690 C   0  0  0  0  0  0  0  0  0  0  0  0
   42.1570   35.0440   39.8200 C   0  0  0  0  0  0  0  0  0  0  0  0
   42.8670   34.1920   39.0180 N   0  0  0  0  0  0  0  0  0  0  0  0
   44.0420   33.6540   39.4250 C   0  0  0  0  0  0  0  0  0  0  0  0
   44.5560   33.9290   40.6210 N   0  0  0  0  0  0  0  0  0  0  0  0
   44.4680   35.0830   42.7840 C   0  0  0  0  0  0  0  0  0  0  0  0
   46.0130   35.3180   42.7320 C   0  0  0  0  0  0  0  0  0  0  0  0
   45.0270   36.3400   43.1320 C   0  0  0  0  0  0  0  0  0  0  0  0
   39.7330   35.1490   40.2750 C   0  0  0  0  0  0  0  0  0  0  0  0
   39.3760   32.7840   40.6390 C   0  0  0  0  0  0  0  0  0  0  0  0
   40.0570   32.6910   41.6870 O   0  0  0  0  0  0  0  0  0  0  0  0
   39.1860   33.8950   39.7850 N   0  0  0  0  0  0  0  0  0  0  0  0
   38.6940   30.8020   39.0910 C   0  0  0  0  0  0  0  0  0  0  0  0
   38.6610   31.5480   40.2250 C   0  0  0  0  0  0  0  0  0  0  0  0
   37.8190   31.1730   41.2790 C   0  0  0  0  0  0  0  0  0  0  0  0
   37.0110   30.0390   41.1800 C   0  0  0  0  0  0  0  0  0  0  0  0
   37.0690   29.3050   40.0150 C   0  0  0  0  0  0  0  0  0  0  0  0
   37.9020   29.6840   38.9810 C   0  0  0  0  0  0  0  0  0  0  0  0
   39.8090   31.4530   37.9100 S   0  0  0  0  0  0  0  0  0  0  0  0
   39.8410   30.4880   36.7470 O   0  0  0  0  0  0  0  0  0  0  0  0
   41.2020   31.4870   38.4650 O   0  0  0  0  0  0  0  0  0  0  0  0
   40.9250   36.7354   39.4758 H   0  0  0  0  0  0  0  0  0  0  0  0
   40.6552   35.3395   38.3608 H   0  0  0  0  0  0  0  0  0  0  0  0
   42.1525   36.0169   41.7546 H   0  0  0  0  0  0  0  0  0  0  0  0
   44.5836   32.9740   38.7510 H   0  0  0  0  0  0  0  0  0  0  0  0
   43.7120   34.4731   43.3002 H   0  0  0  0  0  0  0  0  0  0  0  0
   46.6770   34.8558   43.4773 H   0  0  0  0  0  0  0  0  0  0  0  0
   46.8145   35.2249   41.9844 H   0  0  0  0  0  0  0  0  0  0  0  0
   44.8540   37.2030   42.4722 H   0  0  0  0  0  0  0  0  0  0  0  0
   44.9333   36.9753   44.0251 H   0  0  0  0  0  0  0  0  0  0  0  0
   40.1134   34.9985   41.2961 H   0  0  0  0  0  0  0  0  0  0  0  0
   38.9324   35.9032   40.2630 H   0  0  0  0  0  0  0  0  0  0  0  0
   38.6960   33.8209   38.8821 H   0  0  0  0  0  0  0  0  0  0  0  0
   37.7939   31.7795   42.1964 H   0  0  0  0  0  0  0  0  0  0  0  0
   36.3487   29.7406   42.0060 H   0  0  0  0  0  0  0  0  0  0  0  0
   36.4440   28.4062   39.9075 H   0  0  0  0  0  0  0  0  0  0  0  0
   37.9321   29.0846   38.0591 H   0  0  0  0  0  0  0  0  0  0  0  0
   39.4094   32.7152   37.5579 H   0  0  0  0  0  0  0  0  0  0  0  0
  1  4  1  0
  1 11  1  0
  2  8  1  0
  3  2  2  0
  4  3  1  0
  5  6  1  0
  5  4  2  0
  6  7  2  0
  7  2  1  0
  8 10  1  0
  9  8  1  0
  9 10  1  0
 12 13  2  0
 14 11  1  0
 14 12  1  0
 15 16  2  0
 16 12  1  0
 16 17  1  0
 18 17  2  0
 19 18  1  0
 20 15  1  0
 20 19  2  0
 21 23  2  0
 21 15  1  0
 22 21  2  0
  1 24  1  0
  1 25  1  0
  3 26  1  0
  6 27  1  0
  8 28  1  0
  9 29  1  0
  9 30  1  0
 10 31  1  0
 10 32  1  0
 11 33  1  0
 11 34  1  0
 14 35  1  0
 17 36  1  0
 18 37  1  0
 19 38  1  0
 20 39  1  0
 21 40  1  0
M  ISO  8  24   8  25   8  26  14  27  14  28  13  29  13  30  13  31  13
M  ISO  8  32  13  33   8  34   8  36  14  37  14  38  14  39  14  40  11
M  END
>  <minimizedAffinity>  (1) 
-5.17446041

>  <minimizedRMSD>  (1) 
1.07709944

$$$$
