
     RDKit          3D

 41 43  0  0  0  0  0  0  0  0999 V2000
   40.9990   35.8580   39.3910 C   0  0  0  0  0  0  0  0  0  0  0  0
   43.9390   34.6810   41.4600 C   0  0  0  0  0  0  0  0  0  0  0  0
   42.7810   35.3930   41.0690 C   0  0  0  0  0  0  0  0  0  0  0  0
   42.2180   35.1380   39.8300 C   0  0  0  0  0  0  0  0  0  0  0  0
   42.8290   34.1980   39.0470 N   0  0  0  0  0  0  0  0  0  0  0  0
   43.9480   33.5340   39.4650 C   0  0  0  0  0  0  0  0  0  0  0  0
   44.4910   33.7760   40.6560 N   0  0  0  0  0  0  0  0  0  0  0  0
   44.5430   34.9660   42.7860 C   0  0  0  0  0  0  0  0  0  0  0  0
   46.0670   35.3320   42.6660 C   0  0  0  0  0  0  0  0  0  0  0  0
   45.0350   36.2310   43.1940 C   0  0  0  0  0  0  0  0  0  0  0  0
   39.8310   35.5240   40.2940 C   0  0  0  0  0  0  0  0  0  0  0  0
   39.2830   33.2110   40.8560 C   0  0  0  0  0  0  0  0  0  0  0  0
   39.8510   33.2400   41.9840 O   0  0  0  0  0  0  0  0  0  0  0  0
   39.1880   34.2820   39.9270 N   0  0  0  0  0  0  0  0  0  0  0  0
   38.7180   31.9240   40.6040 N   0  0  0  0  0  0  0  0  0  0  0  0
   38.3750   31.7620   39.1970 C   0  0  0  0  0  0  0  0  0  0  0  0
   38.2700   30.2610   38.9190 C   0  0  0  0  0  0  0  0  0  0  0  0
   37.2860   29.6260   39.7390 N   0  0  0  0  0  0  0  0  0  0  0  0
   37.1930   30.1340   41.0840 C   0  0  0  0  0  0  0  0  0  0  0  0
   38.4640   30.8450   41.5060 C   0  0  0  0  0  0  0  0  0  0  0  0
   41.1860   36.9414   39.4270 H   0  0  0  0  0  0  0  0  0  0  0  0
   40.7541   35.5490   38.3641 H   0  0  0  0  0  0  0  0  0  0  0  0
   42.3333   36.1400   41.7409 H   0  0  0  0  0  0  0  0  0  0  0  0
   44.4089   32.7850   38.8043 H   0  0  0  0  0  0  0  0  0  0  0  0
   43.8626   34.2680   43.2957 H   0  0  0  0  0  0  0  0  0  0  0  0
   46.8096   34.8738   43.3358 H   0  0  0  0  0  0  0  0  0  0  0  0
   46.8264   35.3598   41.8707 H   0  0  0  0  0  0  0  0  0  0  0  0
   44.7577   37.1229   42.6130 H   0  0  0  0  0  0  0  0  0  0  0  0
   44.9513   36.7888   44.1384 H   0  0  0  0  0  0  0  0  0  0  0  0
   40.1966   35.4404   41.3281 H   0  0  0  0  0  0  0  0  0  0  0  0
   39.0881   36.3289   40.1929 H   0  0  0  0  0  0  0  0  0  0  0  0
   38.6848   34.1785   39.0343 H   0  0  0  0  0  0  0  0  0  0  0  0
   37.4125   32.2512   38.9863 H   0  0  0  0  0  0  0  0  0  0  0  0
   39.1414   32.2220   38.5560 H   0  0  0  0  0  0  0  0  0  0  0  0
   37.9987   30.1147   37.8631 H   0  0  0  0  0  0  0  0  0  0  0  0
   39.2449   29.8066   39.1494 H   0  0  0  0  0  0  0  0  0  0  0  0
   36.3680   29.7469   39.2878 H   0  0  0  0  0  0  0  0  0  0  0  0
   36.3533   30.8424   41.1399 H   0  0  0  0  0  0  0  0  0  0  0  0
   37.0367   29.2817   41.7616 H   0  0  0  0  0  0  0  0  0  0  0  0
   39.3067   30.1384   41.4816 H   0  0  0  0  0  0  0  0  0  0  0  0
   38.3482   31.2357   42.5277 H   0  0  0  0  0  0  0  0  0  0  0  0
  1  4  1  0
  1 11  1  0
  2  8  1  0
  3  2  2  0
  4  3  1  0
  5  6  1  0
  5  4  2  0
  6  7  2  0
  7  2  1  0
  8 10  1  0
  9  8  1  0
  9 10  1  0
 12 13  2  0
 14 11  1  0
 14 12  1  0
 15 12  1  0
 15 20  1  0
 16 15  1  0
 17 16  1  0
 17 18  1  0
 18 19  1  0
 19 20  1  0
  1 21  1  0
  1 22  1  0
  3 23  1  0
  6 24  1  0
  8 25  1  0
  9 26  1  0
  9 27  1  0
 10 28  1  0
 10 29  1  0
 11 30  1  0
 11 31  1  0
 14 32  1  0
 16 33  1  0
 16 34  1  0
 17 35  1  0
 17 36  1  0
 18 37  1  0
 19 38  1  0
 19 39  1  0
 20 40  1  0
 20 41  1  0
M  ISO  8  21   8  22   8  23  14  24  14  25  13  26  13  27  13  28  13
M  ISO  8  29  13  30   8  31   8  33  13  34  13  35  13  36  13  37   5
M  ISO  4  38  13  39  13  40  13  41  13
M  END
>  <minimizedAffinity>  (1) 
-5.06660223

>  <minimizedRMSD>  (1) 
0.620413661

$$$$
