
     RDKit          3D

 34 36  0  0  0  0  0  0  0  0999 V2000
   43.9600   34.6010   41.2880 C   0  0  0  0  0  0  0  0  0  0  0  0
   42.8010   35.3060   40.8810 C   0  0  0  0  0  0  0  0  0  0  0  0
   42.2660   35.0620   39.6330 C   0  0  0  0  0  0  0  0  0  0  0  0
   42.9060   34.1330   38.8490 N   0  0  0  0  0  0  0  0  0  0  0  0
   44.0170   33.4810   39.2820 C   0  0  0  0  0  0  0  0  0  0  0  0
   44.5380   33.7120   40.4870 N   0  0  0  0  0  0  0  0  0  0  0  0
   44.5330   34.8790   42.6280 C   0  0  0  0  0  0  0  0  0  0  0  0
   46.0550   35.2560   42.5480 C   0  0  0  0  0  0  0  0  0  0  0  0
   45.0030   36.1450   43.0550 C   0  0  0  0  0  0  0  0  0  0  0  0
   41.0500   35.7840   39.1960 C   0  0  0  0  0  0  0  0  0  0  0  0
   39.9300   35.6060   40.1990 C   0  0  0  0  0  0  0  0  0  0  0  0
   39.1960   33.3930   40.9150 C   0  0  0  0  0  0  0  0  0  0  0  0
   39.8420   33.4020   42.0000 O   0  0  0  0  0  0  0  0  0  0  0  0
   39.1390   34.4140   39.9380 N   0  0  0  0  0  0  0  0  0  0  0  0
   38.4130   32.1580   40.6530 C   0  0  0  0  0  0  0  0  0  0  0  0
   39.2940   30.9880   40.1650 C   0  0  0  0  0  0  0  0  0  0  0  0
   38.2870   31.6470   39.2830 C   0  0  0  0  0  0  0  0  0  0  0  0
   42.3324   36.0403   41.5528 H   0  0  0  0  0  0  0  0  0  0  0  0
   44.4982   32.7444   38.6218 H   0  0  0  0  0  0  0  0  0  0  0  0
   43.8480   34.1704   43.1166 H   0  0  0  0  0  0  0  0  0  0  0  0
   46.7840   34.7995   43.2337 H   0  0  0  0  0  0  0  0  0  0  0  0
   46.8338   35.2936   41.7720 H   0  0  0  0  0  0  0  0  0  0  0  0
   44.7332   37.0379   42.4719 H   0  0  0  0  0  0  0  0  0  0  0  0
   44.8909   36.6971   43.9998 H   0  0  0  0  0  0  0  0  0  0  0  0
   41.2814   36.8551   39.1000 H   0  0  0  0  0  0  0  0  0  0  0  0
   40.7252   35.3744   38.2281 H   0  0  0  0  0  0  0  0  0  0  0  0
   40.3661   35.5276   41.2058 H   0  0  0  0  0  0  0  0  0  0  0  0
   39.2631   36.4769   40.1164 H   0  0  0  0  0  0  0  0  0  0  0  0
   38.5674   34.3183   39.0865 H   0  0  0  0  0  0  0  0  0  0  0  0
   37.6711   32.3594   41.4398 H   0  0  0  0  0  0  0  0  0  0  0  0
   40.3695   31.1375   39.9893 H   0  0  0  0  0  0  0  0  0  0  0  0
   39.5001   29.9605   40.4995 H   0  0  0  0  0  0  0  0  0  0  0  0
   38.6276   32.2664   38.4402 H   0  0  0  0  0  0  0  0  0  0  0  0
   37.4419   31.2763   38.6843 H   0  0  0  0  0  0  0  0  0  0  0  0
  1  7  1  0
  2  1  2  0
  3  2  1  0
  4  5  1  0
  4  3  2  0
  5  6  2  0
  6  1  1  0
  7  9  1  0
  8  7  1  0
  8  9  1  0
 10  3  1  0
 10 11  1  0
 12 13  2  0
 14 11  1  0
 14 12  1  0
 15 12  1  0
 16 15  1  0
 17 16  1  0
 17 15  1  0
  2 18  1  0
  5 19  1  0
  7 20  1  0
  8 21  1  0
  8 22  1  0
  9 23  1  0
  9 24  1  0
 10 25  1  0
 10 26  1  0
 11 27  1  0
 11 28  1  0
 14 29  1  0
 15 30  1  0
 16 31  1  0
 16 32  1  0
 17 33  1  0
 17 34  1  0
M  ISO  8  18  14  19  14  20  13  21  13  22  13  23  13  24  13  25   8
M  ISO  8  26   8  27   8  28   8  30  13  31  13  32  13  33  13  34  13
M  END
>  <minimizedAffinity>  (1) 
-4.49307823

>  <minimizedRMSD>  (1) 
0.475036532

$$$$
