
     RDKit          3D

 36 38  0  0  0  0  0  0  0  0999 V2000
   41.0200   35.8630   39.3260 C   0  0  0  0  0  0  0  0  0  0  0  0
   43.9010   34.6720   41.4620 C   0  0  0  0  0  0  0  0  0  0  0  0
   42.7680   35.4000   41.0410 C   0  0  0  0  0  0  0  0  0  0  0  0
   42.2180   35.1280   39.8000 C   0  0  0  0  0  0  0  0  0  0  0  0
   42.8270   34.1490   39.0490 N   0  0  0  0  0  0  0  0  0  0  0  0
   43.9160   33.4790   39.5030 C   0  0  0  0  0  0  0  0  0  0  0  0
   44.4480   33.7360   40.6970 N   0  0  0  0  0  0  0  0  0  0  0  0
   44.4990   34.9670   42.7930 C   0  0  0  0  0  0  0  0  0  0  0  0
   46.0280   35.3230   42.6840 C   0  0  0  0  0  0  0  0  0  0  0  0
   44.9980   36.2330   43.1940 C   0  0  0  0  0  0  0  0  0  0  0  0
   39.8540   35.6300   40.2770 C   0  0  0  0  0  0  0  0  0  0  0  0
   39.2410   33.3470   40.8830 C   0  0  0  0  0  0  0  0  0  0  0  0
   39.8110   33.4190   42.0120 O   0  0  0  0  0  0  0  0  0  0  0  0
   39.1250   34.4190   39.9640 N   0  0  0  0  0  0  0  0  0  0  0  0
   38.6370   32.0600   40.4590 C   0  0  0  0  0  0  0  0  0  0  0  0
   38.8090   31.6330   39.1490 C   0  0  0  0  0  0  0  0  0  0  0  0
   38.3040   30.4620   38.6230 C   0  0  0  0  0  0  0  0  0  0  0  0
   37.5690   29.6700   39.5030 C   0  0  0  0  0  0  0  0  0  0  0  0
   37.4220   30.1280   40.7950 C   0  0  0  0  0  0  0  0  0  0  0  0
   37.9260   31.2760   41.2820 N   0  0  0  0  0  0  0  0  0  0  0  0
   41.2460   36.9387   39.2839 H   0  0  0  0  0  0  0  0  0  0  0  0
   40.7466   35.4989   38.3246 H   0  0  0  0  0  0  0  0  0  0  0  0
   42.3282   36.1722   41.6893 H   0  0  0  0  0  0  0  0  0  0  0  0
   44.3712   32.7039   38.8690 H   0  0  0  0  0  0  0  0  0  0  0  0
   43.8092   34.2781   43.3025 H   0  0  0  0  0  0  0  0  0  0  0  0
   46.7614   34.8661   43.3648 H   0  0  0  0  0  0  0  0  0  0  0  0
   46.7948   35.3388   41.8955 H   0  0  0  0  0  0  0  0  0  0  0  0
   44.7325   37.1216   42.6024 H   0  0  0  0  0  0  0  0  0  0  0  0
   44.9101   36.7997   44.1327 H   0  0  0  0  0  0  0  0  0  0  0  0
   40.2437   35.5535   41.3028 H   0  0  0  0  0  0  0  0  0  0  0  0
   39.1602   36.4774   40.1737 H   0  0  0  0  0  0  0  0  0  0  0  0
   38.5493   34.3405   39.1135 H   0  0  0  0  0  0  0  0  0  0  0  0
   39.3939   32.2792   38.4780 H   0  0  0  0  0  0  0  0  0  0  0  0
   38.4709   30.1718   37.5752 H   0  0  0  0  0  0  0  0  0  0  0  0
   37.1239   28.7175   39.1797 H   0  0  0  0  0  0  0  0  0  0  0  0
   36.8423   29.5001   41.4876 H   0  0  0  0  0  0  0  0  0  0  0  0
  1  4  1  0
  1 11  1  0
  2  8  1  0
  3  2  2  0
  4  3  1  0
  5  6  1  0
  5  4  2  0
  6  7  2  0
  7  2  1  0
  8 10  1  0
  9  8  1  0
  9 10  1  0
 12 13  2  0
 14 11  1  0
 14 12  1  0
 15 12  1  0
 15 20  1  0
 16 15  2  0
 17 16  1  0
 17 18  2  0
 18 19  1  0
 19 20  2  0
  1 21  1  0
  1 22  1  0
  3 23  1  0
  6 24  1  0
  8 25  1  0
  9 26  1  0
  9 27  1  0
 10 28  1  0
 10 29  1  0
 11 30  1  0
 11 31  1  0
 14 32  1  0
 16 33  1  0
 17 34  1  0
 18 35  1  0
 19 36  1  0
M  ISO  8  21   8  22   8  23  14  24  14  25  13  26  13  27  13  28  13
M  ISO  7  29  13  30   8  31   8  33  14  34  14  35  14  36  14
M  END
>  <minimizedAffinity>  (1) 
-5.16051149

>  <minimizedRMSD>  (1) 
0.510869324

$$$$
