
     RDKit          3D

 49 52  0  0  0  0  0  0  0  0999 V2000
   42.3100   34.1430   38.5360 C   0  0  0  0  0  0  0  0  0  0  0  0
   42.4840   35.3540   38.1870 O   0  0  0  0  0  0  0  0  0  0  0  0
   43.1860   33.0860   38.2370 N   0  0  0  0  0  0  0  0  0  0  0  0
   41.0980   33.7760   39.3240 C   0  0  0  0  0  0  0  0  0  0  0  0
   39.9770   34.5710   39.2750 C   0  0  0  0  0  0  0  0  0  0  0  0
   38.8010   34.3310   39.9540 C   0  0  0  0  0  0  0  0  0  0  0  0
   38.8070   33.1700   40.7430 C   0  0  0  0  0  0  0  0  0  0  0  0
   39.9290   32.3890   40.7810 C   0  0  0  0  0  0  0  0  0  0  0  0
   41.0280   32.6920   40.0920 N   0  0  0  0  0  0  0  0  0  0  0  0
   39.2110   30.1140   41.6590 C   0  0  0  0  0  0  0  0  0  0  0  0
   40.0640   31.1910   41.6040 C   0  0  0  0  0  0  0  0  0  0  0  0
   41.1990   31.0790   42.4140 C   0  0  0  0  0  0  0  0  0  0  0  0
   41.5300   30.0270   43.2370 C   0  0  0  0  0  0  0  0  0  0  0  0
   40.6690   28.9610   43.2840 C   0  0  0  0  0  0  0  0  0  0  0  0
   39.5420   29.0390   42.4970 C   0  0  0  0  0  0  0  0  0  0  0  0
   37.8040   30.0140   40.6760 S   0  0  0  0  0  0  0  0  0  0  0  0
   37.4540   28.5980   40.2760 O   0  0  0  0  0  0  0  0  0  0  0  0
   36.6240   30.4230   41.5820 O   0  0  0  0  0  0  0  0  0  0  0  0
   44.4570   33.4350   37.6400 C   0  0  0  0  0  0  0  0  0  0  0  0
   45.6290   32.7370   38.3360 C   0  0  0  0  0  0  0  0  0  0  0  0
   46.6720   34.4200   41.5680 C   0  0  0  0  0  0  0  0  0  0  0  0
   46.6610   34.0340   40.2010 C   0  0  0  0  0  0  0  0  0  0  0  0
   45.6910   33.1580   39.7550 C   0  0  0  0  0  0  0  0  0  0  0  0
   44.7840   32.7130   40.7020 N   0  0  0  0  0  0  0  0  0  0  0  0
   44.8460   33.1180   41.9960 C   0  0  0  0  0  0  0  0  0  0  0  0
   45.7810   33.9610   42.4210 N   0  0  0  0  0  0  0  0  0  0  0  0
   47.7430   35.3600   42.0310 C   0  0  0  0  0  0  0  0  0  0  0  0
   49.0890   34.5840   42.3120 C   0  0  0  0  0  0  0  0  0  0  0  0
   48.9280   35.6580   41.3320 C   0  0  0  0  0  0  0  0  0  0  0  0
   42.9347   32.1067   38.4339 H   0  0  0  0  0  0  0  0  0  0  0  0
   40.0220   35.4706   38.6435 H   0  0  0  0  0  0  0  0  0  0  0  0
   37.9279   34.9963   39.8830 H   0  0  0  0  0  0  0  0  0  0  0  0
   37.9168   32.8908   41.3258 H   0  0  0  0  0  0  0  0  0  0  0  0
   41.9034   31.9236   42.3905 H   0  0  0  0  0  0  0  0  0  0  0  0
   42.4526   30.0408   43.8359 H   0  0  0  0  0  0  0  0  0  0  0  0
   40.8690   28.0858   43.9197 H   0  0  0  0  0  0  0  0  0  0  0  0
   38.8444   28.1891   42.5279 H   0  0  0  0  0  0  0  0  0  0  0  0
   38.0257   30.7782   39.5608 H   0  0  0  0  0  0  0  0  0  0  0  0
   44.4452   33.1382   36.5809 H   0  0  0  0  0  0  0  0  0  0  0  0
   44.5960   34.5209   37.7476 H   0  0  0  0  0  0  0  0  0  0  0  0
   45.4884   31.6473   38.2839 H   0  0  0  0  0  0  0  0  0  0  0  0
   46.5675   33.0134   37.8332 H   0  0  0  0  0  0  0  0  0  0  0  0
   47.4165   34.4284   39.5056 H   0  0  0  0  0  0  0  0  0  0  0  0
   44.1023   32.7382   42.7120 H   0  0  0  0  0  0  0  0  0  0  0  0
   47.0126   36.0364   42.4990 H   0  0  0  0  0  0  0  0  0  0  0  0
   49.6514   34.7502   43.2427 H   0  0  0  0  0  0  0  0  0  0  0  0
   49.4317   33.5387   42.3134 H   0  0  0  0  0  0  0  0  0  0  0  0
   48.9884   35.4127   40.2614 H   0  0  0  0  0  0  0  0  0  0  0  0
   49.4737   36.6003   41.1762 H   0  0  0  0  0  0  0  0  0  0  0  0
  1  4  1  0
  2  1  2  0
  3  1  1  0
  4  9  1  0
  5  4  2  0
  5  6  1  0
  6  7  2  0
  7  8  1  0
  8 11  1  0
  9  8  2  0
 10 15  2  0
 11 10  1  0
 11 12  2  0
 12 13  1  0
 13 14  2  0
 15 14  1  0
 16 18  2  0
 16 10  1  0
 17 16  2  0
 19  3  1  0
 19 20  1  0
 20 23  1  0
 21 27  1  0
 21 26  1  0
 22 21  2  0
 23 22  1  0
 23 24  2  0
 24 25  1  0
 25 26  2  0
 27 28  1  0
 29 27  1  0
 29 28  1  0
  3 30  1  0
  5 31  1  0
  6 32  1  0
  7 33  1  0
 12 34  1  0
 13 35  1  0
 14 36  1  0
 15 37  1  0
 16 38  1  0
 19 39  1  0
 19 40  1  0
 20 41  1  0
 20 42  1  0
 22 43  1  0
 25 44  1  0
 27 45  1  0
 28 46  1  0
 28 47  1  0
 29 48  1  0
 29 49  1  0
M  ISO  8  31  14  32  14  33  14  34  14  35  14  36  14  37  14  38  11
M  ISO  8  39   8  40   8  41   8  42   8  43  14  44  14  45  13  46  13
M  ISO  3  47  13  48  13  49  13
M  END
>  <minimizedAffinity>  (1) 
-5.78894424

>  <minimizedRMSD>  (1) 
4.09901047

$$$$
