
     RDKit          3D

 37 39  0  0  0  0  0  0  0  0999 V2000
   41.0320   36.0330   39.4760 C   0  0  0  0  0  0  0  0  0  0  0  0
   43.9290   34.6900   41.5060 C   0  0  0  0  0  0  0  0  0  0  0  0
   42.7980   35.4650   41.1330 C   0  0  0  0  0  0  0  0  0  0  0  0
   42.2200   35.2540   39.8980 C   0  0  0  0  0  0  0  0  0  0  0  0
   42.8000   34.2850   39.1030 N   0  0  0  0  0  0  0  0  0  0  0  0
   43.8840   33.5740   39.5150 C   0  0  0  0  0  0  0  0  0  0  0  0
   44.4400   33.7780   40.7060 N   0  0  0  0  0  0  0  0  0  0  0  0
   44.5530   34.9400   42.8440 C   0  0  0  0  0  0  0  0  0  0  0  0
   46.0680   35.3570   42.6960 C   0  0  0  0  0  0  0  0  0  0  0  0
   45.0270   36.1770   43.3150 C   0  0  0  0  0  0  0  0  0  0  0  0
   39.8390   35.6830   40.3600 C   0  0  0  0  0  0  0  0  0  0  0  0
   39.3230   33.3510   40.8610 C   0  0  0  0  0  0  0  0  0  0  0  0
   39.8210   33.4130   42.0280 O   0  0  0  0  0  0  0  0  0  0  0  0
   39.2030   34.4400   39.9790 N   0  0  0  0  0  0  0  0  0  0  0  0
   38.8280   32.0460   40.3740 C   0  0  0  0  0  0  0  0  0  0  0  0
   38.6840   31.8620   39.0040 C   0  0  0  0  0  0  0  0  0  0  0  0
   38.2330   30.6970   38.4100 C   0  0  0  0  0  0  0  0  0  0  0  0
   37.9080   29.6480   39.2730 C   0  0  0  0  0  0  0  0  0  0  0  0
   38.0690   29.8840   40.6260 C   0  0  0  0  0  0  0  0  0  0  0  0
   38.5060   31.0190   41.1740 N   0  0  0  0  0  0  0  0  0  0  0  0
   37.6500   28.5350   41.7230 S   0  0  0  0  0  0  0  0  0  0  0  0
   41.2498   37.1074   39.5663 H   0  0  0  0  0  0  0  0  0  0  0  0
   40.7917   35.7882   38.4309 H   0  0  0  0  0  0  0  0  0  0  0  0
   42.3893   36.2219   41.8186 H   0  0  0  0  0  0  0  0  0  0  0  0
   44.3112   32.8117   38.8469 H   0  0  0  0  0  0  0  0  0  0  0  0
   43.8934   34.2079   43.3328 H   0  0  0  0  0  0  0  0  0  0  0  0
   46.8466   34.8783   43.3080 H   0  0  0  0  0  0  0  0  0  0  0  0
   46.7995   35.4623   41.8813 H   0  0  0  0  0  0  0  0  0  0  0  0
   44.7042   37.0973   42.8062 H   0  0  0  0  0  0  0  0  0  0  0  0
   44.9616   36.6639   44.2992 H   0  0  0  0  0  0  0  0  0  0  0  0
   40.1862   35.5956   41.4001 H   0  0  0  0  0  0  0  0  0  0  0  0
   39.0947   36.4846   40.2437 H   0  0  0  0  0  0  0  0  0  0  0  0
   38.6818   34.3560   39.0946 H   0  0  0  0  0  0  0  0  0  0  0  0
   38.9474   32.7026   38.3452 H   0  0  0  0  0  0  0  0  0  0  0  0
   38.1357   30.6020   37.3184 H   0  0  0  0  0  0  0  0  0  0  0  0
   37.5421   28.6819   38.8951 H   0  0  0  0  0  0  0  0  0  0  0  0
   37.7780   28.9471   43.0232 H   0  0  0  0  0  0  0  0  0  0  0  0
  1  4  1  0
  1 11  1  0
  2  8  1  0
  3  2  2  0
  4  3  1  0
  5  6  1  0
  5  4  2  0
  6  7  2  0
  7  2  1  0
  8 10  1  0
  9  8  1  0
  9 10  1  0
 12 13  2  0
 14 11  1  0
 14 12  1  0
 15 12  1  0
 15 20  1  0
 16 15  2  0
 17 16  1  0
 17 18  2  0
 18 19  1  0
 19 20  2  0
 19 21  1  0
  1 22  1  0
  1 23  1  0
  3 24  1  0
  6 25  1  0
  8 26  1  0
  9 27  1  0
  9 28  1  0
 10 29  1  0
 10 30  1  0
 11 31  1  0
 11 32  1  0
 14 33  1  0
 16 34  1  0
 17 35  1  0
 18 36  1  0
 21 37  1  0
M  ISO  8  22   8  23   8  24  14  25  14  26  13  27  13  28  13  29  13
M  ISO  7  30  13  31   8  32   8  34  14  35  14  36  14  37  11
M  END
>  <minimizedAffinity>  (1) 
-5.05369616

>  <minimizedRMSD>  (1) 
0.384292245

$$$$
