
     RDKit          3D

 29 30  0  0  1  0  0  0  0  0999 V2000
   45.5310   35.3220   43.5140 C   0  0  0  0  0  0  0  0  0  0  0  0
   46.3950   34.2200   43.7320 C   0  0  0  0  0  0  0  0  0  0  0  0
   46.3330   33.5770   44.9580 C   0  0  0  0  0  0  0  0  0  0  0  0
   45.4480   34.0310   45.9010 N   0  0  0  0  0  0  0  0  0  0  0  0
   44.6440   35.0750   45.6670 C   0  0  0  0  0  0  0  0  0  0  0  0
   44.6700   35.7280   44.4900 N   0  0  0  0  0  0  0  0  0  0  0  0
   48.3730   34.8920   42.5320 C   0  0  2  0  0  0  0  0  0  0  0  0
   47.3140   33.8210   42.6290 C   0  0  2  0  0  0  0  0  0  0  0  0
   46.6050   33.9930   41.4490 O   0  0  0  0  0  0  0  0  0  0  0  0
   47.4810   34.3180   40.4430 C   0  0  0  0  0  0  0  0  0  0  0  0
   48.7820   34.7640   41.0620 C   0  0  2  0  0  0  0  0  0  0  0  0
   49.5050   34.6030   43.2900 O   0  0  0  0  0  0  0  0  0  0  0  0
   49.6950   33.7140   40.9450 O   0  0  0  0  0  0  0  0  0  0  0  0
   47.1860   32.4980   45.1590 O   0  0  0  0  0  0  0  0  0  0  0  0
   45.5460   30.6690   46.1300 O   0  0  0  0  0  0  0  0  0  0  0  0
   46.8420   31.4080   46.4520 P   0  0  0  0  0  0  0  0  0  0  0  0
   48.1370   30.3500   46.6120 O   0  0  0  0  0  0  0  0  0  0  0  0
   46.5920   32.3200   47.8470 O   0  0  0  0  0  0  0  0  0  0  0  0
   45.5552   35.8532   42.5511 H   0  0  0  0  0  0  0  0  0  0  0  0
   43.9481   35.4061   46.4519 H   0  0  0  0  0  0  0  0  0  0  0  0
   48.0035   35.8695   42.8753 H   0  0  0  0  0  0  0  0  0  0  0  0
   47.7067   32.8061   42.7899 H   0  0  0  0  0  0  0  0  0  0  0  0
   47.0613   35.1332   39.8353 H   0  0  0  0  0  0  0  0  0  0  0  0
   47.6525   33.4439   39.7976 H   0  0  0  0  0  0  0  0  0  0  0  0
   49.2287   35.6691   40.6247 H   0  0  0  0  0  0  0  0  0  0  0  0
   49.2810   34.6602   44.2526 H   0  0  0  0  0  0  0  0  0  0  0  0
   49.9621   33.4068   41.8474 H   0  0  0  0  0  0  0  0  0  0  0  0
   48.3225   30.1984   47.5726 H   0  0  0  0  0  0  0  0  0  0  0  0
   46.7473   31.7535   48.6439 H   0  0  0  0  0  0  0  0  0  0  0  0
  1  2  2  0
  1  6  1  0
  2  3  1  0
  3 14  1  0
  3  4  2  0
  5  4  1  0
  6  5  2  0
  7  8  1  0
  7 12  1  0
  8  2  1  0
  9  8  1  0
 10 11  1  0
 10  9  1  0
 11 13  1  0
 11  7  1  0
 14 16  1  0
 15 16  2  0
 16 17  1  0
 16 18  1  0
  1 19  1  0
  5 20  1  0
  7 21  1  6
  8 22  1  1
 10 23  1  0
 10 24  1  0
 11 25  1  6
 12 26  1  0
 13 27  1  0
 17 28  1  0
 18 29  1  0
M  ISO  8  19  14  20  14  21  13  22  13  23  13  24  13  25  13  26   3
M  ISO  3  27   3  28   3  29   3
M  END
>  <minimizedAffinity>  (1) 
-5.11720085

>  <minimizedRMSD>  (1) 
5.07905579

$$$$
