
     RDKit          3D

 26 27  0  0  0  0  0  0  0  0999 V2000
   45.1970   32.2640   43.9360 C   0  0  0  0  0  0  0  0  0  0  0  0
   45.6300   33.2960   43.0900 C   0  0  0  0  0  0  0  0  0  0  0  0
   46.9400   33.7620   43.2520 C   0  0  0  0  0  0  0  0  0  0  0  0
   47.7200   33.1950   44.2130 N   0  0  0  0  0  0  0  0  0  0  0  0
   47.2670   32.2090   45.0040 C   0  0  0  0  0  0  0  0  0  0  0  0
   46.0170   31.7420   44.8720 N   0  0  0  0  0  0  0  0  0  0  0  0
   44.1830   35.8080   43.9780 Cl  0  0  0  0  0  0  0  0  0  0  0  0
   44.1010   35.0380   42.4030 C   0  0  0  0  0  0  0  0  0  0  0  0
   44.7850   33.8950   42.0630 C   0  0  0  0  0  0  0  0  0  0  0  0
   44.6510   33.3620   40.7810 C   0  0  0  0  0  0  0  0  0  0  0  0
   43.8170   34.0330   39.9100 C   0  0  0  0  0  0  0  0  0  0  0  0
   43.1180   35.1800   40.2220 C   0  0  0  0  0  0  0  0  0  0  0  0
   43.2800   35.6830   41.5150 C   0  0  0  0  0  0  0  0  0  0  0  0
   47.3570   34.7830   42.4080 O   0  0  0  0  0  0  0  0  0  0  0  0
   49.3310   33.4200   41.2990 O   0  0  0  0  0  0  0  0  0  0  0  0
   48.9610   34.7970   41.8320 P   0  0  0  0  0  0  0  0  0  0  0  0
   49.1020   35.9870   40.6600 O   0  0  0  0  0  0  0  0  0  0  0  0
   49.9690   35.1150   43.1700 O   0  0  0  0  0  0  0  0  0  0  0  0
   44.1733   31.8744   43.8348 H   0  0  0  0  0  0  0  0  0  0  0  0
   47.9295   31.7791   45.7697 H   0  0  0  0  0  0  0  0  0  0  0  0
   45.1852   32.4493   40.4783 H   0  0  0  0  0  0  0  0  0  0  0  0
   43.7017   33.6241   38.8954 H   0  0  0  0  0  0  0  0  0  0  0  0
   42.4646   35.6748   39.4883 H   0  0  0  0  0  0  0  0  0  0  0  0
   42.7488   36.5965   41.8205 H   0  0  0  0  0  0  0  0  0  0  0  0
   49.2066   36.8694   41.0966 H   0  0  0  0  0  0  0  0  0  0  0  0
   49.4656   34.9562   44.0075 H   0  0  0  0  0  0  0  0  0  0  0  0
  1  6  2  0
  2  3  2  0
  2  1  1  0
  3  4  1  0
  4  5  2  0
  6  5  1  0
  8  7  1  0
  9  8  2  0
  9  2  1  0
 10  9  1  0
 11 12  1  0
 11 10  2  0
 12 13  2  0
 13  8  1  0
 14  3  1  0
 15 16  2  0
 16 14  1  0
 16 18  1  0
 17 16  1  0
  1 19  1  0
  5 20  1  0
 10 21  1  0
 11 22  1  0
 12 23  1  0
 13 24  1  0
 17 25  1  0
 18 26  1  0
M  ISO  8  19  14  20  14  21  14  22  14  23  14  24  14  25   3  26   3
M  END
>  <minimizedAffinity>  (1) 
-5.04539442

>  <minimizedRMSD>  (1) 
2.87154436

$$$$
