
     RDKit          3D

 27 28  0  0  1  0  0  0  0  0999 V2000
   45.6070   34.2640   44.9570 C   0  0  0  0  0  0  0  0  0  0  0  0
   46.1950   34.2580   43.6670 C   0  0  0  0  0  0  0  0  0  0  0  0
   47.1660   33.2950   43.4120 C   0  0  0  0  0  0  0  0  0  0  0  0
   47.5030   32.4180   44.3910 N   0  0  0  0  0  0  0  0  0  0  0  0
   46.9260   32.4450   45.6130 C   0  0  0  0  0  0  0  0  0  0  0  0
   45.9880   33.3590   45.8910 N   0  0  0  0  0  0  0  0  0  0  0  0
   45.7790   35.2500   42.6400 C   0  0  1  0  0  0  0  0  0  0  0  0
   44.9310   34.6660   41.5490 C   0  0  0  0  0  0  0  0  0  0  0  0
   43.5750   35.2510   41.8540 C   0  0  0  0  0  0  0  0  0  0  0  0
   43.6490   35.7870   43.1350 O   0  0  0  0  0  0  0  0  0  0  0  0
   44.9100   36.3200   43.2050 C   0  0  0  0  0  0  0  0  0  0  0  0
   47.7290   33.3060   42.1440 O   0  0  0  0  0  0  0  0  0  0  0  0
   50.2860   33.0140   41.5350 O   0  0  0  0  0  0  0  0  0  0  0  0
   49.2540   34.0610   41.9100 P   0  0  0  0  0  0  0  0  0  0  0  0
   49.0710   35.2300   40.7170 O   0  0  0  0  0  0  0  0  0  0  0  0
   49.6970   34.7490   43.3840 O   0  0  0  0  0  0  0  0  0  0  0  0
   44.8356   35.0090   45.2017 H   0  0  0  0  0  0  0  0  0  0  0  0
   47.2272   31.7157   46.3794 H   0  0  0  0  0  0  0  0  0  0  0  0
   46.7413   35.6244   42.2606 H   0  0  0  0  0  0  0  0  0  0  0  0
   44.9129   33.5674   41.6024 H   0  0  0  0  0  0  0  0  0  0  0  0
   45.2939   34.8953   40.5362 H   0  0  0  0  0  0  0  0  0  0  0  0
   43.3302   36.0393   41.1269 H   0  0  0  0  0  0  0  0  0  0  0  0
   42.7900   34.4829   41.7916 H   0  0  0  0  0  0  0  0  0  0  0  0
   45.1856   36.5394   44.2471 H   0  0  0  0  0  0  0  0  0  0  0  0
   45.0003   37.2726   42.6624 H   0  0  0  0  0  0  0  0  0  0  0  0
   48.9326   36.1143   41.1400 H   0  0  0  0  0  0  0  0  0  0  0  0
   49.3419   34.1975   44.1256 H   0  0  0  0  0  0  0  0  0  0  0  0
  1  6  2  0
  2  1  1  0
  3  2  2  0
  3  4  1  0
  4  5  2  0
  5  6  1  0
  7 11  1  0
  7  2  1  0
  8  9  1  0
  8  7  1  0
  9 10  1  0
 10 11  1  0
 12  3  1  0
 13 14  2  0
 14 12  1  0
 14 16  1  0
 15 14  1  0
  1 17  1  0
  5 18  1  0
  7 19  1  6
  8 20  1  0
  8 21  1  0
  9 22  1  0
  9 23  1  0
 11 24  1  0
 11 25  1  0
 15 26  1  0
 16 27  1  0
M  ISO  8  17  14  18  14  19  13  20  13  21  13  22  13  23  13  24  13
M  ISO  3  25  13  26   3  27   3
M  END
>  <minimizedAffinity>  (1) 
-4.70782042

>  <minimizedRMSD>  (1) 
1.86870658

$$$$
