
     RDKit          3D

 20 20  0  0  0  0  0  0  0  0999 V2000
   44.9010   34.9030   44.9810 C   0  0  0  0  0  0  0  0  0  0  0  0
   45.4200   35.2310   43.7180 C   0  0  0  0  0  0  0  0  0  0  0  0
   46.5450   34.5500   43.2770 C   0  0  0  0  0  0  0  0  0  0  0  0
   47.0820   33.6090   44.0840 N   0  0  0  0  0  0  0  0  0  0  0  0
   46.5660   33.3080   45.2990 C   0  0  0  0  0  0  0  0  0  0  0  0
   45.4680   33.9600   45.7490 N   0  0  0  0  0  0  0  0  0  0  0  0
   43.8510   35.8650   41.9690 C   0  0  0  0  0  0  0  0  0  0  0  0
   43.3040   34.9390   41.3010 O   0  0  0  0  0  0  0  0  0  0  0  0
   44.7360   36.2450   42.9940 N   0  0  0  0  0  0  0  0  0  0  0  0
   47.0420   34.8890   42.0270 O   0  0  0  0  0  0  0  0  0  0  0  0
   49.0290   33.3710   41.1510 O   0  0  0  0  0  0  0  0  0  0  0  0
   48.7380   34.7500   41.7440 P   0  0  0  0  0  0  0  0  0  0  0  0
   49.1980   35.9780   40.7160 O   0  0  0  0  0  0  0  0  0  0  0  0
   49.5110   34.8510   43.2510 O   0  0  0  0  0  0  0  0  0  0  0  0
   44.0092   35.4313   45.3492 H   0  0  0  0  0  0  0  0  0  0  0  0
   47.0389   32.5335   45.9207 H   0  0  0  0  0  0  0  0  0  0  0  0
   43.4497   36.8038   41.5596 H   0  0  0  0  0  0  0  0  0  0  0  0
   44.8856   37.2396   43.2158 H   0  0  0  0  0  0  0  0  0  0  0  0
   49.4911   36.7605   41.2470 H   0  0  0  0  0  0  0  0  0  0  0  0
   48.8393   34.7632   43.9730 H   0  0  0  0  0  0  0  0  0  0  0  0
  1  6  2  0
  2  1  1  0
  3  2  2  0
  3  4  1  0
  4  5  2  0
  5  6  1  0
  7  9  1  0
  8  7  2  0
  9  2  1  0
 10  3  1  0
 11 12  2  0
 12 10  1  0
 12 14  1  0
 13 12  1  0
  1 15  1  0
  5 16  1  0
  7 17  1  0
  9 18  1  0
 13 19  1  0
 14 20  1  0
M  ISO  5  15  14  16  14  17   6  19   3  20   3
M  END
>  <minimizedAffinity>  (1) 
-4.70522547

>  <minimizedRMSD>  (1) 
0.968829453

$$$$
