
     RDKit          3D

 18 18  0  0  0  0  0  0  0  0999 V2000
   45.3240   34.1570   45.2400 C   0  0  0  0  0  0  0  0  0  0  0  0
   45.7460   34.7780   44.0530 C   0  0  0  0  0  0  0  0  0  0  0  0
   46.8580   34.2540   43.4170 C   0  0  0  0  0  0  0  0  0  0  0  0
   47.4840   33.1720   43.9670 N   0  0  0  0  0  0  0  0  0  0  0  0
   47.0550   32.6050   45.1010 C   0  0  0  0  0  0  0  0  0  0  0  0
   45.9770   33.0910   45.7410 N   0  0  0  0  0  0  0  0  0  0  0  0
   44.9630   35.9230   43.6050 C   0  0  0  0  0  0  0  0  0  0  0  0
   44.8960   37.0040   44.2430 O   0  0  0  0  0  0  0  0  0  0  0  0
   47.2560   34.8910   42.2370 O   0  0  0  0  0  0  0  0  0  0  0  0
   49.2570   33.4570   41.2530 O   0  0  0  0  0  0  0  0  0  0  0  0
   48.9180   34.8370   41.8010 P   0  0  0  0  0  0  0  0  0  0  0  0
   49.2040   36.0450   40.6770 O   0  0  0  0  0  0  0  0  0  0  0  0
   49.8300   35.0740   43.2170 O   0  0  0  0  0  0  0  0  0  0  0  0
   44.4435   34.5487   45.7704 H   0  0  0  0  0  0  0  0  0  0  0  0
   47.5882   31.7352   45.5123 H   0  0  0  0  0  0  0  0  0  0  0  0
   44.4031   35.8368   42.6621 H   0  0  0  0  0  0  0  0  0  0  0  0
   49.4047   36.8927   41.1474 H   0  0  0  0  0  0  0  0  0  0  0  0
   49.2549   34.9245   44.0088 H   0  0  0  0  0  0  0  0  0  0  0  0
  1  6  2  0
  2  1  1  0
  3  4  1  0
  3  2  2  0
  4  5  2  0
  5  6  1  0
  7  2  1  0
  7  8  2  0
  9  3  1  0
 10 11  2  0
 11  9  1  0
 11 13  1  0
 12 11  1  0
  1 14  1  0
  5 15  1  0
  7 16  1  0
 12 17  1  0
 13 18  1  0
M  ISO  5  14  14  15  14  16   6  17   3  18   3
M  END
>  <minimizedAffinity>  (1) 
-4.54803991

>  <minimizedRMSD>  (1) 
1.49767208

$$$$
