
     RDKit          3D

 19 19  0  0  0  0  0  0  0  0999 V2000
   44.9660   34.9030   45.0660 C   0  0  0  0  0  0  0  0  0  0  0  0
   45.4750   35.2120   43.7940 C   0  0  0  0  0  0  0  0  0  0  0  0
   46.5530   34.4610   43.3300 C   0  0  0  0  0  0  0  0  0  0  0  0
   47.0630   33.4690   44.1210 N   0  0  0  0  0  0  0  0  0  0  0  0
   46.5470   33.2050   45.3350 C   0  0  0  0  0  0  0  0  0  0  0  0
   45.5120   33.9110   45.8020 N   0  0  0  0  0  0  0  0  0  0  0  0
   44.8220   36.3140   43.0480 C   0  0  0  0  0  0  0  0  0  0  0  0
   47.0450   34.7840   42.0620 O   0  0  0  0  0  0  0  0  0  0  0  0
   49.0890   33.3310   41.2200 O   0  0  0  0  0  0  0  0  0  0  0  0
   48.7420   34.6950   41.7930 P   0  0  0  0  0  0  0  0  0  0  0  0
   49.1950   35.9500   40.7810 O   0  0  0  0  0  0  0  0  0  0  0  0
   49.5090   34.8110   43.3060 O   0  0  0  0  0  0  0  0  0  0  0  0
   44.1152   35.4739   45.4662 H   0  0  0  0  0  0  0  0  0  0  0  0
   46.9803   32.4015   45.9487 H   0  0  0  0  0  0  0  0  0  0  0  0
   44.3944   37.0356   43.7597 H   0  0  0  0  0  0  0  0  0  0  0  0
   45.5662   36.8199   42.4154 H   0  0  0  0  0  0  0  0  0  0  0  0
   44.0208   35.9042   42.4154 H   0  0  0  0  0  0  0  0  0  0  0  0
   49.4758   36.7279   41.3252 H   0  0  0  0  0  0  0  0  0  0  0  0
   48.8366   34.7093   44.0255 H   0  0  0  0  0  0  0  0  0  0  0  0
  1  6  2  0
  2  1  1  0
  3  2  2  0
  3  4  1  0
  4  5  2  0
  5  6  1  0
  7  2  1  0
  8  3  1  0
  9 10  2  0
 10  8  1  0
 10 12  1  0
 11 10  1  0
  1 13  1  0
  5 14  1  0
  7 15  1  0
  7 16  1  0
  7 17  1  0
 11 18  1  0
 12 19  1  0
M  ISO  7  13  14  14  14  15   8  16   8  17   8  18   3  19   3
M  END
>  <minimizedAffinity>  (1) 
-4.45735025

>  <minimizedRMSD>  (1) 
0.891779184

$$$$
