
     RDKit          3D

 23 24  0  0  0  0  0  0  0  0999 V2000
   45.3950   33.7970   45.3450 C   0  0  0  0  0  0  0  0  0  0  0  0
   45.7730   34.0040   44.0090 C   0  0  0  0  0  0  0  0  0  0  0  0
   46.9150   33.3600   43.5660 C   0  0  0  0  0  0  0  0  0  0  0  0
   47.6030   32.5690   44.4390 N   0  0  0  0  0  0  0  0  0  0  0  0
   47.2160   32.3900   45.7130 C   0  0  0  0  0  0  0  0  0  0  0  0
   46.1060   33.0090   46.1650 N   0  0  0  0  0  0  0  0  0  0  0  0
   45.0020   34.8620   43.1130 C   0  0  0  0  0  0  0  0  0  0  0  0
   45.0790   36.2440   43.1370 C   0  0  0  0  0  0  0  0  0  0  0  0
   44.2370   36.6890   42.1800 N   0  0  0  0  0  0  0  0  0  0  0  0
   43.6600   35.6470   41.5850 C   0  0  0  0  0  0  0  0  0  0  0  0
   44.1200   34.5140   42.1480 N   0  0  0  0  0  0  0  0  0  0  0  0
   47.3050   33.5540   42.2440 O   0  0  0  0  0  0  0  0  0  0  0  0
   49.7380   32.8690   41.4740 O   0  0  0  0  0  0  0  0  0  0  0  0
   48.9070   34.0680   41.9070 P   0  0  0  0  0  0  0  0  0  0  0  0
   48.8300   35.2490   40.7160 O   0  0  0  0  0  0  0  0  0  0  0  0
   49.5650   34.6730   43.3470 O   0  0  0  0  0  0  0  0  0  0  0  0
   44.4921   34.2940   45.7294 H   0  0  0  0  0  0  0  0  0  0  0  0
   47.8006   31.7428   46.3833 H   0  0  0  0  0  0  0  0  0  0  0  0
   45.7026   36.8579   43.8036 H   0  0  0  0  0  0  0  0  0  0  0  0
   44.0678   37.6780   41.9471 H   0  0  0  0  0  0  0  0  0  0  0  0
   42.9269   35.7028   40.7668 H   0  0  0  0  0  0  0  0  0  0  0  0
   48.7718   36.1418   41.1398 H   0  0  0  0  0  0  0  0  0  0  0  0
   49.1093   34.2540   44.1196 H   0  0  0  0  0  0  0  0  0  0  0  0
  1  6  2  0
  2  1  1  0
  3  2  2  0
  3  4  1  0
  4  5  2  0
  5  6  1  0
  7  8  2  0
  7  2  1  0
  9  8  1  0
 10 11  2  0
 10  9  1  0
 11  7  1  0
 12  3  1  0
 13 14  2  0
 14 12  1  0
 14 16  1  0
 15 14  1  0
  1 17  1  0
  5 18  1  0
  8 19  1  0
  9 20  1  0
 10 21  1  0
 15 22  1  0
 16 23  1  0
M  ISO  7  17  14  18  14  19  14  20   9  21  14  22   3  23   3
M  END
>  <minimizedAffinity>  (1) 
-4.38310146

>  <minimizedRMSD>  (1) 
2.08350015

$$$$
