
     RDKit          3D

 17 17  0  0  0  0  0  0  0  0999 V2000
   45.2940   34.3110   45.2810 C   0  0  0  0  0  0  0  0  0  0  0  0
   45.7010   34.8000   44.0240 C   0  0  0  0  0  0  0  0  0  0  0  0
   46.7740   34.1720   43.4040 C   0  0  0  0  0  0  0  0  0  0  0  0
   47.3720   33.1280   44.0330 N   0  0  0  0  0  0  0  0  0  0  0  0
   46.9610   32.6810   45.2370 C   0  0  0  0  0  0  0  0  0  0  0  0
   45.9170   33.2740   45.8660 N   0  0  0  0  0  0  0  0  0  0  0  0
   44.8830   36.1840   43.2250 S   0  0  0  0  0  0  0  0  0  0  0  0
   47.1730   34.6560   42.1660 O   0  0  0  0  0  0  0  0  0  0  0  0
   49.2200   33.3310   41.1700 O   0  0  0  0  0  0  0  0  0  0  0  0
   48.8510   34.6790   41.7900 P   0  0  0  0  0  0  0  0  0  0  0  0
   49.1630   35.9400   40.7480 O   0  0  0  0  0  0  0  0  0  0  0  0
   49.7070   34.8150   43.2420 O   0  0  0  0  0  0  0  0  0  0  0  0
   44.4471   34.7889   45.7952 H   0  0  0  0  0  0  0  0  0  0  0  0
   47.4751   31.8316   45.7106 H   0  0  0  0  0  0  0  0  0  0  0  0
   44.3824   37.0309   44.1784 H   0  0  0  0  0  0  0  0  0  0  0  0
   49.3651   36.7568   41.2696 H   0  0  0  0  0  0  0  0  0  0  0  0
   49.0825   34.7158   44.0038 H   0  0  0  0  0  0  0  0  0  0  0  0
  1  6  2  0
  2  1  1  0
  3  2  2  0
  3  4  1  0
  4  5  2  0
  5  6  1  0
  7  2  1  0
  8  3  1  0
  9 10  2  0
 10  8  1  0
 10 12  1  0
 11 10  1  0
  1 13  1  0
  5 14  1  0
  7 15  1  0
 11 16  1  0
 12 17  1  0
M  ISO  5  13  14  14  14  15  11  16   3  17   3
M  END
>  <minimizedAffinity>  (1) 
-4.23950481

>  <minimizedRMSD>  (1) 
1.33694935

$$$$
