
     RDKit          3D

 33 36  0  0  1  0  0  0  0  0999 V2000
   43.4220   34.4890   41.8360 C   0  0  1  0  0  0  0  0  0  0  0  0
   44.5600   34.6870   40.8810 C   0  0  0  0  0  0  0  0  0  0  0  0
   44.2250   35.7090   41.9690 C   0  0  2  0  0  0  0  0  0  0  0  0
   40.0380   33.4860   40.7140 C   0  0  0  0  0  0  0  0  0  0  0  0
   39.4510   34.7600   40.3960 C   0  0  0  0  0  0  0  0  0  0  0  0
   40.2500   35.9300   40.5940 C   0  0  0  0  0  0  0  0  0  0  0  0
   41.5100   35.8100   41.0650 N   0  0  0  0  0  0  0  0  0  0  0  0
   42.0200   34.5700   41.3520 C   0  0  0  0  0  0  0  0  0  0  0  0
   41.2930   33.4290   41.1780 N   0  0  0  0  0  0  0  0  0  0  0  0
   45.1980   35.9130   42.9900 N   0  0  0  0  0  0  0  0  0  0  0  0
   46.5040   34.0210   43.7860 C   0  0  0  0  0  0  0  0  0  0  0  0
   45.5160   34.9600   44.0030 C   0  0  0  0  0  0  0  0  0  0  0  0
   44.8430   34.9640   45.2140 C   0  0  0  0  0  0  0  0  0  0  0  0
   45.1820   34.0300   46.1590 C   0  0  0  0  0  0  0  0  0  0  0  0
   44.6980   33.8070   47.4060 N   0  0  0  0  0  0  0  0  0  0  0  0
   45.3790   32.7500   47.9380 C   0  0  0  0  0  0  0  0  0  0  0  0
   46.3090   32.2900   47.0250 C   0  0  0  0  0  0  0  0  0  0  0  0
   46.1700   33.1080   45.9120 C   0  0  0  0  0  0  0  0  0  0  0  0
   46.8680   33.0690   44.7160 C   0  0  0  0  0  0  0  0  0  0  0  0
   43.1346   33.6826   42.5267 H   0  0  0  0  0  0  0  0  0  0  0  0
   45.4659   34.0680   40.9600 H   0  0  0  0  0  0  0  0  0  0  0  0
   44.6791   34.7076   39.7877 H   0  0  0  0  0  0  0  0  0  0  0  0
   43.9476   36.7714   42.0359 H   0  0  0  0  0  0  0  0  0  0  0  0
   39.4580   32.5615   40.5765 H   0  0  0  0  0  0  0  0  0  0  0  0
   38.4222   34.8323   40.0134 H   0  0  0  0  0  0  0  0  0  0  0  0
   39.8394   36.9241   40.3634 H   0  0  0  0  0  0  0  0  0  0  0  0
   45.7060   36.8090   42.9971 H   0  0  0  0  0  0  0  0  0  0  0  0
   47.0295   34.0322   42.8197 H   0  0  0  0  0  0  0  0  0  0  0  0
   44.0521   35.7020   45.4135 H   0  0  0  0  0  0  0  0  0  0  0  0
   43.9490   34.3407   47.8698 H   0  0  0  0  0  0  0  0  0  0  0  0
   45.2128   32.3287   48.9405 H   0  0  0  0  0  0  0  0  0  0  0  0
   47.0109   31.4528   47.1531 H   0  0  0  0  0  0  0  0  0  0  0  0
   47.6586   32.3294   44.5211 H   0  0  0  0  0  0  0  0  0  0  0  0
  1  3  1  0
  2  1  1  0
  2  3  1  0
  3 10  1  0
  4  9  2  0
  5  6  2  0
  5  4  1  0
  6  7  1  0
  7  8  2  0
  8  1  1  0
  9  8  1  0
 10 12  1  0
 11 12  2  0
 11 19  1  0
 12 13  1  0
 13 14  2  0
 14 15  1  0
 15 16  1  0
 17 16  2  0
 18 14  1  0
 18 17  1  0
 19 18  2  0
  1 20  1  1
  2 21  1  0
  2 22  1  0
  3 23  1  6
  4 24  1  0
  5 25  1  0
  6 26  1  0
 10 27  1  0
 11 28  1  0
 13 29  1  0
 15 30  1  0
 16 31  1  0
 17 32  1  0
 19 33  1  0
M  ISO  8  20  13  21  13  22  13  23  13  24  14  25  14  26  14  28  14
M  ISO  5  29  14  30   9  31  14  32  14  33  14
M  END
>  <minimizedAffinity>  (1) 
-6.17424488

>  <minimizedRMSD>  (1) 
6.25221634

$$$$
