
     RDKit          3D

 43 46  0  0  0  0  0  0  0  0999 V2000
   45.0260   35.5190   43.4830 C   0  0  0  0  0  0  0  0  0  0  0  0
   46.0510   34.5260   43.5180 C   0  0  0  0  0  0  0  0  0  0  0  0
   46.2870   33.8780   44.7170 C   0  0  0  0  0  0  0  0  0  0  0  0
   45.5370   34.2120   45.8090 N   0  0  0  0  0  0  0  0  0  0  0  0
   44.5770   35.1490   45.7520 C   0  0  0  0  0  0  0  0  0  0  0  0
   44.3270   35.7930   44.6050 N   0  0  0  0  0  0  0  0  0  0  0  0
   46.7310   34.3050   42.2970 N   0  0  0  0  0  0  0  0  0  0  0  0
   47.8410   35.1190   41.8410 C   0  0  0  0  0  0  0  0  0  0  0  0
   48.4050   34.5430   40.5860 C   0  0  0  0  0  0  0  0  0  0  0  0
   47.4100   34.2990   39.5760 N   0  0  0  0  0  0  0  0  0  0  0  0
   46.2650   33.5810   40.0220 C   0  0  0  0  0  0  0  0  0  0  0  0
   46.2790   33.1910   41.4630 C   0  0  0  0  0  0  0  0  0  0  0  0
   47.2880   32.9190   44.7220 O   0  0  0  0  0  0  0  0  0  0  0  0
   45.4900   31.0090   44.4420 O   0  0  0  0  0  0  0  0  0  0  0  0
   46.8750   31.2780   45.0640 P   0  0  1  0  0  0  0  0  0  0  0  0
   48.0290   30.2980   44.3840 O   0  0  0  0  0  0  0  0  0  0  0  0
   46.7300   31.1200   46.7310 O   0  0  0  0  0  0  0  0  0  0  0  0
   48.1030   29.2810   47.3120 C   0  0  0  0  0  0  0  0  0  0  0  0
   47.6540   30.5640   47.5830 C   0  0  0  0  0  0  0  0  0  0  0  0
   48.1090   31.2780   48.6740 C   0  0  0  0  0  0  0  0  0  0  0  0
   49.0380   30.7020   49.5200 C   0  0  0  0  0  0  0  0  0  0  0  0
   49.6400   31.1630   50.6330 N   0  0  0  0  0  0  0  0  0  0  0  0
   50.4500   30.1660   51.0370 C   0  0  0  0  0  0  0  0  0  0  0  0
   50.3560   29.1120   50.1980 N   0  0  0  0  0  0  0  0  0  0  0  0
   49.4690   29.4260   49.2290 C   0  0  0  0  0  0  0  0  0  0  0  0
   49.0420   28.6780   48.1550 C   0  0  0  0  0  0  0  0  0  0  0  0
   44.8074   36.0569   42.5487 H   0  0  0  0  0  0  0  0  0  0  0  0
   43.9927   35.3889   46.6526 H   0  0  0  0  0  0  0  0  0  0  0  0
   47.4882   36.1427   41.6471 H   0  0  0  0  0  0  0  0  0  0  0  0
   48.6214   35.1376   42.6160 H   0  0  0  0  0  0  0  0  0  0  0  0
   49.1480   35.2463   40.1818 H   0  0  0  0  0  0  0  0  0  0  0  0
   48.8523   33.5720   40.8448 H   0  0  0  0  0  0  0  0  0  0  0  0
   47.8503   33.7592   38.8173 H   0  0  0  0  0  0  0  0  0  0  0  0
   45.3800   34.2108   39.8488 H   0  0  0  0  0  0  0  0  0  0  0  0
   46.2542   32.6403   39.4519 H   0  0  0  0  0  0  0  0  0  0  0  0
   45.2628   32.9008   41.7682 H   0  0  0  0  0  0  0  0  0  0  0  0
   46.9729   32.3476   41.5939 H   0  0  0  0  0  0  0  0  0  0  0  0
   48.5499   29.8556   45.1002 H   0  0  0  0  0  0  0  0  0  0  0  0
   47.7213   28.7377   46.4350 H   0  0  0  0  0  0  0  0  0  0  0  0
   47.7360   32.2945   48.8677 H   0  0  0  0  0  0  0  0  0  0  0  0
   49.5089   32.0818   51.0797 H   0  0  0  0  0  0  0  0  0  0  0  0
   51.0973   30.2047   51.9256 H   0  0  0  0  0  0  0  0  0  0  0  0
   49.4189   27.6613   47.9700 H   0  0  0  0  0  0  0  0  0  0  0  0
  1  2  2  0
  1  6  1  0
  2  3  1  0
  3 13  1  0
  3  4  2  0
  5  4  1  0
  6  5  2  0
  7  2  1  0
  8  7  1  0
  9  8  1  0
 10 11  1  0
 10  9  1  0
 11 12  1  0
 12  7  1  0
 13 15  1  0
 15 14  2  0
 15 17  1  0
 16 15  1  0
 17 19  1  0
 18 19  2  0
 18 26  1  0
 19 20  1  0
 20 21  2  0
 21 22  1  0
 22 23  1  0
 24 23  2  0
 25 21  1  0
 25 24  1  0
 26 25  2  0
  1 27  1  0
  5 28  1  0
  8 29  1  0
  8 30  1  0
  9 31  1  0
  9 32  1  0
 10 33  1  0
 11 34  1  0
 11 35  1  0
 12 36  1  0
 12 37  1  0
 16 38  1  0
 18 39  1  0
 20 40  1  0
 22 41  1  0
 23 42  1  0
 26 43  1  0
M  ISO  8  27  14  28  14  29  13  30  13  31  13  32  13  33   5  34  13
M  ISO  8  35  13  36  13  37  13  38   3  39  14  40  14  41   9  42  14
M  ISO  1  43  14
M  END
>  <minimizedAffinity>  (1) 
-5.81104565

>  <minimizedRMSD>  (1) 
2.02822542

$$$$
