
     RDKit          3D

 45 47  0  0  0  0  0  0  0  0999 V2000
   45.4170   35.9480   42.8950 C   0  0  0  0  0  0  0  0  0  0  0  0
   45.8460   34.6000   42.8250 C   0  0  0  0  0  0  0  0  0  0  0  0
   45.6270   33.7710   43.9150 C   0  0  0  0  0  0  0  0  0  0  0  0
   45.0050   34.2990   45.0110 N   0  0  0  0  0  0  0  0  0  0  0  0
   44.6020   35.5890   45.0620 C   0  0  0  0  0  0  0  0  0  0  0  0
   44.8040   36.3990   44.0240 N   0  0  0  0  0  0  0  0  0  0  0  0
   46.4750   34.2170   41.6140 N   0  0  0  0  0  0  0  0  0  0  0  0
   47.7010   34.8160   41.1240 C   0  0  0  0  0  0  0  0  0  0  0  0
   48.1490   34.1120   39.8880 C   0  0  0  0  0  0  0  0  0  0  0  0
   47.1230   33.9740   38.8870 N   0  0  0  0  0  0  0  0  0  0  0  0
   45.8780   33.4710   39.3640 C   0  0  0  0  0  0  0  0  0  0  0  0
   45.8480   33.1660   40.8270 C   0  0  0  0  0  0  0  0  0  0  0  0
   46.0600   32.4610   43.8100 O   0  0  0  0  0  0  0  0  0  0  0  0
   45.5900   30.8160   45.8400 O   0  0  0  0  0  0  0  0  0  0  0  0
   46.6770   31.6880   45.2210 P   0  0  1  0  0  0  0  0  0  0  0  0
   48.0140   30.7840   44.7700 O   0  0  0  0  0  0  0  0  0  0  0  0
   47.0940   32.9070   46.3250 O   0  0  0  0  0  0  0  0  0  0  0  0
   46.3320   30.6930   49.7650 N   0  0  0  0  0  0  0  0  0  0  0  0
   47.3600   30.4250   48.8180 C   0  0  0  0  0  0  0  0  0  0  0  0
   47.9160   31.6430   48.1160 C   0  0  0  0  0  0  0  0  0  0  0  0
   46.8330   32.5840   47.6300 C   0  0  0  0  0  0  0  0  0  0  0  0
   45.5180   31.8580   47.8170 C   0  0  0  0  0  0  0  0  0  0  0  0
   45.3660   31.6770   49.3330 C   0  0  0  0  0  0  0  0  0  0  0  0
   45.5779   36.6256   42.0435 H   0  0  0  0  0  0  0  0  0  0  0  0
   44.1047   35.9714   45.9656 H   0  0  0  0  0  0  0  0  0  0  0  0
   47.5229   35.8772   40.8955 H   0  0  0  0  0  0  0  0  0  0  0  0
   48.4810   34.7283   41.8946 H   0  0  0  0  0  0  0  0  0  0  0  0
   48.9844   34.6786   39.4509 H   0  0  0  0  0  0  0  0  0  0  0  0
   48.4383   33.0943   40.1890 H   0  0  0  0  0  0  0  0  0  0  0  0
   47.4699   33.3312   38.1608 H   0  0  0  0  0  0  0  0  0  0  0  0
   45.1019   34.2218   39.1543 H   0  0  0  0  0  0  0  0  0  0  0  0
   45.7080   32.5168   38.8437 H   0  0  0  0  0  0  0  0  0  0  0  0
   44.8008   33.0593   41.1465 H   0  0  0  0  0  0  0  0  0  0  0  0
   46.4103   32.2351   40.9925 H   0  0  0  0  0  0  0  0  0  0  0  0
   48.4854   30.4653   45.5801 H   0  0  0  0  0  0  0  0  0  0  0  0
   45.8323   29.8129   49.9561 H   0  0  0  0  0  0  0  0  0  0  0  0
   48.1876   29.9273   49.3446 H   0  0  0  0  0  0  0  0  0  0  0  0
   46.9022   29.8018   48.0357 H   0  0  0  0  0  0  0  0  0  0  0  0
   48.5660   32.1870   48.8172 H   0  0  0  0  0  0  0  0  0  0  0  0
   48.4717   31.2927   47.2337 H   0  0  0  0  0  0  0  0  0  0  0  0
   46.7927   33.5316   48.1871 H   0  0  0  0  0  0  0  0  0  0  0  0
   44.6871   32.4567   47.4154 H   0  0  0  0  0  0  0  0  0  0  0  0
   45.5028   30.8948   47.2859 H   0  0  0  0  0  0  0  0  0  0  0  0
   45.5534   32.6331   49.8436 H   0  0  0  0  0  0  0  0  0  0  0  0
   44.3465   31.3442   49.5775 H   0  0  0  0  0  0  0  0  0  0  0  0
  1  6  2  0
  2  1  1  0
  2  3  2  0
  3  4  1  0
  4  5  2  0
  6  5  1  0
  7  2  1  0
  8  7  1  0
  9  8  1  0
 10 11  1  0
 10  9  1  0
 11 12  1  0
 12  7  1  0
 13  3  1  0
 13 15  1  0
 15 14  2  0
 15 17  1  0
 16 15  1  0
 17 21  1  0
 19 18  1  0
 20 19  1  0
 21 22  1  0
 21 20  1  0
 22 23  1  0
 23 18  1  0
  1 24  1  0
  5 25  1  0
  8 26  1  0
  8 27  1  0
  9 28  1  0
  9 29  1  0
 10 30  1  0
 11 31  1  0
 11 32  1  0
 12 33  1  0
 12 34  1  0
 16 35  1  0
 18 36  1  0
 19 37  1  0
 19 38  1  0
 20 39  1  0
 20 40  1  0
 21 41  1  0
 22 42  1  0
 22 43  1  0
 23 44  1  0
 23 45  1  0
M  ISO  8  24  14  25  14  26  13  27  13  28  13  29  13  30   5  31  13
M  ISO  8  32  13  33  13  34  13  35   3  36   5  37  13  38  13  39  13
M  ISO  6  40  13  41  13  42  13  43  13  44  13  45  13
M  END
>  <minimizedAffinity>  (1) 
-5.47526169

>  <minimizedRMSD>  (1) 
0.767063677

$$$$
