
     RDKit          3D

 40 42  0  0  0  0  0  0  0  0999 V2000
   45.1880   35.6480   43.4570 C   0  0  0  0  0  0  0  0  0  0  0  0
   46.0340   34.4960   43.4080 C   0  0  0  0  0  0  0  0  0  0  0  0
   46.1250   33.7200   44.5570 C   0  0  0  0  0  0  0  0  0  0  0  0
   45.4050   34.0920   45.6660 N   0  0  0  0  0  0  0  0  0  0  0  0
   44.6220   35.1760   45.6790 C   0  0  0  0  0  0  0  0  0  0  0  0
   44.5120   35.9510   44.5810 N   0  0  0  0  0  0  0  0  0  0  0  0
   46.6920   34.2730   42.1890 N   0  0  0  0  0  0  0  0  0  0  0  0
   47.8820   34.9910   41.7790 C   0  0  0  0  0  0  0  0  0  0  0  0
   48.4020   34.4100   40.4960 C   0  0  0  0  0  0  0  0  0  0  0  0
   47.4150   34.3280   39.4690 N   0  0  0  0  0  0  0  0  0  0  0  0
   46.1950   33.6940   39.8670 C   0  0  0  0  0  0  0  0  0  0  0  0
   46.1390   33.2590   41.2940 C   0  0  0  0  0  0  0  0  0  0  0  0
   46.9440   32.6180   44.4860 O   0  0  0  0  0  0  0  0  0  0  0  0
   44.8750   31.1750   43.6980 O   0  0  0  0  0  0  0  0  0  0  0  0
   46.2230   31.0470   44.3890 P   0  0  1  0  0  0  0  0  0  0  0  0
   47.2600   30.0650   43.5190 O   0  0  0  0  0  0  0  0  0  0  0  0
   46.0020   30.5200   45.9690 O   0  0  0  0  0  0  0  0  0  0  0  0
   44.8920   31.8320   48.3110 Cl  0  0  0  0  0  0  0  0  0  0  0  0
   46.4870   31.1050   48.1300 C   0  0  0  0  0  0  0  0  0  0  0  0
   46.9620   30.4850   46.9680 C   0  0  0  0  0  0  0  0  0  0  0  0
   48.2340   29.9560   46.9660 C   0  0  0  0  0  0  0  0  0  0  0  0
   49.0060   30.0490   48.1010 C   0  0  0  0  0  0  0  0  0  0  0  0
   48.5860   30.6460   49.2590 C   0  0  0  0  0  0  0  0  0  0  0  0
   47.3110   31.1730   49.2560 C   0  0  0  0  0  0  0  0  0  0  0  0
   45.0890   36.2910   42.5700 H   0  0  0  0  0  0  0  0  0  0  0  0
   44.0645   35.4370   46.5906 H   0  0  0  0  0  0  0  0  0  0  0  0
   47.6355   36.0522   41.6272 H   0  0  0  0  0  0  0  0  0  0  0  0
   48.6513   34.9005   42.5600 H   0  0  0  0  0  0  0  0  0  0  0  0
   49.2274   35.0421   40.1365 H   0  0  0  0  0  0  0  0  0  0  0  0
   48.7290   33.3827   40.7143 H   0  0  0  0  0  0  0  0  0  0  0  0
   47.8127   33.7950   38.6825 H   0  0  0  0  0  0  0  0  0  0  0  0
   45.3716   34.4029   39.6951 H   0  0  0  0  0  0  0  0  0  0  0  0
   46.1185   32.7761   39.2656 H   0  0  0  0  0  0  0  0  0  0  0  0
   45.0903   33.0737   41.5695 H   0  0  0  0  0  0  0  0  0  0  0  0
   46.7408   32.3441   41.3980 H   0  0  0  0  0  0  0  0  0  0  0  0
   47.8172   29.5373   44.1444 H   0  0  0  0  0  0  0  0  0  0  0  0
   48.6289   29.4637   46.0651 H   0  0  0  0  0  0  0  0  0  0  0  0
   50.0183   29.6192   48.0765 H   0  0  0  0  0  0  0  0  0  0  0  0
   49.2325   30.7027   50.1472 H   0  0  0  0  0  0  0  0  0  0  0  0
   46.9324   31.6607   50.1664 H   0  0  0  0  0  0  0  0  0  0  0  0
  1  6  2  0
  2  1  1  0
  2  3  2  0
  3  4  1  0
  4  5  2  0
  6  5  1  0
  7  2  1  0
  8  7  1  0
  9  8  1  0
 10 11  1  0
 10  9  1  0
 11 12  1  0
 12  7  1  0
 13  3  1  0
 15 14  2  0
 15 13  1  0
 15 17  1  0
 16 15  1  0
 17 20  1  0
 19 18  1  0
 19 24  2  0
 20 19  1  0
 21 20  2  0
 21 22  1  0
 22 23  2  0
 24 23  1  0
  1 25  1  0
  5 26  1  0
  8 27  1  0
  8 28  1  0
  9 29  1  0
  9 30  1  0
 10 31  1  0
 11 32  1  0
 11 33  1  0
 12 34  1  0
 12 35  1  0
 16 36  1  0
 21 37  1  0
 22 38  1  0
 23 39  1  0
 24 40  1  0
M  ISO  8  25  14  26  14  27  13  28  13  29  13  30  13  31   5  32  13
M  ISO  8  33  13  34  13  35  13  36   3  37  14  38  14  39  14  40  14
M  END
>  <minimizedAffinity>  (1) 
-5.41902781

>  <minimizedRMSD>  (1) 
2.10495329

$$$$
