
     RDKit          3D

 43 45  0  0  0  0  0  0  0  0999 V2000
   45.0630   35.7110   43.4910 C   0  0  0  0  0  0  0  0  0  0  0  0
   45.9900   34.6380   43.5790 C   0  0  0  0  0  0  0  0  0  0  0  0
   46.1050   33.9620   44.7860 C   0  0  0  0  0  0  0  0  0  0  0  0
   45.3370   34.3420   45.8360 N   0  0  0  0  0  0  0  0  0  0  0  0
   44.4590   35.3700   45.7250 C   0  0  0  0  0  0  0  0  0  0  0  0
   44.3350   36.0310   44.5730 N   0  0  0  0  0  0  0  0  0  0  0  0
   46.7240   34.3590   42.3930 N   0  0  0  0  0  0  0  0  0  0  0  0
   47.9240   35.0890   42.0090 C   0  0  0  0  0  0  0  0  0  0  0  0
   48.5310   34.4830   40.7880 C   0  0  0  0  0  0  0  0  0  0  0  0
   47.5860   34.2990   39.7190 N   0  0  0  0  0  0  0  0  0  0  0  0
   46.3600   33.6610   40.0850 C   0  0  0  0  0  0  0  0  0  0  0  0
   46.2450   33.2910   41.5330 C   0  0  0  0  0  0  0  0  0  0  0  0
   47.0210   32.9260   44.8220 O   0  0  0  0  0  0  0  0  0  0  0  0
   45.5320   30.7390   44.5940 O   0  0  0  0  0  0  0  0  0  0  0  0
   46.5340   31.4090   45.5220 P   0  0  1  0  0  0  0  0  0  0  0  0
   47.9040   30.4900   45.7450 O   0  0  0  0  0  0  0  0  0  0  0  0
   48.5870   29.7940   44.7550 C   0  0  0  0  0  0  0  0  0  0  0  0
   48.9280   28.4690   45.0380 C   0  0  0  0  0  0  0  0  0  0  0  0
   49.6110   27.7020   44.1020 C   0  0  0  0  0  0  0  0  0  0  0  0
   49.9360   28.2890   42.8990 C   0  0  0  0  0  0  0  0  0  0  0  0
   49.6220   29.5840   42.5790 C   0  0  0  0  0  0  0  0  0  0  0  0
   48.9400   30.3240   43.5320 C   0  0  0  0  0  0  0  0  0  0  0  0
   45.7720   31.7840   46.9740 O   0  0  0  0  0  0  0  0  0  0  0  0
   46.6450   31.9330   48.0260 C   0  0  0  0  0  0  0  0  0  0  0  0
   47.7050   32.7630   47.7400 F   0  0  0  0  0  0  0  0  0  0  0  0
   47.1210   30.7690   48.5530 F   0  0  0  0  0  0  0  0  0  0  0  0
   45.9050   32.5450   49.0450 F   0  0  0  0  0  0  0  0  0  0  0  0
   44.9435   36.2707   42.5516 H   0  0  0  0  0  0  0  0  0  0  0  0
   43.8453   35.6604   46.5905 H   0  0  0  0  0  0  0  0  0  0  0  0
   47.6605   36.1366   41.8014 H   0  0  0  0  0  0  0  0  0  0  0  0
   48.6517   35.0392   42.8324 H   0  0  0  0  0  0  0  0  0  0  0  0
   49.3365   35.1428   40.4333 H   0  0  0  0  0  0  0  0  0  0  0  0
   48.9066   33.4878   41.0682 H   0  0  0  0  0  0  0  0  0  0  0  0
   48.0372   33.7261   38.9916 H   0  0  0  0  0  0  0  0  0  0  0  0
   45.5336   34.3448   39.8410 H   0  0  0  0  0  0  0  0  0  0  0  0
   46.3260   32.7160   39.5230 H   0  0  0  0  0  0  0  0  0  0  0  0
   45.1896   33.0886   41.7679 H   0  0  0  0  0  0  0  0  0  0  0  0
   46.8630   32.3989   41.7123 H   0  0  0  0  0  0  0  0  0  0  0  0
   48.6539   28.0299   46.0086 H   0  0  0  0  0  0  0  0  0  0  0  0
   49.8838   26.6579   44.3152 H   0  0  0  0  0  0  0  0  0  0  0  0
   50.4768   27.6857   42.1550 H   0  0  0  0  0  0  0  0  0  0  0  0
   49.8995   30.0178   41.6070 H   0  0  0  0  0  0  0  0  0  0  0  0
   48.6720   31.3666   43.3057 H   0  0  0  0  0  0  0  0  0  0  0  0
  1  2  2  0
  1  6  1  0
  2  3  1  0
  3 13  1  0
  3  4  2  0
  5  4  1  0
  6  5  2  0
  7  2  1  0
  8  7  1  0
  9  8  1  0
 10 11  1  0
 10  9  1  0
 11 12  1  0
 12  7  1  0
 13 15  1  0
 15 14  2  0
 15 16  1  0
 15 23  1  0
 17 18  2  0
 17 16  1  0
 19 18  1  0
 20 19  2  0
 21 20  1  0
 21 22  2  0
 22 17  1  0
 23 24  1  0
 24 26  1  0
 24 27  1  0
 25 24  1  0
  1 28  1  0
  5 29  1  0
  8 30  1  0
  8 31  1  0
  9 32  1  0
  9 33  1  0
 10 34  1  0
 11 35  1  0
 11 36  1  0
 12 37  1  0
 12 38  1  0
 18 39  1  0
 19 40  1  0
 20 41  1  0
 21 42  1  0
 22 43  1  0
M  ISO  8  28  14  29  14  30  13  31  13  32  13  33  13  34   5  35  13
M  ISO  8  36  13  37  13  38  13  39  14  40  14  41  14  42  14  43  14
M  END
>  <minimizedAffinity>  (1) 
-5.02186346

>  <minimizedRMSD>  (1) 
0.803689003

$$$$
