
     RDKit          3D

 39 40  0  0  0  0  0  0  0  0999 V2000
   45.4350   35.5310   43.4170 C   0  0  0  0  0  0  0  0  0  0  0  0
   46.3160   34.4570   43.6950 C   0  0  0  0  0  0  0  0  0  0  0  0
   46.2250   33.8490   44.9450 C   0  0  0  0  0  0  0  0  0  0  0  0
   45.3100   34.3070   45.8260 N   0  0  0  0  0  0  0  0  0  0  0  0
   44.4800   35.3290   45.5480 C   0  0  0  0  0  0  0  0  0  0  0  0
   44.5430   35.9360   44.3490 N   0  0  0  0  0  0  0  0  0  0  0  0
   47.2100   34.1100   42.6560 N   0  0  0  0  0  0  0  0  0  0  0  0
   48.6460   34.2640   42.7580 C   0  0  0  0  0  0  0  0  0  0  0  0
   49.3050   33.6880   41.5290 C   0  0  0  0  0  0  0  0  0  0  0  0
   48.7510   34.1790   40.3030 N   0  0  0  0  0  0  0  0  0  0  0  0
   47.3310   34.1370   40.2120 C   0  0  0  0  0  0  0  0  0  0  0  0
   46.6520   33.5680   41.4170 C   0  0  0  0  0  0  0  0  0  0  0  0
   47.1000   32.8060   45.1790 O   0  0  0  0  0  0  0  0  0  0  0  0
   45.4630   30.7250   44.8720 O   0  0  0  0  0  0  0  0  0  0  0  0
   46.4800   31.3280   45.8520 P   0  0  1  0  0  0  0  0  0  0  0  0
   47.7650   30.3150   46.1160 O   0  0  0  0  0  0  0  0  0  0  0  0
   47.5130   29.0020   45.7400 C   0  0  0  0  0  0  0  0  0  0  0  0
   47.0090   28.2780   46.9940 C   0  0  0  0  0  0  0  0  0  0  0  0
   45.6650   31.7650   47.2570 O   0  0  0  0  0  0  0  0  0  0  0  0
   46.5060   31.9910   48.3140 C   0  0  0  0  0  0  0  0  0  0  0  0
   47.6250   32.7350   47.9740 F   0  0  0  0  0  0  0  0  0  0  0  0
   46.9170   30.8810   48.9890 F   0  0  0  0  0  0  0  0  0  0  0  0
   45.7790   32.7580   49.2260 F   0  0  0  0  0  0  0  0  0  0  0  0
   45.4767   36.0365   42.4409 H   0  0  0  0  0  0  0  0  0  0  0  0
   43.7515   35.6675   46.2995 H   0  0  0  0  0  0  0  0  0  0  0  0
   48.8948   35.3323   42.8402 H   0  0  0  0  0  0  0  0  0  0  0  0
   49.0081   33.7321   43.6501 H   0  0  0  0  0  0  0  0  0  0  0  0
   50.3747   33.9432   41.5550 H   0  0  0  0  0  0  0  0  0  0  0  0
   49.1359   32.6013   41.5493 H   0  0  0  0  0  0  0  0  0  0  0  0
   49.0473   35.1591   40.1909 H   0  0  0  0  0  0  0  0  0  0  0  0
   46.9651   35.1637   40.0634 H   0  0  0  0  0  0  0  0  0  0  0  0
   47.0896   33.4703   39.3711 H   0  0  0  0  0  0  0  0  0  0  0  0
   45.5804   33.8120   41.3714 H   0  0  0  0  0  0  0  0  0  0  0  0
   46.8074   32.4790   41.4173 H   0  0  0  0  0  0  0  0  0  0  0  0
   46.7470   28.9732   44.9511 H   0  0  0  0  0  0  0  0  0  0  0  0
   48.4189   28.5221   45.3412 H   0  0  0  0  0  0  0  0  0  0  0  0
   47.3731   28.8010   47.8906 H   0  0  0  0  0  0  0  0  0  0  0  0
   45.9090   28.2699   46.9955 H   0  0  0  0  0  0  0  0  0  0  0  0
   47.3833   27.2436   46.9955 H   0  0  0  0  0  0  0  0  0  0  0  0
  1  2  2  0
  1  6  1  0
  2  3  1  0
  3 13  1  0
  3  4  2  0
  5  4  1  0
  6  5  2  0
  7  8  1  0
  7  2  1  0
  9  8  1  0
 10  9  1  0
 11 10  1  0
 11 12  1  0
 12  7  1  0
 13 15  1  0
 15 14  2  0
 15 16  1  0
 15 19  1  0
 17 16  1  0
 17 18  1  0
 19 20  1  0
 20 22  1  0
 20 23  1  0
 21 20  1  0
  1 24  1  0
  5 25  1  0
  8 26  1  0
  8 27  1  0
  9 28  1  0
  9 29  1  0
 10 30  1  0
 11 31  1  0
 11 32  1  0
 12 33  1  0
 12 34  1  0
 17 35  1  0
 17 36  1  0
 18 37  1  0
 18 38  1  0
 18 39  1  0
M  ISO  8  24  14  25  14  26  13  27  13  28  13  29  13  30   5  31  13
M  ISO  8  32  13  33  13  34  13  35   8  36   8  37   8  38   8  39   8
M  END
>  <minimizedAffinity>  (1) 
-5.00858784

>  <minimizedRMSD>  (1) 
0.677854121

$$$$
