
     RDKit          3D

 35 36  0  0  0  0  0  0  0  0999 V2000
   45.0770   35.7060   43.5010 C   0  0  0  0  0  0  0  0  0  0  0  0
   46.0020   34.6280   43.5680 C   0  0  0  0  0  0  0  0  0  0  0  0
   46.1090   33.9510   44.7760 C   0  0  0  0  0  0  0  0  0  0  0  0
   45.3430   34.3320   45.8260 N   0  0  0  0  0  0  0  0  0  0  0  0
   44.4700   35.3610   45.7310 C   0  0  0  0  0  0  0  0  0  0  0  0
   44.3460   36.0360   44.5730 N   0  0  0  0  0  0  0  0  0  0  0  0
   46.7280   34.3550   42.3880 N   0  0  0  0  0  0  0  0  0  0  0  0
   47.9230   35.0850   42.0090 C   0  0  0  0  0  0  0  0  0  0  0  0
   48.5240   34.4660   40.7680 C   0  0  0  0  0  0  0  0  0  0  0  0
   47.5860   34.2890   39.7090 N   0  0  0  0  0  0  0  0  0  0  0  0
   46.3430   33.6740   40.0760 C   0  0  0  0  0  0  0  0  0  0  0  0
   46.2380   33.2880   41.5220 C   0  0  0  0  0  0  0  0  0  0  0  0
   47.0190   32.9070   44.8130 O   0  0  0  0  0  0  0  0  0  0  0  0
   45.4970   30.7270   44.5940 O   0  0  0  0  0  0  0  0  0  0  0  0
   46.5260   31.3920   45.5130 P   0  0  1  0  0  0  0  0  0  0  0  0
   47.8870   30.4620   45.7300 O   0  0  0  0  0  0  0  0  0  0  0  0
   48.5400   29.7550   44.7210 C   0  0  0  0  0  0  0  0  0  0  0  0
   49.7400   29.4400   44.8640 O   0  0  0  0  0  0  0  0  0  0  0  0
   45.7660   31.7700   46.9700 O   0  0  0  0  0  0  0  0  0  0  0  0
   46.6510   31.9290   48.0180 C   0  0  0  0  0  0  0  0  0  0  0  0
   47.7100   32.7430   47.7150 F   0  0  0  0  0  0  0  0  0  0  0  0
   47.1270   30.7590   48.5450 F   0  0  0  0  0  0  0  0  0  0  0  0
   45.9140   32.5550   49.0260 F   0  0  0  0  0  0  0  0  0  0  0  0
   44.9616   36.2712   42.5644 H   0  0  0  0  0  0  0  0  0  0  0  0
   43.8607   35.6465   46.6012 H   0  0  0  0  0  0  0  0  0  0  0  0
   47.6618   36.1339   41.8050 H   0  0  0  0  0  0  0  0  0  0  0  0
   48.6539   35.0401   42.8299 H   0  0  0  0  0  0  0  0  0  0  0  0
   49.3336   35.1191   40.4104 H   0  0  0  0  0  0  0  0  0  0  0  0
   48.8873   33.4664   41.0487 H   0  0  0  0  0  0  0  0  0  0  0  0
   48.0293   33.7015   38.9884 H   0  0  0  0  0  0  0  0  0  0  0  0
   45.5310   34.3809   39.8501 H   0  0  0  0  0  0  0  0  0  0  0  0
   46.2761   32.7398   39.4992 H   0  0  0  0  0  0  0  0  0  0  0  0
   45.1844   33.0845   41.7638 H   0  0  0  0  0  0  0  0  0  0  0  0
   46.8535   32.3919   41.6897 H   0  0  0  0  0  0  0  0  0  0  0  0
   48.0009   29.4761   43.8036 H   0  0  0  0  0  0  0  0  0  0  0  0
  1  2  2  0
  1  6  1  0
  2  3  1  0
  3 13  1  0
  3  4  2  0
  5  4  1  0
  6  5  2  0
  7  2  1  0
  8  7  1  0
  9  8  1  0
 10 11  1  0
 10  9  1  0
 11 12  1  0
 12  7  1  0
 13 15  1  0
 15 14  2  0
 15 16  1  0
 15 19  1  0
 17 18  2  0
 17 16  1  0
 19 20  1  0
 20 22  1  0
 20 23  1  0
 21 20  1  0
  1 24  1  0
  5 25  1  0
  8 26  1  0
  8 27  1  0
  9 28  1  0
  9 29  1  0
 10 30  1  0
 11 31  1  0
 11 32  1  0
 12 33  1  0
 12 34  1  0
 17 35  1  0
M  ISO  8  24  14  25  14  26  13  27  13  28  13  29  13  30   5  31  13
M  ISO  4  32  13  33  13  34  13  35   6
M  END
>  <minimizedAffinity>  (1) 
-4.79194021

>  <minimizedRMSD>  (1) 
0.367770374

$$$$
