
     RDKit          3D

 19 20  0  0  1  0  0  0  0  0999 V2000
   47.5110   34.3200   42.2240 C   0  0  1  0  0  0  0  0  0  0  0  0
   48.2600   35.3150   41.4460 C   0  0  0  0  0  0  0  0  0  0  0  0
   48.9750   34.5590   42.5210 C   0  0  2  0  0  0  0  0  0  0  0  0
   45.7070   35.8630   42.9990 C   0  0  0  0  0  0  0  0  0  0  0  0
   46.4990   34.7330   43.1940 C   0  0  0  0  0  0  0  0  0  0  0  0
   46.2990   33.9540   44.3240 C   0  0  0  0  0  0  0  0  0  0  0  0
   45.3110   34.3170   45.2290 N   0  0  0  0  0  0  0  0  0  0  0  0
   44.5550   35.4260   45.0060 C   0  0  0  0  0  0  0  0  0  0  0  0
   44.7490   36.1990   43.8960 N   0  0  0  0  0  0  0  0  0  0  0  0
   49.9300   33.5050   42.0850 C   0  0  0  0  0  0  0  0  0  0  0  0
   51.1330   33.5270   42.3670 O   0  0  0  0  0  0  0  0  0  0  0  0
   46.8965   33.4450   41.9656 H   0  0  0  0  0  0  0  0  0  0  0  0
   48.4961   35.1176   40.3899 H   0  0  0  0  0  0  0  0  0  0  0  0
   48.1171   36.3820   41.2202 H   0  0  0  0  0  0  0  0  0  0  0  0
   49.5663   34.8247   43.4097 H   0  0  0  0  0  0  0  0  0  0  0  0
   45.8613   36.4886   42.1075 H   0  0  0  0  0  0  0  0  0  0  0  0
   46.9153   33.0602   44.5007 H   0  0  0  0  0  0  0  0  0  0  0  0
   43.7756   35.7047   45.7304 H   0  0  0  0  0  0  0  0  0  0  0  0
   49.5476   32.6671   41.4836 H   0  0  0  0  0  0  0  0  0  0  0  0
  1  3  1  0
  1  5  1  0
  2  1  1  0
  2  3  1  0
  4  5  2  0
  4  9  1  0
  5  6  1  0
  6  7  2  0
  8  7  1  0
  9  8  2  0
 10 11  2  0
 10  3  1  0
  1 12  1  6
  2 13  1  0
  2 14  1  0
  3 15  1  1
  4 16  1  0
  6 17  1  0
  8 18  1  0
 10 19  1  0
M  ISO  8  12  13  13  13  14  13  15  13  16  14  17  14  18  14  19   6
M  END
>  <minimizedAffinity>  (1) 
-4.017272

>  <minimizedRMSD>  (1) 
1.06669557

$$$$
