
     RDKit          3D

 34 37  0  0  1  0  0  0  0  0999 V2000
   46.1660   33.0610   42.7430 C   0  0  0  0  0  0  0  0  0  0  0  0
   47.4290   32.7200   42.1800 C   0  0  0  0  0  0  0  0  0  0  0  0
   48.3070   32.0220   42.9860 C   0  0  0  0  0  0  0  0  0  0  0  0
   47.9260   31.7110   44.2390 N   0  0  0  0  0  0  0  0  0  0  0  0
   46.7560   32.0330   44.7510 C   0  0  0  0  0  0  0  0  0  0  0  0
   45.8830   32.7050   44.0010 N   0  0  0  0  0  0  0  0  0  0  0  0
   46.1840   31.7780   46.0850 C   0  0  0  0  0  0  0  0  0  0  0  0
   45.9690   32.7310   47.0250 N   0  0  0  0  0  0  0  0  0  0  0  0
   45.4520   32.5120   48.2340 C   0  0  0  0  0  0  0  0  0  0  0  0
   45.0900   31.2820   48.6320 N   0  0  0  0  0  0  0  0  0  0  0  0
   45.2620   30.2690   47.7790 C   0  0  0  0  0  0  0  0  0  0  0  0
   44.8860   29.0210   48.2060 C   0  0  0  0  0  0  0  0  0  0  0  0
   45.0320   27.9380   47.3880 C   0  0  0  0  0  0  0  0  0  0  0  0
   45.5680   28.1670   46.1360 C   0  0  0  0  0  0  0  0  0  0  0  0
   45.9320   29.4330   45.7450 C   0  0  0  0  0  0  0  0  0  0  0  0
   45.7990   30.5360   46.5390 C   0  0  0  0  0  0  0  0  0  0  0  0
   47.7950   33.1220   40.7930 C   0  0  1  0  0  0  0  0  0  0  0  0
   47.0520   34.1560   40.1030 C   0  0  0  0  0  0  0  0  0  0  0  0
   48.4130   34.4990   40.5880 C   0  0  1  0  0  0  0  0  0  0  0  0
   48.6180   35.4160   41.7410 C   0  0  0  0  0  0  0  0  0  0  0  0
   49.2870   36.5700   41.3820 F   0  0  0  0  0  0  0  0  0  0  0  0
   49.3250   34.7950   42.7800 F   0  0  0  0  0  0  0  0  0  0  0  0
   47.3820   35.7920   42.2120 F   0  0  0  0  0  0  0  0  0  0  0  0
   45.4265   33.6147   42.1459 H   0  0  0  0  0  0  0  0  0  0  0  0
   49.2980   31.7261   42.6114 H   0  0  0  0  0  0  0  0  0  0  0  0
   45.3187   33.3597   48.9223 H   0  0  0  0  0  0  0  0  0  0  0  0
   44.4642   28.8920   49.2137 H   0  0  0  0  0  0  0  0  0  0  0  0
   44.7363   26.9290   47.7113 H   0  0  0  0  0  0  0  0  0  0  0  0
   45.7054   27.3244   45.4423 H   0  0  0  0  0  0  0  0  0  0  0  0
   46.3535   29.5652   44.7376 H   0  0  0  0  0  0  0  0  0  0  0  0
   48.0666   32.0849   40.5468 H   0  0  0  0  0  0  0  0  0  0  0  0
   46.1735   34.6078   40.5868 H   0  0  0  0  0  0  0  0  0  0  0  0
   46.5548   34.2130   39.1234 H   0  0  0  0  0  0  0  0  0  0  0  0
   49.3316   34.9011   40.1357 H   0  0  0  0  0  0  0  0  0  0  0  0
  1  6  2  0
  2  1  1  0
  2  3  2  0
  3  4  1  0
  4  5  2  0
  5  7  1  0
  6  5  1  0
  7 16  1  0
  7  8  2  0
  8  9  1  0
  9 10  2  0
 11 12  2  0
 11 10  1  0
 13 12  1  0
 14 13  2  0
 15 14  1  0
 15 16  2  0
 16 11  1  0
 17  2  1  0
 18 19  1  0
 18 17  1  0
 19 17  1  0
 19 20  1  0
 20 23  1  0
 20 22  1  0
 21 20  1  0
  1 24  1  0
  3 25  1  0
  9 26  1  0
 12 27  1  0
 13 28  1  0
 14 29  1  0
 15 30  1  0
 17 31  1  6
 18 32  1  0
 18 33  1  0
 19 34  1  6
M  ISO  8  24  14  25  14  26  14  27  14  28  14  29  14  30  14  31  13
M  ISO  3  32  13  33  13  34  13
M  END
>  <minimizedAffinity>  (1) 
-5.76043415

>  <minimizedRMSD>  (1) 
2.57522869

$$$$
