
     RDKit          3D

 35 37  0  0  1  0  0  0  0  0999 V2000
   45.5990   33.6190   43.7640 C   0  0  0  0  0  0  0  0  0  0  0  0
   46.5440   32.9520   42.9190 C   0  0  0  0  0  0  0  0  0  0  0  0
   47.4750   32.1270   43.5190 C   0  0  0  0  0  0  0  0  0  0  0  0
   47.4400   31.9970   44.8720 N   0  0  0  0  0  0  0  0  0  0  0  0
   46.5440   32.6320   45.6480 C   0  0  0  0  0  0  0  0  0  0  0  0
   45.6420   33.4300   45.0730 N   0  0  0  0  0  0  0  0  0  0  0  0
   46.4940   32.5060   47.0630 N   0  0  0  0  0  0  0  0  0  0  0  0
   45.2630   32.6260   47.8210 C   0  0  0  0  0  0  0  0  0  0  0  0
   45.4060   32.0360   49.1960 C   0  0  0  0  0  0  0  0  0  0  0  0
   46.1930   30.7630   49.1970 C   0  0  0  0  0  0  0  0  0  0  0  0
   47.4610   30.8210   48.3960 C   0  0  0  0  0  0  0  0  0  0  0  0
   47.6440   32.2450   47.9120 C   0  0  0  0  0  0  0  0  0  0  0  0
   46.5500   33.1310   41.4330 C   0  0  1  0  0  0  0  0  0  0  0  0
   45.8700   34.2610   40.8380 C   0  0  0  0  0  0  0  0  0  0  0  0
   47.3540   34.2900   40.8600 C   0  0  1  0  0  0  0  0  0  0  0  0
   48.1000   35.2060   41.7660 C   0  0  0  0  0  0  0  0  0  0  0  0
   48.8790   36.1080   41.0640 F   0  0  0  0  0  0  0  0  0  0  0  0
   48.9160   34.4960   42.6450 F   0  0  0  0  0  0  0  0  0  0  0  0
   47.1890   35.9330   42.4860 F   0  0  0  0  0  0  0  0  0  0  0  0
   44.8409   34.2854   43.3267 H   0  0  0  0  0  0  0  0  0  0  0  0
   48.2242   31.5899   42.9188 H   0  0  0  0  0  0  0  0  0  0  0  0
   45.0021   33.6906   47.9137 H   0  0  0  0  0  0  0  0  0  0  0  0
   44.4734   32.0756   47.2885 H   0  0  0  0  0  0  0  0  0  0  0  0
   45.9163   32.7662   49.8414 H   0  0  0  0  0  0  0  0  0  0  0  0
   44.3963   31.8038   49.5656 H   0  0  0  0  0  0  0  0  0  0  0  0
   46.4535   30.5197   50.2376 H   0  0  0  0  0  0  0  0  0  0  0  0
   45.5572   29.9988   48.7261 H   0  0  0  0  0  0  0  0  0  0  0  0
   48.3141   30.5282   49.0257 H   0  0  0  0  0  0  0  0  0  0  0  0
   47.4050   30.1310   47.5412 H   0  0  0  0  0  0  0  0  0  0  0  0
   48.5776   32.3411   47.3382 H   0  0  0  0  0  0  0  0  0  0  0  0
   47.7114   32.9588   48.7462 H   0  0  0  0  0  0  0  0  0  0  0  0
   46.5086   32.0430   41.2761 H   0  0  0  0  0  0  0  0  0  0  0  0
   45.3041   34.9529   41.4791 H   0  0  0  0  0  0  0  0  0  0  0  0
   45.1171   34.3654   40.0428 H   0  0  0  0  0  0  0  0  0  0  0  0
   48.1481   34.4180   40.1097 H   0  0  0  0  0  0  0  0  0  0  0  0
  1  6  2  0
  2  3  2  0
  2  1  1  0
  3  4  1  0
  4  5  2  0
  5  7  1  0
  6  5  1  0
  7  8  1  0
  7 12  1  0
  8  9  1  0
  9 10  1  0
 11 10  1  0
 12 11  1  0
 13  2  1  0
 14 15  1  0
 14 13  1  0
 15 13  1  0
 15 16  1  0
 16 19  1  0
 16 18  1  0
 17 16  1  0
  1 20  1  0
  3 21  1  0
  8 22  1  0
  8 23  1  0
  9 24  1  0
  9 25  1  0
 10 26  1  0
 10 27  1  0
 11 28  1  0
 11 29  1  0
 12 30  1  0
 12 31  1  0
 13 32  1  6
 14 33  1  0
 14 34  1  0
 15 35  1  6
M  ISO  8  20  14  21  14  22  13  23  13  24  13  25  13  26  13  27  13
M  ISO  8  28  13  29  13  30  13  31  13  32  13  33  13  34  13  35  13
M  END
>  <minimizedAffinity>  (1) 
-5.67937803

>  <minimizedRMSD>  (1) 
1.92678702

$$$$
