
     RDKit          3D

 30 32  0  0  1  0  0  0  0  0999 V2000
   45.8790   33.0460   43.0220 C   0  0  0  0  0  0  0  0  0  0  0  0
   47.1450   32.6410   42.4920 C   0  0  0  0  0  0  0  0  0  0  0  0
   47.9980   31.9220   43.3070 C   0  0  0  0  0  0  0  0  0  0  0  0
   47.5880   31.6390   44.5720 N   0  0  0  0  0  0  0  0  0  0  0  0
   46.4090   32.0240   45.0480 C   0  0  0  0  0  0  0  0  0  0  0  0
   45.5660   32.7200   44.2790 N   0  0  0  0  0  0  0  0  0  0  0  0
   45.2410   29.2440   45.5040 Cl  0  0  0  0  0  0  0  0  0  0  0  0
   45.4910   30.4590   46.7380 C   0  0  0  0  0  0  0  0  0  0  0  0
   46.0290   31.6880   46.4200 C   0  0  0  0  0  0  0  0  0  0  0  0
   46.2160   32.6330   47.4270 C   0  0  0  0  0  0  0  0  0  0  0  0
   45.8800   32.3770   48.7320 C   0  0  0  0  0  0  0  0  0  0  0  0
   45.3430   31.1270   48.9980 C   0  0  0  0  0  0  0  0  0  0  0  0
   45.1390   30.1600   48.0370 C   0  0  0  0  0  0  0  0  0  0  0  0
   47.5520   32.9960   41.0940 C   0  0  1  0  0  0  0  0  0  0  0  0
   46.8390   34.0230   40.3670 C   0  0  0  0  0  0  0  0  0  0  0  0
   48.1950   34.3600   40.8670 C   0  0  1  0  0  0  0  0  0  0  0  0
   48.3980   35.2980   42.0010 C   0  0  0  0  0  0  0  0  0  0  0  0
   49.1200   36.4200   41.6270 F   0  0  0  0  0  0  0  0  0  0  0  0
   49.0400   34.6870   43.0790 F   0  0  0  0  0  0  0  0  0  0  0  0
   47.1640   35.7390   42.4180 F   0  0  0  0  0  0  0  0  0  0  0  0
   45.1729   33.6183   42.4024 H   0  0  0  0  0  0  0  0  0  0  0  0
   48.9808   31.5881   42.9428 H   0  0  0  0  0  0  0  0  0  0  0  0
   46.6453   33.6121   47.1680 H   0  0  0  0  0  0  0  0  0  0  0  0
   46.0288   33.1241   49.5255 H   0  0  0  0  0  0  0  0  0  0  0  0
   45.0635   30.8932   50.0359 H   0  0  0  0  0  0  0  0  0  0  0  0
   44.7093   29.1816   48.2981 H   0  0  0  0  0  0  0  0  0  0  0  0
   47.8143   31.9496   40.8788 H   0  0  0  0  0  0  0  0  0  0  0  0
   45.9587   34.4990   40.8237 H   0  0  0  0  0  0  0  0  0  0  0  0
   46.3606   34.0627   39.3773 H   0  0  0  0  0  0  0  0  0  0  0  0
   49.1255   34.7405   40.4205 H   0  0  0  0  0  0  0  0  0  0  0  0
  1  6  2  0
  2  1  1  0
  2  3  2  0
  3  4  1  0
  4  5  2  0
  5  9  1  0
  6  5  1  0
  7  8  1  0
  8 13  2  0
  9  8  1  0
  9 10  2  0
 10 11  1  0
 11 12  2  0
 13 12  1  0
 14  2  1  0
 15 16  1  0
 15 14  1  0
 16 14  1  0
 16 17  1  0
 17 20  1  0
 17 19  1  0
 18 17  1  0
  1 21  1  0
  3 22  1  0
 10 23  1  0
 11 24  1  0
 12 25  1  0
 13 26  1  0
 14 27  1  6
 15 28  1  0
 15 29  1  0
 16 30  1  6
M  ISO  8  21  14  22  14  23  14  24  14  25  14  26  14  27  13  28  13
M  ISO  2  29  13  30  13
M  END
>  <minimizedAffinity>  (1) 
-5.50472832

>  <minimizedRMSD>  (1) 
2.21289945

$$$$
