
     RDKit          3D

 30 32  0  0  1  0  0  0  0  0999 V2000
   46.1270   32.9980   42.5090 C   0  0  0  0  0  0  0  0  0  0  0  0
   47.4670   32.7060   42.1000 C   0  0  0  0  0  0  0  0  0  0  0  0
   48.2940   32.0440   42.9870 C   0  0  0  0  0  0  0  0  0  0  0  0
   47.7930   31.7050   44.2020 N   0  0  0  0  0  0  0  0  0  0  0  0
   46.5410   31.9850   44.5660 C   0  0  0  0  0  0  0  0  0  0  0  0
   45.7210   32.6250   43.7250 N   0  0  0  0  0  0  0  0  0  0  0  0
   46.1510   33.9070   46.5780 F   0  0  0  0  0  0  0  0  0  0  0  0
   45.8450   32.6140   46.8450 C   0  0  0  0  0  0  0  0  0  0  0  0
   46.0150   31.6080   45.8930 C   0  0  0  0  0  0  0  0  0  0  0  0
   45.6940   30.2950   46.1910 C   0  0  0  0  0  0  0  0  0  0  0  0
   45.1990   29.9740   47.4540 C   0  0  0  0  0  0  0  0  0  0  0  0
   45.0370   30.9900   48.3940 C   0  0  0  0  0  0  0  0  0  0  0  0
   45.3550   32.3080   48.1020 C   0  0  0  0  0  0  0  0  0  0  0  0
   47.9760   33.1190   40.7530 C   0  0  1  0  0  0  0  0  0  0  0  0
   47.2910   34.1460   39.9980 C   0  0  0  0  0  0  0  0  0  0  0  0
   48.5890   34.5090   40.6200 C   0  0  1  0  0  0  0  0  0  0  0  0
   48.6650   35.4160   41.7940 C   0  0  0  0  0  0  0  0  0  0  0  0
   49.3060   36.6060   41.4920 F   0  0  0  0  0  0  0  0  0  0  0  0
   49.3150   34.8190   42.8750 F   0  0  0  0  0  0  0  0  0  0  0  0
   47.3830   35.7360   42.1730 F   0  0  0  0  0  0  0  0  0  0  0  0
   45.4397   33.5235   41.8296 H   0  0  0  0  0  0  0  0  0  0  0  0
   49.3313   31.7981   42.7156 H   0  0  0  0  0  0  0  0  0  0  0  0
   45.8289   29.5081   45.4343 H   0  0  0  0  0  0  0  0  0  0  0  0
   44.9402   28.9347   47.7048 H   0  0  0  0  0  0  0  0  0  0  0  0
   44.6474   30.7405   49.3920 H   0  0  0  0  0  0  0  0  0  0  0  0
   45.2199   33.0965   48.8570 H   0  0  0  0  0  0  0  0  0  0  0  0
   48.2909   32.0887   40.5308 H   0  0  0  0  0  0  0  0  0  0  0  0
   46.3603   34.5796   40.3926 H   0  0  0  0  0  0  0  0  0  0  0  0
   46.8953   34.2020   38.9731 H   0  0  0  0  0  0  0  0  0  0  0  0
   49.5399   34.9323   40.2642 H   0  0  0  0  0  0  0  0  0  0  0  0
  1  6  2  0
  2  1  1  0
  2  3  2  0
  3  4  1  0
  4  5  2  0
  5  9  1  0
  6  5  1  0
  7  8  1  0
  8 13  2  0
  9 10  2  0
  9  8  1  0
 10 11  1  0
 11 12  2  0
 13 12  1  0
 14  2  1  0
 15 16  1  0
 15 14  1  0
 16 14  1  0
 16 17  1  0
 17 20  1  0
 17 19  1  0
 18 17  1  0
  1 21  1  0
  3 22  1  0
 10 23  1  0
 11 24  1  0
 12 25  1  0
 13 26  1  0
 14 27  1  6
 15 28  1  0
 15 29  1  0
 16 30  1  6
M  ISO  8  21  14  22  14  23  14  24  14  25  14  26  14  27  13  28  13
M  ISO  2  29  13  30  13
M  END
>  <minimizedAffinity>  (1) 
-5.50232124

>  <minimizedRMSD>  (1) 
2.29115057

$$$$
