
     RDKit          3D

 29 31  0  0  1  0  0  0  0  0999 V2000
   45.8970   32.3280   44.6070 C   0  0  1  0  0  0  0  0  0  0  0  0
   47.0970   31.6630   44.0060 C   0  0  0  0  0  0  0  0  0  0  0  0
   47.0350   32.0160   45.4890 C   0  0  2  0  0  0  0  0  0  0  0  0
   44.6660   35.8140   44.8790 C   0  0  0  0  0  0  0  0  0  0  0  0
   44.9650   36.3300   43.5700 C   0  0  0  0  0  0  0  0  0  0  0  0
   45.5950   35.4470   42.6400 C   0  0  0  0  0  0  0  0  0  0  0  0
   45.8860   34.1800   43.0130 N   0  0  0  0  0  0  0  0  0  0  0  0
   45.5800   33.7420   44.2660 C   0  0  0  0  0  0  0  0  0  0  0  0
   44.9770   34.5460   45.1890 N   0  0  0  0  0  0  0  0  0  0  0  0
   47.0480   30.9440   46.4210 N   0  0  0  0  0  0  0  0  0  0  0  0
   47.7860   32.7390   48.5120 F   0  0  0  0  0  0  0  0  0  0  0  0
   48.2730   31.4810   48.5040 C   0  0  0  0  0  0  0  0  0  0  0  0
   47.9100   30.6290   47.4880 C   0  0  0  0  0  0  0  0  0  0  0  0
   48.4660   29.3720   47.5710 C   0  0  0  0  0  0  0  0  0  0  0  0
   49.3130   29.0010   48.5900 C   0  0  0  0  0  0  0  0  0  0  0  0
   49.6300   29.9070   49.5700 C   0  0  0  0  0  0  0  0  0  0  0  0
   49.1150   31.1650   49.5450 C   0  0  0  0  0  0  0  0  0  0  0  0
   44.8221   32.0957   44.6320 H   0  0  0  0  0  0  0  0  0  0  0  0
   47.0456   30.6127   43.6833 H   0  0  0  0  0  0  0  0  0  0  0  0
   47.7824   31.8786   43.1731 H   0  0  0  0  0  0  0  0  0  0  0  0
   47.6031   32.6246   46.2080 H   0  0  0  0  0  0  0  0  0  0  0  0
   44.1819   36.4595   45.6267 H   0  0  0  0  0  0  0  0  0  0  0  0
   44.7178   37.3660   43.2952 H   0  0  0  0  0  0  0  0  0  0  0  0
   45.8419   35.7957   41.6264 H   0  0  0  0  0  0  0  0  0  0  0  0
   46.2809   30.2691   46.2912 H   0  0  0  0  0  0  0  0  0  0  0  0
   48.2233   28.6349   46.7914 H   0  0  0  0  0  0  0  0  0  0  0  0
   49.7331   27.9848   48.6186 H   0  0  0  0  0  0  0  0  0  0  0  0
   50.3080   29.6126   50.3846 H   0  0  0  0  0  0  0  0  0  0  0  0
   49.3615   31.9001   50.3253 H   0  0  0  0  0  0  0  0  0  0  0  0
  1  3  1  0
  2  1  1  0
  2  3  1  0
  3 10  1  0
  4  9  2  0
  5  4  1  0
  6  7  1  0
  6  5  2  0
  7  8  2  0
  8  1  1  0
  8  9  1  0
 10 13  1  0
 12 11  1  0
 12 17  2  0
 13 14  2  0
 13 12  1  0
 14 15  1  0
 15 16  2  0
 17 16  1  0
  1 18  1  1
  2 19  1  0
  2 20  1  0
  3 21  1  1
  4 22  1  0
  5 23  1  0
  6 24  1  0
 10 25  1  0
 14 26  1  0
 15 27  1  0
 16 28  1  0
 17 29  1  0
M  ISO  8  18  13  19  13  20  13  21  13  22  14  23  14  24  14  26  14
M  ISO  3  27  14  28  14  29  14
M  END
>  <minimizedAffinity>  (1) 
-4.42994118

>  <minimizedRMSD>  (1) 
3.82389688

$$$$
