
     RDKit          3D

 24 25  0  0  1  0  0  0  0  0999 V2000
   45.5740   34.0230   43.0800 C   0  0  0  0  0  0  0  0  0  0  0  0
   46.7930   33.3210   42.8030 C   0  0  0  0  0  0  0  0  0  0  0  0
   47.4600   32.7730   43.8800 C   0  0  0  0  0  0  0  0  0  0  0  0
   46.9280   32.9280   45.1250 N   0  0  0  0  0  0  0  0  0  0  0  0
   45.7940   33.5840   45.3550 C   0  0  0  0  0  0  0  0  0  0  0  0
   45.1190   34.1310   44.3170 N   0  0  0  0  0  0  0  0  0  0  0  0
   45.5110   32.6770   47.5290 C   0  0  0  0  0  0  0  0  0  0  0  0
   46.2210   31.6650   47.2160 O   0  0  0  0  0  0  0  0  0  0  0  0
   45.2100   33.7660   46.6320 N   0  0  0  0  0  0  0  0  0  0  0  0
   47.3310   33.1970   41.4320 C   0  0  1  0  0  0  0  0  0  0  0  0
   46.9110   34.1010   40.3830 C   0  0  0  0  0  0  0  0  0  0  0  0
   48.2820   34.2760   40.9270 C   0  0  1  0  0  0  0  0  0  0  0  0
   48.6290   35.4310   41.7970 C   0  0  0  0  0  0  0  0  0  0  0  0
   49.3260   36.4110   41.1120 F   0  0  0  0  0  0  0  0  0  0  0  0
   49.3810   35.0380   42.9050 F   0  0  0  0  0  0  0  0  0  0  0  0
   47.4580   36.0050   42.2330 F   0  0  0  0  0  0  0  0  0  0  0  0
   45.0097   34.4778   42.2526 H   0  0  0  0  0  0  0  0  0  0  0  0
   48.4015   32.2226   43.7363 H   0  0  0  0  0  0  0  0  0  0  0  0
   45.1016   32.7225   48.5490 H   0  0  0  0  0  0  0  0  0  0  0  0
   44.6366   34.5816   46.8906 H   0  0  0  0  0  0  0  0  0  0  0  0
   47.3545   32.1018   41.5314 H   0  0  0  0  0  0  0  0  0  0  0  0
   46.1423   34.8586   40.5952 H   0  0  0  0  0  0  0  0  0  0  0  0
   46.5054   33.9576   39.3706 H   0  0  0  0  0  0  0  0  0  0  0  0
   49.2960   34.3138   40.5023 H   0  0  0  0  0  0  0  0  0  0  0  0
  1  6  2  0
  2  1  1  0
  2  3  2  0
  3  4  1  0
  4  5  2  0
  5  9  1  0
  6  5  1  0
  8  7  2  0
  9  7  1  0
 10  2  1  0
 11 12  1  0
 11 10  1  0
 12 10  1  0
 12 13  1  0
 13 16  1  0
 13 15  1  0
 14 13  1  0
  1 17  1  0
  3 18  1  0
  7 19  1  0
  9 20  1  0
 10 21  1  6
 11 22  1  0
 11 23  1  0
 12 24  1  6
M  ISO  7  17  14  18  14  19   6  21  13  22  13  23  13  24  13
M  END
>  <minimizedAffinity>  (1) 
-5.38415051

>  <minimizedRMSD>  (1) 
0.350625783

$$$$
