
     RDKit          3D

 27 29  0  0  1  0  0  0  0  0999 V2000
   46.0210   33.4630   40.2550 C   0  0  0  0  0  0  0  0  0  0  0  0
   46.3600   33.5480   41.6460 C   0  0  0  0  0  0  0  0  0  0  0  0
   45.4350   34.0820   42.5220 C   0  0  0  0  0  0  0  0  0  0  0  0
   44.2360   34.5070   42.0200 N   0  0  0  0  0  0  0  0  0  0  0  0
   43.9470   34.4160   40.7210 C   0  0  0  0  0  0  0  0  0  0  0  0
   44.8240   33.9040   39.8540 N   0  0  0  0  0  0  0  0  0  0  0  0
   47.7000   33.0880   42.1440 C   0  0  1  0  0  0  0  0  0  0  0  0
   48.8000   32.9100   41.2230 C   0  0  0  0  0  0  0  0  0  0  0  0
   48.8440   34.0930   42.1200 C   0  0  1  0  0  0  0  0  0  0  0  0
   48.6350   35.4690   41.6030 C   0  0  0  0  0  0  0  0  0  0  0  0
   49.7090   36.3010   41.8790 F   0  0  0  0  0  0  0  0  0  0  0  0
   47.4770   36.0490   42.1200 F   0  0  0  0  0  0  0  0  0  0  0  0
   48.5280   35.4000   40.2340 F   0  0  0  0  0  0  0  0  0  0  0  0
   42.6050   34.9200   40.3390 C   0  0  0  0  0  0  0  0  0  0  0  0
   42.0240   35.1440   39.1830 C   0  0  0  0  0  0  0  0  0  0  0  0
   40.7490   35.6210   39.1220 C   0  0  0  0  0  0  0  0  0  0  0  0
   40.1180   35.8490   40.3910 C   0  0  0  0  0  0  0  0  0  0  0  0
   41.4870   35.3290   41.5890 S   0  0  0  0  0  0  0  0  0  0  0  0
   46.7336   33.0422   39.5303 H   0  0  0  0  0  0  0  0  0  0  0  0
   45.6572   34.1633   43.5962 H   0  0  0  0  0  0  0  0  0  0  0  0
   47.2255   32.4425   42.8977 H   0  0  0  0  0  0  0  0  0  0  0  0
   48.6336   33.0522   40.1450 H   0  0  0  0  0  0  0  0  0  0  0  0
   49.4957   32.0831   41.0172 H   0  0  0  0  0  0  0  0  0  0  0  0
   49.5596   34.5043   42.8471 H   0  0  0  0  0  0  0  0  0  0  0  0
   42.5738   34.9440   38.2515 H   0  0  0  0  0  0  0  0  0  0  0  0
   40.2391   35.8175   38.1673 H   0  0  0  0  0  0  0  0  0  0  0  0
   39.1077   36.2257   40.6089 H   0  0  0  0  0  0  0  0  0  0  0  0
  1  2  2  0
  2  7  1  0
  2  3  1  0
  4  3  2  0
  5  4  1  0
  6  1  1  0
  6  5  2  0
  8  9  1  0
  8  7  1  0
  9  7  1  0
 10 11  1  0
 10 12  1  0
 10  9  1  0
 13 10  1  0
 14  5  1  0
 14 18  1  0
 15 14  2  0
 16 15  1  0
 16 17  2  0
 17 18  1  0
  1 19  1  0
  3 20  1  0
  7 21  1  1
  8 22  1  0
  8 23  1  0
  9 24  1  1
 15 25  1  0
 16 26  1  0
 17 27  1  0
M  ISO  8  19  14  20  14  21  13  22  13  23  13  24  13  25  14  26  14
M  ISO  1  27  14
M  END
>  <minimizedAffinity>  (1) 
-5.16538286

>  <minimizedRMSD>  (1) 
4.99992228

$$$$
