
     RDKit          3D

 26 28  0  0  1  0  0  0  0  0999 V2000
   46.1240   32.6450   45.6450 C   0  0  1  0  0  0  0  0  0  0  0  0
   46.9720   32.7440   46.8790 C   0  0  0  0  0  0  0  0  0  0  0  0
   45.4960   32.3400   46.9390 C   0  0  2  0  0  0  0  0  0  0  0  0
   44.5450   35.8940   44.7970 C   0  0  0  0  0  0  0  0  0  0  0  0
   45.0870   36.1440   43.4870 C   0  0  0  0  0  0  0  0  0  0  0  0
   45.9920   35.1790   42.9430 C   0  0  0  0  0  0  0  0  0  0  0  0
   46.2910   34.0960   43.6650 N   0  0  0  0  0  0  0  0  0  0  0  0
   45.7600   33.8880   44.9010 C   0  0  0  0  0  0  0  0  0  0  0  0
   44.8940   34.7830   45.4590 N   0  0  0  0  0  0  0  0  0  0  0  0
   45.2050   31.0150   47.3610 N   0  0  0  0  0  0  0  0  0  0  0  0
   44.9370   29.6880   47.1070 C   0  0  0  0  0  0  0  0  0  0  0  0
   45.0920   28.7080   48.0960 C   0  0  0  0  0  0  0  0  0  0  0  0
   44.8710   27.3740   48.0120 C   0  0  0  0  0  0  0  0  0  0  0  0
   44.4070   27.1000   46.5970 C   0  0  0  0  0  0  0  0  0  0  0  0
   44.3960   28.8170   45.7260 S   0  0  0  0  0  0  0  0  0  0  0  0
   46.2075   32.0993   44.6935 H   0  0  0  0  0  0  0  0  0  0  0  0
   47.7596   32.0009   47.0728 H   0  0  0  0  0  0  0  0  0  0  0  0
   47.5981   33.5182   47.3465 H   0  0  0  0  0  0  0  0  0  0  0  0
   44.5750   32.6983   47.4222 H   0  0  0  0  0  0  0  0  0  0  0  0
   43.8473   36.6122   45.2524 H   0  0  0  0  0  0  0  0  0  0  0  0
   44.8140   37.0479   42.9226 H   0  0  0  0  0  0  0  0  0  0  0  0
   46.4343   35.3265   41.9467 H   0  0  0  0  0  0  0  0  0  0  0  0
   45.1831   31.0807   48.3887 H   0  0  0  0  0  0  0  0  0  0  0  0
   45.4407   29.0711   49.0741 H   0  0  0  0  0  0  0  0  0  0  0  0
   45.0029   26.6341   48.8152 H   0  0  0  0  0  0  0  0  0  0  0  0
   44.1345   26.1279   46.1601 H   0  0  0  0  0  0  0  0  0  0  0  0
  1  2  1  0
  1  3  1  0
  2  3  1  0
  3 10  1  0
  4  9  2  0
  5  4  1  0
  6  5  2  0
  6  7  1  0
  7  8  2  0
  8  9  1  0
  8  1  1  0
 11 10  1  0
 11 12  2  0
 13 12  1  0
 14 13  2  0
 15 14  1  0
 15 11  1  0
  1 16  1  6
  2 17  1  0
  2 18  1  0
  3 19  1  1
  4 20  1  0
  5 21  1  0
  6 22  1  0
 10 23  1  0
 12 24  1  0
 13 25  1  0
 14 26  1  0
M  ISO  8  16  13  17  13  18  13  19  13  20  14  21  14  22  14  24  14
M  ISO  2  25  14  26  14
M  END
>  <minimizedAffinity>  (1) 
-4.3498497

>  <minimizedRMSD>  (1) 
1.45172918

$$$$
