
     RDKit          3D

 23 24  0  0  1  0  0  0  0  0999 V2000
   45.8270   33.6470   43.0760 C   0  0  0  0  0  0  0  0  0  0  0  0
   47.0390   33.0570   42.5890 C   0  0  0  0  0  0  0  0  0  0  0  0
   47.8300   32.3960   43.5090 C   0  0  0  0  0  0  0  0  0  0  0  0
   47.4250   32.3400   44.8020 N   0  0  0  0  0  0  0  0  0  0  0  0
   46.2960   32.8970   45.2280 C   0  0  0  0  0  0  0  0  0  0  0  0
   45.4950   33.5540   44.3550 N   0  0  0  0  0  0  0  0  0  0  0  0
   47.4460   33.1580   41.1630 C   0  0  1  0  0  0  0  0  0  0  0  0
   46.8540   34.1560   40.2990 C   0  0  0  0  0  0  0  0  0  0  0  0
   48.2550   34.3790   40.7360 C   0  0  1  0  0  0  0  0  0  0  0  0
   48.6000   35.4360   41.7230 C   0  0  0  0  0  0  0  0  0  0  0  0
   49.2960   36.4830   41.1440 F   0  0  0  0  0  0  0  0  0  0  0  0
   49.3530   34.9270   42.7830 F   0  0  0  0  0  0  0  0  0  0  0  0
   47.4290   35.9590   42.2170 F   0  0  0  0  0  0  0  0  0  0  0  0
   45.8890   32.8100   46.6680 C   0  0  0  0  0  0  0  0  0  0  0  0
   47.0070   32.9960   47.4640 F   0  0  0  0  0  0  0  0  0  0  0  0
   45.3800   31.5670   46.9840 F   0  0  0  0  0  0  0  0  0  0  0  0
   44.9230   33.7290   46.9730 F   0  0  0  0  0  0  0  0  0  0  0  0
   45.1651   34.1830   42.3799 H   0  0  0  0  0  0  0  0  0  0  0  0
   48.7730   31.9228   43.1977 H   0  0  0  0  0  0  0  0  0  0  0  0
   47.5633   32.0661   41.0998 H   0  0  0  0  0  0  0  0  0  0  0  0
   46.0550   34.8045   40.6875 H   0  0  0  0  0  0  0  0  0  0  0  0
   46.3597   34.1166   39.3171 H   0  0  0  0  0  0  0  0  0  0  0  0
   49.2159   34.5644   40.2336 H   0  0  0  0  0  0  0  0  0  0  0  0
  1  6  2  0
  2  1  1  0
  2  3  2  0
  3  4  1  0
  4  5  2  0
  5 14  1  0
  6  5  1  0
  7  2  1  0
  8  9  1  0
  8  7  1  0
  9  7  1  0
  9 10  1  0
 10 13  1  0
 10 12  1  0
 11 10  1  0
 14 17  1  0
 14 16  1  0
 14 15  1  0
  1 18  1  0
  3 19  1  0
  7 20  1  6
  8 21  1  0
  8 22  1  0
  9 23  1  6
M  ISO  6  18  14  19  14  20  13  21  13  22  13  23  13
M  END
>  <minimizedAffinity>  (1) 
-4.97153139

>  <minimizedRMSD>  (1) 
1.05136073

$$$$
