
     RDKit          3D

 22 23  0  0  1  0  0  0  0  0999 V2000
   47.4140   33.2710   41.3920 C   0  0  1  0  0  0  0  0  0  0  0  0
   47.0800   34.1290   40.2750 C   0  0  0  0  0  0  0  0  0  0  0  0
   48.4150   34.3120   40.8970 C   0  0  1  0  0  0  0  0  0  0  0  0
   45.5290   34.1450   42.8710 C   0  0  0  0  0  0  0  0  0  0  0  0
   46.7910   33.4820   42.7240 C   0  0  0  0  0  0  0  0  0  0  0  0
   47.4210   33.0550   43.8760 C   0  0  0  0  0  0  0  0  0  0  0  0
   46.8150   33.2850   45.0690 N   0  0  0  0  0  0  0  0  0  0  0  0
   45.6390   33.9050   45.1850 C   0  0  0  0  0  0  0  0  0  0  0  0
   44.9980   34.3350   44.0710 N   0  0  0  0  0  0  0  0  0  0  0  0
   44.9920   34.1530   46.4280 N   0  0  0  0  0  0  0  0  0  0  0  0
   48.7290   35.5050   41.7260 C   0  0  0  0  0  0  0  0  0  0  0  0
   49.3700   36.4910   40.9970 F   0  0  0  0  0  0  0  0  0  0  0  0
   49.5210   35.1760   42.8260 F   0  0  0  0  0  0  0  0  0  0  0  0
   47.5450   36.0410   42.1710 F   0  0  0  0  0  0  0  0  0  0  0  0
   47.4097   32.1817   41.5452 H   0  0  0  0  0  0  0  0  0  0  0  0
   46.3125   34.9071   40.3995 H   0  0  0  0  0  0  0  0  0  0  0  0
   46.7387   33.9413   39.2463 H   0  0  0  0  0  0  0  0  0  0  0  0
   49.4550   34.3139   40.5388 H   0  0  0  0  0  0  0  0  0  0  0  0
   44.9945   34.5005   41.9777 H   0  0  0  0  0  0  0  0  0  0  0  0
   48.3919   32.5401   43.8283 H   0  0  0  0  0  0  0  0  0  0  0  0
   44.0833   34.6376   46.4480 H   0  0  0  0  0  0  0  0  0  0  0  0
   45.4324   33.8479   47.3077 H   0  0  0  0  0  0  0  0  0  0  0  0
  1  5  1  0
  2  3  1  0
  2  1  1  0
  3  1  1  0
  3 11  1  0
  4  9  2  0
  5  4  1  0
  5  6  2  0
  6  7  1  0
  7  8  2  0
  8 10  1  0
  9  8  1  0
 11 14  1  0
 11 13  1  0
 12 11  1  0
  1 15  1  6
  2 16  1  0
  2 17  1  0
  3 18  1  6
  4 19  1  0
  6 20  1  0
 10 21  1  0
 10 22  1  0
M  ISO  6  15  13  16  13  17  13  18  13  19  14  20  14
M  END
>  <minimizedAffinity>  (1) 
-4.92944431

>  <minimizedRMSD>  (1) 
0.0451945849

$$$$
