
     RDKit          3D

 27 29  0  0  1  0  0  0  0  0999 V2000
   47.5060   33.1910   41.1660 C   0  0  1  0  0  0  0  0  0  0  0  0
   46.9520   34.1730   40.2590 C   0  0  0  0  0  0  0  0  0  0  0  0
   48.3420   34.3910   40.7330 C   0  0  1  0  0  0  0  0  0  0  0  0
   45.8620   33.7660   43.0220 C   0  0  0  0  0  0  0  0  0  0  0  0
   47.0640   33.1230   42.5760 C   0  0  0  0  0  0  0  0  0  0  0  0
   47.8020   32.4480   43.5280 C   0  0  0  0  0  0  0  0  0  0  0  0
   47.3690   32.4220   44.8120 N   0  0  0  0  0  0  0  0  0  0  0  0
   46.2360   33.0350   45.2010 C   0  0  0  0  0  0  0  0  0  0  0  0
   45.4890   33.7070   44.2920 N   0  0  0  0  0  0  0  0  0  0  0  0
   45.8320   32.9570   46.6350 C   0  0  0  0  0  0  0  0  0  0  0  0
   46.9860   32.5050   47.5420 C   0  0  0  0  0  0  0  0  0  0  0  0
   45.7800   31.6540   47.3270 C   0  0  0  0  0  0  0  0  0  0  0  0
   48.6750   35.4660   41.7050 C   0  0  0  0  0  0  0  0  0  0  0  0
   49.3530   36.5180   41.1150 F   0  0  0  0  0  0  0  0  0  0  0  0
   49.4360   34.9800   42.7710 F   0  0  0  0  0  0  0  0  0  0  0  0
   47.4970   35.9770   42.1960 F   0  0  0  0  0  0  0  0  0  0  0  0
   47.6090   32.0963   41.1332 H   0  0  0  0  0  0  0  0  0  0  0  0
   46.1495   34.8404   40.6063 H   0  0  0  0  0  0  0  0  0  0  0  0
   46.4870   34.1139   39.2638 H   0  0  0  0  0  0  0  0  0  0  0  0
   49.3186   34.5542   40.2539 H   0  0  0  0  0  0  0  0  0  0  0  0
   45.2410   34.3159   42.2995 H   0  0  0  0  0  0  0  0  0  0  0  0
   48.7338   31.9355   43.2466 H   0  0  0  0  0  0  0  0  0  0  0  0
   45.1080   33.7820   46.5630 H   0  0  0  0  0  0  0  0  0  0  0  0
   47.9536   32.2159   47.1058 H   0  0  0  0  0  0  0  0  0  0  0  0
   47.5108   32.9208   48.4147 H   0  0  0  0  0  0  0  0  0  0  0  0
   45.0666   31.5043   48.1508 H   0  0  0  0  0  0  0  0  0  0  0  0
   45.6263   30.6173   46.9930 H   0  0  0  0  0  0  0  0  0  0  0  0
  1  5  1  0
  2  3  1  0
  2  1  1  0
  3  1  1  0
  3 13  1  0
  4  9  2  0
  5  4  1  0
  5  6  2  0
  6  7  1  0
  7  8  2  0
  8 10  1  0
  9  8  1  0
 10 12  1  0
 10 11  1  0
 12 11  1  0
 13 16  1  0
 13 15  1  0
 14 13  1  0
  1 17  1  6
  2 18  1  0
  2 19  1  0
  3 20  1  6
  4 21  1  0
  6 22  1  0
 10 23  1  0
 11 24  1  0
 11 25  1  0
 12 26  1  0
 12 27  1  0
M  ISO  8  17  13  18  13  19  13  20  13  21  14  22  14  23  13  24  13
M  ISO  3  25  13  26  13  27  13
M  END
>  <minimizedAffinity>  (1) 
-4.77934504

>  <minimizedRMSD>  (1) 
0.904953837

$$$$
