
     RDKit          3D

 21 22  0  0  1  0  0  0  0  0999 V2000
   46.1310   32.6040   45.6900 C   0  0  1  0  0  0  0  0  0  0  0  0
   47.0280   32.6900   46.8860 C   0  0  0  0  0  0  0  0  0  0  0  0
   45.5340   32.3160   47.0010 C   0  0  2  0  0  0  0  0  0  0  0  0
   44.5480   35.8550   44.8730 C   0  0  0  0  0  0  0  0  0  0  0  0
   45.0670   36.1160   43.5550 C   0  0  0  0  0  0  0  0  0  0  0  0
   45.9630   35.1450   43.0050 C   0  0  0  0  0  0  0  0  0  0  0  0
   46.2810   34.0540   43.7130 N   0  0  0  0  0  0  0  0  0  0  0  0
   45.7610   33.8500   44.9630 C   0  0  0  0  0  0  0  0  0  0  0  0
   44.9070   34.7430   45.5300 N   0  0  0  0  0  0  0  0  0  0  0  0
   45.2550   30.9970   47.4550 N   0  0  0  0  0  0  0  0  0  0  0  0
   44.9950   30.7870   48.8530 C   0  0  0  0  0  0  0  0  0  0  0  0
   45.2660   31.6470   49.7370 O   0  0  0  0  0  0  0  0  0  0  0  0
   46.1751   32.0524   44.7393 H   0  0  0  0  0  0  0  0  0  0  0  0
   47.8059   31.9306   47.0535 H   0  0  0  0  0  0  0  0  0  0  0  0
   47.6888   33.4515   47.3259 H   0  0  0  0  0  0  0  0  0  0  0  0
   44.6283   32.6921   47.4992 H   0  0  0  0  0  0  0  0  0  0  0  0
   43.8555   36.5698   45.3415 H   0  0  0  0  0  0  0  0  0  0  0  0
   44.7872   37.0212   42.9962 H   0  0  0  0  0  0  0  0  0  0  0  0
   46.3897   35.2948   42.0023 H   0  0  0  0  0  0  0  0  0  0  0  0
   45.2396   30.2071   46.7942 H   0  0  0  0  0  0  0  0  0  0  0  0
   44.5402   29.8357   49.1664 H   0  0  0  0  0  0  0  0  0  0  0  0
  1  2  1  0
  1  3  1  0
  2  3  1  0
  3 10  1  0
  4  9  2  0
  5  4  1  0
  6  5  2  0
  6  7  1  0
  7  8  2  0
  8  9  1  0
  8  1  1  0
 10 11  1  0
 11 12  2  0
  1 13  1  6
  2 14  1  0
  2 15  1  0
  3 16  1  1
  4 17  1  0
  5 18  1  0
  6 19  1  0
 10 20  1  0
 11 21  1  0
M  ISO  8  13  13  14  13  15  13  16  13  17  14  18  14  19  14  21   6
M  END
>  <minimizedAffinity>  (1) 
-4.22428799

>  <minimizedRMSD>  (1) 
0.805712461

$$$$
