
     RDKit          3D

 30 32  0  0  1  0  0  0  0  0999 V2000
   45.8740   33.6790   43.1460 C   0  0  0  0  0  0  0  0  0  0  0  0
   47.0450   33.0200   42.6140 C   0  0  0  0  0  0  0  0  0  0  0  0
   47.7830   32.2710   43.4920 C   0  0  0  0  0  0  0  0  0  0  0  0
   47.4000   32.1780   44.7900 N   0  0  0  0  0  0  0  0  0  0  0  0
   46.2950   32.8090   45.2570 C   0  0  0  0  0  0  0  0  0  0  0  0
   45.5420   33.5570   44.4230 N   0  0  0  0  0  0  0  0  0  0  0  0
   47.4260   33.1670   41.1970 C   0  0  1  0  0  0  0  0  0  0  0  0
   46.8530   34.1670   40.3510 C   0  0  0  0  0  0  0  0  0  0  0  0
   48.2340   34.4200   40.8010 C   0  0  1  0  0  0  0  0  0  0  0  0
   48.5900   35.4360   41.8150 C   0  0  0  0  0  0  0  0  0  0  0  0
   49.3240   36.4760   41.2720 F   0  0  0  0  0  0  0  0  0  0  0  0
   49.3110   34.8780   42.8740 F   0  0  0  0  0  0  0  0  0  0  0  0
   47.4190   35.9750   42.2890 F   0  0  0  0  0  0  0  0  0  0  0  0
   45.9440   32.6500   46.6980 C   0  0  2  0  0  0  0  0  0  0  0  0
   47.1580   32.5850   47.6030 C   0  0  0  0  0  0  0  0  0  0  0  0
   46.2830   31.3820   47.4070 C   0  0  1  0  0  0  0  0  0  0  0  0
   45.2830   30.9770   48.4700 C   0  0  0  0  0  0  0  0  0  0  0  0
   44.2060   31.8470   48.3750 F   0  0  0  0  0  0  0  0  0  0  0  0
   44.7600   29.7150   48.2490 F   0  0  0  0  0  0  0  0  0  0  0  0
   45.8440   31.0220   49.7360 F   0  0  0  0  0  0  0  0  0  0  0  0
   45.2483   34.2916   42.4802 H   0  0  0  0  0  0  0  0  0  0  0  0
   48.6850   31.7457   43.1449 H   0  0  0  0  0  0  0  0  0  0  0  0
   47.5306   32.0754   41.1101 H   0  0  0  0  0  0  0  0  0  0  0  0
   46.0374   34.7959   40.7374 H   0  0  0  0  0  0  0  0  0  0  0  0
   46.3793   34.1321   39.3589 H   0  0  0  0  0  0  0  0  0  0  0  0
   49.1871   34.6520   40.3032 H   0  0  0  0  0  0  0  0  0  0  0  0
   45.0124   33.2297   46.6196 H   0  0  0  0  0  0  0  0  0  0  0  0
   48.1697   32.6078   47.1718 H   0  0  0  0  0  0  0  0  0  0  0  0
   47.5179   33.1571   48.4708 H   0  0  0  0  0  0  0  0  0  0  0  0
   46.5120   30.3402   47.1382 H   0  0  0  0  0  0  0  0  0  0  0  0
  1  6  2  0
  2  1  1  0
  2  3  2  0
  3  4  1  0
  4  5  2  0
  5 14  1  0
  6  5  1  0
  7  2  1  0
  8  9  1  0
  8  7  1  0
  9  7  1  0
  9 10  1  0
 10 13  1  0
 10 12  1  0
 11 10  1  0
 14 16  1  0
 14 15  1  0
 16 15  1  0
 16 17  1  0
 17 20  1  0
 18 17  1  0
 19 17  1  0
  1 21  1  0
  3 22  1  0
  7 23  1  6
  8 24  1  0
  8 25  1  0
  9 26  1  6
 14 27  1  1
 15 28  1  0
 15 29  1  0
 16 30  1  6
M  ISO  8  21  14  22  14  23  13  24  13  25  13  26  13  27  13  28  13
M  ISO  2  29  13  30  13
M  END
>  <minimizedAffinity>  (1) 
-5.80595922

>  <minimizedRMSD>  (1) 
0.609160304

$$$$
