
     RDKit          3D

 33 35  0  0  1  0  0  0  0  0999 V2000
   46.7060   32.6920   42.5550 C   0  0  0  0  0  0  0  0  0  0  0  0
   47.9070   32.5080   41.7720 C   0  0  0  0  0  0  0  0  0  0  0  0
   48.8730   31.6940   42.2990 C   0  0  0  0  0  0  0  0  0  0  0  0
   48.6830   31.1020   43.5020 N   0  0  0  0  0  0  0  0  0  0  0  0
   47.5440   31.2950   44.2120 C   0  0  0  0  0  0  0  0  0  0  0  0
   46.5570   32.0930   43.7330 N   0  0  0  0  0  0  0  0  0  0  0  0
   48.0820   33.1910   40.4700 C   0  0  1  0  0  0  0  0  0  0  0  0
   47.1930   34.2230   40.0320 C   0  0  0  0  0  0  0  0  0  0  0  0
   48.5180   34.6700   40.4970 C   0  0  1  0  0  0  0  0  0  0  0  0
   48.7480   35.3660   41.7830 C   0  0  0  0  0  0  0  0  0  0  0  0
   49.3280   36.6100   41.6020 F   0  0  0  0  0  0  0  0  0  0  0  0
   49.5450   34.6120   42.6500 F   0  0  0  0  0  0  0  0  0  0  0  0
   47.5180   35.5820   42.3550 F   0  0  0  0  0  0  0  0  0  0  0  0
   47.4100   30.6190   45.5250 C   0  0  2  0  0  0  0  0  0  0  0  0
   46.6280   29.3230   45.4680 C   0  0  0  0  0  0  0  0  0  0  0  0
   46.0710   30.5030   46.1740 C   0  0  1  0  0  0  0  0  0  0  0  0
   46.1040   30.6970   47.5200 O   0  0  0  0  0  0  0  0  0  0  0  0
   45.0020   33.1280   47.4330 O   0  0  0  0  0  0  0  0  0  0  0  0
   46.0420   32.2600   48.0490 P   0  0  0  0  0  0  0  0  0  0  0  0
   47.5380   33.0560   47.9220 O   0  0  0  0  0  0  0  0  0  0  0  0
   45.6780   32.2010   49.7200 O   0  0  0  0  0  0  0  0  0  0  0  0
   45.9027   33.3376   42.1705 H   0  0  0  0  0  0  0  0  0  0  0  0
   49.8065   31.5202   41.7436 H   0  0  0  0  0  0  0  0  0  0  0  0
   48.4335   32.2530   40.0155 H   0  0  0  0  0  0  0  0  0  0  0  0
   46.9432   34.3006   38.9636 H   0  0  0  0  0  0  0  0  0  0  0  0
   46.1651   34.4991   40.3099 H   0  0  0  0  0  0  0  0  0  0  0  0
   49.3228   35.2911   40.0769 H   0  0  0  0  0  0  0  0  0  0  0  0
   48.3875   30.9717   45.8857 H   0  0  0  0  0  0  0  0  0  0  0  0
   46.1840   28.9888   44.5187 H   0  0  0  0  0  0  0  0  0  0  0  0
   46.8321   28.2767   45.7395 H   0  0  0  0  0  0  0  0  0  0  0  0
   45.0670   30.9482   46.1130 H   0  0  0  0  0  0  0  0  0  0  0  0
   47.8901   33.2433   48.8281 H   0  0  0  0  0  0  0  0  0  0  0  0
   46.5075   32.3355   50.2434 H   0  0  0  0  0  0  0  0  0  0  0  0
  1  6  2  0
  2  3  2  0
  2  1  1  0
  3  4  1  0
  4  5  2  0
  5 14  1  0
  6  5  1  0
  7  9  1  0
  7  2  1  0
  8  7  1  0
  8  9  1  0
  9 10  1  0
 10 13  1  0
 10 12  1  0
 11 10  1  0
 14 16  1  0
 15 14  1  0
 15 16  1  0
 16 17  1  0
 17 19  1  0
 18 19  2  0
 19 21  1  0
 20 19  1  0
  1 22  1  0
  3 23  1  0
  7 24  1  6
  8 25  1  0
  8 26  1  0
  9 27  1  6
 14 28  1  1
 15 29  1  0
 15 30  1  0
 16 31  1  6
 20 32  1  0
 21 33  1  0
M  ISO  8  22  14  23  14  24  13  25  13  26  13  27  13  28  13  29  13
M  ISO  4  30  13  31  13  32   3  33   3
M  END
>  <minimizedAffinity>  (1) 
-5.50125647

>  <minimizedRMSD>  (1) 
2.05890536

$$$$
