
     RDKit          3D

 41 44  0  0  1  0  0  0  0  0999 V2000
   46.2180   33.2340   42.4300 C   0  0  0  0  0  0  0  0  0  0  0  0
   47.5710   32.9060   42.0410 C   0  0  0  0  0  0  0  0  0  0  0  0
   48.3380   32.2320   42.9540 C   0  0  0  0  0  0  0  0  0  0  0  0
   47.8090   31.9070   44.1600 N   0  0  0  0  0  0  0  0  0  0  0  0
   46.5360   32.2290   44.4960 C   0  0  0  0  0  0  0  0  0  0  0  0
   45.7580   32.8900   43.6200 N   0  0  0  0  0  0  0  0  0  0  0  0
   48.1170   33.2930   40.7120 C   0  0  1  0  0  0  0  0  0  0  0  0
   47.5030   34.3150   39.9220 C   0  0  0  0  0  0  0  0  0  0  0  0
   48.7590   34.6900   40.5950 C   0  0  1  0  0  0  0  0  0  0  0  0
   48.8290   35.5900   41.7640 C   0  0  0  0  0  0  0  0  0  0  0  0
   49.4300   36.7980   41.4530 F   0  0  0  0  0  0  0  0  0  0  0  0
   49.5150   35.0010   42.8270 F   0  0  0  0  0  0  0  0  0  0  0  0
   47.5390   35.8740   42.1450 F   0  0  0  0  0  0  0  0  0  0  0  0
   46.0400   31.8210   45.8450 C   0  0  2  0  0  0  0  0  0  0  0  0
   45.8270   32.9970   46.7820 C   0  0  0  0  0  0  0  0  0  0  0  0
   46.9090   31.9960   47.0440 C   0  0  1  0  0  0  0  0  0  0  0  0
   46.7180   30.9210   48.1040 C   0  0  0  0  0  0  0  0  0  0  0  0
   45.2990   30.4710   48.2310 C   0  0  0  0  0  0  0  0  0  0  0  0
   44.9610   29.2930   47.3580 C   0  0  0  0  0  0  0  0  0  0  0  0
   45.8080   28.2470   47.7690 O   0  0  0  0  0  0  0  0  0  0  0  0
   47.0710   28.5650   47.2760 C   0  0  0  0  0  0  0  0  0  0  0  0
   47.6630   29.7660   47.9500 C   0  0  0  0  0  0  0  0  0  0  0  0
   45.5654   33.7749   41.7290 H   0  0  0  0  0  0  0  0  0  0  0  0
   49.3749   31.9564   42.7111 H   0  0  0  0  0  0  0  0  0  0  0  0
   48.4077   32.2517   40.5092 H   0  0  0  0  0  0  0  0  0  0  0  0
   46.5566   34.7616   40.2610 H   0  0  0  0  0  0  0  0  0  0  0  0
   47.1681   34.3579   38.8751 H   0  0  0  0  0  0  0  0  0  0  0  0
   49.7176   35.1226   40.2727 H   0  0  0  0  0  0  0  0  0  0  0  0
   45.4689   30.9621   45.4629 H   0  0  0  0  0  0  0  0  0  0  0  0
   46.0844   34.0158   46.4566 H   0  0  0  0  0  0  0  0  0  0  0  0
   44.9769   33.3975   47.3537 H   0  0  0  0  0  0  0  0  0  0  0  0
   47.9821   32.1124   47.2559 H   0  0  0  0  0  0  0  0  0  0  0  0
   46.9771   31.4071   49.0561 H   0  0  0  0  0  0  0  0  0  0  0  0
   45.1151   30.1916   49.2789 H   0  0  0  0  0  0  0  0  0  0  0  0
   44.6644   31.3079   47.9041 H   0  0  0  0  0  0  0  0  0  0  0  0
   45.1413   29.5372   46.3007 H   0  0  0  0  0  0  0  0  0  0  0  0
   43.9015   29.0131   47.4531 H   0  0  0  0  0  0  0  0  0  0  0  0
   47.7389   27.7056   47.4355 H   0  0  0  0  0  0  0  0  0  0  0  0
   46.9637   28.7999   46.2067 H   0  0  0  0  0  0  0  0  0  0  0  0
   48.0039   29.4649   48.9516 H   0  0  0  0  0  0  0  0  0  0  0  0
   48.4821   30.1155   47.3043 H   0  0  0  0  0  0  0  0  0  0  0  0
  1  6  2  0
  2  1  1  0
  2  3  2  0
  3  4  1  0
  4  5  2  0
  5 14  1  0
  6  5  1  0
  7  2  1  0
  8  9  1  0
  8  7  1  0
  9  7  1  0
  9 10  1  0
 10 13  1  0
 10 12  1  0
 11 10  1  0
 14 15  1  0
 14 16  1  0
 15 16  1  0
 16 17  1  0
 17 18  1  0
 19 20  1  0
 19 18  1  0
 21 20  1  0
 21 22  1  0
 22 17  1  0
  1 23  1  0
  3 24  1  0
  7 25  1  6
  8 26  1  0
  8 27  1  0
  9 28  1  6
 14 29  1  6
 15 30  1  0
 15 31  1  0
 16 32  1  6
 17 33  1  0
 18 34  1  0
 18 35  1  0
 19 36  1  0
 19 37  1  0
 21 38  1  0
 21 39  1  0
 22 40  1  0
 22 41  1  0
M  ISO  8  23  14  24  14  25  13  26  13  27  13  28  13  29  13  30  13
M  ISO  8  31  13  32  13  33  13  34  13  35  13  36  13  37  13  38  13
M  ISO  3  39  13  40  13  41  13
M  END
>  <minimizedAffinity>  (1) 
-5.44232512

>  <minimizedRMSD>  (1) 
1.63145494

$$$$
