
     RDKit          3D

 37 40  0  0  1  0  0  0  0  0999 V2000
   45.4930   33.5530   43.9180 C   0  0  0  0  0  0  0  0  0  0  0  0
   46.5470   32.8720   43.2220 C   0  0  0  0  0  0  0  0  0  0  0  0
   47.4670   32.1980   43.9810 C   0  0  0  0  0  0  0  0  0  0  0  0
   47.3510   32.1980   45.3300 N   0  0  0  0  0  0  0  0  0  0  0  0
   46.3430   32.8510   45.9590 C   0  0  0  0  0  0  0  0  0  0  0  0
   45.4260   33.5210   45.2400 N   0  0  0  0  0  0  0  0  0  0  0  0
   46.6450   32.9110   41.7410 C   0  0  1  0  0  0  0  0  0  0  0  0
   45.9500   33.8910   40.9610 C   0  0  0  0  0  0  0  0  0  0  0  0
   47.4030   34.0920   41.1080 C   0  0  1  0  0  0  0  0  0  0  0  0
   48.0070   35.1420   41.9590 C   0  0  0  0  0  0  0  0  0  0  0  0
   48.7670   36.0330   41.2240 F   0  0  0  0  0  0  0  0  0  0  0  0
   48.8030   34.5930   42.9630 F   0  0  0  0  0  0  0  0  0  0  0  0
   46.9770   35.8580   42.5190 F   0  0  0  0  0  0  0  0  0  0  0  0
   46.2890   32.7960   47.4470 C   0  0  2  0  0  0  0  0  0  0  0  0
   47.5970   32.3480   48.0790 C   0  0  0  0  0  0  0  0  0  0  0  0
   46.3980   31.4890   48.1550 C   0  0  2  0  0  0  0  0  0  0  0  0
   48.7570   29.5820   47.3100 Cl  0  0  0  0  0  0  0  0  0  0  0  0
   47.0860   29.2620   46.9420 C   0  0  0  0  0  0  0  0  0  0  0  0
   46.2300   30.2290   47.4210 C   0  0  0  0  0  0  0  0  0  0  0  0
   44.8650   30.0270   47.1680 C   0  0  0  0  0  0  0  0  0  0  0  0
   44.4050   28.9050   46.4680 C   0  0  0  0  0  0  0  0  0  0  0  0
   45.2970   27.9620   46.0060 C   0  0  0  0  0  0  0  0  0  0  0  0
   44.8370   26.5220   45.1210 Cl  0  0  0  0  0  0  0  0  0  0  0  0
   46.6390   28.1580   46.2530 C   0  0  0  0  0  0  0  0  0  0  0  0
   44.7331   34.1072   43.3476 H   0  0  0  0  0  0  0  0  0  0  0  0
   48.2954   31.6598   43.4972 H   0  0  0  0  0  0  0  0  0  0  0  0
   46.6903   31.8124   41.7088 H   0  0  0  0  0  0  0  0  0  0  0  0
   45.2570   34.5843   41.4601 H   0  0  0  0  0  0  0  0  0  0  0  0
   45.2824   33.8256   40.0892 H   0  0  0  0  0  0  0  0  0  0  0  0
   48.2420   34.2443   40.4131 H   0  0  0  0  0  0  0  0  0  0  0  0
   45.5762   33.6300   47.5263 H   0  0  0  0  0  0  0  0  0  0  0  0
   48.4449   32.0555   47.4422 H   0  0  0  0  0  0  0  0  0  0  0  0
   48.2968   32.7772   48.8112 H   0  0  0  0  0  0  0  0  0  0  0  0
   45.8867   30.9974   48.9958 H   0  0  0  0  0  0  0  0  0  0  0  0
   44.1375   30.7690   47.5288 H   0  0  0  0  0  0  0  0  0  0  0  0
   43.3278   28.7760   46.2863 H   0  0  0  0  0  0  0  0  0  0  0  0
   47.3672   27.4168   45.8920 H   0  0  0  0  0  0  0  0  0  0  0  0
  1  6  2  0
  2  1  1  0
  2  3  2  0
  3  4  1  0
  4  5  2  0
  5 14  1  0
  6  5  1  0
  7  2  1  0
  8  9  1  0
  8  7  1  0
  9  7  1  0
  9 10  1  0
 10 13  1  0
 10 12  1  0
 11 10  1  0
 14 15  1  0
 14 16  1  0
 15 16  1  0
 18 17  1  0
 18 19  2  0
 19 16  1  0
 20 19  1  0
 21 20  2  0
 22 24  2  0
 22 21  1  0
 23 22  1  0
 24 18  1  0
  1 25  1  0
  3 26  1  0
  7 27  1  6
  8 28  1  0
  8 29  1  0
  9 30  1  6
 14 31  1  1
 15 32  1  0
 15 33  1  0
 16 34  1  1
 20 35  1  0
 21 36  1  0
 24 37  1  0
M  ISO  8  25  14  26  14  27  13  28  13  29  13  30  13  31  13  32  13
M  ISO  5  33  13  34  13  35  14  36  14  37  14
M  END
>  <minimizedAffinity>  (1) 
-5.40066338

>  <minimizedRMSD>  (1) 
1.37450051

$$$$
