
     RDKit          3D

 33 35  0  0  1  0  0  0  0  0999 V2000
   45.8630   33.7560   42.9280 C   0  0  0  0  0  0  0  0  0  0  0  0
   47.0850   33.1290   42.4910 C   0  0  0  0  0  0  0  0  0  0  0  0
   47.8270   32.4770   43.4400 C   0  0  0  0  0  0  0  0  0  0  0  0
   47.3980   32.4440   44.7250 N   0  0  0  0  0  0  0  0  0  0  0  0
   46.2430   33.0440   45.1040 C   0  0  0  0  0  0  0  0  0  0  0  0
   45.4880   33.6940   44.1950 N   0  0  0  0  0  0  0  0  0  0  0  0
   47.5310   33.2020   41.0790 C   0  0  1  0  0  0  0  0  0  0  0  0
   47.0080   34.1740   40.1680 C   0  0  0  0  0  0  0  0  0  0  0  0
   48.3750   34.4210   40.6600 C   0  0  1  0  0  0  0  0  0  0  0  0
   48.7130   35.4760   41.6430 C   0  0  0  0  0  0  0  0  0  0  0  0
   49.3660   36.5430   41.0520 F   0  0  0  0  0  0  0  0  0  0  0  0
   49.5070   34.9760   42.6810 F   0  0  0  0  0  0  0  0  0  0  0  0
   47.5350   35.9560   42.1550 F   0  0  0  0  0  0  0  0  0  0  0  0
   45.8410   32.9580   46.5410 C   0  0  2  0  0  0  0  0  0  0  0  0
   46.9740   32.5080   47.4450 C   0  0  0  0  0  0  0  0  0  0  0  0
   45.7820   31.6260   47.2090 C   0  0  1  0  0  0  0  0  0  0  0  0
   44.7600   31.4860   48.3050 C   0  0  0  0  0  0  0  0  0  0  0  0
   45.4550   31.2270   49.6460 C   0  0  0  0  0  0  0  0  0  0  0  0
   45.2357   34.2917   42.2003 H   0  0  0  0  0  0  0  0  0  0  0  0
   48.7683   31.9816   43.1598 H   0  0  0  0  0  0  0  0  0  0  0  0
   47.6223   32.1063   41.0451 H   0  0  0  0  0  0  0  0  0  0  0  0
   46.1907   34.8335   40.4950 H   0  0  0  0  0  0  0  0  0  0  0  0
   46.5711   34.1041   39.1609 H   0  0  0  0  0  0  0  0  0  0  0  0
   49.3504   34.6137   40.1894 H   0  0  0  0  0  0  0  0  0  0  0  0
   45.1239   33.7899   46.4806 H   0  0  0  0  0  0  0  0  0  0  0  0
   47.9511   32.2425   47.0152 H   0  0  0  0  0  0  0  0  0  0  0  0
   47.4792   32.9204   48.3309 H   0  0  0  0  0  0  0  0  0  0  0  0
   45.6659   30.5828   46.8801 H   0  0  0  0  0  0  0  0  0  0  0  0
   44.1715   32.4128   48.3737 H   0  0  0  0  0  0  0  0  0  0  0  0
   44.0989   30.6379   48.0734 H   0  0  0  0  0  0  0  0  0  0  0  0
   44.7709   31.4819   50.4688 H   0  0  0  0  0  0  0  0  0  0  0  0
   45.7329   30.1650   49.7159 H   0  0  0  0  0  0  0  0  0  0  0  0
   46.3601   31.8482   49.7159 H   0  0  0  0  0  0  0  0  0  0  0  0
  1  6  2  0
  2  1  1  0
  2  3  2  0
  3  4  1  0
  4  5  2  0
  5 14  1  0
  6  5  1  0
  7  2  1  0
  8  9  1  0
  8  7  1  0
  9  7  1  0
  9 10  1  0
 10 13  1  0
 10 12  1  0
 11 10  1  0
 14 16  1  0
 14 15  1  0
 16 15  1  0
 16 17  1  0
 17 18  1  0
  1 19  1  0
  3 20  1  0
  7 21  1  6
  8 22  1  0
  8 23  1  0
  9 24  1  6
 14 25  1  1
 15 26  1  0
 15 27  1  0
 16 28  1  6
 17 29  1  0
 17 30  1  0
 18 31  1  0
 18 32  1  0
 18 33  1  0
M  ISO  8  19  14  20  14  21  13  22  13  23  13  24  13  25  13  26  13
M  ISO  7  27  13  28  13  29   8  30   8  31   8  32   8  33   8
M  END
>  <minimizedAffinity>  (1) 
-5.3926115

>  <minimizedRMSD>  (1) 
0.0968294293

$$$$
