
     RDKit          3D

 34 37  0  0  1  0  0  0  0  0999 V2000
   45.5840   33.6330   43.2530 C   0  0  0  0  0  0  0  0  0  0  0  0
   46.8010   33.0650   42.7180 C   0  0  0  0  0  0  0  0  0  0  0  0
   47.7000   32.5560   43.6170 C   0  0  0  0  0  0  0  0  0  0  0  0
   47.4260   32.6010   44.9430 N   0  0  0  0  0  0  0  0  0  0  0  0
   46.2800   33.1390   45.4140 C   0  0  0  0  0  0  0  0  0  0  0  0
   45.3640   33.6540   44.5580 N   0  0  0  0  0  0  0  0  0  0  0  0
   47.0750   33.0470   41.2560 C   0  0  1  0  0  0  0  0  0  0  0  0
   46.4950   34.0140   40.3750 C   0  0  0  0  0  0  0  0  0  0  0  0
   47.9260   34.1970   40.6840 C   0  0  1  0  0  0  0  0  0  0  0  0
   48.4450   35.2640   41.5660 C   0  0  0  0  0  0  0  0  0  0  0  0
   49.1070   36.2470   40.8500 F   0  0  0  0  0  0  0  0  0  0  0  0
   49.3070   34.7530   42.5400 F   0  0  0  0  0  0  0  0  0  0  0  0
   47.3670   35.8620   42.1690 F   0  0  0  0  0  0  0  0  0  0  0  0
   46.0530   33.1520   46.8880 C   0  0  2  0  0  0  0  0  0  0  0  0
   47.1490   32.4240   47.6540 C   0  0  0  0  0  0  0  0  0  0  0  0
   45.7510   31.8910   47.6120 C   0  0  2  0  0  0  0  0  0  0  0  0
   45.4040   30.6460   46.9260 C   0  0  0  0  0  0  0  0  0  0  0  0
   44.9460   29.5130   47.6090 C   0  0  0  0  0  0  0  0  0  0  0  0
   44.6970   28.4860   46.7080 C   0  0  0  0  0  0  0  0  0  0  0  0
   45.0200   29.0540   45.4940 C   0  0  0  0  0  0  0  0  0  0  0  0
   45.4210   30.2900   45.6630 O   0  0  0  0  0  0  0  0  0  0  0  0
   44.8325   34.0524   42.5679 H   0  0  0  0  0  0  0  0  0  0  0  0
   48.6421   32.1118   43.2634 H   0  0  0  0  0  0  0  0  0  0  0  0
   47.1035   31.9474   41.2591 H   0  0  0  0  0  0  0  0  0  0  0  0
   45.7623   34.7325   40.7712 H   0  0  0  0  0  0  0  0  0  0  0  0
   45.9318   33.9335   39.4336 H   0  0  0  0  0  0  0  0  0  0  0  0
   48.8441   34.3136   40.0895 H   0  0  0  0  0  0  0  0  0  0  0  0
   45.5606   34.1357   46.8863 H   0  0  0  0  0  0  0  0  0  0  0  0
   47.9541   31.9079   47.1105 H   0  0  0  0  0  0  0  0  0  0  0  0
   47.8623   32.6926   48.4472 H   0  0  0  0  0  0  0  0  0  0  0  0
   45.0124   31.6003   48.3736 H   0  0  0  0  0  0  0  0  0  0  0  0
   44.8044   29.4462   48.6978 H   0  0  0  0  0  0  0  0  0  0  0  0
   44.3317   27.4688   46.9127 H   0  0  0  0  0  0  0  0  0  0  0  0
   44.9510   28.5427   44.5225 H   0  0  0  0  0  0  0  0  0  0  0  0
  1  6  2  0
  2  1  1  0
  2  3  2  0
  3  4  1  0
  4  5  2  0
  5 14  1  0
  6  5  1  0
  7  2  1  0
  8  9  1  0
  8  7  1  0
  9  7  1  0
  9 10  1  0
 10 13  1  0
 10 12  1  0
 11 10  1  0
 14 16  1  0
 14 15  1  0
 16 15  1  0
 17 18  2  0
 17 16  1  0
 19 18  1  0
 20 21  1  0
 20 19  2  0
 21 17  1  0
  1 22  1  0
  3 23  1  0
  7 24  1  6
  8 25  1  0
  8 26  1  0
  9 27  1  6
 14 28  1  1
 15 29  1  0
 15 30  1  0
 16 31  1  1
 18 32  1  0
 19 33  1  0
 20 34  1  0
M  ISO  8  22  14  23  14  24  13  25  13  26  13  27  13  28  13  29  13
M  ISO  5  30  13  31  13  32  14  33  14  34  14
M  END
>  <minimizedAffinity>  (1) 
-5.3799324

>  <minimizedRMSD>  (1) 
0.549891651

$$$$
