
     RDKit          3D

 34 37  0  0  1  0  0  0  0  0999 V2000
   45.6870   33.5190   43.0720 C   0  0  0  0  0  0  0  0  0  0  0  0
   46.9730   33.0410   42.6250 C   0  0  0  0  0  0  0  0  0  0  0  0
   47.8060   32.5300   43.5870 C   0  0  0  0  0  0  0  0  0  0  0  0
   47.3790   32.5070   44.8780 N   0  0  0  0  0  0  0  0  0  0  0  0
   46.1860   32.9560   45.2640 C   0  0  0  0  0  0  0  0  0  0  0  0
   45.3430   33.4630   44.3480 N   0  0  0  0  0  0  0  0  0  0  0  0
   47.3780   33.1120   41.2030 C   0  0  1  0  0  0  0  0  0  0  0  0
   46.8130   34.0770   40.3080 C   0  0  0  0  0  0  0  0  0  0  0  0
   48.1900   34.3450   40.7610 C   0  0  1  0  0  0  0  0  0  0  0  0
   48.5440   35.4050   41.7320 C   0  0  0  0  0  0  0  0  0  0  0  0
   49.2220   36.4500   41.1290 F   0  0  0  0  0  0  0  0  0  0  0  0
   49.3210   34.9060   42.7760 F   0  0  0  0  0  0  0  0  0  0  0  0
   47.3690   35.9180   42.2270 F   0  0  0  0  0  0  0  0  0  0  0  0
   45.8380   32.8660   46.7000 C   0  0  2  0  0  0  0  0  0  0  0  0
   46.9960   32.4850   47.5980 C   0  0  0  0  0  0  0  0  0  0  0  0
   45.8410   31.5810   47.4270 C   0  0  2  0  0  0  0  0  0  0  0  0
   45.8850   30.3500   46.7120 C   0  0  0  0  0  0  0  0  0  0  0  0
   44.8040   29.6610   46.1170 C   0  0  0  0  0  0  0  0  0  0  0  0
   45.0390   28.4740   45.4980 C   0  0  0  0  0  0  0  0  0  0  0  0
   46.4010   27.9490   45.4670 C   0  0  0  0  0  0  0  0  0  0  0  0
   47.3340   29.2990   46.4050 S   0  0  0  0  0  0  0  0  0  0  0  0
   44.9809   33.9370   42.3394 H   0  0  0  0  0  0  0  0  0  0  0  0
   48.8013   32.1457   43.3194 H   0  0  0  0  0  0  0  0  0  0  0  0
   47.4863   32.0180   41.1654 H   0  0  0  0  0  0  0  0  0  0  0  0
   45.9951   34.7233   40.6593 H   0  0  0  0  0  0  0  0  0  0  0  0
   46.3483   34.0011   39.3139 H   0  0  0  0  0  0  0  0  0  0  0  0
   49.1482   34.5535   40.2627 H   0  0  0  0  0  0  0  0  0  0  0  0
   45.0852   33.6633   46.6133 H   0  0  0  0  0  0  0  0  0  0  0  0
   47.9712   32.2240   47.1611 H   0  0  0  0  0  0  0  0  0  0  0  0
   47.5075   32.9481   48.4547 H   0  0  0  0  0  0  0  0  0  0  0  0
   45.1782   31.0758   48.1450 H   0  0  0  0  0  0  0  0  0  0  0  0
   43.7873   30.0793   46.1543 H   0  0  0  0  0  0  0  0  0  0  0  0
   44.2153   27.9172   45.0274 H   0  0  0  0  0  0  0  0  0  0  0  0
   46.7814   27.0192   45.0189 H   0  0  0  0  0  0  0  0  0  0  0  0
  1  6  2  0
  2  1  1  0
  2  3  2  0
  3  4  1  0
  4  5  2  0
  5 14  1  0
  6  5  1  0
  7  2  1  0
  8  9  1  0
  8  7  1  0
  9  7  1  0
  9 10  1  0
 10 13  1  0
 10 12  1  0
 11 10  1  0
 14 16  1  0
 14 15  1  0
 16 15  1  0
 17 16  1  0
 18 17  2  0
 19 18  1  0
 20 19  2  0
 20 21  1  0
 21 17  1  0
  1 22  1  0
  3 23  1  0
  7 24  1  6
  8 25  1  0
  8 26  1  0
  9 27  1  6
 14 28  1  1
 15 29  1  0
 15 30  1  0
 16 31  1  1
 18 32  1  0
 19 33  1  0
 20 34  1  0
M  ISO  8  22  14  23  14  24  13  25  13  26  13  27  13  28  13  29  13
M  ISO  5  30  13  31  13  32  14  33  14  34  14
M  END
>  <minimizedAffinity>  (1) 
-5.10691404

>  <minimizedRMSD>  (1) 
0.212778509

$$$$
