
     RDKit          3D

 25 26  0  0  1  0  0  0  0  0999 V2000
   46.1660   32.6810   45.4220 C   0  0  1  0  0  0  0  0  0  0  0  0
   47.1110   32.7250   46.5840 C   0  0  0  0  0  0  0  0  0  0  0  0
   45.6170   32.3680   46.7490 C   0  0  2  0  0  0  0  0  0  0  0  0
   44.5250   35.9350   44.7280 C   0  0  0  0  0  0  0  0  0  0  0  0
   45.0350   36.2670   43.4470 C   0  0  0  0  0  0  0  0  0  0  0  0
   45.9480   35.3440   42.8620 C   0  0  0  0  0  0  0  0  0  0  0  0
   46.2930   34.2230   43.5110 N   0  0  0  0  0  0  0  0  0  0  0  0
   45.7690   33.9500   44.7510 C   0  0  0  0  0  0  0  0  0  0  0  0
   44.8900   34.8120   45.3440 N   0  0  0  0  0  0  0  0  0  0  0  0
   45.3570   31.0380   47.2000 N   0  0  0  0  0  0  0  0  0  0  0  0
   44.5930   31.1140   48.4290 C   0  0  0  0  0  0  0  0  0  0  0  0
   45.4600   31.4740   49.6110 C   0  0  0  0  0  0  0  0  0  0  0  0
   46.1734   32.1550   44.4559 H   0  0  0  0  0  0  0  0  0  0  0  0
   47.8840   31.9513   46.7018 H   0  0  0  0  0  0  0  0  0  0  0  0
   47.7994   33.4663   47.0159 H   0  0  0  0  0  0  0  0  0  0  0  0
   44.7293   32.7413   47.2807 H   0  0  0  0  0  0  0  0  0  0  0  0
   43.8161   36.6164   45.2211 H   0  0  0  0  0  0  0  0  0  0  0  0
   44.7397   37.1923   42.9306 H   0  0  0  0  0  0  0  0  0  0  0  0
   46.3737   35.5526   41.8694 H   0  0  0  0  0  0  0  0  0  0  0  0
   44.8179   30.5275   46.4861 H   0  0  0  0  0  0  0  0  0  0  0  0
   43.8117   31.8799   48.3150 H   0  0  0  0  0  0  0  0  0  0  0  0
   44.1537   30.1235   48.6184 H   0  0  0  0  0  0  0  0  0  0  0  0
   44.9206   31.2500   50.5431 H   0  0  0  0  0  0  0  0  0  0  0  0
   46.3900   30.8877   49.5756 H   0  0  0  0  0  0  0  0  0  0  0  0
   45.7012   32.5466   49.5756 H   0  0  0  0  0  0  0  0  0  0  0  0
  1  2  1  0
  1  3  1  0
  2  3  1  0
  3 10  1  0
  4  9  2  0
  5  4  1  0
  6  5  2  0
  6  7  1  0
  7  8  2  0
  8  9  1  0
  8  1  1  0
 10 11  1  0
 11 12  1  0
  1 13  1  6
  2 14  1  0
  2 15  1  0
  3 16  1  1
  4 17  1  0
  5 18  1  0
  6 19  1  0
 10 20  1  0
 11 21  1  0
 11 22  1  0
 12 23  1  0
 12 24  1  0
 12 25  1  0
M  ISO  8  13  13  14  13  15  13  16  13  17  14  18  14  19  14  20   5
M  ISO  5  21   8  22   8  23   8  24   8  25   8
M  END
>  <minimizedAffinity>  (1) 
-3.89303803

>  <minimizedRMSD>  (1) 
0.711617053

$$$$
