
     RDKit          3D

 38 41  0  0  1  0  0  0  0  0999 V2000
   45.8770   33.5230   45.7800 C   0  0  0  0  0  0  0  0  0  0  0  0
   46.6690   33.6650   44.6120 C   0  0  0  0  0  0  0  0  0  0  0  0
   47.3300   32.5050   44.1100 C   0  0  0  0  0  0  0  0  0  0  0  0
   47.1690   31.3190   44.7740 N   0  0  0  0  0  0  0  0  0  0  0  0
   46.4050   31.2460   45.8800 C   0  0  0  0  0  0  0  0  0  0  0  0
   45.7700   32.3380   46.3710 N   0  0  0  0  0  0  0  0  0  0  0  0
   46.3040   29.9880   46.4910 N   0  0  0  0  0  0  0  0  0  0  0  0
   47.4630   29.3150   46.9770 C   0  0  2  0  0  0  0  0  0  0  0  0
   47.2440   27.8940   47.3650 C   0  0  0  0  0  0  0  0  0  0  0  0
   45.9570   27.5410   47.8290 N   0  0  0  0  0  0  0  0  0  0  0  0
   45.0550   28.6300   47.9540 C   0  0  0  0  0  0  0  0  0  0  0  0
   45.0030   29.3610   46.6350 C   0  0  0  0  0  0  0  0  0  0  0  0
   48.1660   30.0980   48.0240 C   0  0  0  0  0  0  0  0  0  0  0  0
   47.7130   30.8990   49.0500 C   0  0  0  0  0  0  0  0  0  0  0  0
   48.7430   31.3980   49.7600 N   0  0  0  0  0  0  0  0  0  0  0  0
   49.8270   30.9170   49.1890 C   0  0  0  0  0  0  0  0  0  0  0  0
   49.5030   30.1440   48.1580 N   0  0  0  0  0  0  0  0  0  0  0  0
   51.1570   31.2440   49.6920 C   0  0  0  0  0  0  0  0  0  0  0  0
   52.3090   31.6190   49.1280 C   0  0  0  0  0  0  0  0  0  0  0  0
   53.3790   31.8420   49.9530 C   0  0  0  0  0  0  0  0  0  0  0  0
   53.2430   31.6800   51.3080 C   0  0  0  0  0  0  0  0  0  0  0  0
   51.4890   31.1670   51.5400 S   0  0  0  0  0  0  0  0  0  0  0  0
   45.3510   34.3946   46.1968 H   0  0  0  0  0  0  0  0  0  0  0  0
   46.7702   34.6383   44.1095 H   0  0  0  0  0  0  0  0  0  0  0  0
   47.9564   32.5624   43.2076 H   0  0  0  0  0  0  0  0  0  0  0  0
   48.1375   29.2521   46.1104 H   0  0  0  0  0  0  0  0  0  0  0  0
   47.4591   27.2734   46.4826 H   0  0  0  0  0  0  0  0  0  0  0  0
   47.9097   27.7298   48.2252 H   0  0  0  0  0  0  0  0  0  0  0  0
   45.5521   26.8626   47.1682 H   0  0  0  0  0  0  0  0  0  0  0  0
   44.0532   28.2548   48.2102 H   0  0  0  0  0  0  0  0  0  0  0  0
   45.3929   29.3105   48.7495 H   0  0  0  0  0  0  0  0  0  0  0  0
   44.2084   30.1215   46.6474 H   0  0  0  0  0  0  0  0  0  0  0  0
   44.7813   28.6815   45.7989 H   0  0  0  0  0  0  0  0  0  0  0  0
   46.6529   31.1033   49.2607 H   0  0  0  0  0  0  0  0  0  0  0  0
   48.6930   32.0235   50.5768 H   0  0  0  0  0  0  0  0  0  0  0  0
   52.3948   31.7442   48.0385 H   0  0  0  0  0  0  0  0  0  0  0  0
   54.3462   32.1506   49.5295 H   0  0  0  0  0  0  0  0  0  0  0  0
   54.0100   31.8242   52.0832 H   0  0  0  0  0  0  0  0  0  0  0  0
  1  6  2  0
  2  1  1  0
  3  2  2  0
  3  4  1  0
  4  5  2  0
  5  6  1  0
  5  7  1  0
  7 12  1  0
  7  8  1  0
  8  9  1  0
  8 13  1  0
  9 10  1  0
 10 11  1  0
 12 11  1  0
 13 17  1  0
 13 14  2  0
 14 15  1  0
 16 18  1  0
 16 15  1  0
 17 16  2  0
 18 22  1  0
 19 18  2  0
 19 20  1  0
 20 21  2  0
 21 22  1  0
  1 23  1  0
  2 24  1  0
  3 25  1  0
  8 26  1  6
  9 27  1  0
  9 28  1  0
 10 29  1  0
 11 30  1  0
 11 31  1  0
 12 32  1  0
 12 33  1  0
 14 34  1  0
 15 35  1  0
 19 36  1  0
 20 37  1  0
 21 38  1  0
M  ISO  8  23  14  24  14  25  14  26  13  27  13  28  13  29   5  30  13
M  ISO  8  31  13  32  13  33  13  34  14  35   9  36  14  37  14  38  14
M  END
>  <minimizedAffinity>  (1) 
-4.95523453

>  <minimizedRMSD>  (1) 
0.22371529

$$$$
