
     RDKit          3D

 34 36  0  0  1  0  0  0  0  0999 V2000
   45.9230   33.5120   45.8320 C   0  0  0  0  0  0  0  0  0  0  0  0
   46.6770   33.6270   44.6410 C   0  0  0  0  0  0  0  0  0  0  0  0
   47.2850   32.4450   44.1250 C   0  0  0  0  0  0  0  0  0  0  0  0
   47.1170   31.2660   44.7980 N   0  0  0  0  0  0  0  0  0  0  0  0
   46.3820   31.2220   45.9350 C   0  0  0  0  0  0  0  0  0  0  0  0
   45.7950   32.3340   46.4400 N   0  0  0  0  0  0  0  0  0  0  0  0
   46.2610   29.9770   46.5590 N   0  0  0  0  0  0  0  0  0  0  0  0
   47.4180   29.2700   47.0000 C   0  0  2  0  0  0  0  0  0  0  0  0
   47.1760   27.8540   47.3900 C   0  0  0  0  0  0  0  0  0  0  0  0
   45.8980   27.5410   47.9090 N   0  0  0  0  0  0  0  0  0  0  0  0
   45.0300   28.6510   48.0620 C   0  0  0  0  0  0  0  0  0  0  0  0
   44.9520   29.3960   46.7620 C   0  0  0  0  0  0  0  0  0  0  0  0
   48.1810   30.0310   48.0190 C   0  0  0  0  0  0  0  0  0  0  0  0
   47.7890   30.8090   49.0890 C   0  0  0  0  0  0  0  0  0  0  0  0
   48.8440   31.3030   49.7510 N   0  0  0  0  0  0  0  0  0  0  0  0
   49.9190   30.8360   49.1010 C   0  0  0  0  0  0  0  0  0  0  0  0
   49.5260   30.0840   48.0750 N   0  0  0  0  0  0  0  0  0  0  0  0
   51.3060   31.1710   49.5430 C   0  0  0  0  0  0  0  0  0  0  0  0
   45.4386   34.4023   46.2594 H   0  0  0  0  0  0  0  0  0  0  0  0
   46.7904   34.5947   44.1305 H   0  0  0  0  0  0  0  0  0  0  0  0
   47.8798   32.4806   43.2003 H   0  0  0  0  0  0  0  0  0  0  0  0
   48.0580   29.1897   46.1090 H   0  0  0  0  0  0  0  0  0  0  0  0
   47.3328   27.2321   46.4963 H   0  0  0  0  0  0  0  0  0  0  0  0
   47.8754   27.6616   48.2169 H   0  0  0  0  0  0  0  0  0  0  0  0
   45.4489   26.8688   47.2708 H   0  0  0  0  0  0  0  0  0  0  0  0
   44.0273   28.2982   48.3451 H   0  0  0  0  0  0  0  0  0  0  0  0
   45.4151   29.3170   48.8483 H   0  0  0  0  0  0  0  0  0  0  0  0
   44.1877   30.1851   46.8185 H   0  0  0  0  0  0  0  0  0  0  0  0
   44.6720   28.7311   45.9316 H   0  0  0  0  0  0  0  0  0  0  0  0
   46.7412   30.9998   49.3642 H   0  0  0  0  0  0  0  0  0  0  0  0
   48.8315   31.9116   50.5819 H   0  0  0  0  0  0  0  0  0  0  0  0
   51.3482   31.1812   50.6421 H   0  0  0  0  0  0  0  0  0  0  0  0
   52.0065   30.4162   49.1562 H   0  0  0  0  0  0  0  0  0  0  0  0
   51.5847   32.1623   49.1562 H   0  0  0  0  0  0  0  0  0  0  0  0
  1  6  2  0
  2  1  1  0
  3  2  2  0
  3  4  1  0
  4  5  2  0
  5  6  1  0
  5  7  1  0
  7 12  1  0
  7  8  1  0
  8  9  1  0
  8 13  1  0
  9 10  1  0
 10 11  1  0
 12 11  1  0
 13 17  1  0
 13 14  2  0
 14 15  1  0
 16 18  1  0
 16 15  1  0
 17 16  2  0
  1 19  1  0
  2 20  1  0
  3 21  1  0
  8 22  1  6
  9 23  1  0
  9 24  1  0
 10 25  1  0
 11 26  1  0
 11 27  1  0
 12 28  1  0
 12 29  1  0
 14 30  1  0
 15 31  1  0
 18 32  1  0
 18 33  1  0
 18 34  1  0
M  ISO  8  19  14  20  14  21  14  22  13  23  13  24  13  25   5  26  13
M  ISO  8  27  13  28  13  29  13  30  14  31   9  32   8  33   8  34   8
M  END
>  <minimizedAffinity>  (1) 
-4.44758034

>  <minimizedRMSD>  (1) 
0.035876181

$$$$
