
     RDKit          3D

 24 25  0  0  0  0  0  0  0  0999 V2000
   44.9220   35.1370   44.2000 C   0  0  0  0  0  0  0  0  0  0  0  0
   45.7010   35.3840   43.0470 C   0  0  0  0  0  0  0  0  0  0  0  0
   46.8830   34.6390   42.8760 C   0  0  0  0  0  0  0  0  0  0  0  0
   47.2010   33.7250   43.8360 N   0  0  0  0  0  0  0  0  0  0  0  0
   46.4200   33.5260   44.9210 C   0  0  0  0  0  0  0  0  0  0  0  0
   45.2920   34.2330   45.0920 N   0  0  0  0  0  0  0  0  0  0  0  0
   43.7410   35.8840   44.3700 N   0  0  0  0  0  0  0  0  0  0  0  0
   47.6570   34.9030   41.7040 C   0  0  0  0  0  0  0  0  0  0  0  0
   48.6570   35.6860   41.6840 O   0  0  0  0  0  0  0  0  0  0  0  0
   45.4120   32.9160   41.1240 Cl  0  0  0  0  0  0  0  0  0  0  0  0
   46.5480   33.4900   39.9400 C   0  0  0  0  0  0  0  0  0  0  0  0
   47.5150   34.3890   40.3390 C   0  0  0  0  0  0  0  0  0  0  0  0
   48.4110   34.8390   39.3960 C   0  0  0  0  0  0  0  0  0  0  0  0
   48.3760   34.4210   38.0630 C   0  0  0  0  0  0  0  0  0  0  0  0
   47.3990   33.5230   37.7010 C   0  0  0  0  0  0  0  0  0  0  0  0
   46.4860   33.0540   38.6230 C   0  0  0  0  0  0  0  0  0  0  0  0
   45.3929   36.1358   42.3055 H   0  0  0  0  0  0  0  0  0  0  0  0
   46.7119   32.7768   45.6717 H   0  0  0  0  0  0  0  0  0  0  0  0
   43.4683   36.5838   43.6652 H   0  0  0  0  0  0  0  0  0  0  0  0
   43.1495   35.7307   45.1992 H   0  0  0  0  0  0  0  0  0  0  0  0
   49.1858   35.5565   39.7041 H   0  0  0  0  0  0  0  0  0  0  0  0
   49.1041   34.7969   37.3291 H   0  0  0  0  0  0  0  0  0  0  0  0
   47.3447   33.1731   36.6595 H   0  0  0  0  0  0  0  0  0  0  0  0
   45.7109   32.3365   38.3156 H   0  0  0  0  0  0  0  0  0  0  0  0
  1  7  1  0
  1  6  2  0
  2  1  1  0
  3  2  2  0
  3  4  1  0
  4  5  2  0
  5  6  1  0
  8  3  1  0
  9  8  2  0
 11 12  2  0
 11 10  1  0
 12  8  1  0
 13 12  1  0
 14 13  2  0
 15 14  1  0
 15 16  2  0
 16 11  1  0
  2 17  1  0
  5 18  1  0
  7 19  1  0
  7 20  1  0
 13 21  1  0
 14 22  1  0
 15 23  1  0
 16 24  1  0
M  ISO  6  17  14  18  14  21  14  22  14  23  14  24  14
M  END
>  <minimizedAffinity>  (1) 
-5.34189892

>  <minimizedRMSD>  (1) 
0.481293291

$$$$
