
     RDKit          3D

 21 22  0  0  0  0  0  0  0  0999 V2000
   44.9360   35.1370   44.1210 C   0  0  0  0  0  0  0  0  0  0  0  0
   45.7750   35.4140   43.0170 C   0  0  0  0  0  0  0  0  0  0  0  0
   46.9700   34.6720   42.8900 C   0  0  0  0  0  0  0  0  0  0  0  0
   47.2320   33.7460   43.8300 N   0  0  0  0  0  0  0  0  0  0  0  0
   46.4150   33.5030   44.8700 C   0  0  0  0  0  0  0  0  0  0  0  0
   45.2810   34.1970   45.0050 N   0  0  0  0  0  0  0  0  0  0  0  0
   43.7360   35.8770   44.2550 N   0  0  0  0  0  0  0  0  0  0  0  0
   47.7600   35.0240   41.7360 C   0  0  0  0  0  0  0  0  0  0  0  0
   48.7210   35.8420   41.7650 O   0  0  0  0  0  0  0  0  0  0  0  0
   47.4620   34.4180   40.4190 C   0  0  0  0  0  0  0  0  0  0  0  0
   46.3210   33.7010   40.1180 C   0  0  0  0  0  0  0  0  0  0  0  0
   46.4730   33.3410   38.8120 N   0  0  0  0  0  0  0  0  0  0  0  0
   47.6400   33.8070   38.3300 C   0  0  0  0  0  0  0  0  0  0  0  0
   48.2780   34.4880   39.3260 N   0  0  0  0  0  0  0  0  0  0  0  0
   45.5051   36.1841   42.2794 H   0  0  0  0  0  0  0  0  0  0  0  0
   46.6801   32.7331   45.6095 H   0  0  0  0  0  0  0  0  0  0  0  0
   43.4941   36.5964   43.5587 H   0  0  0  0  0  0  0  0  0  0  0  0
   43.1051   35.6958   45.0488 H   0  0  0  0  0  0  0  0  0  0  0  0
   45.4765   33.4712   40.7844 H   0  0  0  0  0  0  0  0  0  0  0  0
   45.7913   32.7903   38.2708 H   0  0  0  0  0  0  0  0  0  0  0  0
   48.0161   33.6633   37.3063 H   0  0  0  0  0  0  0  0  0  0  0  0
  1  7  1  0
  1  6  2  0
  2  1  1  0
  3  2  2  0
  3  4  1  0
  4  5  2  0
  5  6  1  0
  8  9  2  0
  8  3  1  0
 10  8  1  0
 11 10  2  0
 12 11  1  0
 13 12  1  0
 13 14  2  0
 14 10  1  0
  2 15  1  0
  5 16  1  0
  7 17  1  0
  7 18  1  0
 11 19  1  0
 12 20  1  0
 13 21  1  0
M  ISO  5  15  14  16  14  19  14  20   9  21  14
M  END
>  <minimizedAffinity>  (1) 
-4.79541302

>  <minimizedRMSD>  (1) 
0.109121226

$$$$
