
     RDKit          3D

 25 26  0  0  1  0  0  0  0  0999 V2000
   44.8750   35.1330   44.0330 C   0  0  0  0  0  0  0  0  0  0  0  0
   45.7240   35.3490   42.9190 C   0  0  0  0  0  0  0  0  0  0  0  0
   46.9330   34.6580   42.8650 C   0  0  0  0  0  0  0  0  0  0  0  0
   47.2440   33.8200   43.8660 N   0  0  0  0  0  0  0  0  0  0  0  0
   46.4100   33.6270   44.9290 C   0  0  0  0  0  0  0  0  0  0  0  0
   45.2380   34.2850   44.9980 N   0  0  0  0  0  0  0  0  0  0  0  0
   43.6480   35.8190   44.1090 N   0  0  0  0  0  0  0  0  0  0  0  0
   47.7360   34.9270   41.7140 C   0  0  0  0  0  0  0  0  0  0  0  0
   48.6610   35.7650   41.6530 O   0  0  0  0  0  0  0  0  0  0  0  0
   47.3360   34.0640   40.5450 C   0  0  2  0  0  0  0  0  0  0  0  0
   47.7410   32.6360   40.7350 C   0  0  0  0  0  0  0  0  0  0  0  0
   48.8890   32.4880   39.7570 C   0  0  0  0  0  0  0  0  0  0  0  0
   48.4870   33.2670   38.6910 O   0  0  0  0  0  0  0  0  0  0  0  0
   48.1480   34.4670   39.3120 C   0  0  0  0  0  0  0  0  0  0  0  0
   45.4359   36.0446   42.1171 H   0  0  0  0  0  0  0  0  0  0  0  0
   46.6966   32.9316   45.7317 H   0  0  0  0  0  0  0  0  0  0  0  0
   43.3756   36.4715   43.3601 H   0  0  0  0  0  0  0  0  0  0  0  0
   43.0227   35.6684   44.9135 H   0  0  0  0  0  0  0  0  0  0  0  0
   46.2471   34.1848   40.4460 H   0  0  0  0  0  0  0  0  0  0  0  0
   48.0720   32.4506   41.7675 H   0  0  0  0  0  0  0  0  0  0  0  0
   46.9228   31.9214   40.5623 H   0  0  0  0  0  0  0  0  0  0  0  0
   49.8283   32.8630   40.1894 H   0  0  0  0  0  0  0  0  0  0  0  0
   49.0920   31.4431   39.4798 H   0  0  0  0  0  0  0  0  0  0  0  0
   49.0531   35.0171   39.6089 H   0  0  0  0  0  0  0  0  0  0  0  0
   47.5794   35.1301   38.6435 H   0  0  0  0  0  0  0  0  0  0  0  0
  1  7  1  0
  1  6  2  0
  2  1  1  0
  3  2  2  0
  3  4  1  0
  4  5  2  0
  5  6  1  0
  8  3  1  0
  9  8  2  0
 10 11  1  0
 10  8  1  0
 12 11  1  0
 13 14  1  0
 13 12  1  0
 14 10  1  0
  2 15  1  0
  5 16  1  0
  7 17  1  0
  7 18  1  0
 10 19  1  6
 11 20  1  0
 11 21  1  0
 12 22  1  0
 12 23  1  0
 14 24  1  0
 14 25  1  0
M  ISO  8  15  14  16  14  19  13  20  13  21  13  22  13  23  13  24  13
M  ISO  1  25  13
M  END
>  <minimizedAffinity>  (1) 
-4.63108206

>  <minimizedRMSD>  (1) 
0.6180408

$$$$
