
     RDKit          3D

 20 20  0  0  0  0  0  0  0  0999 V2000
   44.9100   35.1340   44.1600 C   0  0  0  0  0  0  0  0  0  0  0  0
   45.6800   35.3810   43.0010 C   0  0  0  0  0  0  0  0  0  0  0  0
   46.8670   34.6680   42.8510 C   0  0  0  0  0  0  0  0  0  0  0  0
   47.2310   33.7850   43.7980 N   0  0  0  0  0  0  0  0  0  0  0  0
   46.4590   33.5770   44.9010 C   0  0  0  0  0  0  0  0  0  0  0  0
   45.3250   34.2500   45.0550 N   0  0  0  0  0  0  0  0  0  0  0  0
   43.6950   35.8500   44.3340 N   0  0  0  0  0  0  0  0  0  0  0  0
   47.6220   34.9530   41.6510 C   0  0  0  0  0  0  0  0  0  0  0  0
   48.6900   35.6010   41.5880 O   0  0  0  0  0  0  0  0  0  0  0  0
   46.9990   34.4040   40.5210 O   0  0  0  0  0  0  0  0  0  0  0  0
   48.5700   32.5930   39.3140 O   0  0  0  0  0  0  0  0  0  0  0  0
   47.8450   33.8800   39.1340 P   0  0  0  0  0  0  0  0  0  0  0  0
   46.6570   33.6560   37.9250 O   0  0  0  0  0  0  0  0  0  0  0  0
   48.8810   35.1090   38.6310 O   0  0  0  0  0  0  0  0  0  0  0  0
   45.3537   36.1100   42.2447 H   0  0  0  0  0  0  0  0  0  0  0  0
   46.7754   32.8510   45.6645 H   0  0  0  0  0  0  0  0  0  0  0  0
   43.3932   36.5325   43.6240 H   0  0  0  0  0  0  0  0  0  0  0  0
   43.1161   35.6865   45.1701 H   0  0  0  0  0  0  0  0  0  0  0  0
   45.7791   33.4905   38.3516 H   0  0  0  0  0  0  0  0  0  0  0  0
   49.2636   35.5629   39.4232 H   0  0  0  0  0  0  0  0  0  0  0  0
  1  7  1  0
  1  6  2  0
  2  1  1  0
  3  2  2  0
  3  4  1  0
  4  5  2  0
  5  6  1  0
  8  3  1  0
  9  8  2  0
 10  8  1  0
 12 11  2  0
 12 10  1  0
 13 12  1  0
 14 12  1  0
  2 15  1  0
  5 16  1  0
  7 17  1  0
  7 18  1  0
 13 19  1  0
 14 20  1  0
M  ISO  4  15  14  16  14  19   3  20   3
M  END
>  <minimizedAffinity>  (1) 
-4.81348753

>  <minimizedRMSD>  (1) 
1.07157087

$$$$
