
     RDKit          3D

 26 26  0  0  0  0  0  0  0  0999 V2000
   44.8990   35.1180   44.1560 C   0  0  0  0  0  0  0  0  0  0  0  0
   45.7120   35.4130   43.0430 C   0  0  0  0  0  0  0  0  0  0  0  0
   46.9050   34.7230   42.9120 C   0  0  0  0  0  0  0  0  0  0  0  0
   47.2530   33.8010   43.8350 N   0  0  0  0  0  0  0  0  0  0  0  0
   46.4360   33.5500   44.8930 C   0  0  0  0  0  0  0  0  0  0  0  0
   45.2960   34.1980   45.0330 N   0  0  0  0  0  0  0  0  0  0  0  0
   43.6720   35.8180   44.3020 N   0  0  0  0  0  0  0  0  0  0  0  0
   47.7040   35.0650   41.7510 C   0  0  0  0  0  0  0  0  0  0  0  0
   48.7760   35.7240   41.7560 O   0  0  0  0  0  0  0  0  0  0  0  0
   47.1320   34.5660   40.5790 O   0  0  0  0  0  0  0  0  0  0  0  0
   49.0880   32.7870   40.1030 O   0  0  0  0  0  0  0  0  0  0  0  0
   47.9170   33.5010   39.5010 P   0  0  1  0  0  0  0  0  0  0  0  0
   46.7650   32.3320   39.0550 O   0  0  0  0  0  0  0  0  0  0  0  0
   48.3860   34.3640   38.1340 O   0  0  0  0  0  0  0  0  0  0  0  0
   47.6790   33.8900   37.0490 C   0  0  0  0  0  0  0  0  0  0  0  0
   48.5730   33.0770   36.1110 C   0  0  0  0  0  0  0  0  0  0  0  0
   45.4083   36.1673   42.3022 H   0  0  0  0  0  0  0  0  0  0  0  0
   46.7294   32.7980   45.6403 H   0  0  0  0  0  0  0  0  0  0  0  0
   43.3956   36.5237   43.6046 H   0  0  0  0  0  0  0  0  0  0  0  0
   43.0585   35.6200   45.1053 H   0  0  0  0  0  0  0  0  0  0  0  0
   46.3697   31.9308   39.8692 H   0  0  0  0  0  0  0  0  0  0  0  0
   46.8604   33.2488   37.4079 H   0  0  0  0  0  0  0  0  0  0  0  0
   47.2845   34.7515   36.4902 H   0  0  0  0  0  0  0  0  0  0  0  0
   49.2578   32.4543   36.7054 H   0  0  0  0  0  0  0  0  0  0  0  0
   47.9478   32.4316   35.4765 H   0  0  0  0  0  0  0  0  0  0  0  0
   49.1563   33.7605   35.4765 H   0  0  0  0  0  0  0  0  0  0  0  0
  1  7  1  0
  1  6  2  0
  2  1  1  0
  3  2  2  0
  3  4  1  0
  4  5  2  0
  5  6  1  0
  8  9  2  0
  8  3  1  0
 10  8  1  0
 12 11  2  0
 12 10  1  0
 13 12  1  0
 14 12  1  0
 15 14  1  0
 16 15  1  0
  2 17  1  0
  5 18  1  0
  7 19  1  0
  7 20  1  0
 13 21  1  0
 15 22  1  0
 15 23  1  0
 16 24  1  0
 16 25  1  0
 16 26  1  0
M  ISO  8  17  14  18  14  21   3  22   8  23   8  24   8  25   8  26   8
M  END
>  <minimizedAffinity>  (1) 
-4.46487379

>  <minimizedRMSD>  (1) 
1.24258053

$$$$
