
     RDKit          3D

 28 29  0  0  1  0  0  0  0  0999 V2000
   49.1680   34.2690   42.6320 C   0  0  1  0  0  0  0  0  0  0  0  0
   48.3120   34.6730   41.4860 C   0  0  1  0  0  0  0  0  0  0  0  0
   47.9620   33.7380   40.5750 O   0  0  0  0  0  0  0  0  0  0  0  0
   48.4350   32.4610   40.7570 C   0  0  0  0  0  0  0  0  0  0  0  0
   49.9330   32.6110   40.9670 C   0  0  1  0  0  0  0  0  0  0  0  0
   50.0250   33.0620   42.4140 C   0  0  1  0  0  0  0  0  0  0  0  0
   50.0210   35.3060   43.0140 O   0  0  0  0  0  0  0  0  0  0  0  0
   50.5900   31.4370   40.7290 O   0  0  0  0  0  0  0  0  0  0  0  0
   51.3820   33.3010   42.6590 O   0  0  0  0  0  0  0  0  0  0  0  0
   47.1420   35.3560   41.9090 O   0  0  0  0  0  0  0  0  0  0  0  0
   44.7530   35.2120   44.7470 C   0  0  0  0  0  0  0  0  0  0  0  0
   45.3310   35.6620   43.5590 C   0  0  0  0  0  0  0  0  0  0  0  0
   46.4670   35.0160   43.0730 C   0  0  0  0  0  0  0  0  0  0  0  0
   46.9610   33.9620   43.7970 N   0  0  0  0  0  0  0  0  0  0  0  0
   46.3810   33.5500   44.9410 C   0  0  0  0  0  0  0  0  0  0  0  0
   45.2760   34.1780   45.4150 N   0  0  0  0  0  0  0  0  0  0  0  0
   48.4324   34.0174   43.4102 H   0  0  0  0  0  0  0  0  0  0  0  0
   49.0064   35.3331   40.9455 H   0  0  0  0  0  0  0  0  0  0  0  0
   47.9671   31.9994   41.6391 H   0  0  0  0  0  0  0  0  0  0  0  0
   48.2054   31.8136   39.8979 H   0  0  0  0  0  0  0  0  0  0  0  0
   50.4109   33.3224   40.2775 H   0  0  0  0  0  0  0  0  0  0  0  0
   49.6505   32.3043   43.1180 H   0  0  0  0  0  0  0  0  0  0  0  0
   50.0604   35.3539   44.0021 H   0  0  0  0  0  0  0  0  0  0  0  0
   50.8281   31.0115   41.5906 H   0  0  0  0  0  0  0  0  0  0  0  0
   51.5411   33.3290   43.6357 H   0  0  0  0  0  0  0  0  0  0  0  0
   43.8561   35.7140   45.1388 H   0  0  0  0  0  0  0  0  0  0  0  0
   44.8969   36.5134   43.0144 H   0  0  0  0  0  0  0  0  0  0  0  0
   46.8060   32.6993   45.4940 H   0  0  0  0  0  0  0  0  0  0  0  0
  1  7  1  0
  2 10  1  0
  2  1  1  0
  3  4  1  0
  3  2  1  0
  4  5  1  0
  5  8  1  0
  5  6  1  0
  6  1  1  0
  6  9  1  0
 10 13  1  0
 11 16  2  0
 12 11  1  0
 13 12  2  0
 13 14  1  0
 14 15  2  0
 15 16  1  0
  1 17  1  1
  2 18  1  6
  4 19  1  0
  4 20  1  0
  5 21  1  6
  6 22  1  1
  7 23  1  0
  8 24  1  0
  9 25  1  0
 11 26  1  0
 12 27  1  0
 15 28  1  0
M  ISO  8  17  13  18  13  19  13  20  13  21  13  22  13  23   3  24   3
M  ISO  4  25   3  26  14  27  14  28  14
M  END
>  <minimizedAffinity>  (1) 
-5.34295416

>  <minimizedRMSD>  (1) 
1.41305172

$$$$
