
     RDKit          3D

 35 38  0  0  1  0  0  0  0  0999 V2000
   48.3360   30.9360   42.2360 C   0  0  1  0  0  0  0  0  0  0  0  0
   48.2290   32.3970   41.9180 C   0  0  0  0  0  0  0  0  0  0  0  0
   47.1060   31.4020   41.5840 C   0  0  2  0  0  0  0  0  0  0  0  0
   49.7730   28.7090   39.6340 C   0  0  0  0  0  0  0  0  0  0  0  0
   51.1090   28.5260   40.1370 C   0  0  0  0  0  0  0  0  0  0  0  0
   51.4730   29.1820   41.3540 C   0  0  0  0  0  0  0  0  0  0  0  0
   50.5640   29.9390   41.9770 N   0  0  0  0  0  0  0  0  0  0  0  0
   49.3030   30.0930   41.4690 C   0  0  0  0  0  0  0  0  0  0  0  0
   48.9210   29.4810   40.3100 N   0  0  0  0  0  0  0  0  0  0  0  0
   45.8710   31.5910   42.2650 N   0  0  0  0  0  0  0  0  0  0  0  0
   45.8020   32.2010   43.5450 C   0  0  0  0  0  0  0  0  0  0  0  0
   46.1590   31.5140   44.6820 C   0  0  0  0  0  0  0  0  0  0  0  0
   46.1070   32.0720   45.9440 C   0  0  0  0  0  0  0  0  0  0  0  0
   45.6850   33.3690   46.1200 C   0  0  0  0  0  0  0  0  0  0  0  0
   45.3230   34.0800   45.0140 C   0  0  0  0  0  0  0  0  0  0  0  0
   44.8920   35.3920   45.1580 C   0  0  0  0  0  0  0  0  0  0  0  0
   44.5100   36.1690   44.0870 C   0  0  0  0  0  0  0  0  0  0  0  0
   44.5760   35.5790   42.8440 C   0  0  0  0  0  0  0  0  0  0  0  0
   45.0050   34.2750   42.7070 C   0  0  0  0  0  0  0  0  0  0  0  0
   45.3870   33.4940   43.7700 C   0  0  0  0  0  0  0  0  0  0  0  0
   48.5417   30.3649   43.1533 H   0  0  0  0  0  0  0  0  0  0  0  0
   48.0977   33.1334   42.7245 H   0  0  0  0  0  0  0  0  0  0  0  0
   48.8281   33.1299   41.3578 H   0  0  0  0  0  0  0  0  0  0  0  0
   46.5617   31.0425   40.6983 H   0  0  0  0  0  0  0  0  0  0  0  0
   49.4579   28.2173   38.7018 H   0  0  0  0  0  0  0  0  0  0  0  0
   51.8325   27.8966   39.5981 H   0  0  0  0  0  0  0  0  0  0  0  0
   52.4843   29.0658   41.7709 H   0  0  0  0  0  0  0  0  0  0  0  0
   44.9998   31.2753   41.8152 H   0  0  0  0  0  0  0  0  0  0  0  0
   46.5013   30.4735   44.5814 H   0  0  0  0  0  0  0  0  0  0  0  0
   46.4060   31.4733   46.8170 H   0  0  0  0  0  0  0  0  0  0  0  0
   45.6408   33.8193   47.1226 H   0  0  0  0  0  0  0  0  0  0  0  0
   44.8542   35.8280   46.1672 H   0  0  0  0  0  0  0  0  0  0  0  0
   44.1698   37.2069   44.2174 H   0  0  0  0  0  0  0  0  0  0  0  0
   44.2839   36.1530   41.9523 H   0  0  0  0  0  0  0  0  0  0  0  0
   45.0429   33.8398   41.6975 H   0  0  0  0  0  0  0  0  0  0  0  0
  2  1  1  0
  3  2  1  0
  3  1  1  0
  3 10  1  0
  4  5  2  0
  4  9  1  0
  5  6  1  0
  6  7  2  0
  8  7  1  0
  8  1  1  0
  9  8  2  0
 10 11  1  0
 11 20  1  0
 11 12  2  0
 12 13  1  0
 13 14  2  0
 15 16  2  0
 15 14  1  0
 17 16  1  0
 18 17  2  0
 19 18  1  0
 19 20  2  0
 20 15  1  0
  1 21  1  1
  2 22  1  0
  2 23  1  0
  3 24  1  6
  4 25  1  0
  5 26  1  0
  6 27  1  0
 10 28  1  0
 12 29  1  0
 13 30  1  0
 14 31  1  0
 16 32  1  0
 17 33  1  0
 18 34  1  0
 19 35  1  0
M  ISO  8  21  13  22  13  23  13  24  13  25  14  26  14  27  14  29  14
M  ISO  6  30  14  31  14  32  14  33  14  34  14  35  14
M  END
>  <minimizedAffinity>  (1) 
-3.64178228

>  <minimizedRMSD>  (1) 
7.03697205

$$$$
