
     RDKit          3D

 24 25  0  0  0  0  0  0  0  0999 V2000
   44.4400   36.0150   45.0550 C   0  0  0  0  0  0  0  0  0  0  0  0
   44.9560   36.0640   43.7580 C   0  0  0  0  0  0  0  0  0  0  0  0
   45.7510   35.0120   43.3120 C   0  0  0  0  0  0  0  0  0  0  0  0
   45.9970   33.9790   44.1520 N   0  0  0  0  0  0  0  0  0  0  0  0
   45.4790   33.9640   45.4100 C   0  0  0  0  0  0  0  0  0  0  0  0
   44.7010   34.9820   45.8580 N   0  0  0  0  0  0  0  0  0  0  0  0
   46.3270   34.9280   42.0570 O   0  0  0  0  0  0  0  0  0  0  0  0
   47.4860   34.2440   41.7250 C   0  0  0  0  0  0  0  0  0  0  0  0
   48.7370   34.8070   42.3490 C   0  0  0  0  0  0  0  0  0  0  0  0
   49.0240   35.9830   41.4650 C   0  0  0  0  0  0  0  0  0  0  0  0
   48.8740   35.3870   40.0880 C   0  0  0  0  0  0  0  0  0  0  0  0
   47.7630   34.3990   40.2310 C   0  0  0  0  0  0  0  0  0  0  0  0
   43.8097   36.8395   45.4195 H   0  0  0  0  0  0  0  0  0  0  0  0
   44.7380   36.9187   43.1007 H   0  0  0  0  0  0  0  0  0  0  0  0
   45.6940   33.1139   46.0741 H   0  0  0  0  0  0  0  0  0  0  0  0
   47.2999   33.2160   42.0695 H   0  0  0  0  0  0  0  0  0  0  0  0
   48.5587   35.1219   43.3878 H   0  0  0  0  0  0  0  0  0  0  0  0
   49.5653   34.0858   42.4105 H   0  0  0  0  0  0  0  0  0  0  0  0
   48.2988   36.7934   41.6305 H   0  0  0  0  0  0  0  0  0  0  0  0
   50.0076   36.4417   41.6440 H   0  0  0  0  0  0  0  0  0  0  0  0
   49.8028   34.8863   39.7771 H   0  0  0  0  0  0  0  0  0  0  0  0
   48.6631   36.1478   39.3221 H   0  0  0  0  0  0  0  0  0  0  0  0
   46.8628   34.7671   39.7170 H   0  0  0  0  0  0  0  0  0  0  0  0
   48.0392   33.4332   39.7828 H   0  0  0  0  0  0  0  0  0  0  0  0
  1  6  2  0
  2  1  1  0
  3  2  2  0
  3  4  1  0
  4  5  2  0
  5  6  1  0
  7  3  1  0
  8  7  1  0
  8  9  1  0
 10  9  1  0
 11 12  1  0
 11 10  1  0
 12  8  1  0
  1 13  1  0
  2 14  1  0
  5 15  1  0
  8 16  1  0
  9 17  1  0
  9 18  1  0
 10 19  1  0
 10 20  1  0
 11 21  1  0
 11 22  1  0
 12 23  1  0
 12 24  1  0
M  ISO  8  13  14  14  14  15  14  16  13  17  13  18  13  19  13  20  13
M  ISO  4  21  13  22  13  23  13  24  13
M  END
>  <minimizedAffinity>  (1) 
-4.46489859

>  <minimizedRMSD>  (1) 
2.12729836

$$$$
