
     RDKit          3D

 17 17  0  0  0  0  0  0  0  0999 V2000
   44.5260   35.9610   44.5370 C   0  0  0  0  0  0  0  0  0  0  0  0
   45.1730   36.0470   43.3040 C   0  0  0  0  0  0  0  0  0  0  0  0
   46.1160   35.0750   42.9870 C   0  0  0  0  0  0  0  0  0  0  0  0
   46.3610   34.0880   43.8930 N   0  0  0  0  0  0  0  0  0  0  0  0
   45.7210   34.0300   45.0750 C   0  0  0  0  0  0  0  0  0  0  0  0
   44.8000   34.9770   45.3880 N   0  0  0  0  0  0  0  0  0  0  0  0
   46.8470   35.0100   41.8150 O   0  0  0  0  0  0  0  0  0  0  0  0
   48.1850   34.6390   41.7190 C   0  0  0  0  0  0  0  0  0  0  0  0
   49.0120   35.8820   41.5130 C   0  0  0  0  0  0  0  0  0  0  0  0
   43.7772   36.7194   44.8094 H   0  0  0  0  0  0  0  0  0  0  0  0
   44.9435   36.8617   42.6014 H   0  0  0  0  0  0  0  0  0  0  0  0
   45.9429   33.2191   45.7844 H   0  0  0  0  0  0  0  0  0  0  0  0
   48.4976   34.1345   42.6452 H   0  0  0  0  0  0  0  0  0  0  0  0
   48.3251   33.9486   40.8742 H   0  0  0  0  0  0  0  0  0  0  0  0
   49.2917   36.3024   42.4902 H   0  0  0  0  0  0  0  0  0  0  0  0
   49.9217   35.6279   40.9492 H   0  0  0  0  0  0  0  0  0  0  0  0
   48.4262   36.6229   40.9492 H   0  0  0  0  0  0  0  0  0  0  0  0
  1  6  2  0
  2  1  1  0
  3  2  2  0
  3  4  1  0
  4  5  2  0
  5  6  1  0
  7  3  1  0
  8  7  1  0
  9  8  1  0
  1 10  1  0
  2 11  1  0
  5 12  1  0
  8 13  1  0
  8 14  1  0
  9 15  1  0
  9 16  1  0
  9 17  1  0
M  ISO  8  10  14  11  14  12  14  13   8  14   8  15   8  16   8  17   8
M  END
>  <minimizedAffinity>  (1) 
-3.60917258

>  <minimizedRMSD>  (1) 
0.916369498

$$$$
