
     RDKit          3D

 13 13  0  0  0  0  0  0  0  0999 V2000
   44.5270   35.9420   44.5160 C   0  0  0  0  0  0  0  0  0  0  0  0
   45.1890   36.0230   43.2800 C   0  0  0  0  0  0  0  0  0  0  0  0
   46.1480   35.0500   42.9680 C   0  0  0  0  0  0  0  0  0  0  0  0
   46.3910   34.0750   43.8760 N   0  0  0  0  0  0  0  0  0  0  0  0
   45.7370   34.0230   45.0560 C   0  0  0  0  0  0  0  0  0  0  0  0
   44.8150   34.9550   45.3620 N   0  0  0  0  0  0  0  0  0  0  0  0
   46.8740   35.0070   41.7960 O   0  0  0  0  0  0  0  0  0  0  0  0
   48.2400   35.2350   41.8570 C   0  0  0  0  0  0  0  0  0  0  0  0
   49.0250   35.9880   41.2070 O   0  0  0  0  0  0  0  0  0  0  0  0
   43.7706   36.6939   44.7851 H   0  0  0  0  0  0  0  0  0  0  0  0
   44.9596   36.8330   42.5719 H   0  0  0  0  0  0  0  0  0  0  0  0
   45.9584   33.2161   45.7700 H   0  0  0  0  0  0  0  0  0  0  0  0
   48.7476   34.6388   42.6296 H   0  0  0  0  0  0  0  0  0  0  0  0
  1  6  2  0
  2  1  1  0
  3  2  2  0
  3  4  1  0
  4  5  2  0
  5  6  1  0
  7  8  1  0
  7  3  1  0
  9  8  2  0
  1 10  1  0
  2 11  1  0
  5 12  1  0
  8 13  1  0
M  ISO  4  10  14  11  14  12  14  13   6
M  END
>  <minimizedAffinity>  (1) 
-3.4291172

>  <minimizedRMSD>  (1) 
0.475556403

$$$$
