
     RDKit          3D

 28 30  0  0  0  0  0  0  0  0999 V2000
   44.6780   36.1120   43.8590 C   0  0  0  0  0  0  0  0  0  0  0  0
   45.6140   36.2290   42.8380 C   0  0  0  0  0  0  0  0  0  0  0  0
   46.6210   35.2800   42.7200 C   0  0  0  0  0  0  0  0  0  0  0  0
   46.6270   34.2740   43.6300 N   0  0  0  0  0  0  0  0  0  0  0  0
   45.7180   34.1740   44.6090 C   0  0  0  0  0  0  0  0  0  0  0  0
   44.7400   35.0980   44.7210 N   0  0  0  0  0  0  0  0  0  0  0  0
   46.1800   31.8130   45.1250 C   0  0  0  0  0  0  0  0  0  0  0  0
   45.7810   33.0640   45.5570 C   0  0  0  0  0  0  0  0  0  0  0  0
   45.4390   33.2860   46.8760 C   0  0  0  0  0  0  0  0  0  0  0  0
   45.4970   32.2370   47.7870 C   0  0  0  0  0  0  0  0  0  0  0  0
   45.2360   32.1170   49.1170 N   0  0  0  0  0  0  0  0  0  0  0  0
   45.4700   30.8270   49.4830 C   0  0  0  0  0  0  0  0  0  0  0  0
   45.8870   30.1110   48.3730 C   0  0  0  0  0  0  0  0  0  0  0  0
   45.9010   31.0100   47.3020 C   0  0  0  0  0  0  0  0  0  0  0  0
   46.2550   30.7280   45.9990 C   0  0  0  0  0  0  0  0  0  0  0  0
   47.6200   35.2520   41.7710 O   0  0  0  0  0  0  0  0  0  0  0  0
   47.4330   34.3450   40.6760 C   0  0  0  0  0  0  0  0  0  0  0  0
   46.0840   34.2910   40.3390 F   0  0  0  0  0  0  0  0  0  0  0  0
   48.1360   34.8480   39.5760 F   0  0  0  0  0  0  0  0  0  0  0  0
   47.9510   33.0850   40.9780 F   0  0  0  0  0  0  0  0  0  0  0  0
   43.8797   36.8626   43.9560 H   0  0  0  0  0  0  0  0  0  0  0  0
   45.5574   37.0676   42.1283 H   0  0  0  0  0  0  0  0  0  0  0  0
   46.4447   31.6695   44.0670 H   0  0  0  0  0  0  0  0  0  0  0  0
   45.1224   34.2870   47.2044 H   0  0  0  0  0  0  0  0  0  0  0  0
   44.9163   32.8725   49.7398 H   0  0  0  0  0  0  0  0  0  0  0  0
   45.3476   30.4188   50.4971 H   0  0  0  0  0  0  0  0  0  0  0  0
   46.1546   29.0445   48.3404 H   0  0  0  0  0  0  0  0  0  0  0  0
   46.5717   29.7259   45.6743 H   0  0  0  0  0  0  0  0  0  0  0  0
  1  6  2  0
  2  1  1  0
  3  2  2  0
  3  4  1  0
  4  5  2  0
  5  6  1  0
  5  8  1  0
  7  8  2  0
  7 15  1  0
  8  9  1  0
  9 10  2  0
 10 11  1  0
 11 12  1  0
 13 12  2  0
 14 10  1  0
 14 13  1  0
 15 14  2  0
 16  3  1  0
 17 20  1  0
 17 16  1  0
 18 17  1  0
 19 17  1  0
  1 21  1  0
  2 22  1  0
  7 23  1  0
  9 24  1  0
 11 25  1  0
 12 26  1  0
 13 27  1  0
 15 28  1  0
M  ISO  8  21  14  22  14  23  14  24  14  25   9  26  14  27  14  28  14
M  END
>  <minimizedAffinity>  (1) 
-5.71266508

>  <minimizedRMSD>  (1) 
0.708755195

$$$$
