
     RDKit          3D

 35 38  0  0  0  0  0  0  0  0999 V2000
   46.6650   32.5670   46.2220 C   0  0  0  0  0  0  0  0  0  0  0  0
   46.7880   32.6260   47.5910 C   0  0  0  0  0  0  0  0  0  0  0  0
   47.3660   31.5410   48.2240 C   0  0  0  0  0  0  0  0  0  0  0  0
   47.8270   30.4050   47.5920 C   0  0  0  0  0  0  0  0  0  0  0  0
   47.6810   30.3960   46.2290 C   0  0  0  0  0  0  0  0  0  0  0  0
   47.1220   31.4370   45.5760 C   0  0  0  0  0  0  0  0  0  0  0  0
   48.2470   28.9730   45.3260 S   0  0  0  0  0  0  0  0  0  0  0  0
   48.9080   27.8440   46.5380 C   0  0  0  0  0  0  0  0  0  0  0  0
   49.3940   26.6870   46.0400 C   0  0  0  0  0  0  0  0  0  0  0  0
   49.9310   25.7490   46.9300 C   0  0  0  0  0  0  0  0  0  0  0  0
   49.9410   26.0440   48.2680 C   0  0  0  0  0  0  0  0  0  0  0  0
   49.4220   27.2560   48.6970 C   0  0  0  0  0  0  0  0  0  0  0  0
   48.8830   28.2110   47.8620 C   0  0  0  0  0  0  0  0  0  0  0  0
   48.3810   29.4090   48.3920 N   0  0  0  0  0  0  0  0  0  0  0  0
   44.5580   35.4000   45.2310 C   0  0  0  0  0  0  0  0  0  0  0  0
   45.0170   35.6560   43.9260 C   0  0  0  0  0  0  0  0  0  0  0  0
   46.0410   34.8510   43.4100 C   0  0  0  0  0  0  0  0  0  0  0  0
   46.5230   33.8760   44.2040 N   0  0  0  0  0  0  0  0  0  0  0  0
   46.0710   33.6500   45.4450 C   0  0  0  0  0  0  0  0  0  0  0  0
   45.0910   34.4060   45.9640 N   0  0  0  0  0  0  0  0  0  0  0  0
   46.6030   34.9700   42.1540 O   0  0  0  0  0  0  0  0  0  0  0  0
   45.9040   34.2900   41.0880 C   0  0  0  0  0  0  0  0  0  0  0  0
   44.7450   34.9620   40.7800 F   0  0  0  0  0  0  0  0  0  0  0  0
   46.7610   34.2980   39.9750 F   0  0  0  0  0  0  0  0  0  0  0  0
   45.6890   32.9580   41.4260 F   0  0  0  0  0  0  0  0  0  0  0  0
   46.4404   33.5013   48.1593 H   0  0  0  0  0  0  0  0  0  0  0  0
   47.4661   31.5875   49.3184 H   0  0  0  0  0  0  0  0  0  0  0  0
   47.0268   31.3818   44.4815 H   0  0  0  0  0  0  0  0  0  0  0  0
   49.3686   26.4857   44.9589 H   0  0  0  0  0  0  0  0  0  0  0  0
   50.3366   24.7948   46.5626 H   0  0  0  0  0  0  0  0  0  0  0  0
   50.3557   25.3281   48.9929 H   0  0  0  0  0  0  0  0  0  0  0  0
   49.4417   27.4697   49.7759 H   0  0  0  0  0  0  0  0  0  0  0  0
   48.4238   29.5573   49.4104 H   0  0  0  0  0  0  0  0  0  0  0  0
   43.7546   36.0193   45.6565 H   0  0  0  0  0  0  0  0  0  0  0  0
   44.5824   36.4686   43.3253 H   0  0  0  0  0  0  0  0  0  0  0  0
  1  2  2  0
  2  3  1  0
  4  3  2  0
  4 14  1  0
  5  4  1  0
  6  1  1  0
  6  5  2  0
  7  5  1  0
  7  8  1  0
  8 13  2  0
  9  8  1  0
  9 10  2  0
 10 11  1  0
 11 12  2  0
 13 14  1  0
 13 12  1  0
 15 20  2  0
 16 15  1  0
 17 16  2  0
 17 18  1  0
 18 19  2  0
 19 20  1  0
 19  1  1  0
 21 17  1  0
 22 25  1  0
 22 21  1  0
 23 22  1  0
 24 22  1  0
  2 26  1  0
  3 27  1  0
  6 28  1  0
  9 29  1  0
 10 30  1  0
 11 31  1  0
 12 32  1  0
 14 33  1  0
 15 34  1  0
 16 35  1  0
M  ISO  8  26  14  27  14  28  14  29  14  30  14  31  14  32  14  34  14
M  ISO  1  35  14
M  END
>  <minimizedAffinity>  (1) 
-5.63130569

>  <minimizedRMSD>  (1) 
1.14367914

$$$$
