
     RDKit          3D

 29 31  0  0  0  0  0  0  0  0999 V2000
   44.8190   35.9530   43.3150 C   0  0  0  0  0  0  0  0  0  0  0  0
   45.9260   36.1700   42.4940 C   0  0  0  0  0  0  0  0  0  0  0  0
   47.0200   35.3000   42.5730 C   0  0  0  0  0  0  0  0  0  0  0  0
   46.9270   34.2790   43.4640 N   0  0  0  0  0  0  0  0  0  0  0  0
   45.8500   34.0940   44.2410 C   0  0  0  0  0  0  0  0  0  0  0  0
   44.8060   34.9290   44.1610 N   0  0  0  0  0  0  0  0  0  0  0  0
   45.8120   32.9770   45.1780 C   0  0  0  0  0  0  0  0  0  0  0  0
   45.9380   31.6800   44.7260 C   0  0  0  0  0  0  0  0  0  0  0  0
   45.9070   30.5940   45.5930 C   0  0  0  0  0  0  0  0  0  0  0  0
   45.7440   30.7910   46.9500 C   0  0  0  0  0  0  0  0  0  0  0  0
   45.7190   29.7280   47.7550 N   0  0  0  0  0  0  0  0  0  0  0  0
   45.5630   29.8740   49.0840 C   0  0  0  0  0  0  0  0  0  0  0  0
   45.4310   31.1560   49.5880 C   0  0  0  0  0  0  0  0  0  0  0  0
   45.4570   32.2640   48.7650 C   0  0  0  0  0  0  0  0  0  0  0  0
   45.6190   32.1030   47.3920 C   0  0  0  0  0  0  0  0  0  0  0  0
   45.6490   33.1940   46.5310 C   0  0  0  0  0  0  0  0  0  0  0  0
   48.1750   35.3800   41.8370 O   0  0  0  0  0  0  0  0  0  0  0  0
   48.1760   34.6940   40.5740 C   0  0  0  0  0  0  0  0  0  0  0  0
   46.8770   34.3960   40.2120 F   0  0  0  0  0  0  0  0  0  0  0  0
   48.7090   35.5670   39.6190 F   0  0  0  0  0  0  0  0  0  0  0  0
   48.9840   33.5590   40.6270 F   0  0  0  0  0  0  0  0  0  0  0  0
   43.9549   36.6316   43.2616 H   0  0  0  0  0  0  0  0  0  0  0  0
   45.9391   37.0164   41.7915 H   0  0  0  0  0  0  0  0  0  0  0  0
   46.0667   31.4999   43.6485 H   0  0  0  0  0  0  0  0  0  0  0  0
   46.0128   29.5734   45.1965 H   0  0  0  0  0  0  0  0  0  0  0  0
   45.5411   28.9992   49.7505 H   0  0  0  0  0  0  0  0  0  0  0  0
   45.3021   31.2957   50.6715 H   0  0  0  0  0  0  0  0  0  0  0  0
   45.3500   33.2716   49.1932 H   0  0  0  0  0  0  0  0  0  0  0  0
   45.5442   34.2165   46.9229 H   0  0  0  0  0  0  0  0  0  0  0  0
  1  6  2  0
  2  3  2  0
  2  1  1  0
  3  4  1  0
  4  5  2  0
  5  7  1  0
  6  5  1  0
  7 16  1  0
  8  7  2  0
  8  9  1  0
  9 10  2  0
 10 15  1  0
 10 11  1  0
 11 12  2  0
 12 13  1  0
 14 13  2  0
 15 14  1  0
 16 15  2  0
 17  3  1  0
 18 21  1  0
 18 17  1  0
 19 18  1  0
 20 18  1  0
  1 22  1  0
  2 23  1  0
  8 24  1  0
  9 25  1  0
 12 26  1  0
 13 27  1  0
 14 28  1  0
 16 29  1  0
M  ISO  8  22  14  23  14  24  14  25  14  26  14  27  14  28  14  29  14
M  END
>  <minimizedAffinity>  (1) 
-5.43834114

>  <minimizedRMSD>  (1) 
1.35284388

$$$$
