
     RDKit          3D

 23 24  0  0  0  0  0  0  0  0999 V2000
   44.4540   35.9080   44.6750 C   0  0  0  0  0  0  0  0  0  0  0  0
   45.1770   35.9680   43.4760 C   0  0  0  0  0  0  0  0  0  0  0  0
   46.1820   35.0380   43.2560 C   0  0  0  0  0  0  0  0  0  0  0  0
   46.4100   34.1140   44.2200 N   0  0  0  0  0  0  0  0  0  0  0  0
   45.7070   34.0760   45.3600 C   0  0  0  0  0  0  0  0  0  0  0  0
   44.7320   34.9650   45.5910 N   0  0  0  0  0  0  0  0  0  0  0  0
   46.0030   33.0540   46.3610 C   0  0  0  0  0  0  0  0  0  0  0  0
   45.2480   32.9660   47.5140 C   0  0  0  0  0  0  0  0  0  0  0  0
   45.4930   32.0070   48.4980 C   0  0  0  0  0  0  0  0  0  0  0  0
   46.5550   31.1310   48.2530 C   0  0  0  0  0  0  0  0  0  0  0  0
   47.3070   31.2320   47.0890 C   0  0  0  0  0  0  0  0  0  0  0  0
   47.0150   32.1850   46.1760 N   0  0  0  0  0  0  0  0  0  0  0  0
   46.9820   34.9630   42.1300 O   0  0  0  0  0  0  0  0  0  0  0  0
   46.4640   34.2090   41.0310 C   0  0  0  0  0  0  0  0  0  0  0  0
   45.1960   34.6370   40.7240 F   0  0  0  0  0  0  0  0  0  0  0  0
   47.2960   34.4530   39.9270 F   0  0  0  0  0  0  0  0  0  0  0  0
   46.5150   32.8410   41.3030 F   0  0  0  0  0  0  0  0  0  0  0  0
   43.6537   36.6377   44.8675 H   0  0  0  0  0  0  0  0  0  0  0  0
   44.9516   36.7382   42.7236 H   0  0  0  0  0  0  0  0  0  0  0  0
   44.4229   33.6782   47.6624 H   0  0  0  0  0  0  0  0  0  0  0  0
   44.8859   31.9440   49.4131 H   0  0  0  0  0  0  0  0  0  0  0  0
   46.7981   30.3523   48.9909 H   0  0  0  0  0  0  0  0  0  0  0  0
   48.1401   30.5363   46.9105 H   0  0  0  0  0  0  0  0  0  0  0  0
  1  6  2  0
  2  1  1  0
  3  2  2  0
  3  4  1  0
  4  5  2  0
  5  6  1  0
  5  7  1  0
  7  8  2  0
  8  9  1  0
 10  9  2  0
 11 10  1  0
 12  7  1  0
 12 11  2  0
 13  3  1  0
 14 17  1  0
 14 13  1  0
 15 14  1  0
 16 14  1  0
  1 18  1  0
  2 19  1  0
  8 20  1  0
  9 21  1  0
 10 22  1  0
 11 23  1  0
M  ISO  6  18  14  19  14  20  14  21  14  22  14  23  14
M  END
>  <minimizedAffinity>  (1) 
-5.15849781

>  <minimizedRMSD>  (1) 
0.552356243

$$$$
