
     RDKit          3D

 24 25  0  0  0  0  0  0  0  0999 V2000
   44.5090   36.1300   43.9670 C   0  0  0  0  0  0  0  0  0  0  0  0
   45.4040   36.1780   42.8880 C   0  0  0  0  0  0  0  0  0  0  0  0
   46.4440   35.2690   42.8280 C   0  0  0  0  0  0  0  0  0  0  0  0
   46.5580   34.3590   43.8230 N   0  0  0  0  0  0  0  0  0  0  0  0
   45.6770   34.3330   44.8590 C   0  0  0  0  0  0  0  0  0  0  0  0
   44.6710   35.2150   44.9140 N   0  0  0  0  0  0  0  0  0  0  0  0
   47.4420   31.9400   44.2920 Cl  0  0  0  0  0  0  0  0  0  0  0  0
   46.5800   32.2160   45.7960 C   0  0  0  0  0  0  0  0  0  0  0  0
   45.8060   33.3500   45.9280 C   0  0  0  0  0  0  0  0  0  0  0  0
   45.1650   33.5000   47.1240 C   0  0  0  0  0  0  0  0  0  0  0  0
   45.2670   32.5910   48.1500 C   0  0  0  0  0  0  0  0  0  0  0  0
   46.0580   31.4730   47.9580 C   0  0  0  0  0  0  0  0  0  0  0  0
   46.2280   30.2740   49.2350 Cl  0  0  0  0  0  0  0  0  0  0  0  0
   46.7420   31.2510   46.7700 C   0  0  0  0  0  0  0  0  0  0  0  0
   47.4030   35.1860   41.8370 O   0  0  0  0  0  0  0  0  0  0  0  0
   47.1290   34.2710   40.7610 C   0  0  0  0  0  0  0  0  0  0  0  0
   45.7940   34.3130   40.4270 F   0  0  0  0  0  0  0  0  0  0  0  0
   47.8850   34.6820   39.6510 F   0  0  0  0  0  0  0  0  0  0  0  0
   47.5370   32.9790   41.1070 F   0  0  0  0  0  0  0  0  0  0  0  0
   43.6772   36.8472   44.0277 H   0  0  0  0  0  0  0  0  0  0  0  0
   45.2795   36.9320   42.0968 H   0  0  0  0  0  0  0  0  0  0  0  0
   44.5370   34.3906   47.2737 H   0  0  0  0  0  0  0  0  0  0  0  0
   44.7334   32.7487   49.0989 H   0  0  0  0  0  0  0  0  0  0  0  0
   47.3725   30.3631   46.6149 H   0  0  0  0  0  0  0  0  0  0  0  0
  1  6  2  0
  2  1  1  0
  3  2  2  0
  3  4  1  0
  4  5  2  0
  5  6  1  0
  5  9  1  0
  7  8  1  0
  8  9  2  0
  8 14  1  0
  9 10  1  0
 10 11  2  0
 12 11  1  0
 12 13  1  0
 14 12  2  0
 15  3  1  0
 16 19  1  0
 16 15  1  0
 17 16  1  0
 18 16  1  0
  1 20  1  0
  2 21  1  0
 10 22  1  0
 11 23  1  0
 14 24  1  0
M  ISO  5  20  14  21  14  22  14  23  14  24  14
M  END
>  <minimizedAffinity>  (1) 
-5.03881741

>  <minimizedRMSD>  (1) 
0.492211282

$$$$
