
     RDKit          3D

 22 23  0  0  0  0  0  0  0  0999 V2000
   44.4380   35.9890   44.7310 C   0  0  0  0  0  0  0  0  0  0  0  0
   45.1130   36.0260   43.5110 C   0  0  0  0  0  0  0  0  0  0  0  0
   46.0630   35.0630   43.2250 C   0  0  0  0  0  0  0  0  0  0  0  0
   46.3070   34.1050   44.1520 N   0  0  0  0  0  0  0  0  0  0  0  0
   45.6370   34.0880   45.3350 C   0  0  0  0  0  0  0  0  0  0  0  0
   44.7180   35.0230   45.6090 N   0  0  0  0  0  0  0  0  0  0  0  0
   45.9180   33.0460   46.3190 C   0  0  0  0  0  0  0  0  0  0  0  0
   46.9060   32.1020   46.0570 C   0  0  0  0  0  0  0  0  0  0  0  0
   47.1130   31.1410   47.0440 C   0  0  0  0  0  0  0  0  0  0  0  0
   46.4240   31.0830   48.2060 N   0  0  0  0  0  0  0  0  0  0  0  0
   45.4820   32.0240   48.3980 C   0  0  0  0  0  0  0  0  0  0  0  0
   45.2290   32.9920   47.4730 N   0  0  0  0  0  0  0  0  0  0  0  0
   46.8180   34.9580   42.0660 O   0  0  0  0  0  0  0  0  0  0  0  0
   46.2440   34.2000   40.9990 C   0  0  0  0  0  0  0  0  0  0  0  0
   44.9930   34.6900   40.6980 F   0  0  0  0  0  0  0  0  0  0  0  0
   47.0670   34.3480   39.8790 F   0  0  0  0  0  0  0  0  0  0  0  0
   46.2160   32.8420   41.3250 F   0  0  0  0  0  0  0  0  0  0  0  0
   43.6803   36.7504   44.9681 H   0  0  0  0  0  0  0  0  0  0  0  0
   44.8907   36.8174   42.7800 H   0  0  0  0  0  0  0  0  0  0  0  0
   47.4897   32.1138   45.1247 H   0  0  0  0  0  0  0  0  0  0  0  0
   47.8872   30.3800   46.8666 H   0  0  0  0  0  0  0  0  0  0  0  0
   44.8982   32.0116   49.3302 H   0  0  0  0  0  0  0  0  0  0  0  0
  1  6  2  0
  2  1  1  0
  3  2  2  0
  3  4  1  0
  4  5  2  0
  5  6  1  0
  5  7  1  0
  7 12  1  0
  8  7  2  0
  8  9  1  0
  9 10  2  0
 10 11  1  0
 12 11  2  0
 13  3  1  0
 14 17  1  0
 14 13  1  0
 15 14  1  0
 16 14  1  0
  1 18  1  0
  2 19  1  0
  8 20  1  0
  9 21  1  0
 11 22  1  0
M  ISO  5  18  14  19  14  20  14  21  14  22  14
M  END
>  <minimizedAffinity>  (1) 
-5.03742027

>  <minimizedRMSD>  (1) 
0.61331743

$$$$
