
     RDKit          3D

 16 16  0  0  0  0  0  0  0  0999 V2000
   44.5410   35.9020   44.3810 C   0  0  0  0  0  0  0  0  0  0  0  0
   45.3180   36.0310   43.2320 C   0  0  0  0  0  0  0  0  0  0  0  0
   46.3550   35.1270   43.0020 C   0  0  0  0  0  0  0  0  0  0  0  0
   46.5420   34.1650   43.9300 N   0  0  0  0  0  0  0  0  0  0  0  0
   45.7870   34.0530   45.0340 C   0  0  0  0  0  0  0  0  0  0  0  0
   44.7860   34.9180   45.2630 N   0  0  0  0  0  0  0  0  0  0  0  0
   46.0560   33.0050   45.9620 N   0  0  0  0  0  0  0  0  0  0  0  0
   47.1980   35.1280   41.9220 O   0  0  0  0  0  0  0  0  0  0  0  0
   46.8650   34.2410   40.8450 C   0  0  0  0  0  0  0  0  0  0  0  0
   45.5320   34.3860   40.5300 F   0  0  0  0  0  0  0  0  0  0  0  0
   47.6260   34.6170   39.7340 F   0  0  0  0  0  0  0  0  0  0  0  0
   47.2120   32.9310   41.1670 F   0  0  0  0  0  0  0  0  0  0  0  0
   43.7208   36.6108   44.5678 H   0  0  0  0  0  0  0  0  0  0  0  0
   45.1156   36.8383   42.5128 H   0  0  0  0  0  0  0  0  0  0  0  0
   45.4825   32.9103   46.8123 H   0  0  0  0  0  0  0  0  0  0  0  0
   46.8239   32.3425   45.7822 H   0  0  0  0  0  0  0  0  0  0  0  0
  1  6  2  0
  2  1  1  0
  3  2  2  0
  3  4  1  0
  4  5  2  0
  5  6  1  0
  5  7  1  0
  8  3  1  0
  9 12  1  0
  9  8  1  0
 10  9  1  0
 11  9  1  0
  1 13  1  0
  2 14  1  0
  7 15  1  0
  7 16  1  0
M  ISO  2  13  14  14  14
M  END
>  <minimizedAffinity>  (1) 
-3.93079591

>  <minimizedRMSD>  (1) 
0.0437087379

$$$$
