
     RDKit          3D

 15 15  0  0  0  0  0  0  0  0999 V2000
   44.5390   35.9100   44.3850 C   0  0  0  0  0  0  0  0  0  0  0  0
   45.3190   36.0300   43.2430 C   0  0  0  0  0  0  0  0  0  0  0  0
   46.3530   35.1270   43.0130 C   0  0  0  0  0  0  0  0  0  0  0  0
   46.5300   34.1740   43.9370 N   0  0  0  0  0  0  0  0  0  0  0  0
   45.7760   34.0520   45.0490 C   0  0  0  0  0  0  0  0  0  0  0  0
   44.7730   34.9400   45.2570 N   0  0  0  0  0  0  0  0  0  0  0  0
   46.0860   33.0090   45.9120 O   0  0  0  0  0  0  0  0  0  0  0  0
   47.2060   35.1270   41.9230 O   0  0  0  0  0  0  0  0  0  0  0  0
   46.8630   34.2450   40.8570 C   0  0  0  0  0  0  0  0  0  0  0  0
   45.5210   34.3890   40.5490 F   0  0  0  0  0  0  0  0  0  0  0  0
   47.6120   34.6060   39.7360 F   0  0  0  0  0  0  0  0  0  0  0  0
   47.1930   32.9260   41.1670 F   0  0  0  0  0  0  0  0  0  0  0  0
   43.7222   36.6240   44.5671 H   0  0  0  0  0  0  0  0  0  0  0  0
   45.1205   36.8365   42.5218 H   0  0  0  0  0  0  0  0  0  0  0  0
   45.5604   32.8795   46.7409 H   0  0  0  0  0  0  0  0  0  0  0  0
  1  6  2  0
  2  1  1  0
  3  2  2  0
  3  4  1  0
  4  5  2  0
  5  6  1  0
  5  7  1  0
  8  3  1  0
  9 12  1  0
  9  8  1  0
 10  9  1  0
 11  9  1  0
  1 13  1  0
  2 14  1  0
  7 15  1  0
M  ISO  3  13  14  14  14  15   3
M  END
>  <minimizedAffinity>  (1) 
-3.89870739

>  <minimizedRMSD>  (1) 
0.0532211512

$$$$
