
     RDKit          3D

 32 33  0  0  1  0  0  0  0  0999 V2000
   44.7450   35.6550   44.1480 C   0  0  0  0  0  0  0  0  0  0  0  0
   45.2900   35.6760   42.8620 C   0  0  0  0  0  0  0  0  0  0  0  0
   46.2890   34.7710   42.5320 C   0  0  0  0  0  0  0  0  0  0  0  0
   46.6700   33.9140   43.4990 N   0  0  0  0  0  0  0  0  0  0  0  0
   46.1420   33.9020   44.7240 C   0  0  0  0  0  0  0  0  0  0  0  0
   45.1850   34.7670   45.0450 N   0  0  0  0  0  0  0  0  0  0  0  0
   46.6240   32.9210   45.7260 C   0  0  0  0  0  0  0  0  0  0  0  0
   46.0050   32.7650   46.8560 C   0  0  0  0  0  0  0  0  0  0  0  0
   46.4290   31.8070   47.9000 C   0  0  0  0  0  0  0  0  0  0  0  0
   47.8810   31.4140   47.7620 C   0  0  2  0  0  0  0  0  0  0  0  0
   48.1010   29.9620   47.5020 C   0  0  0  0  0  0  0  0  0  0  0  0
   48.8510   29.4660   48.7150 C   0  0  0  0  0  0  0  0  0  0  0  0
   48.8090   30.4690   49.6750 O   0  0  0  0  0  0  0  0  0  0  0  0
   48.6680   31.6860   48.9990 C   0  0  0  0  0  0  0  0  0  0  0  0
   46.9160   34.6760   41.3130 O   0  0  0  0  0  0  0  0  0  0  0  0
   48.2760   35.1000   41.2400 C   0  0  0  0  0  0  0  0  0  0  0  0
   49.1020   34.0330   41.6070 F   0  0  0  0  0  0  0  0  0  0  0  0
   48.5410   35.4400   39.9090 F   0  0  0  0  0  0  0  0  0  0  0  0
   48.5120   36.2170   42.0440 F   0  0  0  0  0  0  0  0  0  0  0  0
   43.9543   36.3688   44.4223 H   0  0  0  0  0  0  0  0  0  0  0  0
   44.9309   36.4026   42.1183 H   0  0  0  0  0  0  0  0  0  0  0  0
   47.5178   32.3177   45.5088 H   0  0  0  0  0  0  0  0  0  0  0  0
   45.1139   33.3806   47.0483 H   0  0  0  0  0  0  0  0  0  0  0  0
   46.2801   32.2702   48.8866 H   0  0  0  0  0  0  0  0  0  0  0  0
   45.8219   30.8966   47.7878 H   0  0  0  0  0  0  0  0  0  0  0  0
   48.2087   32.0226   46.9063 H   0  0  0  0  0  0  0  0  0  0  0  0
   47.1403   29.4364   47.3980 H   0  0  0  0  0  0  0  0  0  0  0  0
   48.6551   29.7852   46.5684 H   0  0  0  0  0  0  0  0  0  0  0  0
   48.3738   28.5545   49.1040 H   0  0  0  0  0  0  0  0  0  0  0  0
   49.8920   29.2256   48.4534 H   0  0  0  0  0  0  0  0  0  0  0  0
   49.6575   32.0877   48.7355 H   0  0  0  0  0  0  0  0  0  0  0  0
   48.1579   32.4275   49.6315 H   0  0  0  0  0  0  0  0  0  0  0  0
  1  6  2  0
  2  1  1  0
  3  2  2  0
  3  4  1  0
  4  5  2  0
  5  6  1  0
  5  7  1  0
  7  8  2  0
  8  9  1  0
 10  9  1  0
 10 14  1  0
 11 10  1  0
 11 12  1  0
 12 13  1  0
 14 13  1  0
 15  3  1  0
 16 15  1  0
 16 17  1  0
 16 19  1  0
 18 16  1  0
  1 20  1  0
  2 21  1  0
  7 22  1  0
  8 23  1  0
  9 24  1  0
  9 25  1  0
 10 26  1  6
 11 27  1  0
 11 28  1  0
 12 29  1  0
 12 30  1  0
 14 31  1  0
 14 32  1  0
M  ISO  8  20  14  21  14  24   8  25   8  26  13  27  13  28  13  29  13
M  ISO  3  30  13  31  13  32  13
M  END
>  <minimizedAffinity>  (1) 
-5.20295143

>  <minimizedRMSD>  (1) 
2.72901511

$$$$
