
     RDKit          3D

 33 34  0  0  0  0  0  0  0  0999 V2000
   44.4490   35.6810   45.1290 C   0  0  0  0  0  0  0  0  0  0  0  0
   44.4530   35.8180   43.7380 C   0  0  0  0  0  0  0  0  0  0  0  0
   45.1550   34.9070   42.9690 C   0  0  0  0  0  0  0  0  0  0  0  0
   45.8210   33.9030   43.6200 N   0  0  0  0  0  0  0  0  0  0  0  0
   45.8040   33.7910   44.9420 C   0  0  0  0  0  0  0  0  0  0  0  0
   45.1200   34.6780   45.6910 N   0  0  0  0  0  0  0  0  0  0  0  0
   46.5520   32.7020   45.5700 C   0  0  0  0  0  0  0  0  0  0  0  0
   46.9670   32.7940   46.8290 C   0  0  0  0  0  0  0  0  0  0  0  0
   47.7450   31.7550   47.5080 C   0  0  0  0  0  0  0  0  0  0  0  0
   47.0580   31.1110   48.5810 N   0  0  0  0  0  0  0  0  0  0  0  0
   46.4510   29.8910   48.0840 C   0  0  0  0  0  0  0  0  0  0  0  0
   44.9730   29.9870   48.2630 C   0  0  0  0  0  0  0  0  0  0  0  0
   44.8800   30.9260   49.4580 C   0  0  0  0  0  0  0  0  0  0  0  0
   46.0120   31.9130   49.1240 C   0  0  0  0  0  0  0  0  0  0  0  0
   45.2620   34.8990   41.5860 O   0  0  0  0  0  0  0  0  0  0  0  0
   44.0800   34.5690   40.8520 C   0  0  0  0  0  0  0  0  0  0  0  0
   43.4450   35.7360   40.4920 F   0  0  0  0  0  0  0  0  0  0  0  0
   44.4980   33.9090   39.6860 F   0  0  0  0  0  0  0  0  0  0  0  0
   43.2800   33.7010   41.5780 F   0  0  0  0  0  0  0  0  0  0  0  0
   43.8955   36.3967   45.7547 H   0  0  0  0  0  0  0  0  0  0  0  0
   43.9034   36.6420   43.2594 H   0  0  0  0  0  0  0  0  0  0  0  0
   46.7743   31.7933   44.9914 H   0  0  0  0  0  0  0  0  0  0  0  0
   46.7116   33.7027   47.3939 H   0  0  0  0  0  0  0  0  0  0  0  0
   48.0188   30.9901   46.7664 H   0  0  0  0  0  0  0  0  0  0  0  0
   48.6191   32.2555   47.9501 H   0  0  0  0  0  0  0  0  0  0  0  0
   46.8372   29.0288   48.6475 H   0  0  0  0  0  0  0  0  0  0  0  0
   46.6925   29.7581   47.0191 H   0  0  0  0  0  0  0  0  0  0  0  0
   44.4864   30.4158   47.3746 H   0  0  0  0  0  0  0  0  0  0  0  0
   44.4722   29.0187   48.4098 H   0  0  0  0  0  0  0  0  0  0  0  0
   43.9028   31.4289   49.5049 H   0  0  0  0  0  0  0  0  0  0  0  0
   44.9735   30.4340   50.4374 H   0  0  0  0  0  0  0  0  0  0  0  0
   46.3541   32.4297   50.0328 H   0  0  0  0  0  0  0  0  0  0  0  0
   45.6840   32.6926   48.4208 H   0  0  0  0  0  0  0  0  0  0  0  0
  1  6  2  0
  2  1  1  0
  3  4  1  0
  3  2  2  0
  4  5  2  0
  5  7  1  0
  5  6  1  0
  7  8  2  0
  8  9  1  0
  9 10  1  0
 10 14  1  0
 11 12  1  0
 11 10  1  0
 12 13  1  0
 14 13  1  0
 15  3  1  0
 16 19  1  0
 16 15  1  0
 17 16  1  0
 18 16  1  0
  1 20  1  0
  2 21  1  0
  7 22  1  0
  8 23  1  0
  9 24  1  0
  9 25  1  0
 11 26  1  0
 11 27  1  0
 12 28  1  0
 12 29  1  0
 13 30  1  0
 13 31  1  0
 14 32  1  0
 14 33  1  0
M  ISO  8  20  14  21  14  24   8  25   8  26  13  27  13  28  13  29  13
M  ISO  4  30  13  31  13  32  13  33  13
M  END
>  <minimizedAffinity>  (1) 
-4.88181543

>  <minimizedRMSD>  (1) 
2.16674376

$$$$
