
     RDKit          3D

 25 25  0  0  0  0  0  0  0  0999 V2000
   44.7650   34.9440   43.6360 C   0  0  0  0  0  0  0  0  0  0  0  0
   45.6620   35.5140   42.7190 C   0  0  0  0  0  0  0  0  0  0  0  0
   46.9830   35.0840   42.7180 C   0  0  0  0  0  0  0  0  0  0  0  0
   47.3160   34.1360   43.6100 N   0  0  0  0  0  0  0  0  0  0  0  0
   46.4590   33.5970   44.4810 C   0  0  0  0  0  0  0  0  0  0  0  0
   45.1720   34.0020   44.4980 N   0  0  0  0  0  0  0  0  0  0  0  0
   46.8880   32.5610   45.4230 C   0  0  0  0  0  0  0  0  0  0  0  0
   46.7230   32.6770   46.7110 C   0  0  0  0  0  0  0  0  0  0  0  0
   47.1530   31.6220   47.6500 C   0  0  0  0  0  0  0  0  0  0  0  0
   45.3830   30.6680   48.8100 C   0  0  0  0  0  0  0  0  0  0  0  0
   45.2290   31.5030   49.7380 O   0  0  0  0  0  0  0  0  0  0  0  0
   46.2400   30.5060   47.6860 N   0  0  0  0  0  0  0  0  0  0  0  0
   47.9560   35.5550   41.8790 O   0  0  0  0  0  0  0  0  0  0  0  0
   48.1910   34.8130   40.6760 C   0  0  0  0  0  0  0  0  0  0  0  0
   46.9670   34.3930   40.1530 F   0  0  0  0  0  0  0  0  0  0  0  0
   48.8030   35.6820   39.7660 F   0  0  0  0  0  0  0  0  0  0  0  0
   49.0480   33.7350   40.8960 F   0  0  0  0  0  0  0  0  0  0  0  0
   43.7158   35.2743   43.6472 H   0  0  0  0  0  0  0  0  0  0  0  0
   45.3248   36.2877   42.0135 H   0  0  0  0  0  0  0  0  0  0  0  0
   47.3667   31.6521   45.0296 H   0  0  0  0  0  0  0  0  0  0  0  0
   46.2500   33.5867   47.1094 H   0  0  0  0  0  0  0  0  0  0  0  0
   48.1435   31.2571   47.3404 H   0  0  0  0  0  0  0  0  0  0  0  0
   47.1799   32.0632   48.6573 H   0  0  0  0  0  0  0  0  0  0  0  0
   44.6616   29.8413   48.8886 H   0  0  0  0  0  0  0  0  0  0  0  0
   46.2131   29.7261   47.0138 H   0  0  0  0  0  0  0  0  0  0  0  0
  1  6  2  0
  2  1  1  0
  3  2  2  0
  3  4  1  0
  4  5  2  0
  5  6  1  0
  5  7  1  0
  7  8  2  0
  8  9  1  0
  9 12  1  0
 10 11  2  0
 12 10  1  0
 13  3  1  0
 14 17  1  0
 14 13  1  0
 15 14  1  0
 16 14  1  0
  1 18  1  0
  2 19  1  0
  7 20  1  0
  8 21  1  0
  9 22  1  0
  9 23  1  0
 10 24  1  0
 12 25  1  0
M  ISO  5  18  14  19  14  22   8  23   8  24   6
M  END
>  <minimizedAffinity>  (1) 
-4.79893398

>  <minimizedRMSD>  (1) 
1.87478852

$$$$
