
     RDKit          3D

 35 36  0  0  0  0  0  0  0  0999 V2000
   47.3430   31.1500   47.3630 C   0  0  0  0  0  0  0  0  0  0  0  0
   45.5260   29.6990   47.5790 C   0  0  0  0  0  0  0  0  0  0  0  0
   44.8480   30.3430   48.4230 O   0  0  0  0  0  0  0  0  0  0  0  0
   46.7400   29.9380   46.9000 N   0  0  0  0  0  0  0  0  0  0  0  0
   44.2350   29.2400   44.8410 Cl  0  0  0  0  0  0  0  0  0  0  0  0
   44.1770   28.0570   46.1290 C   0  0  0  0  0  0  0  0  0  0  0  0
   44.8030   28.4220   47.3020 C   0  0  0  0  0  0  0  0  0  0  0  0
   44.8020   27.5340   48.3840 C   0  0  0  0  0  0  0  0  0  0  0  0
   44.1970   26.2950   48.3340 C   0  0  0  0  0  0  0  0  0  0  0  0
   43.5680   25.9450   47.1370 C   0  0  0  0  0  0  0  0  0  0  0  0
   43.5640   26.8230   46.0550 C   0  0  0  0  0  0  0  0  0  0  0  0
   46.9570   32.3090   45.2680 C   0  0  0  0  0  0  0  0  0  0  0  0
   46.9040   32.3270   46.5640 C   0  0  0  0  0  0  0  0  0  0  0  0
   44.8740   34.9160   43.7920 C   0  0  0  0  0  0  0  0  0  0  0  0
   45.7480   35.5200   42.8780 C   0  0  0  0  0  0  0  0  0  0  0  0
   47.0560   35.0320   42.7670 C   0  0  0  0  0  0  0  0  0  0  0  0
   47.3860   33.9950   43.5640 N   0  0  0  0  0  0  0  0  0  0  0  0
   46.5410   33.4290   44.4320 C   0  0  0  0  0  0  0  0  0  0  0  0
   45.2730   33.8890   44.5520 N   0  0  0  0  0  0  0  0  0  0  0  0
   48.0070   35.5230   41.9210 O   0  0  0  0  0  0  0  0  0  0  0  0
   48.2140   34.8280   40.6890 C   0  0  0  0  0  0  0  0  0  0  0  0
   46.9760   34.4100   40.1820 F   0  0  0  0  0  0  0  0  0  0  0  0
   48.8020   35.7150   39.7870 F   0  0  0  0  0  0  0  0  0  0  0  0
   49.0600   33.7210   40.8520 F   0  0  0  0  0  0  0  0  0  0  0  0
   47.0615   31.3086   48.4145 H   0  0  0  0  0  0  0  0  0  0  0  0
   48.4333   31.0518   47.2558 H   0  0  0  0  0  0  0  0  0  0  0  0
   47.1364   29.3256   46.1729 H   0  0  0  0  0  0  0  0  0  0  0  0
   45.3052   27.8370   49.3141 H   0  0  0  0  0  0  0  0  0  0  0  0
   44.2095   25.6138   49.1976 H   0  0  0  0  0  0  0  0  0  0  0  0
   43.0714   24.9676   47.0477 H   0  0  0  0  0  0  0  0  0  0  0  0
   43.0617   26.5262   45.1225 H   0  0  0  0  0  0  0  0  0  0  0  0
   47.3354   31.4019   44.7741 H   0  0  0  0  0  0  0  0  0  0  0  0
   46.5297   33.2238   47.0795 H   0  0  0  0  0  0  0  0  0  0  0  0
   43.8444   35.2917   43.8862 H   0  0  0  0  0  0  0  0  0  0  0  0
   45.4120   36.3640   42.2577 H   0  0  0  0  0  0  0  0  0  0  0  0
  2  3  2  0
  4  1  1  0
  4  2  1  0
  5  6  1  0
  6  7  2  0
  7  2  1  0
  7  8  1  0
  9  8  2  0
 10  9  1  0
 11  6  1  0
 11 10  2  0
 12 13  2  0
 13  1  1  0
 14 19  2  0
 15 14  1  0
 16 15  2  0
 16 17  1  0
 17 18  2  0
 18 19  1  0
 18 12  1  0
 20 16  1  0
 21 24  1  0
 21 20  1  0
 22 21  1  0
 23 21  1  0
  1 25  1  0
  1 26  1  0
  4 27  1  0
  8 28  1  0
  9 29  1  0
 10 30  1  0
 11 31  1  0
 12 32  1  0
 13 33  1  0
 14 34  1  0
 15 35  1  0
M  ISO  8  25   8  26   8  28  14  29  14  30  14  31  14  34  14  35  14
M  END
>  <minimizedAffinity>  (1) 
-5.54073429

>  <minimizedRMSD>  (1) 
1.5751251

$$$$
