
     RDKit          3D

 38 39  0  0  0  0  0  0  0  0999 V2000
   46.4180   31.9950   48.8190 C   0  0  0  0  0  0  0  0  0  0  0  0
   48.5090   31.0460   49.2730 C   0  0  0  0  0  0  0  0  0  0  0  0
   49.2460   32.0140   48.9700 O   0  0  0  0  0  0  0  0  0  0  0  0
   47.1190   30.8280   49.2950 N   0  0  0  0  0  0  0  0  0  0  0  0
   49.6030   28.7570   48.9860 C   0  0  0  0  0  0  0  0  0  0  0  0
   49.3620   29.8960   49.6930 C   0  0  0  0  0  0  0  0  0  0  0  0
   49.9310   30.1200   50.9520 C   0  0  0  0  0  0  0  0  0  0  0  0
   50.7700   29.1330   51.4900 C   0  0  0  0  0  0  0  0  0  0  0  0
   51.0290   27.9610   50.7810 C   0  0  0  0  0  0  0  0  0  0  0  0
   50.4300   27.8000   49.5290 C   0  0  0  0  0  0  0  0  0  0  0  0
   48.8510   28.5830   47.4440 S   0  0  0  0  0  0  0  0  0  0  0  0
   49.7470   29.2310   46.4050 O   0  0  0  0  0  0  0  0  0  0  0  0
   48.7370   27.1170   47.0920 O   0  0  0  0  0  0  0  0  0  0  0  0
   46.6540   32.9110   46.5880 C   0  0  0  0  0  0  0  0  0  0  0  0
   46.1930   31.9670   47.3630 C   0  0  0  0  0  0  0  0  0  0  0  0
   45.5950   31.8670   43.2550 C   0  0  0  0  0  0  0  0  0  0  0  0
   46.0690   32.9130   42.4470 C   0  0  0  0  0  0  0  0  0  0  0  0
   46.7480   33.9690   43.0400 C   0  0  0  0  0  0  0  0  0  0  0  0
   46.9080   33.9170   44.3820 N   0  0  0  0  0  0  0  0  0  0  0  0
   46.4530   32.9210   45.1380 C   0  0  0  0  0  0  0  0  0  0  0  0
   45.7910   31.8840   44.5790 N   0  0  0  0  0  0  0  0  0  0  0  0
   47.2640   35.0530   42.3660 O   0  0  0  0  0  0  0  0  0  0  0  0
   48.6460   34.9640   41.9640 C   0  0  0  0  0  0  0  0  0  0  0  0
   48.8200   33.7890   41.2260 F   0  0  0  0  0  0  0  0  0  0  0  0
   48.8960   36.0700   41.1410 F   0  0  0  0  0  0  0  0  0  0  0  0
   49.5110   35.0160   43.0580 F   0  0  0  0  0  0  0  0  0  0  0  0
   45.4429   32.0509   49.3250 H   0  0  0  0  0  0  0  0  0  0  0  0
   47.0424   32.8726   49.0425 H   0  0  0  0  0  0  0  0  0  0  0  0
   46.6659   29.9573   49.6072 H   0  0  0  0  0  0  0  0  0  0  0  0
   49.7252   31.0477   51.5062 H   0  0  0  0  0  0  0  0  0  0  0  0
   51.2271   29.2849   52.4789 H   0  0  0  0  0  0  0  0  0  0  0  0
   51.6874   27.1837   51.1961 H   0  0  0  0  0  0  0  0  0  0  0  0
   50.6255   26.8795   48.9594 H   0  0  0  0  0  0  0  0  0  0  0  0
   47.6087   29.1598   47.4745 H   0  0  0  0  0  0  0  0  0  0  0  0
   47.2192   33.7365   47.0454 H   0  0  0  0  0  0  0  0  0  0  0  0
   45.6258   31.1348   46.9207 H   0  0  0  0  0  0  0  0  0  0  0  0
   45.0570   31.0249   42.7952 H   0  0  0  0  0  0  0  0  0  0  0  0
   45.9047   32.8961   41.3595 H   0  0  0  0  0  0  0  0  0  0  0  0
  1  4  1  0
  2  4  1  0
  2  6  1  0
  3  2  2  0
  5 10  2  0
  5  6  1  0
  6  7  2  0
  7  8  1  0
  9  8  2  0
 10  9  1  0
 11  5  1  0
 12 11  2  0
 13 11  2  0
 14 15  2  0
 15  1  1  0
 16 21  2  0
 17 18  2  0
 17 16  1  0
 18 19  1  0
 19 20  2  0
 20 14  1  0
 21 20  1  0
 22 18  1  0
 23 22  1  0
 23 26  1  0
 24 23  1  0
 25 23  1  0
  1 27  1  0
  1 28  1  0
  4 29  1  0
  7 30  1  0
  8 31  1  0
  9 32  1  0
 10 33  1  0
 11 34  1  0
 14 35  1  0
 15 36  1  0
 16 37  1  0
 17 38  1  0
M  ISO  8  27   8  28   8  30  14  31  14  32  14  33  14  34  11  37  14
M  ISO  1  38  14
M  END
>  <minimizedAffinity>  (1) 
-5.41116238

>  <minimizedRMSD>  (1) 
3.99059844

$$$$
