
     RDKit          3D

 39 40  0  0  0  0  0  0  0  0999 V2000
   46.9730   31.6120   47.6480 C   0  0  0  0  0  0  0  0  0  0  0  0
   45.5510   29.7260   47.8300 C   0  0  0  0  0  0  0  0  0  0  0  0
   45.0210   30.0350   48.9300 O   0  0  0  0  0  0  0  0  0  0  0  0
   46.5710   30.3550   47.0790 N   0  0  0  0  0  0  0  0  0  0  0  0
   44.9290   28.5070   47.3510 N   0  0  0  0  0  0  0  0  0  0  0  0
   44.7350   27.4310   48.3090 C   0  0  0  0  0  0  0  0  0  0  0  0
   45.6690   26.3320   47.8430 C   0  0  0  0  0  0  0  0  0  0  0  0
   45.1220   25.8370   46.5900 N   0  0  0  0  0  0  0  0  0  0  0  0
   45.0260   26.8230   45.5670 C   0  0  0  0  0  0  0  0  0  0  0  0
   44.4320   28.1280   46.0250 C   0  0  0  0  0  0  0  0  0  0  0  0
   46.5310   32.6140   45.4730 C   0  0  0  0  0  0  0  0  0  0  0  0
   46.6510   32.7470   46.7740 C   0  0  0  0  0  0  0  0  0  0  0  0
   44.7540   35.4250   43.9500 C   0  0  0  0  0  0  0  0  0  0  0  0
   45.6480   35.8270   42.9440 C   0  0  0  0  0  0  0  0  0  0  0  0
   46.8510   35.1340   42.7950 C   0  0  0  0  0  0  0  0  0  0  0  0
   47.0740   34.1190   43.6340 N   0  0  0  0  0  0  0  0  0  0  0  0
   46.2100   33.7440   44.5910 C   0  0  0  0  0  0  0  0  0  0  0  0
   45.0510   34.3960   44.7510 N   0  0  0  0  0  0  0  0  0  0  0  0
   47.8030   35.4280   41.8560 O   0  0  0  0  0  0  0  0  0  0  0  0
   47.8650   34.5880   40.7040 C   0  0  0  0  0  0  0  0  0  0  0  0
   46.5580   34.2790   40.3010 F   0  0  0  0  0  0  0  0  0  0  0  0
   48.4970   35.3220   39.6890 F   0  0  0  0  0  0  0  0  0  0  0  0
   48.6020   33.4350   40.9400 F   0  0  0  0  0  0  0  0  0  0  0  0
   46.4550   31.7472   48.6089 H   0  0  0  0  0  0  0  0  0  0  0  0
   48.0647   31.5880   47.7804 H   0  0  0  0  0  0  0  0  0  0  0  0
   46.9796   29.9572   46.2212 H   0  0  0  0  0  0  0  0  0  0  0  0
   45.0004   27.7620   49.3239 H   0  0  0  0  0  0  0  0  0  0  0  0
   43.6879   27.0971   48.3553 H   0  0  0  0  0  0  0  0  0  0  0  0
   46.6809   26.7334   47.6849 H   0  0  0  0  0  0  0  0  0  0  0  0
   45.7467   25.5290   48.5908 H   0  0  0  0  0  0  0  0  0  0  0  0
   45.7283   25.0767   46.2504 H   0  0  0  0  0  0  0  0  0  0  0  0
   44.3970   26.4220   44.7586 H   0  0  0  0  0  0  0  0  0  0  0  0
   46.0531   27.0400   45.2383 H   0  0  0  0  0  0  0  0  0  0  0  0
   44.6992   28.9150   45.3045 H   0  0  0  0  0  0  0  0  0  0  0  0
   43.3402   28.0083   46.0862 H   0  0  0  0  0  0  0  0  0  0  0  0
   46.6763   31.6190   45.0270 H   0  0  0  0  0  0  0  0  0  0  0  0
   46.5056   33.7405   47.2233 H   0  0  0  0  0  0  0  0  0  0  0  0
   43.8021   35.9607   44.0801 H   0  0  0  0  0  0  0  0  0  0  0  0
   45.4046   36.6733   42.2848 H   0  0  0  0  0  0  0  0  0  0  0  0
  2  3  2  0
  4  1  1  0
  4  2  1  0
  5  2  1  0
  5  6  1  0
  7  6  1  0
  8  7  1  0
  9 10  1  0
  9  8  1  0
 10  5  1  0
 11 12  2  0
 12  1  1  0
 13 18  2  0
 14 13  1  0
 15 14  2  0
 15 16  1  0
 16 17  2  0
 17 18  1  0
 17 11  1  0
 19 15  1  0
 20 23  1  0
 20 19  1  0
 21 20  1  0
 22 20  1  0
  1 24  1  0
  1 25  1  0
  4 26  1  0
  6 27  1  0
  6 28  1  0
  7 29  1  0
  7 30  1  0
  8 31  1  0
  9 32  1  0
  9 33  1  0
 10 34  1  0
 10 35  1  0
 11 36  1  0
 12 37  1  0
 13 38  1  0
 14 39  1  0
M  ISO  8  24   8  25   8  27  13  28  13  29  13  30  13  31   5  32  13
M  ISO  5  33  13  34  13  35  13  38  14  39  14
M  END
>  <minimizedAffinity>  (1) 
-5.2590189

>  <minimizedRMSD>  (1) 
1.52336538

$$$$
