
     RDKit          3D

 32 33  0  0  0  0  0  0  0  0999 V2000
   44.7490   34.9020   43.6140 C   0  0  0  0  0  0  0  0  0  0  0  0
   45.6450   35.4730   42.6980 C   0  0  0  0  0  0  0  0  0  0  0  0
   46.9630   35.0670   42.7200 C   0  0  0  0  0  0  0  0  0  0  0  0
   47.3180   34.1370   43.6300 N   0  0  0  0  0  0  0  0  0  0  0  0
   46.4640   33.5980   44.4990 C   0  0  0  0  0  0  0  0  0  0  0  0
   45.1690   33.9780   44.4980 N   0  0  0  0  0  0  0  0  0  0  0  0
   46.8920   32.5910   45.4710 C   0  0  0  0  0  0  0  0  0  0  0  0
   46.8090   32.7700   46.7620 C   0  0  0  0  0  0  0  0  0  0  0  0
   47.2430   31.7470   47.7240 C   0  0  0  0  0  0  0  0  0  0  0  0
   45.7150   29.9870   47.9910 C   0  0  0  0  0  0  0  0  0  0  0  0
   45.0280   30.5010   48.9010 O   0  0  0  0  0  0  0  0  0  0  0  0
   46.8760   30.4210   47.3170 N   0  0  0  0  0  0  0  0  0  0  0  0
   45.0770   28.6610   47.6390 C   0  0  0  0  0  0  0  0  0  0  0  0
   45.5320   27.8790   46.4920 C   0  0  0  0  0  0  0  0  0  0  0  0
   44.2740   28.6570   46.3360 C   0  0  0  0  0  0  0  0  0  0  0  0
   47.9400   35.5410   41.8830 O   0  0  0  0  0  0  0  0  0  0  0  0
   48.1770   34.8030   40.6770 C   0  0  0  0  0  0  0  0  0  0  0  0
   46.9600   34.3850   40.1470 F   0  0  0  0  0  0  0  0  0  0  0  0
   48.7940   35.6650   39.7730 F   0  0  0  0  0  0  0  0  0  0  0  0
   49.0410   33.7250   40.9010 F   0  0  0  0  0  0  0  0  0  0  0  0
   43.6937   35.2122   43.6098 H   0  0  0  0  0  0  0  0  0  0  0  0
   45.3032   36.2296   41.9764 H   0  0  0  0  0  0  0  0  0  0  0  0
   47.3019   31.6410   45.0975 H   0  0  0  0  0  0  0  0  0  0  0  0
   46.4007   33.7180   47.1421 H   0  0  0  0  0  0  0  0  0  0  0  0
   48.3376   31.7960   47.8217 H   0  0  0  0  0  0  0  0  0  0  0  0
   46.7425   31.9539   48.6814 H   0  0  0  0  0  0  0  0  0  0  0  0
   47.3920   29.8600   46.6242 H   0  0  0  0  0  0  0  0  0  0  0  0
   44.9198   28.4058   48.6974 H   0  0  0  0  0  0  0  0  0  0  0  0
   46.4345   28.1910   45.9459 H   0  0  0  0  0  0  0  0  0  0  0  0
   45.7975   26.8214   46.3471 H   0  0  0  0  0  0  0  0  0  0  0  0
   44.2492   29.5511   45.6957 H   0  0  0  0  0  0  0  0  0  0  0  0
   43.2365   28.4320   46.0481 H   0  0  0  0  0  0  0  0  0  0  0  0
  1  6  2  0
  2  3  2  0
  2  1  1  0
  3  4  1  0
  4  5  2  0
  5  7  1  0
  6  5  1  0
  7  8  2  0
  8  9  1  0
 10 11  2  0
 12  9  1  0
 12 10  1  0
 13 10  1  0
 14 13  1  0
 15 14  1  0
 15 13  1  0
 16  3  1  0
 17 20  1  0
 17 16  1  0
 18 17  1  0
 19 17  1  0
  1 21  1  0
  2 22  1  0
  7 23  1  0
  8 24  1  0
  9 25  1  0
  9 26  1  0
 12 27  1  0
 13 28  1  0
 14 29  1  0
 14 30  1  0
 15 31  1  0
 15 32  1  0
M  ISO  8  21  14  22  14  25   8  26   8  28  13  29  13  30  13  31  13
M  ISO  1  32  13
M  END
>  <minimizedAffinity>  (1) 
-5.01833344

>  <minimizedRMSD>  (1) 
0.87134558

$$$$
