
     RDKit          3D

 45 47  0  0  0  0  0  0  0  0999 V2000
   51.1740   31.8720   51.2750 C   0  0  0  0  0  0  0  0  0  0  0  0
   51.3260   30.6240   51.9430 C   0  0  0  0  0  0  0  0  0  0  0  0
   50.5540   29.5430   51.5460 C   0  0  0  0  0  0  0  0  0  0  0  0
   49.7050   29.7540   50.5450 N   0  0  0  0  0  0  0  0  0  0  0  0
   49.5550   30.9230   49.9140 C   0  0  0  0  0  0  0  0  0  0  0  0
   50.2870   31.9900   50.2720 N   0  0  0  0  0  0  0  0  0  0  0  0
   54.3030   30.1310   51.3860 Cl  0  0  0  0  0  0  0  0  0  0  0  0
   53.7060   30.5580   52.9780 C   0  0  0  0  0  0  0  0  0  0  0  0
   52.3370   30.7320   52.9780 C   0  0  0  0  0  0  0  0  0  0  0  0
   51.7230   31.0800   54.1890 C   0  0  0  0  0  0  0  0  0  0  0  0
   52.4670   31.2460   55.3560 C   0  0  0  0  0  0  0  0  0  0  0  0
   53.8280   31.0660   55.3190 C   0  0  0  0  0  0  0  0  0  0  0  0
   54.4380   30.7230   54.1320 C   0  0  0  0  0  0  0  0  0  0  0  0
   48.5870   31.0650   48.8230 C   0  0  0  0  0  0  0  0  0  0  0  0
   47.6830   32.0170   48.8080 C   0  0  0  0  0  0  0  0  0  0  0  0
   46.7170   32.1250   47.6830 C   0  0  0  0  0  0  0  0  0  0  0  0
   46.6400   32.7360   45.4260 C   0  0  0  0  0  0  0  0  0  0  0  0
   45.8910   31.8370   44.9630 O   0  0  0  0  0  0  0  0  0  0  0  0
   47.1220   33.0340   46.6990 N   0  0  0  0  0  0  0  0  0  0  0  0
   44.9260   35.0990   44.5490 Cl  0  0  0  0  0  0  0  0  0  0  0  0
   46.2970   34.5490   43.6240 C   0  0  0  0  0  0  0  0  0  0  0  0
   46.9260   33.4820   44.1940 C   0  0  0  0  0  0  0  0  0  0  0  0
   48.0510   32.9110   43.5790 C   0  0  0  0  0  0  0  0  0  0  0  0
   48.5270   33.4420   42.3780 C   0  0  0  0  0  0  0  0  0  0  0  0
   47.8760   34.5160   41.8230 C   0  0  0  0  0  0  0  0  0  0  0  0
   48.4140   35.2280   40.3220 Cl  0  0  0  0  0  0  0  0  0  0  0  0
   46.7660   35.0650   42.4460 C   0  0  0  0  0  0  0  0  0  0  0  0
   50.6650   28.3420   52.1520 O   0  0  0  0  0  0  0  0  0  0  0  0
   51.6220   27.4150   51.6080 C   0  0  0  0  0  0  0  0  0  0  0  0
   52.0900   27.9050   50.3980 F   0  0  0  0  0  0  0  0  0  0  0  0
   52.6820   27.3930   52.5180 F   0  0  0  0  0  0  0  0  0  0  0  0
   51.1160   26.1220   51.4900 F   0  0  0  0  0  0  0  0  0  0  0  0
   51.7810   32.7376   51.5789 H   0  0  0  0  0  0  0  0  0  0  0  0
   50.6330   31.2249   54.2190 H   0  0  0  0  0  0  0  0  0  0  0  0
   51.9686   31.5187   56.2979 H   0  0  0  0  0  0  0  0  0  0  0  0
   54.4279   31.1949   56.2320 H   0  0  0  0  0  0  0  0  0  0  0  0
   55.5282   30.5786   54.1062 H   0  0  0  0  0  0  0  0  0  0  0  0
   48.6189   30.3495   47.9881 H   0  0  0  0  0  0  0  0  0  0  0  0
   47.6399   32.7410   49.6350 H   0  0  0  0  0  0  0  0  0  0  0  0
   46.6063   31.1334   47.2198 H   0  0  0  0  0  0  0  0  0  0  0  0
   45.7674   32.4925   48.0992 H   0  0  0  0  0  0  0  0  0  0  0  0
   47.7210   33.8481   46.8974 H   0  0  0  0  0  0  0  0  0  0  0  0
   48.5555   32.0494   44.0407 H   0  0  0  0  0  0  0  0  0  0  0  0
   49.4088   33.0070   41.8849 H   0  0  0  0  0  0  0  0  0  0  0  0
   46.2560   35.9255   41.9883 H   0  0  0  0  0  0  0  0  0  0  0  0
  1  2  2  0
  2  9  1  0
  3  2  1  0
  3 28  1  0
  4  3  2  0
  5  6  2  0
  5  4  1  0
  6  1  1  0
  7  8  1  0
  8 13  2  0
  9  8  1  0
  9 10  2  0
 10 11  1  0
 12 11  2  0
 13 12  1  0
 14  5  1  0
 15 14  2  0
 16 15  1  0
 17 19  1  0
 18 17  2  0
 19 16  1  0
 21 22  2  0
 21 20  1  0
 22 17  1  0
 23 22  1  0
 24 23  2  0
 25 24  1  0
 25 27  2  0
 26 25  1  0
 27 21  1  0
 29 28  1  0
 29 31  1  0
 30 29  1  0
 32 29  1  0
  1 33  1  0
 10 34  1  0
 11 35  1  0
 12 36  1  0
 13 37  1  0
 14 38  1  0
 15 39  1  0
 16 40  1  0
 16 41  1  0
 19 42  1  0
 23 43  1  0
 24 44  1  0
 27 45  1  0
M  ISO  8  33  14  34  14  35  14  36  14  37  14  40   8  41   8  43  14
M  ISO  2  44  14  45  14
M  END
>  <minimizedAffinity>  (1) 
-7.47006321

>  <minimizedRMSD>  (1) 
0.390442491

$$$$
