
     RDKit          3D

 45 47  0  0  0  0  0  0  0  0999 V2000
   51.1070   31.9760   51.2970 C   0  0  0  0  0  0  0  0  0  0  0  0
   51.2410   30.7290   51.9750 C   0  0  0  0  0  0  0  0  0  0  0  0
   50.4960   29.6420   51.5470 C   0  0  0  0  0  0  0  0  0  0  0  0
   49.6860   29.8340   50.5050 N   0  0  0  0  0  0  0  0  0  0  0  0
   49.5580   31.0120   49.8640 C   0  0  0  0  0  0  0  0  0  0  0  0
   50.2660   32.0840   50.2560 N   0  0  0  0  0  0  0  0  0  0  0  0
   53.9220   30.3500   50.8540 Cl  0  0  0  0  0  0  0  0  0  0  0  0
   53.4890   30.6520   52.5450 C   0  0  0  0  0  0  0  0  0  0  0  0
   52.1990   30.8420   53.0580 C   0  0  0  0  0  0  0  0  0  0  0  0
   52.0790   31.0640   54.4050 C   0  0  0  0  0  0  0  0  0  0  0  0
   53.1830   31.1000   55.2270 C   0  0  0  0  0  0  0  0  0  0  0  0
   54.4510   30.9130   54.7180 C   0  0  0  0  0  0  0  0  0  0  0  0
   55.8050   30.9740   55.8330 Cl  0  0  0  0  0  0  0  0  0  0  0  0
   54.6130   30.6880   53.3720 C   0  0  0  0  0  0  0  0  0  0  0  0
   48.6390   31.1420   48.7320 C   0  0  0  0  0  0  0  0  0  0  0  0
   47.5640   31.8960   48.7870 C   0  0  0  0  0  0  0  0  0  0  0  0
   46.6490   32.0060   47.6210 C   0  0  0  0  0  0  0  0  0  0  0  0
   46.6120   32.7010   45.3870 C   0  0  0  0  0  0  0  0  0  0  0  0
   45.8470   31.8540   44.8880 O   0  0  0  0  0  0  0  0  0  0  0  0
   47.0980   32.9360   46.6700 N   0  0  0  0  0  0  0  0  0  0  0  0
   44.9130   35.0930   44.5410 Cl  0  0  0  0  0  0  0  0  0  0  0  0
   46.3060   34.5860   43.6450 C   0  0  0  0  0  0  0  0  0  0  0  0
   46.9300   33.4930   44.1920 C   0  0  0  0  0  0  0  0  0  0  0  0
   48.0770   32.9540   43.5900 C   0  0  0  0  0  0  0  0  0  0  0  0
   48.5890   33.5290   42.4290 C   0  0  0  0  0  0  0  0  0  0  0  0
   47.9410   34.6350   41.8920 C   0  0  0  0  0  0  0  0  0  0  0  0
   48.5340   35.4000   40.4380 Cl  0  0  0  0  0  0  0  0  0  0  0  0
   46.8220   35.1450   42.4980 C   0  0  0  0  0  0  0  0  0  0  0  0
   50.5910   28.4420   52.1590 O   0  0  0  0  0  0  0  0  0  0  0  0
   51.5170   27.4910   51.6100 C   0  0  0  0  0  0  0  0  0  0  0  0
   51.9620   27.9450   50.3730 F   0  0  0  0  0  0  0  0  0  0  0  0
   52.6060   27.4760   52.4860 F   0  0  0  0  0  0  0  0  0  0  0  0
   50.9950   26.2030   51.5330 F   0  0  0  0  0  0  0  0  0  0  0  0
   51.6914   32.8478   51.6261 H   0  0  0  0  0  0  0  0  0  0  0  0
   51.0797   31.2166   54.8386 H   0  0  0  0  0  0  0  0  0  0  0  0
   53.0518   31.2803   56.3042 H   0  0  0  0  0  0  0  0  0  0  0  0
   55.6180   30.5378   52.9507 H   0  0  0  0  0  0  0  0  0  0  0  0
   48.8553   30.5906   47.8051 H   0  0  0  0  0  0  0  0  0  0  0  0
   47.3384   32.4531   49.7083 H   0  0  0  0  0  0  0  0  0  0  0  0
   46.5706   31.0198   47.1401 H   0  0  0  0  0  0  0  0  0  0  0  0
   45.6741   32.3536   47.9934 H   0  0  0  0  0  0  0  0  0  0  0  0
   47.7275   33.7182   46.8999 H   0  0  0  0  0  0  0  0  0  0  0  0
   48.5717   32.0778   44.0345 H   0  0  0  0  0  0  0  0  0  0  0  0
   49.4876   33.1162   41.9472 H   0  0  0  0  0  0  0  0  0  0  0  0
   46.3248   36.0216   42.0571 H   0  0  0  0  0  0  0  0  0  0  0  0
  1  2  2  0
  2  9  1  0
  3  2  1  0
  3 29  1  0
  4  3  2  0
  5  6  2  0
  5  4  1  0
  6  1  1  0
  7  8  1  0
  8  9  2  0
  8 14  1  0
  9 10  1  0
 10 11  2  0
 12 11  1  0
 12 13  1  0
 14 12  2  0
 15 16  2  0
 15  5  1  0
 17 16  1  0
 18 20  1  0
 19 18  2  0
 20 17  1  0
 22 23  2  0
 22 21  1  0
 23 18  1  0
 24 23  1  0
 25 24  2  0
 26 25  1  0
 26 28  2  0
 27 26  1  0
 28 22  1  0
 30 29  1  0
 30 32  1  0
 31 30  1  0
 33 30  1  0
  1 34  1  0
 10 35  1  0
 11 36  1  0
 14 37  1  0
 15 38  1  0
 16 39  1  0
 17 40  1  0
 17 41  1  0
 20 42  1  0
 24 43  1  0
 25 44  1  0
 28 45  1  0
M  ISO  8  34  14  35  14  36  14  37  14  40   8  41   8  43  14  44  14
M  ISO  1  45  14
M  END
>  <minimizedAffinity>  (1) 
-7.38413286

>  <minimizedRMSD>  (1) 
0.706887722

$$$$
