
     RDKit          3D

 48 50  0  0  1  0  0  0  0  0999 V2000
   51.2740   32.2250   50.9280 C   0  0  0  0  0  0  0  0  0  0  0  0
   51.3920   31.0260   51.6730 C   0  0  0  0  0  0  0  0  0  0  0  0
   50.5540   29.9640   51.3700 C   0  0  0  0  0  0  0  0  0  0  0  0
   49.6650   30.1290   50.3780 N   0  0  0  0  0  0  0  0  0  0  0  0
   49.5610   31.2700   49.6800 C   0  0  0  0  0  0  0  0  0  0  0  0
   50.3640   32.3280   49.9470 N   0  0  0  0  0  0  0  0  0  0  0  0
   52.6370   32.4220   53.3540 C   0  0  2  0  0  0  0  0  0  0  0  0
   52.4400   31.1000   52.7360 C   0  0  1  0  0  0  0  0  0  0  0  0
   52.1690   30.2100   53.7680 O   0  0  0  0  0  0  0  0  0  0  0  0
   51.9200   30.8430   54.9300 C   0  0  0  0  0  0  0  0  0  0  0  0
   52.2620   32.2780   54.7810 C   0  0  2  0  0  0  0  0  0  0  0  0
   52.0020   33.4720   52.7050 O   0  0  0  0  0  0  0  0  0  0  0  0
   51.2490   33.1420   55.1860 O   0  0  0  0  0  0  0  0  0  0  0  0
   48.5540   31.4100   48.6260 C   0  0  0  0  0  0  0  0  0  0  0  0
   47.4950   32.1750   48.7720 C   0  0  0  0  0  0  0  0  0  0  0  0
   46.4860   32.3040   47.6950 C   0  0  0  0  0  0  0  0  0  0  0  0
   46.5330   32.7820   45.4060 C   0  0  0  0  0  0  0  0  0  0  0  0
   45.9470   31.7790   44.9400 O   0  0  0  0  0  0  0  0  0  0  0  0
   46.8610   33.2030   46.6910 N   0  0  0  0  0  0  0  0  0  0  0  0
   44.8460   35.1480   44.4730 Cl  0  0  0  0  0  0  0  0  0  0  0  0
   46.2110   34.5740   43.5710 C   0  0  0  0  0  0  0  0  0  0  0  0
   46.8340   33.5030   44.1620 C   0  0  0  0  0  0  0  0  0  0  0  0
   47.9590   32.9200   43.5590 C   0  0  0  0  0  0  0  0  0  0  0  0
   48.4510   33.4220   42.3590 C   0  0  0  0  0  0  0  0  0  0  0  0
   47.8050   34.5050   41.7810 C   0  0  0  0  0  0  0  0  0  0  0  0
   48.3700   35.1860   40.2750 Cl  0  0  0  0  0  0  0  0  0  0  0  0
   46.7000   35.0660   42.3880 C   0  0  0  0  0  0  0  0  0  0  0  0
   50.6390   28.8060   52.0540 O   0  0  0  0  0  0  0  0  0  0  0  0
   51.3890   27.7360   51.4530 C   0  0  0  0  0  0  0  0  0  0  0  0
   52.2370   28.2600   50.4730 F   0  0  0  0  0  0  0  0  0  0  0  0
   52.1990   27.2180   52.4600 F   0  0  0  0  0  0  0  0  0  0  0  0
   50.5920   26.7110   50.9560 F   0  0  0  0  0  0  0  0  0  0  0  0
   51.9321   33.0767   51.1549 H   0  0  0  0  0  0  0  0  0  0  0  0
   53.6917   32.7200   53.2598 H   0  0  0  0  0  0  0  0  0  0  0  0
   53.3617   30.8489   52.1906 H   0  0  0  0  0  0  0  0  0  0  0  0
   50.8544   30.7423   55.1839 H   0  0  0  0  0  0  0  0  0  0  0  0
   52.5261   30.3980   55.7329 H   0  0  0  0  0  0  0  0  0  0  0  0
   53.0864   32.5699   55.4482 H   0  0  0  0  0  0  0  0  0  0  0  0
   51.6252   34.0950   53.3758 H   0  0  0  0  0  0  0  0  0  0  0  0
   51.2155   33.1706   56.1750 H   0  0  0  0  0  0  0  0  0  0  0  0
   48.6878   30.8584   47.6837 H   0  0  0  0  0  0  0  0  0  0  0  0
   47.3554   32.7298   49.7115 H   0  0  0  0  0  0  0  0  0  0  0  0
   46.3336   31.3147   47.2389 H   0  0  0  0  0  0  0  0  0  0  0  0
   45.5661   32.6941   48.1550 H   0  0  0  0  0  0  0  0  0  0  0  0
   47.3368   34.0956   46.8853 H   0  0  0  0  0  0  0  0  0  0  0  0
   48.4539   32.0621   44.0376 H   0  0  0  0  0  0  0  0  0  0  0  0
   49.3320   32.9707   41.8793 H   0  0  0  0  0  0  0  0  0  0  0  0
   46.2018   35.9244   41.9138 H   0  0  0  0  0  0  0  0  0  0  0  0
  1  2  2  0
  3  2  1  0
  3 28  1  0
  4  3  2  0
  5  6  2  0
  5  4  1  0
  6  1  1  0
  7 12  1  0
  7 11  1  0
  8  2  1  0
  8  7  1  0
  8  9  1  0
  9 10  1  0
 11 10  1  0
 11 13  1  0
 14 15  2  0
 14  5  1  0
 16 15  1  0
 17 19  1  0
 18 17  2  0
 19 16  1  0
 21 22  2  0
 21 20  1  0
 22 17  1  0
 23 22  1  0
 24 23  2  0
 25 24  1  0
 25 27  2  0
 26 25  1  0
 27 21  1  0
 29 28  1  0
 29 31  1  0
 30 29  1  0
 32 29  1  0
  1 33  1  0
  7 34  1  1
  8 35  1  6
 10 36  1  0
 10 37  1  0
 11 38  1  1
 12 39  1  0
 13 40  1  0
 14 41  1  0
 15 42  1  0
 16 43  1  0
 16 44  1  0
 19 45  1  0
 23 46  1  0
 24 47  1  0
 27 48  1  0
M  ISO  8  33  14  34  13  35  13  36  13  37  13  38  13  39   3  40   3
M  ISO  5  43   8  44   8  46  14  47  14  48  14
M  END
>  <minimizedAffinity>  (1) 
-7.29066086

>  <minimizedRMSD>  (1) 
0.468245745

$$$$
