
     RDKit          3D

 50 52  0  0  0  0  0  0  0  0999 V2000
   48.5870   31.2590   48.6860 C   0  0  0  0  0  0  0  0  0  0  0  0
   47.5360   32.0440   48.7770 C   0  0  0  0  0  0  0  0  0  0  0  0
   51.1800   32.0530   51.1410 C   0  0  0  0  0  0  0  0  0  0  0  0
   51.3010   30.8140   51.8370 C   0  0  0  0  0  0  0  0  0  0  0  0
   50.5080   29.7490   51.4550 C   0  0  0  0  0  0  0  0  0  0  0  0
   49.6690   29.9570   50.4450 N   0  0  0  0  0  0  0  0  0  0  0  0
   49.5460   31.1110   49.7860 C   0  0  0  0  0  0  0  0  0  0  0  0
   50.2980   32.1720   50.1230 N   0  0  0  0  0  0  0  0  0  0  0  0
   52.2890   31.0210   52.7930 N   0  0  0  0  0  0  0  0  0  0  0  0
   53.7150   31.1920   52.8800 C   0  0  0  0  0  0  0  0  0  0  0  0
   54.1200   32.3900   53.7120 C   0  0  0  0  0  0  0  0  0  0  0  0
   53.6590   32.2320   55.1440 C   0  0  0  0  0  0  0  0  0  0  0  0
   52.7770   30.9820   55.2150 C   0  0  0  0  0  0  0  0  0  0  0  0
   51.7220   31.0840   54.1480 C   0  0  0  0  0  0  0  0  0  0  0  0
   50.5950   28.5650   52.0890 O   0  0  0  0  0  0  0  0  0  0  0  0
   51.5890   27.6380   51.6540 C   0  0  0  0  0  0  0  0  0  0  0  0
   52.0590   28.0330   50.3900 F   0  0  0  0  0  0  0  0  0  0  0  0
   52.6440   27.7660   52.5560 F   0  0  0  0  0  0  0  0  0  0  0  0
   51.1690   26.3150   51.6490 F   0  0  0  0  0  0  0  0  0  0  0  0
   46.5880   32.1610   47.6380 C   0  0  0  0  0  0  0  0  0  0  0  0
   46.5720   32.7810   45.3820 C   0  0  0  0  0  0  0  0  0  0  0  0
   45.8540   31.8710   44.8930 O   0  0  0  0  0  0  0  0  0  0  0  0
   47.0060   33.0830   46.6690 N   0  0  0  0  0  0  0  0  0  0  0  0
   44.8690   35.1400   44.4720 Cl  0  0  0  0  0  0  0  0  0  0  0  0
   46.2610   34.6020   43.5810 C   0  0  0  0  0  0  0  0  0  0  0  0
   46.8850   33.5340   44.1600 C   0  0  0  0  0  0  0  0  0  0  0  0
   48.0300   32.9740   43.5680 C   0  0  0  0  0  0  0  0  0  0  0  0
   48.5340   33.5080   42.3850 C   0  0  0  0  0  0  0  0  0  0  0  0
   47.8840   34.5890   41.8180 C   0  0  0  0  0  0  0  0  0  0  0  0
   48.4580   35.3090   40.3330 Cl  0  0  0  0  0  0  0  0  0  0  0  0
   46.7560   35.1250   42.4200 C   0  0  0  0  0  0  0  0  0  0  0  0
   48.7522   30.6956   47.7558 H   0  0  0  0  0  0  0  0  0  0  0  0
   47.3577   32.6162   49.6994 H   0  0  0  0  0  0  0  0  0  0  0  0
   51.8037   32.9111   51.4321 H   0  0  0  0  0  0  0  0  0  0  0  0
   54.1489   30.2884   53.3330 H   0  0  0  0  0  0  0  0  0  0  0  0
   54.0879   31.3607   51.8590 H   0  0  0  0  0  0  0  0  0  0  0  0
   55.2156   32.4869   53.6948 H   0  0  0  0  0  0  0  0  0  0  0  0
   53.6486   33.2887   53.2877 H   0  0  0  0  0  0  0  0  0  0  0  0
   54.5291   32.1145   55.8067 H   0  0  0  0  0  0  0  0  0  0  0  0
   53.0953   33.1196   55.4670 H   0  0  0  0  0  0  0  0  0  0  0  0
   53.3903   30.0845   55.0464 H   0  0  0  0  0  0  0  0  0  0  0  0
   52.3060   30.9077   56.2063 H   0  0  0  0  0  0  0  0  0  0  0  0
   51.1920   32.0407   54.2653 H   0  0  0  0  0  0  0  0  0  0  0  0
   51.0402   30.2290   54.2669 H   0  0  0  0  0  0  0  0  0  0  0  0
   46.4881   31.1741   47.1625 H   0  0  0  0  0  0  0  0  0  0  0  0
   45.6307   32.5211   48.0429 H   0  0  0  0  0  0  0  0  0  0  0  0
   47.5816   33.9083   46.8892 H   0  0  0  0  0  0  0  0  0  0  0  0
   48.5280   32.1138   44.0392 H   0  0  0  0  0  0  0  0  0  0  0  0
   49.4297   33.0794   41.9117 H   0  0  0  0  0  0  0  0  0  0  0  0
   46.2515   35.9851   41.9555 H   0  0  0  0  0  0  0  0  0  0  0  0
  1  2  2  0
  1  7  1  0
  3  4  2  0
  4  9  1  0
  5  4  1  0
  5 15  1  0
  6  5  2  0
  7  8  2  0
  7  6  1  0
  8  3  1  0
  9 10  1  0
  9 14  1  0
 10 11  1  0
 11 12  1  0
 12 13  1  0
 14 13  1  0
 16 15  1  0
 16 18  1  0
 17 16  1  0
 19 16  1  0
 20  2  1  0
 21 23  1  0
 22 21  2  0
 23 20  1  0
 25 26  2  0
 25 24  1  0
 26 21  1  0
 27 26  1  0
 28 27  2  0
 29 28  1  0
 29 31  2  0
 30 29  1  0
 31 25  1  0
  1 32  1  0
  2 33  1  0
  3 34  1  0
 10 35  1  0
 10 36  1  0
 11 37  1  0
 11 38  1  0
 12 39  1  0
 12 40  1  0
 13 41  1  0
 13 42  1  0
 14 43  1  0
 14 44  1  0
 20 45  1  0
 20 46  1  0
 23 47  1  0
 27 48  1  0
 28 49  1  0
 31 50  1  0
M  ISO  8  34  14  35  13  36  13  37  13  38  13  39  13  40  13  41  13
M  ISO  8  42  13  43  13  44  13  45   8  46   8  48  14  49  14  50  14
M  END
>  <minimizedAffinity>  (1) 
-7.15971041

>  <minimizedRMSD>  (1) 
0.223593101

$$$$
