
     RDKit          3D

 49 51  0  0  0  0  0  0  0  0999 V2000
   51.1960   32.0550   51.1650 C   0  0  0  0  0  0  0  0  0  0  0  0
   51.3180   30.8280   51.8760 C   0  0  0  0  0  0  0  0  0  0  0  0
   50.5210   29.7500   51.5080 C   0  0  0  0  0  0  0  0  0  0  0  0
   49.6820   29.9470   50.4940 N   0  0  0  0  0  0  0  0  0  0  0  0
   49.5650   31.1060   49.8220 C   0  0  0  0  0  0  0  0  0  0  0  0
   50.3220   32.1660   50.1530 N   0  0  0  0  0  0  0  0  0  0  0  0
   52.2580   30.7740   52.9420 N   0  0  0  0  0  0  0  0  0  0  0  0
   51.8880   30.7860   54.3670 C   0  0  0  0  0  0  0  0  0  0  0  0
   52.3860   32.0670   55.0160 C   0  0  0  0  0  0  0  0  0  0  0  0
   53.3240   32.7630   54.1550 N   0  0  0  0  0  0  0  0  0  0  0  0
   54.3260   31.8200   53.7060 C   0  0  0  0  0  0  0  0  0  0  0  0
   53.7050   30.7040   52.8920 C   0  0  0  0  0  0  0  0  0  0  0  0
   48.6070   31.2280   48.7180 C   0  0  0  0  0  0  0  0  0  0  0  0
   47.5810   32.0440   48.7730 C   0  0  0  0  0  0  0  0  0  0  0  0
   46.6290   32.1410   47.6350 C   0  0  0  0  0  0  0  0  0  0  0  0
   46.5960   32.7480   45.3740 C   0  0  0  0  0  0  0  0  0  0  0  0
   45.8790   31.8490   44.8960 O   0  0  0  0  0  0  0  0  0  0  0  0
   47.0480   33.0490   46.6560 N   0  0  0  0  0  0  0  0  0  0  0  0
   44.8820   35.1140   44.4910 Cl  0  0  0  0  0  0  0  0  0  0  0  0
   46.2700   34.5860   43.5980 C   0  0  0  0  0  0  0  0  0  0  0  0
   46.9010   33.5140   44.1590 C   0  0  0  0  0  0  0  0  0  0  0  0
   48.0440   32.9640   43.5570 C   0  0  0  0  0  0  0  0  0  0  0  0
   48.5450   33.5080   42.3820 C   0  0  0  0  0  0  0  0  0  0  0  0
   47.8890   34.6020   41.8240 C   0  0  0  0  0  0  0  0  0  0  0  0
   48.4670   35.3330   40.3480 Cl  0  0  0  0  0  0  0  0  0  0  0  0
   46.7620   35.1300   42.4330 C   0  0  0  0  0  0  0  0  0  0  0  0
   50.5970   28.5610   52.1490 O   0  0  0  0  0  0  0  0  0  0  0  0
   51.5050   27.5850   51.6210 C   0  0  0  0  0  0  0  0  0  0  0  0
   52.0180   28.0470   50.3980 F   0  0  0  0  0  0  0  0  0  0  0  0
   52.5700   27.5170   52.5250 F   0  0  0  0  0  0  0  0  0  0  0  0
   50.9490   26.3240   51.4930 F   0  0  0  0  0  0  0  0  0  0  0  0
   51.8207   32.9156   51.4463 H   0  0  0  0  0  0  0  0  0  0  0  0
   50.7934   30.7304   54.4608 H   0  0  0  0  0  0  0  0  0  0  0  0
   52.3468   29.9215   54.8693 H   0  0  0  0  0  0  0  0  0  0  0  0
   51.5273   32.7247   55.2164 H   0  0  0  0  0  0  0  0  0  0  0  0
   52.9016   31.8050   55.9517 H   0  0  0  0  0  0  0  0  0  0  0  0
   52.8255   33.1529   53.3423 H   0  0  0  0  0  0  0  0  0  0  0  0
   55.0634   32.3493   53.0846 H   0  0  0  0  0  0  0  0  0  0  0  0
   54.8083   31.3781   54.5904 H   0  0  0  0  0  0  0  0  0  0  0  0
   54.0334   29.7358   53.2979 H   0  0  0  0  0  0  0  0  0  0  0  0
   54.0271   30.8096   51.8455 H   0  0  0  0  0  0  0  0  0  0  0  0
   48.7533   30.6162   47.8156 H   0  0  0  0  0  0  0  0  0  0  0  0
   47.4237   32.6620   49.6693 H   0  0  0  0  0  0  0  0  0  0  0  0
   46.5295   31.1473   47.1738 H   0  0  0  0  0  0  0  0  0  0  0  0
   45.6698   32.5022   48.0343 H   0  0  0  0  0  0  0  0  0  0  0  0
   47.6381   33.8669   46.8652 H   0  0  0  0  0  0  0  0  0  0  0  0
   48.5441   32.0994   44.0178 H   0  0  0  0  0  0  0  0  0  0  0  0
   49.4399   33.0843   41.9028 H   0  0  0  0  0  0  0  0  0  0  0  0
   46.2542   35.9943   41.9801 H   0  0  0  0  0  0  0  0  0  0  0  0
  1  2  2  0
  2  7  1  0
  3  2  1  0
  3 27  1  0
  4  3  2  0
  5  6  2  0
  5  4  1  0
  6  1  1  0
  7  8  1  0
  8  9  1  0
 10  9  1  0
 11 10  1  0
 12  7  1  0
 12 11  1  0
 13 14  2  0
 13  5  1  0
 15 14  1  0
 16 18  1  0
 17 16  2  0
 18 15  1  0
 20 21  2  0
 20 19  1  0
 21 16  1  0
 22 21  1  0
 23 22  2  0
 24 23  1  0
 24 26  2  0
 25 24  1  0
 26 20  1  0
 28 27  1  0
 28 30  1  0
 29 28  1  0
 31 28  1  0
  1 32  1  0
  8 33  1  0
  8 34  1  0
  9 35  1  0
  9 36  1  0
 10 37  1  0
 11 38  1  0
 11 39  1  0
 12 40  1  0
 12 41  1  0
 13 42  1  0
 14 43  1  0
 15 44  1  0
 15 45  1  0
 18 46  1  0
 22 47  1  0
 23 48  1  0
 26 49  1  0
M  ISO  8  32  14  33  13  34  13  35  13  36  13  37   5  38  13  39  13
M  ISO  7  40  13  41  13  44   8  45   8  47  14  48  14  49  14
M  END
>  <minimizedAffinity>  (1) 
-7.07755852

>  <minimizedRMSD>  (1) 
0.427416235

$$$$
