
     RDKit          3D

 46 50  0  0  1  0  0  0  0  0999 V2000
   47.2920   32.8250   44.1680 C   0  0  0  0  0  0  0  0  0  0  0  0
   47.2760   31.9430   45.2400 C   0  0  0  0  0  0  0  0  0  0  0  0
   46.4360   32.0930   46.3420 C   0  0  0  0  0  0  0  0  0  0  0  0
   45.5670   33.1620   46.3950 C   0  0  0  0  0  0  0  0  0  0  0  0
   45.5520   34.0440   45.3690 C   0  0  0  0  0  0  0  0  0  0  0  0
   44.6910   35.1210   45.3890 C   0  0  0  0  0  0  0  0  0  0  0  0
   44.6210   36.0470   44.3820 C   0  0  0  0  0  0  0  0  0  0  0  0
   45.4770   35.8590   43.3020 C   0  0  0  0  0  0  0  0  0  0  0  0
   46.3430   34.7730   43.2840 C   0  0  0  0  0  0  0  0  0  0  0  0
   46.4030   33.8580   44.2920 C   0  0  0  0  0  0  0  0  0  0  0  0
   47.0790   34.8390   42.0780 N   0  0  0  0  0  0  0  0  0  0  0  0
   48.2440   35.3580   41.6560 C   0  0  0  0  0  0  0  0  0  0  0  0
   48.7130   35.2040   40.3760 C   0  0  0  0  0  0  0  0  0  0  0  0
   48.0050   34.4940   39.4320 C   0  0  0  0  0  0  0  0  0  0  0  0
   48.6100   34.4180   38.1540 N   0  0  0  0  0  0  0  0  0  0  0  0
   46.8230   33.9480   39.8000 N   0  0  0  0  0  0  0  0  0  0  0  0
   46.4210   34.1430   41.0910 C   0  0  0  0  0  0  0  0  0  0  0  0
   45.2930   33.5480   41.2230 O   0  0  0  0  0  0  0  0  0  0  0  0
   48.1760   32.5800   43.1100 N   0  0  0  0  0  0  0  0  0  0  0  0
   50.0480   31.2370   42.0570 C   0  0  1  0  0  0  0  0  0  0  0  0
   48.7910   30.3940   41.9950 C   0  0  0  0  0  0  0  0  0  0  0  0
   49.0360   31.4300   43.0840 C   0  0  2  0  0  0  0  0  0  0  0  0
   53.3700   29.6620   41.6200 C   0  0  0  0  0  0  0  0  0  0  0  0
   53.6780   29.2640   42.9580 C   0  0  0  0  0  0  0  0  0  0  0  0
   52.7360   29.5590   43.9760 C   0  0  0  0  0  0  0  0  0  0  0  0
   51.6070   30.1950   43.6500 N   0  0  0  0  0  0  0  0  0  0  0  0
   51.3430   30.5590   42.3700 C   0  0  0  0  0  0  0  0  0  0  0  0
   52.2240   30.2950   41.3500 N   0  0  0  0  0  0  0  0  0  0  0  0
   47.9608   31.0824   45.2186 H   0  0  0  0  0  0  0  0  0  0  0  0
   46.4662   31.3630   47.1643 H   0  0  0  0  0  0  0  0  0  0  0  0
   44.8970   33.2957   47.2571 H   0  0  0  0  0  0  0  0  0  0  0  0
   44.0269   35.2426   46.2574 H   0  0  0  0  0  0  0  0  0  0  0  0
   43.9232   36.8962   44.4253 H   0  0  0  0  0  0  0  0  0  0  0  0
   45.4682   36.5699   42.4626 H   0  0  0  0  0  0  0  0  0  0  0  0
   48.8506   35.9337   42.3706 H   0  0  0  0  0  0  0  0  0  0  0  0
   49.6757   35.6576   40.0976 H   0  0  0  0  0  0  0  0  0  0  0  0
   49.5178   34.8747   37.9860 H   0  0  0  0  0  0  0  0  0  0  0  0
   48.1423   33.9060   37.3924 H   0  0  0  0  0  0  0  0  0  0  0  0
   48.2106   33.2460   42.3251 H   0  0  0  0  0  0  0  0  0  0  0  0
   50.5648   31.9248   41.3715 H   0  0  0  0  0  0  0  0  0  0  0  0
   48.0373   30.5735   41.2142 H   0  0  0  0  0  0  0  0  0  0  0  0
   48.5566   29.3199   41.9596 H   0  0  0  0  0  0  0  0  0  0  0  0
   49.0861   31.4396   44.1828 H   0  0  0  0  0  0  0  0  0  0  0  0
   54.0800   29.4462   40.8080 H   0  0  0  0  0  0  0  0  0  0  0  0
   54.6188   28.7438   43.1912 H   0  0  0  0  0  0  0  0  0  0  0  0
   52.9318   29.2685   45.0187 H   0  0  0  0  0  0  0  0  0  0  0  0
  1 10  1  0
  1  2  2  0
  2  3  1  0
  3  4  2  0
  5  6  2  0
  5  4  1  0
  7  6  1  0
  8  7  2  0
  9  8  1  0
  9 10  2  0
 10  5  1  0
 11  9  1  0
 12 11  1  0
 13 12  2  0
 14 16  2  0
 14 13  1  0
 15 14  1  0
 16 17  1  0
 17 18  2  0
 17 11  1  0
 19  1  1  0
 20 27  1  0
 20 22  1  0
 21 20  1  0
 21 22  1  0
 22 19  1  0
 23 24  2  0
 24 25  1  0
 26 25  2  0
 27 26  1  0
 28 23  1  0
 28 27  2  0
  2 29  1  0
  3 30  1  0
  4 31  1  0
  6 32  1  0
  7 33  1  0
  8 34  1  0
 12 35  1  0
 13 36  1  0
 15 37  1  0
 15 38  1  0
 19 39  1  0
 20 40  1  6
 21 41  1  0
 21 42  1  0
 22 43  1  1
 23 44  1  0
 24 45  1  0
 25 46  1  0
M  ISO  8  29  14  30  14  31  14  32  14  33  14  34  14  35  14  36  14
M  ISO  7  40  13  41  13  42  13  43  13  44  14  45  14  46  14
M  END
>  <minimizedAffinity>  (1) 
-6.36177826

>  <minimizedRMSD>  (1) 
2.59290838

$$$$
