
     RDKit          3D

 42 44  0  0  0  0  0  0  0  0999 V2000
   48.5810   31.2180   48.7050 C   0  0  0  0  0  0  0  0  0  0  0  0
   47.5600   32.0470   48.7710 C   0  0  0  0  0  0  0  0  0  0  0  0
   51.1720   31.9940   51.1450 C   0  0  0  0  0  0  0  0  0  0  0  0
   51.2910   30.7720   51.8640 C   0  0  0  0  0  0  0  0  0  0  0  0
   50.5060   29.7110   51.4900 C   0  0  0  0  0  0  0  0  0  0  0  0
   49.6650   29.9160   50.4590 N   0  0  0  0  0  0  0  0  0  0  0  0
   49.5480   31.0610   49.7880 C   0  0  0  0  0  0  0  0  0  0  0  0
   50.3090   32.1140   50.1280 N   0  0  0  0  0  0  0  0  0  0  0  0
   52.2130   30.8630   52.9790 C   0  0  0  0  0  0  0  0  0  0  0  0
   51.8720   30.9160   54.3100 C   0  0  0  0  0  0  0  0  0  0  0  0
   52.9170   31.0130   55.1380 N   0  0  0  0  0  0  0  0  0  0  0  0
   53.9870   31.0260   54.3360 C   0  0  0  0  0  0  0  0  0  0  0  0
   53.5310   30.9370   53.1000 N   0  0  0  0  0  0  0  0  0  0  0  0
   50.5660   28.5150   52.1120 O   0  0  0  0  0  0  0  0  0  0  0  0
   51.5250   27.5600   51.6140 C   0  0  0  0  0  0  0  0  0  0  0  0
   52.0250   28.0020   50.3820 F   0  0  0  0  0  0  0  0  0  0  0  0
   52.5990   27.5610   52.5070 F   0  0  0  0  0  0  0  0  0  0  0  0
   51.0240   26.2700   51.5320 F   0  0  0  0  0  0  0  0  0  0  0  0
   46.5990   32.1700   47.6500 C   0  0  0  0  0  0  0  0  0  0  0  0
   46.5760   32.7740   45.3920 C   0  0  0  0  0  0  0  0  0  0  0  0
   45.8610   31.8690   44.9170 O   0  0  0  0  0  0  0  0  0  0  0  0
   47.0160   33.0860   46.6740 N   0  0  0  0  0  0  0  0  0  0  0  0
   44.8700   35.1330   44.4810 Cl  0  0  0  0  0  0  0  0  0  0  0  0
   46.2570   34.5990   43.5900 C   0  0  0  0  0  0  0  0  0  0  0  0
   46.8890   33.5230   44.1680 C   0  0  0  0  0  0  0  0  0  0  0  0
   48.0280   32.9670   43.5710 C   0  0  0  0  0  0  0  0  0  0  0  0
   48.5290   33.5010   42.3880 C   0  0  0  0  0  0  0  0  0  0  0  0
   47.8810   34.5770   41.8290 C   0  0  0  0  0  0  0  0  0  0  0  0
   48.4520   35.3000   40.3360 Cl  0  0  0  0  0  0  0  0  0  0  0  0
   46.7560   35.1180   42.4260 C   0  0  0  0  0  0  0  0  0  0  0  0
   48.7114   30.6167   47.7931 H   0  0  0  0  0  0  0  0  0  0  0  0
   47.4181   32.6588   49.6741 H   0  0  0  0  0  0  0  0  0  0  0  0
   51.7981   32.8528   51.4287 H   0  0  0  0  0  0  0  0  0  0  0  0
   50.8306   30.8816   54.6626 H   0  0  0  0  0  0  0  0  0  0  0  0
   52.9015   31.0660   56.1665 H   0  0  0  0  0  0  0  0  0  0  0  0
   55.0403   31.0969   54.6452 H   0  0  0  0  0  0  0  0  0  0  0  0
   46.4813   31.1833   47.1783 H   0  0  0  0  0  0  0  0  0  0  0  0
   45.6503   32.5394   48.0666 H   0  0  0  0  0  0  0  0  0  0  0  0
   47.5936   33.9120   46.8863 H   0  0  0  0  0  0  0  0  0  0  0  0
   48.5275   32.1059   44.0389 H   0  0  0  0  0  0  0  0  0  0  0  0
   49.4227   33.0723   41.9111 H   0  0  0  0  0  0  0  0  0  0  0  0
   46.2551   35.9783   41.9580 H   0  0  0  0  0  0  0  0  0  0  0  0
  1  2  2  0
  1  7  1  0
  3  4  2  0
  4  9  1  0
  5  4  1  0
  5 14  1  0
  6  5  2  0
  7  8  2  0
  7  6  1  0
  8  3  1  0
  9 13  1  0
  9 10  2  0
 10 11  1  0
 12 11  1  0
 13 12  2  0
 15 14  1  0
 15 17  1  0
 16 15  1  0
 18 15  1  0
 19  2  1  0
 20 22  1  0
 21 20  2  0
 22 19  1  0
 24 25  2  0
 24 23  1  0
 25 20  1  0
 26 25  1  0
 27 26  2  0
 28 27  1  0
 28 30  2  0
 29 28  1  0
 30 24  1  0
  1 31  1  0
  2 32  1  0
  3 33  1  0
 10 34  1  0
 11 35  1  0
 12 36  1  0
 19 37  1  0
 19 38  1  0
 22 39  1  0
 26 40  1  0
 27 41  1  0
 30 42  1  0
M  ISO  8  33  14  34  14  35   9  36  14  37   8  38   8  40  14  41  14
M  ISO  1  42  14
M  END
>  <minimizedAffinity>  (1) 
-7.03101397

>  <minimizedRMSD>  (1) 
0.247057959

$$$$
