
     RDKit          3D

 41 42  0  0  0  0  0  0  0  0999 V2000
   46.7040   32.2360   47.7140 C   0  0  0  0  0  0  0  0  0  0  0  0
   46.6400   32.7540   45.4360 C   0  0  0  0  0  0  0  0  0  0  0  0
   45.9470   31.8100   45.0020 O   0  0  0  0  0  0  0  0  0  0  0  0
   47.0910   33.1280   46.7020 N   0  0  0  0  0  0  0  0  0  0  0  0
   44.9130   35.1090   44.5380 Cl  0  0  0  0  0  0  0  0  0  0  0  0
   46.2570   34.5380   43.6040 C   0  0  0  0  0  0  0  0  0  0  0  0
   46.9100   33.4690   44.1860 C   0  0  0  0  0  0  0  0  0  0  0  0
   48.0210   32.8950   43.5600 C   0  0  0  0  0  0  0  0  0  0  0  0
   48.4820   33.3890   42.3480 C   0  0  0  0  0  0  0  0  0  0  0  0
   47.8090   34.4680   41.7770 C   0  0  0  0  0  0  0  0  0  0  0  0
   48.3290   35.1430   40.2520 Cl  0  0  0  0  0  0  0  0  0  0  0  0
   46.7110   35.0270   42.4050 C   0  0  0  0  0  0  0  0  0  0  0  0
   48.5350   31.0830   48.8460 C   0  0  0  0  0  0  0  0  0  0  0  0
   47.7190   32.1110   48.7900 C   0  0  0  0  0  0  0  0  0  0  0  0
   51.2490   31.8820   51.1420 C   0  0  0  0  0  0  0  0  0  0  0  0
   51.4170   30.6740   51.8680 C   0  0  0  0  0  0  0  0  0  0  0  0
   50.5980   29.6070   51.5480 C   0  0  0  0  0  0  0  0  0  0  0  0
   49.6970   29.8000   50.5660 N   0  0  0  0  0  0  0  0  0  0  0  0
   49.5420   30.9330   49.8910 C   0  0  0  0  0  0  0  0  0  0  0  0
   50.3260   31.9930   50.1770 N   0  0  0  0  0  0  0  0  0  0  0  0
   50.6800   28.4120   52.1800 O   0  0  0  0  0  0  0  0  0  0  0  0
   51.5570   27.4270   51.6200 C   0  0  0  0  0  0  0  0  0  0  0  0
   52.0700   27.9010   50.4110 F   0  0  0  0  0  0  0  0  0  0  0  0
   52.6180   27.3150   52.5150 F   0  0  0  0  0  0  0  0  0  0  0  0
   50.9710   26.1740   51.4800 F   0  0  0  0  0  0  0  0  0  0  0  0
   52.4540   30.7380   52.8950 C   0  0  0  0  0  0  0  0  0  0  0  0
   51.7850   30.8260   54.2790 C   0  0  0  0  0  0  0  0  0  0  0  0
   46.5431   31.2444   47.2658 H   0  0  0  0  0  0  0  0  0  0  0  0
   45.7847   32.6317   48.1704 H   0  0  0  0  0  0  0  0  0  0  0  0
   47.6519   33.9741   46.8765 H   0  0  0  0  0  0  0  0  0  0  0  0
   48.5340   32.0444   44.0326 H   0  0  0  0  0  0  0  0  0  0  0  0
   49.3552   32.9411   41.8511 H   0  0  0  0  0  0  0  0  0  0  0  0
   46.1935   35.8769   41.9360 H   0  0  0  0  0  0  0  0  0  0  0  0
   48.4558   30.3037   48.0737 H   0  0  0  0  0  0  0  0  0  0  0  0
   47.7894   32.8962   49.5571 H   0  0  0  0  0  0  0  0  0  0  0  0
   51.8897   32.7449   51.3764 H   0  0  0  0  0  0  0  0  0  0  0  0
   53.0792   29.8343   52.8445 H   0  0  0  0  0  0  0  0  0  0  0  0
   53.0853   31.6237   52.7307 H   0  0  0  0  0  0  0  0  0  0  0  0
   52.5499   30.7254   55.0631 H   0  0  0  0  0  0  0  0  0  0  0  0
   51.2807   31.7982   54.3813 H   0  0  0  0  0  0  0  0  0  0  0  0
   51.0464   30.0173   54.3813 H   0  0  0  0  0  0  0  0  0  0  0  0
  1 14  1  0
  2  4  1  0
  3  2  2  0
  4  1  1  0
  6  7  2  0
  6  5  1  0
  7  2  1  0
  8  7  1  0
  9  8  2  0
 10  9  1  0
 10 12  2  0
 11 10  1  0
 12  6  1  0
 13 19  1  0
 14 13  2  0
 15 16  2  0
 16 26  1  0
 17 16  1  0
 17 21  1  0
 18 17  2  0
 19 20  2  0
 19 18  1  0
 20 15  1  0
 22 21  1  0
 22 24  1  0
 23 22  1  0
 25 22  1  0
 26 27  1  0
  1 28  1  0
  1 29  1  0
  4 30  1  0
  8 31  1  0
  9 32  1  0
 12 33  1  0
 13 34  1  0
 14 35  1  0
 15 36  1  0
 26 37  1  0
 26 38  1  0
 27 39  1  0
 27 40  1  0
 27 41  1  0
M  ISO  8  28   8  29   8  31  14  32  14  33  14  36  14  37   8  38   8
M  ISO  3  39   8  40   8  41   8
M  END
>  <minimizedAffinity>  (1) 
-6.53813744

>  <minimizedRMSD>  (1) 
0.291575015

$$$$
