
     RDKit          3D

 33 36  0  0  0  0  0  0  0  0999 V2000
   46.7640   34.7630   41.9390 C   0  0  0  0  0  0  0  0  0  0  0  0
   48.0060   35.3320   41.7380 C   0  0  0  0  0  0  0  0  0  0  0  0
   48.7370   35.2150   40.5760 C   0  0  0  0  0  0  0  0  0  0  0  0
   48.1970   34.4760   39.5290 C   0  0  0  0  0  0  0  0  0  0  0  0
   46.9670   33.9240   39.7560 C   0  0  0  0  0  0  0  0  0  0  0  0
   46.2950   34.0650   40.9020 N   0  0  0  0  0  0  0  0  0  0  0  0
   45.6550   31.9480   39.0550 C   0  0  0  0  0  0  0  0  0  0  0  0
   46.3140   33.1290   38.7200 C   0  0  0  0  0  0  0  0  0  0  0  0
   46.2760   33.4320   37.3770 C   0  0  0  0  0  0  0  0  0  0  0  0
   45.6490   32.6480   36.4520 C   0  0  0  0  0  0  0  0  0  0  0  0
   45.5060   32.7740   35.1250 N   0  0  0  0  0  0  0  0  0  0  0  0
   44.7940   31.7340   34.6300 C   0  0  0  0  0  0  0  0  0  0  0  0
   44.4780   30.9200   35.6990 C   0  0  0  0  0  0  0  0  0  0  0  0
   45.0130   31.4950   36.8330 C   0  0  0  0  0  0  0  0  0  0  0  0
   45.0060   31.1210   38.1600 C   0  0  0  0  0  0  0  0  0  0  0  0
   44.4800   35.9420   44.7110 C   0  0  0  0  0  0  0  0  0  0  0  0
   45.1160   35.9470   43.4530 C   0  0  0  0  0  0  0  0  0  0  0  0
   46.0210   34.9090   43.1810 C   0  0  0  0  0  0  0  0  0  0  0  0
   46.2120   33.9890   44.1440 N   0  0  0  0  0  0  0  0  0  0  0  0
   45.5930   34.0070   45.3330 C   0  0  0  0  0  0  0  0  0  0  0  0
   44.7260   34.9900   45.6090 N   0  0  0  0  0  0  0  0  0  0  0  0
   48.4410   35.9181   42.5609 H   0  0  0  0  0  0  0  0  0  0  0  0
   49.7225   35.6939   40.4789 H   0  0  0  0  0  0  0  0  0  0  0  0
   48.7280   34.3435   38.5748 H   0  0  0  0  0  0  0  0  0  0  0  0
   45.6515   31.6516   40.1143 H   0  0  0  0  0  0  0  0  0  0  0  0
   46.7750   34.3500   37.0332 H   0  0  0  0  0  0  0  0  0  0  0  0
   45.8834   33.5502   34.5629 H   0  0  0  0  0  0  0  0  0  0  0  0
   44.5199   31.5694   33.5775 H   0  0  0  0  0  0  0  0  0  0  0  0
   43.9038   29.9828   35.6547 H   0  0  0  0  0  0  0  0  0  0  0  0
   44.5035   30.2006   38.4923 H   0  0  0  0  0  0  0  0  0  0  0  0
   43.7653   36.7415   44.9561 H   0  0  0  0  0  0  0  0  0  0  0  0
   44.9109   36.7343   42.7127 H   0  0  0  0  0  0  0  0  0  0  0  0
   45.7954   33.2212   46.0756 H   0  0  0  0  0  0  0  0  0  0  0  0
  1 18  1  0
  2  1  2  0
  3  2  1  0
  4  5  1  0
  4  3  2  0
  5  6  2  0
  6  1  1  0
  8  7  2  0
  8  5  1  0
  9  8  1  0
 10 14  1  0
 10  9  2  0
 11 10  1  0
 12 11  1  0
 12 13  2  0
 13 14  1  0
 14 15  2  0
 15  7  1  0
 16 21  2  0
 17 16  1  0
 18 17  2  0
 18 19  1  0
 19 20  2  0
 20 21  1  0
  2 22  1  0
  3 23  1  0
  4 24  1  0
  7 25  1  0
  9 26  1  0
 11 27  1  0
 12 28  1  0
 13 29  1  0
 15 30  1  0
 16 31  1  0
 17 32  1  0
 20 33  1  0
M  ISO  8  22  14  23  14  24  14  25  14  26  14  27   9  28  14  29  14
M  ISO  4  30  14  31  14  32  14  33  14
M  END
>  <minimizedAffinity>  (1) 
-6.18835068

>  <minimizedRMSD>  (1) 
0.352878213

$$$$
