
     RDKit          3D

 51 55  0  0  1  0  0  0  0  0999 V2000
   47.1930   32.8510   44.1300 C   0  0  0  0  0  0  0  0  0  0  0  0
   47.3360   31.9480   45.1740 C   0  0  0  0  0  0  0  0  0  0  0  0
   46.6340   32.0390   46.3670 C   0  0  0  0  0  0  0  0  0  0  0  0
   45.7370   33.0740   46.5600 C   0  0  0  0  0  0  0  0  0  0  0  0
   45.5700   33.9750   45.5640 C   0  0  0  0  0  0  0  0  0  0  0  0
   44.6770   35.0060   45.7430 C   0  0  0  0  0  0  0  0  0  0  0  0
   44.4540   35.9600   44.7620 C   0  0  0  0  0  0  0  0  0  0  0  0
   45.1830   35.8190   43.5850 C   0  0  0  0  0  0  0  0  0  0  0  0
   46.0690   34.7880   43.4210 C   0  0  0  0  0  0  0  0  0  0  0  0
   46.2850   33.8530   44.3880 C   0  0  0  0  0  0  0  0  0  0  0  0
   46.6630   34.9720   42.0840 C   0  0  0  0  0  0  0  0  0  0  0  0
   46.3650   33.6670   41.2580 C   0  0  0  0  0  0  0  0  0  0  0  0
   46.8420   33.9110   39.8330 C   0  0  0  0  0  0  0  0  0  0  0  0
   48.2660   34.3210   39.7240 C   0  0  0  0  0  0  0  0  0  0  0  0
   48.6370   35.3830   40.7370 C   0  0  0  0  0  0  0  0  0  0  0  0
   48.1770   34.9400   42.1210 C   0  0  0  0  0  0  0  0  0  0  0  0
   47.9360   32.6890   42.9550 N   0  0  0  0  0  0  0  0  0  0  0  0
   49.9200   31.4880   41.8620 C   0  0  1  0  0  0  0  0  0  0  0  0
   48.6530   30.7120   41.5600 C   0  0  0  0  0  0  0  0  0  0  0  0
   48.8390   31.5750   42.8010 C   0  0  2  0  0  0  0  0  0  0  0  0
   52.4320   29.5880   43.8520 C   0  0  0  0  0  0  0  0  0  0  0  0
   53.4320   29.3290   42.8390 C   0  0  0  0  0  0  0  0  0  0  0  0
   53.1970   29.8070   41.5220 C   0  0  0  0  0  0  0  0  0  0  0  0
   52.0710   30.4780   41.2530 N   0  0  0  0  0  0  0  0  0  0  0  0
   51.1460   30.7080   42.2280 C   0  0  0  0  0  0  0  0  0  0  0  0
   51.3330   30.2630   43.5160 N   0  0  0  0  0  0  0  0  0  0  0  0
   48.0439   31.1155   45.0488 H   0  0  0  0  0  0  0  0  0  0  0  0
   46.7903   31.2901   47.1574 H   0  0  0  0  0  0  0  0  0  0  0  0
   45.1730   33.1627   47.5002 H   0  0  0  0  0  0  0  0  0  0  0  0
   44.1241   35.0755   46.6914 H   0  0  0  0  0  0  0  0  0  0  0  0
   43.7395   36.7838   44.9062 H   0  0  0  0  0  0  0  0  0  0  0  0
   45.0452   36.5480   42.7729 H   0  0  0  0  0  0  0  0  0  0  0  0
   46.2675   35.9196   41.6896 H   0  0  0  0  0  0  0  0  0  0  0  0
   46.9055   32.8142   41.6945 H   0  0  0  0  0  0  0  0  0  0  0  0
   45.2899   33.4349   41.2732 H   0  0  0  0  0  0  0  0  0  0  0  0
   46.7070   32.9811   39.2611 H   0  0  0  0  0  0  0  0  0  0  0  0
   46.2439   34.7466   39.4405 H   0  0  0  0  0  0  0  0  0  0  0  0
   48.9018   33.4384   39.8877 H   0  0  0  0  0  0  0  0  0  0  0  0
   48.4183   34.7451   38.7205 H   0  0  0  0  0  0  0  0  0  0  0  0
   49.7280   35.5234   40.7397 H   0  0  0  0  0  0  0  0  0  0  0  0
   48.1484   36.3323   40.4721 H   0  0  0  0  0  0  0  0  0  0  0  0
   48.5558   35.6300   42.8894 H   0  0  0  0  0  0  0  0  0  0  0  0
   48.5542   33.9373   42.3707 H   0  0  0  0  0  0  0  0  0  0  0  0
   47.8368   33.3732   42.1915 H   0  0  0  0  0  0  0  0  0  0  0  0
   50.5156   32.2385   41.3216 H   0  0  0  0  0  0  0  0  0  0  0  0
   47.9797   31.0322   40.7512 H   0  0  0  0  0  0  0  0  0  0  0  0
   48.3888   29.6656   41.3470 H   0  0  0  0  0  0  0  0  0  0  0  0
   48.8347   31.4585   43.8948 H   0  0  0  0  0  0  0  0  0  0  0  0
   52.5765   29.2334   44.8832 H   0  0  0  0  0  0  0  0  0  0  0  0
   54.3511   28.7759   43.0825 H   0  0  0  0  0  0  0  0  0  0  0  0
   53.9365   29.6265   40.7279 H   0  0  0  0  0  0  0  0  0  0  0  0
  1 10  1  0
  1  2  2  0
  2  3  1  0
  3  4  2  0
  5  6  2  0
  5  4  1  0
  7  6  1  0
  8  7  2  0
  9  8  1  0
  9 10  2  0
 10  5  1  0
 11 16  1  0
 11  9  1  0
 12 11  1  0
 13 12  1  0
 14 13  1  0
 14 15  1  0
 15 16  1  0
 17  1  1  0
 18 25  1  0
 18 20  1  0
 19 18  1  0
 19 20  1  0
 20 17  1  0
 22 21  2  0
 23 22  1  0
 24 23  2  0
 24 25  1  0
 25 26  2  0
 26 21  1  0
  2 27  1  0
  3 28  1  0
  4 29  1  0
  6 30  1  0
  7 31  1  0
  8 32  1  0
 11 33  1  0
 12 34  1  0
 12 35  1  0
 13 36  1  0
 13 37  1  0
 14 38  1  0
 14 39  1  0
 15 40  1  0
 15 41  1  0
 16 42  1  0
 16 43  1  0
 17 44  1  0
 18 45  1  6
 19 46  1  0
 19 47  1  0
 20 48  1  1
 21 49  1  0
 22 50  1  0
 23 51  1  0
M  ISO  8  27  14  28  14  29  14  30  14  31  14  32  14  33  13  34  13
M  ISO  8  35  13  36  13  37  13  38  13  39  13  40  13  41  13  42  13
M  ISO  8  43  13  45  13  46  13  47  13  48  13  49  14  50  14  51  14
M  END
>  <minimizedAffinity>  (1) 
-6.3166666

>  <minimizedRMSD>  (1) 
2.42179322

$$$$
