
     RDKit          3D

 34 36  0  0  0  0  0  0  0  0999 V2000
   46.8050   34.8090   42.1060 C   0  0  0  0  0  0  0  0  0  0  0  0
   48.0100   35.4270   41.9050 C   0  0  0  0  0  0  0  0  0  0  0  0
   48.7630   35.3410   40.7550 C   0  0  0  0  0  0  0  0  0  0  0  0
   48.2920   34.5830   39.7160 C   0  0  0  0  0  0  0  0  0  0  0  0
   47.0710   33.9560   39.9180 C   0  0  0  0  0  0  0  0  0  0  0  0
   46.3870   34.0790   41.0590 N   0  0  0  0  0  0  0  0  0  0  0  0
   46.4930   33.1450   38.9000 N   0  0  0  0  0  0  0  0  0  0  0  0
   47.2870   32.4060   37.9380 C   0  0  0  0  0  0  0  0  0  0  0  0
   46.7770   32.8200   36.5750 C   0  0  0  0  0  0  0  0  0  0  0  0
   45.3350   32.4540   36.3710 C   0  0  0  0  0  0  0  0  0  0  0  0
   44.5340   32.3710   37.6230 C   0  0  0  0  0  0  0  0  0  0  0  0
   45.0610   33.0460   38.8110 C   0  0  0  0  0  0  0  0  0  0  0  0
   44.4590   35.9200   44.8420 C   0  0  0  0  0  0  0  0  0  0  0  0
   45.1190   35.9490   43.6060 C   0  0  0  0  0  0  0  0  0  0  0  0
   46.0400   34.9250   43.3360 C   0  0  0  0  0  0  0  0  0  0  0  0
   46.2310   33.9800   44.2850 N   0  0  0  0  0  0  0  0  0  0  0  0
   45.5840   33.9770   45.4630 C   0  0  0  0  0  0  0  0  0  0  0  0
   44.7010   34.9470   45.7370 N   0  0  0  0  0  0  0  0  0  0  0  0
   48.4081   36.0405   42.7266 H   0  0  0  0  0  0  0  0  0  0  0  0
   49.7236   35.8706   40.6726 H   0  0  0  0  0  0  0  0  0  0  0  0
   48.8505   34.4773   38.7742 H   0  0  0  0  0  0  0  0  0  0  0  0
   48.3515   32.6628   38.0425 H   0  0  0  0  0  0  0  0  0  0  0  0
   47.1984   31.3202   38.0899 H   0  0  0  0  0  0  0  0  0  0  0  0
   46.8830   33.9102   36.4737 H   0  0  0  0  0  0  0  0  0  0  0  0
   47.3701   32.2867   35.8174 H   0  0  0  0  0  0  0  0  0  0  0  0
   44.8769   33.2134   35.7203 H   0  0  0  0  0  0  0  0  0  0  0  0
   45.3284   31.4467   35.9291 H   0  0  0  0  0  0  0  0  0  0  0  0
   43.5451   32.8033   37.4103 H   0  0  0  0  0  0  0  0  0  0  0  0
   44.5352   31.3027   37.8851 H   0  0  0  0  0  0  0  0  0  0  0  0
   44.6520   34.0670   38.8265 H   0  0  0  0  0  0  0  0  0  0  0  0
   44.7545   32.4236   39.6646 H   0  0  0  0  0  0  0  0  0  0  0  0
   43.7301   36.7075   45.0839 H   0  0  0  0  0  0  0  0  0  0  0  0
   44.9222   36.7459   42.8737 H   0  0  0  0  0  0  0  0  0  0  0  0
   45.7783   33.1824   46.1984 H   0  0  0  0  0  0  0  0  0  0  0  0
  1 15  1  0
  2  1  2  0
  3  2  1  0
  4  5  1  0
  4  3  2  0
  5  6  2  0
  6  1  1  0
  7  5  1  0
  8  7  1  0
  9  8  1  0
 10  9  1  0
 10 11  1  0
 11 12  1  0
 12  7  1  0
 13 18  2  0
 14 13  1  0
 15 14  2  0
 15 16  1  0
 16 17  2  0
 17 18  1  0
  2 19  1  0
  3 20  1  0
  4 21  1  0
  8 22  1  0
  8 23  1  0
  9 24  1  0
  9 25  1  0
 10 26  1  0
 10 27  1  0
 11 28  1  0
 11 29  1  0
 12 30  1  0
 12 31  1  0
 13 32  1  0
 14 33  1  0
 17 34  1  0
M  ISO  8  19  14  20  14  21  14  22  13  23  13  24  13  25  13  26  13
M  ISO  8  27  13  28  13  29  13  30  13  31  13  32  14  33  14  34  14
M  END
>  <minimizedAffinity>  (1) 
-5.77218151

>  <minimizedRMSD>  (1) 
0.1988336

$$$$
