
     RDKit          3D

 33 35  0  0  0  0  0  0  0  0999 V2000
   46.7390   34.7890   42.1020 C   0  0  0  0  0  0  0  0  0  0  0  0
   47.9830   35.3230   41.8930 C   0  0  0  0  0  0  0  0  0  0  0  0
   48.7110   35.2150   40.7250 C   0  0  0  0  0  0  0  0  0  0  0  0
   48.1620   34.5140   39.6690 C   0  0  0  0  0  0  0  0  0  0  0  0
   46.9120   33.9800   39.8860 C   0  0  0  0  0  0  0  0  0  0  0  0
   46.2540   34.1140   41.0300 N   0  0  0  0  0  0  0  0  0  0  0  0
   46.2980   33.2470   38.8310 N   0  0  0  0  0  0  0  0  0  0  0  0
   46.7760   33.3080   37.4620 C   0  0  0  0  0  0  0  0  0  0  0  0
   46.3560   32.0420   36.7390 C   0  0  0  0  0  0  0  0  0  0  0  0
   44.9490   31.7910   36.7710 N   0  0  0  0  0  0  0  0  0  0  0  0
   44.2660   32.5460   37.8150 C   0  0  0  0  0  0  0  0  0  0  0  0
   45.1490   32.3900   39.0600 C   0  0  0  0  0  0  0  0  0  0  0  0
   44.4590   35.9330   44.8690 C   0  0  0  0  0  0  0  0  0  0  0  0
   45.0930   35.9650   43.6130 C   0  0  0  0  0  0  0  0  0  0  0  0
   45.9940   34.9220   43.3490 C   0  0  0  0  0  0  0  0  0  0  0  0
   46.1990   33.9750   44.2780 N   0  0  0  0  0  0  0  0  0  0  0  0
   45.5630   33.9890   45.4740 C   0  0  0  0  0  0  0  0  0  0  0  0
   44.7020   34.9650   45.7560 N   0  0  0  0  0  0  0  0  0  0  0  0
   48.4387   35.8831   42.7228 H   0  0  0  0  0  0  0  0  0  0  0  0
   49.7056   35.6767   40.6373 H   0  0  0  0  0  0  0  0  0  0  0  0
   48.6915   34.3900   38.7128 H   0  0  0  0  0  0  0  0  0  0  0  0
   46.3409   34.1832   36.9574 H   0  0  0  0  0  0  0  0  0  0  0  0
   47.8724   33.3964   37.4532 H   0  0  0  0  0  0  0  0  0  0  0  0
   46.8697   31.1898   37.2079 H   0  0  0  0  0  0  0  0  0  0  0  0
   46.6306   32.1744   35.6821 H   0  0  0  0  0  0  0  0  0  0  0  0
   44.5470   32.0517   35.8592 H   0  0  0  0  0  0  0  0  0  0  0  0
   44.1798   33.6056   37.5324 H   0  0  0  0  0  0  0  0  0  0  0  0
   43.2424   32.1815   37.9861 H   0  0  0  0  0  0  0  0  0  0  0  0
   45.4672   31.3435   39.1768 H   0  0  0  0  0  0  0  0  0  0  0  0
   44.6109   32.6660   39.9789 H   0  0  0  0  0  0  0  0  0  0  0  0
   43.7434   36.7275   45.1272 H   0  0  0  0  0  0  0  0  0  0  0  0
   44.8939   36.7613   42.8807 H   0  0  0  0  0  0  0  0  0  0  0  0
   45.7574   33.1957   46.2108 H   0  0  0  0  0  0  0  0  0  0  0  0
  1 15  1  0
  2  1  2  0
  3  2  1  0
  4  5  1  0
  4  3  2  0
  5  6  2  0
  6  1  1  0
  7 12  1  0
  7  5  1  0
  8  7  1  0
  9 10  1  0
  9  8  1  0
 10 11  1  0
 11 12  1  0
 13 18  2  0
 14 13  1  0
 15 14  2  0
 15 16  1  0
 16 17  2  0
 17 18  1  0
  2 19  1  0
  3 20  1  0
  4 21  1  0
  8 22  1  0
  8 23  1  0
  9 24  1  0
  9 25  1  0
 10 26  1  0
 11 27  1  0
 11 28  1  0
 12 29  1  0
 12 30  1  0
 13 31  1  0
 14 32  1  0
 17 33  1  0
M  ISO  8  19  14  20  14  21  14  22  13  23  13  24  13  25  13  26   5
M  ISO  7  27  13  28  13  29  13  30  13  31  14  32  14  33  14
M  END
>  <minimizedAffinity>  (1) 
-5.71453524

>  <minimizedRMSD>  (1) 
0.194024518

$$$$
