
     RDKit          3D

 26 28  0  0  0  0  0  0  0  0999 V2000
   46.7540   34.7910   42.0470 C   0  0  0  0  0  0  0  0  0  0  0  0
   47.9840   35.3620   41.8560 C   0  0  0  0  0  0  0  0  0  0  0  0
   48.7260   35.2500   40.6920 C   0  0  0  0  0  0  0  0  0  0  0  0
   48.2070   34.5200   39.6480 C   0  0  0  0  0  0  0  0  0  0  0  0
   46.9780   33.9620   39.8680 C   0  0  0  0  0  0  0  0  0  0  0  0
   46.2960   34.0930   41.0040 N   0  0  0  0  0  0  0  0  0  0  0  0
   44.4640   35.9410   44.8220 C   0  0  0  0  0  0  0  0  0  0  0  0
   45.1080   35.9430   43.5830 C   0  0  0  0  0  0  0  0  0  0  0  0
   46.0050   34.9310   43.2890 C   0  0  0  0  0  0  0  0  0  0  0  0
   46.2080   33.9760   44.2430 N   0  0  0  0  0  0  0  0  0  0  0  0
   45.5780   33.9890   45.4370 C   0  0  0  0  0  0  0  0  0  0  0  0
   44.7120   34.9650   45.7220 N   0  0  0  0  0  0  0  0  0  0  0  0
   46.3480   33.1640   38.8030 C   0  0  0  0  0  0  0  0  0  0  0  0
   46.6290   33.2330   37.4570 C   0  0  0  0  0  0  0  0  0  0  0  0
   45.8870   32.3770   36.7350 N   0  0  0  0  0  0  0  0  0  0  0  0
   45.1230   31.7600   37.6720 C   0  0  0  0  0  0  0  0  0  0  0  0
   45.3940   32.2240   38.9030 N   0  0  0  0  0  0  0  0  0  0  0  0
   48.4112   35.9489   42.6824 H   0  0  0  0  0  0  0  0  0  0  0  0
   49.7096   35.7346   40.6042 H   0  0  0  0  0  0  0  0  0  0  0  0
   48.7458   34.3932   38.6974 H   0  0  0  0  0  0  0  0  0  0  0  0
   43.7492   36.7405   45.0669 H   0  0  0  0  0  0  0  0  0  0  0  0
   44.9051   36.7382   42.8506 H   0  0  0  0  0  0  0  0  0  0  0  0
   45.7776   33.1971   46.1739 H   0  0  0  0  0  0  0  0  0  0  0  0
   47.3767   33.9124   37.0219 H   0  0  0  0  0  0  0  0  0  0  0  0
   45.8957   32.2254   35.7162 H   0  0  0  0  0  0  0  0  0  0  0  0
   44.3784   30.9809   37.4517 H   0  0  0  0  0  0  0  0  0  0  0  0
  1  9  1  0
  2  1  2  0
  3  2  1  0
  4  5  1  0
  4  3  2  0
  5  6  2  0
  6  1  1  0
  7 12  2  0
  8  7  1  0
  9  8  2  0
  9 10  1  0
 10 11  2  0
 11 12  1  0
 13 17  1  0
 13  5  1  0
 14 13  2  0
 15 14  1  0
 15 16  1  0
 16 17  2  0
  2 18  1  0
  3 19  1  0
  4 20  1  0
  7 21  1  0
  8 22  1  0
 11 23  1  0
 14 24  1  0
 15 25  1  0
 16 26  1  0
M  ISO  8  18  14  19  14  20  14  21  14  22  14  23  14  24  14  25   9
M  ISO  1  26  14
M  END
>  <minimizedAffinity>  (1) 
-5.25740147

>  <minimizedRMSD>  (1) 
0.16235888

$$$$
