
     RDKit          3D

 44 48  0  0  1  0  0  0  0  0999 V2000
   47.2070   32.7830   44.2020 C   0  0  0  0  0  0  0  0  0  0  0  0
   47.2450   31.9160   45.2860 C   0  0  0  0  0  0  0  0  0  0  0  0
   46.4620   32.0770   46.4300 C   0  0  0  0  0  0  0  0  0  0  0  0
   45.5920   33.1500   46.5150 C   0  0  0  0  0  0  0  0  0  0  0  0
   45.5310   34.0160   45.4690 C   0  0  0  0  0  0  0  0  0  0  0  0
   44.6900   35.1100   45.5300 C   0  0  0  0  0  0  0  0  0  0  0  0
   44.5840   36.0390   44.5360 C   0  0  0  0  0  0  0  0  0  0  0  0
   45.3780   35.8330   43.4310 C   0  0  0  0  0  0  0  0  0  0  0  0
   46.2320   34.7380   43.3490 C   0  0  0  0  0  0  0  0  0  0  0  0
   46.3260   33.8190   44.3500 C   0  0  0  0  0  0  0  0  0  0  0  0
   46.9750   34.8140   42.1060 C   0  0  0  0  0  0  0  0  0  0  0  0
   48.1260   35.4090   41.6730 C   0  0  0  0  0  0  0  0  0  0  0  0
   48.7080   35.2900   40.4520 C   0  0  0  0  0  0  0  0  0  0  0  0
   48.1290   34.5010   39.5070 C   0  0  0  0  0  0  0  0  0  0  0  0
   46.9660   33.8820   39.9050 C   0  0  0  0  0  0  0  0  0  0  0  0
   46.4460   34.0350   41.1080 N   0  0  0  0  0  0  0  0  0  0  0  0
   48.0410   32.5160   43.1210 N   0  0  0  0  0  0  0  0  0  0  0  0
   49.9550   31.2520   42.0600 C   0  0  1  0  0  0  0  0  0  0  0  0
   48.7110   30.4020   41.8960 C   0  0  0  0  0  0  0  0  0  0  0  0
   48.9020   31.3620   43.0640 C   0  0  2  0  0  0  0  0  0  0  0  0
   53.2820   29.7010   41.5810 C   0  0  0  0  0  0  0  0  0  0  0  0
   53.5950   29.2830   42.9100 C   0  0  0  0  0  0  0  0  0  0  0  0
   52.6560   29.5540   43.9380 C   0  0  0  0  0  0  0  0  0  0  0  0
   51.5160   30.1880   43.6390 N   0  0  0  0  0  0  0  0  0  0  0  0
   51.2460   30.5740   42.3620 C   0  0  0  0  0  0  0  0  0  0  0  0
   52.1280   30.3310   41.3350 N   0  0  0  0  0  0  0  0  0  0  0  0
   47.9292   31.0559   45.2406 H   0  0  0  0  0  0  0  0  0  0  0  0
   46.5358   31.3565   47.2579 H   0  0  0  0  0  0  0  0  0  0  0  0
   44.9654   33.2984   47.4069 H   0  0  0  0  0  0  0  0  0  0  0  0
   44.0711   35.2397   46.4301 H   0  0  0  0  0  0  0  0  0  0  0  0
   43.9047   36.9007   44.6134 H   0  0  0  0  0  0  0  0  0  0  0  0
   45.3365   36.5482   42.5963 H   0  0  0  0  0  0  0  0  0  0  0  0
   48.6402   36.0589   42.3963 H   0  0  0  0  0  0  0  0  0  0  0  0
   49.6412   35.8278   40.2285 H   0  0  0  0  0  0  0  0  0  0  0  0
   48.5572   34.3681   38.5025 H   0  0  0  0  0  0  0  0  0  0  0  0
   46.4463   33.2300   39.1875 H   0  0  0  0  0  0  0  0  0  0  0  0
   48.0431   33.1718   42.3268 H   0  0  0  0  0  0  0  0  0  0  0  0
   50.4866   31.9923   41.4441 H   0  0  0  0  0  0  0  0  0  0  0  0
   47.9828   30.6274   41.1029 H   0  0  0  0  0  0  0  0  0  0  0  0
   48.4928   29.3303   41.7780 H   0  0  0  0  0  0  0  0  0  0  0  0
   48.9029   31.2879   44.1615 H   0  0  0  0  0  0  0  0  0  0  0  0
   53.9886   29.5053   40.7610 H   0  0  0  0  0  0  0  0  0  0  0  0
   54.5396   28.7644   43.1308 H   0  0  0  0  0  0  0  0  0  0  0  0
   52.8633   29.2453   44.9733 H   0  0  0  0  0  0  0  0  0  0  0  0
  1 10  1  0
  1  2  2  0
  2  3  1  0
  3  4  2  0
  5  6  2  0
  5  4  1  0
  7  6  1  0
  8  7  2  0
  9  8  1  0
  9 10  2  0
 10  5  1  0
 11  9  1  0
 12 11  2  0
 13 12  1  0
 14 15  1  0
 14 13  2  0
 15 16  2  0
 16 11  1  0
 17  1  1  0
 18 25  1  0
 18 20  1  0
 19 18  1  0
 19 20  1  0
 20 17  1  0
 21 22  2  0
 22 23  1  0
 24 23  2  0
 25 24  1  0
 26 21  1  0
 26 25  2  0
  2 27  1  0
  3 28  1  0
  4 29  1  0
  6 30  1  0
  7 31  1  0
  8 32  1  0
 12 33  1  0
 13 34  1  0
 14 35  1  0
 15 36  1  0
 17 37  1  0
 18 38  1  6
 19 39  1  0
 19 40  1  0
 20 41  1  1
 21 42  1  0
 22 43  1  0
 23 44  1  0
M  ISO  8  27  14  28  14  29  14  30  14  31  14  32  14  33  14  34  14
M  ISO  8  35  14  36  14  38  13  39  13  40  13  41  13  42  14  43  14
M  ISO  1  44  14
M  END
>  <minimizedAffinity>  (1) 
-6.25174618

>  <minimizedRMSD>  (1) 
2.44095349

$$$$
