
     RDKit          3D

 20 21  0  0  0  0  0  0  0  0999 V2000
   46.7140   34.7560   42.1010 C   0  0  0  0  0  0  0  0  0  0  0  0
   47.9310   35.3430   41.8720 C   0  0  0  0  0  0  0  0  0  0  0  0
   48.6560   35.2210   40.7000 C   0  0  0  0  0  0  0  0  0  0  0  0
   48.1410   34.4630   39.6810 C   0  0  0  0  0  0  0  0  0  0  0  0
   46.9250   33.8860   39.9280 C   0  0  0  0  0  0  0  0  0  0  0  0
   46.2480   34.0220   41.0690 N   0  0  0  0  0  0  0  0  0  0  0  0
   44.4500   35.9520   44.8800 C   0  0  0  0  0  0  0  0  0  0  0  0
   45.0930   35.9270   43.6380 C   0  0  0  0  0  0  0  0  0  0  0  0
   45.9790   34.9060   43.3450 C   0  0  0  0  0  0  0  0  0  0  0  0
   46.1780   33.9650   44.3010 N   0  0  0  0  0  0  0  0  0  0  0  0
   45.5500   34.0030   45.4950 C   0  0  0  0  0  0  0  0  0  0  0  0
   44.6980   34.9870   45.7760 N   0  0  0  0  0  0  0  0  0  0  0  0
   46.1810   32.8760   38.6370 S   0  0  0  0  0  0  0  0  0  0  0  0
   48.3623   35.9551   42.6778 H   0  0  0  0  0  0  0  0  0  0  0  0
   49.6282   35.7233   40.5881 H   0  0  0  0  0  0  0  0  0  0  0  0
   48.6707   34.3272   38.7265 H   0  0  0  0  0  0  0  0  0  0  0  0
   43.7438   36.7604   45.1201 H   0  0  0  0  0  0  0  0  0  0  0  0
   44.8949   36.7159   42.8975 H   0  0  0  0  0  0  0  0  0  0  0  0
   45.7430   33.2170   46.2399 H   0  0  0  0  0  0  0  0  0  0  0  0
   45.4428   31.8739   39.2096 H   0  0  0  0  0  0  0  0  0  0  0  0
  1  9  1  0
  2  1  2  0
  3  2  1  0
  4  5  1  0
  4  3  2  0
  5  6  2  0
  6  1  1  0
  7 12  2  0
  8  7  1  0
  9  8  2  0
  9 10  1  0
 10 11  2  0
 11 12  1  0
 13  5  1  0
  2 14  1  0
  3 15  1  0
  4 16  1  0
  7 17  1  0
  8 18  1  0
 11 19  1  0
 13 20  1  0
M  ISO  7  14  14  15  14  16  14  17  14  18  14  19  14  20  11
M  END
>  <minimizedAffinity>  (1) 
-4.8960433

>  <minimizedRMSD>  (1) 
0.0200007558

$$$$
