
     RDKit          3D

 21 22  0  0  0  0  0  0  0  0999 V2000
   46.7260   34.7580   42.0990 C   0  0  0  0  0  0  0  0  0  0  0  0
   47.9370   35.3410   41.8510 C   0  0  0  0  0  0  0  0  0  0  0  0
   48.6690   35.2360   40.6930 C   0  0  0  0  0  0  0  0  0  0  0  0
   48.1430   34.4670   39.6670 C   0  0  0  0  0  0  0  0  0  0  0  0
   46.9130   33.8740   39.9160 C   0  0  0  0  0  0  0  0  0  0  0  0
   46.2620   34.0200   41.0620 N   0  0  0  0  0  0  0  0  0  0  0  0
   44.4570   35.9430   44.8650 C   0  0  0  0  0  0  0  0  0  0  0  0
   45.0990   35.9340   43.6160 C   0  0  0  0  0  0  0  0  0  0  0  0
   45.9940   34.9010   43.3370 C   0  0  0  0  0  0  0  0  0  0  0  0
   46.1840   33.9730   44.2900 N   0  0  0  0  0  0  0  0  0  0  0  0
   45.5700   33.9810   45.4810 C   0  0  0  0  0  0  0  0  0  0  0  0
   44.7030   34.9810   45.7560 N   0  0  0  0  0  0  0  0  0  0  0  0
   46.3340   33.0580   38.8530 C   0  0  0  0  0  0  0  0  0  0  0  0
   46.4830   33.3270   37.6300 O   0  0  0  0  0  0  0  0  0  0  0  0
   48.3674   35.9538   42.6567 H   0  0  0  0  0  0  0  0  0  0  0  0
   49.6384   35.7444   40.5841 H   0  0  0  0  0  0  0  0  0  0  0  0
   48.6699   34.3343   38.7106 H   0  0  0  0  0  0  0  0  0  0  0  0
   43.7477   36.7473   45.1099 H   0  0  0  0  0  0  0  0  0  0  0  0
   44.9008   36.7227   42.8753 H   0  0  0  0  0  0  0  0  0  0  0  0
   45.7674   33.1902   46.2197 H   0  0  0  0  0  0  0  0  0  0  0  0
   45.7436   32.1722   39.1301 H   0  0  0  0  0  0  0  0  0  0  0  0
  1  9  1  0
  2  1  2  0
  3  2  1  0
  4  5  1  0
  4  3  2  0
  5  6  2  0
  6  1  1  0
  7 12  2  0
  8  7  1  0
  9  8  2  0
  9 10  1  0
 10 11  2  0
 11 12  1  0
 13  5  1  0
 14 13  2  0
  2 15  1  0
  3 16  1  0
  4 17  1  0
  7 18  1  0
  8 19  1  0
 11 20  1  0
 13 21  1  0
M  ISO  7  15  14  16  14  17  14  18  14  19  14  20  14  21   6
M  END
>  <minimizedAffinity>  (1) 
-4.85480928

>  <minimizedRMSD>  (1) 
0.247219458

$$$$
