
     RDKit          3D

 26 28  0  0  0  0  0  0  0  0999 V2000
   46.7110   34.7580   42.0840 C   0  0  0  0  0  0  0  0  0  0  0  0
   47.9450   35.3500   41.8570 C   0  0  0  0  0  0  0  0  0  0  0  0
   48.6790   35.2390   40.7030 C   0  0  0  0  0  0  0  0  0  0  0  0
   48.1620   34.4800   39.6690 C   0  0  0  0  0  0  0  0  0  0  0  0
   46.9410   33.9010   39.9100 C   0  0  0  0  0  0  0  0  0  0  0  0
   46.2570   34.0320   41.0480 N   0  0  0  0  0  0  0  0  0  0  0  0
   44.4570   35.9420   44.8630 C   0  0  0  0  0  0  0  0  0  0  0  0
   45.0900   35.9410   43.6060 C   0  0  0  0  0  0  0  0  0  0  0  0
   45.9760   34.9090   43.3310 C   0  0  0  0  0  0  0  0  0  0  0  0
   46.1850   33.9640   44.2760 N   0  0  0  0  0  0  0  0  0  0  0  0
   45.5610   33.9900   45.4820 C   0  0  0  0  0  0  0  0  0  0  0  0
   44.7030   34.9870   45.7520 N   0  0  0  0  0  0  0  0  0  0  0  0
   46.3610   33.0770   38.8120 C   0  0  0  0  0  0  0  0  0  0  0  0
   47.3100   32.1420   38.1300 C   0  0  0  0  0  0  0  0  0  0  0  0
   46.7460   33.3550   37.4290 C   0  0  0  0  0  0  0  0  0  0  0  0
   48.3700   35.9584   42.6689 H   0  0  0  0  0  0  0  0  0  0  0  0
   49.6529   35.7405   40.6030 H   0  0  0  0  0  0  0  0  0  0  0  0
   48.6946   34.3488   38.7155 H   0  0  0  0  0  0  0  0  0  0  0  0
   43.7483   36.7455   45.1125 H   0  0  0  0  0  0  0  0  0  0  0  0
   44.8894   36.7309   42.8672 H   0  0  0  0  0  0  0  0  0  0  0  0
   45.7558   33.2050   46.2275 H   0  0  0  0  0  0  0  0  0  0  0  0
   45.3870   32.9874   39.3152 H   0  0  0  0  0  0  0  0  0  0  0  0
   48.3694   32.1140   38.4247 H   0  0  0  0  0  0  0  0  0  0  0  0
   47.3443   31.0609   37.9300 H   0  0  0  0  0  0  0  0  0  0  0  0
   47.3988   34.2109   37.2025 H   0  0  0  0  0  0  0  0  0  0  0  0
   46.1975   33.5227   36.4904 H   0  0  0  0  0  0  0  0  0  0  0  0
  1  9  1  0
  2  1  2  0
  3  2  1  0
  4  5  1  0
  4  3  2  0
  5  6  2  0
  6  1  1  0
  7 12  2  0
  8  7  1  0
  9  8  2  0
  9 10  1  0
 10 11  2  0
 11 12  1  0
 13  5  1  0
 14 13  1  0
 15 14  1  0
 15 13  1  0
  2 16  1  0
  3 17  1  0
  4 18  1  0
  7 19  1  0
  8 20  1  0
 11 21  1  0
 13 22  1  0
 14 23  1  0
 14 24  1  0
 15 25  1  0
 15 26  1  0
M  ISO  8  16  14  17  14  18  14  19  14  20  14  21  14  22  13  23  13
M  ISO  3  24  13  25  13  26  13
M  END
>  <minimizedAffinity>  (1) 
-5.04077387

>  <minimizedRMSD>  (1) 
0.258923262

$$$$
