
     RDKit          3D

 36 39  0  0  1  0  0  0  0  0999 V2000
   46.8200   34.8520   42.1510 C   0  0  0  0  0  0  0  0  0  0  0  0
   48.0370   35.4780   41.9740 C   0  0  0  0  0  0  0  0  0  0  0  0
   48.8070   35.4070   40.8380 C   0  0  0  0  0  0  0  0  0  0  0  0
   48.3500   34.6550   39.7770 C   0  0  0  0  0  0  0  0  0  0  0  0
   47.1320   34.0370   39.9710 C   0  0  0  0  0  0  0  0  0  0  0  0
   46.4220   34.1360   41.0920 N   0  0  0  0  0  0  0  0  0  0  0  0
   44.4490   35.9030   44.8870 C   0  0  0  0  0  0  0  0  0  0  0  0
   45.1250   35.9470   43.6480 C   0  0  0  0  0  0  0  0  0  0  0  0
   46.0410   34.9570   43.3700 C   0  0  0  0  0  0  0  0  0  0  0  0
   46.2350   34.0040   44.3030 N   0  0  0  0  0  0  0  0  0  0  0  0
   45.5850   33.9670   45.4880 C   0  0  0  0  0  0  0  0  0  0  0  0
   44.6980   34.9260   45.7580 N   0  0  0  0  0  0  0  0  0  0  0  0
   46.6200   33.2200   38.8350 C   0  0  2  0  0  0  0  0  0  0  0  0
   46.3630   31.7840   39.1280 C   0  0  0  0  0  0  0  0  0  0  0  0
   47.4790   32.2090   38.2190 C   0  0  1  0  0  0  0  0  0  0  0  0
   47.3390   31.7960   36.8500 N   0  0  0  0  0  0  0  0  0  0  0  0
   46.6050   30.7400   36.4570 C   0  0  0  0  0  0  0  0  0  0  0  0
   46.4790   30.3500   35.1210 C   0  0  0  0  0  0  0  0  0  0  0  0
   47.1310   31.0720   34.1410 C   0  0  0  0  0  0  0  0  0  0  0  0
   47.0440   30.7550   32.9290 O   0  0  0  0  0  0  0  0  0  0  0  0
   47.8640   32.1250   34.5450 N   0  0  0  0  0  0  0  0  0  0  0  0
   47.9440   32.4480   35.8490 C   0  0  0  0  0  0  0  0  0  0  0  0
   48.6680   33.4630   36.0820 O   0  0  0  0  0  0  0  0  0  0  0  0
   48.4215   36.0821   42.8090 H   0  0  0  0  0  0  0  0  0  0  0  0
   49.7678   35.9391   40.7767 H   0  0  0  0  0  0  0  0  0  0  0  0
   48.9175   34.5546   38.8401 H   0  0  0  0  0  0  0  0  0  0  0  0
   43.7117   36.6808   45.1348 H   0  0  0  0  0  0  0  0  0  0  0  0
   44.9252   36.7508   42.9241 H   0  0  0  0  0  0  0  0  0  0  0  0
   45.7832   33.1640   46.2132 H   0  0  0  0  0  0  0  0  0  0  0  0
   46.0434   34.0626   38.4257 H   0  0  0  0  0  0  0  0  0  0  0  0
   46.5857   31.3735   40.1239 H   0  0  0  0  0  0  0  0  0  0  0  0
   45.4988   31.1081   39.0486 H   0  0  0  0  0  0  0  0  0  0  0  0
   48.5736   32.1166   38.1623 H   0  0  0  0  0  0  0  0  0  0  0  0
   46.0780   30.1545   37.2247 H   0  0  0  0  0  0  0  0  0  0  0  0
   45.8665   29.4766   34.8527 H   0  0  0  0  0  0  0  0  0  0  0  0
   48.3698   32.6905   33.8484 H   0  0  0  0  0  0  0  0  0  0  0  0
  1  9  1  0
  2  1  2  0
  3  2  1  0
  4  5  1  0
  4  3  2  0
  5  6  2  0
  6  1  1  0
  7 12  2  0
  8  7  1  0
  9  8  2  0
  9 10  1  0
 10 11  2  0
 11 12  1  0
 13 14  1  0
 13  5  1  0
 15 13  1  0
 15 14  1  0
 16 15  1  0
 17 16  1  0
 18 17  2  0
 19 21  1  0
 19 18  1  0
 20 19  2  0
 21 22  1  0
 22 23  2  0
 22 16  1  0
  2 24  1  0
  3 25  1  0
  4 26  1  0
  7 27  1  0
  8 28  1  0
 11 29  1  0
 13 30  1  6
 14 31  1  0
 14 32  1  0
 15 33  1  1
 17 34  1  0
 18 35  1  0
 21 36  1  0
M  ISO  8  24  14  25  14  26  14  27  14  28  14  29  14  30  13  31  13
M  ISO  5  32  13  33  13  34  14  35  14  36   9
M  END
>  <minimizedAffinity>  (1) 
-5.97859383

>  <minimizedRMSD>  (1) 
2.07596159

$$$$
