
     RDKit          3D

 40 43  0  0  1  0  0  0  0  0999 V2000
   46.8730   34.8490   42.0410 C   0  0  0  0  0  0  0  0  0  0  0  0
   48.0680   35.5220   41.8630 C   0  0  0  0  0  0  0  0  0  0  0  0
   48.8510   35.4580   40.7320 C   0  0  0  0  0  0  0  0  0  0  0  0
   48.4260   34.6690   39.6870 C   0  0  0  0  0  0  0  0  0  0  0  0
   47.2390   34.0120   39.8860 C   0  0  0  0  0  0  0  0  0  0  0  0
   46.5150   34.1010   40.9950 N   0  0  0  0  0  0  0  0  0  0  0  0
   44.4810   35.9120   44.7570 C   0  0  0  0  0  0  0  0  0  0  0  0
   45.1620   35.9510   43.5300 C   0  0  0  0  0  0  0  0  0  0  0  0
   46.0850   34.9520   43.2610 C   0  0  0  0  0  0  0  0  0  0  0  0
   46.2900   33.9830   44.1930 N   0  0  0  0  0  0  0  0  0  0  0  0
   45.6140   33.9720   45.3740 C   0  0  0  0  0  0  0  0  0  0  0  0
   44.7180   34.9460   45.6280 N   0  0  0  0  0  0  0  0  0  0  0  0
   46.7520   33.1450   38.7640 C   0  0  2  0  0  0  0  0  0  0  0  0
   46.3690   31.7470   39.1800 C   0  0  0  0  0  0  0  0  0  0  0  0
   47.5680   32.0440   38.2950 C   0  0  1  0  0  0  0  0  0  0  0  0
   47.3930   31.5330   36.9460 N   0  0  0  0  0  0  0  0  0  0  0  0
   47.2220   32.5480   35.9550 C   0  0  0  0  0  0  0  0  0  0  0  0
   48.1240   32.4540   34.7720 C   0  0  0  0  0  0  0  0  0  0  0  0
   49.4880   32.1760   35.0910 N   0  0  0  0  0  0  0  0  0  0  0  0
   49.6790   31.3340   36.2530 C   0  0  0  0  0  0  0  0  0  0  0  0
   48.4030   30.6040   36.5470 C   0  0  0  0  0  0  0  0  0  0  0  0
   48.4203   36.1576   42.6888 H   0  0  0  0  0  0  0  0  0  0  0  0
   49.7924   36.0231   40.6652 H   0  0  0  0  0  0  0  0  0  0  0  0
   49.0006   34.5720   38.7541 H   0  0  0  0  0  0  0  0  0  0  0  0
   43.7434   36.6923   44.9959 H   0  0  0  0  0  0  0  0  0  0  0  0
   44.9686   36.7524   42.8018 H   0  0  0  0  0  0  0  0  0  0  0  0
   45.7968   33.1775   46.1125 H   0  0  0  0  0  0  0  0  0  0  0  0
   46.2731   33.9823   38.2351 H   0  0  0  0  0  0  0  0  0  0  0  0
   46.5113   31.4157   40.2192 H   0  0  0  0  0  0  0  0  0  0  0  0
   45.4697   31.1170   39.1137 H   0  0  0  0  0  0  0  0  0  0  0  0
   48.6566   31.8866   38.3114 H   0  0  0  0  0  0  0  0  0  0  0  0
   46.1843   32.4965   35.5938 H   0  0  0  0  0  0  0  0  0  0  0  0
   47.4749   33.4969   36.4506 H   0  0  0  0  0  0  0  0  0  0  0  0
   48.0851   33.4119   34.2327 H   0  0  0  0  0  0  0  0  0  0  0  0
   47.7637   31.6075   34.1689 H   0  0  0  0  0  0  0  0  0  0  0  0
   49.9175   31.7068   34.2809 H   0  0  0  0  0  0  0  0  0  0  0  0
   50.4809   30.6079   36.0536 H   0  0  0  0  0  0  0  0  0  0  0  0
   49.9578   31.9544   37.1175 H   0  0  0  0  0  0  0  0  0  0  0  0
   48.5748   29.8810   37.3581 H   0  0  0  0  0  0  0  0  0  0  0  0
   48.0713   30.0746   35.6416 H   0  0  0  0  0  0  0  0  0  0  0  0
  1  9  1  0
  2  1  2  0
  3  2  1  0
  4  5  1  0
  4  3  2  0
  5  6  2  0
  6  1  1  0
  7 12  2  0
  8  7  1  0
  9  8  2  0
  9 10  1  0
 10 11  2  0
 11 12  1  0
 13 14  1  0
 13  5  1  0
 15 13  1  0
 15 14  1  0
 16 21  1  0
 16 15  1  0
 17 16  1  0
 18 19  1  0
 18 17  1  0
 19 20  1  0
 20 21  1  0
  2 22  1  0
  3 23  1  0
  4 24  1  0
  7 25  1  0
  8 26  1  0
 11 27  1  0
 13 28  1  6
 14 29  1  0
 14 30  1  0
 15 31  1  1
 17 32  1  0
 17 33  1  0
 18 34  1  0
 18 35  1  0
 19 36  1  0
 20 37  1  0
 20 38  1  0
 21 39  1  0
 21 40  1  0
M  ISO  8  22  14  23  14  24  14  25  14  26  14  27  14  28  13  29  13
M  ISO  8  30  13  31  13  32  13  33  13  34  13  35  13  36   5  37  13
M  ISO  3  38  13  39  13  40  13
M  END
>  <minimizedAffinity>  (1) 
-5.68503046

>  <minimizedRMSD>  (1) 
1.58909237

$$$$
