
     RDKit          3D

 42 45  0  0  1  0  0  0  0  0999 V2000
   46.7990   34.8240   42.1380 C   0  0  0  0  0  0  0  0  0  0  0  0
   48.0160   35.4440   41.9500 C   0  0  0  0  0  0  0  0  0  0  0  0
   48.7760   35.3690   40.8060 C   0  0  0  0  0  0  0  0  0  0  0  0
   48.2890   34.6110   39.7500 C   0  0  0  0  0  0  0  0  0  0  0  0
   47.0850   34.0100   39.9640 C   0  0  0  0  0  0  0  0  0  0  0  0
   46.3800   34.1080   41.0880 N   0  0  0  0  0  0  0  0  0  0  0  0
   44.4560   35.9140   44.8820 C   0  0  0  0  0  0  0  0  0  0  0  0
   45.1130   35.9560   43.6390 C   0  0  0  0  0  0  0  0  0  0  0  0
   46.0280   34.9350   43.3770 C   0  0  0  0  0  0  0  0  0  0  0  0
   46.2360   33.9760   44.3100 N   0  0  0  0  0  0  0  0  0  0  0  0
   45.5790   33.9760   45.4930 C   0  0  0  0  0  0  0  0  0  0  0  0
   44.6900   34.9570   45.7600 N   0  0  0  0  0  0  0  0  0  0  0  0
   46.5470   33.1930   38.8410 C   0  0  2  0  0  0  0  0  0  0  0  0
   46.6600   31.7090   38.9870 C   0  0  0  0  0  0  0  0  0  0  0  0
   47.4780   32.4600   37.9770 C   0  0  1  0  0  0  0  0  0  0  0  0
   47.1450   32.4540   36.5180 C   0  0  0  0  0  0  0  0  0  0  0  0
   48.3320   31.9330   35.7390 C   0  0  0  0  0  0  0  0  0  0  0  0
   47.8360   31.1880   34.5310 C   0  0  0  0  0  0  0  0  0  0  0  0
   46.6970   31.8840   33.8230 C   0  0  0  0  0  0  0  0  0  0  0  0
   45.5410   32.1710   34.7390 C   0  0  0  0  0  0  0  0  0  0  0  0
   45.9270   31.6830   36.1420 C   0  0  0  0  0  0  0  0  0  0  0  0
   48.4107   36.0467   42.7812 H   0  0  0  0  0  0  0  0  0  0  0  0
   49.7399   35.8935   40.7303 H   0  0  0  0  0  0  0  0  0  0  0  0
   48.8386   34.5027   38.8033 H   0  0  0  0  0  0  0  0  0  0  0  0
   43.7274   36.7002   45.1289 H   0  0  0  0  0  0  0  0  0  0  0  0
   44.9153   36.7547   42.9089 H   0  0  0  0  0  0  0  0  0  0  0  0
   45.7676   33.1830   46.2316 H   0  0  0  0  0  0  0  0  0  0  0  0
   45.7350   33.9080   38.6421 H   0  0  0  0  0  0  0  0  0  0  0  0
   47.1403   31.2750   39.8764 H   0  0  0  0  0  0  0  0  0  0  0  0
   45.9602   30.8608   38.9576 H   0  0  0  0  0  0  0  0  0  0  0  0
   48.5556   32.4634   37.7564 H   0  0  0  0  0  0  0  0  0  0  0  0
   46.9138   33.4993   36.2653 H   0  0  0  0  0  0  0  0  0  0  0  0
   48.9621   32.7761   35.4193 H   0  0  0  0  0  0  0  0  0  0  0  0
   48.9259   31.2587   36.3735 H   0  0  0  0  0  0  0  0  0  0  0  0
   48.6705   31.0765   33.8231 H   0  0  0  0  0  0  0  0  0  0  0  0
   47.4558   30.2171   34.8815 H   0  0  0  0  0  0  0  0  0  0  0  0
   47.0658   32.8351   33.4114 H   0  0  0  0  0  0  0  0  0  0  0  0
   46.3365   31.2132   33.0292 H   0  0  0  0  0  0  0  0  0  0  0  0
   45.3391   33.2521   34.7605 H   0  0  0  0  0  0  0  0  0  0  0  0
   44.6337   31.6576   34.3879 H   0  0  0  0  0  0  0  0  0  0  0  0
   45.1127   31.8816   36.8543 H   0  0  0  0  0  0  0  0  0  0  0  0
   46.1129   30.5989   36.1571 H   0  0  0  0  0  0  0  0  0  0  0  0
  1  9  1  0
  2  1  2  0
  3  2  1  0
  4  5  1  0
  4  3  2  0
  5  6  2  0
  6  1  1  0
  7 12  2  0
  8  7  1  0
  9  8  2  0
  9 10  1  0
 10 11  2  0
 11 12  1  0
 13 14  1  0
 13  5  1  0
 15 13  1  0
 15 14  1  0
 16 15  1  0
 17 16  1  0
 18 17  1  0
 19 18  1  0
 19 20  1  0
 20 21  1  0
 21 16  1  0
  2 22  1  0
  3 23  1  0
  4 24  1  0
  7 25  1  0
  8 26  1  0
 11 27  1  0
 13 28  1  6
 14 29  1  0
 14 30  1  0
 15 31  1  6
 16 32  1  0
 17 33  1  0
 17 34  1  0
 18 35  1  0
 18 36  1  0
 19 37  1  0
 19 38  1  0
 20 39  1  0
 20 40  1  0
 21 41  1  0
 21 42  1  0
M  ISO  8  22  14  23  14  24  14  25  14  26  14  27  14  28  13  29  13
M  ISO  8  30  13  31  13  32  13  33  13  34  13  35  13  36  13  37  13
M  ISO  5  38  13  39  13  40  13  41  13  42  13
M  END
>  <minimizedAffinity>  (1) 
-5.65328169

>  <minimizedRMSD>  (1) 
1.32202077

$$$$
