
     RDKit          3D

 42 46  0  0  1  0  0  0  0  0999 V2000
   47.3940   32.9560   44.1290 C   0  0  0  0  0  0  0  0  0  0  0  0
   47.3250   32.1280   45.2410 C   0  0  0  0  0  0  0  0  0  0  0  0
   46.4090   32.3020   46.2750 C   0  0  0  0  0  0  0  0  0  0  0  0
   45.5140   33.3390   46.2200 C   0  0  0  0  0  0  0  0  0  0  0  0
   45.5460   34.1840   45.1360 C   0  0  0  0  0  0  0  0  0  0  0  0
   44.6700   35.2450   45.0650 C   0  0  0  0  0  0  0  0  0  0  0  0
   44.6520   36.1320   44.0400 C   0  0  0  0  0  0  0  0  0  0  0  0
   45.5710   35.9140   43.0540 C   0  0  0  0  0  0  0  0  0  0  0  0
   46.4750   34.8500   43.0870 C   0  0  0  0  0  0  0  0  0  0  0  0
   46.4790   33.9730   44.1230 C   0  0  0  0  0  0  0  0  0  0  0  0
   47.3460   34.8690   41.8920 C   0  0  0  0  0  0  0  0  0  0  0  0
   46.9040   34.2200   40.7110 C   0  0  0  0  0  0  0  0  0  0  0  0
   47.7170   34.3350   39.6250 C   0  0  0  0  0  0  0  0  0  0  0  0
   48.6850   35.0700   40.1400 N   0  0  0  0  0  0  0  0  0  0  0  0
   48.4440   35.3350   41.3670 N   0  0  0  0  0  0  0  0  0  0  0  0
   48.3570   32.6890   43.1580 N   0  0  0  0  0  0  0  0  0  0  0  0
   50.2520   31.2300   42.3090 C   0  0  1  0  0  0  0  0  0  0  0  0
   48.9560   30.6790   41.7430 C   0  0  0  0  0  0  0  0  0  0  0  0
   49.0290   31.4180   43.0700 C   0  0  2  0  0  0  0  0  0  0  0  0
   52.0660   28.7840   44.4340 C   0  0  0  0  0  0  0  0  0  0  0  0
   53.2160   28.5230   43.6300 C   0  0  0  0  0  0  0  0  0  0  0  0
   53.3350   29.1860   42.3810 C   0  0  0  0  0  0  0  0  0  0  0  0
   52.3740   30.0290   41.9980 N   0  0  0  0  0  0  0  0  0  0  0  0
   51.2890   30.2600   42.7820 C   0  0  0  0  0  0  0  0  0  0  0  0
   51.1310   29.6400   44.0000 N   0  0  0  0  0  0  0  0  0  0  0  0
   48.0326   31.2886   45.3090 H   0  0  0  0  0  0  0  0  0  0  0  0
   46.4035   31.6114   47.1311 H   0  0  0  0  0  0  0  0  0  0  0  0
   44.7838   33.4921   47.0283 H   0  0  0  0  0  0  0  0  0  0  0  0
   43.9471   35.3795   45.8831 H   0  0  0  0  0  0  0  0  0  0  0  0
   43.9433   36.9725   44.0049 H   0  0  0  0  0  0  0  0  0  0  0  0
   45.6006   36.6048   42.1985 H   0  0  0  0  0  0  0  0  0  0  0  0
   45.9598   33.6568   40.6746 H   0  0  0  0  0  0  0  0  0  0  0  0
   47.6005   33.9308   38.6086 H   0  0  0  0  0  0  0  0  0  0  0  0
   49.5189   35.3861   39.6246 H   0  0  0  0  0  0  0  0  0  0  0  0
   48.5966   33.4261   42.4796 H   0  0  0  0  0  0  0  0  0  0  0  0
   51.0318   31.9156   41.9459 H   0  0  0  0  0  0  0  0  0  0  0  0
   48.4849   31.1498   40.8675 H   0  0  0  0  0  0  0  0  0  0  0  0
   48.5927   29.6997   41.3981 H   0  0  0  0  0  0  0  0  0  0  0  0
   48.7719   31.2083   44.1188 H   0  0  0  0  0  0  0  0  0  0  0  0
   51.9477   28.2841   45.4067 H   0  0  0  0  0  0  0  0  0  0  0  0
   53.9931   27.8232   43.9711 H   0  0  0  0  0  0  0  0  0  0  0  0
   54.2084   29.0073   41.7366 H   0  0  0  0  0  0  0  0  0  0  0  0
  1  2  2  0
  2  3  1  0
  4  3  2  0
  5  4  1  0
  6  5  2  0
  7  6  1  0
  8  9  1  0
  8  7  2  0
  9 10  2  0
 10  1  1  0
 10  5  1  0
 11  9  1  0
 12 11  1  0
 13 14  1  0
 13 12  2  0
 14 15  1  0
 15 11  2  0
 16  1  1  0
 17 24  1  0
 17 19  1  0
 18 17  1  0
 18 19  1  0
 19 16  1  0
 21 20  2  0
 22 21  1  0
 23 22  2  0
 23 24  1  0
 24 25  2  0
 25 20  1  0
  2 26  1  0
  3 27  1  0
  4 28  1  0
  6 29  1  0
  7 30  1  0
  8 31  1  0
 12 32  1  0
 13 33  1  0
 14 34  1  0
 16 35  1  0
 17 36  1  6
 18 37  1  0
 18 38  1  0
 19 39  1  1
 20 40  1  0
 21 41  1  0
 22 42  1  0
M  ISO  8  26  14  27  14  28  14  29  14  30  14  31  14  32  14  33  14
M  ISO  8  34   9  36  13  37  13  38  13  39  13  40  14  41  14  42  14
M  END
>  <minimizedAffinity>  (1) 
-5.7706995

>  <minimizedRMSD>  (1) 
2.60866308

$$$$
