
     RDKit          3D

 27 29  0  0  1  0  0  0  0  0999 V2000
   46.7740   34.7940   42.0140 C   0  0  0  0  0  0  0  0  0  0  0  0
   48.0240   35.3720   41.8240 C   0  0  0  0  0  0  0  0  0  0  0  0
   48.7680   35.2770   40.6760 C   0  0  0  0  0  0  0  0  0  0  0  0
   48.2630   34.5610   39.6180 C   0  0  0  0  0  0  0  0  0  0  0  0
   47.0240   33.9940   39.8220 C   0  0  0  0  0  0  0  0  0  0  0  0
   46.3100   34.0970   40.9490 N   0  0  0  0  0  0  0  0  0  0  0  0
   44.4740   35.9460   44.7660 C   0  0  0  0  0  0  0  0  0  0  0  0
   45.1280   35.9520   43.5220 C   0  0  0  0  0  0  0  0  0  0  0  0
   46.0290   34.9230   43.2440 C   0  0  0  0  0  0  0  0  0  0  0  0
   46.2170   33.9860   44.1860 N   0  0  0  0  0  0  0  0  0  0  0  0
   45.5810   33.9910   45.3850 C   0  0  0  0  0  0  0  0  0  0  0  0
   44.7190   34.9770   45.6460 N   0  0  0  0  0  0  0  0  0  0  0  0
   46.4530   33.2130   38.6950 C   0  0  2  0  0  0  0  0  0  0  0  0
   47.4090   32.2530   38.0360 C   0  0  0  0  0  0  0  0  0  0  0  0
   46.8820   33.4770   37.3320 C   0  0  1  0  0  0  0  0  0  0  0  0
   46.0430   33.1740   36.2490 O   0  0  0  0  0  0  0  0  0  0  0  0
   48.4487   35.9497   42.6582 H   0  0  0  0  0  0  0  0  0  0  0  0
   49.7511   35.7652   40.6037 H   0  0  0  0  0  0  0  0  0  0  0  0
   48.8113   34.4479   38.6711 H   0  0  0  0  0  0  0  0  0  0  0  0
   43.7580   36.7436   45.0133 H   0  0  0  0  0  0  0  0  0  0  0  0
   44.9348   36.7469   42.7867 H   0  0  0  0  0  0  0  0  0  0  0  0
   45.7714   33.2002   46.1255 H   0  0  0  0  0  0  0  0  0  0  0  0
   45.4583   33.1598   39.1617 H   0  0  0  0  0  0  0  0  0  0  0  0
   48.4598   32.2054   38.3577 H   0  0  0  0  0  0  0  0  0  0  0  0
   47.4312   31.1719   37.8339 H   0  0  0  0  0  0  0  0  0  0  0  0
   47.2888   34.3825   36.8581 H   0  0  0  0  0  0  0  0  0  0  0  0
   45.1681   32.8580   36.5877 H   0  0  0  0  0  0  0  0  0  0  0  0
  1  9  1  0
  2  1  2  0
  3  2  1  0
  4  5  1  0
  4  3  2  0
  5  6  2  0
  6  1  1  0
  7 12  2  0
  8  7  1  0
  9  8  2  0
  9 10  1  0
 10 11  2  0
 11 12  1  0
 13  5  1  0
 14 13  1  0
 15 14  1  0
 15 13  1  0
 16 15  1  0
  2 17  1  0
  3 18  1  0
  4 19  1  0
  7 20  1  0
  8 21  1  0
 11 22  1  0
 13 23  1  6
 14 24  1  0
 14 25  1  0
 15 26  1  1
 16 27  1  0
M  ISO  8  17  14  18  14  19  14  20  14  21  14  22  14  23  13  24  13
M  ISO  3  25  13  26  13  27   3
M  END
>  <minimizedAffinity>  (1) 
-5.38504505

>  <minimizedRMSD>  (1) 
0.14705126

$$$$
