
     RDKit          3D

 32 34  0  0  1  0  0  0  0  0999 V2000
   46.6100   34.6580   42.0100 C   0  0  0  0  0  0  0  0  0  0  0  0
   47.8130   35.2730   41.6990 C   0  0  0  0  0  0  0  0  0  0  0  0
   48.5160   35.0870   40.5310 C   0  0  0  0  0  0  0  0  0  0  0  0
   47.9910   34.2230   39.5900 C   0  0  0  0  0  0  0  0  0  0  0  0
   46.7940   33.6210   39.9190 C   0  0  0  0  0  0  0  0  0  0  0  0
   46.1510   33.8320   41.0580 N   0  0  0  0  0  0  0  0  0  0  0  0
   44.4810   36.0820   44.7810 C   0  0  0  0  0  0  0  0  0  0  0  0
   45.0910   35.9970   43.5170 C   0  0  0  0  0  0  0  0  0  0  0  0
   45.9060   34.8940   43.2690 C   0  0  0  0  0  0  0  0  0  0  0  0
   46.0740   33.9740   44.2330 N   0  0  0  0  0  0  0  0  0  0  0  0
   45.4670   34.0890   45.4470 C   0  0  0  0  0  0  0  0  0  0  0  0
   44.6820   35.1420   45.6970 N   0  0  0  0  0  0  0  0  0  0  0  0
   46.2170   32.6890   38.9150 C   0  0  2  0  0  0  0  0  0  0  0  0
   47.1930   31.8600   38.1590 C   0  0  0  0  0  0  0  0  0  0  0  0
   46.4190   32.9580   37.4850 C   0  0  1  0  0  0  0  0  0  0  0  0
   45.4430   32.6550   36.5370 O   0  0  0  0  0  0  0  0  0  0  0  0
   46.0880   30.8200   34.8340 O   0  0  0  0  0  0  0  0  0  0  0  0
   46.0620   32.3210   35.0120 P   0  0  0  0  0  0  0  0  0  0  0  0
   45.0310   32.9620   33.8410 O   0  0  0  0  0  0  0  0  0  0  0  0
   47.6500   32.8690   34.8100 O   0  0  0  0  0  0  0  0  0  0  0  0
   48.2381   35.9626   42.4432 H   0  0  0  0  0  0  0  0  0  0  0  0
   49.4669   35.6103   40.3521 H   0  0  0  0  0  0  0  0  0  0  0  0
   48.4978   34.0263   38.6337 H   0  0  0  0  0  0  0  0  0  0  0  0
   43.8296   36.9373   45.0137 H   0  0  0  0  0  0  0  0  0  0  0  0
   44.9310   36.7718   42.7528 H   0  0  0  0  0  0  0  0  0  0  0  0
   45.6219   33.3195   46.2177 H   0  0  0  0  0  0  0  0  0  0  0  0
   45.3222   32.4977   39.5255 H   0  0  0  0  0  0  0  0  0  0  0  0
   48.2722   31.9741   38.3391 H   0  0  0  0  0  0  0  0  0  0  0  0
   47.3401   30.7837   37.9861 H   0  0  0  0  0  0  0  0  0  0  0  0
   46.6743   33.8527   36.8982 H   0  0  0  0  0  0  0  0  0  0  0  0
   44.2790   33.4295   34.2837 H   0  0  0  0  0  0  0  0  0  0  0  0
   48.0651   33.0122   35.6973 H   0  0  0  0  0  0  0  0  0  0  0  0
  1  9  1  0
  2  1  2  0
  3  2  1  0
  4  5  1  0
  4  3  2  0
  5  6  2  0
  6  1  1  0
  7 12  2  0
  8  7  1  0
  9  8  2  0
  9 10  1  0
 10 11  2  0
 11 12  1  0
 13  5  1  0
 14 13  1  0
 15 14  1  0
 15 13  1  0
 16 15  1  0
 17 18  2  0
 18 16  1  0
 19 18  1  0
 20 18  1  0
  2 21  1  0
  3 22  1  0
  4 23  1  0
  7 24  1  0
  8 25  1  0
 11 26  1  0
 13 27  1  6
 14 28  1  0
 14 29  1  0
 15 30  1  1
 19 31  1  0
 20 32  1  0
M  ISO  8  21  14  22  14  23  14  24  14  25  14  26  14  27  13  28  13
M  ISO  4  29  13  30  13  31   3  32   3
M  END
>  <minimizedAffinity>  (1) 
-6.278018

>  <minimizedRMSD>  (1) 
1.29962158

$$$$
