
     RDKit          3D

 42 45  0  0  1  0  0  0  0  0999 V2000
   45.8410   32.5630   38.7080 C   0  0  2  0  0  0  0  0  0  0  0  0
   46.6470   31.4870   38.0940 C   0  0  0  0  0  0  0  0  0  0  0  0
   46.1280   32.6820   37.2890 C   0  0  1  0  0  0  0  0  0  0  0  0
   46.4660   34.5400   41.7570 C   0  0  0  0  0  0  0  0  0  0  0  0
   47.7090   35.0500   41.3860 C   0  0  0  0  0  0  0  0  0  0  0  0
   48.3590   34.7850   40.1970 C   0  0  0  0  0  0  0  0  0  0  0  0
   47.7290   33.9460   39.2980 C   0  0  0  0  0  0  0  0  0  0  0  0
   46.5090   33.4550   39.6790 C   0  0  0  0  0  0  0  0  0  0  0  0
   45.9300   33.7430   40.8350 N   0  0  0  0  0  0  0  0  0  0  0  0
   44.5730   36.1420   44.5840 C   0  0  0  0  0  0  0  0  0  0  0  0
   45.1160   36.0070   43.2910 C   0  0  0  0  0  0  0  0  0  0  0  0
   45.8330   34.8550   43.0290 C   0  0  0  0  0  0  0  0  0  0  0  0
   45.9740   33.9330   44.0090 N   0  0  0  0  0  0  0  0  0  0  0  0
   45.4350   34.1000   45.2420 C   0  0  0  0  0  0  0  0  0  0  0  0
   44.7440   35.2030   45.5060 N   0  0  0  0  0  0  0  0  0  0  0  0
   45.1380   32.3850   36.3360 O   0  0  0  0  0  0  0  0  0  0  0  0
   45.3560   30.5820   34.5380 O   0  0  0  0  0  0  0  0  0  0  0  0
   45.7670   32.0340   34.8170 P   0  0  1  0  0  0  0  0  0  0  0  0
   45.0490   32.9780   33.6390 O   0  0  0  0  0  0  0  0  0  0  0  0
   47.4500   32.0370   34.7490 O   0  0  0  0  0  0  0  0  0  0  0  0
   48.0740   32.1420   33.5170 C   0  0  0  0  0  0  0  0  0  0  0  0
   48.0210   31.0920   32.5930 C   0  0  0  0  0  0  0  0  0  0  0  0
   48.6260   31.1330   31.3390 C   0  0  0  0  0  0  0  0  0  0  0  0
   49.3090   32.3060   31.0340 C   0  0  0  0  0  0  0  0  0  0  0  0
   49.4080   33.3840   31.8840 C   0  0  0  0  0  0  0  0  0  0  0  0
   48.7780   33.2510   33.1020 C   0  0  0  0  0  0  0  0  0  0  0  0
   44.9046   32.5964   39.2843 H   0  0  0  0  0  0  0  0  0  0  0  0
   47.7187   31.3944   38.3240 H   0  0  0  0  0  0  0  0  0  0  0  0
   46.5778   30.3918   38.0180 H   0  0  0  0  0  0  0  0  0  0  0  0
   46.5503   33.4875   36.6702 H   0  0  0  0  0  0  0  0  0  0  0  0
   48.2136   35.7185   42.0991 H   0  0  0  0  0  0  0  0  0  0  0  0
   49.3419   35.2255   39.9738 H   0  0  0  0  0  0  0  0  0  0  0  0
   48.1824   33.6869   38.3299 H   0  0  0  0  0  0  0  0  0  0  0  0
   43.9955   37.0441   44.8344 H   0  0  0  0  0  0  0  0  0  0  0  0
   44.9756   36.7835   42.5246 H   0  0  0  0  0  0  0  0  0  0  0  0
   45.5687   33.3297   46.0158 H   0  0  0  0  0  0  0  0  0  0  0  0
   44.5091   33.6879   34.0687 H   0  0  0  0  0  0  0  0  0  0  0  0
   47.4699   30.1822   32.8732 H   0  0  0  0  0  0  0  0  0  0  0  0
   48.5674   30.2907   30.6340 H   0  0  0  0  0  0  0  0  0  0  0  0
   49.8005   32.3763   30.0524 H   0  0  0  0  0  0  0  0  0  0  0  0
   49.9568   34.2964   31.6076 H   0  0  0  0  0  0  0  0  0  0  0  0
   48.8424   34.0991   33.7996 H   0  0  0  0  0  0  0  0  0  0  0  0
  1  8  1  0
  2  1  1  0
  3  2  1  0
  3  1  1  0
  4 12  1  0
  5  4  2  0
  6  5  1  0
  7  8  1  0
  7  6  2  0
  8  9  2  0
  9  4  1  0
 10 15  2  0
 11 10  1  0
 12 11  2  0
 12 13  1  0
 13 14  2  0
 14 15  1  0
 16  3  1  0
 18 17  2  0
 18 16  1  0
 19 18  1  0
 20 18  1  0
 21 20  1  0
 22 21  2  0
 23 22  1  0
 24 23  2  0
 24 25  1  0
 25 26  2  0
 26 21  1  0
  1 27  1  6
  2 28  1  0
  2 29  1  0
  3 30  1  1
  5 31  1  0
  6 32  1  0
  7 33  1  0
 10 34  1  0
 11 35  1  0
 14 36  1  0
 19 37  1  0
 22 38  1  0
 23 39  1  0
 24 40  1  0
 25 41  1  0
 26 42  1  0
M  ISO  8  27  13  28  13  29  13  30  13  31  14  32  14  33  14  34  14
M  ISO  8  35  14  36  14  37   3  38  14  39  14  40  14  41  14  42  14
M  END
>  <minimizedAffinity>  (1) 
-7.0952096

>  <minimizedRMSD>  (1) 
0.532960653

$$$$
