
     RDKit          3D

 39 42  0  0  1  0  0  0  0  0999 V2000
   45.8610   32.5740   38.7830 C   0  0  2  0  0  0  0  0  0  0  0  0
   46.6330   31.4150   38.2830 C   0  0  0  0  0  0  0  0  0  0  0  0
   46.2430   32.5940   37.3830 C   0  0  1  0  0  0  0  0  0  0  0  0
   46.4670   34.5520   41.8330 C   0  0  0  0  0  0  0  0  0  0  0  0
   47.7040   35.0780   41.4640 C   0  0  0  0  0  0  0  0  0  0  0  0
   48.3530   34.8210   40.2750 C   0  0  0  0  0  0  0  0  0  0  0  0
   47.7310   33.9750   39.3690 C   0  0  0  0  0  0  0  0  0  0  0  0
   46.5190   33.4730   39.7550 C   0  0  0  0  0  0  0  0  0  0  0  0
   45.9420   33.7510   40.9090 N   0  0  0  0  0  0  0  0  0  0  0  0
   44.5410   36.1430   44.6520 C   0  0  0  0  0  0  0  0  0  0  0  0
   45.0920   36.0100   43.3600 C   0  0  0  0  0  0  0  0  0  0  0  0
   45.8250   34.8570   43.1070 C   0  0  0  0  0  0  0  0  0  0  0  0
   45.9780   33.9370   44.0800 N   0  0  0  0  0  0  0  0  0  0  0  0
   45.4260   34.1130   45.3110 C   0  0  0  0  0  0  0  0  0  0  0  0
   44.7200   35.2070   45.5800 N   0  0  0  0  0  0  0  0  0  0  0  0
   45.3080   32.3000   36.3790 O   0  0  0  0  0  0  0  0  0  0  0  0
   45.8070   30.6320   34.5120 O   0  0  0  0  0  0  0  0  0  0  0  0
   46.0080   32.1150   34.8580 P   0  0  1  0  0  0  0  0  0  0  0  0
   45.1760   33.0010   33.7080 O   0  0  0  0  0  0  0  0  0  0  0  0
   47.6710   32.3560   34.8260 O   0  0  0  0  0  0  0  0  0  0  0  0
   48.4570   32.4140   33.6830 C   0  0  0  0  0  0  0  0  0  0  0  0
   49.6190   31.6860   33.5350 C   0  0  0  0  0  0  0  0  0  0  0  0
   50.0750   32.0200   32.3080 N   0  0  0  0  0  0  0  0  0  0  0  0
   49.2630   32.9150   31.6900 C   0  0  0  0  0  0  0  0  0  0  0  0
   48.2560   33.1560   32.5550 N   0  0  0  0  0  0  0  0  0  0  0  0
   44.8934   32.7010   39.2905 H   0  0  0  0  0  0  0  0  0  0  0  0
   47.6799   31.2700   38.5881 H   0  0  0  0  0  0  0  0  0  0  0  0
   46.4980   30.3235   38.2612 H   0  0  0  0  0  0  0  0  0  0  0  0
   46.7509   33.3402   36.7543 H   0  0  0  0  0  0  0  0  0  0  0  0
   48.2016   35.7512   42.1776 H   0  0  0  0  0  0  0  0  0  0  0  0
   49.3314   35.2719   40.0524 H   0  0  0  0  0  0  0  0  0  0  0  0
   48.1849   33.7232   38.3992 H   0  0  0  0  0  0  0  0  0  0  0  0
   43.9515   37.0388   44.8968 H   0  0  0  0  0  0  0  0  0  0  0  0
   44.9482   36.7821   42.5898 H   0  0  0  0  0  0  0  0  0  0  0  0
   45.5645   33.3464   46.0876 H   0  0  0  0  0  0  0  0  0  0  0  0
   44.5728   33.6434   34.1592 H   0  0  0  0  0  0  0  0  0  0  0  0
   50.0730   30.9892   34.2550 H   0  0  0  0  0  0  0  0  0  0  0  0
   50.9369   31.6404   31.8908 H   0  0  0  0  0  0  0  0  0  0  0  0
   49.3981   33.3534   30.6902 H   0  0  0  0  0  0  0  0  0  0  0  0
  1  8  1  0
  2  1  1  0
  3  2  1  0
  3  1  1  0
  4 12  1  0
  5  4  2  0
  6  5  1  0
  7  8  1  0
  7  6  2  0
  8  9  2  0
  9  4  1  0
 10 15  2  0
 11 10  1  0
 12 11  2  0
 12 13  1  0
 13 14  2  0
 14 15  1  0
 16  3  1  0
 18 17  2  0
 18 16  1  0
 19 18  1  0
 20 18  1  0
 21 20  1  0
 22 21  2  0
 23 22  1  0
 24 23  1  0
 24 25  2  0
 25 21  1  0
  1 26  1  6
  2 27  1  0
  2 28  1  0
  3 29  1  6
  5 30  1  0
  6 31  1  0
  7 32  1  0
 10 33  1  0
 11 34  1  0
 14 35  1  0
 19 36  1  0
 22 37  1  0
 23 38  1  0
 24 39  1  0
M  ISO  8  26  13  27  13  28  13  29  13  30  14  31  14  32  14  33  14
M  ISO  6  34  14  35  14  36   3  37  14  38   9  39  14
M  END
>  <minimizedAffinity>  (1) 
-6.62741232

>  <minimizedRMSD>  (1) 
1.09074092

$$$$
