
     RDKit          3D

 38 40  0  0  1  0  0  0  0  0999 V2000
   46.5760   34.6050   41.8430 C   0  0  0  0  0  0  0  0  0  0  0  0
   47.7920   35.1900   41.4920 C   0  0  0  0  0  0  0  0  0  0  0  0
   48.4760   34.9540   40.3200 C   0  0  0  0  0  0  0  0  0  0  0  0
   47.9150   34.0670   39.4200 C   0  0  0  0  0  0  0  0  0  0  0  0
   46.7230   33.5040   39.7810 C   0  0  0  0  0  0  0  0  0  0  0  0
   46.1080   33.7670   40.9220 N   0  0  0  0  0  0  0  0  0  0  0  0
   44.5430   36.1240   44.6250 C   0  0  0  0  0  0  0  0  0  0  0  0
   45.1290   36.0170   43.3450 C   0  0  0  0  0  0  0  0  0  0  0  0
   45.8940   34.8900   43.1030 C   0  0  0  0  0  0  0  0  0  0  0  0
   46.0430   33.9630   44.0760 N   0  0  0  0  0  0  0  0  0  0  0  0
   45.4550   34.1100   45.3020 C   0  0  0  0  0  0  0  0  0  0  0  0
   44.7170   35.1920   45.5440 N   0  0  0  0  0  0  0  0  0  0  0  0
   46.1310   32.5650   38.8070 C   0  0  2  0  0  0  0  0  0  0  0  0
   47.0440   31.6070   38.1370 C   0  0  0  0  0  0  0  0  0  0  0  0
   46.3550   32.7470   37.3840 C   0  0  1  0  0  0  0  0  0  0  0  0
   45.3740   32.3520   36.4560 O   0  0  0  0  0  0  0  0  0  0  0  0
   45.7850   30.6680   34.5850 O   0  0  0  0  0  0  0  0  0  0  0  0
   45.9840   32.1570   34.8980 P   0  0  1  0  0  0  0  0  0  0  0  0
   45.0570   33.0060   33.7920 O   0  0  0  0  0  0  0  0  0  0  0  0
   47.6290   32.4360   34.7600 O   0  0  0  0  0  0  0  0  0  0  0  0
   48.1720   32.0400   33.5640 C   0  0  0  0  0  0  0  0  0  0  0  0
   48.6800   33.1930   32.7250 C   0  0  0  0  0  0  0  0  0  0  0  0
   48.2403   35.8954   42.2072 H   0  0  0  0  0  0  0  0  0  0  0  0
   49.4332   35.4528   40.1079 H   0  0  0  0  0  0  0  0  0  0  0  0
   48.4024   33.8270   38.4635 H   0  0  0  0  0  0  0  0  0  0  0  0
   43.9273   37.0041   44.8622 H   0  0  0  0  0  0  0  0  0  0  0  0
   44.9844   36.7918   42.5777 H   0  0  0  0  0  0  0  0  0  0  0  0
   45.5900   33.3434   46.0793 H   0  0  0  0  0  0  0  0  0  0  0  0
   45.2159   32.4748   39.4106 H   0  0  0  0  0  0  0  0  0  0  0  0
   48.1264   31.6417   38.3301 H   0  0  0  0  0  0  0  0  0  0  0  0
   47.1069   30.5137   38.0331 H   0  0  0  0  0  0  0  0  0  0  0  0
   46.6563   33.6113   36.7739 H   0  0  0  0  0  0  0  0  0  0  0  0
   44.4196   33.5898   34.2748 H   0  0  0  0  0  0  0  0  0  0  0  0
   49.0128   31.3614   33.7702 H   0  0  0  0  0  0  0  0  0  0  0  0
   47.3725   31.5479   32.9907 H   0  0  0  0  0  0  0  0  0  0  0  0
   49.0348   33.9983   33.3850 H   0  0  0  0  0  0  0  0  0  0  0  0
   49.5091   32.8472   32.0902 H   0  0  0  0  0  0  0  0  0  0  0  0
   47.8653   33.5714   32.0902 H   0  0  0  0  0  0  0  0  0  0  0  0
  1  9  1  0
  2  1  2  0
  3  2  1  0
  4  5  1  0
  4  3  2  0
  5  6  2  0
  6  1  1  0
  7 12  2  0
  8  7  1  0
  9  8  2  0
  9 10  1  0
 10 11  2  0
 11 12  1  0
 13  5  1  0
 14 13  1  0
 15 14  1  0
 15 13  1  0
 16 15  1  0
 18 17  2  0
 18 16  1  0
 19 18  1  0
 20 18  1  0
 21 20  1  0
 22 21  1  0
  2 23  1  0
  3 24  1  0
  4 25  1  0
  7 26  1  0
  8 27  1  0
 11 28  1  0
 13 29  1  6
 14 30  1  0
 14 31  1  0
 15 32  1  1
 19 33  1  0
 21 34  1  0
 21 35  1  0
 22 36  1  0
 22 37  1  0
 22 38  1  0
M  ISO  8  23  14  24  14  25  14  26  14  27  14  28  14  29  13  30  13
M  ISO  8  31  13  32  13  33   3  34   8  35   8  36   8  37   8  38   8
M  END
>  <minimizedAffinity>  (1) 
-6.06231546

>  <minimizedRMSD>  (1) 
0.455364794

$$$$
