
     RDKit          3D

 31 33  0  0  1  0  0  0  0  0999 V2000
   46.0350   30.3630   46.1180 C   0  0  0  0  0  0  0  0  0  0  0  0
   45.5930   29.8000   47.2090 C   0  0  0  0  0  0  0  0  0  0  0  0
   44.8950   28.5700   47.1800 N   0  0  0  0  0  0  0  0  0  0  0  0
   44.5890   27.2830   47.7580 C   0  0  0  0  0  0  0  0  0  0  0  0
   44.5020   26.9660   48.9680 O   0  0  0  0  0  0  0  0  0  0  0  0
   44.4940   26.8050   46.3320 C   0  0  0  0  0  0  0  0  0  0  0  0
   43.9650   28.2100   46.1310 C   0  0  2  0  0  0  0  0  0  0  0  0
   44.3160   28.9810   44.5650 S   0  0  0  0  0  0  0  0  0  0  0  0
   45.8930   29.8390   44.7630 C   0  0  0  0  0  0  0  0  0  0  0  0
   45.7860   30.3980   48.5280 C   0  0  0  0  0  0  0  0  0  0  0  0
   44.8590   30.9140   49.2380 O   0  0  0  0  0  0  0  0  0  0  0  0
   46.3580   30.8520   49.6930 O   0  0  0  0  0  0  0  0  0  0  0  0
   46.7350   31.6340   46.2950 C   0  0  0  0  0  0  0  0  0  0  0  0
   47.0690   32.3860   44.6540 S   0  0  0  0  0  0  0  0  0  0  0  0
   44.5660   35.4800   45.3080 C   0  0  0  0  0  0  0  0  0  0  0  0
   44.6670   36.1780   44.0860 C   0  0  0  0  0  0  0  0  0  0  0  0
   45.5160   35.6530   43.0980 C   0  0  0  0  0  0  0  0  0  0  0  0
   46.1990   34.5100   43.3560 N   0  0  0  0  0  0  0  0  0  0  0  0
   46.0730   33.8660   44.5550 C   0  0  0  0  0  0  0  0  0  0  0  0
   45.2660   34.3510   45.5120 N   0  0  0  0  0  0  0  0  0  0  0  0
   45.4492   26.5754   45.8371 H   0  0  0  0  0  0  0  0  0  0  0  0
   43.9787   25.8880   46.0101 H   0  0  0  0  0  0  0  0  0  0  0  0
   42.8880   28.4327   46.1510 H   0  0  0  0  0  0  0  0  0  0  0  0
   46.7137   29.1349   44.5614 H   0  0  0  0  0  0  0  0  0  0  0  0
   45.9261   30.6808   44.0557 H   0  0  0  0  0  0  0  0  0  0  0  0
   45.7971   31.2871   50.3830 H   0  0  0  0  0  0  0  0  0  0  0  0
   46.1103   32.3163   46.8902 H   0  0  0  0  0  0  0  0  0  0  0  0
   47.6871   31.4574   46.8168 H   0  0  0  0  0  0  0  0  0  0  0  0
   43.9079   35.8636   46.1015 H   0  0  0  0  0  0  0  0  0  0  0  0
   44.0989   37.1039   43.9126 H   0  0  0  0  0  0  0  0  0  0  0  0
   45.6254   36.1616   42.1288 H   0  0  0  0  0  0  0  0  0  0  0  0
  1 13  1  0
  1  2  2  0
  2 10  1  0
  3  2  1  0
  3  4  1  0
  4  5  2  0
  6  4  1  0
  7  8  1  0
  7  6  1  0
  7  3  1  0
  8  9  1  0
  9  1  1  0
 10 11  2  0
 10 12  1  0
 14 13  1  0
 15 20  2  0
 16 15  1  0
 17 18  1  0
 17 16  2  0
 18 19  2  0
 19 14  1  0
 19 20  1  0
  6 21  1  0
  6 22  1  0
  7 23  1  1
  9 24  1  0
  9 25  1  0
 12 26  1  0
 13 27  1  0
 13 28  1  0
 15 29  1  0
 16 30  1  0
 17 31  1  0
M  ISO  8  21  13  22  13  23  13  24  13  25  13  26   3  27   8  28   8
M  ISO  3  29  14  30  14  31  14
M  END
>  <minimizedAffinity>  (1) 
-4.94754839

>  <minimizedRMSD>  (1) 
2.60723615

$$$$
