
     RDKit          3D

 18 19  0  0  0  0  0  0  0  0999 V2000
   44.5340   35.6360   45.0270 C   0  0  0  0  0  0  0  0  0  0  0  0
   44.9380   36.0090   43.7160 C   0  0  0  0  0  0  0  0  0  0  0  0
   45.9010   35.2070   43.0780 C   0  0  0  0  0  0  0  0  0  0  0  0
   46.3920   34.1220   43.7470 N   0  0  0  0  0  0  0  0  0  0  0  0
   45.9780   33.8070   44.9910 C   0  0  0  0  0  0  0  0  0  0  0  0
   45.0640   34.5540   45.6170 N   0  0  0  0  0  0  0  0  0  0  0  0
   46.7820   32.3490   45.6170 S   0  0  0  0  0  0  0  0  0  0  0  0
   46.3240   32.0030   47.3040 C   0  0  0  0  0  0  0  0  0  0  0  0
   47.3340   31.7130   48.1740 C   0  0  0  0  0  0  0  0  0  0  0  0
   46.7740   31.4830   49.3980 N   0  0  0  0  0  0  0  0  0  0  0  0
   45.4320   31.6330   49.2730 C   0  0  0  0  0  0  0  0  0  0  0  0
   45.1750   31.9480   47.9970 N   0  0  0  0  0  0  0  0  0  0  0  0
   43.7831   36.2375   45.5602 H   0  0  0  0  0  0  0  0  0  0  0  0
   44.5126   36.8931   43.2186 H   0  0  0  0  0  0  0  0  0  0  0  0
   46.2509   35.4479   42.0633 H   0  0  0  0  0  0  0  0  0  0  0  0
   48.4065   31.6718   47.9329 H   0  0  0  0  0  0  0  0  0  0  0  0
   47.2801   31.2393   50.2613 H   0  0  0  0  0  0  0  0  0  0  0  0
   44.6884   31.5168   50.0753 H   0  0  0  0  0  0  0  0  0  0  0  0
  1  6  2  0
  2  1  1  0
  3  2  2  0
  3  4  1  0
  4  5  2  0
  5  7  1  0
  5  6  1  0
  7  8  1  0
  8 12  1  0
  8  9  2  0
  9 10  1  0
 11 10  1  0
 12 11  2  0
  1 13  1  0
  2 14  1  0
  3 15  1  0
  9 16  1  0
 10 17  1  0
 11 18  1  0
M  ISO  6  13  14  14  14  15  14  16  14  17   9  18  14
M  END
>  <minimizedAffinity>  (1) 
-4.35589027

>  <minimizedRMSD>  (1) 
1.49862564

$$$$
