
     RDKit          3D

 22 24  0  0  0  0  0  0  0  0999 V2000
   45.0770   30.5060   45.7510 N   0  0  0  0  0  0  0  0  0  0  0  0
   45.8800   31.0250   46.6980 C   0  0  0  0  0  0  0  0  0  0  0  0
   45.9550   30.0720   47.6640 N   0  0  0  0  0  0  0  0  0  0  0  0
   45.2120   29.0090   47.2990 C   0  0  0  0  0  0  0  0  0  0  0  0
   44.9950   27.8100   47.9700 C   0  0  0  0  0  0  0  0  0  0  0  0
   44.2100   26.8940   47.4020 N   0  0  0  0  0  0  0  0  0  0  0  0
   43.6570   27.1590   46.2040 C   0  0  0  0  0  0  0  0  0  0  0  0
   43.8660   28.3340   45.5400 N   0  0  0  0  0  0  0  0  0  0  0  0
   44.6520   29.2900   46.0740 C   0  0  0  0  0  0  0  0  0  0  0  0
   46.7030   32.6000   46.7550 S   0  0  0  0  0  0  0  0  0  0  0  0
   44.5640   35.4460   44.8980 C   0  0  0  0  0  0  0  0  0  0  0  0
   45.1680   35.4230   43.6180 C   0  0  0  0  0  0  0  0  0  0  0  0
   46.2130   34.5310   43.3770 C   0  0  0  0  0  0  0  0  0  0  0  0
   46.6040   33.7210   44.3830 N   0  0  0  0  0  0  0  0  0  0  0  0
   46.0040   33.7650   45.6070 C   0  0  0  0  0  0  0  0  0  0  0  0
   45.0050   34.6120   45.8550 N   0  0  0  0  0  0  0  0  0  0  0  0
   44.8225   30.9935   44.8801 H   0  0  0  0  0  0  0  0  0  0  0  0
   45.4611   27.6215   48.9484 H   0  0  0  0  0  0  0  0  0  0  0  0
   43.0107   26.3987   45.7411 H   0  0  0  0  0  0  0  0  0  0  0  0
   43.7387   36.1423   45.1080 H   0  0  0  0  0  0  0  0  0  0  0  0
   44.8181   36.0993   42.8242 H   0  0  0  0  0  0  0  0  0  0  0  0
   46.7048   34.4890   42.3940 H   0  0  0  0  0  0  0  0  0  0  0  0
  1  9  1  0
  1  2  1  0
  2 10  1  0
  2  3  2  0
  4  3  1  0
  4  5  2  0
  6  5  1  0
  7  6  2  0
  8  9  2  0
  8  7  1  0
  9  4  1  0
 11 16  2  0
 12 11  1  0
 13 12  2  0
 13 14  1  0
 14 15  2  0
 15 16  1  0
 15 10  1  0
  1 17  1  0
  5 18  1  0
  7 19  1  0
 11 20  1  0
 12 21  1  0
 13 22  1  0
M  ISO  6  17   9  18  14  19  14  20  14  21  14  22  14
M  END
>  <minimizedAffinity>  (1) 
-4.3473506

>  <minimizedRMSD>  (1) 
1.11795199

$$$$
