
     RDKit          3D

 36 38  0  0  1  0  0  0  0  0999 V2000
   44.7070   35.4310   45.1650 C   0  0  0  0  0  0  0  0  0  0  0  0
   45.3100   35.5010   43.8850 C   0  0  0  0  0  0  0  0  0  0  0  0
   46.0900   34.4130   43.4810 C   0  0  0  0  0  0  0  0  0  0  0  0
   46.2210   33.3630   44.3360 N   0  0  0  0  0  0  0  0  0  0  0  0
   45.6420   33.3220   45.5390 C   0  0  0  0  0  0  0  0  0  0  0  0
   44.8730   34.3650   45.9670 N   0  0  0  0  0  0  0  0  0  0  0  0
   46.7030   34.4690   42.1940 N   0  0  0  0  0  0  0  0  0  0  0  0
   47.9150   35.0530   42.1080 C   0  0  0  0  0  0  0  0  0  0  0  0
   48.5300   35.1170   40.8610 C   0  0  0  0  0  0  0  0  0  0  0  0
   47.8670   34.5820   39.7920 C   0  0  0  0  0  0  0  0  0  0  0  0
   48.4320   34.6420   38.6500 O   0  0  0  0  0  0  0  0  0  0  0  0
   46.6530   33.9940   39.8690 N   0  0  0  0  0  0  0  0  0  0  0  0
   46.1110   33.9660   41.1050 C   0  0  0  0  0  0  0  0  0  0  0  0
   44.9870   33.4440   41.2940 O   0  0  0  0  0  0  0  0  0  0  0  0
   45.0890   32.3330   47.7430 C   0  0  1  0  0  0  0  0  0  0  0  0
   45.8210   32.1450   46.4340 C   0  0  2  0  0  0  0  0  0  0  0  0
   47.2870   31.9080   46.6110 C   0  0  0  0  0  0  0  0  0  0  0  0
   47.7140   32.4750   47.7990 O   0  0  0  0  0  0  0  0  0  0  0  0
   47.2340   31.7850   48.9100 C   0  0  0  0  0  0  0  0  0  0  0  0
   45.7660   31.4730   48.7820 C   0  0  1  0  0  0  0  0  0  0  0  0
   45.0540   33.6720   48.1190 O   0  0  0  0  0  0  0  0  0  0  0  0
   45.1620   31.7170   50.0020 O   0  0  0  0  0  0  0  0  0  0  0  0
   44.0868   36.2708   45.5116 H   0  0  0  0  0  0  0  0  0  0  0  0
   45.1701   36.3769   43.2344 H   0  0  0  0  0  0  0  0  0  0  0  0
   48.4055   35.4684   43.0007 H   0  0  0  0  0  0  0  0  0  0  0  0
   49.5187   35.5836   40.7395 H   0  0  0  0  0  0  0  0  0  0  0  0
   46.1769   33.5970   39.0465 H   0  0  0  0  0  0  0  0  0  0  0  0
   44.0391   32.0228   47.6358 H   0  0  0  0  0  0  0  0  0  0  0  0
   45.3753   31.2481   45.9791 H   0  0  0  0  0  0  0  0  0  0  0  0
   47.4819   30.8256   46.6323 H   0  0  0  0  0  0  0  0  0  0  0  0
   47.8326   32.3667   45.7732 H   0  0  0  0  0  0  0  0  0  0  0  0
   47.7911   30.8420   49.0118 H   0  0  0  0  0  0  0  0  0  0  0  0
   47.3725   32.4229   49.7954 H   0  0  0  0  0  0  0  0  0  0  0  0
   45.6675   30.4214   48.4747 H   0  0  0  0  0  0  0  0  0  0  0  0
   45.0523   33.7374   49.1068 H   0  0  0  0  0  0  0  0  0  0  0  0
   45.7813   31.4668   50.7327 H   0  0  0  0  0  0  0  0  0  0  0  0
  1  6  2  0
  2  1  1  0
  3  2  2  0
  3  4  1  0
  4  5  2  0
  5  6  1  0
  7  3  1  0
  8  7  1  0
  9  8  2  0
 10 12  1  0
 10  9  1  0
 11 10  2  0
 12 13  1  0
 13 14  2  0
 13  7  1  0
 15 21  1  0
 15 20  1  0
 16  5  1  0
 16 17  1  0
 16 15  1  0
 17 18  1  0
 18 19  1  0
 20 19  1  0
 20 22  1  0
  1 23  1  0
  2 24  1  0
  8 25  1  0
  9 26  1  0
 12 27  1  0
 15 28  1  6
 16 29  1  6
 17 30  1  0
 17 31  1  0
 19 32  1  0
 19 33  1  0
 20 34  1  6
 21 35  1  0
 22 36  1  0
M  ISO  8  23  14  24  14  25  14  26  14  27   9  28  13  29  13  30  13
M  ISO  6  31  13  32  13  33  13  34  13  35   3  36   3
M  END
>  <minimizedAffinity>  (1) 
-7.18457985

>  <minimizedRMSD>  (1) 
0.817456365

$$$$
