
     RDKit          3D

 35 37  0  0  0  0  0  0  0  0999 V2000
   44.5890   35.6850   45.0640 C   0  0  0  0  0  0  0  0  0  0  0  0
   45.1980   35.6710   43.7870 C   0  0  0  0  0  0  0  0  0  0  0  0
   46.0270   34.6040   43.4800 C   0  0  0  0  0  0  0  0  0  0  0  0
   46.2140   33.6230   44.4190 N   0  0  0  0  0  0  0  0  0  0  0  0
   45.6170   33.6740   45.6170 C   0  0  0  0  0  0  0  0  0  0  0  0
   44.8040   34.6890   45.9630 N   0  0  0  0  0  0  0  0  0  0  0  0
   45.8250   32.6460   46.5770 N   0  0  0  0  0  0  0  0  0  0  0  0
   46.8970   31.6820   46.4680 C   0  0  0  0  0  0  0  0  0  0  0  0
   47.8120   31.9420   47.6500 C   0  0  0  0  0  0  0  0  0  0  0  0
   47.0620   31.5340   48.8950 C   0  0  0  0  0  0  0  0  0  0  0  0
   45.8010   32.3220   49.0100 C   0  0  0  0  0  0  0  0  0  0  0  0
   45.0100   32.4490   47.7460 C   0  0  0  0  0  0  0  0  0  0  0  0
   46.6470   34.5790   42.1950 N   0  0  0  0  0  0  0  0  0  0  0  0
   47.8840   35.1020   42.0820 C   0  0  0  0  0  0  0  0  0  0  0  0
   48.4980   35.0820   40.8280 C   0  0  0  0  0  0  0  0  0  0  0  0
   47.8060   34.5300   39.7850 C   0  0  0  0  0  0  0  0  0  0  0  0
   48.3680   34.5130   38.6400 O   0  0  0  0  0  0  0  0  0  0  0  0
   46.5700   34.0030   39.8800 N   0  0  0  0  0  0  0  0  0  0  0  0
   46.0250   34.0520   41.1240 C   0  0  0  0  0  0  0  0  0  0  0  0
   44.8850   33.5950   41.3320 O   0  0  0  0  0  0  0  0  0  0  0  0
   43.9269   36.5206   45.3350 H   0  0  0  0  0  0  0  0  0  0  0  0
   45.0195   36.4794   43.0627 H   0  0  0  0  0  0  0  0  0  0  0  0
   46.4969   30.6583   46.5118 H   0  0  0  0  0  0  0  0  0  0  0  0
   47.4334   31.7808   45.5127 H   0  0  0  0  0  0  0  0  0  0  0  0
   48.7318   31.3467   47.5523 H   0  0  0  0  0  0  0  0  0  0  0  0
   48.0968   33.0035   47.6966 H   0  0  0  0  0  0  0  0  0  0  0  0
   46.8187   30.4627   48.8394 H   0  0  0  0  0  0  0  0  0  0  0  0
   47.6913   31.7276   49.7762 H   0  0  0  0  0  0  0  0  0  0  0  0
   45.1634   31.8354   49.7627 H   0  0  0  0  0  0  0  0  0  0  0  0
   46.1039   33.3434   49.2838 H   0  0  0  0  0  0  0  0  0  0  0  0
   44.3302   33.3080   47.8454 H   0  0  0  0  0  0  0  0  0  0  0  0
   44.4677   31.5021   47.6069 H   0  0  0  0  0  0  0  0  0  0  0  0
   48.3964   35.5332   42.9546 H   0  0  0  0  0  0  0  0  0  0  0  0
   49.5064   35.4970   40.6834 H   0  0  0  0  0  0  0  0  0  0  0  0
   46.0767   33.5949   39.0732 H   0  0  0  0  0  0  0  0  0  0  0  0
  1  6  2  0
  2  1  1  0
  3  2  2  0
  3  4  1  0
  4  5  2  0
  5  6  1  0
  5  7  1  0
  7 12  1  0
  8  7  1  0
  8  9  1  0
  9 10  1  0
 10 11  1  0
 12 11  1  0
 13  3  1  0
 14 13  1  0
 15 14  2  0
 16 18  1  0
 16 15  1  0
 17 16  2  0
 18 19  1  0
 19 20  2  0
 19 13  1  0
  1 21  1  0
  2 22  1  0
  8 23  1  0
  8 24  1  0
  9 25  1  0
  9 26  1  0
 10 27  1  0
 10 28  1  0
 11 29  1  0
 11 30  1  0
 12 31  1  0
 12 32  1  0
 14 33  1  0
 15 34  1  0
 18 35  1  0
M  ISO  8  21  14  22  14  23  13  24  13  25  13  26  13  27  13  28  13
M  ISO  7  29  13  30  13  31  13  32  13  33  14  34  14  35   9
M  END
>  <minimizedAffinity>  (1) 
-6.63916111

>  <minimizedRMSD>  (1) 
0.396942943

$$$$
