
     RDKit          3D

 41 44  0  0  1  0  0  0  0  0999 V2000
   46.8270   32.8090   43.1670 C   0  0  0  0  0  0  0  0  0  0  0  0
   47.3580   31.7920   43.9540 C   0  0  0  0  0  0  0  0  0  0  0  0
   47.1400   31.6960   45.3230 C   0  0  0  0  0  0  0  0  0  0  0  0
   46.3680   32.6290   45.9710 C   0  0  0  0  0  0  0  0  0  0  0  0
   45.8310   33.6450   45.2190 C   0  0  0  0  0  0  0  0  0  0  0  0
   45.0520   34.5890   45.8660 C   0  0  0  0  0  0  0  0  0  0  0  0
   44.4750   35.6370   45.1790 C   0  0  0  0  0  0  0  0  0  0  0  0
   44.7150   35.6900   43.8250 C   0  0  0  0  0  0  0  0  0  0  0  0
   45.4900   34.7500   43.1840 C   0  0  0  0  0  0  0  0  0  0  0  0
   46.0630   33.7140   43.8700 C   0  0  0  0  0  0  0  0  0  0  0  0
   47.1000   32.8310   41.7920 N   0  0  0  0  0  0  0  0  0  0  0  0
   49.5940   32.6850   41.2460 C   0  0  1  0  0  0  0  0  0  0  0  0
   48.8210   32.6620   39.9420 C   0  0  0  0  0  0  0  0  0  0  0  0
   48.2490   32.1470   41.2530 C   0  0  2  0  0  0  0  0  0  0  0  0
   52.7430   30.8510   40.5040 C   0  0  0  0  0  0  0  0  0  0  0  0
   52.8530   30.0120   41.6560 C   0  0  0  0  0  0  0  0  0  0  0  0
   51.8490   30.1120   42.6520 C   0  0  0  0  0  0  0  0  0  0  0  0
   50.8400   30.9770   42.4900 N   0  0  0  0  0  0  0  0  0  0  0  0
   50.7620   31.7600   41.3850 C   0  0  0  0  0  0  0  0  0  0  0  0
   51.7120   31.6920   40.4040 N   0  0  0  0  0  0  0  0  0  0  0  0
   45.6000   34.9690   41.7170 C   0  0  0  0  0  0  0  0  0  0  0  0
   44.1870   34.9410   41.0580 C   0  0  0  0  0  0  0  0  0  0  0  0
   47.9810   31.0263   43.4687 H   0  0  0  0  0  0  0  0  0  0  0  0
   47.5885   30.8677   45.8912 H   0  0  0  0  0  0  0  0  0  0  0  0
   46.1862   32.5647   47.0540 H   0  0  0  0  0  0  0  0  0  0  0  0
   44.8897   34.5016   46.9505 H   0  0  0  0  0  0  0  0  0  0  0  0
   43.8555   36.3908   45.6869 H   0  0  0  0  0  0  0  0  0  0  0  0
   44.2741   36.5084   43.2369 H   0  0  0  0  0  0  0  0  0  0  0  0
   46.4706   33.3433   41.1577 H   0  0  0  0  0  0  0  0  0  0  0  0
   50.1027   33.4620   41.8356 H   0  0  0  0  0  0  0  0  0  0  0  0
   48.4466   33.5964   39.4985 H   0  0  0  0  0  0  0  0  0  0  0  0
   48.9794   32.2589   38.9308 H   0  0  0  0  0  0  0  0  0  0  0  0
   47.8443   31.2028   41.6462 H   0  0  0  0  0  0  0  0  0  0  0  0
   53.5007   30.8038   39.7079 H   0  0  0  0  0  0  0  0  0  0  0  0
   53.6921   29.3093   41.7665 H   0  0  0  0  0  0  0  0  0  0  0  0
   51.8987   29.4825   43.5527 H   0  0  0  0  0  0  0  0  0  0  0  0
   46.0682   35.9467   41.5302 H   0  0  0  0  0  0  0  0  0  0  0  0
   46.2142   34.1675   41.2807 H   0  0  0  0  0  0  0  0  0  0  0  0
   43.4166   34.9257   41.8430 H   0  0  0  0  0  0  0  0  0  0  0  0
   44.0561   35.8367   40.4331 H   0  0  0  0  0  0  0  0  0  0  0  0
   44.0916   34.0408   40.4331 H   0  0  0  0  0  0  0  0  0  0  0  0
  1 10  1  0
  1  2  2  0
  2  3  1  0
  3  4  2  0
  5  6  2  0
  5  4  1  0
  7  6  1  0
  8  7  2  0
  9  8  1  0
  9 10  2  0
 10  5  1  0
 11  1  1  0
 12 14  1  0
 12 19  1  0
 13 12  1  0
 13 14  1  0
 14 11  1  0
 15 16  2  0
 16 17  1  0
 18 17  2  0
 19 18  1  0
 20 15  1  0
 20 19  2  0
 21  9  1  0
 22 21  1  0
  2 23  1  0
  3 24  1  0
  4 25  1  0
  6 26  1  0
  7 27  1  0
  8 28  1  0
 11 29  1  0
 12 30  1  1
 13 31  1  0
 13 32  1  0
 14 33  1  6
 15 34  1  0
 16 35  1  0
 17 36  1  0
 21 37  1  0
 21 38  1  0
 22 39  1  0
 22 40  1  0
 22 41  1  0
M  ISO  8  23  14  24  14  25  14  26  14  27  14  28  14  30  13  31  13
M  ISO  8  32  13  33  13  34  14  35  14  36  14  37   8  38   8  39   8
M  ISO  2  40   8  41   8
M  END
>  <minimizedAffinity>  (1) 
-4.90149593

>  <minimizedRMSD>  (1) 
1.81314898

$$$$
