
     RDKit          3D

 26 27  0  0  0  0  0  0  0  0999 V2000
   44.6570   35.2250   45.0990 C   0  0  0  0  0  0  0  0  0  0  0  0
   45.1910   35.2480   43.7900 C   0  0  0  0  0  0  0  0  0  0  0  0
   46.2600   34.4190   43.5050 C   0  0  0  0  0  0  0  0  0  0  0  0
   46.7580   33.6090   44.4990 N   0  0  0  0  0  0  0  0  0  0  0  0
   46.2160   33.6220   45.7290 C   0  0  0  0  0  0  0  0  0  0  0  0
   45.1790   34.4090   46.0510 N   0  0  0  0  0  0  0  0  0  0  0  0
   46.8010   34.4420   42.1810 N   0  0  0  0  0  0  0  0  0  0  0  0
   47.9730   35.1090   42.0050 C   0  0  0  0  0  0  0  0  0  0  0  0
   48.5070   35.1350   40.7130 C   0  0  0  0  0  0  0  0  0  0  0  0
   47.8280   34.4970   39.7110 C   0  0  0  0  0  0  0  0  0  0  0  0
   48.3360   34.5360   38.5440 O   0  0  0  0  0  0  0  0  0  0  0  0
   46.6610   33.8350   39.8920 N   0  0  0  0  0  0  0  0  0  0  0  0
   46.1950   33.8440   41.1540 C   0  0  0  0  0  0  0  0  0  0  0  0
   45.1300   33.2660   41.4340 O   0  0  0  0  0  0  0  0  0  0  0  0
   46.7780   32.7740   46.6760 O   0  0  0  0  0  0  0  0  0  0  0  0
   45.3840   30.5930   47.1390 O   0  0  0  0  0  0  0  0  0  0  0  0
   45.7880   31.9260   47.7640 P   0  0  0  0  0  0  0  0  0  0  0  0
   44.3330   32.7460   48.0730 O   0  0  0  0  0  0  0  0  0  0  0  0
   46.5570   31.5770   49.2170 O   0  0  0  0  0  0  0  0  0  0  0  0
   43.8072   35.8769   45.3498 H   0  0  0  0  0  0  0  0  0  0  0  0
   44.7671   35.9080   43.0188 H   0  0  0  0  0  0  0  0  0  0  0  0
   48.4799   35.6075   42.8444 H   0  0  0  0  0  0  0  0  0  0  0  0
   49.4528   35.6573   40.5065 H   0  0  0  0  0  0  0  0  0  0  0  0
   46.1676   33.3607   39.1223 H   0  0  0  0  0  0  0  0  0  0  0  0
   44.1982   32.8219   49.0508 H   0  0  0  0  0  0  0  0  0  0  0  0
   45.9732   31.8420   49.9713 H   0  0  0  0  0  0  0  0  0  0  0  0
  1  6  2  0
  2  1  1  0
  3  2  2  0
  3  4  1  0
  4  5  2  0
  5  6  1  0
  5 15  1  0
  7  3  1  0
  8  7  1  0
  9  8  2  0
 10 12  1  0
 10  9  1  0
 11 10  2  0
 12 13  1  0
 13 14  2  0
 13  7  1  0
 15 17  1  0
 16 17  2  0
 17 18  1  0
 17 19  1  0
  1 20  1  0
  2 21  1  0
  8 22  1  0
  9 23  1  0
 12 24  1  0
 18 25  1  0
 19 26  1  0
M  ISO  7  20  14  21  14  22  14  23  14  24   9  25   3  26   3
M  END
>  <minimizedAffinity>  (1) 
-6.00902748

>  <minimizedRMSD>  (1) 
1.28493023

$$$$
