
     RDKit          3D

 27 29  0  0  0  0  0  0  0  0999 V2000
   46.5880   34.6830   42.1260 N   0  0  0  0  0  0  0  0  0  0  0  0
   47.8450   35.1600   42.0150 C   0  0  0  0  0  0  0  0  0  0  0  0
   48.4920   35.0390   40.7850 C   0  0  0  0  0  0  0  0  0  0  0  0
   47.8140   34.4440   39.7590 C   0  0  0  0  0  0  0  0  0  0  0  0
   48.4100   34.3350   38.6290 O   0  0  0  0  0  0  0  0  0  0  0  0
   46.5460   33.9590   39.8520 N   0  0  0  0  0  0  0  0  0  0  0  0
   45.9840   34.1120   41.0780 C   0  0  0  0  0  0  0  0  0  0  0  0
   44.8200   33.7030   41.2780 O   0  0  0  0  0  0  0  0  0  0  0  0
   44.4530   36.0220   44.8470 C   0  0  0  0  0  0  0  0  0  0  0  0
   45.0960   35.9060   43.5870 C   0  0  0  0  0  0  0  0  0  0  0  0
   45.9370   34.8120   43.3850 C   0  0  0  0  0  0  0  0  0  0  0  0
   46.0850   33.9290   44.4120 N   0  0  0  0  0  0  0  0  0  0  0  0
   45.4760   34.0490   45.5920 C   0  0  0  0  0  0  0  0  0  0  0  0
   44.6560   35.0930   45.8220 N   0  0  0  0  0  0  0  0  0  0  0  0
   45.7230   33.0100   46.6370 C   0  0  0  0  0  0  0  0  0  0  0  0
   46.0700   31.6270   46.0380 C   0  0  0  0  0  0  0  0  0  0  0  0
   47.0540   32.4380   46.8780 C   0  0  0  0  0  0  0  0  0  0  0  0
   48.3469   35.6322   42.8724 H   0  0  0  0  0  0  0  0  0  0  0  0
   49.5175   35.4116   40.6454 H   0  0  0  0  0  0  0  0  0  0  0  0
   46.0561   33.5152   39.0621 H   0  0  0  0  0  0  0  0  0  0  0  0
   43.7824   36.8727   45.0384 H   0  0  0  0  0  0  0  0  0  0  0  0
   44.9363   36.6539   42.7963 H   0  0  0  0  0  0  0  0  0  0  0  0
   44.9953   33.4535   47.3325 H   0  0  0  0  0  0  0  0  0  0  0  0
   45.6119   30.7127   46.4432 H   0  0  0  0  0  0  0  0  0  0  0  0
   46.0672   31.1714   45.0368 H   0  0  0  0  0  0  0  0  0  0  0  0
   47.9351   32.8896   46.3987 H   0  0  0  0  0  0  0  0  0  0  0  0
   47.6436   32.2265   47.7823 H   0  0  0  0  0  0  0  0  0  0  0  0
  1 11  1  0
  2  1  1  0
  3  2  2  0
  4  6  1  0
  4  3  1  0
  5  4  2  0
  6  7  1  0
  7  8  2  0
  7  1  1  0
  9 14  2  0
 10  9  1  0
 11 10  2  0
 11 12  1  0
 12 13  2  0
 13 14  1  0
 13 15  1  0
 15 17  1  0
 16 15  1  0
 16 17  1  0
  2 18  1  0
  3 19  1  0
  6 20  1  0
  9 21  1  0
 10 22  1  0
 15 23  1  0
 16 24  1  0
 16 25  1  0
 17 26  1  0
 17 27  1  0
M  ISO  8  18  14  19  14  20   9  21  14  22  14  23  13  24  13  25  13
M  ISO  2  26  13  27  13
M  END
>  <minimizedAffinity>  (1) 
-5.66580725

>  <minimizedRMSD>  (1) 
0.197618872

$$$$
