
     RDKit          3D

 22 23  0  0  0  0  0  0  0  0999 V2000
   46.5840   34.7310   42.0340 N   0  0  0  0  0  0  0  0  0  0  0  0
   47.8460   35.1760   41.9270 C   0  0  0  0  0  0  0  0  0  0  0  0
   48.5110   35.0430   40.7130 C   0  0  0  0  0  0  0  0  0  0  0  0
   47.8330   34.4570   39.6750 C   0  0  0  0  0  0  0  0  0  0  0  0
   48.4360   34.3330   38.5600 O   0  0  0  0  0  0  0  0  0  0  0  0
   46.5700   34.0070   39.7690 N   0  0  0  0  0  0  0  0  0  0  0  0
   45.9750   34.1630   40.9720 C   0  0  0  0  0  0  0  0  0  0  0  0
   44.8090   33.7830   41.1660 O   0  0  0  0  0  0  0  0  0  0  0  0
   44.5160   36.1620   44.7440 C   0  0  0  0  0  0  0  0  0  0  0  0
   45.1740   36.0250   43.4940 C   0  0  0  0  0  0  0  0  0  0  0  0
   45.9230   34.8760   43.2820 C   0  0  0  0  0  0  0  0  0  0  0  0
   45.9860   33.9400   44.2880 N   0  0  0  0  0  0  0  0  0  0  0  0
   45.3550   34.1030   45.4520 C   0  0  0  0  0  0  0  0  0  0  0  0
   44.6150   35.2010   45.7060 N   0  0  0  0  0  0  0  0  0  0  0  0
   45.4650   33.0930   46.4500 N   0  0  0  0  0  0  0  0  0  0  0  0
   48.3478   35.6401   42.7889 H   0  0  0  0  0  0  0  0  0  0  0  0
   49.5455   35.3958   40.5895 H   0  0  0  0  0  0  0  0  0  0  0  0
   46.0851   33.5698   38.9723 H   0  0  0  0  0  0  0  0  0  0  0  0
   43.9141   37.0615   44.9406 H   0  0  0  0  0  0  0  0  0  0  0  0
   45.0932   36.8025   42.7201 H   0  0  0  0  0  0  0  0  0  0  0  0
   44.9828   33.2066   47.3530 H   0  0  0  0  0  0  0  0  0  0  0  0
   46.0268   32.2489   46.2688 H   0  0  0  0  0  0  0  0  0  0  0  0
  1 11  1  0
  2  1  1  0
  3  2  2  0
  4  6  1  0
  4  3  1  0
  5  4  2  0
  6  7  1  0
  7  8  2  0
  7  1  1  0
  9 14  2  0
 10  9  1  0
 11 10  2  0
 11 12  1  0
 12 13  2  0
 13 14  1  0
 13 15  1  0
  2 16  1  0
  3 17  1  0
  6 18  1  0
  9 19  1  0
 10 20  1  0
 15 21  1  0
 15 22  1  0
M  ISO  5  16  14  17  14  18   9  19  14  20  14
M  END
>  <minimizedAffinity>  (1) 
-5.49527979

>  <minimizedRMSD>  (1) 
0.0947430506

$$$$
