
     RDKit          3D

 22 23  0  0  0  0  0  0  0  0999 V2000
   46.6430   34.6960   42.0590 N   0  0  0  0  0  0  0  0  0  0  0  0
   47.8840   35.1920   41.9360 C   0  0  0  0  0  0  0  0  0  0  0  0
   48.5290   35.0870   40.7040 C   0  0  0  0  0  0  0  0  0  0  0  0
   47.8610   34.4820   39.6750 C   0  0  0  0  0  0  0  0  0  0  0  0
   48.4570   34.3900   38.5520 O   0  0  0  0  0  0  0  0  0  0  0  0
   46.6210   33.9800   39.7750 N   0  0  0  0  0  0  0  0  0  0  0  0
   46.0510   34.1130   40.9930 C   0  0  0  0  0  0  0  0  0  0  0  0
   44.8910   33.6770   41.1960 O   0  0  0  0  0  0  0  0  0  0  0  0
   44.4920   35.9600   44.7790 C   0  0  0  0  0  0  0  0  0  0  0  0
   45.1310   35.8780   43.5100 C   0  0  0  0  0  0  0  0  0  0  0  0
   45.9900   34.8050   43.3170 C   0  0  0  0  0  0  0  0  0  0  0  0
   46.1730   33.9030   44.3320 N   0  0  0  0  0  0  0  0  0  0  0  0
   45.5520   34.0170   45.5110 C   0  0  0  0  0  0  0  0  0  0  0  0
   44.7090   35.0400   45.7490 N   0  0  0  0  0  0  0  0  0  0  0  0
   45.7780   33.0330   46.5610 C   0  0  0  0  0  0  0  0  0  0  0  0
   45.0710   33.0330   47.6200 O   0  0  0  0  0  0  0  0  0  0  0  0
   48.3829   35.6722   42.7907 H   0  0  0  0  0  0  0  0  0  0  0  0
   49.5468   35.4798   40.5636 H   0  0  0  0  0  0  0  0  0  0  0  0
   46.1403   33.5279   38.9841 H   0  0  0  0  0  0  0  0  0  0  0  0
   43.8026   36.7939   44.9776 H   0  0  0  0  0  0  0  0  0  0  0  0
   44.9534   36.6259   42.7232 H   0  0  0  0  0  0  0  0  0  0  0  0
   46.5701   32.2798   46.4374 H   0  0  0  0  0  0  0  0  0  0  0  0
  1 11  1  0
  2  1  1  0
  3  2  2  0
  4  6  1  0
  4  3  1  0
  5  4  2  0
  6  7  1  0
  7  8  2  0
  7  1  1  0
  9 14  2  0
 10  9  1  0
 11 10  2  0
 11 12  1  0
 12 13  2  0
 13 14  1  0
 13 15  1  0
 15 16  2  0
  2 17  1  0
  3 18  1  0
  6 19  1  0
  9 20  1  0
 10 21  1  0
 15 22  1  0
M  ISO  6  17  14  18  14  19   9  20  14  21  14  22   6
M  END
>  <minimizedAffinity>  (1) 
-5.45630741

>  <minimizedRMSD>  (1) 
0.0622587875

$$$$
