
     RDKit          3D

 23 24  0  0  0  0  0  0  0  0999 V2000
   46.6390   34.6770   42.0470 N   0  0  0  0  0  0  0  0  0  0  0  0
   47.8820   35.1820   41.9300 C   0  0  0  0  0  0  0  0  0  0  0  0
   48.5360   35.0940   40.7110 C   0  0  0  0  0  0  0  0  0  0  0  0
   47.8600   34.4840   39.6720 C   0  0  0  0  0  0  0  0  0  0  0  0
   48.4610   34.4010   38.5480 O   0  0  0  0  0  0  0  0  0  0  0  0
   46.6230   33.9770   39.7780 N   0  0  0  0  0  0  0  0  0  0  0  0
   46.0610   34.1030   40.9920 C   0  0  0  0  0  0  0  0  0  0  0  0
   44.9030   33.6620   41.1970 O   0  0  0  0  0  0  0  0  0  0  0  0
   44.4860   35.9730   44.7670 C   0  0  0  0  0  0  0  0  0  0  0  0
   45.1270   35.8670   43.5120 C   0  0  0  0  0  0  0  0  0  0  0  0
   45.9950   34.7830   43.3100 C   0  0  0  0  0  0  0  0  0  0  0  0
   46.1800   33.8880   44.3260 N   0  0  0  0  0  0  0  0  0  0  0  0
   45.5470   34.0300   45.5080 C   0  0  0  0  0  0  0  0  0  0  0  0
   44.7030   35.0600   45.7390 N   0  0  0  0  0  0  0  0  0  0  0  0
   45.8280   32.9930   46.5370 C   0  0  0  0  0  0  0  0  0  0  0  0
   48.3724   35.6586   42.7916 H   0  0  0  0  0  0  0  0  0  0  0  0
   49.5520   35.4936   40.5764 H   0  0  0  0  0  0  0  0  0  0  0  0
   46.1401   33.5251   38.9884 H   0  0  0  0  0  0  0  0  0  0  0  0
   43.7998   36.8118   44.9554 H   0  0  0  0  0  0  0  0  0  0  0  0
   44.9514   36.6096   42.7197 H   0  0  0  0  0  0  0  0  0  0  0  0
   45.7096   33.4298   47.5396 H   0  0  0  0  0  0  0  0  0  0  0  0
   45.1242   32.1563   46.4161 H   0  0  0  0  0  0  0  0  0  0  0  0
   46.8579   32.6261   46.4161 H   0  0  0  0  0  0  0  0  0  0  0  0
  1 11  1  0
  2  1  1  0
  3  2  2  0
  4  6  1  0
  4  3  1  0
  5  4  2  0
  6  7  1  0
  7  8  2  0
  7  1  1  0
  9 14  2  0
 10  9  1  0
 11 10  2  0
 11 12  1  0
 12 13  2  0
 13 14  1  0
 13 15  1  0
  2 16  1  0
  3 17  1  0
  6 18  1  0
  9 19  1  0
 10 20  1  0
 15 21  1  0
 15 22  1  0
 15 23  1  0
M  ISO  8  16  14  17  14  18   9  19  14  20  14  21   8  22   8  23   8
M  END
>  <minimizedAffinity>  (1) 
-5.3787117

>  <minimizedRMSD>  (1) 
0.0573093221

$$$$
