
     RDKit          3D

 44 46  0  0  0  0  0  0  0  0999 V2000
   44.4890   35.7160   44.6950 C   0  0  0  0  0  0  0  0  0  0  0  0
   45.0880   35.6560   43.4180 C   0  0  0  0  0  0  0  0  0  0  0  0
   46.1120   34.7280   43.2500 C   0  0  0  0  0  0  0  0  0  0  0  0
   46.4890   33.9280   44.3100 N   0  0  0  0  0  0  0  0  0  0  0  0
   45.8830   34.0320   45.4980 C   0  0  0  0  0  0  0  0  0  0  0  0
   44.8740   34.9240   45.7150 N   0  0  0  0  0  0  0  0  0  0  0  0
   46.7330   34.6500   41.9660 N   0  0  0  0  0  0  0  0  0  0  0  0
   47.9530   35.2220   41.8150 C   0  0  0  0  0  0  0  0  0  0  0  0
   48.5710   35.1590   40.5800 C   0  0  0  0  0  0  0  0  0  0  0  0
   47.9150   34.5150   39.5620 C   0  0  0  0  0  0  0  0  0  0  0  0
   48.4750   34.4520   38.4250 O   0  0  0  0  0  0  0  0  0  0  0  0
   46.7120   33.9470   39.7020 N   0  0  0  0  0  0  0  0  0  0  0  0
   46.1460   34.0370   40.9380 C   0  0  0  0  0  0  0  0  0  0  0  0
   45.0310   33.5440   41.1740 O   0  0  0  0  0  0  0  0  0  0  0  0
   46.4560   33.0750   46.4750 C   0  0  0  0  0  0  0  0  0  0  0  0
   45.3680   32.4410   47.3270 C   0  0  0  0  0  0  0  0  0  0  0  0
   46.0830   30.1480   47.8030 C   0  0  0  0  0  0  0  0  0  0  0  0
   46.7780   30.6370   48.7110 O   0  0  0  0  0  0  0  0  0  0  0  0
   45.3220   31.0290   47.0270 N   0  0  0  0  0  0  0  0  0  0  0  0
   46.0530   28.7470   47.5520 N   0  0  0  0  0  0  0  0  0  0  0  0
   47.1540   28.0660   46.8960 C   0  0  0  0  0  0  0  0  0  0  0  0
   47.6210   26.8750   47.7040 C   0  0  0  0  0  0  0  0  0  0  0  0
   46.5720   26.2320   48.4180 N   0  0  0  0  0  0  0  0  0  0  0  0
   45.2400   26.4940   47.9540 C   0  0  0  0  0  0  0  0  0  0  0  0
   44.8990   27.9660   47.9550 C   0  0  0  0  0  0  0  0  0  0  0  0
   43.6761   36.4376   44.8640 H   0  0  0  0  0  0  0  0  0  0  0  0
   44.7616   36.3103   42.5962 H   0  0  0  0  0  0  0  0  0  0  0  0
   48.4425   35.7274   42.6605 H   0  0  0  0  0  0  0  0  0  0  0  0
   49.5602   35.6122   40.4184 H   0  0  0  0  0  0  0  0  0  0  0  0
   46.2409   33.4692   38.9205 H   0  0  0  0  0  0  0  0  0  0  0  0
   46.9918   32.2837   45.9302 H   0  0  0  0  0  0  0  0  0  0  0  0
   47.1422   33.6228   47.1376 H   0  0  0  0  0  0  0  0  0  0  0  0
   45.5975   32.5875   48.3928 H   0  0  0  0  0  0  0  0  0  0  0  0
   44.3958   32.9067   47.1082 H   0  0  0  0  0  0  0  0  0  0  0  0
   44.7387   30.6765   46.2547 H   0  0  0  0  0  0  0  0  0  0  0  0
   46.8228   27.7200   45.9058 H   0  0  0  0  0  0  0  0  0  0  0  0
   47.9922   28.7718   46.8002 H   0  0  0  0  0  0  0  0  0  0  0  0
   48.0752   26.1446   47.0183 H   0  0  0  0  0  0  0  0  0  0  0  0
   48.3398   27.2484   48.4482 H   0  0  0  0  0  0  0  0  0  0  0  0
   46.7304   25.2158   48.3626 H   0  0  0  0  0  0  0  0  0  0  0  0
   44.5298   25.9682   48.6091 H   0  0  0  0  0  0  0  0  0  0  0  0
   45.1754   26.1396   46.9147 H   0  0  0  0  0  0  0  0  0  0  0  0
   44.5917   28.2673   48.9673 H   0  0  0  0  0  0  0  0  0  0  0  0
   44.0782   28.1451   47.2449 H   0  0  0  0  0  0  0  0  0  0  0  0
  1  6  2  0
  2  1  1  0
  3  2  2  0
  3  4  1  0
  4  5  2  0
  5  6  1  0
  5 15  1  0
  7  3  1  0
  8  7  1  0
  9  8  2  0
 10 12  1  0
 10  9  1  0
 11 10  2  0
 12 13  1  0
 13 14  2  0
 13  7  1  0
 15 16  1  0
 17 18  2  0
 19 16  1  0
 19 17  1  0
 20 17  1  0
 20 25  1  0
 21 20  1  0
 21 22  1  0
 22 23  1  0
 24 25  1  0
 24 23  1  0
  1 26  1  0
  2 27  1  0
  8 28  1  0
  9 29  1  0
 12 30  1  0
 15 31  1  0
 15 32  1  0
 16 33  1  0
 16 34  1  0
 19 35  1  0
 21 36  1  0
 21 37  1  0
 22 38  1  0
 22 39  1  0
 23 40  1  0
 24 41  1  0
 24 42  1  0
 25 43  1  0
 25 44  1  0
M  ISO  8  26  14  27  14  28  14  29  14  30   9  31   8  32   8  33   8
M  ISO  8  34   8  36  13  37  13  38  13  39  13  40   5  41  13  42  13
M  ISO  2  43  13  44  13
M  END
>  <minimizedAffinity>  (1) 
-6.52707243

>  <minimizedRMSD>  (1) 
1.50216341

$$$$
