
     RDKit          3D

 31 32  0  0  0  0  0  0  0  0999 V2000
   44.5050   35.8510   44.8340 C   0  0  0  0  0  0  0  0  0  0  0  0
   45.1240   35.7870   43.5680 C   0  0  0  0  0  0  0  0  0  0  0  0
   46.0150   34.7420   43.3510 C   0  0  0  0  0  0  0  0  0  0  0  0
   46.2320   33.8530   44.3710 N   0  0  0  0  0  0  0  0  0  0  0  0
   45.6230   33.9510   45.5530 C   0  0  0  0  0  0  0  0  0  0  0  0
   44.7510   34.9450   45.8140 N   0  0  0  0  0  0  0  0  0  0  0  0
   46.6510   34.6570   42.0840 N   0  0  0  0  0  0  0  0  0  0  0  0
   47.8930   35.1700   41.9540 C   0  0  0  0  0  0  0  0  0  0  0  0
   48.5160   35.0880   40.7150 C   0  0  0  0  0  0  0  0  0  0  0  0
   47.8470   34.4960   39.6940 C   0  0  0  0  0  0  0  0  0  0  0  0
   48.4260   34.4250   38.5620 O   0  0  0  0  0  0  0  0  0  0  0  0
   46.6190   33.9830   39.8000 N   0  0  0  0  0  0  0  0  0  0  0  0
   46.0400   34.0800   41.0240 C   0  0  0  0  0  0  0  0  0  0  0  0
   44.9000   33.6380   41.2420 O   0  0  0  0  0  0  0  0  0  0  0  0
   46.0430   32.8560   46.4700 C   0  0  0  0  0  0  0  0  0  0  0  0
   45.1980   32.8340   47.7260 C   0  0  0  0  0  0  0  0  0  0  0  0
   45.3530   30.6460   48.8160 C   0  0  0  0  0  0  0  0  0  0  0  0
   46.3510   31.0980   49.4060 O   0  0  0  0  0  0  0  0  0  0  0  0
   44.6800   31.5080   47.9260 N   0  0  0  0  0  0  0  0  0  0  0  0
   44.9970   29.3310   49.0910 O   0  0  0  0  0  0  0  0  0  0  0  0
   43.7953   36.6671   45.0347 H   0  0  0  0  0  0  0  0  0  0  0  0
   44.9110   36.5314   42.7866 H   0  0  0  0  0  0  0  0  0  0  0  0
   48.3997   35.6417   42.8089 H   0  0  0  0  0  0  0  0  0  0  0  0
   49.5276   35.4934   40.5654 H   0  0  0  0  0  0  0  0  0  0  0  0
   46.1404   33.5409   39.0023 H   0  0  0  0  0  0  0  0  0  0  0  0
   45.9364   31.8927   45.9498 H   0  0  0  0  0  0  0  0  0  0  0  0
   47.0900   33.0289   46.7596 H   0  0  0  0  0  0  0  0  0  0  0  0
   45.8156   33.1215   48.5896 H   0  0  0  0  0  0  0  0  0  0  0  0
   44.3642   33.5439   47.6221 H   0  0  0  0  0  0  0  0  0  0  0  0
   43.8342   31.1939   47.4291 H   0  0  0  0  0  0  0  0  0  0  0  0
   44.2102   28.9277   48.6456 H   0  0  0  0  0  0  0  0  0  0  0  0
  1  6  2  0
  2  1  1  0
  3  2  2  0
  3  4  1  0
  4  5  2  0
  5  6  1  0
  5 15  1  0
  7  3  1  0
  8  7  1  0
  9  8  2  0
 10 12  1  0
 10  9  1  0
 11 10  2  0
 12 13  1  0
 13 14  2  0
 13  7  1  0
 15 16  1  0
 16 19  1  0
 17 20  1  0
 17 18  2  0
 19 17  1  0
  1 21  1  0
  2 22  1  0
  8 23  1  0
  9 24  1  0
 12 25  1  0
 15 26  1  0
 15 27  1  0
 16 28  1  0
 16 29  1  0
 19 30  1  0
 20 31  1  0
M  ISO  8  21  14  22  14  23  14  24  14  25   9  26   8  27   8  28   8
M  ISO  2  29   8  31   3
M  END
>  <minimizedAffinity>  (1) 
-6.42616272

>  <minimizedRMSD>  (1) 
0.104073681

$$$$
