
     RDKit          3D

 41 43  0  0  1  0  0  0  0  0999 V2000
   44.5080   35.6870   44.8160 C   0  0  0  0  0  0  0  0  0  0  0  0
   45.1220   35.6460   43.5380 C   0  0  0  0  0  0  0  0  0  0  0  0
   46.1140   34.6940   43.3470 C   0  0  0  0  0  0  0  0  0  0  0  0
   46.4370   33.8650   44.3840 N   0  0  0  0  0  0  0  0  0  0  0  0
   45.8370   33.9330   45.5750 C   0  0  0  0  0  0  0  0  0  0  0  0
   44.8560   34.8510   45.8160 N   0  0  0  0  0  0  0  0  0  0  0  0
   46.7420   34.6390   42.0670 N   0  0  0  0  0  0  0  0  0  0  0  0
   47.9470   35.2170   41.9270 C   0  0  0  0  0  0  0  0  0  0  0  0
   48.5540   35.1590   40.6740 C   0  0  0  0  0  0  0  0  0  0  0  0
   47.9090   34.5260   39.6590 C   0  0  0  0  0  0  0  0  0  0  0  0
   48.4920   34.4890   38.5190 O   0  0  0  0  0  0  0  0  0  0  0  0
   46.7050   33.9450   39.7900 N   0  0  0  0  0  0  0  0  0  0  0  0
   46.1560   34.0260   41.0200 C   0  0  0  0  0  0  0  0  0  0  0  0
   45.0340   33.5180   41.2560 O   0  0  0  0  0  0  0  0  0  0  0  0
   46.3980   32.9070   46.5030 C   0  0  0  0  0  0  0  0  0  0  0  0
   45.3910   32.6050   47.6020 C   0  0  0  0  0  0  0  0  0  0  0  0
   45.4800   30.1720   47.9590 C   0  0  0  0  0  0  0  0  0  0  0  0
   46.4820   30.4170   48.6570 O   0  0  0  0  0  0  0  0  0  0  0  0
   44.8380   31.2960   47.3830 N   0  0  0  0  0  0  0  0  0  0  0  0
   44.9540   28.7980   47.7170 C   0  0  1  0  0  0  0  0  0  0  0  0
   44.2960   28.7970   46.3430 C   0  0  0  0  0  0  0  0  0  0  0  0
   45.5080   28.5800   45.4660 C   0  0  0  0  0  0  0  0  0  0  0  0
   46.5620   28.1960   46.2540 O   0  0  0  0  0  0  0  0  0  0  0  0
   46.0570   27.7850   47.4760 C   0  0  0  0  0  0  0  0  0  0  0  0
   43.7172   36.4294   44.9989 H   0  0  0  0  0  0  0  0  0  0  0  0
   44.8256   36.3370   42.7350 H   0  0  0  0  0  0  0  0  0  0  0  0
   48.4380   35.7193   42.7735 H   0  0  0  0  0  0  0  0  0  0  0  0
   49.5398   35.6184   40.5090 H   0  0  0  0  0  0  0  0  0  0  0  0
   46.2338   33.4708   39.0064 H   0  0  0  0  0  0  0  0  0  0  0  0
   46.6144   31.9858   45.9421 H   0  0  0  0  0  0  0  0  0  0  0  0
   47.3250   33.2912   46.9537 H   0  0  0  0  0  0  0  0  0  0  0  0
   45.8929   32.6344   48.5804 H   0  0  0  0  0  0  0  0  0  0  0  0
   44.5871   33.3556   47.5861 H   0  0  0  0  0  0  0  0  0  0  0  0
   43.9869   31.1770   46.8152 H   0  0  0  0  0  0  0  0  0  0  0  0
   44.3267   28.5531   48.5868 H   0  0  0  0  0  0  0  0  0  0  0  0
   43.5675   27.9792   46.2408 H   0  0  0  0  0  0  0  0  0  0  0  0
   43.7135   29.7005   46.1097 H   0  0  0  0  0  0  0  0  0  0  0  0
   45.7585   29.5153   44.9440 H   0  0  0  0  0  0  0  0  0  0  0  0
   45.2948   27.7989   44.7214 H   0  0  0  0  0  0  0  0  0  0  0  0
   45.6554   26.7625   47.4192 H   0  0  0  0  0  0  0  0  0  0  0  0
   46.8093   27.7487   48.2777 H   0  0  0  0  0  0  0  0  0  0  0  0
  1  6  2  0
  2  1  1  0
  3  2  2  0
  3  4  1  0
  4  5  2  0
  5  6  1  0
  5 15  1  0
  7  3  1  0
  8  7  1  0
  9  8  2  0
 10 12  1  0
 10  9  1  0
 11 10  2  0
 12 13  1  0
 13 14  2  0
 13  7  1  0
 15 16  1  0
 17 18  2  0
 19 16  1  0
 19 17  1  0
 20 17  1  0
 21 20  1  0
 22 23  1  0
 22 21  1  0
 23 24  1  0
 24 20  1  0
  1 25  1  0
  2 26  1  0
  8 27  1  0
  9 28  1  0
 12 29  1  0
 15 30  1  0
 15 31  1  0
 16 32  1  0
 16 33  1  0
 19 34  1  0
 20 35  1  1
 21 36  1  0
 21 37  1  0
 22 38  1  0
 22 39  1  0
 24 40  1  0
 24 41  1  0
M  ISO  8  25  14  26  14  27  14  28  14  29   9  30   8  31   8  32   8
M  ISO  8  33   8  35  13  36  13  37  13  38  13  39  13  40  13  41  13
M  END
>  <minimizedAffinity>  (1) 
-6.27490759

>  <minimizedRMSD>  (1) 
0.834255219

$$$$
