
     RDKit          3D

 18 19  0  0  0  0  0  0  0  0999 V2000
   44.5070   35.8250   44.7090 C   0  0  0  0  0  0  0  0  0  0  0  0
   45.1720   35.7460   43.4730 C   0  0  0  0  0  0  0  0  0  0  0  0
   46.1200   34.7360   43.2730 C   0  0  0  0  0  0  0  0  0  0  0  0
   46.3490   33.8670   44.3130 N   0  0  0  0  0  0  0  0  0  0  0  0
   45.6940   33.9710   45.4840 C   0  0  0  0  0  0  0  0  0  0  0  0
   44.7840   34.9340   45.6850 N   0  0  0  0  0  0  0  0  0  0  0  0
   45.9710   33.0220   46.5610 C   0  0  0  0  0  0  0  0  0  0  0  0
   47.0340   32.1770   46.5200 C   0  0  0  0  0  0  0  0  0  0  0  0
   47.3310   31.2690   47.5120 C   0  0  0  0  0  0  0  0  0  0  0  0
   46.4840   31.2500   48.5800 N   0  0  0  0  0  0  0  0  0  0  0  0
   45.4330   32.0840   48.6210 C   0  0  0  0  0  0  0  0  0  0  0  0
   45.1370   32.9840   47.6410 N   0  0  0  0  0  0  0  0  0  0  0  0
   43.7599   36.6138   44.8813 H   0  0  0  0  0  0  0  0  0  0  0  0
   44.9502   36.4684   42.6737 H   0  0  0  0  0  0  0  0  0  0  0  0
   46.6611   34.6413   42.3200 H   0  0  0  0  0  0  0  0  0  0  0  0
   47.6964   32.2206   45.6429 H   0  0  0  0  0  0  0  0  0  0  0  0
   48.2006   30.5985   47.4464 H   0  0  0  0  0  0  0  0  0  0  0  0
   44.7708   32.0384   49.4982 H   0  0  0  0  0  0  0  0  0  0  0  0
  1  6  2  0
  2  1  1  0
  3  2  2  0
  3  4  1  0
  4  5  2  0
  5  6  1  0
  5  7  1  0
  7 12  1  0
  8  7  2  0
  8  9  1  0
  9 10  2  0
 10 11  1  0
 12 11  2  0
  1 13  1  0
  2 14  1  0
  3 15  1  0
  8 16  1  0
  9 17  1  0
 11 18  1  0
M  ISO  6  13  14  14  14  15  14  16  14  17  14  18  14
M  END
>  <minimizedAffinity>  (1) 
-4.31485939

>  <minimizedRMSD>  (1) 
0.816879511

$$$$
