
     RDKit          3D

 33 36  0  0  0  0  0  0  0  0999 V2000
   46.0420   33.3210   45.8000 C   0  0  0  0  0  0  0  0  0  0  0  0
   45.2230   34.3930   45.6430 C   0  0  0  0  0  0  0  0  0  0  0  0
   45.1170   35.1160   44.4750 C   0  0  0  0  0  0  0  0  0  0  0  0
   45.8970   34.6990   43.4380 N   0  0  0  0  0  0  0  0  0  0  0  0
   46.7010   33.6430   43.5980 C   0  0  0  0  0  0  0  0  0  0  0  0
   46.8050   32.9330   44.7490 N   0  0  0  0  0  0  0  0  0  0  0  0
   47.5330   33.2100   42.4720 C   0  0  0  0  0  0  0  0  0  0  0  0
   47.0180   33.1210   41.1970 C   0  0  0  0  0  0  0  0  0  0  0  0
   47.7380   32.7200   40.0800 C   0  0  0  0  0  0  0  0  0  0  0  0
   49.0700   32.3920   40.3040 C   0  0  0  0  0  0  0  0  0  0  0  0
   49.8670   31.9860   39.2770 N   0  0  0  0  0  0  0  0  0  0  0  0
   51.1530   31.6760   39.5290 C   0  0  0  0  0  0  0  0  0  0  0  0
   51.7640   31.7310   40.7640 C   0  0  0  0  0  0  0  0  0  0  0  0
   50.9630   32.1410   41.8100 C   0  0  0  0  0  0  0  0  0  0  0  0
   49.6440   32.4600   41.5580 C   0  0  0  0  0  0  0  0  0  0  0  0
   48.8750   32.8670   42.6290 C   0  0  0  0  0  0  0  0  0  0  0  0
   47.4220   31.6260   48.7300 C   0  0  0  0  0  0  0  0  0  0  0  0
   46.2670   31.2330   49.4150 C   0  0  0  0  0  0  0  0  0  0  0  0
   45.0160   31.5400   48.8890 C   0  0  0  0  0  0  0  0  0  0  0  0
   44.9910   32.2240   47.7050 N   0  0  0  0  0  0  0  0  0  0  0  0
   46.1130   32.5960   47.0550 C   0  0  0  0  0  0  0  0  0  0  0  0
   47.3170   32.2960   47.5680 N   0  0  0  0  0  0  0  0  0  0  0  0
   44.6071   34.7027   46.5002 H   0  0  0  0  0  0  0  0  0  0  0  0
   44.4419   35.9798   44.3846 H   0  0  0  0  0  0  0  0  0  0  0  0
   45.9602   33.3868   41.0541 H   0  0  0  0  0  0  0  0  0  0  0  0
   47.2829   32.6652   39.0801 H   0  0  0  0  0  0  0  0  0  0  0  0
   51.7685   31.3512   38.6771 H   0  0  0  0  0  0  0  0  0  0  0  0
   52.8219   31.4651   40.9061 H   0  0  0  0  0  0  0  0  0  0  0  0
   51.3696   32.2126   42.8296 H   0  0  0  0  0  0  0  0  0  0  0  0
   49.3309   32.9220   43.6286 H   0  0  0  0  0  0  0  0  0  0  0  0
   48.4142   31.3876   49.1408 H   0  0  0  0  0  0  0  0  0  0  0  0
   46.3476   30.6840   50.3648 H   0  0  0  0  0  0  0  0  0  0  0  0
   44.0887   31.2458   49.4024 H   0  0  0  0  0  0  0  0  0  0  0  0
  1 21  1  0
  2  1  2  0
  3  2  1  0
  4  5  1  0
  4  3  2  0
  5  6  2  0
  6  1  1  0
  7 16  1  0
  7  5  1  0
  8  7  2  0
  9 10  2  0
  9  8  1  0
 10 15  1  0
 11 12  2  0
 11 10  1  0
 12 13  1  0
 13 14  2  0
 15 14  1  0
 15 16  2  0
 17 18  2  0
 19 18  1  0
 20 19  2  0
 21 22  2  0
 21 20  1  0
 22 17  1  0
  2 23  1  0
  3 24  1  0
  8 25  1  0
  9 26  1  0
 12 27  1  0
 13 28  1  0
 14 29  1  0
 16 30  1  0
 17 31  1  0
 18 32  1  0
 19 33  1  0
M  ISO  8  23  14  24  14  25  14  26  14  27  14  28  14  29  14  30  14
M  ISO  3  31  14  32  14  33  14
M  END
>  <minimizedAffinity>  (1) 
-5.71764278

>  <minimizedRMSD>  (1) 
9.44371986

$$$$
