
     RDKit          3D

 25 27  0  0  0  0  0  0  0  0999 V2000
   46.0280   33.7200   44.7410 C   0  0  0  0  0  0  0  0  0  0  0  0
   45.0840   34.6700   44.4850 C   0  0  0  0  0  0  0  0  0  0  0  0
   45.1960   35.6030   43.4890 C   0  0  0  0  0  0  0  0  0  0  0  0
   46.3260   35.5490   42.7340 N   0  0  0  0  0  0  0  0  0  0  0  0
   47.2540   34.6200   42.9820 C   0  0  0  0  0  0  0  0  0  0  0  0
   47.1510   33.6900   43.9680 N   0  0  0  0  0  0  0  0  0  0  0  0
   46.0090   30.5250   46.5240 C   0  0  0  0  0  0  0  0  0  0  0  0
   45.5840   30.8880   47.8080 C   0  0  0  0  0  0  0  0  0  0  0  0
   45.3000   32.2430   48.0650 C   0  0  0  0  0  0  0  0  0  0  0  0
   45.4580   33.1440   47.0320 N   0  0  0  0  0  0  0  0  0  0  0  0
   45.8690   32.7370   45.8210 C   0  0  0  0  0  0  0  0  0  0  0  0
   46.1460   31.4530   45.5460 N   0  0  0  0  0  0  0  0  0  0  0  0
   48.4860   34.5890   42.1310 C   0  0  0  0  0  0  0  0  0  0  0  0
   48.2500   34.8230   40.6240 C   0  0  0  0  0  0  0  0  0  0  0  0
   48.9650   35.8270   41.4770 C   0  0  0  0  0  0  0  0  0  0  0  0
   44.1817   34.6879   45.1139 H   0  0  0  0  0  0  0  0  0  0  0  0
   44.4142   36.3556   43.3092 H   0  0  0  0  0  0  0  0  0  0  0  0
   46.2350   29.4708   46.3060 H   0  0  0  0  0  0  0  0  0  0  0  0
   45.4744   30.1311   48.5986 H   0  0  0  0  0  0  0  0  0  0  0  0
   44.9626   32.5730   49.0586 H   0  0  0  0  0  0  0  0  0  0  0  0
   48.9732   33.8349   42.7665 H   0  0  0  0  0  0  0  0  0  0  0  0
   47.2386   35.0350   40.2470 H   0  0  0  0  0  0  0  0  0  0  0  0
   48.4732   34.2750   39.6967 H   0  0  0  0  0  0  0  0  0  0  0  0
   50.0447   35.9859   41.3395 H   0  0  0  0  0  0  0  0  0  0  0  0
   48.8226   36.8995   41.6755 H   0  0  0  0  0  0  0  0  0  0  0  0
  1 11  1  0
  2  1  2  0
  3  2  1  0
  4  5  1  0
  4  3  2  0
  5  6  2  0
  6  1  1  0
  7  8  2  0
  8  9  1  0
 10  9  2  0
 11 10  1  0
 12 11  2  0
 12  7  1  0
 13  5  1  0
 14 15  1  0
 14 13  1  0
 15 13  1  0
  2 16  1  0
  3 17  1  0
  7 18  1  0
  8 19  1  0
  9 20  1  0
 13 21  1  0
 14 22  1  0
 14 23  1  0
 15 24  1  0
 15 25  1  0
M  ISO  8  16  14  17  14  18  14  19  14  20  14  21  13  22  13  23  13
M  ISO  2  24  13  25  13
M  END
>  <minimizedAffinity>  (1) 
-5.04527903

>  <minimizedRMSD>  (1) 
6.47246265

$$$$
