
     RDKit          3D

 19 20  0  0  0  0  0  0  0  0999 V2000
   46.0470   32.8400   46.4660 C   0  0  0  0  0  0  0  0  0  0  0  0
   47.0550   31.9550   46.2880 C   0  0  0  0  0  0  0  0  0  0  0  0
   47.3650   30.9870   47.2060 C   0  0  0  0  0  0  0  0  0  0  0  0
   46.6080   30.9420   48.3300 N   0  0  0  0  0  0  0  0  0  0  0  0
   45.6150   31.8120   48.5110 C   0  0  0  0  0  0  0  0  0  0  0  0
   45.2930   32.7770   47.6140 N   0  0  0  0  0  0  0  0  0  0  0  0
   44.5040   35.7730   44.9010 C   0  0  0  0  0  0  0  0  0  0  0  0
   45.1320   35.7770   43.6380 C   0  0  0  0  0  0  0  0  0  0  0  0
   46.0750   34.7870   43.3210 C   0  0  0  0  0  0  0  0  0  0  0  0
   46.3360   33.8510   44.2830 N   0  0  0  0  0  0  0  0  0  0  0  0
   45.7190   33.8740   45.4810 C   0  0  0  0  0  0  0  0  0  0  0  0
   44.8120   34.8200   45.7950 N   0  0  0  0  0  0  0  0  0  0  0  0
   44.8620   31.7340   49.6760 O   0  0  0  0  0  0  0  0  0  0  0  0
   47.6515   32.0157   45.3658 H   0  0  0  0  0  0  0  0  0  0  0  0
   48.1900   30.2788   47.0391 H   0  0  0  0  0  0  0  0  0  0  0  0
   43.7647   36.5478   45.1525 H   0  0  0  0  0  0  0  0  0  0  0  0
   44.8828   36.5556   42.9019 H   0  0  0  0  0  0  0  0  0  0  0  0
   46.5805   34.7651   42.3443 H   0  0  0  0  0  0  0  0  0  0  0  0
   44.1200   32.3711   49.8294 H   0  0  0  0  0  0  0  0  0  0  0  0
  1  6  1  0
  2  1  2  0
  2  3  1  0
  3  4  2  0
  4  5  1  0
  5 13  1  0
  6  5  2  0
  7 12  2  0
  8  7  1  0
  9  8  2  0
  9 10  1  0
 10 11  2  0
 11 12  1  0
 11  1  1  0
  2 14  1  0
  3 15  1  0
  7 16  1  0
  8 17  1  0
  9 18  1  0
 13 19  1  0
M  ISO  6  14  14  15  14  16  14  17  14  18  14  19   3
M  END
>  <minimizedAffinity>  (1) 
-4.80038881

>  <minimizedRMSD>  (1) 
0.272197545

$$$$
