
     RDKit          3D

 24 25  0  0  0  0  0  0  0  0999 V2000
   46.2400   32.9880   45.6230 C   0  0  0  0  0  0  0  0  0  0  0  0
   46.9770   31.9420   45.1590 C   0  0  0  0  0  0  0  0  0  0  0  0
   47.3730   30.8750   45.9350 C   0  0  0  0  0  0  0  0  0  0  0  0
   46.9820   30.9090   47.2410 N   0  0  0  0  0  0  0  0  0  0  0  0
   46.2510   31.9470   47.7050 C   0  0  0  0  0  0  0  0  0  0  0  0
   45.8660   32.9930   46.9320 N   0  0  0  0  0  0  0  0  0  0  0  0
   44.5160   35.9870   44.4410 C   0  0  0  0  0  0  0  0  0  0  0  0
   45.0880   36.1880   43.1740 C   0  0  0  0  0  0  0  0  0  0  0  0
   46.0690   35.2910   42.7240 C   0  0  0  0  0  0  0  0  0  0  0  0
   46.4110   34.2610   43.5660 N   0  0  0  0  0  0  0  0  0  0  0  0
   45.8390   34.1010   44.7720 C   0  0  0  0  0  0  0  0  0  0  0  0
   44.8940   34.9550   45.2180 N   0  0  0  0  0  0  0  0  0  0  0  0
   45.8130   32.0100   49.1240 C   0  0  0  0  0  0  0  0  0  0  0  0
   45.0150   30.7910   49.4990 C   0  0  0  0  0  0  0  0  0  0  0  0
   47.2745   31.9491   44.1000 H   0  0  0  0  0  0  0  0  0  0  0  0
   47.9686   30.0456   45.5259 H   0  0  0  0  0  0  0  0  0  0  0  0
   43.7466   36.6843   44.8041 H   0  0  0  0  0  0  0  0  0  0  0  0
   44.7725   37.0338   42.5454 H   0  0  0  0  0  0  0  0  0  0  0  0
   46.5439   35.4078   41.7387 H   0  0  0  0  0  0  0  0  0  0  0  0
   46.7001   32.0718   49.7714 H   0  0  0  0  0  0  0  0  0  0  0  0
   45.1768   32.8978   49.2542 H   0  0  0  0  0  0  0  0  0  0  0  0
   44.9621   30.7102   50.5948 H   0  0  0  0  0  0  0  0  0  0  0  0
   43.9983   30.8777   49.0882 H   0  0  0  0  0  0  0  0  0  0  0  0
   45.5012   29.8938   49.0882 H   0  0  0  0  0  0  0  0  0  0  0  0
  1  6  1  0
  2  1  2  0
  2  3  1  0
  3  4  2  0
  4  5  1  0
  5 13  1  0
  6  5  2  0
  7 12  2  0
  8  7  1  0
  9  8  2  0
  9 10  1  0
 10 11  2  0
 11 12  1  0
 11  1  1  0
 13 14  1  0
  2 15  1  0
  3 16  1  0
  7 17  1  0
  8 18  1  0
  9 19  1  0
 13 20  1  0
 13 21  1  0
 14 22  1  0
 14 23  1  0
 14 24  1  0
M  ISO  8  15  14  16  14  17  14  18  14  19  14  20   8  21   8  22   8
M  ISO  2  23   8  24   8
M  END
>  <minimizedAffinity>  (1) 
-4.6483984

>  <minimizedRMSD>  (1) 
1.09667635

$$$$
