
     RDKit          3D

 27 29  0  0  0  0  0  0  0  0999 V2000
   46.9760   32.0540   43.3430 C   0  0  0  0  0  0  0  0  0  0  0  0
   46.6390   30.9200   42.6960 C   0  0  0  0  0  0  0  0  0  0  0  0
   46.0500   29.8260   43.2900 C   0  0  0  0  0  0  0  0  0  0  0  0
   45.8120   29.9400   44.6180 N   0  0  0  0  0  0  0  0  0  0  0  0
   46.1380   31.0590   45.2800 C   0  0  0  0  0  0  0  0  0  0  0  0
   46.7180   32.1290   44.6810 N   0  0  0  0  0  0  0  0  0  0  0  0
   47.5480   34.8160   41.0030 C   0  0  0  0  0  0  0  0  0  0  0  0
   48.7640   35.3240   41.4680 C   0  0  0  0  0  0  0  0  0  0  0  0
   49.3910   34.7410   42.5660 C   0  0  0  0  0  0  0  0  0  0  0  0
   48.7780   33.6680   43.1580 N   0  0  0  0  0  0  0  0  0  0  0  0
   47.5980   33.1970   42.6860 C   0  0  0  0  0  0  0  0  0  0  0  0
   46.9880   33.7600   41.6220 N   0  0  0  0  0  0  0  0  0  0  0  0
   45.8740   31.1730   46.7270 C   0  0  0  0  0  0  0  0  0  0  0  0
   45.3560   30.0660   47.4000 C   0  0  0  0  0  0  0  0  0  0  0  0
   45.1090   30.1750   48.7530 C   0  0  0  0  0  0  0  0  0  0  0  0
   45.3870   31.3680   49.3570 C   0  0  0  0  0  0  0  0  0  0  0  0
   45.9050   32.4940   48.7100 C   0  0  0  0  0  0  0  0  0  0  0  0
   46.1140   32.3060   47.4130 N   0  0  0  0  0  0  0  0  0  0  0  0
   46.8494   30.8648   41.6177 H   0  0  0  0  0  0  0  0  0  0  0  0
   45.7902   28.9198   42.7232 H   0  0  0  0  0  0  0  0  0  0  0  0
   47.0514   35.2764   40.1362 H   0  0  0  0  0  0  0  0  0  0  0  0
   49.2267   36.1862   40.9655 H   0  0  0  0  0  0  0  0  0  0  0  0
   50.3475   35.1292   42.9459 H   0  0  0  0  0  0  0  0  0  0  0  0
   45.1493   29.1279   46.8641 H   0  0  0  0  0  0  0  0  0  0  0  0
   44.7017   29.3291   49.3262 H   0  0  0  0  0  0  0  0  0  0  0  0
   45.1880   31.4492   50.4358 H   0  0  0  0  0  0  0  0  0  0  0  0
   46.1183   33.4422   49.2252 H   0  0  0  0  0  0  0  0  0  0  0  0
  1  6  2  0
  2  3  2  0
  2  1  1  0
  3  4  1  0
  4  5  2  0
  5 13  1  0
  6  5  1  0
  7  8  2  0
  7 12  1  0
  8  9  1  0
  9 10  2  0
 11 10  1  0
 11  1  1  0
 12 11  2  0
 13 14  2  0
 13 18  1  0
 14 15  1  0
 15 16  2  0
 17 16  1  0
 18 17  2  0
  2 19  1  0
  3 20  1  0
  7 21  1  0
  8 22  1  0
  9 23  1  0
 14 24  1  0
 15 25  1  0
 16 26  1  0
 17 27  1  0
M  ISO  8  19  14  20  14  21  14  22  14  23  14  24  14  25  14  26  14
M  ISO  1  27  14
M  END
>  <minimizedAffinity>  (1) 
-4.64664745

>  <minimizedRMSD>  (1) 
3.93362069

$$$$
