
     RDKit          3D

 28 30  0  0  0  0  0  0  0  0999 V2000
   45.9720   33.5770   45.5620 C   0  0  0  0  0  0  0  0  0  0  0  0
   45.0070   34.4890   45.8280 C   0  0  0  0  0  0  0  0  0  0  0  0
   44.6280   35.4840   44.9560 C   0  0  0  0  0  0  0  0  0  0  0  0
   45.2880   35.5130   43.7730 N   0  0  0  0  0  0  0  0  0  0  0  0
   46.2420   34.6110   43.5090 C   0  0  0  0  0  0  0  0  0  0  0  0
   46.6170   33.6300   44.3670 N   0  0  0  0  0  0  0  0  0  0  0  0
   46.1080   30.3320   47.2720 C   0  0  0  0  0  0  0  0  0  0  0  0
   47.0140   30.5820   48.3070 C   0  0  0  0  0  0  0  0  0  0  0  0
   47.5750   31.8500   48.4190 C   0  0  0  0  0  0  0  0  0  0  0  0
   47.2130   32.8090   47.5050 N   0  0  0  0  0  0  0  0  0  0  0  0
   46.3390   32.5380   46.5220 C   0  0  0  0  0  0  0  0  0  0  0  0
   45.7990   31.3210   46.4110 N   0  0  0  0  0  0  0  0  0  0  0  0
   46.9540   34.6550   42.2120 C   0  0  0  0  0  0  0  0  0  0  0  0
   46.4660   33.9380   41.1400 C   0  0  0  0  0  0  0  0  0  0  0  0
   47.0660   33.9210   39.8910 C   0  0  0  0  0  0  0  0  0  0  0  0
   48.2260   34.6760   39.7240 C   0  0  0  0  0  0  0  0  0  0  0  0
   48.7060   35.3860   40.7860 C   0  0  0  0  0  0  0  0  0  0  0  0
   48.1030   35.3970   42.0270 C   0  0  0  0  0  0  0  0  0  0  0  0
   44.4950   34.4310   46.7999 H   0  0  0  0  0  0  0  0  0  0  0  0
   43.8393   36.2097   45.2037 H   0  0  0  0  0  0  0  0  0  0  0  0
   45.6518   29.3372   47.1617 H   0  0  0  0  0  0  0  0  0  0  0  0
   47.2790   29.7887   49.0214 H   0  0  0  0  0  0  0  0  0  0  0  0
   48.2920   32.0793   49.2211 H   0  0  0  0  0  0  0  0  0  0  0  0
   45.5497   33.3468   41.2843 H   0  0  0  0  0  0  0  0  0  0  0  0
   46.6429   33.3339   39.0625 H   0  0  0  0  0  0  0  0  0  0  0  0
   48.7447   34.6990   38.7543 H   0  0  0  0  0  0  0  0  0  0  0  0
   49.6209   35.9802   40.6454 H   0  0  0  0  0  0  0  0  0  0  0  0
   48.5296   35.9855   42.8526 H   0  0  0  0  0  0  0  0  0  0  0  0
  1  2  2  0
  1 11  1  0
  3  2  1  0
  4  3  2  0
  5  4  1  0
  5  6  2  0
  6  1  1  0
  7  8  2  0
  8  9  1  0
 10  9  2  0
 11 10  1  0
 12 11  2  0
 12  7  1  0
 13  5  1  0
 14 13  2  0
 15 14  1  0
 16 15  2  0
 16 17  1  0
 17 18  2  0
 18 13  1  0
  2 19  1  0
  3 20  1  0
  7 21  1  0
  8 22  1  0
  9 23  1  0
 14 24  1  0
 15 25  1  0
 16 26  1  0
 17 27  1  0
 18 28  1  0
M  ISO  8  19  14  20  14  21  14  22  14  23  14  24  14  25  14  26  14
M  ISO  2  27  14  28  14
M  END
>  <minimizedAffinity>  (1) 
-6.02798462

>  <minimizedRMSD>  (1) 
7.59248829

$$$$
