
     RDKit          3D

 34 36  0  0  0  0  0  0  0  0999 V2000
   45.8970   33.7090   44.8900 C   0  0  0  0  0  0  0  0  0  0  0  0
   45.1100   34.7760   45.1370 C   0  0  0  0  0  0  0  0  0  0  0  0
   44.7980   35.7400   44.2140 C   0  0  0  0  0  0  0  0  0  0  0  0
   45.3370   35.5680   42.9880 N   0  0  0  0  0  0  0  0  0  0  0  0
   46.1140   34.5240   42.7220 C   0  0  0  0  0  0  0  0  0  0  0  0
   46.4260   33.5620   43.6420 N   0  0  0  0  0  0  0  0  0  0  0  0
   46.6950   34.3470   41.3770 C   0  0  0  0  0  0  0  0  0  0  0  0
   46.0360   33.6050   40.4300 C   0  0  0  0  0  0  0  0  0  0  0  0
   46.5190   33.3900   39.1510 C   0  0  0  0  0  0  0  0  0  0  0  0
   47.7380   33.9550   38.8100 C   0  0  0  0  0  0  0  0  0  0  0  0
   48.3930   34.6890   39.7410 C   0  0  0  0  0  0  0  0  0  0  0  0
   47.8930   34.8880   41.0030 C   0  0  0  0  0  0  0  0  0  0  0  0
   48.6900   35.7100   41.9290 C   0  0  0  0  0  0  0  0  0  0  0  0
   49.8270   34.8930   42.4590 C   0  0  0  0  0  0  0  0  0  0  0  0
   46.1540   30.4660   46.5880 C   0  0  0  0  0  0  0  0  0  0  0  0
   46.7480   30.8200   47.8050 C   0  0  0  0  0  0  0  0  0  0  0  0
   47.0580   32.1560   48.0380 C   0  0  0  0  0  0  0  0  0  0  0  0
   46.7690   33.0830   47.0660 N   0  0  0  0  0  0  0  0  0  0  0  0
   46.1970   32.7070   45.9090 C   0  0  0  0  0  0  0  0  0  0  0  0
   45.8950   31.4240   45.6730 N   0  0  0  0  0  0  0  0  0  0  0  0
   44.6898   34.8797   46.1483 H   0  0  0  0  0  0  0  0  0  0  0  0
   44.1517   36.5966   44.4559 H   0  0  0  0  0  0  0  0  0  0  0  0
   45.0696   33.1557   40.7024 H   0  0  0  0  0  0  0  0  0  0  0  0
   45.9518   32.7880   38.4258 H   0  0  0  0  0  0  0  0  0  0  0  0
   48.1637   33.8105   37.8061 H   0  0  0  0  0  0  0  0  0  0  0  0
   49.3599   35.1415   39.4759 H   0  0  0  0  0  0  0  0  0  0  0  0
   49.0847   36.5872   41.3955 H   0  0  0  0  0  0  0  0  0  0  0  0
   48.0566   36.0464   42.7630 H   0  0  0  0  0  0  0  0  0  0  0  0
   49.8073   34.9071   43.5587 H   0  0  0  0  0  0  0  0  0  0  0  0
   49.7305   33.8564   42.1038 H   0  0  0  0  0  0  0  0  0  0  0  0
   50.7787   35.3151   42.1038 H   0  0  0  0  0  0  0  0  0  0  0  0
   45.9005   29.4162   46.3791 H   0  0  0  0  0  0  0  0  0  0  0  0
   46.9660   30.0547   48.5644 H   0  0  0  0  0  0  0  0  0  0  0  0
   47.5264   32.4649   48.9841 H   0  0  0  0  0  0  0  0  0  0  0  0
  1  2  2  0
  1 19  1  0
  3  2  1  0
  4  3  2  0
  5  4  1  0
  5  6  2  0
  6  1  1  0
  7  5  1  0
  8  7  2  0
  9  8  1  0
 10  9  2  0
 10 11  1  0
 11 12  2  0
 12  7  1  0
 12 13  1  0
 13 14  1  0
 15 16  2  0
 16 17  1  0
 18 17  2  0
 19 18  1  0
 20 19  2  0
 20 15  1  0
  2 21  1  0
  3 22  1  0
  8 23  1  0
  9 24  1  0
 10 25  1  0
 11 26  1  0
 13 27  1  0
 13 28  1  0
 14 29  1  0
 14 30  1  0
 14 31  1  0
 15 32  1  0
 16 33  1  0
 17 34  1  0
M  ISO  8  21  14  22  14  23  14  24  14  25  14  26  14  27   8  28   8
M  ISO  6  29   8  30   8  31   8  32  14  33  14  34  14
M  END
>  <minimizedAffinity>  (1) 
-6.0538497

>  <minimizedRMSD>  (1) 
0.930229187

$$$$
