
     RDKit          3D

 34 36  0  0  0  0  0  0  0  0999 V2000
   45.3820   33.8270   45.5750 C   0  0  0  0  0  0  0  0  0  0  0  0
   44.8080   35.0330   45.8180 C   0  0  0  0  0  0  0  0  0  0  0  0
   44.3350   35.8700   44.8340 C   0  0  0  0  0  0  0  0  0  0  0  0
   44.4710   35.4240   43.5650 N   0  0  0  0  0  0  0  0  0  0  0  0
   45.0390   34.2300   43.3190 C   0  0  0  0  0  0  0  0  0  0  0  0
   45.5010   33.4150   44.2900 N   0  0  0  0  0  0  0  0  0  0  0  0
   45.1790   33.7600   41.9230 C   0  0  0  0  0  0  0  0  0  0  0  0
   44.1980   32.9720   41.3700 C   0  0  0  0  0  0  0  0  0  0  0  0
   44.2290   32.4780   40.0750 C   0  0  0  0  0  0  0  0  0  0  0  0
   45.3340   32.8170   39.3090 C   0  0  0  0  0  0  0  0  0  0  0  0
   46.3100   33.5980   39.8530 C   0  0  0  0  0  0  0  0  0  0  0  0
   46.2680   34.0840   41.1450 C   0  0  0  0  0  0  0  0  0  0  0  0
   47.2340   34.8700   41.7180 O   0  0  0  0  0  0  0  0  0  0  0  0
   49.6480   35.5210   42.4880 O   0  0  0  0  0  0  0  0  0  0  0  0
   48.8800   34.8790   41.3290 P   0  0  0  0  0  0  0  0  0  0  0  0
   49.5120   33.3750   40.9640 O   0  0  0  0  0  0  0  0  0  0  0  0
   49.1100   35.8860   39.9840 O   0  0  0  0  0  0  0  0  0  0  0  0
   45.5780   32.0940   48.7960 C   0  0  0  0  0  0  0  0  0  0  0  0
   46.7780   31.3710   48.6620 C   0  0  0  0  0  0  0  0  0  0  0  0
   47.5080   31.4750   47.4910 C   0  0  0  0  0  0  0  0  0  0  0  0
   47.0260   32.2900   46.4910 N   0  0  0  0  0  0  0  0  0  0  0  0
   45.8690   32.9720   46.6500 C   0  0  0  0  0  0  0  0  0  0  0  0
   45.1590   32.8730   47.7850 N   0  0  0  0  0  0  0  0  0  0  0  0
   44.7156   35.3605   46.8641 H   0  0  0  0  0  0  0  0  0  0  0  0
   43.8747   36.8419   45.0654 H   0  0  0  0  0  0  0  0  0  0  0  0
   43.3307   32.7163   41.9965 H   0  0  0  0  0  0  0  0  0  0  0  0
   43.4191   31.8497   39.6759 H   0  0  0  0  0  0  0  0  0  0  0  0
   45.4222   32.4593   38.2725 H   0  0  0  0  0  0  0  0  0  0  0  0
   47.1784   33.8551   39.2287 H   0  0  0  0  0  0  0  0  0  0  0  0
   49.7157   32.8902   41.8028 H   0  0  0  0  0  0  0  0  0  0  0  0
   49.3196   36.8036   40.2908 H   0  0  0  0  0  0  0  0  0  0  0  0
   44.9878   32.0218   49.7214 H   0  0  0  0  0  0  0  0  0  0  0  0
   47.1327   30.7285   49.4814 H   0  0  0  0  0  0  0  0  0  0  0  0
   48.4494   30.9208   47.3622 H   0  0  0  0  0  0  0  0  0  0  0  0
  1  2  2  0
  1 22  1  0
  3  2  1  0
  4  3  2  0
  5  4  1  0
  5  6  2  0
  6  1  1  0
  7  5  1  0
  8  7  2  0
  9  8  1  0
 10 11  1  0
 10  9  2  0
 11 12  2  0
 12 13  1  0
 12  7  1  0
 15 13  1  0
 15 14  2  0
 16 15  1  0
 17 15  1  0
 19 18  2  0
 20 19  1  0
 21 22  1  0
 21 20  2  0
 22 23  2  0
 23 18  1  0
  2 24  1  0
  3 25  1  0
  8 26  1  0
  9 27  1  0
 10 28  1  0
 11 29  1  0
 16 30  1  0
 17 31  1  0
 18 32  1  0
 19 33  1  0
 20 34  1  0
M  ISO  8  24  14  25  14  26  14  27  14  28  14  29  14  30   3  31   3
M  ISO  3  32  14  33  14  34  14
M  END
>  <minimizedAffinity>  (1) 
-6.05208778

>  <minimizedRMSD>  (1) 
2.26745558

$$$$
