
     RDKit          3D

 37 39  0  0  0  0  0  0  0  0999 V2000
   45.3740   33.7200   45.6810 C   0  0  0  0  0  0  0  0  0  0  0  0
   44.8400   34.9170   46.0000 C   0  0  0  0  0  0  0  0  0  0  0  0
   44.4050   35.8250   45.0630 C   0  0  0  0  0  0  0  0  0  0  0  0
   44.5380   35.4560   43.7700 N   0  0  0  0  0  0  0  0  0  0  0  0
   45.0720   34.2590   43.4570 C   0  0  0  0  0  0  0  0  0  0  0  0
   45.4960   33.3750   44.3740 N   0  0  0  0  0  0  0  0  0  0  0  0
   45.2070   33.8750   42.0280 C   0  0  0  0  0  0  0  0  0  0  0  0
   44.1670   33.2350   41.4060 C   0  0  0  0  0  0  0  0  0  0  0  0
   44.1800   32.8310   40.0760 C   0  0  0  0  0  0  0  0  0  0  0  0
   45.3480   33.1120   39.3640 C   0  0  0  0  0  0  0  0  0  0  0  0
   46.3750   33.7470   39.9860 C   0  0  0  0  0  0  0  0  0  0  0  0
   46.3370   34.1390   41.3080 C   0  0  0  0  0  0  0  0  0  0  0  0
   47.3610   34.7810   41.9590 O   0  0  0  0  0  0  0  0  0  0  0  0
   49.8180   35.4160   42.6280 O   0  0  0  0  0  0  0  0  0  0  0  0
   48.9850   34.8250   41.4840 P   0  0  0  0  0  0  0  0  0  0  0  0
   49.6080   33.3500   41.0160 O   0  0  0  0  0  0  0  0  0  0  0  0
   49.1300   35.9090   40.1770 O   0  0  0  0  0  0  0  0  0  0  0  0
   45.6800   31.9950   48.9020 C   0  0  0  0  0  0  0  0  0  0  0  0
   46.6550   31.0250   48.6200 C   0  0  0  0  0  0  0  0  0  0  0  0
   47.2020   30.9570   47.3530 C   0  0  0  0  0  0  0  0  0  0  0  0
   46.7690   31.8490   46.4020 N   0  0  0  0  0  0  0  0  0  0  0  0
   45.8300   32.7720   46.7020 C   0  0  0  0  0  0  0  0  0  0  0  0
   45.2950   32.8410   47.9340 N   0  0  0  0  0  0  0  0  0  0  0  0
   48.2430   29.9490   46.9860 C   0  0  0  0  0  0  0  0  0  0  0  0
   49.3410   30.1880   47.7860 F   0  0  0  0  0  0  0  0  0  0  0  0
   48.5050   30.1130   45.6400 F   0  0  0  0  0  0  0  0  0  0  0  0
   47.7700   28.6580   47.2520 F   0  0  0  0  0  0  0  0  0  0  0  0
   44.7477   35.1804   47.0640 H   0  0  0  0  0  0  0  0  0  0  0  0
   43.9738   36.7955   45.3497 H   0  0  0  0  0  0  0  0  0  0  0  0
   43.2632   33.0275   41.9977 H   0  0  0  0  0  0  0  0  0  0  0  0
   43.3225   32.3211   39.6126 H   0  0  0  0  0  0  0  0  0  0  0  0
   45.4357   32.8211   38.3068 H   0  0  0  0  0  0  0  0  0  0  0  0
   47.2846   33.9598   39.4052 H   0  0  0  0  0  0  0  0  0  0  0  0
   49.8331   32.8170   41.8193 H   0  0  0  0  0  0  0  0  0  0  0  0
   49.2530   36.8284   40.5229 H   0  0  0  0  0  0  0  0  0  0  0  0
   45.2361   32.0609   49.9063 H   0  0  0  0  0  0  0  0  0  0  0  0
   46.9812   30.3239   49.4024 H   0  0  0  0  0  0  0  0  0  0  0  0
  1  2  2  0
  1 22  1  0
  3  2  1  0
  4  3  2  0
  5  4  1  0
  5  6  2  0
  6  1  1  0
  7  5  1  0
  8  7  2  0
  9  8  1  0
 10 11  1  0
 10  9  2  0
 11 12  2  0
 12 13  1  0
 12  7  1  0
 15 13  1  0
 15 14  2  0
 16 15  1  0
 17 15  1  0
 19 18  2  0
 20 19  1  0
 21 22  1  0
 21 20  2  0
 22 23  2  0
 23 18  1  0
 24 27  1  0
 24 20  1  0
 24 25  1  0
 26 24  1  0
  2 28  1  0
  3 29  1  0
  8 30  1  0
  9 31  1  0
 10 32  1  0
 11 33  1  0
 16 34  1  0
 17 35  1  0
 18 36  1  0
 19 37  1  0
M  ISO  8  28  14  29  14  30  14  31  14  32  14  33  14  34   3  35   3
M  ISO  2  36  14  37  14
M  END
>  <minimizedAffinity>  (1) 
-6.26767063

>  <minimizedRMSD>  (1) 
0.578326941

$$$$
