
     RDKit          3D

 35 37  0  0  0  0  0  0  0  0999 V2000
   45.4030   33.7160   45.5940 C   0  0  0  0  0  0  0  0  0  0  0  0
   44.8620   34.9260   45.8820 C   0  0  0  0  0  0  0  0  0  0  0  0
   44.4090   35.8090   44.9170 C   0  0  0  0  0  0  0  0  0  0  0  0
   44.5350   35.3950   43.6400 N   0  0  0  0  0  0  0  0  0  0  0  0
   45.0680   34.2010   43.3630 C   0  0  0  0  0  0  0  0  0  0  0  0
   45.5100   33.3410   44.3080 N   0  0  0  0  0  0  0  0  0  0  0  0
   45.1960   33.7680   41.9530 C   0  0  0  0  0  0  0  0  0  0  0  0
   44.2150   33.0050   41.3760 C   0  0  0  0  0  0  0  0  0  0  0  0
   44.2410   32.5480   40.0630 C   0  0  0  0  0  0  0  0  0  0  0  0
   45.3380   32.9000   39.3090 C   0  0  0  0  0  0  0  0  0  0  0  0
   46.3220   33.6580   39.8680 C   0  0  0  0  0  0  0  0  0  0  0  0
   46.2870   34.1080   41.1780 C   0  0  0  0  0  0  0  0  0  0  0  0
   47.2660   34.8770   41.7730 O   0  0  0  0  0  0  0  0  0  0  0  0
   49.6860   35.5270   42.4950 O   0  0  0  0  0  0  0  0  0  0  0  0
   48.9040   34.8820   41.3460 P   0  0  0  0  0  0  0  0  0  0  0  0
   49.5430   33.3920   40.9800 O   0  0  0  0  0  0  0  0  0  0  0  0
   49.1140   35.8910   40.0070 O   0  0  0  0  0  0  0  0  0  0  0  0
   45.6690   32.0150   48.8290 C   0  0  0  0  0  0  0  0  0  0  0  0
   46.7370   31.1420   48.6110 C   0  0  0  0  0  0  0  0  0  0  0  0
   47.3680   31.1270   47.3720 C   0  0  0  0  0  0  0  0  0  0  0  0
   46.9030   31.9860   46.4050 N   0  0  0  0  0  0  0  0  0  0  0  0
   45.8680   32.8190   46.6480 C   0  0  0  0  0  0  0  0  0  0  0  0
   45.2620   32.8300   47.8410 N   0  0  0  0  0  0  0  0  0  0  0  0
   48.4150   30.2720   47.1550 O   0  0  0  0  0  0  0  0  0  0  0  0
   44.7788   35.2213   46.9384 H   0  0  0  0  0  0  0  0  0  0  0  0
   43.9741   36.7858   45.1754 H   0  0  0  0  0  0  0  0  0  0  0  0
   43.3463   32.7352   41.9946 H   0  0  0  0  0  0  0  0  0  0  0  0
   43.4265   31.9363   39.6478 H   0  0  0  0  0  0  0  0  0  0  0  0
   45.4192   32.5713   38.2624 H   0  0  0  0  0  0  0  0  0  0  0  0
   47.1894   33.9268   39.2473 H   0  0  0  0  0  0  0  0  0  0  0  0
   49.7509   32.9073   41.8178 H   0  0  0  0  0  0  0  0  0  0  0  0
   49.3057   36.8122   40.3148 H   0  0  0  0  0  0  0  0  0  0  0  0
   45.1630   32.0355   49.8055 H   0  0  0  0  0  0  0  0  0  0  0  0
   47.0767   30.4710   49.4137 H   0  0  0  0  0  0  0  0  0  0  0  0
   48.8678   30.2573   46.2747 H   0  0  0  0  0  0  0  0  0  0  0  0
  1  2  2  0
  1 22  1  0
  3  2  1  0
  4  3  2  0
  5  4  1  0
  5  6  2  0
  6  1  1  0
  7  5  1  0
  8  7  2  0
  9  8  1  0
 10 11  1  0
 10  9  2  0
 11 12  2  0
 12 13  1  0
 12  7  1  0
 15 13  1  0
 15 14  2  0
 16 15  1  0
 17 15  1  0
 19 18  2  0
 20 19  1  0
 21 22  1  0
 21 20  2  0
 22 23  2  0
 23 18  1  0
 24 20  1  0
  2 25  1  0
  3 26  1  0
  8 27  1  0
  9 28  1  0
 10 29  1  0
 11 30  1  0
 16 31  1  0
 17 32  1  0
 18 33  1  0
 19 34  1  0
 24 35  1  0
M  ISO  8  25  14  26  14  27  14  28  14  29  14  30  14  31   3  32   3
M  ISO  3  33  14  34  14  35   3
M  END
>  <minimizedAffinity>  (1) 
-6.1571312

>  <minimizedRMSD>  (1) 
0.187408388

$$$$
