
     RDKit          3D

 36 38  0  0  0  0  0  0  0  0999 V2000
   45.3970   33.6950   45.5990 C   0  0  0  0  0  0  0  0  0  0  0  0
   44.8600   34.9180   45.8850 C   0  0  0  0  0  0  0  0  0  0  0  0
   44.4190   35.8060   44.9330 C   0  0  0  0  0  0  0  0  0  0  0  0
   44.5490   35.3930   43.6500 N   0  0  0  0  0  0  0  0  0  0  0  0
   45.0730   34.1960   43.3590 C   0  0  0  0  0  0  0  0  0  0  0  0
   45.5020   33.3340   44.3020 N   0  0  0  0  0  0  0  0  0  0  0  0
   45.6830   32.0340   48.8460 C   0  0  0  0  0  0  0  0  0  0  0  0
   46.7200   31.1020   48.6040 C   0  0  0  0  0  0  0  0  0  0  0  0
   47.2940   31.0580   47.3550 C   0  0  0  0  0  0  0  0  0  0  0  0
   46.8490   31.9120   46.3830 N   0  0  0  0  0  0  0  0  0  0  0  0
   45.8470   32.7970   46.6520 C   0  0  0  0  0  0  0  0  0  0  0  0
   45.2770   32.8540   47.8590 N   0  0  0  0  0  0  0  0  0  0  0  0
   48.3370   30.1560   47.0290 N   0  0  0  0  0  0  0  0  0  0  0  0
   45.2030   33.7690   41.9510 C   0  0  0  0  0  0  0  0  0  0  0  0
   44.2080   33.0140   41.3820 C   0  0  0  0  0  0  0  0  0  0  0  0
   44.2320   32.5630   40.0730 C   0  0  0  0  0  0  0  0  0  0  0  0
   45.3450   32.9100   39.3120 C   0  0  0  0  0  0  0  0  0  0  0  0
   46.3330   33.6590   39.8780 C   0  0  0  0  0  0  0  0  0  0  0  0
   46.2950   34.1030   41.1850 C   0  0  0  0  0  0  0  0  0  0  0  0
   47.2690   34.8530   41.7760 O   0  0  0  0  0  0  0  0  0  0  0  0
   49.7030   35.5180   42.5020 O   0  0  0  0  0  0  0  0  0  0  0  0
   48.9170   34.8740   41.3530 P   0  0  0  0  0  0  0  0  0  0  0  0
   49.5520   33.3790   40.9760 O   0  0  0  0  0  0  0  0  0  0  0  0
   49.1120   35.8900   40.0110 O   0  0  0  0  0  0  0  0  0  0  0  0
   44.7753   35.2102   46.9421 H   0  0  0  0  0  0  0  0  0  0  0  0
   43.9902   36.7844   45.1952 H   0  0  0  0  0  0  0  0  0  0  0  0
   45.2102   32.0881   49.8377 H   0  0  0  0  0  0  0  0  0  0  0  0
   47.0610   30.4247   49.4008 H   0  0  0  0  0  0  0  0  0  0  0  0
   48.7398   30.1554   46.0810 H   0  0  0  0  0  0  0  0  0  0  0  0
   48.6924   29.5010   47.7400 H   0  0  0  0  0  0  0  0  0  0  0  0
   43.3391   32.7513   42.0033 H   0  0  0  0  0  0  0  0  0  0  0  0
   43.4122   31.9603   39.6551 H   0  0  0  0  0  0  0  0  0  0  0  0
   45.4261   32.5831   38.2648 H   0  0  0  0  0  0  0  0  0  0  0  0
   47.2053   33.9233   39.2622 H   0  0  0  0  0  0  0  0  0  0  0  0
   49.7602   32.8889   41.8106 H   0  0  0  0  0  0  0  0  0  0  0  0
   49.2893   36.8138   40.3195 H   0  0  0  0  0  0  0  0  0  0  0  0
  1  2  2  0
  1 11  1  0
  3  2  1  0
  4  3  2  0
  5  4  1  0
  5  6  2  0
  6  1  1  0
  8  7  2  0
  9  8  1  0
 10 11  1  0
 10  9  2  0
 11 12  2  0
 12  7  1  0
 13  9  1  0
 14  5  1  0
 15 14  2  0
 16 15  1  0
 17 18  1  0
 17 16  2  0
 18 19  2  0
 19 20  1  0
 19 14  1  0
 22 20  1  0
 22 21  2  0
 23 22  1  0
 24 22  1  0
  2 25  1  0
  3 26  1  0
  7 27  1  0
  8 28  1  0
 13 29  1  0
 13 30  1  0
 15 31  1  0
 16 32  1  0
 17 33  1  0
 18 34  1  0
 23 35  1  0
 24 36  1  0
M  ISO  8  25  14  26  14  27  14  28  14  31  14  32  14  33  14  34  14
M  ISO  2  35   3  36   3
M  END
>  <minimizedAffinity>  (1) 
-6.11796045

>  <minimizedRMSD>  (1) 
0.231088504

$$$$
