
     RDKit          3D

 38 41  0  0  1  0  0  0  0  0999 V2000
   48.1590   33.5100   42.6100 C   0  0  1  0  0  0  0  0  0  0  0  0
   46.6860   33.7250   42.3520 C   0  0  2  0  0  0  0  0  0  0  0  0
   46.4710   34.6690   41.3660 O   0  0  0  0  0  0  0  0  0  0  0  0
   46.8640   34.0820   40.1750 C   0  0  0  0  0  0  0  0  0  0  0  0
   48.3700   34.0280   40.1560 C   0  0  2  0  0  0  0  0  0  0  0  0
   48.9860   33.4330   41.3750 C   0  0  2  0  0  0  0  0  0  0  0  0
   44.5730   35.6940   44.8090 C   0  0  0  0  0  0  0  0  0  0  0  0
   45.1980   35.3180   43.6100 C   0  0  0  0  0  0  0  0  0  0  0  0
   46.0020   34.1440   43.5870 C   0  0  0  0  0  0  0  0  0  0  0  0
   46.1200   33.4460   44.7370 N   0  0  0  0  0  0  0  0  0  0  0  0
   45.5060   33.8300   45.8820 C   0  0  0  0  0  0  0  0  0  0  0  0
   44.7330   34.9530   45.9190 N   0  0  0  0  0  0  0  0  0  0  0  0
   48.6670   34.4160   43.5470 O   0  0  0  0  0  0  0  0  0  0  0  0
   48.7960   35.3480   39.9530 O   0  0  0  0  0  0  0  0  0  0  0  0
   49.4660   32.1230   41.1640 O   0  0  0  0  0  0  0  0  0  0  0  0
   51.9110   31.9360   40.4440 N   0  0  0  0  0  0  0  0  0  0  0  0
   50.5670   31.8400   40.3690 C   0  0  0  0  0  0  0  0  0  0  0  0
   50.2470   31.3110   39.1520 N   0  0  0  0  0  0  0  0  0  0  0  0
   51.3520   31.0700   38.4580 C   0  0  0  0  0  0  0  0  0  0  0  0
   51.7480   30.5690   37.2280 C   0  0  0  0  0  0  0  0  0  0  0  0
   53.0310   30.4710   36.8500 N   0  0  0  0  0  0  0  0  0  0  0  0
   54.0020   30.8790   37.7050 C   0  0  0  0  0  0  0  0  0  0  0  0
   53.6670   31.3770   38.9250 N   0  0  0  0  0  0  0  0  0  0  0  0
   52.3780   31.4680   39.2850 C   0  0  0  0  0  0  0  0  0  0  0  0
   48.2352   32.5086   43.0587 H   0  0  0  0  0  0  0  0  0  0  0  0
   46.2733   32.7652   42.0079 H   0  0  0  0  0  0  0  0  0  0  0  0
   46.4532   33.0638   40.1075 H   0  0  0  0  0  0  0  0  0  0  0  0
   46.4922   34.6664   39.3205 H   0  0  0  0  0  0  0  0  0  0  0  0
   48.6998   33.3518   39.3535 H   0  0  0  0  0  0  0  0  0  0  0  0
   49.8492   34.0880   41.5644 H   0  0  0  0  0  0  0  0  0  0  0  0
   43.9492   36.5995   44.8406 H   0  0  0  0  0  0  0  0  0  0  0  0
   45.0682   35.9226   42.7003 H   0  0  0  0  0  0  0  0  0  0  0  0
   45.6326   33.2280   46.7939 H   0  0  0  0  0  0  0  0  0  0  0  0
   48.4811   34.0844   44.4611 H   0  0  0  0  0  0  0  0  0  0  0  0
   48.9378   35.7874   40.8288 H   0  0  0  0  0  0  0  0  0  0  0  0
   52.4636   32.2969   41.2347 H   0  0  0  0  0  0  0  0  0  0  0  0
   50.9701   30.2346   36.5258 H   0  0  0  0  0  0  0  0  0  0  0  0
   55.0597   30.8070   37.4115 H   0  0  0  0  0  0  0  0  0  0  0  0
  1 13  1  0
  2  1  1  0
  2  9  1  0
  3  2  1  0
  4  3  1  0
  5  4  1  0
  5  6  1  0
  6  1  1  0
  7 12  2  0
  8  7  1  0
  9  8  2  0
  9 10  1  0
 10 11  2  0
 11 12  1  0
 14  5  1  0
 15  6  1  0
 17 16  1  0
 17 15  1  0
 18 17  2  0
 19 18  1  0
 19 24  2  0
 20 19  1  0
 21 20  2  0
 21 22  1  0
 22 23  2  0
 23 24  1  0
 24 16  1  0
  1 25  1  1
  2 26  1  6
  4 27  1  0
  4 28  1  0
  5 29  1  6
  6 30  1  1
  7 31  1  0
  8 32  1  0
 11 33  1  0
 13 34  1  0
 14 35  1  0
 16 36  1  0
 20 37  1  0
 22 38  1  0
M  ISO  8  25  13  26  13  27  13  28  13  29  13  30  13  31  14  32  14
M  ISO  6  33  14  34   3  35   3  36   9  37  14  38  14
M  END
>  <minimizedAffinity>  (1) 
-6.26507998

>  <minimizedRMSD>  (1) 
1.65477681

$$$$
