
     RDKit          3D

 43 45  0  0  1  0  0  0  0  0999 V2000
   48.0230   33.4260   42.5880 C   0  0  1  0  0  0  0  0  0  0  0  0
   46.5650   33.7180   42.3260 C   0  0  2  0  0  0  0  0  0  0  0  0
   46.3900   34.6220   41.2980 O   0  0  0  0  0  0  0  0  0  0  0  0
   46.7580   33.9770   40.1320 C   0  0  0  0  0  0  0  0  0  0  0  0
   48.2640   33.8390   40.1190 C   0  0  2  0  0  0  0  0  0  0  0  0
   48.8440   33.2520   41.3590 C   0  0  2  0  0  0  0  0  0  0  0  0
   44.5260   35.8390   44.6980 C   0  0  0  0  0  0  0  0  0  0  0  0
   45.1340   35.4140   43.5080 C   0  0  0  0  0  0  0  0  0  0  0  0
   45.8940   34.2100   43.5420 C   0  0  0  0  0  0  0  0  0  0  0  0
   46.0000   33.5300   44.7070 N   0  0  0  0  0  0  0  0  0  0  0  0
   45.3840   33.9890   45.8440 C   0  0  0  0  0  0  0  0  0  0  0  0
   44.6560   35.1320   45.8330 N   0  0  0  0  0  0  0  0  0  0  0  0
   48.5740   34.3450   43.4890 O   0  0  0  0  0  0  0  0  0  0  0  0
   48.7590   35.1360   39.8840 O   0  0  0  0  0  0  0  0  0  0  0  0
   49.2280   31.9050   41.2140 O   0  0  0  0  0  0  0  0  0  0  0  0
   51.4440   32.1510   40.6040 C   0  0  2  0  0  0  0  0  0  0  0  0
   50.4670   31.5770   41.6340 C   0  0  2  0  0  0  0  0  0  0  0  0
   50.6050   30.0570   41.4710 C   0  0  0  0  0  0  0  0  0  0  0  0
   51.8280   29.6900   40.9330 O   0  0  0  0  0  0  0  0  0  0  0  0
   51.7740   29.9870   39.5550 C   0  0  0  0  0  0  0  0  0  0  0  0
   51.1660   31.3330   39.3370 C   0  0  2  0  0  0  0  0  0  0  0  0
   52.7340   31.8540   41.0050 O   0  0  0  0  0  0  0  0  0  0  0  0
   51.6940   32.0130   38.2390 O   0  0  0  0  0  0  0  0  0  0  0  0
   48.0505   32.4367   43.0682 H   0  0  0  0  0  0  0  0  0  0  0  0
   46.1060   32.7657   42.0220 H   0  0  0  0  0  0  0  0  0  0  0  0
   46.2931   32.9807   40.0957 H   0  0  0  0  0  0  0  0  0  0  0  0
   46.4234   34.5551   39.2580 H   0  0  0  0  0  0  0  0  0  0  0  0
   48.5592   33.1228   39.3380 H   0  0  0  0  0  0  0  0  0  0  0  0
   49.7509   33.8565   41.5078 H   0  0  0  0  0  0  0  0  0  0  0  0
   43.9334   36.7657   44.7023 H   0  0  0  0  0  0  0  0  0  0  0  0
   45.0274   35.9920   42.5782 H   0  0  0  0  0  0  0  0  0  0  0  0
   45.4828   33.4197   46.7800 H   0  0  0  0  0  0  0  0  0  0  0  0
   48.3950   34.0464   44.4158 H   0  0  0  0  0  0  0  0  0  0  0  0
   48.9306   35.5855   40.7492 H   0  0  0  0  0  0  0  0  0  0  0  0
   51.3343   33.2375   40.4721 H   0  0  0  0  0  0  0  0  0  0  0  0
   50.6467   31.9277   42.6610 H   0  0  0  0  0  0  0  0  0  0  0  0
   50.4983   29.5851   42.4589 H   0  0  0  0  0  0  0  0  0  0  0  0
   49.8204   29.7227   40.7763 H   0  0  0  0  0  0  0  0  0  0  0  0
   52.7935   29.9784   39.1420 H   0  0  0  0  0  0  0  0  0  0  0  0
   51.1558   29.2299   39.0504 H   0  0  0  0  0  0  0  0  0  0  0  0
   50.0935   31.2008   39.1315 H   0  0  0  0  0  0  0  0  0  0  0  0
   52.7781   31.8439   41.9940 H   0  0  0  0  0  0  0  0  0  0  0  0
   52.2694   32.7540   38.5552 H   0  0  0  0  0  0  0  0  0  0  0  0
  1 13  1  0
  2  1  1  0
  2  9  1  0
  3  2  1  0
  4  3  1  0
  5  4  1  0
  5  6  1  0
  6  1  1  0
  7 12  2  0
  8  9  2  0
  8  7  1  0
  9 10  1  0
 10 11  2  0
 12 11  1  0
 14  5  1  0
 15  6  1  0
 16 22  1  0
 16 17  1  0
 17 15  1  0
 18 17  1  0
 19 18  1  0
 20 19  1  0
 21 23  1  0
 21 20  1  0
 21 16  1  0
  1 24  1  1
  2 25  1  6
  4 26  1  0
  4 27  1  0
  5 28  1  6
  6 29  1  1
  7 30  1  0
  8 31  1  0
 11 32  1  0
 13 33  1  0
 14 34  1  0
 16 35  1  6
 17 36  1  1
 18 37  1  0
 18 38  1  0
 20 39  1  0
 20 40  1  0
 21 41  1  6
 22 42  1  0
 23 43  1  0
M  ISO  8  24  13  25  13  26  13  27  13  28  13  29  13  30  14  31  14
M  ISO  8  32  14  33   3  34   3  35  13  36  13  37  13  38  13  39  13
M  ISO  4  40  13  41  13  42   3  43   3
M  END
>  <minimizedAffinity>  (1) 
-5.92040539

>  <minimizedRMSD>  (1) 
0.408478588

$$$$
