
     RDKit          3D

 37 39  0  0  1  0  0  0  0  0999 V2000
   48.2180   33.5540   42.5990 C   0  0  1  0  0  0  0  0  0  0  0  0
   46.7450   33.7350   42.3330 C   0  0  2  0  0  0  0  0  0  0  0  0
   46.4880   34.6720   41.3510 O   0  0  0  0  0  0  0  0  0  0  0  0
   46.9040   34.0980   40.1610 C   0  0  0  0  0  0  0  0  0  0  0  0
   48.3920   34.0770   40.1330 C   0  0  2  0  0  0  0  0  0  0  0  0
   49.0610   33.5010   41.3590 C   0  0  2  0  0  0  0  0  0  0  0  0
   44.5950   35.6330   44.8110 C   0  0  0  0  0  0  0  0  0  0  0  0
   45.2250   35.2930   43.5970 C   0  0  0  0  0  0  0  0  0  0  0  0
   46.0460   34.1340   43.5740 C   0  0  0  0  0  0  0  0  0  0  0  0
   46.1790   33.4200   44.7160 N   0  0  0  0  0  0  0  0  0  0  0  0
   45.5580   33.7760   45.8640 C   0  0  0  0  0  0  0  0  0  0  0  0
   44.7650   34.8830   45.9140 N   0  0  0  0  0  0  0  0  0  0  0  0
   48.7000   34.4870   43.5250 O   0  0  0  0  0  0  0  0  0  0  0  0
   48.7800   35.4210   39.9270 O   0  0  0  0  0  0  0  0  0  0  0  0
   49.5720   32.2510   41.1250 O   0  0  0  0  0  0  0  0  0  0  0  0
   48.8630   30.8750   38.3850 Cl  0  0  0  0  0  0  0  0  0  0  0  0
   50.4480   31.0220   39.0970 C   0  0  0  0  0  0  0  0  0  0  0  0
   50.4550   31.6760   40.3070 C   0  0  0  0  0  0  0  0  0  0  0  0
   51.7300   31.7990   40.8870 C   0  0  0  0  0  0  0  0  0  0  0  0
   52.8800   31.2910   40.2680 C   0  0  0  0  0  0  0  0  0  0  0  0
   52.7500   30.6570   39.0620 C   0  0  0  0  0  0  0  0  0  0  0  0
   54.1340   29.9930   38.2180 Cl  0  0  0  0  0  0  0  0  0  0  0  0
   51.5450   30.5090   38.4540 C   0  0  0  0  0  0  0  0  0  0  0  0
   48.3121   32.5563   43.0526 H   0  0  0  0  0  0  0  0  0  0  0  0
   46.3716   32.7639   41.9758 H   0  0  0  0  0  0  0  0  0  0  0  0
   46.5184   33.0701   40.0917 H   0  0  0  0  0  0  0  0  0  0  0  0
   46.5224   34.6823   39.3107 H   0  0  0  0  0  0  0  0  0  0  0  0
   48.7216   33.3964   39.3342 H   0  0  0  0  0  0  0  0  0  0  0  0
   49.9108   34.1673   41.5685 H   0  0  0  0  0  0  0  0  0  0  0  0
   43.9542   36.5259   44.8569 H   0  0  0  0  0  0  0  0  0  0  0  0
   45.0852   35.9065   42.6947 H   0  0  0  0  0  0  0  0  0  0  0  0
   45.6949   33.1644   46.7680 H   0  0  0  0  0  0  0  0  0  0  0  0
   48.5303   34.1584   44.4433 H   0  0  0  0  0  0  0  0  0  0  0  0
   48.9083   35.8653   40.8023 H   0  0  0  0  0  0  0  0  0  0  0  0
   51.8277   32.3097   41.8564 H   0  0  0  0  0  0  0  0  0  0  0  0
   53.8669   31.3995   40.7416 H   0  0  0  0  0  0  0  0  0  0  0  0
   51.4525   29.9980   37.4843 H   0  0  0  0  0  0  0  0  0  0  0  0
  1 13  1  0
  2  1  1  0
  2  9  1  0
  3  2  1  0
  4  3  1  0
  5  4  1  0
  5  6  1  0
  6  1  1  0
  7 12  2  0
  8  7  1  0
  9  8  2  0
  9 10  1  0
 10 11  2  0
 11 12  1  0
 14  5  1  0
 15  6  1  0
 16 17  1  0
 17 18  2  0
 18 19  1  0
 18 15  1  0
 20 19  2  0
 21 20  1  0
 22 21  1  0
 23 21  2  0
 23 17  1  0
  1 24  1  1
  2 25  1  6
  4 26  1  0
  4 27  1  0
  5 28  1  6
  6 29  1  1
  7 30  1  0
  8 31  1  0
 11 32  1  0
 13 33  1  0
 14 34  1  0
 19 35  1  0
 20 36  1  0
 23 37  1  0
M  ISO  8  24  13  25  13  26  13  27  13  28  13  29  13  30  14  31  14
M  ISO  6  32  14  33   3  34   3  35  14  36  14  37  14
M  END
>  <minimizedAffinity>  (1) 
-5.73666096

>  <minimizedRMSD>  (1) 
1.31730819

$$$$
