
     RDKit          3D

 36 38  0  0  1  0  0  0  0  0999 V2000
   48.1310   33.5310   42.5390 C   0  0  1  0  0  0  0  0  0  0  0  0
   46.6560   33.7380   42.2830 C   0  0  2  0  0  0  0  0  0  0  0  0
   46.4300   34.6620   41.2830 O   0  0  0  0  0  0  0  0  0  0  0  0
   46.8150   34.0540   40.0980 C   0  0  0  0  0  0  0  0  0  0  0  0
   48.3160   33.9930   40.0680 C   0  0  2  0  0  0  0  0  0  0  0  0
   48.9530   33.4180   41.3050 C   0  0  2  0  0  0  0  0  0  0  0  0
   44.5720   35.7410   44.7350 C   0  0  0  0  0  0  0  0  0  0  0  0
   45.1900   35.3530   43.5370 C   0  0  0  0  0  0  0  0  0  0  0  0
   45.9820   34.1690   43.5160 C   0  0  0  0  0  0  0  0  0  0  0  0
   46.0960   33.4740   44.6680 N   0  0  0  0  0  0  0  0  0  0  0  0
   45.4860   33.8750   45.8140 C   0  0  0  0  0  0  0  0  0  0  0  0
   44.7270   35.0030   45.8490 N   0  0  0  0  0  0  0  0  0  0  0  0
   48.6450   34.4640   43.4480 O   0  0  0  0  0  0  0  0  0  0  0  0
   48.7410   35.3070   39.8320 O   0  0  0  0  0  0  0  0  0  0  0  0
   49.4310   32.1200   41.0990 O   0  0  0  0  0  0  0  0  0  0  0  0
   50.5140   31.7700   40.3090 C   0  0  0  0  0  0  0  0  0  0  0  0
   51.7550   31.6910   40.9050 C   0  0  0  0  0  0  0  0  0  0  0  0
   52.9020   31.3520   40.2200 C   0  0  0  0  0  0  0  0  0  0  0  0
   52.8250   31.0730   38.8680 C   0  0  0  0  0  0  0  0  0  0  0  0
   51.5650   31.1580   38.2870 C   0  0  0  0  0  0  0  0  0  0  0  0
   50.4590   31.4910   38.9740 N   0  0  0  0  0  0  0  0  0  0  0  0
   48.2073   32.5423   43.0150 H   0  0  0  0  0  0  0  0  0  0  0  0
   46.2430   32.7738   41.9517 H   0  0  0  0  0  0  0  0  0  0  0  0
   46.3999   33.0365   40.0495 H   0  0  0  0  0  0  0  0  0  0  0  0
   46.4407   34.6277   39.2374 H   0  0  0  0  0  0  0  0  0  0  0  0
   48.6350   33.2948   39.2801 H   0  0  0  0  0  0  0  0  0  0  0  0
   49.8232   34.0633   41.4959 H   0  0  0  0  0  0  0  0  0  0  0  0
   43.9577   36.6531   44.7637 H   0  0  0  0  0  0  0  0  0  0  0  0
   45.0647   35.9554   42.6252 H   0  0  0  0  0  0  0  0  0  0  0  0
   45.6081   33.2770   46.7292 H   0  0  0  0  0  0  0  0  0  0  0  0
   48.4738   34.1532   44.3722 H   0  0  0  0  0  0  0  0  0  0  0  0
   48.8895   35.7661   40.6965 H   0  0  0  0  0  0  0  0  0  0  0  0
   51.8334   31.9093   41.9803 H   0  0  0  0  0  0  0  0  0  0  0  0
   53.8683   31.3039   40.7434 H   0  0  0  0  0  0  0  0  0  0  0  0
   53.7147   30.7980   38.2825 H   0  0  0  0  0  0  0  0  0  0  0  0
   51.4685   30.9422   37.2127 H   0  0  0  0  0  0  0  0  0  0  0  0
  1 13  1  0
  2  1  1  0
  2  9  1  0
  3  2  1  0
  4  3  1  0
  5  4  1  0
  5  6  1  0
  6  1  1  0
  7 12  2  0
  8  7  1  0
  9  8  2  0
  9 10  1  0
 10 11  2  0
 11 12  1  0
 14  5  1  0
 15  6  1  0
 16 17  2  0
 16 15  1  0
 18 17  1  0
 19 18  2  0
 20 19  1  0
 20 21  2  0
 21 16  1  0
  1 22  1  1
  2 23  1  6
  4 24  1  0
  4 25  1  0
  5 26  1  6
  6 27  1  1
  7 28  1  0
  8 29  1  0
 11 30  1  0
 13 31  1  0
 14 32  1  0
 17 33  1  0
 18 34  1  0
 19 35  1  0
 20 36  1  0
M  ISO  8  22  13  23  13  24  13  25  13  26  13  27  13  28  14  29  14
M  ISO  7  30  14  31   3  32   3  33  14  34  14  35  14  36  14
M  END
>  <minimizedAffinity>  (1) 
-5.71511793

>  <minimizedRMSD>  (1) 
1.11263978

$$$$
