
     RDKit          3D

 33 34  0  0  1  0  0  0  0  0999 V2000
   48.1790   33.5630   42.5850 C   0  0  1  0  0  0  0  0  0  0  0  0
   46.7050   33.7380   42.3090 C   0  0  2  0  0  0  0  0  0  0  0  0
   46.4780   34.6330   41.2840 O   0  0  0  0  0  0  0  0  0  0  0  0
   46.8940   34.0060   40.1200 C   0  0  0  0  0  0  0  0  0  0  0  0
   48.4050   33.9860   40.1130 C   0  0  2  0  0  0  0  0  0  0  0  0
   49.0200   33.4470   41.3600 C   0  0  2  0  0  0  0  0  0  0  0  0
   44.5740   35.7730   44.6890 C   0  0  0  0  0  0  0  0  0  0  0  0
   45.2140   35.3710   43.5060 C   0  0  0  0  0  0  0  0  0  0  0  0
   46.0050   34.1880   43.5220 C   0  0  0  0  0  0  0  0  0  0  0  0
   46.0970   33.5080   44.6850 N   0  0  0  0  0  0  0  0  0  0  0  0
   45.4650   33.9220   45.8130 C   0  0  0  0  0  0  0  0  0  0  0  0
   44.7030   35.0520   45.8190 N   0  0  0  0  0  0  0  0  0  0  0  0
   48.6670   34.5120   43.4890 O   0  0  0  0  0  0  0  0  0  0  0  0
   48.8030   35.3080   39.8650 O   0  0  0  0  0  0  0  0  0  0  0  0
   49.5250   32.1410   41.2030 O   0  0  0  0  0  0  0  0  0  0  0  0
   50.8220   32.0630   41.7440 C   0  0  0  0  0  0  0  0  0  0  0  0
   51.8480   31.6900   40.6930 C   0  0  0  0  0  0  0  0  0  0  0  0
   48.2654   32.5822   43.0754 H   0  0  0  0  0  0  0  0  0  0  0  0
   46.3125   32.7579   42.0000 H   0  0  0  0  0  0  0  0  0  0  0  0
   46.5072   32.9766   40.0920 H   0  0  0  0  0  0  0  0  0  0  0  0
   46.5155   34.5460   39.2396 H   0  0  0  0  0  0  0  0  0  0  0  0
   48.7599   33.2917   39.3371 H   0  0  0  0  0  0  0  0  0  0  0  0
   49.8729   34.1197   41.5335 H   0  0  0  0  0  0  0  0  0  0  0  0
   43.9609   36.6863   44.6930 H   0  0  0  0  0  0  0  0  0  0  0  0
   45.1060   35.9598   42.5832 H   0  0  0  0  0  0  0  0  0  0  0  0
   45.5697   33.3355   46.7377 H   0  0  0  0  0  0  0  0  0  0  0  0
   48.5062   34.1994   44.4145 H   0  0  0  0  0  0  0  0  0  0  0  0
   48.9442   35.7770   40.7253 H   0  0  0  0  0  0  0  0  0  0  0  0
   51.0891   33.0408   42.1713 H   0  0  0  0  0  0  0  0  0  0  0  0
   50.8238   31.2803   42.5169 H   0  0  0  0  0  0  0  0  0  0  0  0
   52.7722   31.3540   41.1858 H   0  0  0  0  0  0  0  0  0  0  0  0
   51.4514   30.8785   40.0651 H   0  0  0  0  0  0  0  0  0  0  0  0
   52.0651   32.5667   40.0651 H   0  0  0  0  0  0  0  0  0  0  0  0
  1 13  1  0
  2  1  1  0
  2  9  1  0
  3  2  1  0
  4  3  1  0
  5  4  1  0
  5  6  1  0
  6  1  1  0
  7 12  2  0
  8  9  2  0
  8  7  1  0
  9 10  1  0
 10 11  2  0
 11 12  1  0
 14  5  1  0
 15  6  1  0
 15 16  1  0
 17 16  1  0
  1 18  1  1
  2 19  1  6
  4 20  1  0
  4 21  1  0
  5 22  1  6
  6 23  1  1
  7 24  1  0
  8 25  1  0
 11 26  1  0
 13 27  1  0
 14 28  1  0
 16 29  1  0
 16 30  1  0
 17 31  1  0
 17 32  1  0
 17 33  1  0
M  ISO  8  18  13  19  13  20  13  21  13  22  13  23  13  24  14  25  14
M  ISO  8  26  14  27   3  28   3  29   8  30   8  31   8  32   8  33   8
M  END
>  <minimizedAffinity>  (1) 
-5.02864599

>  <minimizedRMSD>  (1) 
0.273513228

$$$$
