
     RDKit          3D

 29 30  0  0  1  0  0  0  0  0999 V2000
   48.1050   33.5090   42.5300 C   0  0  1  0  0  0  0  0  0  0  0  0
   46.6380   33.7410   42.2570 C   0  0  2  0  0  0  0  0  0  0  0  0
   46.4420   34.6550   41.2390 O   0  0  0  0  0  0  0  0  0  0  0  0
   46.8350   34.0260   40.0680 C   0  0  0  0  0  0  0  0  0  0  0  0
   48.3290   33.9330   40.0630 C   0  0  2  0  0  0  0  0  0  0  0  0
   48.9410   33.3770   41.3030 C   0  0  2  0  0  0  0  0  0  0  0  0
   44.5540   35.8250   44.6390 C   0  0  0  0  0  0  0  0  0  0  0  0
   45.1800   35.4050   43.4560 C   0  0  0  0  0  0  0  0  0  0  0  0
   45.9550   34.2100   43.4730 C   0  0  0  0  0  0  0  0  0  0  0  0
   46.0460   33.5380   44.6390 N   0  0  0  0  0  0  0  0  0  0  0  0
   45.4280   33.9710   45.7700 C   0  0  0  0  0  0  0  0  0  0  0  0
   44.6880   35.1040   45.7700 N   0  0  0  0  0  0  0  0  0  0  0  0
   48.6250   34.4400   43.4390 O   0  0  0  0  0  0  0  0  0  0  0  0
   48.7910   35.2460   39.8190 O   0  0  0  0  0  0  0  0  0  0  0  0
   49.3910   32.0570   41.1200 O   0  0  0  0  0  0  0  0  0  0  0  0
   50.5880   31.6880   40.5570 C   0  0  0  0  0  0  0  0  0  0  0  0
   51.6100   32.1720   41.1550 O   0  0  0  0  0  0  0  0  0  0  0  0
   48.1585   32.5212   43.0110 H   0  0  0  0  0  0  0  0  0  0  0  0
   46.2118   32.7773   41.9414 H   0  0  0  0  0  0  0  0  0  0  0  0
   46.3994   33.0169   40.0235 H   0  0  0  0  0  0  0  0  0  0  0  0
   46.4880   34.5987   39.1953 H   0  0  0  0  0  0  0  0  0  0  0  0
   48.6329   33.2118   39.2900 H   0  0  0  0  0  0  0  0  0  0  0  0
   49.8158   34.0172   41.4895 H   0  0  0  0  0  0  0  0  0  0  0  0
   43.9519   36.7456   44.6437 H   0  0  0  0  0  0  0  0  0  0  0  0
   45.0741   35.9892   42.5300 H   0  0  0  0  0  0  0  0  0  0  0  0
   45.5311   33.3915   46.6993 H   0  0  0  0  0  0  0  0  0  0  0  0
   48.4522   34.1306   44.3634 H   0  0  0  0  0  0  0  0  0  0  0  0
   48.9524   35.7046   40.6814 H   0  0  0  0  0  0  0  0  0  0  0  0
   50.6612   31.0366   39.6737 H   0  0  0  0  0  0  0  0  0  0  0  0
  1 13  1  0
  2  1  1  0
  2  9  1  0
  3  2  1  0
  4  3  1  0
  5  4  1  0
  5  6  1  0
  6  1  1  0
  7 12  2  0
  8  9  2  0
  8  7  1  0
  9 10  1  0
 10 11  2  0
 11 12  1  0
 14  5  1  0
 15  6  1  0
 16 15  1  0
 16 17  2  0
  1 18  1  1
  2 19  1  6
  4 20  1  0
  4 21  1  0
  5 22  1  6
  6 23  1  1
  7 24  1  0
  8 25  1  0
 11 26  1  0
 13 27  1  0
 14 28  1  0
 16 29  1  0
M  ISO  8  18  13  19  13  20  13  21  13  22  13  23  13  24  14  25  14
M  ISO  4  26  14  27   3  28   3  29   6
M  END
>  <minimizedAffinity>  (1) 
-5.014606

>  <minimizedRMSD>  (1) 
0.493638754

$$$$
