
     RDKit          3D

 47 52  0  0  1  0  0  0  0  0999 V2000
   50.1440   32.1450   41.6930 C   0  0  1  0  0  0  0  0  0  0  0  0
   49.2520   31.8660   40.5160 C   0  0  0  0  0  0  0  0  0  0  0  0
   48.7290   31.9050   41.9770 C   0  0  2  0  0  0  0  0  0  0  0  0
   51.9850   29.6110   43.6750 C   0  0  0  0  0  0  0  0  0  0  0  0
   53.0350   29.2380   42.7620 C   0  0  0  0  0  0  0  0  0  0  0  0
   53.0720   29.8750   41.4840 C   0  0  0  0  0  0  0  0  0  0  0  0
   52.1430   30.7840   41.1860 N   0  0  0  0  0  0  0  0  0  0  0  0
   51.1670   31.1050   42.0840 C   0  0  0  0  0  0  0  0  0  0  0  0
   51.0750   30.5280   43.3300 N   0  0  0  0  0  0  0  0  0  0  0  0
   54.1110   29.5010   40.5880 N   0  0  0  0  0  0  0  0  0  0  0  0
   54.9310   28.4780   40.9390 C   0  0  0  0  0  0  0  0  0  0  0  0
   55.8330   28.3070   39.9380 N   0  0  0  0  0  0  0  0  0  0  0  0
   55.5980   29.1950   38.9740 C   0  0  0  0  0  0  0  0  0  0  0  0
   56.1060   29.5580   37.7420 C   0  0  0  0  0  0  0  0  0  0  0  0
   55.5900   30.5640   36.9910 N   0  0  0  0  0  0  0  0  0  0  0  0
   54.5180   31.2480   37.4840 C   0  0  0  0  0  0  0  0  0  0  0  0
   53.9360   30.9760   38.6860 N   0  0  0  0  0  0  0  0  0  0  0  0
   54.5040   29.9520   39.3870 C   0  0  0  0  0  0  0  0  0  0  0  0
   47.8960   33.0130   42.3310 N   0  0  0  0  0  0  0  0  0  0  0  0
   47.1840   33.0570   43.5390 C   0  0  0  0  0  0  0  0  0  0  0  0
   47.4290   32.1090   44.4980 C   0  0  0  0  0  0  0  0  0  0  0  0
   46.8200   32.1290   45.7480 C   0  0  0  0  0  0  0  0  0  0  0  0
   45.9280   33.1220   46.0810 C   0  0  0  0  0  0  0  0  0  0  0  0
   45.6650   34.0850   45.1320 C   0  0  0  0  0  0  0  0  0  0  0  0
   44.7790   35.1000   45.4450 C   0  0  0  0  0  0  0  0  0  0  0  0
   44.4770   36.0870   44.5610 C   0  0  0  0  0  0  0  0  0  0  0  0
   45.1000   36.0310   43.3180 C   0  0  0  0  0  0  0  0  0  0  0  0
   45.9730   35.0220   43.0240 C   0  0  0  0  0  0  0  0  0  0  0  0
   46.2850   34.0330   43.9030 C   0  0  0  0  0  0  0  0  0  0  0  0
   46.5510   35.0110   41.7760 O   0  0  0  0  0  0  0  0  0  0  0  0
   50.8368   32.9593   41.9519 H   0  0  0  0  0  0  0  0  0  0  0  0
   48.9935   32.6686   39.8096 H   0  0  0  0  0  0  0  0  0  0  0  0
   49.2354   31.1445   39.6858 H   0  0  0  0  0  0  0  0  0  0  0  0
   48.1867   31.2188   42.6441 H   0  0  0  0  0  0  0  0  0  0  0  0
   51.9313   29.1367   44.6660 H   0  0  0  0  0  0  0  0  0  0  0  0
   53.7864   28.4846   43.0409 H   0  0  0  0  0  0  0  0  0  0  0  0
   54.8751   27.8920   41.8682 H   0  0  0  0  0  0  0  0  0  0  0  0
   56.9718   29.0043   37.3499 H   0  0  0  0  0  0  0  0  0  0  0  0
   54.0997   32.0649   36.8776 H   0  0  0  0  0  0  0  0  0  0  0  0
   47.8164   33.8048   41.6771 H   0  0  0  0  0  0  0  0  0  0  0  0
   48.1368   31.2986   44.2694 H   0  0  0  0  0  0  0  0  0  0  0  0
   47.0543   31.3414   46.4793 H   0  0  0  0  0  0  0  0  0  0  0  0
   45.4430   33.1460   47.0680 H   0  0  0  0  0  0  0  0  0  0  0  0
   44.3053   35.1085   46.4378 H   0  0  0  0  0  0  0  0  0  0  0  0
   43.7729   36.8927   44.8162 H   0  0  0  0  0  0  0  0  0  0  0  0
   44.8879   36.8053   42.5661 H   0  0  0  0  0  0  0  0  0  0  0  0
   47.1879   34.2935   41.5318 H   0  0  0  0  0  0  0  0  0  0  0  0
  1  3  1  0
  1  8  1  0
  2  1  1  0
  2  3  1  0
  3 19  1  0
  5  4  2  0
  6  5  1  0
  7  6  2  0
  7  8  1  0
  8  9  2  0
  9  4  1  0
 10 11  1  0
 10  6  1  0
 12 11  2  0
 13 18  2  0
 13 12  1  0
 14 13  1  0
 15 16  1  0
 15 14  2  0
 16 17  2  0
 17 18  1  0
 18 10  1  0
 19 20  1  0
 20 29  1  0
 20 21  2  0
 21 22  1  0
 22 23  2  0
 24 25  2  0
 24 23  1  0
 26 25  1  0
 27 26  2  0
 28 27  1  0
 28 29  2  0
 29 24  1  0
 30 28  1  0
  1 31  1  6
  2 32  1  0
  2 33  1  0
  3 34  1  1
  4 35  1  0
  5 36  1  0
 11 37  1  0
 14 38  1  0
 16 39  1  0
 19 40  1  0
 21 41  1  0
 22 42  1  0
 23 43  1  0
 25 44  1  0
 26 45  1  0
 27 46  1  0
 30 47  1  0
M  ISO  8  31  13  32  13  33  13  34  13  35  14  36  14  37  14  38  14
M  ISO  8  39  14  41  14  42  14  43  14  44  14  45  14  46  14  47   3
M  END
>  <minimizedAffinity>  (1) 
-5.94155979

>  <minimizedRMSD>  (1) 
4.16753197

$$$$
