
     RDKit          3D

 55 58  0  0  1  0  0  0  0  0999 V2000
   47.9270   33.3790   42.4990 C   0  0  1  0  0  0  0  0  0  0  0  0
   46.4620   33.7080   42.2280 C   0  0  2  0  0  0  0  0  0  0  0  0
   46.3140   34.5820   41.1910 O   0  0  0  0  0  0  0  0  0  0  0  0
   46.6530   33.9230   40.0410 C   0  0  0  0  0  0  0  0  0  0  0  0
   48.1370   33.7110   40.0190 C   0  0  2  0  0  0  0  0  0  0  0  0
   48.7360   33.1550   41.2940 C   0  0  2  0  0  0  0  0  0  0  0  0
   44.5500   35.9820   44.5800 C   0  0  0  0  0  0  0  0  0  0  0  0
   45.1310   35.4950   43.4050 C   0  0  0  0  0  0  0  0  0  0  0  0
   45.8290   34.2430   43.4440 C   0  0  0  0  0  0  0  0  0  0  0  0
   45.9030   33.5790   44.6110 N   0  0  0  0  0  0  0  0  0  0  0  0
   45.3170   34.0930   45.7430 C   0  0  0  0  0  0  0  0  0  0  0  0
   44.6480   35.2830   45.7230 N   0  0  0  0  0  0  0  0  0  0  0  0
   48.5090   34.2830   43.3740 O   0  0  0  0  0  0  0  0  0  0  0  0
   48.6850   34.9700   39.7320 O   0  0  0  0  0  0  0  0  0  0  0  0
   49.0820   31.8140   41.0730 O   0  0  0  0  0  0  0  0  0  0  0  0
   51.3230   32.4130   41.4750 N   0  0  0  0  0  0  0  0  0  0  0  0
   51.2440   31.7420   42.7810 C   0  0  0  0  0  0  0  0  0  0  0  0
   51.6750   30.3580   42.3380 C   0  0  0  0  0  0  0  0  0  0  0  0
   50.8050   30.1790   41.1240 C   0  0  0  0  0  0  0  0  0  0  0  0
   50.3890   31.6180   40.7260 C   0  0  1  0  0  0  0  0  0  0  0  0
   50.7830   31.6770   39.2890 C   0  0  0  0  0  0  0  0  0  0  0  0
   52.2780   31.3270   39.1930 C   0  0  0  0  0  0  0  0  0  0  0  0
   52.6920   31.7060   37.7770 C   0  0  0  0  0  0  0  0  0  0  0  0
   51.9230   30.8560   36.7870 C   0  0  0  0  0  0  0  0  0  0  0  0
   51.0690   29.8790   37.5330 C   0  0  0  0  0  0  0  0  0  0  0  0
   50.1000   30.6290   38.4120 C   0  0  0  0  0  0  0  0  0  0  0  0
   47.9126   32.4004   43.0011 H   0  0  0  0  0  0  0  0  0  0  0  0
   45.9617   32.7721   41.9386 H   0  0  0  0  0  0  0  0  0  0  0  0
   46.1410   32.9500   40.0090 H   0  0  0  0  0  0  0  0  0  0  0  0
   46.3499   34.5195   39.1679 H   0  0  0  0  0  0  0  0  0  0  0  0
   48.3708   32.9397   39.2704 H   0  0  0  0  0  0  0  0  0  0  0  0
   49.6480   33.7240   41.5273 H   0  0  0  0  0  0  0  0  0  0  0  0
   44.0109   36.9407   44.5683 H   0  0  0  0  0  0  0  0  0  0  0  0
   45.0539   36.0630   42.4662 H   0  0  0  0  0  0  0  0  0  0  0  0
   45.3887   33.5327   46.6869 H   0  0  0  0  0  0  0  0  0  0  0  0
   48.3286   34.0028   44.3062 H   0  0  0  0  0  0  0  0  0  0  0  0
   48.8901   35.4413   40.5781 H   0  0  0  0  0  0  0  0  0  0  0  0
   51.0260   33.3975   41.5330 H   0  0  0  0  0  0  0  0  0  0  0  0
   51.9369   32.1783   43.5155 H   0  0  0  0  0  0  0  0  0  0  0  0
   50.2734   31.8023   43.2951 H   0  0  0  0  0  0  0  0  0  0  0  0
   52.7439   30.3281   42.0802 H   0  0  0  0  0  0  0  0  0  0  0  0
   51.5637   29.5752   43.1027 H   0  0  0  0  0  0  0  0  0  0  0  0
   51.3678   29.6983   40.3103 H   0  0  0  0  0  0  0  0  0  0  0  0
   49.9368   29.5339   41.3242 H   0  0  0  0  0  0  0  0  0  0  0  0
   50.5077   32.6843   38.9432 H   0  0  0  0  0  0  0  0  0  0  0  0
   52.8563   31.9032   39.9303 H   0  0  0  0  0  0  0  0  0  0  0  0
   52.4634   30.2632   39.4025 H   0  0  0  0  0  0  0  0  0  0  0  0
   52.4685   32.7685   37.6007 H   0  0  0  0  0  0  0  0  0  0  0  0
   53.7711   31.5348   37.6500 H   0  0  0  0  0  0  0  0  0  0  0  0
   52.6296   30.3106   36.1442 H   0  0  0  0  0  0  0  0  0  0  0  0
   51.2865   31.5011   36.1635 H   0  0  0  0  0  0  0  0  0  0  0  0
   50.5102   29.2586   36.8169 H   0  0  0  0  0  0  0  0  0  0  0  0
   51.7068   29.2346   38.1559 H   0  0  0  0  0  0  0  0  0  0  0  0
   49.3628   31.1342   37.7707 H   0  0  0  0  0  0  0  0  0  0  0  0
   49.6256   29.8962   39.0813 H   0  0  0  0  0  0  0  0  0  0  0  0
  1 13  1  0
  2  1  1  0
  2  9  1  0
  3  2  1  0
  4  3  1  0
  5  4  1  0
  5  6  1  0
  6  1  1  0
  7 12  2  0
  8  9  2  0
  8  7  1  0
  9 10  1  0
 10 11  2  0
 12 11  1  0
 14  5  1  0
 15  6  1  0
 16 17  1  0
 18 17  1  0
 19 18  1  0
 20 15  1  6
 20 19  1  0
 20 16  1  0
 21 20  1  0
 22 21  1  0
 23 22  1  0
 24 25  1  0
 24 23  1  0
 25 26  1  0
 26 21  1  0
  1 27  1  1
  2 28  1  6
  4 29  1  0
  4 30  1  0
  5 31  1  6
  6 32  1  1
  7 33  1  0
  8 34  1  0
 11 35  1  0
 13 36  1  0
 14 37  1  0
 16 38  1  0
 17 39  1  0
 17 40  1  0
 18 41  1  0
 18 42  1  0
 19 43  1  0
 19 44  1  0
 21 45  1  0
 22 46  1  0
 22 47  1  0
 23 48  1  0
 23 49  1  0
 24 50  1  0
 24 51  1  0
 25 52  1  0
 25 53  1  0
 26 54  1  0
 26 55  1  0
M  ISO  8  27  13  28  13  29  13  30  13  31  13  32  13  33  14  34  14
M  ISO  8  35  14  36   3  37   3  38   5  39  13  40  13  41  13  42  13
M  ISO  8  43  13  44  13  45  13  46  13  47  13  48  13  49  13  50  13
M  ISO  5  51  13  52  13  53  13  54  13  55  13
M  END
>  <minimizedAffinity>  (1) 
-5.8767786

>  <minimizedRMSD>  (1) 
1.13097155

$$$$
