
     RDKit          3D

 40 42  0  0  1  0  0  0  0  0999 V2000
   48.0030   33.3700   42.4860 C   0  0  1  0  0  0  0  0  0  0  0  0
   46.5250   33.6570   42.2260 C   0  0  2  0  0  0  0  0  0  0  0  0
   46.3510   34.5520   41.2100 O   0  0  0  0  0  0  0  0  0  0  0  0
   46.7130   33.9400   40.0410 C   0  0  0  0  0  0  0  0  0  0  0  0
   48.1990   33.7680   40.0150 C   0  0  2  0  0  0  0  0  0  0  0  0
   48.8110   33.1930   41.2800 C   0  0  2  0  0  0  0  0  0  0  0  0
   44.5420   35.8230   44.6280 C   0  0  0  0  0  0  0  0  0  0  0  0
   45.1270   35.3660   43.4320 C   0  0  0  0  0  0  0  0  0  0  0  0
   45.8880   34.1510   43.4590 C   0  0  0  0  0  0  0  0  0  0  0  0
   46.0140   33.4970   44.6250 N   0  0  0  0  0  0  0  0  0  0  0  0
   45.4340   33.9700   45.7650 C   0  0  0  0  0  0  0  0  0  0  0  0
   44.7010   35.1230   45.7760 N   0  0  0  0  0  0  0  0  0  0  0  0
   48.5630   34.2770   43.3780 O   0  0  0  0  0  0  0  0  0  0  0  0
   48.7130   35.0440   39.7510 O   0  0  0  0  0  0  0  0  0  0  0  0
   49.1760   31.8460   41.0250 O   0  0  0  0  0  0  0  0  0  0  0  0
   51.4090   32.2730   41.7320 N   0  0  0  0  0  0  0  0  0  0  0  0
   51.1930   31.2740   42.8130 C   0  0  0  0  0  0  0  0  0  0  0  0
   51.6360   30.0310   42.0660 C   0  0  0  0  0  0  0  0  0  0  0  0
   50.9470   30.2420   40.7330 C   0  0  0  0  0  0  0  0  0  0  0  0
   50.5370   31.7490   40.7500 C   0  0  1  0  0  0  0  0  0  0  0  0
   50.8630   32.2380   39.4740 O   0  0  0  0  0  0  0  0  0  0  0  0
   48.0194   32.3826   42.9706 H   0  0  0  0  0  0  0  0  0  0  0  0
   46.0472   32.7153   41.9177 H   0  0  0  0  0  0  0  0  0  0  0  0
   46.2275   32.9551   39.9757 H   0  0  0  0  0  0  0  0  0  0  0  0
   46.3977   34.5580   39.1874 H   0  0  0  0  0  0  0  0  0  0  0  0
   48.4568   33.0205   39.2503 H   0  0  0  0  0  0  0  0  0  0  0  0
   49.7129   33.7739   41.5231 H   0  0  0  0  0  0  0  0  0  0  0  0
   43.9535   36.7523   44.6299 H   0  0  0  0  0  0  0  0  0  0  0  0
   45.0029   35.9296   42.4955 H   0  0  0  0  0  0  0  0  0  0  0  0
   45.5598   33.4075   46.7019 H   0  0  0  0  0  0  0  0  0  0  0  0
   48.3813   33.9827   44.3056 H   0  0  0  0  0  0  0  0  0  0  0  0
   48.8998   35.5078   40.6055 H   0  0  0  0  0  0  0  0  0  0  0  0
   51.1325   33.2211   42.0245 H   0  0  0  0  0  0  0  0  0  0  0  0
   51.8216   31.4741   43.6933 H   0  0  0  0  0  0  0  0  0  0  0  0
   50.1776   31.2401   43.2348 H   0  0  0  0  0  0  0  0  0  0  0  0
   52.7298   29.9933   41.9552 H   0  0  0  0  0  0  0  0  0  0  0  0
   51.3826   29.0843   42.5655 H   0  0  0  0  0  0  0  0  0  0  0  0
   50.0602   29.5971   40.6455 H   0  0  0  0  0  0  0  0  0  0  0  0
   51.5933   29.9901   39.8793 H   0  0  0  0  0  0  0  0  0  0  0  0
   51.4098   33.0583   39.5647 H   0  0  0  0  0  0  0  0  0  0  0  0
  1 13  1  0
  2  1  1  0
  2  9  1  0
  3  2  1  0
  4  3  1  0
  5  4  1  0
  5  6  1  0
  6  1  1  0
  7 12  2  0
  8  9  2  0
  8  7  1  0
  9 10  1  0
 10 11  2  0
 11 12  1  0
 14  5  1  0
 15  6  1  0
 16 17  1  0
 18 17  1  0
 19 20  1  0
 19 18  1  0
 20 21  1  6
 20 15  1  0
 20 16  1  0
  1 22  1  1
  2 23  1  6
  4 24  1  0
  4 25  1  0
  5 26  1  6
  6 27  1  1
  7 28  1  0
  8 29  1  0
 11 30  1  0
 13 31  1  0
 14 32  1  0
 16 33  1  0
 17 34  1  0
 17 35  1  0
 18 36  1  0
 18 37  1  0
 19 38  1  0
 19 39  1  0
 21 40  1  0
M  ISO  8  22  13  23  13  24  13  25  13  26  13  27  13  28  14  29  14
M  ISO  8  30  14  31   3  32   3  33   5  34  13  35  13  36  13  37  13
M  ISO  3  38  13  39  13  40   3
M  END
>  <minimizedAffinity>  (1) 
-5.71378088

>  <minimizedRMSD>  (1) 
0.335736573

$$$$
