
     RDKit          3D

 49 52  0  0  1  0  0  0  0  0999 V2000
   44.8650   33.1080   40.2740 C   0  0  1  0  0  0  0  0  0  0  0  0
   46.0880   32.6710   41.0770 C   0  0  2  0  0  0  0  0  0  0  0  0
   45.7650   32.3690   42.3690 O   0  0  0  0  0  0  0  0  0  0  0  0
   45.0410   31.2100   42.3530 C   0  0  0  0  0  0  0  0  0  0  0  0
   43.6800   31.4910   41.7840 C   0  0  2  0  0  0  0  0  0  0  0  0
   43.6690   32.2900   40.4990 C   0  0  2  0  0  0  0  0  0  0  0  0
   48.5710   35.3040   42.1990 C   0  0  0  0  0  0  0  0  0  0  0  0
   47.6000   34.2980   42.2700 C   0  0  0  0  0  0  0  0  0  0  0  0
   47.1160   33.7210   41.0470 C   0  0  0  0  0  0  0  0  0  0  0  0
   47.6120   34.1700   39.8740 N   0  0  0  0  0  0  0  0  0  0  0  0
   48.5640   35.1610   39.8550 C   0  0  0  0  0  0  0  0  0  0  0  0
   49.0370   35.7200   41.0020 N   0  0  0  0  0  0  0  0  0  0  0  0
   44.6280   34.4700   40.3850 O   0  0  0  0  0  0  0  0  0  0  0  0
   42.9860   32.1780   42.7960 O   0  0  0  0  0  0  0  0  0  0  0  0
   43.3450   31.4380   39.4240 O   0  0  0  0  0  0  0  0  0  0  0  0
   42.9580   32.3930   37.2890 N   0  0  0  0  0  0  0  0  0  0  0  0
   43.2060   31.0780   36.7000 C   0  0  0  0  0  0  0  0  0  0  0  0
   41.7990   30.5340   36.7370 C   0  0  0  0  0  0  0  0  0  0  0  0
   41.3770   30.9380   38.1380 C   0  0  0  0  0  0  0  0  0  0  0  0
   42.4230   32.0120   38.5670 C   0  0  1  0  0  0  0  0  0  0  0  0
   40.5450   31.8740   40.7880 F   0  0  0  0  0  0  0  0  0  0  0  0
   40.6690   33.1110   40.1960 C   0  0  0  0  0  0  0  0  0  0  0  0
   41.5520   33.0690   39.1440 C   0  0  0  0  0  0  0  0  0  0  0  0
   41.6730   34.3120   38.5010 C   0  0  0  0  0  0  0  0  0  0  0  0
   41.0080   35.4670   38.8470 C   0  0  0  0  0  0  0  0  0  0  0  0
   40.1390   35.4300   39.9160 C   0  0  0  0  0  0  0  0  0  0  0  0
   39.9920   34.2390   40.5680 C   0  0  0  0  0  0  0  0  0  0  0  0
   45.1221   32.9168   39.2217 H   0  0  0  0  0  0  0  0  0  0  0  0
   46.4840   31.7579   40.6086 H   0  0  0  0  0  0  0  0  0  0  0  0
   45.5543   30.4632   41.7295 H   0  0  0  0  0  0  0  0  0  0  0  0
   44.9423   30.8196   43.3766 H   0  0  0  0  0  0  0  0  0  0  0  0
   43.2135   30.5370   41.4972 H   0  0  0  0  0  0  0  0  0  0  0  0
   42.8816   33.0530   40.5879 H   0  0  0  0  0  0  0  0  0  0  0  0
   48.9565   35.7581   43.1237 H   0  0  0  0  0  0  0  0  0  0  0  0
   47.2156   33.9565   43.2424 H   0  0  0  0  0  0  0  0  0  0  0  0
   48.9536   35.5113   38.8878 H   0  0  0  0  0  0  0  0  0  0  0  0
   44.5844   34.7205   41.3418 H   0  0  0  0  0  0  0  0  0  0  0  0
   43.3005   31.8667   43.6816 H   0  0  0  0  0  0  0  0  0  0  0  0
   42.2766   32.9340   36.7377 H   0  0  0  0  0  0  0  0  0  0  0  0
   43.8969   30.4768   37.3093 H   0  0  0  0  0  0  0  0  0  0  0  0
   43.6844   31.0858   35.7095 H   0  0  0  0  0  0  0  0  0  0  0  0
   41.1632   31.0025   35.9714 H   0  0  0  0  0  0  0  0  0  0  0  0
   41.7208   29.4565   36.5298 H   0  0  0  0  0  0  0  0  0  0  0  0
   40.3629   31.3641   38.1308 H   0  0  0  0  0  0  0  0  0  0  0  0
   41.3486   30.0826   38.8291 H   0  0  0  0  0  0  0  0  0  0  0  0
   42.3607   34.3677   37.6442 H   0  0  0  0  0  0  0  0  0  0  0  0
   41.1667   36.3980   38.2830 H   0  0  0  0  0  0  0  0  0  0  0  0
   39.5847   36.3260   40.2322 H   0  0  0  0  0  0  0  0  0  0  0  0
   39.3034   34.1853   41.4241 H   0  0  0  0  0  0  0  0  0  0  0  0
  1 13  1  0
  1  6  1  0
  1  2  1  0
  2  3  1  0
  4  3  1  0
  5  4  1  0
  5 14  1  0
  6  5  1  0
  7  8  2  0
  9  2  1  0
  9  8  1  0
 10  9  2  0
 11 10  1  0
 11 12  2  0
 12  7  1  0
 15  6  1  0
 16 20  1  0
 17 18  1  0
 17 16  1  0
 18 19  1  0
 19 20  1  0
 20 23  1  0
 20 15  1  1
 22 27  2  0
 22 21  1  0
 23 22  1  0
 24 25  1  0
 24 23  2  0
 25 26  2  0
 26 27  1  0
  1 28  1  6
  2 29  1  6
  4 30  1  0
  4 31  1  0
  5 32  1  6
  6 33  1  1
  7 34  1  0
  8 35  1  0
 11 36  1  0
 13 37  1  0
 14 38  1  0
 16 39  1  0
 17 40  1  0
 17 41  1  0
 18 42  1  0
 18 43  1  0
 19 44  1  0
 19 45  1  0
 24 46  1  0
 25 47  1  0
 26 48  1  0
 27 49  1  0
M  ISO  8  28  13  29  13  30  13  31  13  32  13  33  13  34  14  35  14
M  ISO  8  36  14  37   3  38   3  39   5  40  13  41  13  42  13  43  13
M  ISO  6  44  13  45  13  46  14  47  14  48  14  49  14
M  END
>  <minimizedAffinity>  (1) 
-5.44940138

>  <minimizedRMSD>  (1) 
8.1156311

$$$$
