
     RDKit          3D

 36 39  0  0  1  0  0  0  0  0999 V2000
   44.5420   35.5820   45.0360 C   0  0  0  0  0  0  0  0  0  0  0  0
   45.1030   35.6240   43.7330 C   0  0  0  0  0  0  0  0  0  0  0  0
   46.0790   34.6800   43.4050 C   0  0  0  0  0  0  0  0  0  0  0  0
   46.4460   33.7740   44.3350 N   0  0  0  0  0  0  0  0  0  0  0  0
   45.8850   33.7630   45.5810 C   0  0  0  0  0  0  0  0  0  0  0  0
   44.9500   34.6620   45.9020 N   0  0  0  0  0  0  0  0  0  0  0  0
   47.9570   35.2070   41.9700 C   0  0  0  0  0  0  0  0  0  0  0  0
   46.7300   34.6160   42.1090 C   0  0  0  0  0  0  0  0  0  0  0  0
   46.1650   33.9860   41.0080 C   0  0  0  0  0  0  0  0  0  0  0  0
   46.7840   33.9240   39.7710 C   0  0  0  0  0  0  0  0  0  0  0  0
   46.4340   33.3800   38.5890 N   0  0  0  0  0  0  0  0  0  0  0  0
   47.4570   33.6350   37.7040 C   0  0  0  0  0  0  0  0  0  0  0  0
   48.4130   34.3320   38.3660 N   0  0  0  0  0  0  0  0  0  0  0  0
   48.0330   34.5280   39.6390 C   0  0  0  0  0  0  0  0  0  0  0  0
   48.5970   35.1520   40.7220 C   0  0  0  0  0  0  0  0  0  0  0  0
   45.8510   33.1040   47.9720 C   0  0  2  0  0  0  0  0  0  0  0  0
   46.3370   32.7290   46.5710 C   0  0  1  0  0  0  0  0  0  0  0  0
   45.6770   31.5290   46.3930 O   0  0  0  0  0  0  0  0  0  0  0  0
   46.1240   30.8150   47.5150 C   0  0  0  0  0  0  0  0  0  0  0  0
   45.9860   31.7770   48.6840 C   0  0  2  0  0  0  0  0  0  0  0  0
   44.4930   33.4020   47.9130 O   0  0  0  0  0  0  0  0  0  0  0  0
   44.8480   31.5100   49.4300 O   0  0  0  0  0  0  0  0  0  0  0  0
   43.7708   36.3101   45.3278 H   0  0  0  0  0  0  0  0  0  0  0  0
   44.7783   36.3789   43.0018 H   0  0  0  0  0  0  0  0  0  0  0  0
   48.4329   35.7159   42.8212 H   0  0  0  0  0  0  0  0  0  0  0  0
   45.1784   33.5136   41.1241 H   0  0  0  0  0  0  0  0  0  0  0  0
   45.5633   32.8687   38.3856 H   0  0  0  0  0  0  0  0  0  0  0  0
   47.4925   33.3281   36.6483 H   0  0  0  0  0  0  0  0  0  0  0  0
   49.5836   35.6251   40.6090 H   0  0  0  0  0  0  0  0  0  0  0  0
   46.3823   33.9528   48.4273 H   0  0  0  0  0  0  0  0  0  0  0  0
   47.4277   32.6643   46.4441 H   0  0  0  0  0  0  0  0  0  0  0  0
   45.5027   29.9216   47.6758 H   0  0  0  0  0  0  0  0  0  0  0  0
   47.1595   30.4647   47.3923 H   0  0  0  0  0  0  0  0  0  0  0  0
   46.8203   31.7237   49.3989 H   0  0  0  0  0  0  0  0  0  0  0  0
   44.1323   33.4812   48.8316 H   0  0  0  0  0  0  0  0  0  0  0  0
   45.0660   31.5612   50.3943 H   0  0  0  0  0  0  0  0  0  0  0  0
  1  6  2  0
  2  1  1  0
  3  2  2  0
  3  4  1  0
  4  5  2  0
  5  6  1  0
  7  8  2  0
  8  3  1  0
  9  8  1  0
 10  9  2  0
 11 10  1  0
 12 13  2  0
 12 11  1  0
 13 14  1  0
 14 10  1  0
 14 15  2  0
 15  7  1  0
 16 21  1  0
 16 20  1  0
 17  5  1  0
 17 16  1  0
 18 17  1  0
 18 19  1  0
 19 20  1  0
 20 22  1  0
  1 23  1  0
  2 24  1  0
  7 25  1  0
  9 26  1  0
 11 27  1  0
 12 28  1  0
 15 29  1  0
 16 30  1  1
 17 31  1  1
 19 32  1  0
 19 33  1  0
 20 34  1  1
 21 35  1  0
 22 36  1  0
M  ISO  8  23  14  24  14  25  14  26  14  27   9  28  14  29  14  30  13
M  ISO  6  31  13  32  13  33  13  34  13  35   3  36   3
M  END
>  <minimizedAffinity>  (1) 
-7.46955156

>  <minimizedRMSD>  (1) 
0.466691852

$$$$
