
     RDKit          3D

 48 52  0  0  1  0  0  0  0  0999 V2000
   49.9860   32.4310   41.0900 C   0  0  1  0  0  0  0  0  0  0  0  0
   48.8620   31.9900   40.1960 C   0  0  0  0  0  0  0  0  0  0  0  0
   48.7150   32.1160   41.7410 C   0  0  2  0  0  0  0  0  0  0  0  0
   53.0660   30.4950   40.3820 C   0  0  0  0  0  0  0  0  0  0  0  0
   53.2790   29.8180   41.6360 C   0  0  0  0  0  0  0  0  0  0  0  0
   52.3480   30.0590   42.6930 C   0  0  0  0  0  0  0  0  0  0  0  0
   51.3350   30.8880   42.4790 N   0  0  0  0  0  0  0  0  0  0  0  0
   51.1680   31.5080   41.2760 C   0  0  0  0  0  0  0  0  0  0  0  0
   52.0270   31.3260   40.2070 N   0  0  0  0  0  0  0  0  0  0  0  0
   53.8220   29.6160   44.6710 C   0  0  2  0  0  0  0  0  0  0  0  0
   52.5120   29.3990   43.9900 C   0  0  2  0  0  0  0  0  0  0  0  0
   52.4170   27.8920   43.9480 C   0  0  0  0  0  0  0  0  0  0  0  0
   52.8470   27.5580   45.2290 O   0  0  0  0  0  0  0  0  0  0  0  0
   53.9260   28.3770   45.5270 C   0  0  0  0  0  0  0  0  0  0  0  0
   53.7190   30.7620   45.4870 O   0  0  0  0  0  0  0  0  0  0  0  0
   47.9030   33.1950   42.2140 N   0  0  0  0  0  0  0  0  0  0  0  0
   47.2210   33.1360   43.4380 C   0  0  0  0  0  0  0  0  0  0  0  0
   47.5110   32.1200   44.3220 C   0  0  0  0  0  0  0  0  0  0  0  0
   46.9400   32.0290   45.5800 C   0  0  0  0  0  0  0  0  0  0  0  0
   46.0400   32.9700   46.0070 C   0  0  0  0  0  0  0  0  0  0  0  0
   45.7250   34.0020   45.1420 C   0  0  0  0  0  0  0  0  0  0  0  0
   44.8190   34.9550   45.5560 C   0  0  0  0  0  0  0  0  0  0  0  0
   44.4540   36.0020   44.7540 C   0  0  0  0  0  0  0  0  0  0  0  0
   45.0400   36.0580   43.5000 C   0  0  0  0  0  0  0  0  0  0  0  0
   45.9450   35.0970   43.1020 C   0  0  0  0  0  0  0  0  0  0  0  0
   46.3100   34.0580   43.9010 C   0  0  0  0  0  0  0  0  0  0  0  0
   46.4950   35.1920   41.8470 O   0  0  0  0  0  0  0  0  0  0  0  0
   50.6435   33.3126   41.1111 H   0  0  0  0  0  0  0  0  0  0  0  0
   48.3656   32.7091   39.5278 H   0  0  0  0  0  0  0  0  0  0  0  0
   48.7068   31.2017   39.4447 H   0  0  0  0  0  0  0  0  0  0  0  0
   48.4194   31.4527   42.5672 H   0  0  0  0  0  0  0  0  0  0  0  0
   53.7685   30.3274   39.5523 H   0  0  0  0  0  0  0  0  0  0  0  0
   54.1315   29.1370   41.7753 H   0  0  0  0  0  0  0  0  0  0  0  0
   54.6807   29.7657   44.0000 H   0  0  0  0  0  0  0  0  0  0  0  0
   51.6803   29.8741   44.5308 H   0  0  0  0  0  0  0  0  0  0  0  0
   51.3842   27.5580   43.7696 H   0  0  0  0  0  0  0  0  0  0  0  0
   52.9998   27.4253   43.1402 H   0  0  0  0  0  0  0  0  0  0  0  0
   54.8663   27.8499   45.3080 H   0  0  0  0  0  0  0  0  0  0  0  0
   53.9173   28.6475   46.5932 H   0  0  0  0  0  0  0  0  0  0  0  0
   53.7432   30.4923   46.4393 H   0  0  0  0  0  0  0  0  0  0  0  0
   47.8165   34.0433   41.6363 H   0  0  0  0  0  0  0  0  0  0  0  0
   48.2291   31.3456   44.0143 H   0  0  0  0  0  0  0  0  0  0  0  0
   47.2112   31.1939   46.2426 H   0  0  0  0  0  0  0  0  0  0  0  0
   45.5829   32.9065   47.0055 H   0  0  0  0  0  0  0  0  0  0  0  0
   44.3768   34.8714   46.5597 H   0  0  0  0  0  0  0  0  0  0  0  0
   43.7315   36.7611   45.0883 H   0  0  0  0  0  0  0  0  0  0  0  0
   44.7805   36.8781   42.8143 H   0  0  0  0  0  0  0  0  0  0  0  0
   47.1470   34.5134   41.5396 H   0  0  0  0  0  0  0  0  0  0  0  0
  1  8  1  0
  1  3  1  0
  2  1  1  0
  2  3  1  0
  3 16  1  0
  4  5  2  0
  5  6  1  0
  7  6  2  0
  8  7  1  0
  9  4  1  0
  9  8  2  0
 10 15  1  0
 10 14  1  0
 11  6  1  0
 11 10  1  0
 12 11  1  0
 12 13  1  0
 13 14  1  0
 16 17  1  0
 17 26  1  0
 17 18  2  0
 18 19  1  0
 19 20  2  0
 21 22  2  0
 21 20  1  0
 23 22  1  0
 24 23  2  0
 25 24  1  0
 25 26  2  0
 26 21  1  0
 27 25  1  0
  1 28  1  6
  2 29  1  0
  2 30  1  0
  3 31  1  1
  4 32  1  0
  5 33  1  0
 10 34  1  6
 11 35  1  1
 12 36  1  0
 12 37  1  0
 14 38  1  0
 14 39  1  0
 15 40  1  0
 16 41  1  0
 18 42  1  0
 19 43  1  0
 20 44  1  0
 22 45  1  0
 23 46  1  0
 24 47  1  0
 27 48  1  0
M  ISO  8  28  13  29  13  30  13  31  13  32  14  33  14  34  13  35  13
M  ISO  8  36  13  37  13  38  13  39  13  40   3  42  14  43  14  44  14
M  ISO  4  45  14  46  14  47  14  48   3
M  END
>  <minimizedAffinity>  (1) 
-5.45037651

>  <minimizedRMSD>  (1) 
1.56820214

$$$$
