
     RDKit          3D

 33 36  0  0  0  0  0  0  0  0999 V2000
   44.4280   35.9240   44.8890 C   0  0  0  0  0  0  0  0  0  0  0  0
   45.0180   35.8750   43.6100 C   0  0  0  0  0  0  0  0  0  0  0  0
   45.9170   34.8570   43.3390 C   0  0  0  0  0  0  0  0  0  0  0  0
   46.2100   33.9340   44.2990 N   0  0  0  0  0  0  0  0  0  0  0  0
   45.6100   34.0240   45.5270 C   0  0  0  0  0  0  0  0  0  0  0  0
   44.7430   34.9970   45.8060 N   0  0  0  0  0  0  0  0  0  0  0  0
   47.8840   35.2050   41.9480 C   0  0  0  0  0  0  0  0  0  0  0  0
   46.5980   34.6960   42.0580 C   0  0  0  0  0  0  0  0  0  0  0  0
   46.0510   34.0790   40.9650 C   0  0  0  0  0  0  0  0  0  0  0  0
   46.7150   33.9370   39.7590 C   0  0  0  0  0  0  0  0  0  0  0  0
   46.3780   33.3800   38.5810 N   0  0  0  0  0  0  0  0  0  0  0  0
   47.4200   33.5210   37.7240 C   0  0  0  0  0  0  0  0  0  0  0  0
   48.4180   34.1830   38.3980 N   0  0  0  0  0  0  0  0  0  0  0  0
   47.9890   34.4400   39.6460 C   0  0  0  0  0  0  0  0  0  0  0  0
   48.5700   35.0710   40.7380 C   0  0  0  0  0  0  0  0  0  0  0  0
   45.9590   33.0110   46.5190 C   0  0  0  0  0  0  0  0  0  0  0  0
   47.0260   32.1670   46.2890 C   0  0  0  0  0  0  0  0  0  0  0  0
   47.2830   31.2410   47.2810 C   0  0  0  0  0  0  0  0  0  0  0  0
   46.5710   31.0970   48.4610 C   0  0  0  0  0  0  0  0  0  0  0  0
   45.4970   31.9740   48.6560 C   0  0  0  0  0  0  0  0  0  0  0  0
   45.2180   32.9090   47.6790 C   0  0  0  0  0  0  0  0  0  0  0  0
   43.7106   36.7208   45.1348 H   0  0  0  0  0  0  0  0  0  0  0  0
   44.7706   36.6267   42.8460 H   0  0  0  0  0  0  0  0  0  0  0  0
   48.3581   35.7083   42.8035 H   0  0  0  0  0  0  0  0  0  0  0  0
   45.0313   33.6754   41.0497 H   0  0  0  0  0  0  0  0  0  0  0  0
   45.4800   32.9235   38.3663 H   0  0  0  0  0  0  0  0  0  0  0  0
   47.4589   33.1703   36.6821 H   0  0  0  0  0  0  0  0  0  0  0  0
   49.5900   35.4731   40.6488 H   0  0  0  0  0  0  0  0  0  0  0  0
   47.6333   32.2278   45.3739 H   0  0  0  0  0  0  0  0  0  0  0  0
   48.1288   30.5564   47.1199 H   0  0  0  0  0  0  0  0  0  0  0  0
   46.8360   30.3328   49.2065 H   0  0  0  0  0  0  0  0  0  0  0  0
   44.8873   31.9192   49.5699 H   0  0  0  0  0  0  0  0  0  0  0  0
   44.3740   33.5980   47.8308 H   0  0  0  0  0  0  0  0  0  0  0  0
  1  6  2  0
  2  1  1  0
  3  2  2  0
  3  4  1  0
  4  5  2  0
  5  6  1  0
  5 16  1  0
  7  8  2  0
  8  3  1  0
  9  8  1  0
 10  9  2  0
 11 10  1  0
 12 13  2  0
 12 11  1  0
 13 14  1  0
 14 10  1  0
 14 15  2  0
 15  7  1  0
 16 21  1  0
 17 16  2  0
 17 18  1  0
 18 19  2  0
 19 20  1  0
 21 20  2  0
  1 22  1  0
  2 23  1  0
  7 24  1  0
  9 25  1  0
 11 26  1  0
 12 27  1  0
 15 28  1  0
 17 29  1  0
 18 30  1  0
 19 31  1  0
 20 32  1  0
 21 33  1  0
M  ISO  8  22  14  23  14  24  14  25  14  26   9  27  14  28  14  29  14
M  ISO  4  30  14  31  14  32  14  33  14
M  END
>  <minimizedAffinity>  (1) 
-7.14701176

>  <minimizedRMSD>  (1) 
0.509141862

$$$$
