
     RDKit          3D

 35 38  0  0  0  0  0  0  0  0999 V2000
   47.8860   35.2250   41.9500 C   0  0  0  0  0  0  0  0  0  0  0  0
   46.6220   34.6990   42.0760 C   0  0  0  0  0  0  0  0  0  0  0  0
   46.0630   34.0650   40.9780 C   0  0  0  0  0  0  0  0  0  0  0  0
   46.7190   33.9390   39.7650 C   0  0  0  0  0  0  0  0  0  0  0  0
   46.3890   33.3790   38.5840 N   0  0  0  0  0  0  0  0  0  0  0  0
   47.4240   33.5450   37.7240 C   0  0  0  0  0  0  0  0  0  0  0  0
   48.3980   34.2160   38.3880 N   0  0  0  0  0  0  0  0  0  0  0  0
   47.9950   34.4730   39.6490 C   0  0  0  0  0  0  0  0  0  0  0  0
   48.5690   35.1090   40.7330 C   0  0  0  0  0  0  0  0  0  0  0  0
   44.4800   35.8890   44.9380 C   0  0  0  0  0  0  0  0  0  0  0  0
   45.0740   35.8740   43.6460 C   0  0  0  0  0  0  0  0  0  0  0  0
   45.9430   34.8400   43.3570 C   0  0  0  0  0  0  0  0  0  0  0  0
   46.1920   33.8990   44.2920 N   0  0  0  0  0  0  0  0  0  0  0  0
   45.6100   33.9360   45.5200 C   0  0  0  0  0  0  0  0  0  0  0  0
   44.7680   34.9240   45.8220 N   0  0  0  0  0  0  0  0  0  0  0  0
   45.9060   32.9170   46.4730 N   0  0  0  0  0  0  0  0  0  0  0  0
   45.1570   32.6420   47.6830 C   0  0  0  0  0  0  0  0  0  0  0  0
   46.2620   32.3620   48.6800 C   0  0  0  0  0  0  0  0  0  0  0  0
   47.3810   31.8080   47.8570 C   0  0  0  0  0  0  0  0  0  0  0  0
   47.0110   31.9760   46.3990 C   0  0  0  0  0  0  0  0  0  0  0  0
   48.3591   35.7351   42.8021 H   0  0  0  0  0  0  0  0  0  0  0  0
   45.0520   33.6425   41.0743 H   0  0  0  0  0  0  0  0  0  0  0  0
   45.4999   32.9047   38.3708 H   0  0  0  0  0  0  0  0  0  0  0  0
   47.4660   33.1994   36.6806 H   0  0  0  0  0  0  0  0  0  0  0  0
   49.5802   35.5316   40.6384 H   0  0  0  0  0  0  0  0  0  0  0  0
   43.7827   36.6944   45.2123 H   0  0  0  0  0  0  0  0  0  0  0  0
   44.8500   36.6558   42.9053 H   0  0  0  0  0  0  0  0  0  0  0  0
   44.5552   33.5112   47.9869 H   0  0  0  0  0  0  0  0  0  0  0  0
   44.4337   31.8197   47.5798 H   0  0  0  0  0  0  0  0  0  0  0  0
   46.5731   33.2883   49.1852 H   0  0  0  0  0  0  0  0  0  0  0  0
   45.9434   31.6682   49.4720 H   0  0  0  0  0  0  0  0  0  0  0  0
   48.3105   32.3554   48.0725 H   0  0  0  0  0  0  0  0  0  0  0  0
   47.5413   30.7455   48.0925 H   0  0  0  0  0  0  0  0  0  0  0  0
   46.6934   31.0211   45.9549 H   0  0  0  0  0  0  0  0  0  0  0  0
   47.8436   32.3191   45.7673 H   0  0  0  0  0  0  0  0  0  0  0  0
  1  2  2  0
  2 12  1  0
  3  2  1  0
  4  3  2  0
  5  4  1  0
  6  7  2  0
  6  5  1  0
  7  8  1  0
  8  4  1  0
  8  9  2  0
  9  1  1  0
 10 15  2  0
 11 10  1  0
 12 11  2  0
 12 13  1  0
 13 14  2  0
 14 15  1  0
 14 16  1  0
 16 17  1  0
 17 18  1  0
 19 18  1  0
 20 16  1  0
 20 19  1  0
  1 21  1  0
  3 22  1  0
  5 23  1  0
  6 24  1  0
  9 25  1  0
 10 26  1  0
 11 27  1  0
 17 28  1  0
 17 29  1  0
 18 30  1  0
 18 31  1  0
 19 32  1  0
 19 33  1  0
 20 34  1  0
 20 35  1  0
M  ISO  8  21  14  22  14  23   9  24  14  25  14  26  14  27  14  28  13
M  ISO  7  29  13  30  13  31  13  32  13  33  13  34  13  35  13
M  END
>  <minimizedAffinity>  (1) 
-7.10993052

>  <minimizedRMSD>  (1) 
0.0799194723

$$$$
