
     RDKit          3D

 29 31  0  0  0  0  0  0  0  0999 V2000
   44.5910   35.2310   45.2060 C   0  0  0  0  0  0  0  0  0  0  0  0
   45.0640   35.3150   43.8590 C   0  0  0  0  0  0  0  0  0  0  0  0
   46.1610   34.5060   43.5350 C   0  0  0  0  0  0  0  0  0  0  0  0
   46.7080   33.7090   44.4700 N   0  0  0  0  0  0  0  0  0  0  0  0
   46.2300   33.6590   45.7370 C   0  0  0  0  0  0  0  0  0  0  0  0
   45.1890   34.4110   46.0880 N   0  0  0  0  0  0  0  0  0  0  0  0
   47.9770   35.1200   42.0330 C   0  0  0  0  0  0  0  0  0  0  0  0
   46.7530   34.4850   42.1970 C   0  0  0  0  0  0  0  0  0  0  0  0
   46.1750   33.8800   41.1060 C   0  0  0  0  0  0  0  0  0  0  0  0
   46.7730   33.8850   39.8550 C   0  0  0  0  0  0  0  0  0  0  0  0
   46.3800   33.3590   38.6670 N   0  0  0  0  0  0  0  0  0  0  0  0
   47.3430   33.6560   37.7560 C   0  0  0  0  0  0  0  0  0  0  0  0
   48.3270   34.3670   38.3990 N   0  0  0  0  0  0  0  0  0  0  0  0
   47.9860   34.5140   39.6920 C   0  0  0  0  0  0  0  0  0  0  0  0
   48.5810   35.1270   40.7760 C   0  0  0  0  0  0  0  0  0  0  0  0
   46.7950   32.8360   46.7030 O   0  0  0  0  0  0  0  0  0  0  0  0
   45.4460   30.6230   47.0440 O   0  0  0  0  0  0  0  0  0  0  0  0
   45.8000   31.9160   47.7580 P   0  0  0  0  0  0  0  0  0  0  0  0
   46.6190   31.5050   49.1740 O   0  0  0  0  0  0  0  0  0  0  0  0
   44.3370   32.7030   48.0830 O   0  0  0  0  0  0  0  0  0  0  0  0
   43.7323   35.8412   45.5226 H   0  0  0  0  0  0  0  0  0  0  0  0
   44.5927   35.9779   43.1185 H   0  0  0  0  0  0  0  0  0  0  0  0
   48.4656   35.6128   42.8865 H   0  0  0  0  0  0  0  0  0  0  0  0
   45.2056   33.3750   41.2297 H   0  0  0  0  0  0  0  0  0  0  0  0
   45.5128   32.8325   38.4893 H   0  0  0  0  0  0  0  0  0  0  0  0
   47.3361   33.3767   36.6921 H   0  0  0  0  0  0  0  0  0  0  0  0
   49.5502   35.6307   40.6460 H   0  0  0  0  0  0  0  0  0  0  0  0
   46.0789   31.7761   49.9581 H   0  0  0  0  0  0  0  0  0  0  0  0
   44.2096   32.7715   49.0624 H   0  0  0  0  0  0  0  0  0  0  0  0
  1  6  2  0
  2  1  1  0
  3  2  2  0
  3  4  1  0
  4  5  2  0
  5  6  1  0
  5 16  1  0
  7  8  2  0
  8  3  1  0
  9  8  1  0
 10  9  2  0
 11 10  1  0
 12 13  2  0
 12 11  1  0
 13 14  1  0
 14 10  1  0
 14 15  2  0
 15  7  1  0
 16 18  1  0
 17 18  2  0
 18 20  1  0
 18 19  1  0
  1 21  1  0
  2 22  1  0
  7 23  1  0
  9 24  1  0
 11 25  1  0
 12 26  1  0
 15 27  1  0
 19 28  1  0
 20 29  1  0
M  ISO  8  21  14  22  14  23  14  24  14  25   9  26  14  27  14  28   3
M  ISO  1  29   3
M  END
>  <minimizedAffinity>  (1) 
-6.5041728

>  <minimizedRMSD>  (1) 
1.26427269

$$$$
