
     RDKit          3D

 39 43  0  0  0  0  0  0  0  0999 V2000
   44.8790   35.6100   44.4880 C   0  0  0  0  0  0  0  0  0  0  0  0
   45.4680   35.6660   43.2090 C   0  0  0  0  0  0  0  0  0  0  0  0
   46.1850   34.5730   42.7380 C   0  0  0  0  0  0  0  0  0  0  0  0
   46.2940   33.4890   43.5290 N   0  0  0  0  0  0  0  0  0  0  0  0
   45.7230   33.4420   44.7610 C   0  0  0  0  0  0  0  0  0  0  0  0
   45.0250   34.5100   45.2150 N   0  0  0  0  0  0  0  0  0  0  0  0
   48.0510   35.1510   41.3030 C   0  0  0  0  0  0  0  0  0  0  0  0
   46.8320   34.5270   41.4330 C   0  0  0  0  0  0  0  0  0  0  0  0
   46.3010   33.9060   40.3340 C   0  0  0  0  0  0  0  0  0  0  0  0
   46.9300   33.8740   39.1010 C   0  0  0  0  0  0  0  0  0  0  0  0
   46.5970   33.3330   37.9150 N   0  0  0  0  0  0  0  0  0  0  0  0
   47.6080   33.6140   37.0330 C   0  0  0  0  0  0  0  0  0  0  0  0
   48.5600   34.3350   37.7020 N   0  0  0  0  0  0  0  0  0  0  0  0
   48.1720   34.5090   38.9730 C   0  0  0  0  0  0  0  0  0  0  0  0
   48.7100   35.1330   40.0700 C   0  0  0  0  0  0  0  0  0  0  0  0
   45.8530   32.3700   46.9630 C   0  0  0  0  0  0  0  0  0  0  0  0
   45.8630   32.2460   45.5910 C   0  0  0  0  0  0  0  0  0  0  0  0
   46.0040   31.0180   44.9920 C   0  0  0  0  0  0  0  0  0  0  0  0
   46.1350   29.8960   45.7740 C   0  0  0  0  0  0  0  0  0  0  0  0
   46.2820   28.6300   45.3460 N   0  0  0  0  0  0  0  0  0  0  0  0
   46.3720   27.8790   46.4830 C   0  0  0  0  0  0  0  0  0  0  0  0
   46.2810   28.6900   47.5620 N   0  0  0  0  0  0  0  0  0  0  0  0
   46.1320   29.9600   47.1470 C   0  0  0  0  0  0  0  0  0  0  0  0
   45.9880   31.2220   47.7180 C   0  0  0  0  0  0  0  0  0  0  0  0
   45.9840   31.2880   49.2120 C   0  0  0  0  0  0  0  0  0  0  0  0
   45.7740   32.6100   49.6260 F   0  0  0  0  0  0  0  0  0  0  0  0
   47.2160   30.9240   49.6710 F   0  0  0  0  0  0  0  0  0  0  0  0
   44.9540   30.5390   49.7280 F   0  0  0  0  0  0  0  0  0  0  0  0
   44.3071   36.4651   44.8775 H   0  0  0  0  0  0  0  0  0  0  0  0
   45.3610   36.5679   42.5884 H   0  0  0  0  0  0  0  0  0  0  0  0
   48.5051   35.6617   42.1649 H   0  0  0  0  0  0  0  0  0  0  0  0
   45.3257   33.4076   40.4360 H   0  0  0  0  0  0  0  0  0  0  0  0
   45.7381   32.8037   37.7074 H   0  0  0  0  0  0  0  0  0  0  0  0
   47.6473   33.3135   35.9756 H   0  0  0  0  0  0  0  0  0  0  0  0
   49.6857   35.6324   39.9770 H   0  0  0  0  0  0  0  0  0  0  0  0
   45.7409   33.3537   47.4424 H   0  0  0  0  0  0  0  0  0  0  0  0
   46.0120   30.9336   43.8953 H   0  0  0  0  0  0  0  0  0  0  0  0
   46.3188   28.2984   44.3715 H   0  0  0  0  0  0  0  0  0  0  0  0
   46.4985   26.7868   46.5163 H   0  0  0  0  0  0  0  0  0  0  0  0
  1  6  2  0
  2  1  1  0
  3  2  2  0
  3  4  1  0
  4  5  2  0
  5  6  1  0
  5 17  1  0
  7  8  2  0
  8  3  1  0
  9  8  1  0
 10  9  2  0
 11 10  1  0
 12 13  2  0
 12 11  1  0
 13 14  1  0
 14 10  1  0
 14 15  2  0
 15  7  1  0
 16 24  2  0
 17 16  1  0
 18 17  2  0
 18 19  1  0
 19 23  2  0
 20 19  1  0
 20 21  1  0
 21 22  2  0
 23 22  1  0
 23 24  1  0
 24 25  1  0
 25 26  1  0
 25 27  1  0
 25 28  1  0
  1 29  1  0
  2 30  1  0
  7 31  1  0
  9 32  1  0
 11 33  1  0
 12 34  1  0
 15 35  1  0
 16 36  1  0
 18 37  1  0
 20 38  1  0
 21 39  1  0
M  ISO  8  29  14  30  14  31  14  32  14  33   9  34  14  35  14  36  14
M  ISO  3  37  14  38   9  39  14
M  END
>  <minimizedAffinity>  (1) 
-7.19423962

>  <minimizedRMSD>  (1) 
1.53143287

$$$$
