
     RDKit          3D

 40 44  0  0  0  0  0  0  0  0999 V2000
   44.7260   35.5470   44.4260 C   0  0  0  0  0  0  0  0  0  0  0  0
   45.2740   35.5680   43.1310 C   0  0  0  0  0  0  0  0  0  0  0  0
   46.2130   34.6390   42.7620 C   0  0  0  0  0  0  0  0  0  0  0  0
   46.5960   33.7070   43.6810 N   0  0  0  0  0  0  0  0  0  0  0  0
   46.0680   33.6900   44.9280 C   0  0  0  0  0  0  0  0  0  0  0  0
   45.1390   34.6140   45.2780 N   0  0  0  0  0  0  0  0  0  0  0  0
   48.0750   35.1870   41.2990 C   0  0  0  0  0  0  0  0  0  0  0  0
   46.8410   34.5690   41.4550 C   0  0  0  0  0  0  0  0  0  0  0  0
   46.2980   33.9330   40.3680 C   0  0  0  0  0  0  0  0  0  0  0  0
   46.9170   33.8800   39.1300 C   0  0  0  0  0  0  0  0  0  0  0  0
   46.5690   33.3240   37.9590 N   0  0  0  0  0  0  0  0  0  0  0  0
   47.5680   33.5790   37.0540 C   0  0  0  0  0  0  0  0  0  0  0  0
   48.5250   34.3030   37.7060 N   0  0  0  0  0  0  0  0  0  0  0  0
   48.1480   34.4960   38.9740 C   0  0  0  0  0  0  0  0  0  0  0  0
   48.7140   35.1420   40.0550 C   0  0  0  0  0  0  0  0  0  0  0  0
   46.1320   32.8080   47.2200 C   0  0  0  0  0  0  0  0  0  0  0  0
   46.4820   32.6950   45.9030 C   0  0  0  0  0  0  0  0  0  0  0  0
   47.2520   31.6190   45.4750 C   0  0  0  0  0  0  0  0  0  0  0  0
   47.6590   30.6690   46.3860 C   0  0  0  0  0  0  0  0  0  0  0  0
   48.4030   29.5810   46.1280 N   0  0  0  0  0  0  0  0  0  0  0  0
   48.5320   28.9710   47.3520 C   0  0  0  0  0  0  0  0  0  0  0  0
   47.8790   29.6810   48.3000 N   0  0  0  0  0  0  0  0  0  0  0  0
   47.3160   30.7600   47.7280 C   0  0  0  0  0  0  0  0  0  0  0  0
   46.5530   31.8430   48.1040 C   0  0  0  0  0  0  0  0  0  0  0  0
   44.9700   31.2240   49.7340 C   0  0  0  0  0  0  0  0  0  0  0  0
   44.5030   30.7860   48.6280 O   0  0  0  0  0  0  0  0  0  0  0  0
   46.2290   31.8870   49.5000 N   0  0  0  0  0  0  0  0  0  0  0  0
   43.9708   36.2877   44.7278 H   0  0  0  0  0  0  0  0  0  0  0  0
   44.9480   36.3329   42.4108 H   0  0  0  0  0  0  0  0  0  0  0  0
   48.5459   35.7073   42.1461 H   0  0  0  0  0  0  0  0  0  0  0  0
   45.3216   33.4401   40.4852 H   0  0  0  0  0  0  0  0  0  0  0  0
   45.7034   32.7979   37.7725 H   0  0  0  0  0  0  0  0  0  0  0  0
   47.5934   33.2603   36.0015 H   0  0  0  0  0  0  0  0  0  0  0  0
   49.6909   35.6332   39.9354 H   0  0  0  0  0  0  0  0  0  0  0  0
   45.5239   33.6567   47.5663 H   0  0  0  0  0  0  0  0  0  0  0  0
   47.5343   31.5270   44.4158 H   0  0  0  0  0  0  0  0  0  0  0  0
   48.7875   29.2751   45.2227 H   0  0  0  0  0  0  0  0  0  0  0  0
   49.0867   28.0389   47.5349 H   0  0  0  0  0  0  0  0  0  0  0  0
   44.4854   31.1123   50.7151 H   0  0  0  0  0  0  0  0  0  0  0  0
   46.8097   32.3271   50.2281 H   0  0  0  0  0  0  0  0  0  0  0  0
  1  6  2  0
  2  1  1  0
  3  2  2  0
  3  4  1  0
  4  5  2  0
  5  6  1  0
  5 17  1  0
  7  8  2  0
  8  3  1  0
  9  8  1  0
 10  9  2  0
 11 10  1  0
 12 13  2  0
 12 11  1  0
 13 14  1  0
 14 10  1  0
 14 15  2  0
 15  7  1  0
 16 24  2  0
 17 16  1  0
 18 17  2  0
 18 19  1  0
 19 23  2  0
 20 19  1  0
 20 21  1  0
 21 22  2  0
 23 24  1  0
 23 22  1  0
 24 27  1  0
 26 25  2  0
 27 25  1  0
  1 28  1  0
  2 29  1  0
  7 30  1  0
  9 31  1  0
 11 32  1  0
 12 33  1  0
 15 34  1  0
 16 35  1  0
 18 36  1  0
 20 37  1  0
 21 38  1  0
 25 39  1  0
 27 40  1  0
M  ISO  8  28  14  29  14  30  14  31  14  32   9  33  14  34  14  35  14
M  ISO  4  36  14  37   9  38  14  39   6
M  END
>  <minimizedAffinity>  (1) 
-7.0207696

>  <minimizedRMSD>  (1) 
0.925187588

$$$$
