
     RDKit          3D

 23 24  0  0  0  0  0  0  0  0999 V2000
   41.0920   35.1680   40.9240 C   0  0  0  0  0  0  0  0  0  0  0  0
   42.4680   35.3680   40.9670 C   0  0  0  0  0  0  0  0  0  0  0  0
   43.2950   34.2790   41.2570 C   0  0  0  0  0  0  0  0  0  0  0  0
   42.6990   33.0810   41.4810 N   0  0  0  0  0  0  0  0  0  0  0  0
   41.3590   32.9270   41.4310 C   0  0  0  0  0  0  0  0  0  0  0  0
   40.5440   33.9820   41.1490 N   0  0  0  0  0  0  0  0  0  0  0  0
   44.2400   35.5890   43.7140 Cl  0  0  0  0  0  0  0  0  0  0  0  0
   45.3010   35.0220   42.4240 C   0  0  0  0  0  0  0  0  0  0  0  0
   44.7440   34.4210   41.3170 C   0  0  0  0  0  0  0  0  0  0  0  0
   45.6260   34.0010   40.3490 C   0  0  0  0  0  0  0  0  0  0  0  0
   46.9970   34.2010   40.5350 C   0  0  0  0  0  0  0  0  0  0  0  0
   47.5250   34.7990   41.6410 C   0  0  0  0  0  0  0  0  0  0  0  0
   46.6470   35.2250   42.6200 C   0  0  0  0  0  0  0  0  0  0  0  0
   40.2420   36.3540   40.6120 C   0  0  0  0  0  0  0  0  0  0  0  0
   42.8966   36.3630   40.7766 H   0  0  0  0  0  0  0  0  0  0  0  0
   40.9191   31.9368   41.6204 H   0  0  0  0  0  0  0  0  0  0  0  0
   45.2558   33.5118   39.4360 H   0  0  0  0  0  0  0  0  0  0  0  0
   47.6855   33.8583   39.7485 H   0  0  0  0  0  0  0  0  0  0  0  0
   48.6108   34.9374   41.7502 H   0  0  0  0  0  0  0  0  0  0  0  0
   47.0159   35.7144   43.5335 H   0  0  0  0  0  0  0  0  0  0  0  0
   39.9068   36.8217   41.5495 H   0  0  0  0  0  0  0  0  0  0  0  0
   40.8263   37.0805   40.0282 H   0  0  0  0  0  0  0  0  0  0  0  0
   39.3663   36.0341   40.0282 H   0  0  0  0  0  0  0  0  0  0  0  0
  1  2  2  0
  1  6  1  0
  2  3  1  0
  3  9  1  0
  3  4  2  0
  5  4  1  0
  6  5  2  0
  8 13  2  0
  8  7  1  0
  9  8  1  0
 10 11  1  0
 10  9  2  0
 11 12  2  0
 12 13  1  0
 14  1  1  0
  2 15  1  0
  5 16  1  0
 10 17  1  0
 11 18  1  0
 12 19  1  0
 13 20  1  0
 14 21  1  0
 14 22  1  0
 14 23  1  0
M  ISO  8  15  14  16  14  17  14  18  14  19  14  20  14  21   8  22   8
M  ISO  1  23   8
M  END
>  <minimizedAffinity>  (1) 
-4.63542891

>  <minimizedRMSD>  (1) 
5.22586823

$$$$
