
     RDKit          3D

 26 28  0  0  0  0  0  0  0  0999 V2000
   43.6740   34.8570   40.9400 C   0  0  0  0  0  0  0  0  0  0  0  0
   45.0200   34.4570   40.8830 C   0  0  0  0  0  0  0  0  0  0  0  0
   45.8110   34.7070   42.0060 C   0  0  0  0  0  0  0  0  0  0  0  0
   45.2630   35.3100   43.0820 N   0  0  0  0  0  0  0  0  0  0  0  0
   43.9480   35.6780   43.0850 C   0  0  0  0  0  0  0  0  0  0  0  0
   43.1580   35.4530   42.0190 N   0  0  0  0  0  0  0  0  0  0  0  0
   48.1440   35.3620   42.0210 C   0  0  0  0  0  0  0  0  0  0  0  0
   47.2190   34.3440   42.0770 C   0  0  0  0  0  0  0  0  0  0  0  0
   47.6980   33.0600   42.1960 C   0  0  0  0  0  0  0  0  0  0  0  0
   49.0430   32.7990   42.2560 C   0  0  0  0  0  0  0  0  0  0  0  0
   49.6750   31.5960   42.3730 N   0  0  0  0  0  0  0  0  0  0  0  0
   51.0020   31.8630   42.3890 C   0  0  0  0  0  0  0  0  0  0  0  0
   51.1890   33.1950   42.2870 N   0  0  0  0  0  0  0  0  0  0  0  0
   49.9840   33.8040   42.2020 C   0  0  0  0  0  0  0  0  0  0  0  0
   49.5050   35.0760   42.0830 C   0  0  0  0  0  0  0  0  0  0  0  0
   42.8360   34.5830   39.7290 C   0  0  0  0  0  0  0  0  0  0  0  0
   45.4337   33.9666   39.9895 H   0  0  0  0  0  0  0  0  0  0  0  0
   43.5266   36.1675   43.9754 H   0  0  0  0  0  0  0  0  0  0  0  0
   47.8066   36.4048   41.9270 H   0  0  0  0  0  0  0  0  0  0  0  0
   46.9857   32.2232   42.2442 H   0  0  0  0  0  0  0  0  0  0  0  0
   49.2309   30.6688   42.4365 H   0  0  0  0  0  0  0  0  0  0  0  0
   51.8016   31.1122   42.4721 H   0  0  0  0  0  0  0  0  0  0  0  0
   50.2225   35.9083   42.0341 H   0  0  0  0  0  0  0  0  0  0  0  0
   41.8340   34.2554   40.0430 H   0  0  0  0  0  0  0  0  0  0  0  0
   42.7502   35.4999   39.1274 H   0  0  0  0  0  0  0  0  0  0  0  0
   43.3085   33.7925   39.1274 H   0  0  0  0  0  0  0  0  0  0  0  0
  1  6  2  0
  2  1  1  0
  2  3  2  0
  3  8  1  0
  3  4  1  0
  4  5  2  0
  6  5  1  0
  7  8  2  0
  7 15  1  0
  8  9  1  0
  9 10  2  0
 10 11  1  0
 11 12  1  0
 13 12  2  0
 14 10  1  0
 14 13  1  0
 15 14  2  0
 16  1  1  0
  2 17  1  0
  5 18  1  0
  7 19  1  0
  9 20  1  0
 11 21  1  0
 12 22  1  0
 15 23  1  0
 16 24  1  0
 16 25  1  0
 16 26  1  0
M  ISO  8  17  14  18  14  19  14  20  14  21   9  22  14  23  14  24   8
M  ISO  2  25   8  26   8
M  END
>  <minimizedAffinity>  (1) 
-4.61717272

>  <minimizedRMSD>  (1) 
3.25577354

$$$$
