
     RDKit          3D

 23 24  0  0  0  0  0  0  0  0999 V2000
   42.0450   34.5360   40.5510 C   0  0  0  0  0  0  0  0  0  0  0  0
   43.3940   34.8750   40.4960 C   0  0  0  0  0  0  0  0  0  0  0  0
   44.3380   33.9740   40.9950 C   0  0  0  0  0  0  0  0  0  0  0  0
   43.8710   32.8160   41.5050 N   0  0  0  0  0  0  0  0  0  0  0  0
   42.5550   32.5150   41.5460 C   0  0  0  0  0  0  0  0  0  0  0  0
   41.6400   33.3780   41.0670 N   0  0  0  0  0  0  0  0  0  0  0  0
   45.1870   35.4710   43.4930 Br  0  0  0  0  0  0  0  0  0  0  0  0
   46.3090   34.9560   42.0330 C   0  0  0  0  0  0  0  0  0  0  0  0
   45.7650   34.2750   40.9620 C   0  0  0  0  0  0  0  0  0  0  0  0
   46.6270   33.9380   39.9530 C   0  0  0  0  0  0  0  0  0  0  0  0
   47.9680   34.2640   40.0050 C   0  0  0  0  0  0  0  0  0  0  0  0
   48.4700   34.9460   41.0950 C   0  0  0  0  0  0  0  0  0  0  0  0
   47.6380   35.3090   42.1410 C   0  0  0  0  0  0  0  0  0  0  0  0
   41.0670   35.5260   40.0080 C   0  0  0  0  0  0  0  0  0  0  0  0
   43.7116   35.8367   40.0666 H   0  0  0  0  0  0  0  0  0  0  0  0
   42.2282   31.5561   41.9746 H   0  0  0  0  0  0  0  0  0  0  0  0
   46.2415   33.3935   39.0784 H   0  0  0  0  0  0  0  0  0  0  0  0
   48.6357   33.9803   39.1782 H   0  0  0  0  0  0  0  0  0  0  0  0
   49.5388   35.2031   41.1332 H   0  0  0  0  0  0  0  0  0  0  0  0
   48.0194   35.8536   43.0173 H   0  0  0  0  0  0  0  0  0  0  0  0
   40.5620   36.0372   40.8409 H   0  0  0  0  0  0  0  0  0  0  0  0
   41.5984   36.2661   39.3916 H   0  0  0  0  0  0  0  0  0  0  0  0
   40.3205   35.0037   39.3916 H   0  0  0  0  0  0  0  0  0  0  0  0
  1  6  2  0
  2  1  1  0
  2  3  2  0
  3  4  1  0
  4  5  2  0
  6  5  1  0
  8 13  2  0
  8  7  1  0
  9  3  1  0
  9  8  1  0
 10 11  1  0
 10  9  2  0
 11 12  2  0
 12 13  1  0
 14  1  1  0
  2 15  1  0
  5 16  1  0
 10 17  1  0
 11 18  1  0
 12 19  1  0
 13 20  1  0
 14 21  1  0
 14 22  1  0
 14 23  1  0
M  ISO  8  15  14  16  14  17  14  18  14  19  14  20  14  21   8  22   8
M  ISO  1  23   8
M  END
>  <minimizedAffinity>  (1) 
-4.55502892

>  <minimizedRMSD>  (1) 
4.76215982

$$$$
