
     RDKit          3D

 40 43  0  0  1  0  0  0  0  0999 V2000
   47.7510   33.1200   42.1640 N   0  0  0  0  0  0  0  0  0  0  0  0
   47.1250   33.0900   43.4170 C   0  0  0  0  0  0  0  0  0  0  0  0
   47.4410   32.0950   44.3030 C   0  0  0  0  0  0  0  0  0  0  0  0
   46.9100   32.0390   45.5890 C   0  0  0  0  0  0  0  0  0  0  0  0
   46.0250   33.0030   46.0330 C   0  0  0  0  0  0  0  0  0  0  0  0
   45.6950   34.0100   45.1570 C   0  0  0  0  0  0  0  0  0  0  0  0
   44.8210   34.9910   45.5790 C   0  0  0  0  0  0  0  0  0  0  0  0
   44.4580   36.0180   44.7640 C   0  0  0  0  0  0  0  0  0  0  0  0
   44.9880   36.0520   43.4900 C   0  0  0  0  0  0  0  0  0  0  0  0
   45.8540   35.0710   43.0870 C   0  0  0  0  0  0  0  0  0  0  0  0
   46.2320   34.0400   43.8900 C   0  0  0  0  0  0  0  0  0  0  0  0
   46.3580   35.1280   41.8050 O   0  0  0  0  0  0  0  0  0  0  0  0
   50.0170   32.4390   41.3180 C   0  0  1  0  0  0  0  0  0  0  0  0
   49.0380   32.0960   40.2310 C   0  0  0  0  0  0  0  0  0  0  0  0
   48.6530   32.1100   41.7370 C   0  0  2  0  0  0  0  0  0  0  0  0
   52.9720   30.2570   40.8390 C   0  0  0  0  0  0  0  0  0  0  0  0
   53.1370   29.7050   42.1590 C   0  0  0  0  0  0  0  0  0  0  0  0
   52.2200   30.1100   43.1770 C   0  0  0  0  0  0  0  0  0  0  0  0
   51.2590   30.9740   42.8630 N   0  0  0  0  0  0  0  0  0  0  0  0
   51.1380   31.4720   41.6040 C   0  0  0  0  0  0  0  0  0  0  0  0
   51.9880   31.1260   40.5700 N   0  0  0  0  0  0  0  0  0  0  0  0
   53.6090   29.3680   45.2320 C   0  0  0  0  0  0  0  0  0  0  0  0
   54.7230   29.7270   44.7920 O   0  0  0  0  0  0  0  0  0  0  0  0
   52.4080   29.5490   44.4610 N   0  0  0  0  0  0  0  0  0  0  0  0
   47.5492   33.9048   41.5282 H   0  0  0  0  0  0  0  0  0  0  0  0
   48.1421   31.3088   43.9863 H   0  0  0  0  0  0  0  0  0  0  0  0
   47.1987   31.2167   46.2602 H   0  0  0  0  0  0  0  0  0  0  0  0
   45.6012   32.9661   47.0474 H   0  0  0  0  0  0  0  0  0  0  0  0
   44.4085   34.9414   46.5975 H   0  0  0  0  0  0  0  0  0  0  0  0
   43.7633   36.7976   45.1098 H   0  0  0  0  0  0  0  0  0  0  0  0
   44.7155   36.8647   42.8006 H   0  0  0  0  0  0  0  0  0  0  0  0
   46.9860   34.4311   41.4886 H   0  0  0  0  0  0  0  0  0  0  0  0
   50.6761   33.2980   41.5124 H   0  0  0  0  0  0  0  0  0  0  0  0
   48.6626   32.8760   39.5523 H   0  0  0  0  0  0  0  0  0  0  0  0
   48.9900   31.3699   39.4061 H   0  0  0  0  0  0  0  0  0  0  0  0
   48.2367   31.4005   42.4673 H   0  0  0  0  0  0  0  0  0  0  0  0
   53.6653   29.9603   40.0382 H   0  0  0  0  0  0  0  0  0  0  0  0
   53.9458   28.9921   42.3771 H   0  0  0  0  0  0  0  0  0  0  0  0
   53.5461   28.9049   46.2278 H   0  0  0  0  0  0  0  0  0  0  0  0
   51.5468   29.2165   44.9178 H   0  0  0  0  0  0  0  0  0  0  0  0
  1  2  1  0
  2 11  1  0
  2  3  2  0
  3  4  1  0
  4  5  2  0
  6  7  2  0
  6  5  1  0
  8  7  1  0
  9  8  2  0
 10  9  1  0
 10 11  2  0
 11  6  1  0
 12 10  1  0
 13 20  1  0
 13 15  1  0
 14 13  1  0
 14 15  1  0
 15  1  1  0
 16 17  2  0
 17 18  1  0
 18 24  1  0
 19 18  2  0
 20 19  1  0
 21 16  1  0
 21 20  2  0
 23 22  2  0
 24 22  1  0
  1 25  1  0
  3 26  1  0
  4 27  1  0
  5 28  1  0
  7 29  1  0
  8 30  1  0
  9 31  1  0
 12 32  1  0
 13 33  1  6
 14 34  1  0
 14 35  1  0
 15 36  1  1
 16 37  1  0
 17 38  1  0
 22 39  1  0
 24 40  1  0
M  ISO  8  26  14  27  14  28  14  29  14  30  14  31  14  32   3  33  13
M  ISO  6  34  13  35  13  36  13  37  14  38  14  39   6
M  END
>  <minimizedAffinity>  (1) 
-5.23768902

>  <minimizedRMSD>  (1) 
1.3206507

$$$$
