
     RDKit          3D

 45 49  0  0  1  0  0  0  0  0999 V2000
   50.2010   32.3060   41.4850 C   0  0  1  0  0  0  0  0  0  0  0  0
   49.3040   32.0170   40.2980 C   0  0  0  0  0  0  0  0  0  0  0  0
   48.7940   32.0110   41.7620 C   0  0  2  0  0  0  0  0  0  0  0  0
   53.0410   29.9640   41.1620 C   0  0  0  0  0  0  0  0  0  0  0  0
   53.1780   29.4980   42.5200 C   0  0  0  0  0  0  0  0  0  0  0  0
   52.2950   30.0080   43.4810 C   0  0  0  0  0  0  0  0  0  0  0  0
   51.3800   30.8890   43.1070 N   0  0  0  0  0  0  0  0  0  0  0  0
   51.2680   31.3100   41.8400 C   0  0  0  0  0  0  0  0  0  0  0  0
   52.0930   30.8560   40.8550 N   0  0  0  0  0  0  0  0  0  0  0  0
   52.3930   29.5530   44.8340 C   0  0  0  0  0  0  0  0  0  0  0  0
   53.3580   30.1730   45.6740 C   0  0  0  0  0  0  0  0  0  0  0  0
   53.5100   29.7850   47.0300 C   0  0  0  0  0  0  0  0  0  0  0  0
   52.6590   28.7540   47.5130 C   0  0  0  0  0  0  0  0  0  0  0  0
   51.6870   28.1170   46.6970 C   0  0  0  0  0  0  0  0  0  0  0  0
   52.0020   28.8220   45.7040 N   0  0  0  0  0  0  0  0  0  0  0  0
   47.8930   33.0490   42.1390 N   0  0  0  0  0  0  0  0  0  0  0  0
   47.2220   33.0550   43.3720 C   0  0  0  0  0  0  0  0  0  0  0  0
   47.4910   32.0770   44.2950 C   0  0  0  0  0  0  0  0  0  0  0  0
   46.9060   32.0580   45.5500 C   0  0  0  0  0  0  0  0  0  0  0  0
   46.0150   33.0340   45.9360 C   0  0  0  0  0  0  0  0  0  0  0  0
   45.7310   34.0190   45.0330 C   0  0  0  0  0  0  0  0  0  0  0  0
   44.8430   35.0250   45.3870 C   0  0  0  0  0  0  0  0  0  0  0  0
   44.5190   36.0350   44.5450 C   0  0  0  0  0  0  0  0  0  0  0  0
   45.1170   36.0280   43.2870 C   0  0  0  0  0  0  0  0  0  0  0  0
   45.9900   35.0290   42.9480 C   0  0  0  0  0  0  0  0  0  0  0  0
   46.3240   34.0190   43.7830 C   0  0  0  0  0  0  0  0  0  0  0  0
   46.5450   35.0670   41.6870 O   0  0  0  0  0  0  0  0  0  0  0  0
   50.8645   33.1369   41.7666 H   0  0  0  0  0  0  0  0  0  0  0  0
   49.0130   32.8236   39.6090 H   0  0  0  0  0  0  0  0  0  0  0  0
   49.3053   31.3117   39.4539 H   0  0  0  0  0  0  0  0  0  0  0  0
   48.2898   31.2954   42.4281 H   0  0  0  0  0  0  0  0  0  0  0  0
   53.7155   29.5861   40.3796 H   0  0  0  0  0  0  0  0  0  0  0  0
   53.9516   28.7651   42.7928 H   0  0  0  0  0  0  0  0  0  0  0  0
   53.9986   30.9682   45.2649 H   0  0  0  0  0  0  0  0  0  0  0  0
   54.2565   30.2628   47.6815 H   0  0  0  0  0  0  0  0  0  0  0  0
   52.7574   28.4367   48.5616 H   0  0  0  0  0  0  0  0  0  0  0  0
   50.9483   27.3198   46.8667 H   0  0  0  0  0  0  0  0  0  0  0  0
   47.7279   33.8245   41.4815 H   0  0  0  0  0  0  0  0  0  0  0  0
   48.1980   31.2776   44.0284 H   0  0  0  0  0  0  0  0  0  0  0  0
   47.1577   31.2486   46.2511 H   0  0  0  0  0  0  0  0  0  0  0  0
   45.5499   33.0212   46.9327 H   0  0  0  0  0  0  0  0  0  0  0  0
   44.3860   35.0012   46.3873 H   0  0  0  0  0  0  0  0  0  0  0  0
   43.8146   36.8261   44.8415 H   0  0  0  0  0  0  0  0  0  0  0  0
   44.8877   36.8258   42.5652 H   0  0  0  0  0  0  0  0  0  0  0  0
   47.1807   34.3626   41.4045 H   0  0  0  0  0  0  0  0  0  0  0  0
  1  3  1  0
  1  8  1  0
  2  1  1  0
  2  3  1  0
  3 16  1  0
  4  5  2  0
  5  6  1  0
  6 10  1  0
  7  6  2  0
  8  7  1  0
  9  4  1  0
  9  8  2  0
 10 11  2  0
 10 15  1  0
 11 12  1  0
 12 13  2  0
 14 13  1  0
 15 14  2  0
 16 17  1  0
 17 26  1  0
 17 18  2  0
 18 19  1  0
 19 20  2  0
 21 22  2  0
 21 20  1  0
 23 22  1  0
 24 23  2  0
 25 24  1  0
 25 26  2  0
 26 21  1  0
 27 25  1  0
  1 28  1  6
  2 29  1  0
  2 30  1  0
  3 31  1  1
  4 32  1  0
  5 33  1  0
 11 34  1  0
 12 35  1  0
 13 36  1  0
 14 37  1  0
 16 38  1  0
 18 39  1  0
 19 40  1  0
 20 41  1  0
 22 42  1  0
 23 43  1  0
 24 44  1  0
 27 45  1  0
M  ISO  8  28  13  29  13  30  13  31  13  32  14  33  14  34  14  35  14
M  ISO  8  36  14  37  14  39  14  40  14  41  14  42  14  43  14  44  14
M  ISO  1  45   3
M  END
>  <minimizedAffinity>  (1) 
-5.23754358

>  <minimizedRMSD>  (1) 
1.49613011

$$$$
