
     RDKit          3D

 16 16  0  0  0  0  0  0  0  0999 V2000
   45.5950   35.0740   43.7700 C   0  0  0  0  0  0  0  0  0  0  0  0
   46.7000   34.5720   43.0630 C   0  0  0  0  0  0  0  0  0  0  0  0
   47.3900   33.4920   43.6230 C   0  0  0  0  0  0  0  0  0  0  0  0
   46.9640   32.9920   44.8000 N   0  0  0  0  0  0  0  0  0  0  0  0
   45.8890   33.5110   45.4500 C   0  0  0  0  0  0  0  0  0  0  0  0
   45.2130   34.5490   44.9290 N   0  0  0  0  0  0  0  0  0  0  0  0
   44.8640   36.2280   43.1660 C   0  0  0  0  0  0  0  0  0  0  0  0
   48.5610   32.8940   42.9600 C   0  0  0  0  0  0  0  0  0  0  0  0
   47.0113   35.0121   42.1041 H   0  0  0  0  0  0  0  0  0  0  0  0
   45.5700   33.0781   46.4096 H   0  0  0  0  0  0  0  0  0  0  0  0
   44.4601   36.8656   43.9662 H   0  0  0  0  0  0  0  0  0  0  0  0
   45.5555   36.8148   42.5435 H   0  0  0  0  0  0  0  0  0  0  0  0
   44.0380   35.8535   42.5435 H   0  0  0  0  0  0  0  0  0  0  0  0
   49.2684   32.5327   43.7209 H   0  0  0  0  0  0  0  0  0  0  0  0
   48.2362   32.0514   42.3319 H   0  0  0  0  0  0  0  0  0  0  0  0
   49.0531   33.6512   42.3319 H   0  0  0  0  0  0  0  0  0  0  0  0
  1  6  2  0
  2  3  2  0
  2  1  1  0
  3  4  1  0
  4  5  2  0
  6  5  1  0
  7  1  1  0
  8  3  1  0
  2  9  1  0
  5 10  1  0
  7 11  1  0
  7 12  1  0
  7 13  1  0
  8 14  1  0
  8 15  1  0
  8 16  1  0
M  ISO  8   9  14  10  14  11   8  12   8  13   8  14   8  15   8  16   8
M  END
>  <minimizedAffinity>  (1) 
-2.85592413

>  <minimizedRMSD>  (1) 
0.723106205

$$$$
