
     RDKit          3D

 15 15  0  0  0  0  0  0  0  0999 V2000
   45.4200   35.1020   43.9990 C   0  0  0  0  0  0  0  0  0  0  0  0
   46.4230   34.3220   43.4280 C   0  0  0  0  0  0  0  0  0  0  0  0
   46.9430   33.2670   44.1850 C   0  0  0  0  0  0  0  0  0  0  0  0
   46.4450   33.0640   45.4260 N   0  0  0  0  0  0  0  0  0  0  0  0
   45.4670   33.8510   45.9440 C   0  0  0  0  0  0  0  0  0  0  0  0
   44.9500   34.8810   45.2190 N   0  0  0  0  0  0  0  0  0  0  0  0
   44.8730   36.2310   43.1670 C   0  0  0  0  0  0  0  0  0  0  0  0
   47.9680   32.4640   43.6110 N   0  0  0  0  0  0  0  0  0  0  0  0
   46.7945   34.5292   42.4136 H   0  0  0  0  0  0  0  0  0  0  0  0
   45.0892   33.6546   46.9582 H   0  0  0  0  0  0  0  0  0  0  0  0
   44.4898   37.0218   43.8286 H   0  0  0  0  0  0  0  0  0  0  0  0
   45.6730   36.6397   42.5322 H   0  0  0  0  0  0  0  0  0  0  0  0
   44.0565   35.8565   42.5322 H   0  0  0  0  0  0  0  0  0  0  0  0
   48.3689   31.6806   44.1462 H   0  0  0  0  0  0  0  0  0  0  0  0
   48.3090   32.6662   42.6604 H   0  0  0  0  0  0  0  0  0  0  0  0
  1  6  2  0
  2  1  1  0
  2  3  2  0
  3  4  1  0
  4  5  2  0
  6  5  1  0
  7  1  1  0
  8  3  1  0
  2  9  1  0
  5 10  1  0
  7 11  1  0
  7 12  1  0
  7 13  1  0
  8 14  1  0
  8 15  1  0
M  ISO  5   9  14  10  14  11   8  12   8  13   8
M  END
>  <minimizedAffinity>  (1) 
-2.83416224

>  <minimizedRMSD>  (1) 
0.140750512

$$$$
