
     RDKit          3D

 48 52  0  0  1  0  0  0  0  0999 V2000
   50.0010   31.9280   41.8770 C   0  0  1  0  0  0  0  0  0  0  0  0
   49.2610   31.9950   40.5700 C   0  0  0  0  0  0  0  0  0  0  0  0
   48.5390   31.8900   41.9410 C   0  0  2  0  0  0  0  0  0  0  0  0
   51.1560   28.4010   41.8210 C   0  0  0  0  0  0  0  0  0  0  0  0
   52.2110   28.4340   42.8010 C   0  0  0  0  0  0  0  0  0  0  0  0
   52.4930   29.6780   43.4470 C   0  0  0  0  0  0  0  0  0  0  0  0
   51.7840   30.7450   43.1250 N   0  0  0  0  0  0  0  0  0  0  0  0
   50.7900   30.6780   42.1910 C   0  0  0  0  0  0  0  0  0  0  0  0
   50.4660   29.5160   41.5340 N   0  0  0  0  0  0  0  0  0  0  0  0
   53.5340   29.7220   44.4160 N   0  0  0  0  0  0  0  0  0  0  0  0
   53.4350   30.3880   45.7190 C   0  0  0  0  0  0  0  0  0  0  0  0
   54.6520   29.9350   46.4900 C   0  0  0  0  0  0  0  0  0  0  0  0
   55.6650   29.7820   45.3620 C   0  0  0  0  0  0  0  0  0  0  0  0
   54.8480   29.1260   44.2880 C   0  0  0  0  0  0  0  0  0  0  0  0
   47.8030   33.0270   42.3740 N   0  0  0  0  0  0  0  0  0  0  0  0
   47.1200   33.0610   43.5960 C   0  0  0  0  0  0  0  0  0  0  0  0
   47.3730   32.0990   44.5410 C   0  0  0  0  0  0  0  0  0  0  0  0
   46.7840   32.1080   45.8000 C   0  0  0  0  0  0  0  0  0  0  0  0
   45.9020   33.1070   46.1590 C   0  0  0  0  0  0  0  0  0  0  0  0
   45.6330   34.0790   45.2280 C   0  0  0  0  0  0  0  0  0  0  0  0
   44.7590   35.0890   45.5660 C   0  0  0  0  0  0  0  0  0  0  0  0
   44.4420   36.0930   44.6940 C   0  0  0  0  0  0  0  0  0  0  0  0
   45.0380   36.0550   43.4430 C   0  0  0  0  0  0  0  0  0  0  0  0
   45.9060   35.0440   43.1230 C   0  0  0  0  0  0  0  0  0  0  0  0
   46.2290   34.0450   43.9870 C   0  0  0  0  0  0  0  0  0  0  0  0
   46.4700   35.0400   41.8670 O   0  0  0  0  0  0  0  0  0  0  0  0
   50.7595   32.5610   42.3607 H   0  0  0  0  0  0  0  0  0  0  0  0
   49.2304   32.9316   39.9940 H   0  0  0  0  0  0  0  0  0  0  0  0
   49.2614   31.4278   39.6275 H   0  0  0  0  0  0  0  0  0  0  0  0
   47.8174   31.2087   42.4155 H   0  0  0  0  0  0  0  0  0  0  0  0
   50.9150   27.4592   41.3062 H   0  0  0  0  0  0  0  0  0  0  0  0
   52.7838   27.5274   43.0457 H   0  0  0  0  0  0  0  0  0  0  0  0
   53.4420   31.4810   45.5949 H   0  0  0  0  0  0  0  0  0  0  0  0
   52.5004   30.1335   46.2403 H   0  0  0  0  0  0  0  0  0  0  0  0
   54.9722   30.6914   47.2217 H   0  0  0  0  0  0  0  0  0  0  0  0
   54.4983   29.0260   47.0900 H   0  0  0  0  0  0  0  0  0  0  0  0
   56.0453   30.7601   45.0323 H   0  0  0  0  0  0  0  0  0  0  0  0
   56.5599   29.2096   45.6473 H   0  0  0  0  0  0  0  0  0  0  0  0
   54.7987   28.0386   44.4466 H   0  0  0  0  0  0  0  0  0  0  0  0
   55.2783   29.2737   43.2865 H   0  0  0  0  0  0  0  0  0  0  0  0
   47.7710   33.8574   41.7655 H   0  0  0  0  0  0  0  0  0  0  0  0
   48.0713   31.2864   44.2918 H   0  0  0  0  0  0  0  0  0  0  0  0
   47.0235   31.3100   46.5182 H   0  0  0  0  0  0  0  0  0  0  0  0
   45.4324   33.1236   47.1536 H   0  0  0  0  0  0  0  0  0  0  0  0
   44.3028   35.0875   46.5670 H   0  0  0  0  0  0  0  0  0  0  0  0
   43.7442   36.8963   44.9730 H   0  0  0  0  0  0  0  0  0  0  0  0
   44.8135   36.8389   42.7048 H   0  0  0  0  0  0  0  0  0  0  0  0
   47.1004   34.3213   41.6097 H   0  0  0  0  0  0  0  0  0  0  0  0
  1  3  1  0
  1  8  1  0
  2  1  1  0
  2  3  1  0
  3 15  1  0
  4  5  2  0
  5  6  1  0
  6 10  1  0
  7  6  2  0
  8  7  1  0
  9  4  1  0
  9  8  2  0
 10 11  1  0
 11 12  1  0
 13 12  1  0
 14 10  1  0
 14 13  1  0
 15 16  1  0
 16 25  1  0
 16 17  2  0
 17 18  1  0
 18 19  2  0
 20 21  2  0
 20 19  1  0
 22 21  1  0
 23 22  2  0
 24 23  1  0
 24 25  2  0
 25 20  1  0
 26 24  1  0
  1 27  1  1
  2 28  1  0
  2 29  1  0
  3 30  1  6
  4 31  1  0
  5 32  1  0
 11 33  1  0
 11 34  1  0
 12 35  1  0
 12 36  1  0
 13 37  1  0
 13 38  1  0
 14 39  1  0
 14 40  1  0
 15 41  1  0
 17 42  1  0
 18 43  1  0
 19 44  1  0
 21 45  1  0
 22 46  1  0
 23 47  1  0
 26 48  1  0
M  ISO  8  27  13  28  13  29  13  30  13  31  14  32  14  33  13  34  13
M  ISO  8  35  13  36  13  37  13  38  13  39  13  40  13  42  14  43  14
M  ISO  5  44  14  45  14  46  14  47  14  48   3
M  END
>  <minimizedAffinity>  (1) 
-5.23327971

>  <minimizedRMSD>  (1) 
0.464289129

$$$$
