
     RDKit          3D

 39 42  0  0  1  0  0  0  0  0999 V2000
   45.0590   35.2760   43.2210 C   0  0  0  0  0  0  0  0  0  0  0  0
   46.2020   34.5350   42.8610 C   0  0  0  0  0  0  0  0  0  0  0  0
   46.8150   33.7690   43.8680 C   0  0  0  0  0  0  0  0  0  0  0  0
   46.2880   33.7830   45.1020 N   0  0  0  0  0  0  0  0  0  0  0  0
   45.1810   34.5170   45.3980 C   0  0  0  0  0  0  0  0  0  0  0  0
   44.5720   35.2600   44.4580 N   0  0  0  0  0  0  0  0  0  0  0  0
   48.9940   33.7800   42.6620 C   0  0  2  0  0  0  0  0  0  0  0  0
   48.0000   33.0030   43.4830 C   0  0  2  0  0  0  0  0  0  0  0  0
   47.7320   31.9310   42.6070 O   0  0  0  0  0  0  0  0  0  0  0  0
   48.9880   31.4860   42.2390 C   0  0  0  0  0  0  0  0  0  0  0  0
   49.9650   32.6340   42.3420 C   0  0  1  0  0  0  0  0  0  0  0  0
   49.5880   34.8060   43.3510 O   0  0  0  0  0  0  0  0  0  0  0  0
   50.6150   32.9030   41.1530 O   0  0  0  0  0  0  0  0  0  0  0  0
   44.4080   36.1070   42.1330 C   0  0  0  0  0  0  0  0  0  0  0  0
   43.7130   35.2600   41.2090 N   0  0  0  0  0  0  0  0  0  0  0  0
   44.2950   34.2280   40.5520 C   0  0  0  0  0  0  0  0  0  0  0  0
   43.4140   33.6100   39.7560 N   0  0  0  0  0  0  0  0  0  0  0  0
   42.2500   34.2510   39.9010 C   0  0  0  0  0  0  0  0  0  0  0  0
   40.9760   34.1250   39.3840 C   0  0  0  0  0  0  0  0  0  0  0  0
   39.9570   34.9460   39.7250 N   0  0  0  0  0  0  0  0  0  0  0  0
   40.1880   35.9480   40.6230 C   0  0  0  0  0  0  0  0  0  0  0  0
   41.4150   36.0940   41.1460 N   0  0  0  0  0  0  0  0  0  0  0  0
   42.4460   35.2880   40.8190 C   0  0  0  0  0  0  0  0  0  0  0  0
   40.7990   33.0690   38.4580 N   0  0  0  0  0  0  0  0  0  0  0  0
   46.5982   34.5550   41.8350 H   0  0  0  0  0  0  0  0  0  0  0  0
   44.7786   34.5020   46.4217 H   0  0  0  0  0  0  0  0  0  0  0  0
   48.5754   34.3113   41.7945 H   0  0  0  0  0  0  0  0  0  0  0  0
   48.3721   32.6969   44.4719 H   0  0  0  0  0  0  0  0  0  0  0  0
   48.9599   31.1171   41.2031 H   0  0  0  0  0  0  0  0  0  0  0  0
   49.3029   30.6685   42.9043 H   0  0  0  0  0  0  0  0  0  0  0  0
   50.7749   32.4525   43.0638 H   0  0  0  0  0  0  0  0  0  0  0  0
   49.4960   34.6470   44.3238 H   0  0  0  0  0  0  0  0  0  0  0  0
   51.5125   33.2744   41.3443 H   0  0  0  0  0  0  0  0  0  0  0  0
   43.6942   36.8082   42.5900 H   0  0  0  0  0  0  0  0  0  0  0  0
   45.1881   36.6626   41.5920 H   0  0  0  0  0  0  0  0  0  0  0  0
   45.3504   33.9369   40.6585 H   0  0  0  0  0  0  0  0  0  0  0  0
   39.3755   36.6295   40.9152 H   0  0  0  0  0  0  0  0  0  0  0  0
   41.5921   32.4581   38.2157 H   0  0  0  0  0  0  0  0  0  0  0  0
   39.8771   32.9115   38.0265 H   0  0  0  0  0  0  0  0  0  0  0  0
  1  6  1  0
  2  1  2  0
  2  3  1  0
  3  4  2  0
  4  5  1  0
  6  5  2  0
  7 12  1  0
  7  8  1  0
  8  3  1  0
  9  8  1  0
 10 11  1  0
 10  9  1  0
 11  7  1  0
 13 11  1  0
 14  1  1  0
 15 14  1  0
 16 15  1  0
 17 18  1  0
 17 16  2  0
 18 23  2  0
 19 20  2  0
 19 18  1  0
 20 21  1  0
 21 22  2  0
 23 22  1  0
 23 15  1  0
 24 19  1  0
  2 25  1  0
  5 26  1  0
  7 27  1  6
  8 28  1  1
 10 29  1  0
 10 30  1  0
 11 31  1  1
 12 32  1  0
 13 33  1  0
 14 34  1  0
 14 35  1  0
 16 36  1  0
 21 37  1  0
 24 38  1  0
 24 39  1  0
M  ISO  8  25  14  26  14  27  13  28  13  29  13  30  13  31  13  32   3
M  ISO  5  33   3  34   8  35   8  36  14  37  14
M  END
>  <minimizedAffinity>  (1) 
-6.29334021

>  <minimizedRMSD>  (1) 
1.15588439

$$$$
