
     RDKit          3D

 36 38  0  0  1  0  0  0  0  0999 V2000
   44.7800   35.3120   42.7000 C   0  0  0  0  0  0  0  0  0  0  0  0
   45.9160   34.5220   42.4500 C   0  0  0  0  0  0  0  0  0  0  0  0
   46.5600   33.9490   43.5630 C   0  0  0  0  0  0  0  0  0  0  0  0
   46.0580   34.1860   44.7860 N   0  0  0  0  0  0  0  0  0  0  0  0
   44.9580   34.9560   44.9730 C   0  0  0  0  0  0  0  0  0  0  0  0
   44.3240   35.5130   43.9430 N   0  0  0  0  0  0  0  0  0  0  0  0
   48.8490   33.8530   42.5970 C   0  0  2  0  0  0  0  0  0  0  0  0
   47.7280   33.1320   43.2890 C   0  0  2  0  0  0  0  0  0  0  0  0
   47.5070   32.0770   42.3820 O   0  0  0  0  0  0  0  0  0  0  0  0
   48.7670   31.5730   42.1470 C   0  0  0  0  0  0  0  0  0  0  0  0
   49.7860   32.6560   42.3670 C   0  0  1  0  0  0  0  0  0  0  0  0
   49.4200   34.8440   43.3580 O   0  0  0  0  0  0  0  0  0  0  0  0
   50.5760   32.9030   41.2600 O   0  0  0  0  0  0  0  0  0  0  0  0
   44.0970   35.9370   41.4960 C   0  0  0  0  0  0  0  0  0  0  0  0
   42.8770   35.1960   41.2640 N   0  0  0  0  0  0  0  0  0  0  0  0
   41.7250   35.4820   41.8970 C   0  0  0  0  0  0  0  0  0  0  0  0
   40.5930   34.7170   41.6130 C   0  0  0  0  0  0  0  0  0  0  0  0
   40.6490   33.6810   40.7000 C   0  0  0  0  0  0  0  0  0  0  0  0
   39.5840   33.0120   40.4770 O   0  0  0  0  0  0  0  0  0  0  0  0
   41.8230   33.4300   40.0910 N   0  0  0  0  0  0  0  0  0  0  0  0
   42.9020   34.1880   40.3850 C   0  0  0  0  0  0  0  0  0  0  0  0
   43.9490   33.8540   39.7470 O   0  0  0  0  0  0  0  0  0  0  0  0
   46.2862   34.3585   41.4271 H   0  0  0  0  0  0  0  0  0  0  0  0
   44.5827   35.1236   45.9933 H   0  0  0  0  0  0  0  0  0  0  0  0
   48.5587   34.4128   41.6957 H   0  0  0  0  0  0  0  0  0  0  0  0
   47.9681   32.8038   44.3111 H   0  0  0  0  0  0  0  0  0  0  0  0
   48.8311   31.2139   41.1093 H   0  0  0  0  0  0  0  0  0  0  0  0
   48.9634   30.7378   42.8354 H   0  0  0  0  0  0  0  0  0  0  0  0
   50.5034   32.4187   43.1664 H   0  0  0  0  0  0  0  0  0  0  0  0
   49.2990   34.6340   44.3179 H   0  0  0  0  0  0  0  0  0  0  0  0
   51.4781   33.1850   41.5546 H   0  0  0  0  0  0  0  0  0  0  0  0
   43.8638   36.9923   41.7007 H   0  0  0  0  0  0  0  0  0  0  0  0
   44.7511   35.8987   40.6125 H   0  0  0  0  0  0  0  0  0  0  0  0
   41.6762   36.3045   42.6257 H   0  0  0  0  0  0  0  0  0  0  0  0
   39.6441   34.9414   42.1222 H   0  0  0  0  0  0  0  0  0  0  0  0
   41.8982   32.6650   39.4054 H   0  0  0  0  0  0  0  0  0  0  0  0
  1  6  1  0
  2  1  2  0
  2  3  1  0
  3  4  2  0
  4  5  1  0
  6  5  2  0
  7  8  1  0
  7 12  1  0
  8  3  1  0
  9  8  1  0
 10 11  1  0
 10  9  1  0
 11  7  1  0
 13 11  1  0
 14  1  1  0
 15 14  1  0
 15 16  1  0
 17 16  2  0
 18 17  1  0
 19 18  2  0
 20 21  1  0
 20 18  1  0
 21 15  1  0
 22 21  2  0
  2 23  1  0
  5 24  1  0
  7 25  1  6
  8 26  1  1
 10 27  1  0
 10 28  1  0
 11 29  1  1
 12 30  1  0
 13 31  1  0
 14 32  1  0
 14 33  1  0
 16 34  1  0
 17 35  1  0
 20 36  1  0
M  ISO  8  23  14  24  14  25  13  26  13  27  13  28  13  29  13  30   3
M  ISO  6  31   3  32   8  33   8  34  14  35  14  36   9
M  END
>  <minimizedAffinity>  (1) 
-5.37629843

>  <minimizedRMSD>  (1) 
4.69029236

$$$$
