
     RDKit          3D

 27 28  0  0  1  0  0  0  0  0999 V2000
   49.0070   33.7170   42.5950 C   0  0  2  0  0  0  0  0  0  0  0  0
   48.0730   32.8910   43.4390 C   0  0  2  0  0  0  0  0  0  0  0  0
   47.7130   31.8960   42.5070 O   0  0  0  0  0  0  0  0  0  0  0  0
   48.9140   31.4580   42.0180 C   0  0  0  0  0  0  0  0  0  0  0  0
   49.9120   32.5760   42.0850 C   0  0  1  0  0  0  0  0  0  0  0  0
   45.2910   35.3390   43.7190 C   0  0  0  0  0  0  0  0  0  0  0  0
   46.3700   34.6060   43.2060 C   0  0  0  0  0  0  0  0  0  0  0  0
   46.9570   33.6300   43.9990 C   0  0  0  0  0  0  0  0  0  0  0  0
   46.4520   33.4380   45.2300 N   0  0  0  0  0  0  0  0  0  0  0  0
   45.4030   34.1660   45.6990 C   0  0  0  0  0  0  0  0  0  0  0  0
   44.8270   35.1120   44.9430 N   0  0  0  0  0  0  0  0  0  0  0  0
   44.6810   36.4080   42.8280 C   0  0  0  0  0  0  0  0  0  0  0  0
   44.9490   37.6160   43.4680 O   0  0  0  0  0  0  0  0  0  0  0  0
   49.6870   34.6790   43.3000 O   0  0  0  0  0  0  0  0  0  0  0  0
   50.4520   32.9460   40.8670 O   0  0  0  0  0  0  0  0  0  0  0  0
   48.5254   34.3300   41.8190 H   0  0  0  0  0  0  0  0  0  0  0  0
   48.5208   32.5007   44.3648 H   0  0  0  0  0  0  0  0  0  0  0  0
   48.7907   31.1372   40.9731 H   0  0  0  0  0  0  0  0  0  0  0  0
   49.2700   30.6087   42.6196 H   0  0  0  0  0  0  0  0  0  0  0  0
   50.7900   32.3092   42.6916 H   0  0  0  0  0  0  0  0  0  0  0  0
   46.7456   34.8013   42.1907 H   0  0  0  0  0  0  0  0  0  0  0  0
   45.0217   33.9759   46.7131 H   0  0  0  0  0  0  0  0  0  0  0  0
   43.5959   36.2557   42.7309 H   0  0  0  0  0  0  0  0  0  0  0  0
   45.0982   36.3813   41.8105 H   0  0  0  0  0  0  0  0  0  0  0  0
   44.9196   37.4835   44.4487 H   0  0  0  0  0  0  0  0  0  0  0  0
   49.5738   34.5188   44.2704 H   0  0  0  0  0  0  0  0  0  0  0  0
   51.2591   33.4990   41.0182 H   0  0  0  0  0  0  0  0  0  0  0  0
  1 14  1  0
  1  2  1  0
  2  8  1  0
  3  2  1  0
  4  5  1  0
  4  3  1  0
  5  1  1  0
  6 11  2  0
  7  6  1  0
  7  8  2  0
  8  9  1  0
  9 10  2  0
 11 10  1  0
 12 13  1  0
 12  6  1  0
 15  5  1  0
  1 16  1  6
  2 17  1  1
  4 18  1  0
  4 19  1  0
  5 20  1  1
  7 21  1  0
 10 22  1  0
 12 23  1  0
 12 24  1  0
 13 25  1  0
 14 26  1  0
 15 27  1  0
M  ISO  8  16  13  17  13  18  13  19  13  20  13  21  14  22  14  23   8
M  ISO  4  24   8  25   3  26   3  27   3
M  END
>  <minimizedAffinity>  (1) 
-4.75341797

>  <minimizedRMSD>  (1) 
0.152965352

$$$$
