
     RDKit          3D

 30 31  0  0  1  0  0  0  0  0999 V2000
   45.2870   35.6180   44.2110 C   0  0  0  0  0  0  0  0  0  0  0  0
   46.2500   34.8680   43.5180 C   0  0  0  0  0  0  0  0  0  0  0  0
   46.7080   33.6690   44.0760 C   0  0  0  0  0  0  0  0  0  0  0  0
   46.1900   33.3020   45.2570 N   0  0  0  0  0  0  0  0  0  0  0  0
   45.2630   34.0360   45.9090 C   0  0  0  0  0  0  0  0  0  0  0  0
   44.8100   35.1920   45.3920 N   0  0  0  0  0  0  0  0  0  0  0  0
   48.6790   33.7790   42.5670 C   0  0  2  0  0  0  0  0  0  0  0  0
   47.7050   32.9240   43.3280 C   0  0  2  0  0  0  0  0  0  0  0  0
   47.1820   32.1410   42.2770 O   0  0  0  0  0  0  0  0  0  0  0  0
   48.3050   31.6720   41.6390 C   0  0  0  0  0  0  0  0  0  0  0  0
   49.4230   32.6540   41.8220 C   0  0  1  0  0  0  0  0  0  0  0  0
   49.4950   34.5370   43.3690 O   0  0  0  0  0  0  0  0  0  0  0  0
   49.9390   33.1610   40.6430 O   0  0  0  0  0  0  0  0  0  0  0  0
   44.8160   36.9030   43.6040 C   0  0  0  0  0  0  0  0  0  0  0  0
   45.3260   39.2670   44.4740 C   0  0  0  0  0  0  0  0  0  0  0  0
   45.6340   39.6190   43.2910 O   0  0  0  0  0  0  0  0  0  0  0  0
   44.9180   37.9160   44.6350 N   0  0  0  0  0  0  0  0  0  0  0  0
   46.6391   35.2176   42.5503 H   0  0  0  0  0  0  0  0  0  0  0  0
   44.8733   33.6839   46.8755 H   0  0  0  0  0  0  0  0  0  0  0  0
   48.2309   34.5584   41.9332 H   0  0  0  0  0  0  0  0  0  0  0  0
   48.1581   32.3404   44.1430 H   0  0  0  0  0  0  0  0  0  0  0  0
   48.0946   31.5499   40.5662 H   0  0  0  0  0  0  0  0  0  0  0  0
   48.5935   30.7001   42.0659 H   0  0  0  0  0  0  0  0  0  0  0  0
   50.2938   32.2045   42.3217 H   0  0  0  0  0  0  0  0  0  0  0  0
   49.2916   34.3480   44.3193 H   0  0  0  0  0  0  0  0  0  0  0  0
   50.6296   33.8395   40.8499 H   0  0  0  0  0  0  0  0  0  0  0  0
   45.4499   37.1711   42.7459 H   0  0  0  0  0  0  0  0  0  0  0  0
   43.7815   36.8120   43.2414 H   0  0  0  0  0  0  0  0  0  0  0  0
   45.3728   39.9668   45.3214 H   0  0  0  0  0  0  0  0  0  0  0  0
   44.6669   37.6241   45.5903 H   0  0  0  0  0  0  0  0  0  0  0  0
  1  6  2  0
  2  3  2  0
  2  1  1  0
  3  4  1  0
  4  5  2  0
  6  5  1  0
  7  8  1  0
  7 12  1  0
  8  3  1  0
  9  8  1  0
 10 11  1  0
 10  9  1  0
 11  7  1  0
 13 11  1  0
 14  1  1  0
 14 17  1  0
 15 17  1  0
 16 15  2  0
  2 18  1  0
  5 19  1  0
  7 20  1  6
  8 21  1  1
 10 22  1  0
 10 23  1  0
 11 24  1  1
 12 25  1  0
 13 26  1  0
 14 27  1  0
 14 28  1  0
 15 29  1  0
 17 30  1  0
M  ISO  8  18  14  19  14  20  13  21  13  22  13  23  13  24  13  25   3
M  ISO  4  26   3  27   8  28   8  29   6
M  END
>  <minimizedAffinity>  (1) 
-4.66257238

>  <minimizedRMSD>  (1) 
0.984394968

$$$$
