
     RDKit          3D

 45 47  0  0  1  0  0  0  0  0999 V2000
   44.8460   35.0120   42.9960 C   0  0  0  0  0  0  0  0  0  0  0  0
   46.0070   34.2800   42.7240 C   0  0  0  0  0  0  0  0  0  0  0  0
   46.7580   33.7660   43.7880 C   0  0  0  0  0  0  0  0  0  0  0  0
   46.3180   34.0070   45.0200 N   0  0  0  0  0  0  0  0  0  0  0  0
   45.1920   34.7170   45.2660 C   0  0  0  0  0  0  0  0  0  0  0  0
   44.4480   35.2250   44.2570 N   0  0  0  0  0  0  0  0  0  0  0  0
   48.9820   33.7740   42.6730 C   0  0  2  0  0  0  0  0  0  0  0  0
   47.9500   33.0180   43.4320 C   0  0  2  0  0  0  0  0  0  0  0  0
   47.7140   31.9210   42.5530 O   0  0  0  0  0  0  0  0  0  0  0  0
   48.9950   31.4630   42.3090 C   0  0  0  0  0  0  0  0  0  0  0  0
   49.9600   32.6110   42.4070 C   0  0  1  0  0  0  0  0  0  0  0  0
   49.5380   34.8240   43.3380 O   0  0  0  0  0  0  0  0  0  0  0  0
   50.6590   32.8710   41.2350 O   0  0  0  0  0  0  0  0  0  0  0  0
   44.0580   35.5630   41.8370 C   0  0  0  0  0  0  0  0  0  0  0  0
   43.0820   34.4370   39.7420 C   0  0  0  0  0  0  0  0  0  0  0  0
   42.2920   35.4090   39.5890 O   0  0  0  0  0  0  0  0  0  0  0  0
   43.9400   34.4910   40.8650 N   0  0  0  0  0  0  0  0  0  0  0  0
   43.1190   33.3370   38.8390 N   0  0  0  0  0  0  0  0  0  0  0  0
   42.2210   32.2000   38.6350 C   0  0  0  0  0  0  0  0  0  0  0  0
   42.9840   30.9980   39.1910 C   0  0  0  0  0  0  0  0  0  0  0  0
   44.2330   30.7870   38.4110 C   0  0  0  0  0  0  0  0  0  0  0  0
   45.0280   31.9940   38.0800 C   0  0  0  0  0  0  0  0  0  0  0  0
   44.2440   33.2610   37.9000 C   0  0  0  0  0  0  0  0  0  0  0  0
   46.3264   34.1101   41.6852 H   0  0  0  0  0  0  0  0  0  0  0  0
   44.8760   34.8840   46.3063 H   0  0  0  0  0  0  0  0  0  0  0  0
   48.6070   34.3023   41.7840 H   0  0  0  0  0  0  0  0  0  0  0  0
   48.2846   32.7280   44.4390 H   0  0  0  0  0  0  0  0  0  0  0  0
   49.0435   31.0273   41.3001 H   0  0  0  0  0  0  0  0  0  0  0  0
   49.2593   30.6951   43.0509 H   0  0  0  0  0  0  0  0  0  0  0  0
   50.7456   32.4309   43.1556 H   0  0  0  0  0  0  0  0  0  0  0  0
   49.4594   34.6756   44.3137 H   0  0  0  0  0  0  0  0  0  0  0  0
   51.5631   33.2073   41.4577 H   0  0  0  0  0  0  0  0  0  0  0  0
   43.0602   35.8807   42.1739 H   0  0  0  0  0  0  0  0  0  0  0  0
   44.5581   36.4399   41.4000 H   0  0  0  0  0  0  0  0  0  0  0  0
   44.5520   33.6754   41.0101 H   0  0  0  0  0  0  0  0  0  0  0  0
   41.2780   32.3475   39.1818 H   0  0  0  0  0  0  0  0  0  0  0  0
   41.9506   32.0680   37.5770 H   0  0  0  0  0  0  0  0  0  0  0  0
   43.2389   31.1834   40.2449 H   0  0  0  0  0  0  0  0  0  0  0  0
   42.3525   30.1006   39.1138 H   0  0  0  0  0  0  0  0  0  0  0  0
   44.8786   30.1129   38.9930 H   0  0  0  0  0  0  0  0  0  0  0  0
   43.9019   30.3864   37.4415 H   0  0  0  0  0  0  0  0  0  0  0  0
   45.7504   32.1564   38.8935 H   0  0  0  0  0  0  0  0  0  0  0  0
   45.4931   31.7883   37.1046 H   0  0  0  0  0  0  0  0  0  0  0  0
   44.9097   34.1201   38.0699 H   0  0  0  0  0  0  0  0  0  0  0  0
   43.8402   33.2738   36.8769 H   0  0  0  0  0  0  0  0  0  0  0  0
  1  6  1  0
  2  1  2  0
  2  3  1  0
  3  4  2  0
  4  5  1  0
  6  5  2  0
  7 12  1  0
  7  8  1  0
  8  3  1  0
  9  8  1  0
 10 11  1  0
 10  9  1  0
 11  7  1  0
 13 11  1  0
 14  1  1  0
 15 17  1  0
 16 15  2  0
 17 14  1  0
 18 15  1  0
 19 18  1  0
 19 20  1  0
 21 20  1  0
 22 21  1  0
 23 22  1  0
 23 18  1  0
  2 24  1  0
  5 25  1  0
  7 26  1  6
  8 27  1  1
 10 28  1  0
 10 29  1  0
 11 30  1  1
 12 31  1  0
 13 32  1  0
 14 33  1  0
 14 34  1  0
 17 35  1  0
 19 36  1  0
 19 37  1  0
 20 38  1  0
 20 39  1  0
 21 40  1  0
 21 41  1  0
 22 42  1  0
 22 43  1  0
 23 44  1  0
 23 45  1  0
M  ISO  8  24  14  25  14  26  13  27  13  28  13  29  13  30  13  31   3
M  ISO  8  32   3  33   8  34   8  36  13  37  13  38  13  39  13  40  13
M  ISO  5  41  13  42  13  43  13  44  13  45  13
M  END
>  <minimizedAffinity>  (1) 
-5.08439827

>  <minimizedRMSD>  (1) 
6.65496492

$$$$
