
     RDKit          3D

 45 47  0  0  1  0  0  0  0  0999 V2000
   45.5450   35.6020   43.6840 C   0  0  0  0  0  0  0  0  0  0  0  0
   46.5940   34.7960   43.2210 C   0  0  0  0  0  0  0  0  0  0  0  0
   46.9920   33.6820   43.9810 C   0  0  0  0  0  0  0  0  0  0  0  0
   46.3450   33.4510   45.1080 N   0  0  0  0  0  0  0  0  0  0  0  0
   45.3290   34.2400   45.5430 C   0  0  0  0  0  0  0  0  0  0  0  0
   44.9260   35.3180   44.8340 N   0  0  0  0  0  0  0  0  0  0  0  0
   49.0770   33.6420   42.6220 C   0  0  2  0  0  0  0  0  0  0  0  0
   48.0840   32.9070   43.4240 C   0  0  2  0  0  0  0  0  0  0  0  0
   47.6650   31.8850   42.4990 O   0  0  0  0  0  0  0  0  0  0  0  0
   48.9050   31.3660   42.1310 C   0  0  0  0  0  0  0  0  0  0  0  0
   49.9400   32.4370   42.1760 C   0  0  1  0  0  0  0  0  0  0  0  0
   49.7660   34.6070   43.2680 O   0  0  0  0  0  0  0  0  0  0  0  0
   50.5240   32.7450   40.9430 O   0  0  0  0  0  0  0  0  0  0  0  0
   45.1400   36.8000   42.8550 C   0  0  0  0  0  0  0  0  0  0  0  0
   45.4390   39.1700   43.8520 C   0  0  0  0  0  0  0  0  0  0  0  0
   46.2600   39.4400   42.9460 O   0  0  0  0  0  0  0  0  0  0  0  0
   44.8540   37.8700   43.7920 N   0  0  0  0  0  0  0  0  0  0  0  0
   45.0620   40.0840   44.9300 C   0  0  0  0  0  0  0  0  0  0  0  0
   45.1960   39.7020   46.2230 C   0  0  0  0  0  0  0  0  0  0  0  0
   44.8120   40.6370   47.1820 C   0  0  0  0  0  0  0  0  0  0  0  0
   44.3140   41.8990   46.9000 C   0  0  0  0  0  0  0  0  0  0  0  0
   44.2150   42.1960   45.5560 C   0  0  0  0  0  0  0  0  0  0  0  0
   44.5750   41.3220   44.6140 N   0  0  0  0  0  0  0  0  0  0  0  0
   43.6890   43.5360   45.1610 C   0  0  0  0  0  0  0  0  0  0  0  0
   42.2070   43.4980   44.9020 C   0  0  0  0  0  0  0  0  0  0  0  0
   47.1003   35.0323   42.2735 H   0  0  0  0  0  0  0  0  0  0  0  0
   44.8246   33.9974   46.4899 H   0  0  0  0  0  0  0  0  0  0  0  0
   48.6465   34.2576   41.8184 H   0  0  0  0  0  0  0  0  0  0  0  0
   48.5160   32.5283   44.3620 H   0  0  0  0  0  0  0  0  0  0  0  0
   48.8424   30.9628   41.1095 H   0  0  0  0  0  0  0  0  0  0  0  0
   49.1835   30.5654   42.8320 H   0  0  0  0  0  0  0  0  0  0  0  0
   50.7910   32.1515   42.8119 H   0  0  0  0  0  0  0  0  0  0  0  0
   49.6749   34.4794   44.2455 H   0  0  0  0  0  0  0  0  0  0  0  0
   51.3896   33.2015   41.0927 H   0  0  0  0  0  0  0  0  0  0  0  0
   45.9603   37.0922   42.1830 H   0  0  0  0  0  0  0  0  0  0  0  0
   44.2640   36.5737   42.2293 H   0  0  0  0  0  0  0  0  0  0  0  0
   44.1382   37.6654   44.5038 H   0  0  0  0  0  0  0  0  0  0  0  0
   45.5854   38.7111   46.4996 H   0  0  0  0  0  0  0  0  0  0  0  0
   44.9114   40.3527   48.2400 H   0  0  0  0  0  0  0  0  0  0  0  0
   44.0202   42.6093   47.6868 H   0  0  0  0  0  0  0  0  0  0  0  0
   43.8910   44.2514   45.9718 H   0  0  0  0  0  0  0  0  0  0  0  0
   44.1918   43.8414   44.2315 H   0  0  0  0  0  0  0  0  0  0  0  0
   41.6675   43.4842   45.8605 H   0  0  0  0  0  0  0  0  0  0  0  0
   41.9121   44.3889   44.3281 H   0  0  0  0  0  0  0  0  0  0  0  0
   41.9582   42.5932   44.3281 H   0  0  0  0  0  0  0  0  0  0  0  0
  1  6  1  0
  2  1  2  0
  2  3  1  0
  3  4  2  0
  4  5  1  0
  6  5  2  0
  7 12  1  0
  7  8  1  0
  8  3  1  0
  9  8  1  0
 10 11  1  0
 10  9  1  0
 11  7  1  0
 13 11  1  0
 14  1  1  0
 14 17  1  0
 15 18  1  0
 16 15  2  0
 17 15  1  0
 18 19  2  0
 19 20  1  0
 21 20  2  0
 22 21  1  0
 23 18  1  0
 23 22  2  0
 24 22  1  0
 25 24  1  0
  2 26  1  0
  5 27  1  0
  7 28  1  6
  8 29  1  1
 10 30  1  0
 10 31  1  0
 11 32  1  1
 12 33  1  0
 13 34  1  0
 14 35  1  0
 14 36  1  0
 17 37  1  0
 19 38  1  0
 20 39  1  0
 21 40  1  0
 24 41  1  0
 24 42  1  0
 25 43  1  0
 25 44  1  0
 25 45  1  0
M  ISO  8  26  14  27  14  28  13  29  13  30  13  31  13  32  13  33   3
M  ISO  8  34   3  35   8  36   8  38  14  39  14  40  14  41   8  42   8
M  ISO  3  43   8  44   8  45   8
M  END
>  <minimizedAffinity>  (1) 
-4.99955463

>  <minimizedRMSD>  (1) 
0.201611638

$$$$
