
     RDKit          3D

 12 12  0  0  0  0  0  0  0  0999 V2000
   44.5200   36.0290   44.5450 C   0  0  0  0  0  0  0  0  0  0  0  0
   45.1920   35.9730   43.3140 C   0  0  0  0  0  0  0  0  0  0  0  0
   46.0790   34.9150   43.1030 C   0  0  0  0  0  0  0  0  0  0  0  0
   46.2380   34.0080   44.1000 N   0  0  0  0  0  0  0  0  0  0  0  0
   45.5770   34.0920   45.2710 C   0  0  0  0  0  0  0  0  0  0  0  0
   44.7230   35.1000   45.4870 N   0  0  0  0  0  0  0  0  0  0  0  0
   46.7730   34.8230   41.8780 N   0  0  0  0  0  0  0  0  0  0  0  0
   43.8145   36.8504   44.7389 H   0  0  0  0  0  0  0  0  0  0  0  0
   45.0255   36.7374   42.5407 H   0  0  0  0  0  0  0  0  0  0  0  0
   45.7391   33.3322   46.0497 H   0  0  0  0  0  0  0  0  0  0  0  0
   47.4288   34.0457   41.7148 H   0  0  0  0  0  0  0  0  0  0  0  0
   46.6238   35.5331   41.1470 H   0  0  0  0  0  0  0  0  0  0  0  0
  1  6  2  0
  2  1  1  0
  3  2  2  0
  3  4  1  0
  4  5  2  0
  5  6  1  0
  7  3  1  0
  1  8  1  0
  2  9  1  0
  5 10  1  0
  7 11  1  0
  7 12  1  0
M  ISO  3   8  14   9  14  10  14
M  END
>  <minimizedAffinity>  (1) 
-2.94205499

>  <minimizedRMSD>  (1) 
0.48265928

$$$$
