
     RDKit          3D

 26 28  0  0  0  0  0  0  0  0999 V2000
   45.8610   32.8840   46.4150 C   0  0  0  0  0  0  0  0  0  0  0  0
   45.3190   32.9890   47.6420 N   0  0  0  0  0  0  0  0  0  0  0  0
   45.4750   32.0940   48.6190 C   0  0  0  0  0  0  0  0  0  0  0  0
   46.2040   30.9880   48.4490 N   0  0  0  0  0  0  0  0  0  0  0  0
   46.7910   30.7860   47.2520 C   0  0  0  0  0  0  0  0  0  0  0  0
   47.5430   29.6440   47.0790 C   0  0  0  0  0  0  0  0  0  0  0  0
   48.1610   29.3990   45.8710 C   0  0  0  0  0  0  0  0  0  0  0  0
   47.9890   30.3440   44.8590 C   0  0  0  0  0  0  0  0  0  0  0  0
   47.2300   31.4570   45.0960 C   0  0  0  0  0  0  0  0  0  0  0  0
   46.5980   31.7380   46.2850 C   0  0  0  0  0  0  0  0  0  0  0  0
   44.5000   35.8460   44.9040 C   0  0  0  0  0  0  0  0  0  0  0  0
   45.0520   35.9650   43.6350 C   0  0  0  0  0  0  0  0  0  0  0  0
   45.9430   34.9760   43.2690 C   0  0  0  0  0  0  0  0  0  0  0  0
   46.1690   34.0270   44.1690 N   0  0  0  0  0  0  0  0  0  0  0  0
   45.6670   33.8810   45.3790 C   0  0  0  0  0  0  0  0  0  0  0  0
   44.8020   34.8470   45.7260 N   0  0  0  0  0  0  0  0  0  0  0  0
   46.6020   34.9380   42.0070 N   0  0  0  0  0  0  0  0  0  0  0  0
   44.9903   32.2717   49.5903 H   0  0  0  0  0  0  0  0  0  0  0  0
   47.6503   28.9268   47.9061 H   0  0  0  0  0  0  0  0  0  0  0  0
   48.7658   28.4942   45.7114 H   0  0  0  0  0  0  0  0  0  0  0  0
   48.4609   30.1949   43.8766 H   0  0  0  0  0  0  0  0  0  0  0  0
   47.1167   32.1806   44.2753 H   0  0  0  0  0  0  0  0  0  0  0  0
   43.7840   36.6096   45.2420 H   0  0  0  0  0  0  0  0  0  0  0  0
   44.7949   36.7967   42.9625 H   0  0  0  0  0  0  0  0  0  0  0  0
   47.2574   34.1733   41.7911 H   0  0  0  0  0  0  0  0  0  0  0  0
   46.4232   35.6752   41.3103 H   0  0  0  0  0  0  0  0  0  0  0  0
  1  2  2  0
  2  3  1  0
  4  3  2  0
  5  4  1  0
  6  5  2  0
  7  6  1  0
  8  9  1  0
  8  7  2  0
  9 10  2  0
 10  1  1  0
 10  5  1  0
 11 16  2  0
 12 11  1  0
 13 12  2  0
 13 14  1  0
 14 15  2  0
 15 16  1  0
 15  1  1  0
 17 13  1  0
  3 18  1  0
  6 19  1  0
  7 20  1  0
  8 21  1  0
  9 22  1  0
 11 23  1  0
 12 24  1  0
 17 25  1  0
 17 26  1  0
M  ISO  7  18  14  19  14  20  14  21  14  22  14  23  14  24  14
M  END
>  <minimizedAffinity>  (1) 
-5.21866322

>  <minimizedRMSD>  (1) 
0.494934618

$$$$
