
     RDKit          3D

 22 23  0  0  0  0  0  0  0  0999 V2000
   44.5480   35.9170   44.3980 C   0  0  0  0  0  0  0  0  0  0  0  0
   45.2840   35.8610   43.2110 C   0  0  0  0  0  0  0  0  0  0  0  0
   46.2490   34.8680   43.0860 C   0  0  0  0  0  0  0  0  0  0  0  0
   46.4250   34.0080   44.1220 N   0  0  0  0  0  0  0  0  0  0  0  0
   45.7020   34.0880   45.2520 C   0  0  0  0  0  0  0  0  0  0  0  0
   44.7740   35.0330   45.3850 N   0  0  0  0  0  0  0  0  0  0  0  0
   44.2850   34.0450   47.6020 F   0  0  0  0  0  0  0  0  0  0  0  0
   45.2450   33.1080   47.4850 C   0  0  0  0  0  0  0  0  0  0  0  0
   45.9640   33.1160   46.3110 C   0  0  0  0  0  0  0  0  0  0  0  0
   46.9590   32.1750   46.1440 C   0  0  0  0  0  0  0  0  0  0  0  0
   47.3020   31.2150   47.0580 C   0  0  0  0  0  0  0  0  0  0  0  0
   46.5550   31.2360   48.2320 C   0  0  0  0  0  0  0  0  0  0  0  0
   45.5520   32.1600   48.4380 C   0  0  0  0  0  0  0  0  0  0  0  0
   47.0180   34.7680   41.9080 N   0  0  0  0  0  0  0  0  0  0  0  0
   43.7771   36.6913   44.5255 H   0  0  0  0  0  0  0  0  0  0  0  0
   45.1049   36.5816   42.3994 H   0  0  0  0  0  0  0  0  0  0  0  0
   47.5226   32.1979   45.1997 H   0  0  0  0  0  0  0  0  0  0  0  0
   48.1048   30.4847   46.8785 H   0  0  0  0  0  0  0  0  0  0  0  0
   46.7703   30.4958   49.0167 H   0  0  0  0  0  0  0  0  0  0  0  0
   44.9859   32.1403   49.3810 H   0  0  0  0  0  0  0  0  0  0  0  0
   47.7318   34.0307   41.8200 H   0  0  0  0  0  0  0  0  0  0  0  0
   46.8658   35.4323   41.1357 H   0  0  0  0  0  0  0  0  0  0  0  0
  1  6  2  0
  2  1  1  0
  3  2  2  0
  3  4  1  0
  4  5  2  0
  5  6  1  0
  5  9  1  0
  8  7  1  0
  8 13  2  0
  9  8  1  0
 10  9  2  0
 10 11  1  0
 11 12  2  0
 12 13  1  0
 14  3  1  0
  1 15  1  0
  2 16  1  0
 10 17  1  0
 11 18  1  0
 12 19  1  0
 13 20  1  0
 14 21  1  0
 14 22  1  0
M  ISO  6  15  14  16  14  17  14  18  14  19  14  20  14
M  END
>  <minimizedAffinity>  (1) 
-5.12363052

>  <minimizedRMSD>  (1) 
0.773741722

$$$$
