
     RDKit          3D

 49 53  0  0  1  0  0  0  0  0999 V2000
   47.9730   33.0690   42.1320 N   0  0  0  0  0  0  0  0  0  0  0  0
   47.3710   33.0780   43.4010 C   0  0  0  0  0  0  0  0  0  0  0  0
   47.6160   32.0750   44.2850 C   0  0  0  0  0  0  0  0  0  0  0  0
   46.9830   31.9790   45.5120 C   0  0  0  0  0  0  0  0  0  0  0  0
   46.0460   32.9300   45.8960 C   0  0  0  0  0  0  0  0  0  0  0  0
   45.7760   33.9610   45.0230 C   0  0  0  0  0  0  0  0  0  0  0  0
   44.8470   34.9170   45.3840 C   0  0  0  0  0  0  0  0  0  0  0  0
   44.5330   35.9710   44.5670 C   0  0  0  0  0  0  0  0  0  0  0  0
   45.1980   36.0330   43.3590 C   0  0  0  0  0  0  0  0  0  0  0  0
   46.1220   35.0660   43.0190 C   0  0  0  0  0  0  0  0  0  0  0  0
   46.4300   34.0150   43.8240 C   0  0  0  0  0  0  0  0  0  0  0  0
   46.7750   35.1690   41.8170 O   0  0  0  0  0  0  0  0  0  0  0  0
   50.3040   32.1170   41.6940 C   0  0  1  0  0  0  0  0  0  0  0  0
   49.6050   32.2420   40.3700 C   0  0  0  0  0  0  0  0  0  0  0  0
   48.8660   32.0250   41.7250 C   0  0  2  0  0  0  0  0  0  0  0  0
   52.0680   28.8740   41.1540 C   0  0  0  0  0  0  0  0  0  0  0  0
   52.4800   28.5530   42.4820 C   0  0  0  0  0  0  0  0  0  0  0  0
   52.1450   29.4710   43.5260 C   0  0  0  0  0  0  0  0  0  0  0  0
   51.4750   30.5650   43.2140 N   0  0  0  0  0  0  0  0  0  0  0  0
   51.0940   30.8490   41.9530 C   0  0  0  0  0  0  0  0  0  0  0  0
   51.3890   30.0050   40.9110 N   0  0  0  0  0  0  0  0  0  0  0  0
   52.5310   29.2140   44.9240 C   0  0  0  0  0  0  0  0  0  0  0  0
   53.4140   28.0280   45.1290 C   0  0  0  0  0  0  0  0  0  0  0  0
   54.7880   28.5420   44.8300 C   0  0  0  0  0  0  0  0  0  0  0  0
   54.7730   29.9320   45.4220 C   0  0  0  0  0  0  0  0  0  0  0  0
   53.3420   30.3520   45.5150 C   0  0  0  0  0  0  0  0  0  0  0  0
   47.7666   33.8350   41.4751 H   0  0  0  0  0  0  0  0  0  0  0  0
   48.3515   31.3038   44.0125 H   0  0  0  0  0  0  0  0  0  0  0  0
   47.2233   31.1446   46.1873 H   0  0  0  0  0  0  0  0  0  0  0  0
   45.5351   32.8619   46.8678 H   0  0  0  0  0  0  0  0  0  0  0  0
   44.3434   34.8295   46.3580 H   0  0  0  0  0  0  0  0  0  0  0  0
   43.7900   36.7280   44.8584 H   0  0  0  0  0  0  0  0  0  0  0  0
   44.9900   36.8587   42.6627 H   0  0  0  0  0  0  0  0  0  0  0  0
   47.4413   34.4851   41.5554 H   0  0  0  0  0  0  0  0  0  0  0  0
   51.0314   32.7478   42.2260 H   0  0  0  0  0  0  0  0  0  0  0  0
   49.5537   33.2114   39.8527 H   0  0  0  0  0  0  0  0  0  0  0  0
   49.6474   31.7391   39.3926 H   0  0  0  0  0  0  0  0  0  0  0  0
   48.1986   31.2923   42.2022 H   0  0  0  0  0  0  0  0  0  0  0  0
   52.3083   28.1909   40.3259 H   0  0  0  0  0  0  0  0  0  0  0  0
   53.0374   27.6291   42.6957 H   0  0  0  0  0  0  0  0  0  0  0  0
   51.5516   29.0666   45.4027 H   0  0  0  0  0  0  0  0  0  0  0  0
   53.3489   27.6669   46.1660 H   0  0  0  0  0  0  0  0  0  0  0  0
   53.1331   27.1764   44.4919 H   0  0  0  0  0  0  0  0  0  0  0  0
   55.5559   27.9173   45.3096 H   0  0  0  0  0  0  0  0  0  0  0  0
   55.0279   28.5329   43.7565 H   0  0  0  0  0  0  0  0  0  0  0  0
   55.2293   29.9213   46.4228 H   0  0  0  0  0  0  0  0  0  0  0  0
   55.3474   30.6312   44.7965 H   0  0  0  0  0  0  0  0  0  0  0  0
   53.1772   31.2763   44.9418 H   0  0  0  0  0  0  0  0  0  0  0  0
   53.0496   30.5562   46.5556 H   0  0  0  0  0  0  0  0  0  0  0  0
  1  2  1  0
  2 11  1  0
  2  3  2  0
  3  4  1  0
  4  5  2  0
  6  7  2  0
  6  5  1  0
  8  7  1  0
  9  8  2  0
 10  9  1  0
 10 11  2  0
 11  6  1  0
 12 10  1  0
 13 15  1  0
 13 20  1  0
 14 13  1  0
 14 15  1  0
 15  1  1  0
 16 17  2  0
 17 18  1  0
 18 22  1  0
 19 18  2  0
 20 19  1  0
 21 16  1  0
 21 20  2  0
 22 23  1  0
 22 26  1  0
 24 23  1  0
 24 25  1  0
 25 26  1  0
  1 27  1  0
  3 28  1  0
  4 29  1  0
  5 30  1  0
  7 31  1  0
  8 32  1  0
  9 33  1  0
 12 34  1  0
 13 35  1  1
 14 36  1  0
 14 37  1  0
 15 38  1  6
 16 39  1  0
 17 40  1  0
 22 41  1  0
 23 42  1  0
 23 43  1  0
 24 44  1  0
 24 45  1  0
 25 46  1  0
 25 47  1  0
 26 48  1  0
 26 49  1  0
M  ISO  8  28  14  29  14  30  14  31  14  32  14  33  14  34   3  35  13
M  ISO  8  36  13  37  13  38  13  39  14  40  14  41  13  42  13  43  13
M  ISO  6  44  13  45  13  46  13  47  13  48  13  49  13
M  END
>  <minimizedAffinity>  (1) 
-4.99871683

>  <minimizedRMSD>  (1) 
1.01574564

$$$$
