
     RDKit          3D

 23 24  0  0  0  0  0  0  0  0999 V2000
   44.4900   35.9210   44.7810 C   0  0  0  0  0  0  0  0  0  0  0  0
   45.1470   35.9290   43.5470 C   0  0  0  0  0  0  0  0  0  0  0  0
   46.0540   34.9130   43.2690 C   0  0  0  0  0  0  0  0  0  0  0  0
   46.2470   33.9700   44.2170 N   0  0  0  0  0  0  0  0  0  0  0  0
   45.6020   33.9800   45.4010 C   0  0  0  0  0  0  0  0  0  0  0  0
   44.7220   34.9620   45.6750 N   0  0  0  0  0  0  0  0  0  0  0  0
   46.6800   31.8690   46.0340 C   0  0  0  0  0  0  0  0  0  0  0  0
   45.8630   32.9230   46.3820 C   0  0  0  0  0  0  0  0  0  0  0  0
   45.2570   33.0600   47.6120 C   0  0  0  0  0  0  0  0  0  0  0  0
   45.4960   32.0650   48.5480 C   0  0  0  0  0  0  0  0  0  0  0  0
   46.3140   31.0070   48.2070 C   0  0  0  0  0  0  0  0  0  0  0  0
   46.9270   30.8650   46.9690 C   0  0  0  0  0  0  0  0  0  0  0  0
   47.8020   31.6390   43.7210 N   0  0  0  0  0  0  0  0  0  0  0  0
   47.2950   31.7510   44.7550 C   0  0  0  0  0  0  0  0  0  0  0  0
   46.7370   34.8900   42.0300 N   0  0  0  0  0  0  0  0  0  0  0  0
   43.7706   36.7190   45.0169 H   0  0  0  0  0  0  0  0  0  0  0  0
   44.9503   36.7228   42.8113 H   0  0  0  0  0  0  0  0  0  0  0  0
   44.6119   33.9209   47.8414 H   0  0  0  0  0  0  0  0  0  0  0  0
   45.0402   32.1183   49.5477 H   0  0  0  0  0  0  0  0  0  0  0  0
   46.4915   30.2278   48.9628 H   0  0  0  0  0  0  0  0  0  0  0  0
   47.5735   30.0054   46.7383 H   0  0  0  0  0  0  0  0  0  0  0  0
   47.4087   34.1362   41.8261 H   0  0  0  0  0  0  0  0  0  0  0  0
   46.5625   35.6270   41.3320 H   0  0  0  0  0  0  0  0  0  0  0  0
  1  6  2  0
  2  1  1  0
  3  2  2  0
  3  4  1  0
  4  5  2  0
  5  6  1  0
  5  8  1  0
  7  8  2  0
  7 12  1  0
  8  9  1  0
  9 10  2  0
 11 10  1  0
 12 11  2  0
 13 14  3  0
 14  7  1  0
 15  3  1  0
  1 16  1  0
  2 17  1  0
  9 18  1  0
 10 19  1  0
 11 20  1  0
 12 21  1  0
 15 22  1  0
 15 23  1  0
M  ISO  6  16  14  17  14  18  14  19  14  20  14  21  14
M  END
>  <minimizedAffinity>  (1) 
-4.76313496

>  <minimizedRMSD>  (1) 
0.303664774

$$$$
