
     RDKit          3D

 20 21  0  0  0  0  0  0  0  0999 V2000
   44.4870   35.8960   44.7260 C   0  0  0  0  0  0  0  0  0  0  0  0
   45.1260   35.8800   43.4670 C   0  0  0  0  0  0  0  0  0  0  0  0
   46.0600   34.8630   43.2350 C   0  0  0  0  0  0  0  0  0  0  0  0
   46.2930   33.9670   44.2140 N   0  0  0  0  0  0  0  0  0  0  0  0
   45.6680   34.0070   45.4040 C   0  0  0  0  0  0  0  0  0  0  0  0
   44.7770   34.9690   45.6380 N   0  0  0  0  0  0  0  0  0  0  0  0
   45.9670   33.0050   46.4230 C   0  0  0  0  0  0  0  0  0  0  0  0
   46.9890   32.1000   46.2380 C   0  0  0  0  0  0  0  0  0  0  0  0
   47.1890   31.1840   47.2770 C   0  0  0  0  0  0  0  0  0  0  0  0
   46.4320   31.1870   48.3860 N   0  0  0  0  0  0  0  0  0  0  0  0
   45.4470   32.0800   48.5350 C   0  0  0  0  0  0  0  0  0  0  0  0
   45.2190   32.9760   47.5640 N   0  0  0  0  0  0  0  0  0  0  0  0
   46.7110   34.8290   41.9820 N   0  0  0  0  0  0  0  0  0  0  0  0
   43.7468   36.6769   44.9548 H   0  0  0  0  0  0  0  0  0  0  0  0
   44.8994   36.6353   42.7001 H   0  0  0  0  0  0  0  0  0  0  0  0
   47.6095   32.0975   45.3297 H   0  0  0  0  0  0  0  0  0  0  0  0
   47.9918   30.4380   47.1821 H   0  0  0  0  0  0  0  0  0  0  0  0
   44.8300   32.0791   49.4456 H   0  0  0  0  0  0  0  0  0  0  0  0
   47.4032   34.0932   41.7811 H   0  0  0  0  0  0  0  0  0  0  0  0
   46.4935   35.5400   41.2692 H   0  0  0  0  0  0  0  0  0  0  0  0
  1  6  2  0
  2  1  1  0
  3  2  2  0
  3  4  1  0
  4  5  2  0
  5  6  1  0
  5  7  1  0
  7 12  1  0
  8  7  2  0
  8  9  1  0
  9 10  2  0
 10 11  1  0
 12 11  2  0
 13  3  1  0
  1 14  1  0
  2 15  1  0
  8 16  1  0
  9 17  1  0
 11 18  1  0
 13 19  1  0
 13 20  1  0
M  ISO  5  14  14  15  14  16  14  17  14  18  14
M  END
>  <minimizedAffinity>  (1) 
-4.58217049

>  <minimizedRMSD>  (1) 
0.251566291

$$$$
