
     RDKit          3D

 19 20  0  0  0  0  0  0  0  0999 V2000
   44.5520   35.6820   45.0330 C   0  0  0  0  0  0  0  0  0  0  0  0
   45.1170   35.8370   43.7470 C   0  0  0  0  0  0  0  0  0  0  0  0
   46.0040   34.8600   43.3170 C   0  0  0  0  0  0  0  0  0  0  0  0
   46.2730   33.8200   44.1610 N   0  0  0  0  0  0  0  0  0  0  0  0
   45.7190   33.7030   45.3770 C   0  0  0  0  0  0  0  0  0  0  0  0
   44.8650   34.6340   45.8000 N   0  0  0  0  0  0  0  0  0  0  0  0
   46.6010   34.9640   42.0380 N   0  0  0  0  0  0  0  0  0  0  0  0
   46.0830   32.5270   46.2100 C   0  0  0  0  0  0  0  0  0  0  0  0
   45.4940   32.6480   47.6090 C   0  0  0  0  0  0  0  0  0  0  0  0
   46.9870   32.6000   47.3510 C   0  0  0  0  0  0  0  0  0  0  0  0
   43.8439   36.4356   45.4081 H   0  0  0  0  0  0  0  0  0  0  0  0
   44.8637   36.6984   43.1116 H   0  0  0  0  0  0  0  0  0  0  0  0
   47.2596   34.2402   41.7167 H   0  0  0  0  0  0  0  0  0  0  0  0
   46.3769   35.7635   41.4285 H   0  0  0  0  0  0  0  0  0  0  0  0
   46.0916   31.8363   45.3539 H   0  0  0  0  0  0  0  0  0  0  0  0
   45.0142   33.5834   47.9326 H   0  0  0  0  0  0  0  0  0  0  0  0
   44.7758   32.0805   48.2191 H   0  0  0  0  0  0  0  0  0  0  0  0
   47.5637   31.7116   47.6479 H   0  0  0  0  0  0  0  0  0  0  0  0
   47.8345   33.2477   47.6197 H   0  0  0  0  0  0  0  0  0  0  0  0
  1  6  2  0
  2  1  1  0
  3  2  2  0
  3  4  1  0
  4  5  2  0
  5  6  1  0
  5  8  1  0
  7  3  1  0
  8 10  1  0
  8  9  1  0
 10  9  1  0
  1 11  1  0
  2 12  1  0
  7 13  1  0
  7 14  1  0
  8 15  1  0
  9 16  1  0
  9 17  1  0
 10 18  1  0
 10 19  1  0
M  ISO  7  11  14  12  14  15  13  16  13  17  13  18  13  19  13
M  END
>  <minimizedAffinity>  (1) 
-3.78335762

>  <minimizedRMSD>  (1) 
0.677538991

$$$$
