
     RDKit          3D

 44 48  0  0  0  0  0  0  0  0999 V2000
   46.1040   32.2740   46.1120 C   0  0  0  0  0  0  0  0  0  0  0  0
   45.5620   32.8820   47.2260 C   0  0  0  0  0  0  0  0  0  0  0  0
   45.8090   32.4440   48.5350 C   0  0  0  0  0  0  0  0  0  0  0  0
   46.6330   31.3540   48.7780 C   0  0  0  0  0  0  0  0  0  0  0  0
   47.1880   30.7170   47.6750 C   0  0  0  0  0  0  0  0  0  0  0  0
   47.9630   29.6080   47.9050 C   0  0  0  0  0  0  0  0  0  0  0  0
   48.4620   28.9090   46.7700 C   0  0  0  0  0  0  0  0  0  0  0  0
   48.1130   29.4020   45.4760 C   0  0  0  0  0  0  0  0  0  0  0  0
   47.3780   30.4600   45.4080 C   0  0  0  0  0  0  0  0  0  0  0  0
   46.8760   31.2170   46.4240 C   0  0  0  0  0  0  0  0  0  0  0  0
   46.9080   30.1810   44.0500 C   0  0  0  0  0  0  0  0  0  0  0  0
   47.8690   30.5580   43.0470 C   0  0  0  0  0  0  0  0  0  0  0  0
   47.6910   30.4760   41.6830 C   0  0  0  0  0  0  0  0  0  0  0  0
   46.4860   29.9920   41.2240 C   0  0  0  0  0  0  0  0  0  0  0  0
   45.5250   29.6160   42.1340 C   0  0  0  0  0  0  0  0  0  0  0  0
   44.2670   29.1580   41.8110 C   0  0  0  0  0  0  0  0  0  0  0  0
   43.2790   28.8150   42.7110 C   0  0  0  0  0  0  0  0  0  0  0  0
   43.5690   28.9370   44.0750 C   0  0  0  0  0  0  0  0  0  0  0  0
   44.8070   29.3860   44.4430 C   0  0  0  0  0  0  0  0  0  0  0  0
   45.7530   29.7160   43.4860 C   0  0  0  0  0  0  0  0  0  0  0  0
   45.3020   33.7420   42.7880 C   0  0  0  0  0  0  0  0  0  0  0  0
   46.5380   34.3190   42.4590 C   0  0  0  0  0  0  0  0  0  0  0  0
   47.5820   34.1420   43.3720 C   0  0  0  0  0  0  0  0  0  0  0  0
   47.2780   33.4420   44.4630 N   0  0  0  0  0  0  0  0  0  0  0  0
   46.1360   32.8900   44.8000 C   0  0  0  0  0  0  0  0  0  0  0  0
   45.1510   33.0620   43.9230 N   0  0  0  0  0  0  0  0  0  0  0  0
   48.8870   34.5980   43.1180 N   0  0  0  0  0  0  0  0  0  0  0  0
   44.9047   33.7519   47.0801 H   0  0  0  0  0  0  0  0  0  0  0  0
   45.3434   32.9714   49.3806 H   0  0  0  0  0  0  0  0  0  0  0  0
   46.8383   31.0085   49.8020 H   0  0  0  0  0  0  0  0  0  0  0  0
   48.1899   29.2721   48.9276 H   0  0  0  0  0  0  0  0  0  0  0  0
   49.0961   28.0177   46.8859 H   0  0  0  0  0  0  0  0  0  0  0  0
   48.4607   28.8945   44.5641 H   0  0  0  0  0  0  0  0  0  0  0  0
   48.8345   30.9475   43.4020 H   0  0  0  0  0  0  0  0  0  0  0  0
   48.4831   30.7861   40.9856 H   0  0  0  0  0  0  0  0  0  0  0  0
   46.2945   29.9072   40.1441 H   0  0  0  0  0  0  0  0  0  0  0  0
   44.0290   29.0568   40.7418 H   0  0  0  0  0  0  0  0  0  0  0  0
   42.2967   28.4578   42.3683 H   0  0  0  0  0  0  0  0  0  0  0  0
   42.8170   28.6772   44.8346 H   0  0  0  0  0  0  0  0  0  0  0  0
   45.0545   29.4863   45.5101 H   0  0  0  0  0  0  0  0  0  0  0  0
   44.4495   33.8524   42.1017 H   0  0  0  0  0  0  0  0  0  0  0  0
   46.6790   34.8844   41.5260 H   0  0  0  0  0  0  0  0  0  0  0  0
   49.6297   34.4486   43.8158 H   0  0  0  0  0  0  0  0  0  0  0  0
   49.1006   35.0816   42.2340 H   0  0  0  0  0  0  0  0  0  0  0  0
  1 10  1  0
  1  2  2  0
  2  3  1  0
  3  4  2  0
  5  6  2  0
  5  4  1  0
  7  6  1  0
  8  7  2  0
  9  8  1  0
  9 10  2  0
 10  5  1  0
 11  9  1  0
 12 11  2  0
 13 12  1  0
 14 13  2  0
 14 15  1  0
 15 20  2  0
 16 15  1  0
 16 17  2  0
 17 18  1  0
 18 19  2  0
 20 11  1  0
 20 19  1  0
 21 26  2  0
 22 21  1  0
 22 23  2  0
 23 24  1  0
 24 25  2  0
 25  1  1  0
 26 25  1  0
 27 23  1  0
  2 28  1  0
  3 29  1  0
  4 30  1  0
  6 31  1  0
  7 32  1  0
  8 33  1  0
 12 34  1  0
 13 35  1  0
 14 36  1  0
 16 37  1  0
 17 38  1  0
 18 39  1  0
 19 40  1  0
 21 41  1  0
 22 42  1  0
 27 43  1  0
 27 44  1  0
M  ISO  8  28  14  29  14  30  14  31  14  32  14  33  14  34  14  35  14
M  ISO  7  36  14  37  14  38  14  39  14  40  14  41  14  42  14
M  END
>  <minimizedAffinity>  (1) 
-5.14892912

>  <minimizedRMSD>  (1) 
1.7266494

$$$$
