
     RDKit          3D

 43 46  0  0  0  0  0  0  0  0999 V2000
   46.0990   32.3240   46.1440 C   0  0  0  0  0  0  0  0  0  0  0  0
   45.5150   32.8580   47.2790 C   0  0  0  0  0  0  0  0  0  0  0  0
   45.7640   32.3690   48.5730 C   0  0  0  0  0  0  0  0  0  0  0  0
   46.6290   31.3040   48.7710 C   0  0  0  0  0  0  0  0  0  0  0  0
   47.2080   30.7610   47.6570 C   0  0  0  0  0  0  0  0  0  0  0  0
   48.0900   29.7030   47.8220 C   0  0  0  0  0  0  0  0  0  0  0  0
   48.6720   29.1490   46.6730 C   0  0  0  0  0  0  0  0  0  0  0  0
   48.3560   29.6470   45.4220 C   0  0  0  0  0  0  0  0  0  0  0  0
   47.4880   30.6770   45.3600 C   0  0  0  0  0  0  0  0  0  0  0  0
   46.9120   31.2840   46.4030 C   0  0  0  0  0  0  0  0  0  0  0  0
   45.2580   33.9550   42.9240 C   0  0  0  0  0  0  0  0  0  0  0  0
   46.5110   34.4440   42.5320 C   0  0  0  0  0  0  0  0  0  0  0  0
   47.5900   34.1660   43.3760 C   0  0  0  0  0  0  0  0  0  0  0  0
   47.2890   33.4690   44.4580 N   0  0  0  0  0  0  0  0  0  0  0  0
   46.1490   32.9880   44.8710 C   0  0  0  0  0  0  0  0  0  0  0  0
   45.1230   33.2550   44.0590 N   0  0  0  0  0  0  0  0  0  0  0  0
   48.9270   34.5090   43.0530 N   0  0  0  0  0  0  0  0  0  0  0  0
   46.9740   30.4730   43.9900 N   0  0  0  0  0  0  0  0  0  0  0  0
   45.6910   30.5080   43.5440 C   0  0  0  0  0  0  0  0  0  0  0  0
   45.3420   29.9470   42.1940 C   0  0  0  0  0  0  0  0  0  0  0  0
   45.8990   30.8880   41.1130 C   0  0  0  0  0  0  0  0  0  0  0  0
   47.1980   31.3680   41.6750 C   0  0  0  0  0  0  0  0  0  0  0  0
   47.6880   30.3620   42.6550 C   0  0  0  0  0  0  0  0  0  0  0  0
   44.8231   33.7053   47.1632 H   0  0  0  0  0  0  0  0  0  0  0  0
   45.2678   32.8358   49.4367 H   0  0  0  0  0  0  0  0  0  0  0  0
   46.8400   30.9136   49.7775 H   0  0  0  0  0  0  0  0  0  0  0  0
   48.3253   29.3112   48.8225 H   0  0  0  0  0  0  0  0  0  0  0  0
   49.3829   28.3148   46.7669 H   0  0  0  0  0  0  0  0  0  0  0  0
   48.7971   29.2181   44.5101 H   0  0  0  0  0  0  0  0  0  0  0  0
   44.3768   34.1473   42.2944 H   0  0  0  0  0  0  0  0  0  0  0  0
   46.6397   35.0197   41.6036 H   0  0  0  0  0  0  0  0  0  0  0  0
   49.6892   34.2831   43.7079 H   0  0  0  0  0  0  0  0  0  0  0  0
   49.1362   34.9841   42.1634 H   0  0  0  0  0  0  0  0  0  0  0  0
   45.0852   29.9596   44.2804 H   0  0  0  0  0  0  0  0  0  0  0  0
   45.4975   31.5843   43.4247 H   0  0  0  0  0  0  0  0  0  0  0  0
   45.7881   28.9479   42.0813 H   0  0  0  0  0  0  0  0  0  0  0  0
   44.2499   29.8630   42.0928 H   0  0  0  0  0  0  0  0  0  0  0  0
   45.2141   31.7311   40.9397 H   0  0  0  0  0  0  0  0  0  0  0  0
   46.0210   30.3866   40.1416 H   0  0  0  0  0  0  0  0  0  0  0  0
   47.9325   31.4850   40.8645 H   0  0  0  0  0  0  0  0  0  0  0  0
   47.0584   32.3402   42.1703 H   0  0  0  0  0  0  0  0  0  0  0  0
   47.5194   29.3554   42.2448 H   0  0  0  0  0  0  0  0  0  0  0  0
   48.7586   30.5481   42.8261 H   0  0  0  0  0  0  0  0  0  0  0  0
  1 10  1  0
  1  2  2  0
  2  3  1  0
  3  4  2  0
  5  6  2  0
  5  4  1  0
  7  6  1  0
  8  7  2  0
  9  8  1  0
  9 10  2  0
 10  5  1  0
 11 16  2  0
 12 11  1  0
 12 13  2  0
 13 14  1  0
 14 15  2  0
 15  1  1  0
 16 15  1  0
 17 13  1  0
 18  9  1  0
 19 18  1  0
 20 19  1  0
 21 22  1  0
 21 20  1  0
 22 23  1  0
 23 18  1  0
  2 24  1  0
  3 25  1  0
  4 26  1  0
  6 27  1  0
  7 28  1  0
  8 29  1  0
 11 30  1  0
 12 31  1  0
 17 32  1  0
 17 33  1  0
 19 34  1  0
 19 35  1  0
 20 36  1  0
 20 37  1  0
 21 38  1  0
 21 39  1  0
 22 40  1  0
 22 41  1  0
 23 42  1  0
 23 43  1  0
M  ISO  8  24  14  25  14  26  14  27  14  28  14  29  14  30  14  31  14
M  ISO  8  34  13  35  13  36  13  37  13  38  13  39  13  40  13  41  13
M  ISO  2  42  13  43  13
M  END
>  <minimizedAffinity>  (1) 
-4.96930218

>  <minimizedRMSD>  (1) 
1.58438087

$$$$
