
     RDKit          3D

 52 56  0  0  1  0  0  0  0  0999 V2000
   45.9850   32.2600   46.0930 C   0  0  0  0  0  0  0  0  0  0  0  0
   45.7910   32.9200   47.3050 C   0  0  0  0  0  0  0  0  0  0  0  0
   46.0250   32.3170   48.5470 C   0  0  0  0  0  0  0  0  0  0  0  0
   46.4640   31.0240   48.6210 C   0  0  0  0  0  0  0  0  0  0  0  0
   46.6620   30.3320   47.4120 C   0  0  0  0  0  0  0  0  0  0  0  0
   47.0500   29.0340   47.5260 C   0  0  0  0  0  0  0  0  0  0  0  0
   47.1860   28.2980   46.3490 C   0  0  0  0  0  0  0  0  0  0  0  0
   46.9020   28.9460   45.0950 C   0  0  0  0  0  0  0  0  0  0  0  0
   46.5190   30.2670   45.1480 C   0  0  0  0  0  0  0  0  0  0  0  0
   46.3930   31.0220   46.2270 C   0  0  0  0  0  0  0  0  0  0  0  0
   44.6380   29.8140   43.8440 C   0  0  0  0  0  0  0  0  0  0  0  0
   46.0200   30.2430   43.7880 C   0  0  0  0  0  0  0  0  0  0  0  0
   46.4300   30.3370   42.5250 C   0  0  0  0  0  0  0  0  0  0  0  0
   45.6690   30.0670   41.4060 C   0  0  0  0  0  0  0  0  0  0  0  0
   44.3650   29.6590   41.4870 C   0  0  0  0  0  0  0  0  0  0  0  0
   43.8530   29.5350   42.7450 C   0  0  0  0  0  0  0  0  0  0  0  0
   43.8640   29.6140   45.0200 O   0  0  0  0  0  0  0  0  0  0  0  0
   42.5390   29.1130   42.7660 O   0  0  0  0  0  0  0  0  0  0  0  0
   41.6040   31.2910   42.6570 N   0  0  0  0  0  0  0  0  0  0  0  0
   40.2700   31.7540   42.2480 C   0  0  0  0  0  0  0  0  0  0  0  0
   39.7560   30.7280   41.2840 C   0  0  0  0  0  0  0  0  0  0  0  0
   40.7930   29.6470   41.3170 C   0  0  0  0  0  0  0  0  0  0  0  0
   41.3800   29.8350   42.7280 C   0  0  1  0  0  0  0  0  0  0  0  0
   45.2760   34.1400   42.9480 C   0  0  0  0  0  0  0  0  0  0  0  0
   46.5900   34.5280   42.5960 C   0  0  0  0  0  0  0  0  0  0  0  0
   47.5960   34.0980   43.4350 C   0  0  0  0  0  0  0  0  0  0  0  0
   47.1980   33.3720   44.4770 N   0  0  0  0  0  0  0  0  0  0  0  0
   45.9770   32.9920   44.8380 C   0  0  0  0  0  0  0  0  0  0  0  0
   45.0410   33.4010   44.0360 N   0  0  0  0  0  0  0  0  0  0  0  0
   48.9660   34.3590   43.1750 N   0  0  0  0  0  0  0  0  0  0  0  0
   45.4381   33.9617   47.2851 H   0  0  0  0  0  0  0  0  0  0  0  0
   45.8542   32.8884   49.4713 H   0  0  0  0  0  0  0  0  0  0  0  0
   46.6555   30.5421   49.5911 H   0  0  0  0  0  0  0  0  0  0  0  0
   47.2490   28.5816   48.5087 H   0  0  0  0  0  0  0  0  0  0  0  0
   47.5034   27.2452   46.3782 H   0  0  0  0  0  0  0  0  0  0  0  0
   46.9872   28.4098   44.1383 H   0  0  0  0  0  0  0  0  0  0  0  0
   47.4686   30.6588   42.3584 H   0  0  0  0  0  0  0  0  0  0  0  0
   46.1270   30.1839   40.4127 H   0  0  0  0  0  0  0  0  0  0  0  0
   43.7653   29.4438   40.5903 H   0  0  0  0  0  0  0  0  0  0  0  0
   42.9221   29.3177   44.9482 H   0  0  0  0  0  0  0  0  0  0  0  0
   41.8757   31.6780   43.5720 H   0  0  0  0  0  0  0  0  0  0  0  0
   39.6053   31.8250   43.1216 H   0  0  0  0  0  0  0  0  0  0  0  0
   40.3126   32.7530   41.7895 H   0  0  0  0  0  0  0  0  0  0  0  0
   39.6655   31.1522   40.2731 H   0  0  0  0  0  0  0  0  0  0  0  0
   38.7539   30.3612   41.5509 H   0  0  0  0  0  0  0  0  0  0  0  0
   40.3407   28.6513   41.1984 H   0  0  0  0  0  0  0  0  0  0  0  0
   41.5357   29.7103   40.5080 H   0  0  0  0  0  0  0  0  0  0  0  0
   40.7990   29.5191   43.6070 H   0  0  0  0  0  0  0  0  0  0  0  0
   44.4326   34.4523   42.3146 H   0  0  0  0  0  0  0  0  0  0  0  0
   46.7972   35.1377   41.7042 H   0  0  0  0  0  0  0  0  0  0  0  0
   49.6876   34.0202   43.8272 H   0  0  0  0  0  0  0  0  0  0  0  0
   49.2390   34.8873   42.3340 H   0  0  0  0  0  0  0  0  0  0  0  0
  1 10  1  0
  1  2  2  0
  2  3  1  0
  3  4  2  0
  5  6  2  0
  5  4  1  0
  7  6  1  0
  8  9  1  0
  8  7  2  0
  9 10  2  0
 10  5  1  0
 11 17  1  0
 12 11  2  0
 12  9  1  0
 13 12  1  0
 14 15  1  0
 14 13  2  0
 15 16  2  0
 16 18  1  0
 16 11  1  0
 19 23  1  0
 20 19  1  0
 21 22  1  0
 21 20  1  0
 22 23  1  0
 23 18  1  0
 24 29  2  0
 25 24  1  0
 25 26  2  0
 26 27  1  0
 27 28  2  0
 28  1  1  0
 29 28  1  0
 30 26  1  0
  2 31  1  0
  3 32  1  0
  4 33  1  0
  6 34  1  0
  7 35  1  0
  8 36  1  0
 13 37  1  0
 14 38  1  0
 15 39  1  0
 17 40  1  0
 19 41  1  0
 20 42  1  0
 20 43  1  0
 21 44  1  0
 21 45  1  0
 22 46  1  0
 22 47  1  0
 23 48  1  1
 24 49  1  0
 25 50  1  0
 30 51  1  0
 30 52  1  0
M  ISO  8  31  14  32  14  33  14  34  14  35  14  36  14  37  14  38  14
M  ISO  8  39  14  40   3  41   5  42  13  43  13  44  13  45  13  46  13
M  ISO  4  47  13  48  13  49  14  50  14
M  END
>  <minimizedAffinity>  (1) 
-5.54956818

>  <minimizedRMSD>  (1) 
1.53053236

$$$$
