
     RDKit          3D

 11 11  0  0  0  0  0  0  0  0999 V2000
   44.5410   36.0270   44.5310 C   0  0  0  0  0  0  0  0  0  0  0  0
   45.2610   35.8950   43.3160 C   0  0  0  0  0  0  0  0  0  0  0  0
   46.1330   34.7930   43.2040 C   0  0  0  0  0  0  0  0  0  0  0  0
   46.2310   33.9360   44.2530 N   0  0  0  0  0  0  0  0  0  0  0  0
   45.5260   34.1010   45.3910 C   0  0  0  0  0  0  0  0  0  0  0  0
   44.6860   35.1390   45.5320 N   0  0  0  0  0  0  0  0  0  0  0  0
   47.0730   34.5620   41.7020 S   0  0  0  0  0  0  0  0  0  0  0  0
   43.8495   36.8730   44.6578 H   0  0  0  0  0  0  0  0  0  0  0  0
   45.1441   36.6204   42.4974 H   0  0  0  0  0  0  0  0  0  0  0  0
   45.6404   33.3778   46.2119 H   0  0  0  0  0  0  0  0  0  0  0  0
   48.3676   34.2439   42.0178 H   0  0  0  0  0  0  0  0  0  0  0  0
  1  6  2  0
  2  1  1  0
  3  2  2  0
  3  4  1  0
  4  5  2  0
  5  6  1  0
  7  3  1  0
  1  8  1  0
  2  9  1  0
  5 10  1  0
  7 11  1  0
M  ISO  4   8  14   9  14  10  14  11  11
M  END
>  <minimizedAffinity>  (1) 
-2.92828488

>  <minimizedRMSD>  (1) 
0.356370091

$$$$
