
     RDKit          3D

 38 40  0  0  1  0  0  0  0  0999 V2000
   46.7500   34.6950   42.1150 C   0  0  0  0  0  0  0  0  0  0  0  0
   47.8770   35.4150   41.7980 C   0  0  0  0  0  0  0  0  0  0  0  0
   48.6300   35.2410   40.6390 C   0  0  0  0  0  0  0  0  0  0  0  0
   48.2220   34.2780   39.7400 C   0  0  0  0  0  0  0  0  0  0  0  0
   47.1120   33.5790   40.0650 C   0  0  0  0  0  0  0  0  0  0  0  0
   46.4120   33.7700   41.1830 N   0  0  0  0  0  0  0  0  0  0  0  0
   44.4640   35.9330   44.8330 C   0  0  0  0  0  0  0  0  0  0  0  0
   45.1090   35.9110   43.5920 C   0  0  0  0  0  0  0  0  0  0  0  0
   45.9880   34.8900   43.3400 C   0  0  0  0  0  0  0  0  0  0  0  0
   46.1870   33.9480   44.3220 N   0  0  0  0  0  0  0  0  0  0  0  0
   45.5530   33.9930   45.5130 C   0  0  0  0  0  0  0  0  0  0  0  0
   44.6930   34.9920   45.7550 N   0  0  0  0  0  0  0  0  0  0  0  0
   46.6830   32.6100   39.1750 O   0  0  0  0  0  0  0  0  0  0  0  0
   44.2960   33.3730   38.3530 O   0  0  0  0  0  0  0  0  0  0  0  0
   45.6550   32.9530   37.8540 P   0  0  1  0  0  0  0  0  0  0  0  0
   46.3360   34.2230   36.9580 O   0  0  0  0  0  0  0  0  0  0  0  0
   45.5220   31.5450   36.9240 O   0  0  0  0  0  0  0  0  0  0  0  0
   45.0060   31.7130   34.5780 C   0  0  2  0  0  0  0  0  0  0  0  0
   46.0560   31.6740   35.6510 C   0  0  2  0  0  0  0  0  0  0  0  0
   46.8480   30.5670   35.4150 O   0  0  0  0  0  0  0  0  0  0  0  0
   45.9980   29.6080   34.8170 C   0  0  0  0  0  0  0  0  0  0  0  0
   45.3150   30.4680   33.7720 C   0  0  2  0  0  0  0  0  0  0  0  0
   45.0990   32.8650   33.7990 O   0  0  0  0  0  0  0  0  0  0  0  0
   46.2600   30.7590   32.7810 O   0  0  0  0  0  0  0  0  0  0  0  0
   48.2083   36.1843   42.5110 H   0  0  0  0  0  0  0  0  0  0  0  0
   49.5233   35.8534   40.4466 H   0  0  0  0  0  0  0  0  0  0  0  0
   48.7719   34.0886   38.8063 H   0  0  0  0  0  0  0  0  0  0  0  0
   43.7528   36.7422   45.0553 H   0  0  0  0  0  0  0  0  0  0  0  0
   44.9164   36.6905   42.8401 H   0  0  0  0  0  0  0  0  0  0  0  0
   45.7396   33.2208   46.2739 H   0  0  0  0  0  0  0  0  0  0  0  0
   46.7013   34.9043   37.5764 H   0  0  0  0  0  0  0  0  0  0  0  0
   43.9808   31.7354   34.9760 H   0  0  0  0  0  0  0  0  0  0  0  0
   46.6136   32.6215   35.6152 H   0  0  0  0  0  0  0  0  0  0  0  0
   46.5690   28.7870   34.3589 H   0  0  0  0  0  0  0  0  0  0  0  0
   45.3152   29.0991   35.5133 H   0  0  0  0  0  0  0  0  0  0  0  0
   44.4349   30.0265   33.2817 H   0  0  0  0  0  0  0  0  0  0  0  0
   45.1630   33.6577   34.3885 H   0  0  0  0  0  0  0  0  0  0  0  0
   47.1142   31.0221   33.2067 H   0  0  0  0  0  0  0  0  0  0  0  0
  1  9  1  0
  2  1  2  0
  3  2  1  0
  4  5  1  0
  4  3  2  0
  5  6  2  0
  6  1  1  0
  7 12  2  0
  8  7  1  0
  9  8  2  0
  9 10  1  0
 10 11  2  0
 11 12  1  0
 13  5  1  0
 15 14  2  0
 15 13  1  0
 16 15  1  0
 17 15  1  0
 18 23  1  0
 18 19  1  0
 19 17  1  0
 20 19  1  0
 21 20  1  0
 22 24  1  0
 22 18  1  0
 22 21  1  0
  2 25  1  0
  3 26  1  0
  4 27  1  0
  7 28  1  0
  8 29  1  0
 11 30  1  0
 16 31  1  0
 18 32  1  1
 19 33  1  1
 21 34  1  0
 21 35  1  0
 22 36  1  6
 23 37  1  0
 24 38  1  0
M  ISO  8  25  14  26  14  27  14  28  14  29  14  30  14  31   3  32  13
M  ISO  6  33  13  34  13  35  13  36  13  37   3  38   3
M  END
>  <minimizedAffinity>  (1) 
-6.87948608

>  <minimizedRMSD>  (1) 
3.38952613

$$$$
