
     RDKit          3D

 41 44  0  0  0  0  0  0  0  0999 V2000
   46.5640   34.4120   41.3910 C   0  0  0  0  0  0  0  0  0  0  0  0
   47.7480   34.9790   40.9600 C   0  0  0  0  0  0  0  0  0  0  0  0
   48.3790   34.6820   39.7580 C   0  0  0  0  0  0  0  0  0  0  0  0
   47.7850   33.7540   38.9280 C   0  0  0  0  0  0  0  0  0  0  0  0
   46.6260   33.2080   39.3590 C   0  0  0  0  0  0  0  0  0  0  0  0
   46.0410   33.5090   40.5170 N   0  0  0  0  0  0  0  0  0  0  0  0
   44.6840   36.0080   44.2330 C   0  0  0  0  0  0  0  0  0  0  0  0
   45.2260   35.8670   42.9510 C   0  0  0  0  0  0  0  0  0  0  0  0
   45.9340   34.7310   42.6590 C   0  0  0  0  0  0  0  0  0  0  0  0
   46.0700   33.7860   43.6490 N   0  0  0  0  0  0  0  0  0  0  0  0
   45.5360   33.9420   44.8810 C   0  0  0  0  0  0  0  0  0  0  0  0
   44.8470   35.0570   45.1530 N   0  0  0  0  0  0  0  0  0  0  0  0
   46.0180   32.2780   38.5370 O   0  0  0  0  0  0  0  0  0  0  0  0
   44.4890   31.7090   36.4580 O   0  0  0  0  0  0  0  0  0  0  0  0
   45.6440   32.5840   36.9020 P   0  0  1  0  0  0  0  0  0  0  0  0
   45.2380   34.1990   36.7080 O   0  0  0  0  0  0  0  0  0  0  0  0
   47.0190   32.1710   35.9720 O   0  0  0  0  0  0  0  0  0  0  0  0
   46.9660   31.3130   34.8890 C   0  0  0  0  0  0  0  0  0  0  0  0
   46.2500   30.1420   34.7410 C   0  0  0  0  0  0  0  0  0  0  0  0
   46.3290   29.4170   33.5710 C   0  0  0  0  0  0  0  0  0  0  0  0
   47.1170   29.8330   32.5200 C   0  0  0  0  0  0  0  0  0  0  0  0
   47.8350   31.0030   32.6620 C   0  0  0  0  0  0  0  0  0  0  0  0
   48.5940   31.3390   31.5570 C   0  0  0  0  0  0  0  0  0  0  0  0
   49.3430   32.5030   31.6260 C   0  0  0  0  0  0  0  0  0  0  0  0
   49.3040   33.2680   32.7730 C   0  0  0  0  0  0  0  0  0  0  0  0
   48.5280   32.8880   33.8480 C   0  0  0  0  0  0  0  0  0  0  0  0
   47.7690   31.7460   33.8280 C   0  0  0  0  0  0  0  0  0  0  0  0
   48.2265   35.7203   41.6169 H   0  0  0  0  0  0  0  0  0  0  0  0
   49.3230   35.1718   39.4771 H   0  0  0  0  0  0  0  0  0  0  0  0
   48.2323   33.4723   37.9633 H   0  0  0  0  0  0  0  0  0  0  0  0
   44.1158   36.9155   44.4853 H   0  0  0  0  0  0  0  0  0  0  0  0
   45.0866   36.6520   42.1931 H   0  0  0  0  0  0  0  0  0  0  0  0
   45.6657   33.1646   45.6483 H   0  0  0  0  0  0  0  0  0  0  0  0
   45.1318   34.6216   37.5969 H   0  0  0  0  0  0  0  0  0  0  0  0
   45.6118   29.7848   35.5626 H   0  0  0  0  0  0  0  0  0  0  0  0
   45.7505   28.4864   33.4745 H   0  0  0  0  0  0  0  0  0  0  0  0
   47.1724   29.2470   31.5907 H   0  0  0  0  0  0  0  0  0  0  0  0
   48.6033   30.7066   30.6570 H   0  0  0  0  0  0  0  0  0  0  0  0
   49.9636   32.8143   30.7728 H   0  0  0  0  0  0  0  0  0  0  0  0
   49.8985   34.1917   32.8310 H   0  0  0  0  0  0  0  0  0  0  0  0
   48.5176   33.5199   34.7484 H   0  0  0  0  0  0  0  0  0  0  0  0
  1  9  1  0
  2  1  2  0
  3  2  1  0
  4  5  1  0
  4  3  2  0
  5  6  2  0
  6  1  1  0
  7 12  2  0
  8  7  1  0
  9  8  2  0
  9 10  1  0
 10 11  2  0
 11 12  1  0
 13  5  1  0
 15 14  2  0
 15 13  1  0
 16 15  1  0
 17 15  1  0
 18 17  1  0
 19 18  2  0
 20 19  1  0
 21 22  1  0
 21 20  2  0
 22 27  2  0
 23 24  2  0
 23 22  1  0
 24 25  1  0
 25 26  2  0
 27 26  1  0
 27 18  1  0
  2 28  1  0
  3 29  1  0
  4 30  1  0
  7 31  1  0
  8 32  1  0
 11 33  1  0
 16 34  1  0
 19 35  1  0
 20 36  1  0
 21 37  1  0
 23 38  1  0
 24 39  1  0
 25 40  1  0
 26 41  1  0
M  ISO  8  28  14  29  14  30  14  31  14  32  14  33  14  34   3  35  14
M  ISO  6  36  14  37  14  38  14  39  14  40  14  41  14
M  END
>  <minimizedAffinity>  (1) 
-6.50505686

>  <minimizedRMSD>  (1) 
5.53943634

$$$$
