
     RDKit          3D

 29 30  0  0  0  0  0  0  0  0999 V2000
   46.9280   34.9090   42.2090 C   0  0  0  0  0  0  0  0  0  0  0  0
   48.1220   35.5890   42.0780 C   0  0  0  0  0  0  0  0  0  0  0  0
   48.9340   35.5670   40.9480 C   0  0  0  0  0  0  0  0  0  0  0  0
   48.5170   34.8080   39.8740 C   0  0  0  0  0  0  0  0  0  0  0  0
   47.3460   34.1500   40.0160 C   0  0  0  0  0  0  0  0  0  0  0  0
   46.5940   34.1960   41.1160 N   0  0  0  0  0  0  0  0  0  0  0  0
   44.4610   35.7390   44.9180 C   0  0  0  0  0  0  0  0  0  0  0  0
   45.1430   35.8640   43.7050 C   0  0  0  0  0  0  0  0  0  0  0  0
   46.1160   34.9450   43.4110 C   0  0  0  0  0  0  0  0  0  0  0  0
   46.3580   33.9550   44.3330 N   0  0  0  0  0  0  0  0  0  0  0  0
   45.6920   33.8500   45.4940 C   0  0  0  0  0  0  0  0  0  0  0  0
   44.7420   34.7470   45.7840 N   0  0  0  0  0  0  0  0  0  0  0  0
   46.9110   33.3870   38.9470 O   0  0  0  0  0  0  0  0  0  0  0  0
   48.0660   34.6340   36.9280 O   0  0  0  0  0  0  0  0  0  0  0  0
   47.7820   33.2630   37.4770 P   0  0  1  0  0  0  0  0  0  0  0  0
   49.2170   32.4440   37.7630 O   0  0  0  0  0  0  0  0  0  0  0  0
   46.7870   32.4120   36.3720 O   0  0  0  0  0  0  0  0  0  0  0  0
   45.4110   32.5410   36.3700 C   0  0  0  0  0  0  0  0  0  0  0  0
   44.5560   31.6670   36.1800 O   0  0  0  0  0  0  0  0  0  0  0  0
   45.0470   33.9110   36.6360 N   0  0  0  0  0  0  0  0  0  0  0  0
   48.4575   36.1949   42.9325 H   0  0  0  0  0  0  0  0  0  0  0  0
   49.8754   36.1349   40.9124 H   0  0  0  0  0  0  0  0  0  0  0  0
   49.1083   34.7421   38.9488 H   0  0  0  0  0  0  0  0  0  0  0  0
   43.6767   36.4675   45.1713 H   0  0  0  0  0  0  0  0  0  0  0  0
   44.9052   36.6783   43.0048 H   0  0  0  0  0  0  0  0  0  0  0  0
   45.9242   33.0372   46.1978 H   0  0  0  0  0  0  0  0  0  0  0  0
   49.3611   32.3617   38.7390 H   0  0  0  0  0  0  0  0  0  0  0  0
   44.0541   34.1827   36.6702 H   0  0  0  0  0  0  0  0  0  0  0  0
   45.7800   34.6177   36.7918 H   0  0  0  0  0  0  0  0  0  0  0  0
  1  9  1  0
  2  1  2  0
  3  2  1  0
  4  5  1  0
  4  3  2  0
  5  6  2  0
  6  1  1  0
  7 12  2  0
  8  7  1  0
  9  8  2  0
  9 10  1  0
 10 11  2  0
 11 12  1  0
 13  5  1  0
 15 14  2  0
 15 16  1  0
 15 13  1  0
 17 15  1  0
 18 17  1  0
 18 20  1  0
 19 18  2  0
  2 21  1  0
  3 22  1  0
  4 23  1  0
  7 24  1  0
  8 25  1  0
 11 26  1  0
 16 27  1  0
 20 28  1  0
 20 29  1  0
M  ISO  7  21  14  22  14  23  14  24  14  25  14  26  14  27   3
M  END
>  <minimizedAffinity>  (1) 
-5.55945635

>  <minimizedRMSD>  (1) 
1.16131246

$$$$
