
     RDKit          3D

 32 34  0  0  0  0  0  0  0  0999 V2000
   46.4530   34.5330   42.0320 C   0  0  0  0  0  0  0  0  0  0  0  0
   47.6280   35.1260   41.6230 C   0  0  0  0  0  0  0  0  0  0  0  0
   48.2760   34.8660   40.4200 C   0  0  0  0  0  0  0  0  0  0  0  0
   47.7060   33.9500   39.5720 C   0  0  0  0  0  0  0  0  0  0  0  0
   46.5540   33.3720   39.9780 C   0  0  0  0  0  0  0  0  0  0  0  0
   45.9530   33.6390   41.1390 N   0  0  0  0  0  0  0  0  0  0  0  0
   44.4800   36.0010   44.8790 C   0  0  0  0  0  0  0  0  0  0  0  0
   45.0240   35.9000   43.5910 C   0  0  0  0  0  0  0  0  0  0  0  0
   45.8050   34.8100   43.3060 C   0  0  0  0  0  0  0  0  0  0  0  0
   46.0130   33.8790   44.2950 N   0  0  0  0  0  0  0  0  0  0  0  0
   45.4750   34.0020   45.5300 C   0  0  0  0  0  0  0  0  0  0  0  0
   44.7130   35.0670   45.8050 N   0  0  0  0  0  0  0  0  0  0  0  0
   45.9620   32.4480   39.1360 O   0  0  0  0  0  0  0  0  0  0  0  0
   45.2280   33.4910   36.8230 O   0  0  0  0  0  0  0  0  0  0  0  0
   44.6860   32.8470   38.0760 P   0  0  1  0  0  0  0  0  0  0  0  0
   43.8470   31.4400   37.6780 O   0  0  0  0  0  0  0  0  0  0  0  0
   43.6850   33.9600   38.8880 O   0  0  0  0  0  0  0  0  0  0  0  0
   42.6930   33.5310   39.7270 C   0  0  0  0  0  0  0  0  0  0  0  0
   42.4940   34.1670   40.9320 C   0  0  0  0  0  0  0  0  0  0  0  0
   41.4630   33.5600   41.5700 N   0  0  0  0  0  0  0  0  0  0  0  0
   41.0300   32.5570   40.7650 C   0  0  0  0  0  0  0  0  0  0  0  0
   41.7780   32.5280   39.6270 N   0  0  0  0  0  0  0  0  0  0  0  0
   48.0885   35.8610   42.2996 H   0  0  0  0  0  0  0  0  0  0  0  0
   49.2138   35.3774   40.1572 H   0  0  0  0  0  0  0  0  0  0  0  0
   48.1661   33.6976   38.6053 H   0  0  0  0  0  0  0  0  0  0  0  0
   43.8492   36.8659   45.1319 H   0  0  0  0  0  0  0  0  0  0  0  0
   44.8300   36.6721   42.8319 H   0  0  0  0  0  0  0  0  0  0  0  0
   45.6614   33.2368   46.2979 H   0  0  0  0  0  0  0  0  0  0  0  0
   43.5699   30.9753   38.5071 H   0  0  0  0  0  0  0  0  0  0  0  0
   43.0727   35.0217   41.3122 H   0  0  0  0  0  0  0  0  0  0  0  0
   41.0804   33.8127   42.4923 H   0  0  0  0  0  0  0  0  0  0  0  0
   40.2012   31.8717   40.9963 H   0  0  0  0  0  0  0  0  0  0  0  0
  1  9  1  0
  2  1  2  0
  3  2  1  0
  4  5  1  0
  4  3  2  0
  5  6  2  0
  6  1  1  0
  7 12  2  0
  8  7  1  0
  9  8  2  0
  9 10  1  0
 10 11  2  0
 11 12  1  0
 13  5  1  0
 15 14  2  0
 15 17  1  0
 15 13  1  0
 16 15  1  0
 17 18  1  0
 18 19  2  0
 19 20  1  0
 21 20  1  0
 22 18  1  0
 22 21  2  0
  2 23  1  0
  3 24  1  0
  4 25  1  0
  7 26  1  0
  8 27  1  0
 11 28  1  0
 16 29  1  0
 19 30  1  0
 20 31  1  0
 21 32  1  0
M  ISO  8  23  14  24  14  25  14  26  14  27  14  28  14  29   3  30  14
M  ISO  2  31   9  32  14
M  END
>  <minimizedAffinity>  (1) 
-5.29340744

>  <minimizedRMSD>  (1) 
2.13346076

$$$$
