
     RDKit          3D

 27 28  0  0  1  0  0  0  0  0999 V2000
   47.7570   33.3490   43.1860 N   0  0  0  0  0  0  0  0  0  0  0  0
   47.4210   32.4830   42.0650 C   0  0  0  0  0  0  0  0  0  0  0  0
   48.6240   32.1760   41.2210 C   0  0  0  0  0  0  0  0  0  0  0  0
   49.3690   33.3120   40.8230 N   0  0  0  0  0  0  0  0  0  0  0  0
   49.4710   34.3710   41.7530 C   0  0  2  0  0  0  0  0  0  0  0  0
   48.9360   34.1560   43.1160 C   0  0  0  0  0  0  0  0  0  0  0  0
   45.1470   34.2610   45.7140 C   0  0  0  0  0  0  0  0  0  0  0  0
   45.8990   34.3220   44.5290 C   0  0  0  0  0  0  0  0  0  0  0  0
   46.9270   33.3930   44.3370 C   0  0  0  0  0  0  0  0  0  0  0  0
   47.1240   32.4850   45.3300 N   0  0  0  0  0  0  0  0  0  0  0  0
   46.3830   32.4510   46.4590 C   0  0  0  0  0  0  0  0  0  0  0  0
   45.3910   33.3450   46.6490 N   0  0  0  0  0  0  0  0  0  0  0  0
   48.7750   35.5940   41.1760 C   0  0  0  0  0  0  0  0  0  0  0  0
   49.5350   36.7330   41.4270 F   0  0  0  0  0  0  0  0  0  0  0  0
   47.6110   35.7500   41.9030 F   0  0  0  0  0  0  0  0  0  0  0  0
   48.5600   35.5040   39.8300 F   0  0  0  0  0  0  0  0  0  0  0  0
   47.0083   31.5404   42.4538 H   0  0  0  0  0  0  0  0  0  0  0  0
   46.6851   33.0056   41.4363 H   0  0  0  0  0  0  0  0  0  0  0  0
   49.2879   31.5147   41.7972 H   0  0  0  0  0  0  0  0  0  0  0  0
   48.2474   31.7107   40.2982 H   0  0  0  0  0  0  0  0  0  0  0  0
   50.3250   32.9961   40.6060 H   0  0  0  0  0  0  0  0  0  0  0  0
   50.5562   34.4813   41.8949 H   0  0  0  0  0  0  0  0  0  0  0  0
   49.7185   33.6684   43.7160 H   0  0  0  0  0  0  0  0  0  0  0  0
   48.6496   35.1492   43.4923 H   0  0  0  0  0  0  0  0  0  0  0  0
   44.3368   34.9877   45.8733 H   0  0  0  0  0  0  0  0  0  0  0  0
   45.6836   35.0855   43.7669 H   0  0  0  0  0  0  0  0  0  0  0  0
   46.5895   31.6909   47.2268 H   0  0  0  0  0  0  0  0  0  0  0  0
  1  9  1  0
  2  1  1  0
  3  2  1  0
  4  3  1  0
  4  5  1  0
  5  6  1  0
  6  1  1  0
  7 12  2  0
  8  7  1  0
  9  8  2  0
  9 10  1  0
 10 11  2  0
 11 12  1  0
 13 14  1  0
 13  5  1  0
 13 15  1  0
 16 13  1  0
  2 17  1  0
  2 18  1  0
  3 19  1  0
  3 20  1  0
  4 21  1  0
  5 22  1  1
  6 23  1  0
  6 24  1  0
  7 25  1  0
  8 26  1  0
 11 27  1  0
M  ISO  8  17  13  18  13  19  13  20  13  21   5  22  13  23  13  24  13
M  ISO  3  25  14  26  14  27  14
M  END
>  <minimizedAffinity>  (1) 
-5.07644653

>  <minimizedRMSD>  (1) 
1.9614414

$$$$
