
     RDKit          3D

 39 41  0  0  1  0  0  0  0  0999 V2000
   44.4910   35.3420   45.6330 C   0  0  0  0  0  0  0  0  0  0  0  0
   45.1500   35.1860   44.4030 C   0  0  0  0  0  0  0  0  0  0  0  0
   45.9900   34.0910   44.2320 C   0  0  0  0  0  0  0  0  0  0  0  0
   46.1220   33.2310   45.2740 N   0  0  0  0  0  0  0  0  0  0  0  0
   45.4760   33.4040   46.4500 C   0  0  0  0  0  0  0  0  0  0  0  0
   44.6550   34.4650   46.6300 N   0  0  0  0  0  0  0  0  0  0  0  0
   46.7150   33.8210   43.0310 N   0  0  0  0  0  0  0  0  0  0  0  0
   46.0120   33.4470   41.8120 C   0  0  0  0  0  0  0  0  0  0  0  0
   46.9100   32.7220   40.8600 C   0  0  0  0  0  0  0  0  0  0  0  0
   48.1460   33.3660   40.5990 N   0  0  0  0  0  0  0  0  0  0  0  0
   48.7550   34.0500   41.6780 C   0  0  2  0  0  0  0  0  0  0  0  0
   48.1400   33.9160   43.0130 C   0  0  0  0  0  0  0  0  0  0  0  0
   48.8000   35.5280   41.3410 C   0  0  0  0  0  0  0  0  0  0  0  0
   49.9180   36.1310   41.9110 F   0  0  0  0  0  0  0  0  0  0  0  0
   47.7130   36.1080   41.9830 F   0  0  0  0  0  0  0  0  0  0  0  0
   48.8100   35.7890   40.0030 F   0  0  0  0  0  0  0  0  0  0  0  0
   46.9090   32.2950   48.1410 C   0  0  0  0  0  0  0  0  0  0  0  0
   45.7030   32.4170   47.4810 C   0  0  0  0  0  0  0  0  0  0  0  0
   44.6870   31.5650   47.8250 C   0  0  0  0  0  0  0  0  0  0  0  0
   44.8240   30.5860   48.8070 C   0  0  0  0  0  0  0  0  0  0  0  0
   46.0380   30.4760   49.4600 C   0  0  0  0  0  0  0  0  0  0  0  0
   47.0740   31.3310   49.1230 C   0  0  0  0  0  0  0  0  0  0  0  0
   47.9240   33.1740   47.7730 O   0  0  0  0  0  0  0  0  0  0  0  0
   48.2930   31.2210   49.7780 O   0  0  0  0  0  0  0  0  0  0  0  0
   43.8248   36.2048   45.7802 H   0  0  0  0  0  0  0  0  0  0  0  0
   45.0049   35.9146   43.5918 H   0  0  0  0  0  0  0  0  0  0  0  0
   45.1666   32.7936   42.0734 H   0  0  0  0  0  0  0  0  0  0  0  0
   45.6601   34.3665   41.3213 H   0  0  0  0  0  0  0  0  0  0  0  0
   47.1242   31.7287   41.2812 H   0  0  0  0  0  0  0  0  0  0  0  0
   46.3742   32.6809   39.9002 H   0  0  0  0  0  0  0  0  0  0  0  0
   48.8081   32.6473   40.2735 H   0  0  0  0  0  0  0  0  0  0  0  0
   49.7390   33.5679   41.7744 H   0  0  0  0  0  0  0  0  0  0  0  0
   48.5454   33.0075   43.4824 H   0  0  0  0  0  0  0  0  0  0  0  0
   48.3858   34.8433   43.5512 H   0  0  0  0  0  0  0  0  0  0  0  0
   43.7226   31.6576   47.3042 H   0  0  0  0  0  0  0  0  0  0  0  0
   43.9871   29.9172   49.0566 H   0  0  0  0  0  0  0  0  0  0  0  0
   46.1798   29.7149   50.2414 H   0  0  0  0  0  0  0  0  0  0  0  0
   47.7630   33.8479   47.0659 H   0  0  0  0  0  0  0  0  0  0  0  0
   48.4173   30.5345   50.4804 H   0  0  0  0  0  0  0  0  0  0  0  0
  1  6  2  0
  2  1  1  0
  3  2  2  0
  3  4  1  0
  4  5  2  0
  5  6  1  0
  5 18  1  0
  7  3  1  0
  8  7  1  0
  9  8  1  0
 10  9  1  0
 10 11  1  0
 11 12  1  0
 12  7  1  0
 13 11  1  0
 13 14  1  0
 13 15  1  0
 16 13  1  0
 17 22  2  0
 18 19  2  0
 18 17  1  0
 19 20  1  0
 20 21  2  0
 22 21  1  0
 22 24  1  0
 23 17  1  0
  1 25  1  0
  2 26  1  0
  8 27  1  0
  8 28  1  0
  9 29  1  0
  9 30  1  0
 10 31  1  0
 11 32  1  1
 12 33  1  0
 12 34  1  0
 19 35  1  0
 20 36  1  0
 21 37  1  0
 23 38  1  0
 24 39  1  0
M  ISO  8  25  14  26  14  27  13  28  13  29  13  30  13  31   5  32  13
M  ISO  7  33  13  34  13  35  14  36  14  37  14  38   3  39   3
M  END
>  <minimizedAffinity>  (1) 
-6.83376789

>  <minimizedRMSD>  (1) 
1.26084995

$$$$
