
     RDKit          3D

 37 39  0  0  1  0  0  0  0  0999 V2000
   46.4510   34.1120   42.7180 N   0  0  0  0  0  0  0  0  0  0  0  0
   45.5540   34.5420   41.6530 C   0  0  0  0  0  0  0  0  0  0  0  0
   45.9910   34.0120   40.3100 C   0  0  0  0  0  0  0  0  0  0  0  0
   47.3500   34.2510   40.0120 N   0  0  0  0  0  0  0  0  0  0  0  0
   48.2680   34.1970   41.0740 C   0  0  2  0  0  0  0  0  0  0  0  0
   47.7790   33.7230   42.3910 C   0  0  0  0  0  0  0  0  0  0  0  0
   44.6470   34.8130   45.9310 C   0  0  0  0  0  0  0  0  0  0  0  0
   45.0110   34.9390   44.5800 C   0  0  0  0  0  0  0  0  0  0  0  0
   45.9970   34.0850   44.0640 C   0  0  0  0  0  0  0  0  0  0  0  0
   46.5240   33.1920   44.9310 N   0  0  0  0  0  0  0  0  0  0  0  0
   46.1650   33.0870   46.2190 C   0  0  0  0  0  0  0  0  0  0  0  0
   45.2240   33.8980   46.7210 N   0  0  0  0  0  0  0  0  0  0  0  0
   45.5470   30.2040   45.4420 Cl  0  0  0  0  0  0  0  0  0  0  0  0
   46.5850   30.7330   46.7470 C   0  0  0  0  0  0  0  0  0  0  0  0
   46.8200   32.0740   47.0420 C   0  0  0  0  0  0  0  0  0  0  0  0
   47.6380   32.4650   48.0720 C   0  0  0  0  0  0  0  0  0  0  0  0
   48.2670   31.5060   48.8630 C   0  0  0  0  0  0  0  0  0  0  0  0
   48.0510   30.1700   48.5900 C   0  0  0  0  0  0  0  0  0  0  0  0
   47.2240   29.8120   47.5500 C   0  0  0  0  0  0  0  0  0  0  0  0
   48.8870   35.5730   41.2850 C   0  0  0  0  0  0  0  0  0  0  0  0
   50.0640   35.4680   42.0040 F   0  0  0  0  0  0  0  0  0  0  0  0
   48.0050   36.2630   42.1000 F   0  0  0  0  0  0  0  0  0  0  0  0
   49.1540   36.2080   40.1070 F   0  0  0  0  0  0  0  0  0  0  0  0
   44.5405   34.1733   41.8695 H   0  0  0  0  0  0  0  0  0  0  0  0
   45.5721   35.6411   41.6112 H   0  0  0  0  0  0  0  0  0  0  0  0
   45.8196   32.9255   40.2947 H   0  0  0  0  0  0  0  0  0  0  0  0
   45.4005   34.5453   39.5504 H   0  0  0  0  0  0  0  0  0  0  0  0
   47.6412   33.5488   39.3170 H   0  0  0  0  0  0  0  0  0  0  0  0
   48.9807   33.4288   40.7395 H   0  0  0  0  0  0  0  0  0  0  0  0
   47.8227   32.6239   42.3951 H   0  0  0  0  0  0  0  0  0  0  0  0
   48.4292   34.1906   43.1451 H   0  0  0  0  0  0  0  0  0  0  0  0
   43.8751   35.4770   46.3472 H   0  0  0  0  0  0  0  0  0  0  0  0
   44.5317   35.6933   43.9387 H   0  0  0  0  0  0  0  0  0  0  0  0
   47.7970   33.5347   48.2730 H   0  0  0  0  0  0  0  0  0  0  0  0
   48.9248   31.8082   49.6912 H   0  0  0  0  0  0  0  0  0  0  0  0
   48.5376   29.3954   49.2009 H   0  0  0  0  0  0  0  0  0  0  0  0
   47.0654   28.7420   47.3501 H   0  0  0  0  0  0  0  0  0  0  0  0
  1  9  1  0
  2  1  1  0
  3  2  1  0
  4  3  1  0
  4  5  1  0
  5 20  1  0
  5  6  1  0
  6  1  1  0
  7 12  2  0
  8  7  1  0
  9  8  2  0
  9 10  1  0
 10 11  2  0
 11 12  1  0
 11 15  1  0
 13 14  1  0
 14 15  2  0
 14 19  1  0
 15 16  1  0
 16 17  2  0
 18 17  1  0
 19 18  2  0
 20 21  1  0
 20 22  1  0
 23 20  1  0
  2 24  1  0
  2 25  1  0
  3 26  1  0
  3 27  1  0
  4 28  1  0
  5 29  1  6
  6 30  1  0
  6 31  1  0
  7 32  1  0
  8 33  1  0
 16 34  1  0
 17 35  1  0
 18 36  1  0
 19 37  1  0
M  ISO  8  24  13  25  13  26  13  27  13  28   5  29  13  30  13  31  13
M  ISO  6  32  14  33  14  34  14  35  14  36  14  37  14
M  END
>  <minimizedAffinity>  (1) 
-6.41275692

>  <minimizedRMSD>  (1) 
1.77105689

$$$$
