
     RDKit          3D

 34 36  0  0  1  0  0  0  0  0999 V2000
   47.2420   33.5190   43.2960 N   0  0  0  0  0  0  0  0  0  0  0  0
   46.9100   32.3820   42.4340 C   0  0  0  0  0  0  0  0  0  0  0  0
   48.1480   31.8320   41.7710 C   0  0  0  0  0  0  0  0  0  0  0  0
   48.9520   32.7990   41.1190 N   0  0  0  0  0  0  0  0  0  0  0  0
   49.0440   34.0780   41.7380 C   0  0  2  0  0  0  0  0  0  0  0  0
   48.4430   34.2440   43.0770 C   0  0  0  0  0  0  0  0  0  0  0  0
   44.6540   35.2150   45.4090 C   0  0  0  0  0  0  0  0  0  0  0  0
   45.4780   34.9590   44.3100 C   0  0  0  0  0  0  0  0  0  0  0  0
   46.3560   33.8840   44.3420 C   0  0  0  0  0  0  0  0  0  0  0  0
   46.3370   33.1470   45.4830 N   0  0  0  0  0  0  0  0  0  0  0  0
   45.5440   33.3930   46.5400 C   0  0  0  0  0  0  0  0  0  0  0  0
   44.6900   34.4490   46.4930 N   0  0  0  0  0  0  0  0  0  0  0  0
   45.7110   32.4440   47.6640 C   0  0  0  0  0  0  0  0  0  0  0  0
   44.9240   31.5590   48.3720 C   0  0  0  0  0  0  0  0  0  0  0  0
   45.7620   30.9900   49.3130 C   0  0  0  0  0  0  0  0  0  0  0  0
   47.0020   31.5120   49.1750 N   0  0  0  0  0  0  0  0  0  0  0  0
   46.9620   32.3980   48.1680 N   0  0  0  0  0  0  0  0  0  0  0  0
   48.4080   35.1070   40.8090 C   0  0  0  0  0  0  0  0  0  0  0  0
   49.2180   36.2220   40.7110 F   0  0  0  0  0  0  0  0  0  0  0  0
   47.2540   35.5340   41.4450 F   0  0  0  0  0  0  0  0  0  0  0  0
   48.1720   34.6170   39.5470 F   0  0  0  0  0  0  0  0  0  0  0  0
   46.4457   31.5919   43.0424 H   0  0  0  0  0  0  0  0  0  0  0  0
   46.2144   32.7233   41.6532 H   0  0  0  0  0  0  0  0  0  0  0  0
   48.7602   31.3418   42.5423 H   0  0  0  0  0  0  0  0  0  0  0  0
   47.7996   31.1409   40.9893 H   0  0  0  0  0  0  0  0  0  0  0  0
   48.5684   32.9371   40.1731 H   0  0  0  0  0  0  0  0  0  0  0  0
   50.1229   34.2130   41.9047 H   0  0  0  0  0  0  0  0  0  0  0  0
   49.1802   33.9143   43.8239 H   0  0  0  0  0  0  0  0  0  0  0  0
   48.1764   35.3079   43.1615 H   0  0  0  0  0  0  0  0  0  0  0  0
   43.9612   36.0687   45.3755 H   0  0  0  0  0  0  0  0  0  0  0  0
   45.4312   35.6070   43.4224 H   0  0  0  0  0  0  0  0  0  0  0  0
   43.8548   31.3501   48.2198 H   0  0  0  0  0  0  0  0  0  0  0  0
   45.4673   30.2336   50.0553 H   0  0  0  0  0  0  0  0  0  0  0  0
   47.8285   31.2725   49.7411 H   0  0  0  0  0  0  0  0  0  0  0  0
  1  9  1  0
  2  1  1  0
  3  2  1  0
  4  5  1  0
  4  3  1  0
  5  6  1  0
  6  1  1  0
  7 12  2  0
  8  9  2  0
  8  7  1  0
  9 10  1  0
 10 11  2  0
 11 13  1  0
 12 11  1  0
 13 17  2  0
 13 14  1  0
 14 15  2  0
 16 15  1  0
 17 16  1  0
 18 20  1  0
 18  5  1  0
 19 18  1  0
 21 18  1  0
  2 22  1  0
  2 23  1  0
  3 24  1  0
  3 25  1  0
  4 26  1  0
  5 27  1  1
  6 28  1  0
  6 29  1  0
  7 30  1  0
  8 31  1  0
 14 32  1  0
 15 33  1  0
 16 34  1  0
M  ISO  8  22  13  23  13  24  13  25  13  26   5  27  13  28  13  29  13
M  ISO  5  30  14  31  14  32  14  33  14  34   9
M  END
>  <minimizedAffinity>  (1) 
-6.39435339

>  <minimizedRMSD>  (1) 
1.13489771

$$$$
