
     RDKit          3D

 28 29  0  0  1  0  0  0  0  0999 V2000
   47.7420   33.3540   43.1940 N   0  0  0  0  0  0  0  0  0  0  0  0
   47.4120   32.4830   42.0730 C   0  0  0  0  0  0  0  0  0  0  0  0
   48.6120   32.1770   41.2290 C   0  0  0  0  0  0  0  0  0  0  0  0
   49.3730   33.3100   40.8350 N   0  0  0  0  0  0  0  0  0  0  0  0
   49.4640   34.3650   41.7560 C   0  0  2  0  0  0  0  0  0  0  0  0
   48.9190   34.1590   43.1220 C   0  0  0  0  0  0  0  0  0  0  0  0
   45.1350   34.2790   45.7080 C   0  0  0  0  0  0  0  0  0  0  0  0
   45.8870   34.3320   44.5260 C   0  0  0  0  0  0  0  0  0  0  0  0
   46.9130   33.4050   44.3400 C   0  0  0  0  0  0  0  0  0  0  0  0
   47.1140   32.4990   45.3400 N   0  0  0  0  0  0  0  0  0  0  0  0
   46.3780   32.4700   46.4660 C   0  0  0  0  0  0  0  0  0  0  0  0
   45.3810   33.3660   46.6490 N   0  0  0  0  0  0  0  0  0  0  0  0
   46.6660   31.4990   47.4280 O   0  0  0  0  0  0  0  0  0  0  0  0
   48.7800   35.5880   41.1750 C   0  0  0  0  0  0  0  0  0  0  0  0
   49.5290   36.7250   41.4230 F   0  0  0  0  0  0  0  0  0  0  0  0
   47.6100   35.7620   41.9020 F   0  0  0  0  0  0  0  0  0  0  0  0
   48.5550   35.4810   39.8300 F   0  0  0  0  0  0  0  0  0  0  0  0
   47.0029   31.5398   42.4643 H   0  0  0  0  0  0  0  0  0  0  0  0
   46.6764   33.0039   41.4425 H   0  0  0  0  0  0  0  0  0  0  0  0
   49.2697   31.5063   41.8013 H   0  0  0  0  0  0  0  0  0  0  0  0
   48.2290   31.7260   40.3017 H   0  0  0  0  0  0  0  0  0  0  0  0
   50.3307   32.9876   40.6355 H   0  0  0  0  0  0  0  0  0  0  0  0
   50.5492   34.4686   41.9028 H   0  0  0  0  0  0  0  0  0  0  0  0
   49.6986   33.6764   43.7298 H   0  0  0  0  0  0  0  0  0  0  0  0
   48.6292   35.1552   43.4874 H   0  0  0  0  0  0  0  0  0  0  0  0
   44.3243   35.0062   45.8629 H   0  0  0  0  0  0  0  0  0  0  0  0
   45.6720   35.0907   43.7591 H   0  0  0  0  0  0  0  0  0  0  0  0
   46.1376   31.4587   48.2642 H   0  0  0  0  0  0  0  0  0  0  0  0
  1  9  1  0
  2  1  1  0
  3  2  1  0
  4  3  1  0
  4  5  1  0
  5  6  1  0
  6  1  1  0
  7 12  2  0
  8  7  1  0
  9  8  2  0
  9 10  1  0
 10 11  2  0
 11 12  1  0
 11 13  1  0
 14 15  1  0
 14  5  1  0
 14 16  1  0
 17 14  1  0
  2 18  1  0
  2 19  1  0
  3 20  1  0
  3 21  1  0
  4 22  1  0
  5 23  1  1
  6 24  1  0
  6 25  1  0
  7 26  1  0
  8 27  1  0
 13 28  1  0
M  ISO  8  18  13  19  13  20  13  21  13  22   5  23  13  24  13  25  13
M  ISO  3  26  14  27  14  28   3
M  END
>  <minimizedAffinity>  (1) 
-5.2818079

>  <minimizedRMSD>  (1) 
0.0167282671

$$$$
