
     RDKit          3D

 36 38  0  0  1  0  0  0  0  0999 V2000
   47.3820   33.7040   42.9900 N   0  0  0  0  0  0  0  0  0  0  0  0
   46.9710   32.8560   41.8940 C   0  0  0  0  0  0  0  0  0  0  0  0
   48.1530   32.3390   41.1170 C   0  0  0  0  0  0  0  0  0  0  0  0
   49.0830   33.3200   40.7250 N   0  0  0  0  0  0  0  0  0  0  0  0
   49.3070   34.3940   41.6270 C   0  0  2  0  0  0  0  0  0  0  0  0
   48.6790   34.3140   42.9570 C   0  0  0  0  0  0  0  0  0  0  0  0
   44.7380   35.0380   45.2860 C   0  0  0  0  0  0  0  0  0  0  0  0
   45.5260   34.9240   44.1290 C   0  0  0  0  0  0  0  0  0  0  0  0
   46.5150   33.9330   44.0900 C   0  0  0  0  0  0  0  0  0  0  0  0
   46.6270   33.1520   45.1990 N   0  0  0  0  0  0  0  0  0  0  0  0
   45.8550   33.2880   46.2930 C   0  0  0  0  0  0  0  0  0  0  0  0
   44.9020   34.2420   46.3290 N   0  0  0  0  0  0  0  0  0  0  0  0
   46.0480   32.4030   47.4370 C   0  0  0  0  0  0  0  0  0  0  0  0
   44.9630   32.0300   48.2040 C   0  0  0  0  0  0  0  0  0  0  0  0
   45.1790   31.1860   49.2870 C   0  0  0  0  0  0  0  0  0  0  0  0
   46.4840   30.7920   49.5000 C   0  0  0  0  0  0  0  0  0  0  0  0
   47.5810   31.1520   48.7470 C   0  0  0  0  0  0  0  0  0  0  0  0
   47.3160   31.9810   47.6980 N   0  0  0  0  0  0  0  0  0  0  0  0
   48.8480   35.6830   40.9760 C   0  0  0  0  0  0  0  0  0  0  0  0
   49.6500   36.7440   41.3770 F   0  0  0  0  0  0  0  0  0  0  0  0
   47.5860   35.9420   41.4860 F   0  0  0  0  0  0  0  0  0  0  0  0
   48.8570   35.6380   39.6110 F   0  0  0  0  0  0  0  0  0  0  0  0
   46.4073   32.0014   42.2963 H   0  0  0  0  0  0  0  0  0  0  0  0
   46.3474   33.4536   41.2129 H   0  0  0  0  0  0  0  0  0  0  0  0
   48.6776   31.6027   41.7437 H   0  0  0  0  0  0  0  0  0  0  0  0
   47.7470   31.9121   40.1881 H   0  0  0  0  0  0  0  0  0  0  0  0
   49.9861   32.8487   40.5729 H   0  0  0  0  0  0  0  0  0  0  0  0
   50.3881   34.3450   41.8242 H   0  0  0  0  0  0  0  0  0  0  0  0
   49.3443   33.7320   43.6118 H   0  0  0  0  0  0  0  0  0  0  0  0
   48.5330   35.3535   43.2857 H   0  0  0  0  0  0  0  0  0  0  0  0
   43.9596   35.8142   45.3257 H   0  0  0  0  0  0  0  0  0  0  0  0
   45.3701   35.5974   43.2733 H   0  0  0  0  0  0  0  0  0  0  0  0
   43.9522   32.3917   47.9642 H   0  0  0  0  0  0  0  0  0  0  0  0
   44.3569   30.8515   49.9368 H   0  0  0  0  0  0  0  0  0  0  0  0
   46.6671   30.1247   50.3551 H   0  0  0  0  0  0  0  0  0  0  0  0
   48.5964   30.7962   48.9760 H   0  0  0  0  0  0  0  0  0  0  0  0
  1  9  1  0
  2  1  1  0
  3  2  1  0
  4  3  1  0
  4  5  1  0
  5  6  1  0
  6  1  1  0
  7 12  2  0
  8  7  1  0
  9  8  2  0
  9 10  1  0
 10 11  2  0
 11 12  1  0
 11 13  1  0
 13 18  1  0
 13 14  2  0
 14 15  1  0
 15 16  2  0
 17 16  1  0
 18 17  2  0
 19 20  1  0
 19 21  1  0
 19  5  1  0
 22 19  1  0
  2 23  1  0
  2 24  1  0
  3 25  1  0
  3 26  1  0
  4 27  1  0
  5 28  1  1
  6 29  1  0
  6 30  1  0
  7 31  1  0
  8 32  1  0
 14 33  1  0
 15 34  1  0
 16 35  1  0
 17 36  1  0
M  ISO  8  23  13  24  13  25  13  26  13  27   5  28  13  29  13  30  13
M  ISO  6  31  14  32  14  33  14  34  14  35  14  36  14
M  END
>  <minimizedAffinity>  (1) 
-6.3929534

>  <minimizedRMSD>  (1) 
0.960427225

$$$$
