
     RDKit          3D

 21 22  0  0  0  0  0  0  0  0999 V2000
   47.5050   31.9830   40.1590 Cl  0  0  0  0  0  0  0  0  0  0  0  0
   48.7130   32.8180   41.1100 C   0  0  0  0  0  0  0  0  0  0  0  0
   48.4800   34.0220   41.7800 C   0  0  0  0  0  0  0  0  0  0  0  0
   49.5110   34.5960   42.5050 C   0  0  0  0  0  0  0  0  0  0  0  0
   50.7390   33.9630   42.5460 C   0  0  0  0  0  0  0  0  0  0  0  0
   50.9990   32.7740   41.8960 C   0  0  0  0  0  0  0  0  0  0  0  0
   49.9550   32.2180   41.1780 C   0  0  0  0  0  0  0  0  0  0  0  0
   50.3190   30.7040   40.3610 Cl  0  0  0  0  0  0  0  0  0  0  0  0
   46.8180   34.6490   41.5810 S   0  0  0  0  0  0  0  0  0  0  0  0
   44.5110   36.0670   44.6170 C   0  0  0  0  0  0  0  0  0  0  0  0
   45.1450   35.9670   43.3620 C   0  0  0  0  0  0  0  0  0  0  0  0
   45.9800   34.8580   43.1340 C   0  0  0  0  0  0  0  0  0  0  0  0
   46.1220   33.9500   44.1480 N   0  0  0  0  0  0  0  0  0  0  0  0
   45.4920   34.0930   45.3330 C   0  0  0  0  0  0  0  0  0  0  0  0
   44.6930   35.1430   45.5660 N   0  0  0  0  0  0  0  0  0  0  0  0
   49.3546   35.5436   43.0413 H   0  0  0  0  0  0  0  0  0  0  0  0
   51.5490   34.4302   43.1254 H   0  0  0  0  0  0  0  0  0  0  0  0
   51.9866   32.2923   41.9461 H   0  0  0  0  0  0  0  0  0  0  0  0
   43.8520   36.9241   44.8200 H   0  0  0  0  0  0  0  0  0  0  0  0
   44.9918   36.7314   42.5860 H   0  0  0  0  0  0  0  0  0  0  0  0
   45.6366   33.3368   46.1186 H   0  0  0  0  0  0  0  0  0  0  0  0
  1  2  1  0
  2  7  2  0
  2  3  1  0
  3  4  2  0
  4  5  1  0
  6  5  2  0
  7  6  1  0
  8  7  1  0
  9  3  1  0
  9 12  1  0
 10 15  2  0
 11 10  1  0
 12 11  2  0
 12 13  1  0
 13 14  2  0
 14 15  1  0
  4 16  1  0
  5 17  1  0
  6 18  1  0
 10 19  1  0
 11 20  1  0
 14 21  1  0
M  ISO  6  16  14  17  14  18  14  19  14  20  14  21  14
M  END
>  <minimizedAffinity>  (1) 
-4.68951368

>  <minimizedRMSD>  (1) 
2.11921287

$$$$
