
     RDKit          3D

 46 49  0  0  1  0  0  0  0  0999 V2000
   44.4260   35.4410   45.5600 C   0  0  0  0  0  0  0  0  0  0  0  0
   45.0180   35.3250   44.2910 C   0  0  0  0  0  0  0  0  0  0  0  0
   45.8950   34.2660   44.0650 C   0  0  0  0  0  0  0  0  0  0  0  0
   46.1050   33.4230   45.1080 N   0  0  0  0  0  0  0  0  0  0  0  0
   45.5310   33.5490   46.3120 C   0  0  0  0  0  0  0  0  0  0  0  0
   44.6770   34.5830   46.5280 N   0  0  0  0  0  0  0  0  0  0  0  0
   46.5700   34.0190   42.8330 N   0  0  0  0  0  0  0  0  0  0  0  0
   45.8110   33.9260   41.5950 C   0  0  0  0  0  0  0  0  0  0  0  0
   46.5780   33.1910   40.5310 C   0  0  0  0  0  0  0  0  0  0  0  0
   47.9020   33.6380   40.3390 N   0  0  0  0  0  0  0  0  0  0  0  0
   48.6160   34.0680   41.4870 C   0  0  2  0  0  0  0  0  0  0  0  0
   47.9890   33.8600   42.8020 C   0  0  0  0  0  0  0  0  0  0  0  0
   48.9150   35.5500   41.3440 C   0  0  0  0  0  0  0  0  0  0  0  0
   50.1260   35.8490   41.9540 F   0  0  0  0  0  0  0  0  0  0  0  0
   47.9320   36.2120   42.0560 F   0  0  0  0  0  0  0  0  0  0  0  0
   48.9790   35.9680   40.0430 F   0  0  0  0  0  0  0  0  0  0  0  0
   45.8060   32.6050   47.3790 C   0  0  0  0  0  0  0  0  0  0  0  0
   44.7700   32.0850   48.1310 C   0  0  0  0  0  0  0  0  0  0  0  0
   45.1130   31.1830   49.1390 C   0  0  0  0  0  0  0  0  0  0  0  0
   46.4410   30.8890   49.3000 C   0  0  0  0  0  0  0  0  0  0  0  0
   47.4750   31.3970   48.5630 C   0  0  0  0  0  0  0  0  0  0  0  0
   47.0980   32.2700   47.5940 N   0  0  0  0  0  0  0  0  0  0  0  0
   48.4310   28.9160   47.0920 Cl  0  0  0  0  0  0  0  0  0  0  0  0
   49.3840   29.9450   48.1300 C   0  0  0  0  0  0  0  0  0  0  0  0
   48.8770   31.0590   48.7660 C   0  0  0  0  0  0  0  0  0  0  0  0
   49.7200   31.7840   49.5530 C   0  0  0  0  0  0  0  0  0  0  0  0
   51.0510   31.4880   49.7640 C   0  0  0  0  0  0  0  0  0  0  0  0
   51.5750   30.3680   49.1290 C   0  0  0  0  0  0  0  0  0  0  0  0
   50.7250   29.6130   48.3200 C   0  0  0  0  0  0  0  0  0  0  0  0
   43.7322   36.2730   45.7511 H   0  0  0  0  0  0  0  0  0  0  0  0
   44.7948   36.0518   43.4961 H   0  0  0  0  0  0  0  0  0  0  0  0
   44.8706   33.3904   41.7919 H   0  0  0  0  0  0  0  0  0  0  0  0
   45.6131   34.9463   41.2346 H   0  0  0  0  0  0  0  0  0  0  0  0
   46.6131   32.1270   40.8081 H   0  0  0  0  0  0  0  0  0  0  0  0
   46.0489   33.3766   39.5847 H   0  0  0  0  0  0  0  0  0  0  0  0
   48.4324   32.8623   39.9172 H   0  0  0  0  0  0  0  0  0  0  0  0
   49.5063   33.4220   41.4989 H   0  0  0  0  0  0  0  0  0  0  0  0
   48.2238   32.8375   43.1326 H   0  0  0  0  0  0  0  0  0  0  0  0
   48.3973   34.6406   43.4608 H   0  0  0  0  0  0  0  0  0  0  0  0
   43.7238   32.3688   47.9439 H   0  0  0  0  0  0  0  0  0  0  0  0
   44.3455   30.7252   49.7803 H   0  0  0  0  0  0  0  0  0  0  0  0
   46.7004   30.1770   50.0974 H   0  0  0  0  0  0  0  0  0  0  0  0
   49.3092   32.6710   50.0576 H   0  0  0  0  0  0  0  0  0  0  0  0
   51.6769   32.1177   50.4134 H   0  0  0  0  0  0  0  0  0  0  0  0
   52.6298   30.0849   49.2605 H   0  0  0  0  0  0  0  0  0  0  0  0
   51.1275   28.7233   47.8136 H   0  0  0  0  0  0  0  0  0  0  0  0
  1  6  2  0
  2  1  1  0
  3  2  2  0
  3  4  1  0
  4  5  2  0
  5  6  1  0
  5 17  1  0
  7  3  1  0
  8  7  1  0
  9  8  1  0
 10  9  1  0
 10 11  1  0
 11 12  1  0
 12  7  1  0
 13 11  1  0
 13 14  1  0
 13 15  1  0
 16 13  1  0
 17 22  1  0
 17 18  2  0
 18 19  1  0
 19 20  2  0
 21 25  1  0
 21 20  1  0
 22 21  2  0
 23 24  1  0
 24 29  2  0
 24 25  1  0
 25 26  2  0
 26 27  1  0
 28 27  2  0
 29 28  1  0
  1 30  1  0
  2 31  1  0
  8 32  1  0
  8 33  1  0
  9 34  1  0
  9 35  1  0
 10 36  1  0
 11 37  1  1
 12 38  1  0
 12 39  1  0
 18 40  1  0
 19 41  1  0
 20 42  1  0
 26 43  1  0
 27 44  1  0
 28 45  1  0
 29 46  1  0
M  ISO  8  30  14  31  14  32  13  33  13  34  13  35  13  36   5  37  13
M  ISO  8  38  13  39  13  40  14  41  14  42  14  43  14  44  14  45  14
M  ISO  1  46  14
M  END
>  <minimizedAffinity>  (1) 
-7.60597229

>  <minimizedRMSD>  (1) 
1.24134421

$$$$
