
     RDKit          3D

 46 49  0  0  1  0  0  0  0  0999 V2000
   44.7300   35.0570   45.3070 C   0  0  0  0  0  0  0  0  0  0  0  0
   45.5180   34.9410   44.1540 C   0  0  0  0  0  0  0  0  0  0  0  0
   46.5010   33.9380   44.1110 C   0  0  0  0  0  0  0  0  0  0  0  0
   46.6070   33.1500   45.2150 N   0  0  0  0  0  0  0  0  0  0  0  0
   45.8290   33.2910   46.3070 C   0  0  0  0  0  0  0  0  0  0  0  0
   44.8780   34.2590   46.3520 N   0  0  0  0  0  0  0  0  0  0  0  0
   47.3690   33.7090   43.0120 N   0  0  0  0  0  0  0  0  0  0  0  0
   46.9510   32.8730   41.9170 C   0  0  0  0  0  0  0  0  0  0  0  0
   48.1360   32.3440   41.1410 C   0  0  0  0  0  0  0  0  0  0  0  0
   49.0630   33.3190   40.7500 N   0  0  0  0  0  0  0  0  0  0  0  0
   49.2880   34.3950   41.6520 C   0  0  2  0  0  0  0  0  0  0  0  0
   48.6700   34.3080   42.9830 C   0  0  0  0  0  0  0  0  0  0  0  0
   48.8430   35.6860   41.0010 C   0  0  0  0  0  0  0  0  0  0  0  0
   49.6470   36.7400   41.4020 F   0  0  0  0  0  0  0  0  0  0  0  0
   47.5850   35.9550   41.5210 F   0  0  0  0  0  0  0  0  0  0  0  0
   48.8480   35.6470   39.6390 F   0  0  0  0  0  0  0  0  0  0  0  0
   46.0080   32.4040   47.4460 C   0  0  0  0  0  0  0  0  0  0  0  0
   44.9130   31.9660   48.1640 C   0  0  0  0  0  0  0  0  0  0  0  0
   45.1420   31.1170   49.2450 C   0  0  0  0  0  0  0  0  0  0  0  0
   46.4410   30.7780   49.5160 C   0  0  0  0  0  0  0  0  0  0  0  0
   47.5300   31.2080   48.8080 C   0  0  0  0  0  0  0  0  0  0  0  0
   47.2880   32.0310   47.7630 N   0  0  0  0  0  0  0  0  0  0  0  0
   48.9150   30.8500   49.0910 C   0  0  0  0  0  0  0  0  0  0  0  0
   49.7480   31.8480   49.5370 C   0  0  0  0  0  0  0  0  0  0  0  0
   51.0860   31.5920   49.8330 C   0  0  0  0  0  0  0  0  0  0  0  0
   51.5640   30.2950   49.6650 C   0  0  0  0  0  0  0  0  0  0  0  0
   50.7280   29.2890   49.2150 C   0  0  0  0  0  0  0  0  0  0  0  0
   49.3930   29.5760   48.9280 C   0  0  0  0  0  0  0  0  0  0  0  0
   43.9594   35.8410   45.3447 H   0  0  0  0  0  0  0  0  0  0  0  0
   45.3702   35.6202   43.3014 H   0  0  0  0  0  0  0  0  0  0  0  0
   46.3761   32.0237   42.3147 H   0  0  0  0  0  0  0  0  0  0  0  0
   46.3345   33.4782   41.2361 H   0  0  0  0  0  0  0  0  0  0  0  0
   48.6576   31.6087   41.7713 H   0  0  0  0  0  0  0  0  0  0  0  0
   47.7317   31.9107   40.2143 H   0  0  0  0  0  0  0  0  0  0  0  0
   49.9657   32.8465   40.5988 H   0  0  0  0  0  0  0  0  0  0  0  0
   50.3692   34.3485   41.8493 H   0  0  0  0  0  0  0  0  0  0  0  0
   49.3332   33.7132   43.6282 H   0  0  0  0  0  0  0  0  0  0  0  0
   48.5373   35.3444   43.3270 H   0  0  0  0  0  0  0  0  0  0  0  0
   43.8936   32.2769   47.8917 H   0  0  0  0  0  0  0  0  0  0  0  0
   44.3119   30.7340   49.8568 H   0  0  0  0  0  0  0  0  0  0  0  0
   46.6229   30.1079   50.3692 H   0  0  0  0  0  0  0  0  0  0  0  0
   49.3520   32.8666   49.6626 H   0  0  0  0  0  0  0  0  0  0  0  0
   51.7478   32.3947   50.1904 H   0  0  0  0  0  0  0  0  0  0  0  0
   52.6161   30.0683   49.8922 H   0  0  0  0  0  0  0  0  0  0  0  0
   51.1139   28.2673   49.0840 H   0  0  0  0  0  0  0  0  0  0  0  0
   48.7239   28.7793   48.5708 H   0  0  0  0  0  0  0  0  0  0  0  0
  1  6  2  0
  2  1  1  0
  3  2  2  0
  3  4  1  0
  4  5  2  0
  5  6  1  0
  5 17  1  0
  7  3  1  0
  8  7  1  0
  9  8  1  0
 10  9  1  0
 10 11  1  0
 11 12  1  0
 12  7  1  0
 13 14  1  0
 13 15  1  0
 13 11  1  0
 16 13  1  0
 17 22  1  0
 17 18  2  0
 18 19  1  0
 19 20  2  0
 21 23  1  0
 21 20  1  0
 22 21  2  0
 23 24  2  0
 24 25  1  0
 26 25  2  0
 27 26  1  0
 28 23  1  0
 28 27  2  0
  1 29  1  0
  2 30  1  0
  8 31  1  0
  8 32  1  0
  9 33  1  0
  9 34  1  0
 10 35  1  0
 11 36  1  1
 12 37  1  0
 12 38  1  0
 18 39  1  0
 19 40  1  0
 20 41  1  0
 24 42  1  0
 25 43  1  0
 26 44  1  0
 27 45  1  0
 28 46  1  0
M  ISO  8  29  14  30  14  31  13  32  13  33  13  34  13  35   5  36  13
M  ISO  8  37  13  38  13  39  14  40  14  41  14  42  14  43  14  44  14
M  ISO  2  45  14  46  14
M  END
>  <minimizedAffinity>  (1) 
-7.46314383

>  <minimizedRMSD>  (1) 
0.130635932

$$$$
