
     RDKit          3D

 39 41  0  0  1  0  0  0  0  0999 V2000
   44.5160   35.3290   45.4840 C   0  0  0  0  0  0  0  0  0  0  0  0
   45.1730   35.1900   44.2450 C   0  0  0  0  0  0  0  0  0  0  0  0
   46.0780   34.1270   44.0800 C   0  0  0  0  0  0  0  0  0  0  0  0
   46.2450   33.3090   45.1460 N   0  0  0  0  0  0  0  0  0  0  0  0
   45.6010   33.4710   46.3180 C   0  0  0  0  0  0  0  0  0  0  0  0
   44.7270   34.4920   46.4860 N   0  0  0  0  0  0  0  0  0  0  0  0
   46.8000   33.8760   42.8890 N   0  0  0  0  0  0  0  0  0  0  0  0
   46.1070   33.5280   41.6690 C   0  0  0  0  0  0  0  0  0  0  0  0
   47.0150   32.8140   40.6980 C   0  0  0  0  0  0  0  0  0  0  0  0
   48.2330   33.4560   40.4540 N   0  0  0  0  0  0  0  0  0  0  0  0
   48.8480   34.1170   41.5510 C   0  0  2  0  0  0  0  0  0  0  0  0
   48.2280   33.9640   42.8740 C   0  0  0  0  0  0  0  0  0  0  0  0
   48.9110   35.5960   41.2470 C   0  0  0  0  0  0  0  0  0  0  0  0
   50.0470   36.1620   41.8040 F   0  0  0  0  0  0  0  0  0  0  0  0
   47.8390   36.1830   41.9150 F   0  0  0  0  0  0  0  0  0  0  0  0
   48.9000   35.8840   39.9020 F   0  0  0  0  0  0  0  0  0  0  0  0
   45.8440   32.5380   47.4170 C   0  0  0  0  0  0  0  0  0  0  0  0
   44.7900   31.9930   48.1040 C   0  0  0  0  0  0  0  0  0  0  0  0
   45.0470   31.1150   49.1390 C   0  0  0  0  0  0  0  0  0  0  0  0
   46.3650   30.8510   49.4020 C   0  0  0  0  0  0  0  0  0  0  0  0
   47.4420   31.3900   48.7230 C   0  0  0  0  0  0  0  0  0  0  0  0
   47.1480   32.2440   47.7170 N   0  0  0  0  0  0  0  0  0  0  0  0
   48.8540   31.1150   48.9960 C   0  0  0  0  0  0  0  0  0  0  0  0
   49.4520   30.3430   48.0290 F   0  0  0  0  0  0  0  0  0  0  0  0
   49.5090   32.3140   49.1980 F   0  0  0  0  0  0  0  0  0  0  0  0
   48.8950   30.4340   50.2200 F   0  0  0  0  0  0  0  0  0  0  0  0
   43.8066   36.1583   45.6218 H   0  0  0  0  0  0  0  0  0  0  0  0
   44.9818   35.8978   43.4250 H   0  0  0  0  0  0  0  0  0  0  0  0
   45.2599   32.8707   41.9148 H   0  0  0  0  0  0  0  0  0  0  0  0
   45.7588   34.4572   41.1944 H   0  0  0  0  0  0  0  0  0  0  0  0
   47.2302   31.8140   41.1027 H   0  0  0  0  0  0  0  0  0  0  0  0
   46.4809   32.7873   39.7368 H   0  0  0  0  0  0  0  0  0  0  0  0
   48.8945   32.7456   40.1095 H   0  0  0  0  0  0  0  0  0  0  0  0
   49.8275   33.6241   41.6386 H   0  0  0  0  0  0  0  0  0  0  0  0
   48.6270   33.0454   43.3289 H   0  0  0  0  0  0  0  0  0  0  0  0
   48.4752   34.8826   43.4264 H   0  0  0  0  0  0  0  0  0  0  0  0
   43.7551   32.2511   47.8350 H   0  0  0  0  0  0  0  0  0  0  0  0
   44.2363   30.6525   49.7210 H   0  0  0  0  0  0  0  0  0  0  0  0
   46.5850   30.1516   50.2220 H   0  0  0  0  0  0  0  0  0  0  0  0
  1  6  2  0
  2  1  1  0
  3  2  2  0
  3  4  1  0
  4  5  2  0
  5  6  1  0
  5 17  1  0
  7  3  1  0
  8  7  1  0
  9  8  1  0
 10  9  1  0
 10 11  1  0
 11 12  1  0
 12  7  1  0
 13 11  1  0
 13 14  1  0
 13 15  1  0
 16 13  1  0
 17 22  1  0
 17 18  2  0
 18 19  1  0
 19 20  2  0
 21 23  1  0
 21 20  1  0
 22 21  2  0
 23 25  1  0
 23 26  1  0
 24 23  1  0
  1 27  1  0
  2 28  1  0
  8 29  1  0
  8 30  1  0
  9 31  1  0
  9 32  1  0
 10 33  1  0
 11 34  1  1
 12 35  1  0
 12 36  1  0
 18 37  1  0
 19 38  1  0
 20 39  1  0
M  ISO  8  27  14  28  14  29  13  30  13  31  13  32  13  33   5  34  13
M  ISO  5  35  13  36  13  37  14  38  14  39  14
M  END
>  <minimizedAffinity>  (1) 
-7.22683525

>  <minimizedRMSD>  (1) 
0.696801603

$$$$
