
     RDKit          3D

 40 42  0  0  1  0  0  0  0  0999 V2000
   44.7080   35.0940   45.3520 C   0  0  0  0  0  0  0  0  0  0  0  0
   45.4910   34.9720   44.1990 C   0  0  0  0  0  0  0  0  0  0  0  0
   46.4580   33.9510   44.1450 C   0  0  0  0  0  0  0  0  0  0  0  0
   46.5380   33.1640   45.2480 N   0  0  0  0  0  0  0  0  0  0  0  0
   45.7680   33.3070   46.3440 C   0  0  0  0  0  0  0  0  0  0  0  0
   44.8470   34.2850   46.3890 N   0  0  0  0  0  0  0  0  0  0  0  0
   47.3140   33.7170   43.0450 N   0  0  0  0  0  0  0  0  0  0  0  0
   46.8920   32.8850   41.9460 C   0  0  0  0  0  0  0  0  0  0  0  0
   48.0550   32.3560   41.1630 C   0  0  0  0  0  0  0  0  0  0  0  0
   49.0190   33.3180   40.7810 N   0  0  0  0  0  0  0  0  0  0  0  0
   49.2550   34.3770   41.6860 C   0  0  2  0  0  0  0  0  0  0  0  0
   48.6250   34.3130   43.0180 C   0  0  0  0  0  0  0  0  0  0  0  0
   48.8230   35.6820   41.0480 C   0  0  0  0  0  0  0  0  0  0  0  0
   49.6550   36.7270   41.4360 F   0  0  0  0  0  0  0  0  0  0  0  0
   47.5660   35.9730   41.5690 F   0  0  0  0  0  0  0  0  0  0  0  0
   48.8140   35.6350   39.6790 F   0  0  0  0  0  0  0  0  0  0  0  0
   45.9340   32.4050   47.4770 C   0  0  0  0  0  0  0  0  0  0  0  0
   44.8510   31.7390   47.9920 C   0  0  0  0  0  0  0  0  0  0  0  0
   45.0580   30.8920   49.0690 C   0  0  0  0  0  0  0  0  0  0  0  0
   46.3380   30.7790   49.5480 C   0  0  0  0  0  0  0  0  0  0  0  0
   47.4230   31.4410   49.0400 C   0  0  0  0  0  0  0  0  0  0  0  0
   47.1940   32.2670   47.9810 N   0  0  0  0  0  0  0  0  0  0  0  0
   49.6890   30.2540   49.6650 C   0  0  0  0  0  0  0  0  0  0  0  0
   49.4310   29.0750   49.3360 O   0  0  0  0  0  0  0  0  0  0  0  0
   48.7540   31.3350   49.5230 N   0  0  0  0  0  0  0  0  0  0  0  0
   43.9505   35.8904   45.3976 H   0  0  0  0  0  0  0  0  0  0  0  0
   45.3536   35.6601   43.3519 H   0  0  0  0  0  0  0  0  0  0  0  0
   46.3163   32.0363   42.3438 H   0  0  0  0  0  0  0  0  0  0  0  0
   46.2793   33.4999   41.2704 H   0  0  0  0  0  0  0  0  0  0  0  0
   48.5596   31.5957   41.7773 H   0  0  0  0  0  0  0  0  0  0  0  0
   47.6344   31.9610   40.2265 H   0  0  0  0  0  0  0  0  0  0  0  0
   49.9120   32.8249   40.6386 H   0  0  0  0  0  0  0  0  0  0  0  0
   50.3344   34.2933   41.8805 H   0  0  0  0  0  0  0  0  0  0  0  0
   49.2805   33.7250   43.6772 H   0  0  0  0  0  0  0  0  0  0  0  0
   48.4951   35.3548   43.3462 H   0  0  0  0  0  0  0  0  0  0  0  0
   43.8473   31.8734   47.5625 H   0  0  0  0  0  0  0  0  0  0  0  0
   44.2272   30.3316   49.5225 H   0  0  0  0  0  0  0  0  0  0  0  0
   46.5050   30.1073   50.4029 H   0  0  0  0  0  0  0  0  0  0  0  0
   50.6819   30.4739   50.0842 H   0  0  0  0  0  0  0  0  0  0  0  0
   49.1349   32.2366   49.8439 H   0  0  0  0  0  0  0  0  0  0  0  0
  1  6  2  0
  2  1  1  0
  3  2  2  0
  3  4  1  0
  4  5  2  0
  5  6  1  0
  5 17  1  0
  7  3  1  0
  8  7  1  0
  9  8  1  0
 10  9  1  0
 10 11  1  0
 11 12  1  0
 12  7  1  0
 13 14  1  0
 13 15  1  0
 13 11  1  0
 16 13  1  0
 17 22  1  0
 17 18  2  0
 18 19  1  0
 19 20  2  0
 21 25  1  0
 21 20  1  0
 22 21  2  0
 24 23  2  0
 25 23  1  0
  1 26  1  0
  2 27  1  0
  8 28  1  0
  8 29  1  0
  9 30  1  0
  9 31  1  0
 10 32  1  0
 11 33  1  1
 12 34  1  0
 12 35  1  0
 18 36  1  0
 19 37  1  0
 20 38  1  0
 23 39  1  0
 25 40  1  0
M  ISO  8  26  14  27  14  28  13  29  13  30  13  31  13  32   5  33  13
M  ISO  6  34  13  35  13  36  14  37  14  38  14  39   6
M  END
>  <minimizedAffinity>  (1) 
-7.11674881

>  <minimizedRMSD>  (1) 
0.372983992

$$$$
