
     RDKit          3D

 22 23  0  0  0  0  0  0  0  0999 V2000
   44.5180   35.6400   44.9740 C   0  0  0  0  0  0  0  0  0  0  0  0
   45.2140   35.6650   43.7690 C   0  0  0  0  0  0  0  0  0  0  0  0
   46.1810   34.7100   43.5150 C   0  0  0  0  0  0  0  0  0  0  0  0
   46.3980   33.7750   44.4890 N   0  0  0  0  0  0  0  0  0  0  0  0
   45.7130   33.7720   45.6440 C   0  0  0  0  0  0  0  0  0  0  0  0
   44.7680   34.6990   45.9040 N   0  0  0  0  0  0  0  0  0  0  0  0
   44.7720   33.0340   41.5660 Cl  0  0  0  0  0  0  0  0  0  0  0  0
   46.2730   33.9360   41.3110 C   0  0  0  0  0  0  0  0  0  0  0  0
   46.9070   34.7250   42.2790 C   0  0  0  0  0  0  0  0  0  0  0  0
   48.0760   35.3730   41.9380 C   0  0  0  0  0  0  0  0  0  0  0  0
   48.6410   35.2750   40.6840 C   0  0  0  0  0  0  0  0  0  0  0  0
   47.9860   34.4860   39.7550 C   0  0  0  0  0  0  0  0  0  0  0  0
   46.8130   33.8080   40.0250 C   0  0  0  0  0  0  0  0  0  0  0  0
   44.8720   36.7040   42.8610 N   0  0  0  0  0  0  0  0  0  0  0  0
   43.7499   36.4026   45.1701 H   0  0  0  0  0  0  0  0  0  0  0  0
   45.9271   32.9968   46.3945 H   0  0  0  0  0  0  0  0  0  0  0  0
   48.5773   35.9924   42.6964 H   0  0  0  0  0  0  0  0  0  0  0  0
   49.5733   35.8019   40.4327 H   0  0  0  0  0  0  0  0  0  0  0  0
   48.4219   34.3938   38.7493 H   0  0  0  0  0  0  0  0  0  0  0  0
   46.3215   33.1907   39.2586 H   0  0  0  0  0  0  0  0  0  0  0  0
   45.3533   36.7736   41.9530 H   0  0  0  0  0  0  0  0  0  0  0  0
   44.1429   37.3872   43.1111 H   0  0  0  0  0  0  0  0  0  0  0  0
  1  6  2  0
  2  1  1  0
  3  2  2  0
  3  4  1  0
  4  5  2  0
  5  6  1  0
  8  7  1  0
  8  9  2  0
  9  3  1  0
 10  9  1  0
 11 10  2  0
 12 13  2  0
 12 11  1  0
 13  8  1  0
 14  2  1  0
  1 15  1  0
  5 16  1  0
 10 17  1  0
 11 18  1  0
 12 19  1  0
 13 20  1  0
 14 21  1  0
 14 22  1  0
M  ISO  6  15  14  16  14  17  14  18  14  19  14  20  14
M  END
>  <minimizedAffinity>  (1) 
-5.30263567

>  <minimizedRMSD>  (1) 
2.0208981

$$$$
