
     RDKit          3D

 25 26  0  0  0  0  0  0  0  0999 V2000
   46.2520   33.9550   41.2780 C   0  0  0  0  0  0  0  0  0  0  0  0
   46.8850   34.6780   42.2900 C   0  0  0  0  0  0  0  0  0  0  0  0
   48.0760   35.3400   42.0610 C   0  0  0  0  0  0  0  0  0  0  0  0
   48.6960   35.3140   40.8110 C   0  0  0  0  0  0  0  0  0  0  0  0
   48.0300   34.5860   39.8460 C   0  0  0  0  0  0  0  0  0  0  0  0
   46.8420   33.9060   40.0170 C   0  0  0  0  0  0  0  0  0  0  0  0
   44.4990   35.6670   44.9670 C   0  0  0  0  0  0  0  0  0  0  0  0
   45.2080   35.6360   43.7750 C   0  0  0  0  0  0  0  0  0  0  0  0
   46.1760   34.6590   43.5620 C   0  0  0  0  0  0  0  0  0  0  0  0
   46.3640   33.7680   44.5820 N   0  0  0  0  0  0  0  0  0  0  0  0
   45.6740   33.8070   45.7280 C   0  0  0  0  0  0  0  0  0  0  0  0
   44.7250   34.7600   45.9440 N   0  0  0  0  0  0  0  0  0  0  0  0
   44.8590   36.6640   42.8240 N   0  0  0  0  0  0  0  0  0  0  0  0
   44.7580   33.0840   41.4310 S   0  0  0  0  0  0  0  0  0  0  0  0
   43.6130   34.0510   41.2150 O   0  0  0  0  0  0  0  0  0  0  0  0
   44.7150   32.0510   40.3130 O   0  0  0  0  0  0  0  0  0  0  0  0
   48.5462   35.9002   42.8826 H   0  0  0  0  0  0  0  0  0  0  0  0
   49.6440   35.8345   40.6100 H   0  0  0  0  0  0  0  0  0  0  0  0
   48.4893   34.5441   38.8474 H   0  0  0  0  0  0  0  0  0  0  0  0
   46.3789   33.3472   39.1904 H   0  0  0  0  0  0  0  0  0  0  0  0
   43.7372   36.4455   45.1205 H   0  0  0  0  0  0  0  0  0  0  0  0
   45.8763   33.0578   46.5076 H   0  0  0  0  0  0  0  0  0  0  0  0
   45.3403   36.7090   41.9145 H   0  0  0  0  0  0  0  0  0  0  0  0
   44.1286   37.3526   43.0548 H   0  0  0  0  0  0  0  0  0  0  0  0
   44.6608   32.4939   42.6636 H   0  0  0  0  0  0  0  0  0  0  0  0
  1 14  1  0
  1  2  2  0
  2  9  1  0
  3  2  1  0
  4  3  2  0
  5  6  2  0
  5  4  1  0
  6  1  1  0
  7 12  2  0
  8  7  1  0
  9  8  2  0
  9 10  1  0
 10 11  2  0
 11 12  1  0
 13  8  1  0
 15 14  2  0
 16 14  2  0
  3 17  1  0
  4 18  1  0
  5 19  1  0
  6 20  1  0
  7 21  1  0
 11 22  1  0
 13 23  1  0
 13 24  1  0
 14 25  1  0
M  ISO  7  17  14  18  14  19  14  20  14  21  14  22  14  25  11
M  END
>  <minimizedAffinity>  (1) 
-5.28414249

>  <minimizedRMSD>  (1) 
2.03015924

$$$$
