
     RDKit          3D

 23 24  0  0  0  0  0  0  0  0999 V2000
   44.4790   35.7930   44.9700 C   0  0  0  0  0  0  0  0  0  0  0  0
   45.1360   35.7170   43.7420 C   0  0  0  0  0  0  0  0  0  0  0  0
   46.0530   34.6880   43.4970 C   0  0  0  0  0  0  0  0  0  0  0  0
   46.2370   33.8130   44.5060 N   0  0  0  0  0  0  0  0  0  0  0  0
   45.5990   33.8950   45.6810 C   0  0  0  0  0  0  0  0  0  0  0  0
   44.7140   34.8870   45.9250 N   0  0  0  0  0  0  0  0  0  0  0  0
   46.1840   33.9450   41.1270 C   0  0  0  0  0  0  0  0  0  0  0  0
   46.7090   34.6300   42.2350 C   0  0  0  0  0  0  0  0  0  0  0  0
   47.9230   35.2750   42.0860 C   0  0  0  0  0  0  0  0  0  0  0  0
   48.6020   35.2500   40.8880 C   0  0  0  0  0  0  0  0  0  0  0  0
   48.0610   34.5660   39.8170 C   0  0  0  0  0  0  0  0  0  0  0  0
   46.8410   33.8960   39.9040 C   0  0  0  0  0  0  0  0  0  0  0  0
   43.8740   32.7210   41.4140 N   0  0  0  0  0  0  0  0  0  0  0  0
   44.9070   33.2650   41.2770 C   0  0  0  0  0  0  0  0  0  0  0  0
   44.8030   36.7440   42.7860 N   0  0  0  0  0  0  0  0  0  0  0  0
   43.7610   36.6056   45.1546 H   0  0  0  0  0  0  0  0  0  0  0  0
   45.7984   33.1435   46.4592 H   0  0  0  0  0  0  0  0  0  0  0  0
   48.3543   35.8180   42.9399 H   0  0  0  0  0  0  0  0  0  0  0  0
   49.5660   35.7698   40.7851 H   0  0  0  0  0  0  0  0  0  0  0  0
   48.6104   34.5492   38.8642 H   0  0  0  0  0  0  0  0  0  0  0  0
   46.4189   33.3543   39.0447 H   0  0  0  0  0  0  0  0  0  0  0  0
   45.2508   36.7489   41.8585 H   0  0  0  0  0  0  0  0  0  0  0  0
   44.1174   37.4726   43.0307 H   0  0  0  0  0  0  0  0  0  0  0  0
  1  6  2  0
  2  1  1  0
  3  2  2  0
  3  4  1  0
  4  5  2  0
  5  6  1  0
  7 14  1  0
  7  8  2  0
  8  3  1  0
  9  8  1  0
 10  9  2  0
 11 12  2  0
 11 10  1  0
 12  7  1  0
 14 13  3  0
 15  2  1  0
  1 16  1  0
  5 17  1  0
  9 18  1  0
 10 19  1  0
 11 20  1  0
 12 21  1  0
 15 22  1  0
 15 23  1  0
M  ISO  6  16  14  17  14  18  14  19  14  20  14  21  14
M  END
>  <minimizedAffinity>  (1) 
-5.23662281

>  <minimizedRMSD>  (1) 
1.83269179

$$$$
