
     RDKit          3D

 28 29  0  0  0  0  0  0  0  0999 V2000
   44.7790   35.0860   45.3680 C   0  0  0  0  0  0  0  0  0  0  0  0
   45.1690   35.4740   44.0860 C   0  0  0  0  0  0  0  0  0  0  0  0
   46.1510   34.7270   43.4530 C   0  0  0  0  0  0  0  0  0  0  0  0
   46.6640   33.6710   44.1190 N   0  0  0  0  0  0  0  0  0  0  0  0
   46.2780   33.3110   45.3510 C   0  0  0  0  0  0  0  0  0  0  0  0
   45.3270   34.0310   45.9710 N   0  0  0  0  0  0  0  0  0  0  0  0
   46.5570   35.1610   42.0760 C   0  0  0  0  0  0  0  0  0  0  0  0
   46.0220   34.2050   41.0780 C   0  0  0  0  0  0  0  0  0  0  0  0
   46.9010   33.8090   39.9470 C   0  0  0  0  0  0  0  0  0  0  0  0
   48.3480   33.6170   40.3040 C   0  0  0  0  0  0  0  0  0  0  0  0
   48.6390   33.9780   41.7420 C   0  0  0  0  0  0  0  0  0  0  0  0
   48.0540   35.3430   41.9520 C   0  0  0  0  0  0  0  0  0  0  0  0
   44.5220   36.6160   43.5310 N   0  0  0  0  0  0  0  0  0  0  0  0
   44.0029   35.6628   45.8923 H   0  0  0  0  0  0  0  0  0  0  0  0
   46.7321   32.4404   45.8468 H   0  0  0  0  0  0  0  0  0  0  0  0
   46.1218   36.1517   41.8780 H   0  0  0  0  0  0  0  0  0  0  0  0
   45.7511   33.2860   41.6185 H   0  0  0  0  0  0  0  0  0  0  0  0
   45.1893   34.7436   40.6020 H   0  0  0  0  0  0  0  0  0  0  0  0
   46.8405   34.5926   39.1773 H   0  0  0  0  0  0  0  0  0  0  0  0
   46.5368   32.8297   39.6030 H   0  0  0  0  0  0  0  0  0  0  0  0
   48.6144   32.5619   40.1438 H   0  0  0  0  0  0  0  0  0  0  0  0
   48.9430   34.2846   39.6635 H   0  0  0  0  0  0  0  0  0  0  0  0
   48.1684   33.2518   42.4211 H   0  0  0  0  0  0  0  0  0  0  0  0
   49.7191   33.9662   41.9497 H   0  0  0  0  0  0  0  0  0  0  0  0
   48.4587   35.7914   42.8713 H   0  0  0  0  0  0  0  0  0  0  0  0
   48.3029   36.0127   41.1156 H   0  0  0  0  0  0  0  0  0  0  0  0
   44.7743   36.9430   42.5874 H   0  0  0  0  0  0  0  0  0  0  0  0
   43.8021   37.1144   44.0734 H   0  0  0  0  0  0  0  0  0  0  0  0
  1  6  2  0
  2  1  1  0
  3  2  2  0
  3  4  1  0
  4  5  2  0
  5  6  1  0
  7  3  1  0
  8  7  1  0
  9 10  1  0
  9  8  1  0
 10 11  1  0
 11 12  1  0
 12  7  1  0
 13  2  1  0
  1 14  1  0
  5 15  1  0
  7 16  1  0
  8 17  1  0
  8 18  1  0
  9 19  1  0
  9 20  1  0
 10 21  1  0
 10 22  1  0
 11 23  1  0
 11 24  1  0
 12 25  1  0
 12 26  1  0
 13 27  1  0
 13 28  1  0
M  ISO  8  14  14  15  14  16  13  17  13  18  13  19  13  20  13  21  13
M  ISO  5  22  13  23  13  24  13  25  13  26  13
M  END
>  <minimizedAffinity>  (1) 
-4.72906494

>  <minimizedRMSD>  (1) 
2.81034207

$$$$
