
     RDKit          3D

 21 22  0  0  0  0  0  0  0  0999 V2000
   46.5270   34.4090   41.4620 S   0  0  0  0  0  0  0  0  0  0  0  0
   44.5370   36.1290   44.5650 C   0  0  0  0  0  0  0  0  0  0  0  0
   45.0910   35.9210   43.2680 C   0  0  0  0  0  0  0  0  0  0  0  0
   45.8150   34.7190   43.0610 C   0  0  0  0  0  0  0  0  0  0  0  0
   45.9280   33.8620   44.1000 N   0  0  0  0  0  0  0  0  0  0  0  0
   45.3920   34.0920   45.3070 C   0  0  0  0  0  0  0  0  0  0  0  0
   44.7060   35.2150   45.5290 N   0  0  0  0  0  0  0  0  0  0  0  0
   48.2070   33.8500   41.7140 C   0  0  0  0  0  0  0  0  0  0  0  0
   48.7180   32.6200   41.3540 C   0  0  0  0  0  0  0  0  0  0  0  0
   50.0540   32.3380   41.6220 C   0  0  0  0  0  0  0  0  0  0  0  0
   50.8450   33.2900   42.2410 C   0  0  0  0  0  0  0  0  0  0  0  0
   50.3490   34.5310   42.6100 C   0  0  0  0  0  0  0  0  0  0  0  0
   49.0100   34.7900   42.3320 C   0  0  0  0  0  0  0  0  0  0  0  0
   43.9671   37.0461   44.7752 H   0  0  0  0  0  0  0  0  0  0  0  0
   44.9627   36.6600   42.4634 H   0  0  0  0  0  0  0  0  0  0  0  0
   45.5176   33.3553   46.1142 H   0  0  0  0  0  0  0  0  0  0  0  0
   48.0782   31.8727   40.8620 H   0  0  0  0  0  0  0  0  0  0  0  0
   50.4795   31.3627   41.3431 H   0  0  0  0  0  0  0  0  0  0  0  0
   51.8997   33.0549   42.4466 H   0  0  0  0  0  0  0  0  0  0  0  0
   50.9872   35.2798   43.1020 H   0  0  0  0  0  0  0  0  0  0  0  0
   48.5815   35.7641   42.6102 H   0  0  0  0  0  0  0  0  0  0  0  0
  1  8  1  0
  1  4  1  0
  2  7  2  0
  3  2  1  0
  4  3  2  0
  4  5  1  0
  5  6  2  0
  6  7  1  0
  8 13  2  0
  9 10  2  0
  9  8  1  0
 10 11  1  0
 11 12  2  0
 13 12  1  0
  2 14  1  0
  3 15  1  0
  6 16  1  0
  9 17  1  0
 10 18  1  0
 11 19  1  0
 12 20  1  0
 13 21  1  0
M  ISO  8  14  14  15  14  16  14  17  14  18  14  19  14  20  14  21  14
M  END
>  <minimizedAffinity>  (1) 
-4.49699211

>  <minimizedRMSD>  (1) 
1.55155718

$$$$
