
     RDKit          3D

 18 19  0  0  0  0  0  0  0  0999 V2000
   44.5300   35.7140   44.9360 C   0  0  0  0  0  0  0  0  0  0  0  0
   45.2090   35.7090   43.7050 C   0  0  0  0  0  0  0  0  0  0  0  0
   46.1320   34.7090   43.4650 C   0  0  0  0  0  0  0  0  0  0  0  0
   46.3120   33.7880   44.4670 N   0  0  0  0  0  0  0  0  0  0  0  0
   45.6540   33.8140   45.6280 C   0  0  0  0  0  0  0  0  0  0  0  0
   44.7570   34.7860   45.8640 N   0  0  0  0  0  0  0  0  0  0  0  0
   46.8800   34.6390   42.2010 C   0  0  0  0  0  0  0  0  0  0  0  0
   46.5330   33.8220   41.1700 C   0  0  0  0  0  0  0  0  0  0  0  0
   47.8300   34.1830   39.8960 S   0  0  0  0  0  0  0  0  0  0  0  0
   48.6370   35.4270   41.0470 C   0  0  0  0  0  0  0  0  0  0  0  0
   47.9500   35.3610   41.9590 N   0  0  0  0  0  0  0  0  0  0  0  0
   44.8820   36.7510   42.7980 N   0  0  0  0  0  0  0  0  0  0  0  0
   43.7923   36.5046   45.1379 H   0  0  0  0  0  0  0  0  0  0  0  0
   45.8454   33.0427   46.3886 H   0  0  0  0  0  0  0  0  0  0  0  0
   45.6891   33.1191   41.1077 H   0  0  0  0  0  0  0  0  0  0  0  0
   49.5290   36.0506   40.8875 H   0  0  0  0  0  0  0  0  0  0  0  0
   45.3469   36.7996   41.8802 H   0  0  0  0  0  0  0  0  0  0  0  0
   44.1799   37.4584   43.0578 H   0  0  0  0  0  0  0  0  0  0  0  0
  1  6  2  0
  2  1  1  0
  3  2  2  0
  3  4  1  0
  4  5  2  0
  5  6  1  0
  7  3  1  0
  8  7  2  0
  9 10  1  0
  9  8  1  0
 10 11  2  0
 11  7  1  0
 12  2  1  0
  1 13  1  0
  5 14  1  0
  8 15  1  0
 10 16  1  0
 12 17  1  0
 12 18  1  0
M  ISO  4  13  14  14  14  15  14  16  14
M  END
>  <minimizedAffinity>  (1) 
-4.31551409

>  <minimizedRMSD>  (1) 
1.75529528

$$$$
