
     RDKit          3D

 19 20  0  0  0  0  0  0  0  0999 V2000
   44.5930   35.5150   45.0560 C   0  0  0  0  0  0  0  0  0  0  0  0
   45.1400   35.7100   43.7880 C   0  0  0  0  0  0  0  0  0  0  0  0
   46.1230   34.8110   43.3640 C   0  0  0  0  0  0  0  0  0  0  0  0
   46.4640   33.8220   44.2190 N   0  0  0  0  0  0  0  0  0  0  0  0
   45.9220   33.6550   45.4340 C   0  0  0  0  0  0  0  0  0  0  0  0
   44.9630   34.5230   45.8650 N   0  0  0  0  0  0  0  0  0  0  0  0
   44.6450   36.8140   43.0370 N   0  0  0  0  0  0  0  0  0  0  0  0
   46.6870   35.0300   42.0280 C   0  0  0  0  0  0  0  0  0  0  0  0
   47.6000   33.8870   41.5630 C   0  0  0  0  0  0  0  0  0  0  0  0
   48.1330   35.2400   41.8600 C   0  0  0  0  0  0  0  0  0  0  0  0
   43.8187   36.2139   45.4051 H   0  0  0  0  0  0  0  0  0  0  0  0
   46.2483   32.8247   46.0776 H   0  0  0  0  0  0  0  0  0  0  0  0
   45.0150   37.0031   42.0945 H   0  0  0  0  0  0  0  0  0  0  0  0
   43.9170   37.4235   43.4363 H   0  0  0  0  0  0  0  0  0  0  0  0
   45.8084   35.5830   41.6644 H   0  0  0  0  0  0  0  0  0  0  0  0
   47.5514   33.5254   40.5253 H   0  0  0  0  0  0  0  0  0  0  0  0
   47.8158   32.8632   41.9026 H   0  0  0  0  0  0  0  0  0  0  0  0
   48.7660   35.3913   42.7468 H   0  0  0  0  0  0  0  0  0  0  0  0
   48.7374   35.9627   41.2922 H   0  0  0  0  0  0  0  0  0  0  0  0
  1  6  2  0
  2  1  1  0
  3  2  2  0
  3  4  1  0
  4  5  2  0
  5  6  1  0
  7  2  1  0
  8  3  1  0
  9 10  1  0
  9  8  1  0
 10  8  1  0
  1 11  1  0
  5 12  1  0
  7 13  1  0
  7 14  1  0
  8 15  1  0
  9 16  1  0
  9 17  1  0
 10 18  1  0
 10 19  1  0
M  ISO  7  11  14  12  14  15  13  16  13  17  13  18  13  19  13
M  END
>  <minimizedAffinity>  (1) 
-3.96876669

>  <minimizedRMSD>  (1) 
1.60955441

$$$$
