
     RDKit          3D

 14 14  0  0  0  0  0  0  0  0999 V2000
   44.5570   35.5610   45.0940 C   0  0  0  0  0  0  0  0  0  0  0  0
   45.1120   35.7050   43.8080 C   0  0  0  0  0  0  0  0  0  0  0  0
   46.0610   34.7790   43.4080 C   0  0  0  0  0  0  0  0  0  0  0  0
   46.4060   33.7920   44.2610 N   0  0  0  0  0  0  0  0  0  0  0  0
   45.8510   33.6850   45.4920 C   0  0  0  0  0  0  0  0  0  0  0  0
   44.9240   34.5670   45.9160 N   0  0  0  0  0  0  0  0  0  0  0  0
   44.6410   36.8040   43.0240 N   0  0  0  0  0  0  0  0  0  0  0  0
   46.6160   34.9400   42.0950 C   0  0  0  0  0  0  0  0  0  0  0  0
   47.7860   35.3680   41.9840 O   0  0  0  0  0  0  0  0  0  0  0  0
   43.8011   36.2842   45.4340 H   0  0  0  0  0  0  0  0  0  0  0  0
   46.1618   32.8652   46.1563 H   0  0  0  0  0  0  0  0  0  0  0  0
   45.0129   36.9569   42.0757 H   0  0  0  0  0  0  0  0  0  0  0  0
   43.9298   37.4428   43.4075 H   0  0  0  0  0  0  0  0  0  0  0  0
   46.0234   34.6916   41.2022 H   0  0  0  0  0  0  0  0  0  0  0  0
  1  6  2  0
  2  1  1  0
  3  2  2  0
  3  4  1  0
  4  5  2  0
  5  6  1  0
  7  2  1  0
  8  3  1  0
  9  8  2  0
  1 10  1  0
  5 11  1  0
  7 12  1  0
  7 13  1  0
  8 14  1  0
M  ISO  3  10  14  11  14  14   6
M  END
>  <minimizedAffinity>  (1) 
-3.48668933

>  <minimizedRMSD>  (1) 
1.50044179

$$$$
