
     RDKit          3D

 15 15  0  0  0  0  0  0  0  0999 V2000
   44.5390   35.5840   45.0890 C   0  0  0  0  0  0  0  0  0  0  0  0
   45.1140   35.7010   43.8180 C   0  0  0  0  0  0  0  0  0  0  0  0
   46.0760   34.7730   43.4040 C   0  0  0  0  0  0  0  0  0  0  0  0
   46.3870   33.8030   44.2930 N   0  0  0  0  0  0  0  0  0  0  0  0
   45.8340   33.6950   45.5110 C   0  0  0  0  0  0  0  0  0  0  0  0
   44.9050   34.5950   45.9040 N   0  0  0  0  0  0  0  0  0  0  0  0
   44.6520   36.7940   43.0290 N   0  0  0  0  0  0  0  0  0  0  0  0
   46.6280   34.9620   42.0690 C   0  0  0  0  0  0  0  0  0  0  0  0
   43.7818   36.3116   45.4165 H   0  0  0  0  0  0  0  0  0  0  0  0
   46.1347   32.8795   46.1852 H   0  0  0  0  0  0  0  0  0  0  0  0
   45.0308   36.9425   42.0828 H   0  0  0  0  0  0  0  0  0  0  0  0
   43.9393   37.4355   43.4049 H   0  0  0  0  0  0  0  0  0  0  0  0
   47.6660   35.3174   42.1483 H   0  0  0  0  0  0  0  0  0  0  0  0
   46.6083   34.0059   41.5254 H   0  0  0  0  0  0  0  0  0  0  0  0
   46.0265   35.7054   41.5254 H   0  0  0  0  0  0  0  0  0  0  0  0
  1  6  2  0
  2  1  1  0
  3  2  2  0
  3  4  1  0
  4  5  2  0
  5  6  1  0
  7  2  1  0
  8  3  1  0
  1  9  1  0
  5 10  1  0
  7 11  1  0
  7 12  1  0
  8 13  1  0
  8 14  1  0
  8 15  1  0
M  ISO  5   9  14  10  14  13   8  14   8  15   8
M  END
>  <minimizedAffinity>  (1) 
-3.43559051

>  <minimizedRMSD>  (1) 
1.03437269

$$$$
