
     RDKit          3D

 13 13  0  0  0  0  0  0  0  0999 V2000
   44.5050   35.6560   45.0880 C   0  0  0  0  0  0  0  0  0  0  0  0
   45.0850   35.7030   43.8200 C   0  0  0  0  0  0  0  0  0  0  0  0
   46.0040   34.7100   43.4960 C   0  0  0  0  0  0  0  0  0  0  0  0
   46.2780   33.7650   44.4220 N   0  0  0  0  0  0  0  0  0  0  0  0
   45.6980   33.7520   45.6370 C   0  0  0  0  0  0  0  0  0  0  0  0
   44.8050   34.6970   45.9840 N   0  0  0  0  0  0  0  0  0  0  0  0
   44.6810   36.7680   42.9720 N   0  0  0  0  0  0  0  0  0  0  0  0
   46.7250   34.7860   41.8930 S   0  0  0  0  0  0  0  0  0  0  0  0
   43.7757   36.4311   45.3659 H   0  0  0  0  0  0  0  0  0  0  0  0
   45.9572   32.9595   46.3545 H   0  0  0  0  0  0  0  0  0  0  0  0
   45.0775   36.8510   42.0250 H   0  0  0  0  0  0  0  0  0  0  0  0
   43.9915   37.4574   43.3039 H   0  0  0  0  0  0  0  0  0  0  0  0
   48.0825   34.9291   42.0092 H   0  0  0  0  0  0  0  0  0  0  0  0
  1  6  2  0
  2  1  1  0
  3  2  2  0
  3  4  1  0
  4  5  2  0
  5  6  1  0
  7  2  1  0
  8  3  1  0
  1  9  1  0
  5 10  1  0
  7 11  1  0
  7 12  1  0
  8 13  1  0
M  ISO  3   9  14  10  14  13  11
M  END
>  <minimizedAffinity>  (1) 
-3.2709868

>  <minimizedRMSD>  (1) 
0.998253763

$$$$
