
     RDKit          3D

 25 27  0  0  0  0  0  0  0  0999 V2000
   44.4390   35.8680   44.6840 C   0  0  0  0  0  0  0  0  0  0  0  0
   44.6670   35.4840   43.3500 C   0  0  0  0  0  0  0  0  0  0  0  0
   45.2880   34.2850   43.1080 C   0  0  0  0  0  0  0  0  0  0  0  0
   45.6440   33.5430   44.2090 N   0  0  0  0  0  0  0  0  0  0  0  0
   45.4180   33.9250   45.4650 C   0  0  0  0  0  0  0  0  0  0  0  0
   44.8110   35.0970   45.7030 N   0  0  0  0  0  0  0  0  0  0  0  0
   45.5640   33.8120   41.7320 C   0  0  0  0  0  0  0  0  0  0  0  0
   44.7310   32.9520   41.0650 C   0  0  0  0  0  0  0  0  0  0  0  0
   45.6050   32.7530   39.4420 S   0  0  0  0  0  0  0  0  0  0  0  0
   46.9650   33.9040   39.9980 C   0  0  0  0  0  0  0  0  0  0  0  0
   46.6130   34.1770   41.0560 N   0  0  0  0  0  0  0  0  0  0  0  0
   48.1170   34.2180   39.0730 C   0  0  0  0  0  0  0  0  0  0  0  0
   48.7380   33.1020   38.3260 C   0  0  0  0  0  0  0  0  0  0  0  0
   47.8160   34.0840   37.6450 C   0  0  0  0  0  0  0  0  0  0  0  0
   44.2270   36.3870   42.3360 N   0  0  0  0  0  0  0  0  0  0  0  0
   43.9419   36.8275   44.8896 H   0  0  0  0  0  0  0  0  0  0  0  0
   45.7276   33.2826   46.3025 H   0  0  0  0  0  0  0  0  0  0  0  0
   43.7885   32.4977   41.4045 H   0  0  0  0  0  0  0  0  0  0  0  0
   48.5272   35.0062   39.7215 H   0  0  0  0  0  0  0  0  0  0  0  0
   49.8164   33.1133   38.1092 H   0  0  0  0  0  0  0  0  0  0  0  0
   48.7768   32.0083   38.4368 H   0  0  0  0  0  0  0  0  0  0  0  0
   48.2202   34.8118   36.9260 H   0  0  0  0  0  0  0  0  0  0  0  0
   46.8970   34.0044   37.0457 H   0  0  0  0  0  0  0  0  0  0  0  0
   44.3692   36.1548   41.3426 H   0  0  0  0  0  0  0  0  0  0  0  0
   43.7673   37.2708   42.5976 H   0  0  0  0  0  0  0  0  0  0  0  0
  1  6  2  0
  2  1  1  0
  3  2  2  0
  3  4  1  0
  4  5  2  0
  5  6  1  0
  7  3  1  0
  8  7  2  0
  9 10  1  0
  9  8  1  0
 10 11  2  0
 11  7  1  0
 12 10  1  0
 13 12  1  0
 14 13  1  0
 14 12  1  0
 15  2  1  0
  1 16  1  0
  5 17  1  0
  8 18  1  0
 12 19  1  0
 13 20  1  0
 13 21  1  0
 14 22  1  0
 14 23  1  0
 15 24  1  0
 15 25  1  0
M  ISO  8  16  14  17  14  18  14  19  13  20  13  21  13  22  13  23  13
M  END
>  <minimizedAffinity>  (1) 
-4.29037046

>  <minimizedRMSD>  (1) 
2.14812803

$$$$
