
     RDKit          3D

 24 25  0  0  0  0  0  0  0  0999 V2000
   44.4860   35.2070   46.0160 C   0  0  0  0  0  0  0  0  0  0  0  0
   44.8390   35.1730   44.6520 C   0  0  0  0  0  0  0  0  0  0  0  0
   45.5580   34.0840   44.1900 C   0  0  0  0  0  0  0  0  0  0  0  0
   45.8780   33.1030   45.1110 N   0  0  0  0  0  0  0  0  0  0  0  0
   45.5190   33.1800   46.3990 C   0  0  0  0  0  0  0  0  0  0  0  0
   44.8250   34.2270   46.8520 N   0  0  0  0  0  0  0  0  0  0  0  0
   45.9670   33.9760   42.7730 C   0  0  0  0  0  0  0  0  0  0  0  0
   45.3050   33.2190   41.8700 C   0  0  0  0  0  0  0  0  0  0  0  0
   46.2920   33.5040   40.3180 S   0  0  0  0  0  0  0  0  0  0  0  0
   47.4460   34.6360   41.2400 C   0  0  0  0  0  0  0  0  0  0  0  0
   47.0020   34.6120   42.2950 N   0  0  0  0  0  0  0  0  0  0  0  0
   48.6240   35.3230   40.5780 C   0  0  0  0  0  0  0  0  0  0  0  0
   49.3270   36.2370   41.5420 C   0  0  0  0  0  0  0  0  0  0  0  0
   44.4230   36.2680   43.8660 N   0  0  0  0  0  0  0  0  0  0  0  0
   43.9155   36.0654   46.4003 H   0  0  0  0  0  0  0  0  0  0  0  0
   45.7988   32.3721   47.0911 H   0  0  0  0  0  0  0  0  0  0  0  0
   44.4114   32.5942   42.0152 H   0  0  0  0  0  0  0  0  0  0  0  0
   49.3328   34.5599   40.2241 H   0  0  0  0  0  0  0  0  0  0  0  0
   48.2507   35.9234   39.7352 H   0  0  0  0  0  0  0  0  0  0  0  0
   49.0930   35.9327   42.5728 H   0  0  0  0  0  0  0  0  0  0  0  0
   50.4132   36.1760   41.3793 H   0  0  0  0  0  0  0  0  0  0  0  0
   48.9894   37.2712   41.3793 H   0  0  0  0  0  0  0  0  0  0  0  0
   44.6522   36.2980   42.8623 H   0  0  0  0  0  0  0  0  0  0  0  0
   43.8901   37.0375   44.2958 H   0  0  0  0  0  0  0  0  0  0  0  0
  1  6  2  0
  2  1  1  0
  3  2  2  0
  3  4  1  0
  4  5  2  0
  5  6  1  0
  7  3  1  0
  8  7  2  0
  9 10  1  0
  9  8  1  0
 10 11  2  0
 11  7  1  0
 12 10  1  0
 12 13  1  0
 14  2  1  0
  1 15  1  0
  5 16  1  0
  8 17  1  0
 12 18  1  0
 12 19  1  0
 13 20  1  0
 13 21  1  0
 13 22  1  0
 14 23  1  0
 14 24  1  0
M  ISO  8  15  14  16  14  17  14  18   8  19   8  20   8  21   8  22   8
M  END
>  <minimizedAffinity>  (1) 
-4.32083845

>  <minimizedRMSD>  (1) 
1.34598386

$$$$
