
     RDKit          3D

 30 31  0  0  0  0  0  0  0  0999 V2000
   45.9720   33.8510   43.7580 C   0  0  0  0  0  0  0  0  0  0  0  0
   45.0710   33.6710   42.7810 C   0  0  0  0  0  0  0  0  0  0  0  0
   45.9580   34.3530   41.2960 S   0  0  0  0  0  0  0  0  0  0  0  0
   47.4460   34.7650   42.3410 C   0  0  0  0  0  0  0  0  0  0  0  0
   47.0980   34.4070   43.3660 N   0  0  0  0  0  0  0  0  0  0  0  0
   44.8320   33.8340   47.3460 C   0  0  0  0  0  0  0  0  0  0  0  0
   45.0160   34.2630   46.0230 C   0  0  0  0  0  0  0  0  0  0  0  0
   45.7400   33.4630   45.1650 C   0  0  0  0  0  0  0  0  0  0  0  0
   46.2410   32.2800   45.6740 N   0  0  0  0  0  0  0  0  0  0  0  0
   46.0450   31.9010   46.9510 C   0  0  0  0  0  0  0  0  0  0  0  0
   45.3420   32.6740   47.7870 N   0  0  0  0  0  0  0  0  0  0  0  0
   44.4290   35.4950   45.6920 N   0  0  0  0  0  0  0  0  0  0  0  0
   48.6780   35.4050   41.7610 C   0  0  0  0  0  0  0  0  0  0  0  0
   49.9210   34.8020   42.3780 C   0  0  0  0  0  0  0  0  0  0  0  0
   49.6390   33.5030   42.7310 O   0  0  0  0  0  0  0  0  0  0  0  0
   49.6920   32.2690   40.4230 O   0  0  0  0  0  0  0  0  0  0  0  0
   50.4280   32.3730   41.7480 P   0  0  0  0  0  0  0  0  0  0  0  0
   52.0370   32.7990   41.4440 O   0  0  0  0  0  0  0  0  0  0  0  0
   50.4110   30.8900   42.5650 O   0  0  0  0  0  0  0  0  0  0  0  0
   44.0643   33.2320   42.8425 H   0  0  0  0  0  0  0  0  0  0  0  0
   44.2553   34.4643   48.0389 H   0  0  0  0  0  0  0  0  0  0  0  0
   46.4655   30.9498   47.3094 H   0  0  0  0  0  0  0  0  0  0  0  0
   44.5242   35.8710   44.7378 H   0  0  0  0  0  0  0  0  0  0  0  0
   43.9032   36.0226   46.4034 H   0  0  0  0  0  0  0  0  0  0  0  0
   48.6955   35.2397   40.6736 H   0  0  0  0  0  0  0  0  0  0  0  0
   48.6574   36.4834   41.9771 H   0  0  0  0  0  0  0  0  0  0  0  0
   50.7445   34.8193   41.6489 H   0  0  0  0  0  0  0  0  0  0  0  0
   50.2236   35.3793   43.2641 H   0  0  0  0  0  0  0  0  0  0  0  0
   52.5129   32.9250   42.3029 H   0  0  0  0  0  0  0  0  0  0  0  0
   50.4128   31.0513   43.5418 H   0  0  0  0  0  0  0  0  0  0  0  0
  1  8  1  0
  2  1  2  0
  3  4  1  0
  3  2  1  0
  4  5  2  0
  5  1  1  0
  6 11  2  0
  7  6  1  0
  8  9  1  0
  8  7  2  0
  9 10  2  0
 10 11  1  0
 12  7  1  0
 13  4  1  0
 13 14  1  0
 14 15  1  0
 16 17  2  0
 17 19  1  0
 17 15  1  0
 18 17  1  0
  2 20  1  0
  6 21  1  0
 10 22  1  0
 12 23  1  0
 12 24  1  0
 13 25  1  0
 13 26  1  0
 14 27  1  0
 14 28  1  0
 18 29  1  0
 19 30  1  0
M  ISO  8  20  14  21  14  22  14  25   8  26   8  27   8  28   8  29   3
M  ISO  1  30   3
M  END
>  <minimizedAffinity>  (1) 
-5.00435114

>  <minimizedRMSD>  (1) 
2.10358548

$$$$
