
     RDKit          3D

 31 33  0  0  0  0  0  0  0  0999 V2000
   45.7730   33.8850   43.9060 C   0  0  0  0  0  0  0  0  0  0  0  0
   44.7600   33.8610   43.0280 C   0  0  0  0  0  0  0  0  0  0  0  0
   45.5230   34.6400   41.5280 S   0  0  0  0  0  0  0  0  0  0  0  0
   47.1470   34.8550   42.4340 C   0  0  0  0  0  0  0  0  0  0  0  0
   46.8780   34.4110   43.4450 N   0  0  0  0  0  0  0  0  0  0  0  0
   45.0240   33.5190   47.5900 C   0  0  0  0  0  0  0  0  0  0  0  0
   45.0810   34.0930   46.3000 C   0  0  0  0  0  0  0  0  0  0  0  0
   45.6680   33.3630   45.2890 C   0  0  0  0  0  0  0  0  0  0  0  0
   46.1640   32.1080   45.6190 N   0  0  0  0  0  0  0  0  0  0  0  0
   46.0890   31.6010   46.8550 C   0  0  0  0  0  0  0  0  0  0  0  0
   45.5160   32.3170   47.8360 N   0  0  0  0  0  0  0  0  0  0  0  0
   44.5270   35.3760   46.1520 N   0  0  0  0  0  0  0  0  0  0  0  0
   48.3530   35.4780   41.7910 C   0  0  0  0  0  0  0  0  0  0  0  0
   49.6230   34.9810   42.4350 C   0  0  0  0  0  0  0  0  0  0  0  0
   49.7380   33.4980   42.5130 C   0  0  0  0  0  0  0  0  0  0  0  0
   51.1270   32.9570   42.1320 C   0  0  0  0  0  0  0  0  0  0  0  0
   49.8850   32.6320   41.3240 C   0  0  0  0  0  0  0  0  0  0  0  0
   43.7379   33.4774   43.1629 H   0  0  0  0  0  0  0  0  0  0  0  0
   44.5588   34.0863   48.4096 H   0  0  0  0  0  0  0  0  0  0  0  0
   46.4954   30.6010   47.0668 H   0  0  0  0  0  0  0  0  0  0  0  0
   44.5420   35.8406   45.2328 H   0  0  0  0  0  0  0  0  0  0  0  0
   44.1059   35.8518   46.9627 H   0  0  0  0  0  0  0  0  0  0  0  0
   48.3657   35.2186   40.7221 H   0  0  0  0  0  0  0  0  0  0  0  0
   48.2966   36.5689   41.9208 H   0  0  0  0  0  0  0  0  0  0  0  0
   50.4750   35.3613   41.8523 H   0  0  0  0  0  0  0  0  0  0  0  0
   49.6119   35.3483   43.4718 H   0  0  0  0  0  0  0  0  0  0  0  0
   49.0322   33.4536   43.3556 H   0  0  0  0  0  0  0  0  0  0  0  0
   51.8940   33.6323   41.7249 H   0  0  0  0  0  0  0  0  0  0  0  0
   51.9153   32.3788   42.6362 H   0  0  0  0  0  0  0  0  0  0  0  0
   49.7612   33.0610   40.3187 H   0  0  0  0  0  0  0  0  0  0  0  0
   49.4087   31.6978   40.9919 H   0  0  0  0  0  0  0  0  0  0  0  0
  1  8  1  0
  2  1  2  0
  3  4  1  0
  3  2  1  0
  4  5  2  0
  5  1  1  0
  6 11  2  0
  7  6  1  0
  8  9  1  0
  8  7  2  0
  9 10  2  0
 10 11  1  0
 12  7  1  0
 13  4  1  0
 13 14  1  0
 14 15  1  0
 16 15  1  0
 17 16  1  0
 17 15  1  0
  2 18  1  0
  6 19  1  0
 10 20  1  0
 12 21  1  0
 12 22  1  0
 13 23  1  0
 13 24  1  0
 14 25  1  0
 14 26  1  0
 15 27  1  0
 16 28  1  0
 16 29  1  0
 17 30  1  0
 17 31  1  0
M  ISO  8  18  14  19  14  20  14  23   8  24   8  25   8  26   8  27  13
M  ISO  4  28  13  29  13  30  13  31  13
M  END
>  <minimizedAffinity>  (1) 
-5.00182819

>  <minimizedRMSD>  (1) 
1.81889796

$$$$
