
     RDKit          3D

 25 26  0  0  0  0  0  0  0  0999 V2000
   45.6580   33.7390   43.4920 C   0  0  0  0  0  0  0  0  0  0  0  0
   44.5660   33.6600   42.6820 C   0  0  0  0  0  0  0  0  0  0  0  0
   45.2500   34.2210   41.0500 S   0  0  0  0  0  0  0  0  0  0  0  0
   46.9390   34.4570   41.8230 C   0  0  0  0  0  0  0  0  0  0  0  0
   46.7470   34.1510   42.9020 N   0  0  0  0  0  0  0  0  0  0  0  0
   45.0500   33.7740   47.2020 C   0  0  0  0  0  0  0  0  0  0  0  0
   45.0430   34.1990   45.8660 C   0  0  0  0  0  0  0  0  0  0  0  0
   45.6200   33.3800   44.9260 C   0  0  0  0  0  0  0  0  0  0  0  0
   46.1730   32.1840   45.3780 N   0  0  0  0  0  0  0  0  0  0  0  0
   46.1560   31.8260   46.6620 C   0  0  0  0  0  0  0  0  0  0  0  0
   45.6010   32.6070   47.5760 N   0  0  0  0  0  0  0  0  0  0  0  0
   44.4430   35.4330   45.5860 N   0  0  0  0  0  0  0  0  0  0  0  0
   48.1240   34.9320   41.0250 C   0  0  0  0  0  0  0  0  0  0  0  0
   49.2620   35.3140   41.9430 C   0  0  0  0  0  0  0  0  0  0  0  0
   49.5540   36.6570   41.8120 O   0  0  0  0  0  0  0  0  0  0  0  0
   43.5419   33.3448   42.9309 H   0  0  0  0  0  0  0  0  0  0  0  0
   44.5901   34.4159   47.9678 H   0  0  0  0  0  0  0  0  0  0  0  0
   46.6084   30.8705   46.9658 H   0  0  0  0  0  0  0  0  0  0  0  0
   44.4152   35.7843   44.6182 H   0  0  0  0  0  0  0  0  0  0  0  0
   44.0295   35.9893   46.3479 H   0  0  0  0  0  0  0  0  0  0  0  0
   48.4553   34.1257   40.3541 H   0  0  0  0  0  0  0  0  0  0  0  0
   47.8277   35.8149   40.4396 H   0  0  0  0  0  0  0  0  0  0  0  0
   48.9741   35.1052   42.9839 H   0  0  0  0  0  0  0  0  0  0  0  0
   50.1519   34.7266   41.6728 H   0  0  0  0  0  0  0  0  0  0  0  0
   49.6426   37.0646   42.7099 H   0  0  0  0  0  0  0  0  0  0  0  0
  1  8  1  0
  2  1  2  0
  3  4  1  0
  3  2  1  0
  4  5  2  0
  5  1  1  0
  6 11  2  0
  7  6  1  0
  8  9  1  0
  8  7  2  0
  9 10  2  0
 10 11  1  0
 12  7  1  0
 13  4  1  0
 13 14  1  0
 15 14  1  0
  2 16  1  0
  6 17  1  0
 10 18  1  0
 12 19  1  0
 12 20  1  0
 13 21  1  0
 13 22  1  0
 14 23  1  0
 14 24  1  0
 15 25  1  0
M  ISO  8  16  14  17  14  18  14  21   8  22   8  23   8  24   8  25   3
M  END
>  <minimizedAffinity>  (1) 
-4.20109558

>  <minimizedRMSD>  (1) 
1.33215237

$$$$
