
     RDKit          3D

 24 25  0  0  1  0  0  0  0  0999 V2000
   44.5670   35.8910   44.3920 C   0  0  0  0  0  0  0  0  0  0  0  0
   45.3830   35.8750   43.2380 C   0  0  0  0  0  0  0  0  0  0  0  0
   46.3630   34.8650   43.1640 C   0  0  0  0  0  0  0  0  0  0  0  0
   46.4730   33.9670   44.1930 N   0  0  0  0  0  0  0  0  0  0  0  0
   45.6700   34.0300   45.2660 C   0  0  0  0  0  0  0  0  0  0  0  0
   44.7230   34.9850   45.3650 N   0  0  0  0  0  0  0  0  0  0  0  0
   47.4210   34.7930   41.7310 S   0  0  0  0  0  0  0  0  0  0  0  0
   45.8040   33.8520   39.7810 N   0  0  0  0  0  0  0  0  0  0  0  0
   46.8470   33.4190   40.6540 C   0  0  1  0  0  0  0  0  0  0  0  0
   47.9820   32.7020   40.0040 C   0  0  0  0  0  0  0  0  0  0  0  0
   48.2770   33.1650   38.7300 O   0  0  0  0  0  0  0  0  0  0  0  0
   47.1700   33.2990   37.9160 C   0  0  0  0  0  0  0  0  0  0  0  0
   45.8540   33.0430   38.5790 C   0  0  0  0  0  0  0  0  0  0  0  0
   43.7892   36.6624   44.4924 H   0  0  0  0  0  0  0  0  0  0  0  0
   45.2589   36.6165   42.4350 H   0  0  0  0  0  0  0  0  0  0  0  0
   45.7855   33.2936   46.0749 H   0  0  0  0  0  0  0  0  0  0  0  0
   44.8911   33.7338   40.2431 H   0  0  0  0  0  0  0  0  0  0  0  0
   46.3815   32.6441   41.2808 H   0  0  0  0  0  0  0  0  0  0  0  0
   48.8759   32.8236   40.6335 H   0  0  0  0  0  0  0  0  0  0  0  0
   47.6811   31.6489   39.9019 H   0  0  0  0  0  0  0  0  0  0  0  0
   47.2738   32.5896   37.0817 H   0  0  0  0  0  0  0  0  0  0  0  0
   47.1511   34.3523   37.5994 H   0  0  0  0  0  0  0  0  0  0  0  0
   45.0327   33.3239   37.9034 H   0  0  0  0  0  0  0  0  0  0  0  0
   45.7471   31.9765   38.8264 H   0  0  0  0  0  0  0  0  0  0  0  0
  1  6  2  0
  2  1  1  0
  3  2  2  0
  3  4  1  0
  4  5  2  0
  5  6  1  0
  7  3  1  0
  8  9  1  0
  9  7  1  0
 10  9  1  0
 11 10  1  0
 12 13  1  0
 12 11  1  0
 13  8  1  0
  1 14  1  0
  2 15  1  0
  5 16  1  0
  8 17  1  0
  9 18  1  1
 10 19  1  0
 10 20  1  0
 12 21  1  0
 12 22  1  0
 13 23  1  0
 13 24  1  0
M  ISO  8  14  14  15  14  16  14  17   5  18  13  19  13  20  13  21  13
M  ISO  3  22  13  23  13  24  13
M  END
>  <minimizedAffinity>  (1) 
-3.79171658

>  <minimizedRMSD>  (1) 
0.649930835

$$$$
