
     RDKit          3D

 34 36  0  0  0  0  0  0  0  0999 V2000
   46.5950   33.8810   42.1660 C   0  0  0  0  0  0  0  0  0  0  0  0
   46.7160   34.2720   43.4620 C   0  0  0  0  0  0  0  0  0  0  0  0
   45.2200   35.3420   43.6900 S   0  0  0  0  0  0  0  0  0  0  0  0
   44.6910   35.0490   41.9240 C   0  0  0  0  0  0  0  0  0  0  0  0
   45.5420   34.3690   41.5990 N   0  0  0  0  0  0  0  0  0  0  0  0
   49.2670   32.5570   39.8770 C   0  0  0  0  0  0  0  0  0  0  0  0
   48.3750   33.4690   40.4790 C   0  0  0  0  0  0  0  0  0  0  0  0
   47.5580   32.9970   41.4810 C   0  0  0  0  0  0  0  0  0  0  0  0
   47.6810   31.6710   41.8150 N   0  0  0  0  0  0  0  0  0  0  0  0
   48.5430   30.8470   41.2140 C   0  0  0  0  0  0  0  0  0  0  0  0
   49.3340   31.2800   40.2500 N   0  0  0  0  0  0  0  0  0  0  0  0
   48.3870   34.8030   40.0030 N   0  0  0  0  0  0  0  0  0  0  0  0
   43.4480   35.6500   41.3250 C   0  0  0  0  0  0  0  0  0  0  0  0
   43.0770   34.9540   40.0660 C   0  0  0  0  0  0  0  0  0  0  0  0
   42.2260   33.7920   40.1760 C   0  0  0  0  0  0  0  0  0  0  0  0
   42.3590   32.5300   39.6720 C   0  0  0  0  0  0  0  0  0  0  0  0
   41.4820   31.4730   39.8320 C   0  0  0  0  0  0  0  0  0  0  0  0
   40.3580   31.7520   40.5900 C   0  0  0  0  0  0  0  0  0  0  0  0
   40.2300   33.0290   41.0960 C   0  0  0  0  0  0  0  0  0  0  0  0
   41.1010   34.0200   40.9170 N   0  0  0  0  0  0  0  0  0  0  0  0
   39.0520   33.1970   41.8480 O   0  0  0  0  0  0  0  0  0  0  0  0
   47.5011   34.0183   44.1895 H   0  0  0  0  0  0  0  0  0  0  0  0
   49.9289   32.9119   39.0733 H   0  0  0  0  0  0  0  0  0  0  0  0
   48.5946   29.7935   41.5264 H   0  0  0  0  0  0  0  0  0  0  0  0
   47.7521   35.5022   40.4140 H   0  0  0  0  0  0  0  0  0  0  0  0
   49.0306   35.0739   39.2458 H   0  0  0  0  0  0  0  0  0  0  0  0
   42.6209   35.5585   42.0444 H   0  0  0  0  0  0  0  0  0  0  0  0
   43.6435   36.7083   41.0974 H   0  0  0  0  0  0  0  0  0  0  0  0
   44.0097   34.6351   39.5778 H   0  0  0  0  0  0  0  0  0  0  0  0
   42.4809   35.6877   39.5035 H   0  0  0  0  0  0  0  0  0  0  0  0
   43.2611   32.3329   39.0742 H   0  0  0  0  0  0  0  0  0  0  0  0
   41.6643   30.4827   39.3892 H   0  0  0  0  0  0  0  0  0  0  0  0
   39.5947   30.9836   40.7819 H   0  0  0  0  0  0  0  0  0  0  0  0
   38.8501   34.0731   42.2625 H   0  0  0  0  0  0  0  0  0  0  0  0
  1  2  2  0
  2  3  1  0
  4  3  1  0
  5  4  2  0
  5  1  1  0
  6 11  2  0
  6  7  1  0
  7  8  2  0
  8  9  1  0
  8  1  1  0
 10  9  2  0
 11 10  1  0
 12  7  1  0
 13  4  1  0
 14 15  1  0
 14 13  1  0
 15 20  2  0
 16 17  2  0
 16 15  1  0
 17 18  1  0
 18 19  2  0
 19 21  1  0
 20 19  1  0
  2 22  1  0
  6 23  1  0
 10 24  1  0
 12 25  1  0
 12 26  1  0
 13 27  1  0
 13 28  1  0
 14 29  1  0
 14 30  1  0
 16 31  1  0
 17 32  1  0
 18 33  1  0
 21 34  1  0
M  ISO  8  22  14  23  14  24  14  27   8  28   8  29   8  30   8  31  14
M  ISO  3  32  14  33  14  34   3
M  END
>  <minimizedAffinity>  (1) 
-4.64689922

>  <minimizedRMSD>  (1) 
0.571560144

$$$$
