
     RDKit          3D

 34 36  0  0  0  0  0  0  0  0999 V2000
   46.3930   34.1020   41.8650 C   0  0  0  0  0  0  0  0  0  0  0  0
   46.6700   34.7890   42.9930 C   0  0  0  0  0  0  0  0  0  0  0  0
   45.1330   35.8050   43.2060 S   0  0  0  0  0  0  0  0  0  0  0  0
   44.3820   35.0780   41.6660 C   0  0  0  0  0  0  0  0  0  0  0  0
   45.2350   34.3820   41.3710 N   0  0  0  0  0  0  0  0  0  0  0  0
   49.0630   32.5030   39.7310 C   0  0  0  0  0  0  0  0  0  0  0  0
   48.2070   33.5000   40.2670 C   0  0  0  0  0  0  0  0  0  0  0  0
   47.3240   33.1240   41.2490 C   0  0  0  0  0  0  0  0  0  0  0  0
   47.3320   31.8050   41.6450 N   0  0  0  0  0  0  0  0  0  0  0  0
   48.1640   30.8990   41.1050 C   0  0  0  0  0  0  0  0  0  0  0  0
   49.0230   31.2420   40.1550 N   0  0  0  0  0  0  0  0  0  0  0  0
   48.3330   34.8030   39.7430 N   0  0  0  0  0  0  0  0  0  0  0  0
   43.0240   35.4540   41.1520 C   0  0  0  0  0  0  0  0  0  0  0  0
   42.9040   35.1460   39.6980 C   0  0  0  0  0  0  0  0  0  0  0  0
   42.1340   33.9800   39.3310 C   0  0  0  0  0  0  0  0  0  0  0  0
   42.3450   33.0360   38.3640 C   0  0  0  0  0  0  0  0  0  0  0  0
   41.5510   31.9450   38.0780 C   0  0  0  0  0  0  0  0  0  0  0  0
   40.4290   31.8210   38.8720 C   0  0  0  0  0  0  0  0  0  0  0  0
   40.2140   32.7700   39.8460 C   0  0  0  0  0  0  0  0  0  0  0  0
   41.0110   33.8120   40.0860 N   0  0  0  0  0  0  0  0  0  0  0  0
   38.7130   32.4870   40.8110 S   0  0  0  0  0  0  0  0  0  0  0  0
   47.5718   34.7552   43.6219 H   0  0  0  0  0  0  0  0  0  0  0  0
   49.7793   32.7800   38.9435 H   0  0  0  0  0  0  0  0  0  0  0  0
   48.1321   29.8571   41.4562 H   0  0  0  0  0  0  0  0  0  0  0  0
   47.7341   35.5615   40.0993 H   0  0  0  0  0  0  0  0  0  0  0  0
   49.0239   34.9963   39.0040 H   0  0  0  0  0  0  0  0  0  0  0  0
   42.2598   34.8880   41.7048 H   0  0  0  0  0  0  0  0  0  0  0  0
   42.8792   36.5348   41.2965 H   0  0  0  0  0  0  0  0  0  0  0  0
   42.4380   36.0163   39.2128 H   0  0  0  0  0  0  0  0  0  0  0  0
   43.9300   34.9227   39.3701 H   0  0  0  0  0  0  0  0  0  0  0  0
   43.2469   33.1605   37.7466 H   0  0  0  0  0  0  0  0  0  0  0  0
   41.7933   31.2291   37.2788 H   0  0  0  0  0  0  0  0  0  0  0  0
   39.7259   30.9870   38.7306 H   0  0  0  0  0  0  0  0  0  0  0  0
   39.0116   32.5433   42.1469 H   0  0  0  0  0  0  0  0  0  0  0  0
  1  2  2  0
  2  3  1  0
  4  3  1  0
  5  4  2  0
  5  1  1  0
  6 11  2  0
  6  7  1  0
  7  8  2  0
  8  9  1  0
  8  1  1  0
 10  9  2  0
 11 10  1  0
 12  7  1  0
 13  4  1  0
 14 13  1  0
 15 14  1  0
 15 20  1  0
 16 15  2  0
 17 16  1  0
 17 18  2  0
 18 19  1  0
 19 20  2  0
 19 21  1  0
  2 22  1  0
  6 23  1  0
 10 24  1  0
 12 25  1  0
 12 26  1  0
 13 27  1  0
 13 28  1  0
 14 29  1  0
 14 30  1  0
 16 31  1  0
 17 32  1  0
 18 33  1  0
 21 34  1  0
M  ISO  8  22  14  23  14  24  14  27   8  28   8  29   8  30   8  31  14
M  ISO  3  32  14  33  14  34  11
M  END
>  <minimizedAffinity>  (1) 
-4.53215599

>  <minimizedRMSD>  (1) 
1.34218538

$$$$
