
     RDKit          3D

 43 46  0  0  0  0  0  0  0  0999 V2000
   44.3610   35.5250   41.3730 C   0  0  0  0  0  0  0  0  0  0  0  0
   43.2140   35.0120   40.6630 C   0  0  0  0  0  0  0  0  0  0  0  0
   43.0050   34.8660   39.3300 C   0  0  0  0  0  0  0  0  0  0  0  0
   41.8640   34.3730   38.7380 C   0  0  0  0  0  0  0  0  0  0  0  0
   40.8430   33.9990   39.6090 C   0  0  0  0  0  0  0  0  0  0  0  0
   41.0760   34.1510   40.9400 C   0  0  0  0  0  0  0  0  0  0  0  0
   42.1850   34.6280   41.4890 N   0  0  0  0  0  0  0  0  0  0  0  0
   39.7990   33.5020   38.7300 C   0  0  0  0  0  0  0  0  0  0  0  0
   38.8280   34.0930   37.8980 C   0  0  0  0  0  0  0  0  0  0  0  0
   38.0990   33.2830   37.1430 C   0  0  0  0  0  0  0  0  0  0  0  0
   38.2560   31.9840   37.1500 C   0  0  0  0  0  0  0  0  0  0  0  0
   39.5530   31.7140   38.3130 S   0  0  0  0  0  0  0  0  0  0  0  0
   39.9380   33.6710   41.7840 C   0  0  0  0  0  0  0  0  0  0  0  0
   38.7540   33.6850   41.0960 F   0  0  0  0  0  0  0  0  0  0  0  0
   39.8630   34.3080   42.9970 F   0  0  0  0  0  0  0  0  0  0  0  0
   40.1240   32.3030   42.1060 F   0  0  0  0  0  0  0  0  0  0  0  0
   44.2990   35.4800   42.8800 C   0  0  0  0  0  0  0  0  0  0  0  0
   47.2950   33.4490   43.6040 C   0  0  0  0  0  0  0  0  0  0  0  0
   47.0600   33.1720   44.9020 C   0  0  0  0  0  0  0  0  0  0  0  0
   45.4530   34.0420   45.1950 S   0  0  0  0  0  0  0  0  0  0  0  0
   45.3950   34.6410   43.4410 C   0  0  0  0  0  0  0  0  0  0  0  0
   46.3680   34.1750   43.0750 N   0  0  0  0  0  0  0  0  0  0  0  0
   50.6780   33.2240   41.9780 C   0  0  0  0  0  0  0  0  0  0  0  0
   49.5960   33.7550   42.6910 C   0  0  0  0  0  0  0  0  0  0  0  0
   48.4890   32.9730   42.8650 C   0  0  0  0  0  0  0  0  0  0  0  0
   48.5150   31.7060   42.3220 N   0  0  0  0  0  0  0  0  0  0  0  0
   49.5920   31.2470   41.6420 C   0  0  0  0  0  0  0  0  0  0  0  0
   50.6620   32.0030   41.4730 N   0  0  0  0  0  0  0  0  0  0  0  0
   49.7290   35.0740   43.1850 N   0  0  0  0  0  0  0  0  0  0  0  0
   44.4949   36.5756   41.0758 H   0  0  0  0  0  0  0  0  0  0  0  0
   45.1934   34.8608   41.0972 H   0  0  0  0  0  0  0  0  0  0  0  0
   43.8232   35.1698   38.6604 H   0  0  0  0  0  0  0  0  0  0  0  0
   41.7648   34.2803   37.6464 H   0  0  0  0  0  0  0  0  0  0  0  0
   38.6806   35.1828   37.8757 H   0  0  0  0  0  0  0  0  0  0  0  0
   37.3328   33.7197   36.4855 H   0  0  0  0  0  0  0  0  0  0  0  0
   37.7052   31.2330   36.5647 H   0  0  0  0  0  0  0  0  0  0  0  0
   44.3933   36.5029   43.2734 H   0  0  0  0  0  0  0  0  0  0  0  0
   43.3363   35.0373   43.1753 H   0  0  0  0  0  0  0  0  0  0  0  0
   47.6662   32.5818   45.6050 H   0  0  0  0  0  0  0  0  0  0  0  0
   51.5737   33.8459   41.8331 H   0  0  0  0  0  0  0  0  0  0  0  0
   49.5758   30.2296   41.2241 H   0  0  0  0  0  0  0  0  0  0  0  0
   48.9585   35.5055   43.7152 H   0  0  0  0  0  0  0  0  0  0  0  0
   50.5963   35.6028   43.0145 H   0  0  0  0  0  0  0  0  0  0  0  0
  1 17  1  0
  2  1  1  0
  2  7  1  0
  3  2  2  0
  4  3  1  0
  4  5  2  0
  5  6  1  0
  6  7  2  0
  6 13  1  0
  8  5  1  0
  9  8  2  0
 10 11  2  0
 10  9  1  0
 11 12  1  0
 12  8  1  0
 13 16  1  0
 13 15  1  0
 14 13  1  0
 17 21  1  0
 18 19  2  0
 19 20  1  0
 21 20  1  0
 22 21  2  0
 22 18  1  0
 23 24  2  0
 24 25  1  0
 24 29  1  0
 25 18  1  0
 26 25  2  0
 27 26  1  0
 28 27  2  0
 28 23  1  0
  1 30  1  0
  1 31  1  0
  3 32  1  0
  4 33  1  0
  9 34  1  0
 10 35  1  0
 11 36  1  0
 17 37  1  0
 17 38  1  0
 19 39  1  0
 23 40  1  0
 27 41  1  0
 29 42  1  0
 29 43  1  0
M  ISO  8  30   8  31   8  32  14  33  14  34  14  35  14  36  14  37   8
M  ISO  4  38   8  39  14  40  14  41  14
M  END
>  <minimizedAffinity>  (1) 
-6.54626703

>  <minimizedRMSD>  (1) 
2.23413491

$$$$
