
     RDKit          3D

 48 51  0  0  0  0  0  0  0  0999 V2000
   44.4750   35.7310   41.6660 C   0  0  0  0  0  0  0  0  0  0  0  0
   43.5420   34.8520   40.9930 C   0  0  0  0  0  0  0  0  0  0  0  0
   43.7000   34.0890   39.8820 C   0  0  0  0  0  0  0  0  0  0  0  0
   42.7360   33.2700   39.3050 C   0  0  0  0  0  0  0  0  0  0  0  0
   41.5070   33.2560   39.9550 C   0  0  0  0  0  0  0  0  0  0  0  0
   41.3730   34.0310   41.0700 C   0  0  0  0  0  0  0  0  0  0  0  0
   42.3120   34.8030   41.5960 N   0  0  0  0  0  0  0  0  0  0  0  0
   40.6680   32.3910   39.2240 N   0  0  0  0  0  0  0  0  0  0  0  0
   40.1360   31.0570   39.2380 C   0  0  0  0  0  0  0  0  0  0  0  0
   38.6130   31.2440   39.0910 C   0  0  0  0  0  0  0  0  0  0  0  0
   38.5780   32.3840   38.1060 C   0  0  0  0  0  0  0  0  0  0  0  0
   40.0200   32.8320   37.9780 C   0  0  0  0  0  0  0  0  0  0  0  0
   40.0130   33.9240   41.6830 C   0  0  0  0  0  0  0  0  0  0  0  0
   39.0240   34.2220   40.7720 F   0  0  0  0  0  0  0  0  0  0  0  0
   39.8970   34.6270   42.8570 F   0  0  0  0  0  0  0  0  0  0  0  0
   39.7620   32.5800   42.0370 F   0  0  0  0  0  0  0  0  0  0  0  0
   44.5230   35.6580   43.1570 C   0  0  0  0  0  0  0  0  0  0  0  0
   47.3720   33.3750   43.6720 C   0  0  0  0  0  0  0  0  0  0  0  0
   47.1000   32.9590   44.9140 C   0  0  0  0  0  0  0  0  0  0  0  0
   45.5370   33.8860   45.2960 S   0  0  0  0  0  0  0  0  0  0  0  0
   45.5590   34.6910   43.6210 C   0  0  0  0  0  0  0  0  0  0  0  0
   46.5090   34.2170   43.2100 N   0  0  0  0  0  0  0  0  0  0  0  0
   50.7200   33.1830   41.9400 C   0  0  0  0  0  0  0  0  0  0  0  0
   49.6460   33.7080   42.6980 C   0  0  0  0  0  0  0  0  0  0  0  0
   48.5480   32.9180   42.8930 C   0  0  0  0  0  0  0  0  0  0  0  0
   48.5590   31.6390   42.3270 N   0  0  0  0  0  0  0  0  0  0  0  0
   49.6210   31.2060   41.6160 C   0  0  0  0  0  0  0  0  0  0  0  0
   50.6940   31.9690   41.4210 N   0  0  0  0  0  0  0  0  0  0  0  0
   49.7940   35.0110   43.1960 N   0  0  0  0  0  0  0  0  0  0  0  0
   44.2132   36.7639   41.3929 H   0  0  0  0  0  0  0  0  0  0  0  0
   45.4696   35.4000   41.3324 H   0  0  0  0  0  0  0  0  0  0  0  0
   44.6840   34.1216   39.3914 H   0  0  0  0  0  0  0  0  0  0  0  0
   42.9314   32.6762   38.3999 H   0  0  0  0  0  0  0  0  0  0  0  0
   40.5379   30.4699   38.3991 H   0  0  0  0  0  0  0  0  0  0  0  0
   40.4026   30.5113   40.1551 H   0  0  0  0  0  0  0  0  0  0  0  0
   38.1289   30.3423   38.6879 H   0  0  0  0  0  0  0  0  0  0  0  0
   38.0782   31.4322   40.0336 H   0  0  0  0  0  0  0  0  0  0  0  0
   38.1904   32.0442   37.1342 H   0  0  0  0  0  0  0  0  0  0  0  0
   37.9187   33.1992   38.4389 H   0  0  0  0  0  0  0  0  0  0  0  0
   40.4959   32.3590   37.1063 H   0  0  0  0  0  0  0  0  0  0  0  0
   40.1035   33.9190   37.8312 H   0  0  0  0  0  0  0  0  0  0  0  0
   44.7594   36.6551   43.5568 H   0  0  0  0  0  0  0  0  0  0  0  0
   43.5424   35.3151   43.5187 H   0  0  0  0  0  0  0  0  0  0  0  0
   47.6576   32.2514   45.5452 H   0  0  0  0  0  0  0  0  0  0  0  0
   51.6093   33.8096   41.7772 H   0  0  0  0  0  0  0  0  0  0  0  0
   49.5993   30.1940   41.1855 H   0  0  0  0  0  0  0  0  0  0  0  0
   49.0405   35.4379   43.7535 H   0  0  0  0  0  0  0  0  0  0  0  0
   50.6562   35.5408   43.0042 H   0  0  0  0  0  0  0  0  0  0  0  0
  1 17  1  0
  2  7  1  0
  2  1  1  0
  3  2  2  0
  4  3  1  0
  4  5  2  0
  5  6  1  0
  6  7  2  0
  6 13  1  0
  8  9  1  0
  8  5  1  0
 10  9  1  0
 11 10  1  0
 12 11  1  0
 12  8  1  0
 13 16  1  0
 13 15  1  0
 14 13  1  0
 17 21  1  0
 18 19  2  0
 19 20  1  0
 21 20  1  0
 22 21  2  0
 22 18  1  0
 23 24  2  0
 24 25  1  0
 24 29  1  0
 25 18  1  0
 26 25  2  0
 27 26  1  0
 28 27  2  0
 28 23  1  0
  1 30  1  0
  1 31  1  0
  3 32  1  0
  4 33  1  0
  9 34  1  0
  9 35  1  0
 10 36  1  0
 10 37  1  0
 11 38  1  0
 11 39  1  0
 12 40  1  0
 12 41  1  0
 17 42  1  0
 17 43  1  0
 19 44  1  0
 23 45  1  0
 27 46  1  0
 29 47  1  0
 29 48  1  0
M  ISO  8  30   8  31   8  32  14  33  14  34  13  35  13  36  13  37  13
M  ISO  8  38  13  39  13  40  13  41  13  42   8  43   8  44  14  45  14
M  ISO  1  46  14
M  END
>  <minimizedAffinity>  (1) 
-6.25886011

>  <minimizedRMSD>  (1) 
2.59275365

$$$$
