
     RDKit          3D

 37 39  0  0  0  0  0  0  0  0999 V2000
   43.4230   35.2660   42.0860 C   0  0  0  0  0  0  0  0  0  0  0  0
   46.6370   33.5340   42.7180 C   0  0  0  0  0  0  0  0  0  0  0  0
   46.7580   33.7870   44.0440 C   0  0  0  0  0  0  0  0  0  0  0  0
   45.2310   34.7650   44.3790 S   0  0  0  0  0  0  0  0  0  0  0  0
   44.6840   34.6540   42.6110 C   0  0  0  0  0  0  0  0  0  0  0  0
   45.5610   34.0410   42.2070 N   0  0  0  0  0  0  0  0  0  0  0  0
   49.3660   32.5480   40.3240 C   0  0  0  0  0  0  0  0  0  0  0  0
   48.4590   33.3520   41.0280 C   0  0  0  0  0  0  0  0  0  0  0  0
   47.6190   32.7670   41.9360 C   0  0  0  0  0  0  0  0  0  0  0  0
   47.7310   31.3820   42.0960 N   0  0  0  0  0  0  0  0  0  0  0  0
   48.6170   30.6610   41.3950 C   0  0  0  0  0  0  0  0  0  0  0  0
   49.4390   31.2370   40.5070 N   0  0  0  0  0  0  0  0  0  0  0  0
   48.4730   34.7450   40.7480 N   0  0  0  0  0  0  0  0  0  0  0  0
   43.4870   35.4540   40.6110 C   0  0  0  0  0  0  0  0  0  0  0  0
   42.3210   35.0710   39.8530 C   0  0  0  0  0  0  0  0  0  0  0  0
   41.9860   35.3260   38.5490 C   0  0  0  0  0  0  0  0  0  0  0  0
   40.8380   34.9200   37.8910 C   0  0  0  0  0  0  0  0  0  0  0  0
   39.9650   34.1860   38.6480 C   0  0  0  0  0  0  0  0  0  0  0  0
   40.2940   33.9220   39.9620 C   0  0  0  0  0  0  0  0  0  0  0  0
   41.4150   34.3340   40.5640 N   0  0  0  0  0  0  0  0  0  0  0  0
   39.2710   33.1120   40.6970 C   0  0  0  0  0  0  0  0  0  0  0  0
   37.9980   33.6480   40.4560 F   0  0  0  0  0  0  0  0  0  0  0  0
   39.5470   32.9730   42.0270 F   0  0  0  0  0  0  0  0  0  0  0  0
   39.2300   31.8250   40.1610 F   0  0  0  0  0  0  0  0  0  0  0  0
   38.4420   33.6060   37.8910 S   0  0  0  0  0  0  0  0  0  0  0  0
   42.5769   34.6056   42.3268 H   0  0  0  0  0  0  0  0  0  0  0  0
   43.2932   36.2518   42.5565 H   0  0  0  0  0  0  0  0  0  0  0  0
   47.5572   33.4876   44.7380 H   0  0  0  0  0  0  0  0  0  0  0  0
   50.0402   33.0210   39.5948 H   0  0  0  0  0  0  0  0  0  0  0  0
   48.6706   29.5736   41.5518 H   0  0  0  0  0  0  0  0  0  0  0  0
   47.8246   35.3758   41.2405 H   0  0  0  0  0  0  0  0  0  0  0  0
   49.1315   35.1239   40.0525 H   0  0  0  0  0  0  0  0  0  0  0  0
   43.6718   36.5214   40.4198 H   0  0  0  0  0  0  0  0  0  0  0  0
   44.2852   34.7782   40.2702 H   0  0  0  0  0  0  0  0  0  0  0  0
   42.7059   35.9161   37.9629 H   0  0  0  0  0  0  0  0  0  0  0  0
   40.6417   35.1688   36.8376 H   0  0  0  0  0  0  0  0  0  0  0  0
   37.5464   33.2649   38.8701 H   0  0  0  0  0  0  0  0  0  0  0  0
  1  5  1  0
  2  3  2  0
  3  4  1  0
  5  4  1  0
  6  5  2  0
  6  2  1  0
  7 12  2  0
  7  8  1  0
  8  9  2  0
  9 10  1  0
  9  2  1  0
 11 10  2  0
 12 11  1  0
 13  8  1  0
 14  1  1  0
 15 20  1  0
 15 14  1  0
 16 15  2  0
 17 16  1  0
 17 18  2  0
 18 19  1  0
 19 20  2  0
 19 21  1  0
 21 23  1  0
 22 21  1  0
 24 21  1  0
 25 18  1  0
  1 26  1  0
  1 27  1  0
  3 28  1  0
  7 29  1  0
 11 30  1  0
 13 31  1  0
 13 32  1  0
 14 33  1  0
 14 34  1  0
 16 35  1  0
 17 36  1  0
 25 37  1  0
M  ISO  8  26   8  27   8  28  14  29  14  30  14  33   8  34   8  35  14
M  ISO  2  36  14  37  11
M  END
>  <minimizedAffinity>  (1) 
-5.54835415

>  <minimizedRMSD>  (1) 
0.929088533

$$$$
