
     RDKit          3D

 43 45  0  0  0  0  0  0  0  0999 V2000
   44.5690   35.7280   42.6610 C   0  0  0  0  0  0  0  0  0  0  0  0
   47.3840   33.4900   43.5760 C   0  0  0  0  0  0  0  0  0  0  0  0
   47.0160   33.1780   44.8370 C   0  0  0  0  0  0  0  0  0  0  0  0
   45.4380   34.1330   45.0090 S   0  0  0  0  0  0  0  0  0  0  0  0
   45.5700   34.8030   43.2820 C   0  0  0  0  0  0  0  0  0  0  0  0
   46.5530   34.2870   42.9920 N   0  0  0  0  0  0  0  0  0  0  0  0
   50.8450   33.1950   42.1140 C   0  0  0  0  0  0  0  0  0  0  0  0
   49.7190   33.7520   42.7330 C   0  0  0  0  0  0  0  0  0  0  0  0
   48.6030   32.9760   42.9340 C   0  0  0  0  0  0  0  0  0  0  0  0
   48.6860   31.6610   42.4930 N   0  0  0  0  0  0  0  0  0  0  0  0
   49.7800   31.1720   41.9080 C   0  0  0  0  0  0  0  0  0  0  0  0
   50.8710   31.9380   41.7140 N   0  0  0  0  0  0  0  0  0  0  0  0
   49.8100   35.1190   43.1200 N   0  0  0  0  0  0  0  0  0  0  0  0
   44.2680   35.3230   41.2500 C   0  0  0  0  0  0  0  0  0  0  0  0
   42.9040   34.9420   40.9730 C   0  0  0  0  0  0  0  0  0  0  0  0
   41.9050   35.6250   40.3420 C   0  0  0  0  0  0  0  0  0  0  0  0
   40.6150   35.2020   40.1070 C   0  0  0  0  0  0  0  0  0  0  0  0
   40.3310   33.9410   40.5750 C   0  0  0  0  0  0  0  0  0  0  0  0
   41.3180   33.2390   41.2110 C   0  0  0  0  0  0  0  0  0  0  0  0
   42.5660   33.6940   41.4180 N   0  0  0  0  0  0  0  0  0  0  0  0
   40.9070   31.8790   41.6830 C   0  0  0  0  0  0  0  0  0  0  0  0
   39.6600   31.9710   42.3240 F   0  0  0  0  0  0  0  0  0  0  0  0
   41.8610   31.2470   42.4350 F   0  0  0  0  0  0  0  0  0  0  0  0
   40.6880   31.0580   40.5700 F   0  0  0  0  0  0  0  0  0  0  0  0
   38.6900   33.2830   40.3270 S   0  0  0  0  0  0  0  0  0  0  0  0
   38.4300   32.6100   38.6990 C   0  0  0  0  0  0  0  0  0  0  0  0
   38.3680   33.6010   37.5980 C   0  0  0  0  0  0  0  0  0  0  0  0
   43.6400   35.7004   43.2493 H   0  0  0  0  0  0  0  0  0  0  0  0
   44.9889   36.7447   42.6522 H   0  0  0  0  0  0  0  0  0  0  0  0
   47.5197   32.5288   45.5684 H   0  0  0  0  0  0  0  0  0  0  0  0
   51.7337   33.8239   41.9567 H   0  0  0  0  0  0  0  0  0  0  0  0
   49.7918   30.1229   41.5775 H   0  0  0  0  0  0  0  0  0  0  0  0
   49.0107   35.5785   43.5792 H   0  0  0  0  0  0  0  0  0  0  0  0
   50.6751   35.6485   42.9408 H   0  0  0  0  0  0  0  0  0  0  0  0
   44.5185   36.1718   40.5967 H   0  0  0  0  0  0  0  0  0  0  0  0
   44.8683   34.4192   41.0691 H   0  0  0  0  0  0  0  0  0  0  0  0
   42.1597   36.6314   39.9783 H   0  0  0  0  0  0  0  0  0  0  0  0
   39.8717   35.8237   39.5865 H   0  0  0  0  0  0  0  0  0  0  0  0
   39.2562   31.9164   38.4837 H   0  0  0  0  0  0  0  0  0  0  0  0
   37.4410   32.1292   38.7268 H   0  0  0  0  0  0  0  0  0  0  0  0
   38.3046   34.6147   38.0203 H   0  0  0  0  0  0  0  0  0  0  0  0
   39.2731   33.5178   36.9784 H   0  0  0  0  0  0  0  0  0  0  0  0
   37.4803   33.4057   36.9784 H   0  0  0  0  0  0  0  0  0  0  0  0
  1  5  1  0
  2  3  2  0
  3  4  1  0
  5  4  1  0
  6  5  2  0
  6  2  1  0
  7  8  2  0
  8  9  1  0
  8 13  1  0
  9  2  1  0
 10  9  2  0
 11 10  1  0
 12 11  2  0
 12  7  1  0
 14  1  1  0
 15 14  1  0
 15 20  1  0
 16 15  2  0
 17 16  1  0
 17 18  2  0
 18 19  1  0
 19 20  2  0
 19 21  1  0
 21 22  1  0
 21 23  1  0
 24 21  1  0
 25 18  1  0
 26 25  1  0
 27 26  1  0
  1 28  1  0
  1 29  1  0
  3 30  1  0
  7 31  1  0
 11 32  1  0
 13 33  1  0
 13 34  1  0
 14 35  1  0
 14 36  1  0
 16 37  1  0
 17 38  1  0
 26 39  1  0
 26 40  1  0
 27 41  1  0
 27 42  1  0
 27 43  1  0
M  ISO  8  28   8  29   8  30  14  31  14  32  14  35   8  36   8  37  14
M  ISO  6  38  14  39   8  40   8  41   8  42   8  43   8
M  END
>  <minimizedAffinity>  (1) 
-6.0850563

>  <minimizedRMSD>  (1) 
1.94083214

$$$$
