
     RDKit          3D

 20 21  0  0  0  0  0  0  0  0999 V2000
   44.5550   33.1660   41.3250 Cl  0  0  0  0  0  0  0  0  0  0  0  0
   46.1110   33.9220   41.0070 C   0  0  0  0  0  0  0  0  0  0  0  0
   46.7250   34.6710   41.9910 C   0  0  0  0  0  0  0  0  0  0  0  0
   47.9450   35.2450   41.6980 C   0  0  0  0  0  0  0  0  0  0  0  0
   48.5400   35.0800   40.4610 C   0  0  0  0  0  0  0  0  0  0  0  0
   47.8720   34.3130   39.5070 C   0  0  0  0  0  0  0  0  0  0  0  0
   48.6180   34.0990   37.9380 Cl  0  0  0  0  0  0  0  0  0  0  0  0
   46.6520   33.7180   39.7520 C   0  0  0  0  0  0  0  0  0  0  0  0
   44.4920   35.9540   44.7670 C   0  0  0  0  0  0  0  0  0  0  0  0
   45.1520   35.8450   43.5340 C   0  0  0  0  0  0  0  0  0  0  0  0
   46.0310   34.7970   43.2710 C   0  0  0  0  0  0  0  0  0  0  0  0
   46.2030   33.8970   44.2740 N   0  0  0  0  0  0  0  0  0  0  0  0
   45.5680   34.0080   45.4530 C   0  0  0  0  0  0  0  0  0  0  0  0
   44.7270   35.0200   45.6930 N   0  0  0  0  0  0  0  0  0  0  0  0
   48.4550   35.8466   42.4648 H   0  0  0  0  0  0  0  0  0  0  0  0
   49.5131   35.5408   40.2356 H   0  0  0  0  0  0  0  0  0  0  0  0
   46.1378   33.1140   38.9899 H   0  0  0  0  0  0  0  0  0  0  0  0
   43.8000   36.7856   44.9660 H   0  0  0  0  0  0  0  0  0  0  0  0
   44.9715   36.6035   42.7581 H   0  0  0  0  0  0  0  0  0  0  0  0
   45.7428   33.2536   46.2342 H   0  0  0  0  0  0  0  0  0  0  0  0
  2  1  1  0
  2  3  2  0
  3 11  1  0
  4  3  1  0
  5  4  2  0
  6  8  2  0
  6  5  1  0
  7  6  1  0
  8  2  1  0
  9 14  2  0
 10  9  1  0
 11 10  2  0
 11 12  1  0
 12 13  2  0
 13 14  1  0
  4 15  1  0
  5 16  1  0
  8 17  1  0
  9 18  1  0
 10 19  1  0
 13 20  1  0
M  ISO  6  15  14  16  14  17  14  18  14  19  14  20  14
M  END
>  <minimizedAffinity>  (1) 
-5.0729146

>  <minimizedRMSD>  (1) 
1.37645328

$$$$
