
     RDKit          3D

 32 34  0  0  0  0  0  0  0  0999 V2000
   44.4590   35.9050   44.8980 C   0  0  0  0  0  0  0  0  0  0  0  0
   45.1200   35.8260   43.6590 C   0  0  0  0  0  0  0  0  0  0  0  0
   46.0270   34.8010   43.4040 C   0  0  0  0  0  0  0  0  0  0  0  0
   46.2240   33.9110   44.3960 N   0  0  0  0  0  0  0  0  0  0  0  0
   45.5930   33.9880   45.5760 C   0  0  0  0  0  0  0  0  0  0  0  0
   44.7280   34.9650   45.8230 N   0  0  0  0  0  0  0  0  0  0  0  0
   45.8700   32.9990   46.5620 N   0  0  0  0  0  0  0  0  0  0  0  0
   45.1650   32.6460   47.7800 C   0  0  0  0  0  0  0  0  0  0  0  0
   46.1860   32.2570   48.7890 C   0  0  0  0  0  0  0  0  0  0  0  0
   47.4660   32.1310   47.9980 C   0  0  0  0  0  0  0  0  0  0  0  0
   46.9770   32.0620   46.5840 C   0  0  0  0  0  0  0  0  0  0  0  0
   44.5860   33.1780   41.4320 Cl  0  0  0  0  0  0  0  0  0  0  0  0
   46.1360   33.9580   41.1270 C   0  0  0  0  0  0  0  0  0  0  0  0
   46.7250   34.6980   42.1260 C   0  0  0  0  0  0  0  0  0  0  0  0
   47.9440   35.2930   41.8370 C   0  0  0  0  0  0  0  0  0  0  0  0
   48.5410   35.1450   40.5960 C   0  0  0  0  0  0  0  0  0  0  0  0
   47.8920   34.3850   39.6350 C   0  0  0  0  0  0  0  0  0  0  0  0
   48.6560   34.2080   38.0740 Cl  0  0  0  0  0  0  0  0  0  0  0  0
   46.6850   33.7760   39.8690 C   0  0  0  0  0  0  0  0  0  0  0  0
   43.7418   36.7129   45.1053 H   0  0  0  0  0  0  0  0  0  0  0  0
   44.9185   36.5808   42.8846 H   0  0  0  0  0  0  0  0  0  0  0  0
   44.5872   33.5087   48.1433 H   0  0  0  0  0  0  0  0  0  0  0  0
   44.4650   31.8175   47.5969 H   0  0  0  0  0  0  0  0  0  0  0  0
   46.2820   33.0314   49.5642 H   0  0  0  0  0  0  0  0  0  0  0  0
   45.9239   31.3265   49.3138 H   0  0  0  0  0  0  0  0  0  0  0  0
   48.1140   33.0066   48.1508 H   0  0  0  0  0  0  0  0  0  0  0  0
   48.0752   31.2632   48.2909 H   0  0  0  0  0  0  0  0  0  0  0  0
   46.6370   31.0460   46.3348 H   0  0  0  0  0  0  0  0  0  0  0  0
   47.7581   32.3046   45.8484 H   0  0  0  0  0  0  0  0  0  0  0  0
   48.4467   35.8944   42.6087 H   0  0  0  0  0  0  0  0  0  0  0  0
   49.5088   35.6200   40.3776 H   0  0  0  0  0  0  0  0  0  0  0  0
   46.1803   33.1751   39.0982 H   0  0  0  0  0  0  0  0  0  0  0  0
  1  6  2  0
  2  1  1  0
  3  2  2  0
  3  4  1  0
  4  5  2  0
  5  6  1  0
  5  7  1  0
  7 11  1  0
  7  8  1  0
  8  9  1  0
 10  9  1  0
 11 10  1  0
 13 12  1  0
 13 14  2  0
 14  3  1  0
 15 14  1  0
 16 15  2  0
 17 19  2  0
 17 16  1  0
 18 17  1  0
 19 13  1  0
  1 20  1  0
  2 21  1  0
  8 22  1  0
  8 23  1  0
  9 24  1  0
  9 25  1  0
 10 26  1  0
 10 27  1  0
 11 28  1  0
 11 29  1  0
 15 30  1  0
 16 31  1  0
 19 32  1  0
M  ISO  8  20  14  21  14  22  13  23  13  24  13  25  13  26  13  27  13
M  ISO  5  28  13  29  13  30  14  31  14  32  14
M  END
>  <minimizedAffinity>  (1) 
-6.85374403

>  <minimizedRMSD>  (1) 
0.137819588

$$$$
