
     RDKit          3D

 35 37  0  0  0  0  0  0  0  0999 V2000
   44.6290   35.4250   45.2390 C   0  0  0  0  0  0  0  0  0  0  0  0
   45.2460   35.4550   43.9840 C   0  0  0  0  0  0  0  0  0  0  0  0
   46.1590   34.5030   43.5720 C   0  0  0  0  0  0  0  0  0  0  0  0
   46.4280   33.5140   44.4790 N   0  0  0  0  0  0  0  0  0  0  0  0
   45.8360   33.4860   45.6860 C   0  0  0  0  0  0  0  0  0  0  0  0
   44.9600   34.4120   46.0610 N   0  0  0  0  0  0  0  0  0  0  0  0
   46.1680   32.4330   46.5630 N   0  0  0  0  0  0  0  0  0  0  0  0
   46.7580   32.6210   47.8740 C   0  0  0  0  0  0  0  0  0  0  0  0
   45.7110   32.2060   48.8830 C   0  0  0  0  0  0  0  0  0  0  0  0
   45.1330   30.8530   48.5880 C   0  0  0  0  0  0  0  0  0  0  0  0
   45.8330   30.1620   47.4410 C   0  0  0  0  0  0  0  0  0  0  0  0
   45.9430   31.0360   46.2240 C   0  0  0  0  0  0  0  0  0  0  0  0
   44.6860   32.9550   41.5580 Cl  0  0  0  0  0  0  0  0  0  0  0  0
   46.1850   33.8340   41.2410 C   0  0  0  0  0  0  0  0  0  0  0  0
   46.7970   34.5340   42.2710 C   0  0  0  0  0  0  0  0  0  0  0  0
   47.9610   35.2000   41.9670 C   0  0  0  0  0  0  0  0  0  0  0  0
   48.5040   35.1810   40.6980 C   0  0  0  0  0  0  0  0  0  0  0  0
   47.8450   34.4630   39.7140 C   0  0  0  0  0  0  0  0  0  0  0  0
   48.5200   34.4270   38.1020 Cl  0  0  0  0  0  0  0  0  0  0  0  0
   46.6680   33.7700   39.9530 C   0  0  0  0  0  0  0  0  0  0  0  0
   43.9047   36.1959   45.5410 H   0  0  0  0  0  0  0  0  0  0  0  0
   44.9930   36.2734   43.2939 H   0  0  0  0  0  0  0  0  0  0  0  0
   47.6560   31.9944   47.9794 H   0  0  0  0  0  0  0  0  0  0  0  0
   47.0621   33.6672   48.0256 H   0  0  0  0  0  0  0  0  0  0  0  0
   46.1728   32.1823   49.8811 H   0  0  0  0  0  0  0  0  0  0  0  0
   44.8911   32.9376   48.8340 H   0  0  0  0  0  0  0  0  0  0  0  0
   45.2260   30.2261   49.4871 H   0  0  0  0  0  0  0  0  0  0  0  0
   44.0807   30.9947   48.3006 H   0  0  0  0  0  0  0  0  0  0  0  0
   46.8454   29.8789   47.7647 H   0  0  0  0  0  0  0  0  0  0  0  0
   45.2349   29.2805   47.1666 H   0  0  0  0  0  0  0  0  0  0  0  0
   45.0093   30.9583   45.6477 H   0  0  0  0  0  0  0  0  0  0  0  0
   46.8077   30.6893   45.6391 H   0  0  0  0  0  0  0  0  0  0  0  0
   48.4749   35.7648   42.7588 H   0  0  0  0  0  0  0  0  0  0  0  0
   49.4354   35.7218   40.4743 H   0  0  0  0  0  0  0  0  0  0  0  0
   46.1523   33.2044   39.1630 H   0  0  0  0  0  0  0  0  0  0  0  0
  1  6  2  0
  2  1  1  0
  3  2  2  0
  3  4  1  0
  4  5  2  0
  5  6  1  0
  5  7  1  0
  7  8  1  0
  8  9  1  0
 10  9  1  0
 11 10  1  0
 12  7  1  0
 12 11  1  0
 14 13  1  0
 14 15  2  0
 15  3  1  0
 16 15  1  0
 17 16  2  0
 18 20  2  0
 18 17  1  0
 19 18  1  0
 20 14  1  0
  1 21  1  0
  2 22  1  0
  8 23  1  0
  8 24  1  0
  9 25  1  0
  9 26  1  0
 10 27  1  0
 10 28  1  0
 11 29  1  0
 11 30  1  0
 12 31  1  0
 12 32  1  0
 16 33  1  0
 17 34  1  0
 20 35  1  0
M  ISO  8  21  14  22  14  23  13  24  13  25  13  26  13  27  13  28  13
M  ISO  7  29  13  30  13  31  13  32  13  33  14  34  14  35  14
M  END
>  <minimizedAffinity>  (1) 
-6.80911922

>  <minimizedRMSD>  (1) 
0.60856843

$$$$
