
     RDKit          3D

 33 35  0  0  1  0  0  0  0  0999 V2000
   44.8320   35.0700   45.3600 C   0  0  0  0  0  0  0  0  0  0  0  0
   45.4190   35.2020   44.0950 C   0  0  0  0  0  0  0  0  0  0  0  0
   46.2990   34.2610   43.5870 C   0  0  0  0  0  0  0  0  0  0  0  0
   46.5550   33.2030   44.3950 N   0  0  0  0  0  0  0  0  0  0  0  0
   45.9980   33.0660   45.6100 C   0  0  0  0  0  0  0  0  0  0  0  0
   45.1520   33.9860   46.0810 N   0  0  0  0  0  0  0  0  0  0  0  0
   44.8680   32.7540   41.5110 Cl  0  0  0  0  0  0  0  0  0  0  0  0
   46.3160   33.7230   41.2170 C   0  0  0  0  0  0  0  0  0  0  0  0
   46.9120   34.3940   42.2700 C   0  0  0  0  0  0  0  0  0  0  0  0
   48.0400   35.1370   41.9880 C   0  0  0  0  0  0  0  0  0  0  0  0
   48.5650   35.2170   40.7150 C   0  0  0  0  0  0  0  0  0  0  0  0
   47.9140   34.5140   39.7000 C   0  0  0  0  0  0  0  0  0  0  0  0
   48.5680   34.6070   38.0820 Cl  0  0  0  0  0  0  0  0  0  0  0  0
   46.7890   33.7610   39.9240 C   0  0  0  0  0  0  0  0  0  0  0  0
   45.3230   31.6690   47.5330 C   0  0  2  0  0  0  0  0  0  0  0  0
   46.3340   31.8680   46.4390 C   0  0  2  0  0  0  0  0  0  0  0  0
   47.5890   31.9140   46.9950 O   0  0  0  0  0  0  0  0  0  0  0  0
   47.4010   32.4420   48.2680 C   0  0  0  0  0  0  0  0  0  0  0  0
   46.2450   31.5580   48.7520 C   0  0  1  0  0  0  0  0  0  0  0  0
   44.5410   30.5440   47.3980 O   0  0  0  0  0  0  0  0  0  0  0  0
   45.6450   32.0940   49.8690 O   0  0  0  0  0  0  0  0  0  0  0  0
   44.1346   35.8274   45.7473 H   0  0  0  0  0  0  0  0  0  0  0  0
   45.1726   36.0831   43.4843 H   0  0  0  0  0  0  0  0  0  0  0  0
   48.5362   35.6827   42.8041 H   0  0  0  0  0  0  0  0  0  0  0  0
   49.4652   35.8139   40.5070 H   0  0  0  0  0  0  0  0  0  0  0  0
   46.2893   33.2144   39.1107 H   0  0  0  0  0  0  0  0  0  0  0  0
   44.5730   32.4730   47.5654 H   0  0  0  0  0  0  0  0  0  0  0  0
   46.3143   31.0189   45.7399 H   0  0  0  0  0  0  0  0  0  0  0  0
   48.2965   32.3237   48.8958 H   0  0  0  0  0  0  0  0  0  0  0  0
   47.2022   33.5235   48.2974 H   0  0  0  0  0  0  0  0  0  0  0  0
   46.5244   30.5358   49.0470 H   0  0  0  0  0  0  0  0  0  0  0  0
   44.3013   30.1992   48.2945 H   0  0  0  0  0  0  0  0  0  0  0  0
   46.0660   31.7179   50.6823 H   0  0  0  0  0  0  0  0  0  0  0  0
  1  6  2  0
  2  1  1  0
  3  2  2  0
  3  4  1  0
  4  5  2  0
  5  6  1  0
  8  7  1  0
  8  9  2  0
  9  3  1  0
 10  9  1  0
 11 10  2  0
 12 14  2  0
 12 11  1  0
 13 12  1  0
 14  8  1  0
 15 20  1  0
 15 19  1  0
 16  5  1  0
 16 17  1  0
 16 15  1  0
 17 18  1  0
 18 19  1  0
 19 21  1  0
  1 22  1  0
  2 23  1  0
 10 24  1  0
 11 25  1  0
 14 26  1  0
 15 27  1  1
 16 28  1  6
 18 29  1  0
 18 30  1  0
 19 31  1  1
 20 32  1  0
 21 33  1  0
M  ISO  8  22  14  23  14  24  14  25  14  26  14  27  13  28  13  29  13
M  ISO  4  30  13  31  13  32   3  33   3
M  END
>  <minimizedAffinity>  (1) 
-6.75379467

>  <minimizedRMSD>  (1) 
1.05026007

$$$$
