
     RDKit          3D

 29 31  0  0  0  0  0  0  0  0999 V2000
   44.4580   35.8540   44.8940 C   0  0  0  0  0  0  0  0  0  0  0  0
   45.1130   35.7580   43.6500 C   0  0  0  0  0  0  0  0  0  0  0  0
   46.0350   34.7500   43.4010 C   0  0  0  0  0  0  0  0  0  0  0  0
   46.2600   33.8780   44.4160 N   0  0  0  0  0  0  0  0  0  0  0  0
   45.6310   33.9800   45.5960 C   0  0  0  0  0  0  0  0  0  0  0  0
   44.7490   34.9440   45.8330 N   0  0  0  0  0  0  0  0  0  0  0  0
   44.5530   33.0950   41.4780 Cl  0  0  0  0  0  0  0  0  0  0  0  0
   46.1000   33.8750   41.1360 C   0  0  0  0  0  0  0  0  0  0  0  0
   46.7220   34.6370   42.1130 C   0  0  0  0  0  0  0  0  0  0  0  0
   47.9200   35.2210   41.8000 C   0  0  0  0  0  0  0  0  0  0  0  0
   48.4960   35.0600   40.5530 C   0  0  0  0  0  0  0  0  0  0  0  0
   47.8300   34.2850   39.6120 C   0  0  0  0  0  0  0  0  0  0  0  0
   48.5380   34.0660   38.0260 Cl  0  0  0  0  0  0  0  0  0  0  0  0
   46.6230   33.6750   39.8710 C   0  0  0  0  0  0  0  0  0  0  0  0
   45.9710   32.9660   46.6090 C   0  0  0  0  0  0  0  0  0  0  0  0
   45.1720   32.8740   47.7360 C   0  0  0  0  0  0  0  0  0  0  0  0
   45.4970   31.9210   48.6850 C   0  0  0  0  0  0  0  0  0  0  0  0
   46.6020   31.1370   48.4200 C   0  0  0  0  0  0  0  0  0  0  0  0
   47.4100   31.2200   47.2950 C   0  0  0  0  0  0  0  0  0  0  0  0
   47.0390   32.1770   46.3990 N   0  0  0  0  0  0  0  0  0  0  0  0
   43.7282   36.6537   45.0885 H   0  0  0  0  0  0  0  0  0  0  0  0
   44.8902   36.4937   42.8632 H   0  0  0  0  0  0  0  0  0  0  0  0
   48.4354   35.8312   42.5563 H   0  0  0  0  0  0  0  0  0  0  0  0
   49.4587   35.5344   40.3120 H   0  0  0  0  0  0  0  0  0  0  0  0
   46.1052   33.0646   39.1165 H   0  0  0  0  0  0  0  0  0  0  0  0
   44.3057   33.5380   47.8727 H   0  0  0  0  0  0  0  0  0  0  0  0
   44.9052   31.7945   49.6036 H   0  0  0  0  0  0  0  0  0  0  0  0
   46.8662   30.3766   49.1696 H   0  0  0  0  0  0  0  0  0  0  0  0
   48.2803   30.5656   47.1391 H   0  0  0  0  0  0  0  0  0  0  0  0
  1  6  2  0
  2  1  1  0
  3  2  2  0
  3  4  1  0
  4  5  2  0
  5  6  1  0
  5 15  1  0
  8  7  1  0
  8  9  2  0
  9  3  1  0
 10  9  1  0
 11 10  2  0
 12 14  2  0
 12 11  1  0
 13 12  1  0
 14  8  1  0
 15 16  2  0
 16 17  1  0
 18 17  2  0
 19 18  1  0
 20 15  1  0
 20 19  2  0
  1 21  1  0
  2 22  1  0
 10 23  1  0
 11 24  1  0
 14 25  1  0
 16 26  1  0
 17 27  1  0
 18 28  1  0
 19 29  1  0
M  ISO  8  21  14  22  14  23  14  24  14  25  14  26  14  27  14  28  14
M  ISO  1  29  14
M  END
>  <minimizedAffinity>  (1) 
-6.69751358

>  <minimizedRMSD>  (1) 
0.352850556

$$$$
