
     RDKit          3D

 27 29  0  0  0  0  0  0  0  0999 V2000
   44.4790   35.8860   44.9050 C   0  0  0  0  0  0  0  0  0  0  0  0
   45.1330   35.7810   43.6710 C   0  0  0  0  0  0  0  0  0  0  0  0
   46.0130   34.7530   43.3940 C   0  0  0  0  0  0  0  0  0  0  0  0
   46.2160   33.8390   44.3930 N   0  0  0  0  0  0  0  0  0  0  0  0
   45.5790   33.9570   45.5710 C   0  0  0  0  0  0  0  0  0  0  0  0
   44.7330   34.9480   45.8320 N   0  0  0  0  0  0  0  0  0  0  0  0
   44.5170   33.1330   41.4520 Cl  0  0  0  0  0  0  0  0  0  0  0  0
   46.0690   33.8900   41.1220 C   0  0  0  0  0  0  0  0  0  0  0  0
   46.6980   34.6400   42.1060 C   0  0  0  0  0  0  0  0  0  0  0  0
   47.9090   35.2150   41.8060 C   0  0  0  0  0  0  0  0  0  0  0  0
   48.5010   35.0610   40.5670 C   0  0  0  0  0  0  0  0  0  0  0  0
   47.8270   34.2980   39.6130 C   0  0  0  0  0  0  0  0  0  0  0  0
   48.5400   34.0690   38.0350 Cl  0  0  0  0  0  0  0  0  0  0  0  0
   46.6110   33.7030   39.8660 C   0  0  0  0  0  0  0  0  0  0  0  0
   45.8740   32.8970   46.5960 C   0  0  0  0  0  0  0  0  0  0  0  0
   45.2220   32.8080   47.8130 C   0  0  0  0  0  0  0  0  0  0  0  0
   45.5530   31.8240   48.6700 C   0  0  0  0  0  0  0  0  0  0  0  0
   46.5520   30.8870   48.3420 C   0  0  0  0  0  0  0  0  0  0  0  0
   47.0640   31.4870   46.6270 S   0  0  0  0  0  0  0  0  0  0  0  0
   43.7797   36.7104   45.1084 H   0  0  0  0  0  0  0  0  0  0  0  0
   44.9400   36.5403   42.8989 H   0  0  0  0  0  0  0  0  0  0  0  0
   48.4214   35.8143   42.5730 H   0  0  0  0  0  0  0  0  0  0  0  0
   49.4722   35.5250   40.3402 H   0  0  0  0  0  0  0  0  0  0  0  0
   46.0942   33.1050   39.1009 H   0  0  0  0  0  0  0  0  0  0  0  0
   44.4400   33.5349   48.0780 H   0  0  0  0  0  0  0  0  0  0  0  0
   45.0367   31.7509   49.6386 H   0  0  0  0  0  0  0  0  0  0  0  0
   46.9312   30.0360   48.9268 H   0  0  0  0  0  0  0  0  0  0  0  0
  1  6  2  0
  2  1  1  0
  3  2  2  0
  3  4  1  0
  4  5  2  0
  5  6  1  0
  5 15  1  0
  8  7  1  0
  8  9  2  0
  9  3  1  0
 10  9  1  0
 11 10  2  0
 12 14  2  0
 12 11  1  0
 13 12  1  0
 14  8  1  0
 15 19  1  0
 15 16  2  0
 16 17  1  0
 18 17  2  0
 19 18  1  0
  1 20  1  0
  2 21  1  0
 10 22  1  0
 11 23  1  0
 14 24  1  0
 16 25  1  0
 17 26  1  0
 18 27  1  0
M  ISO  8  20  14  21  14  22  14  23  14  24  14  25  14  26  14  27  14
M  END
>  <minimizedAffinity>  (1) 
-6.39885664

>  <minimizedRMSD>  (1) 
0.315927804

$$$$
