
     RDKit          3D

 24 25  0  0  0  0  0  0  0  0999 V2000
   44.5250   35.5500   44.7950 C   0  0  0  0  0  0  0  0  0  0  0  0
   45.1470   35.4880   43.5450 C   0  0  0  0  0  0  0  0  0  0  0  0
   46.2330   34.6770   43.2720 C   0  0  0  0  0  0  0  0  0  0  0  0
   46.6730   33.9240   44.3260 N   0  0  0  0  0  0  0  0  0  0  0  0
   46.0700   33.9870   45.5300 C   0  0  0  0  0  0  0  0  0  0  0  0
   45.0230   34.7770   45.7650 N   0  0  0  0  0  0  0  0  0  0  0  0
   46.1470   32.4670   47.6830 C   0  0  0  0  0  0  0  0  0  0  0  0
   44.9050   32.7440   47.7160 O   0  0  0  0  0  0  0  0  0  0  0  0
   46.6290   33.1510   46.5350 N   0  0  0  0  0  0  0  0  0  0  0  0
   44.8140   32.9320   41.3850 Cl  0  0  0  0  0  0  0  0  0  0  0  0
   46.2890   33.8210   41.0080 C   0  0  0  0  0  0  0  0  0  0  0  0
   46.8770   34.6170   41.9710 C   0  0  0  0  0  0  0  0  0  0  0  0
   48.0260   35.2890   41.6270 C   0  0  0  0  0  0  0  0  0  0  0  0
   48.5870   35.1880   40.3720 C   0  0  0  0  0  0  0  0  0  0  0  0
   47.9540   34.3740   39.4440 C   0  0  0  0  0  0  0  0  0  0  0  0
   48.6220   34.2050   37.8390 Cl  0  0  0  0  0  0  0  0  0  0  0  0
   46.8020   33.6780   39.7330 C   0  0  0  0  0  0  0  0  0  0  0  0
   43.6614   36.2077   44.9731 H   0  0  0  0  0  0  0  0  0  0  0  0
   44.7513   36.1182   42.7349 H   0  0  0  0  0  0  0  0  0  0  0  0
   46.7175   31.8403   48.3842 H   0  0  0  0  0  0  0  0  0  0  0  0
   47.6389   33.0041   46.3954 H   0  0  0  0  0  0  0  0  0  0  0  0
   48.5136   35.9282   42.3778 H   0  0  0  0  0  0  0  0  0  0  0  0
   49.5062   35.7347   40.1148 H   0  0  0  0  0  0  0  0  0  0  0  0
   46.3128   33.0380   38.9840 H   0  0  0  0  0  0  0  0  0  0  0  0
  1  6  2  0
  2  1  1  0
  3  2  2  0
  3  4  1  0
  4  5  2  0
  5  6  1  0
  5  9  1  0
  7  8  2  0
  9  7  1  0
 11 10  1  0
 11 12  2  0
 12  3  1  0
 13 12  1  0
 14 13  2  0
 15 17  2  0
 15 14  1  0
 16 15  1  0
 17 11  1  0
  1 18  1  0
  2 19  1  0
  7 20  1  0
  9 21  1  0
 13 22  1  0
 14 23  1  0
 17 24  1  0
M  ISO  6  18  14  19  14  20   6  22  14  23  14  24  14
M  END
>  <minimizedAffinity>  (1) 
-6.04919624

>  <minimizedRMSD>  (1) 
0.478924304

$$$$
