
     RDKit          3D

 23 24  0  0  0  0  0  0  0  0999 V2000
   44.5770   33.1590   41.3160 Cl  0  0  0  0  0  0  0  0  0  0  0  0
   46.1270   33.9220   40.9910 C   0  0  0  0  0  0  0  0  0  0  0  0
   46.7440   34.6810   41.9770 C   0  0  0  0  0  0  0  0  0  0  0  0
   47.9520   35.2540   41.6690 C   0  0  0  0  0  0  0  0  0  0  0  0
   48.5470   35.0910   40.4320 C   0  0  0  0  0  0  0  0  0  0  0  0
   47.8870   34.3220   39.4850 C   0  0  0  0  0  0  0  0  0  0  0  0
   48.6360   34.1140   37.9200 Cl  0  0  0  0  0  0  0  0  0  0  0  0
   46.6810   33.7260   39.7310 C   0  0  0  0  0  0  0  0  0  0  0  0
   44.4990   35.9200   44.7490 C   0  0  0  0  0  0  0  0  0  0  0  0
   45.1570   35.8180   43.5170 C   0  0  0  0  0  0  0  0  0  0  0  0
   46.0540   34.8030   43.2500 C   0  0  0  0  0  0  0  0  0  0  0  0
   46.2600   33.9060   44.2610 N   0  0  0  0  0  0  0  0  0  0  0  0
   45.6240   34.0130   45.4440 C   0  0  0  0  0  0  0  0  0  0  0  0
   44.7530   35.0110   45.6810 N   0  0  0  0  0  0  0  0  0  0  0  0
   45.9140   32.9870   46.4890 C   0  0  0  0  0  0  0  0  0  0  0  0
   48.4629   35.8620   42.4301 H   0  0  0  0  0  0  0  0  0  0  0  0
   49.5167   35.5581   40.2050 H   0  0  0  0  0  0  0  0  0  0  0  0
   46.1726   33.1194   38.9671 H   0  0  0  0  0  0  0  0  0  0  0  0
   43.7868   36.7364   44.9397 H   0  0  0  0  0  0  0  0  0  0  0  0
   44.9532   36.5686   42.7392 H   0  0  0  0  0  0  0  0  0  0  0  0
   45.7878   33.4336   47.4863 H   0  0  0  0  0  0  0  0  0  0  0  0
   45.2197   32.1414   46.3753 H   0  0  0  0  0  0  0  0  0  0  0  0
   46.9482   32.6300   46.3753 H   0  0  0  0  0  0  0  0  0  0  0  0
  2  1  1  0
  2  3  2  0
  3 11  1  0
  4  3  1  0
  5  4  2  0
  6  8  2  0
  6  5  1  0
  7  6  1  0
  8  2  1  0
  9 14  2  0
 10  9  1  0
 11 10  2  0
 11 12  1  0
 12 13  2  0
 13 14  1  0
 13 15  1  0
  4 16  1  0
  5 17  1  0
  8 18  1  0
  9 19  1  0
 10 20  1  0
 15 21  1  0
 15 22  1  0
 15 23  1  0
M  ISO  8  16  14  17  14  18  14  19  14  20  14  21   8  22   8  23   8
M  END
>  <minimizedAffinity>  (1) 
-5.4414978

>  <minimizedRMSD>  (1) 
0.0425698496

$$$$
