
     RDKit          3D

 41 44  0  0  1  0  0  0  0  0999 V2000
   44.8980   34.9750   45.2350 C   0  0  0  0  0  0  0  0  0  0  0  0
   45.4690   35.1350   43.9640 C   0  0  0  0  0  0  0  0  0  0  0  0
   46.4440   34.2760   43.4940 C   0  0  0  0  0  0  0  0  0  0  0  0
   46.8270   33.2610   44.3240 N   0  0  0  0  0  0  0  0  0  0  0  0
   46.2780   33.1160   45.5310 C   0  0  0  0  0  0  0  0  0  0  0  0
   45.3280   33.9530   45.9930 N   0  0  0  0  0  0  0  0  0  0  0  0
   46.7710   31.9740   46.3620 C   0  0  2  0  0  0  0  0  0  0  0  0
   47.5860   31.0040   45.5290 C   0  0  0  0  0  0  0  0  0  0  0  0
   46.6340   29.9260   45.0300 C   0  0  0  0  0  0  0  0  0  0  0  0
   46.1370   29.1400   46.0480 O   0  0  0  0  0  0  0  0  0  0  0  0
   45.8460   29.8430   47.2220 C   0  0  0  0  0  0  0  0  0  0  0  0
   45.5250   31.2690   46.8590 C   0  0  1  0  0  0  0  0  0  0  0  0
   45.0840   31.9850   48.1270 C   0  0  0  0  0  0  0  0  0  0  0  0
   45.0790   31.1950   49.4030 C   0  0  0  0  0  0  0  0  0  0  0  0
   46.1110   32.2850   49.1790 C   0  0  0  0  0  0  0  0  0  0  0  0
   45.0600   32.6920   41.4310 Cl  0  0  0  0  0  0  0  0  0  0  0  0
   46.4650   33.7160   41.1180 C   0  0  0  0  0  0  0  0  0  0  0  0
   47.0490   34.4270   42.1630 C   0  0  0  0  0  0  0  0  0  0  0  0
   48.1350   35.2060   41.8720 C   0  0  0  0  0  0  0  0  0  0  0  0
   48.6350   35.2850   40.5860 C   0  0  0  0  0  0  0  0  0  0  0  0
   48.0140   34.5560   39.5810 C   0  0  0  0  0  0  0  0  0  0  0  0
   48.6460   34.6550   37.9470 Cl  0  0  0  0  0  0  0  0  0  0  0  0
   46.9280   33.7660   39.8240 C   0  0  0  0  0  0  0  0  0  0  0  0
   44.1225   35.6647   45.5995 H   0  0  0  0  0  0  0  0  0  0  0  0
   45.1323   35.9650   43.3254 H   0  0  0  0  0  0  0  0  0  0  0  0
   47.4159   32.3326   47.1778 H   0  0  0  0  0  0  0  0  0  0  0  0
   48.0401   31.5295   44.6760 H   0  0  0  0  0  0  0  0  0  0  0  0
   48.3962   30.5618   46.1273 H   0  0  0  0  0  0  0  0  0  0  0  0
   45.7907   30.4116   44.5171 H   0  0  0  0  0  0  0  0  0  0  0  0
   47.2010   29.2710   44.3521 H   0  0  0  0  0  0  0  0  0  0  0  0
   44.9814   29.3845   47.7242 H   0  0  0  0  0  0  0  0  0  0  0  0
   46.7096   29.8130   47.9027 H   0  0  0  0  0  0  0  0  0  0  0  0
   44.7477   31.2805   46.0807 H   0  0  0  0  0  0  0  0  0  0  0  0
   44.3458   32.5910   47.5812 H   0  0  0  0  0  0  0  0  0  0  0  0
   44.2740   31.3410   50.1384 H   0  0  0  0  0  0  0  0  0  0  0  0
   45.1166   30.1258   49.6587 H   0  0  0  0  0  0  0  0  0  0  0  0
   47.1653   32.0196   49.0114 H   0  0  0  0  0  0  0  0  0  0  0  0
   46.4262   33.1852   49.7270 H   0  0  0  0  0  0  0  0  0  0  0  0
   48.6191   35.7799   42.6759 H   0  0  0  0  0  0  0  0  0  0  0  0
   49.5093   35.9142   40.3628 H   0  0  0  0  0  0  0  0  0  0  0  0
   46.4436   33.1936   39.0191 H   0  0  0  0  0  0  0  0  0  0  0  0
  1  6  2  0
  2  1  1  0
  3  2  2  0
  3  4  1  0
  4  5  2  0
  5  6  1  0
  5  7  1  0
  7 12  1  0
  8  7  1  0
  9  8  1  0
  9 10  1  0
 10 11  1  0
 12 11  1  0
 12 13  1  0
 13 15  1  0
 13 14  1  0
 15 14  1  0
 17 16  1  0
 17 18  2  0
 18  3  1  0
 19 18  1  0
 20 19  2  0
 21 23  2  0
 21 20  1  0
 22 21  1  0
 23 17  1  0
  1 24  1  0
  2 25  1  0
  7 26  1  1
  8 27  1  0
  8 28  1  0
  9 29  1  0
  9 30  1  0
 11 31  1  0
 11 32  1  0
 12 33  1  6
 13 34  1  0
 14 35  1  0
 14 36  1  0
 15 37  1  0
 15 38  1  0
 19 39  1  0
 20 40  1  0
 23 41  1  0
M  ISO  8  24  14  25  14  26  13  27  13  28  13  29  13  30  13  31  13
M  ISO  8  32  13  33  13  34  13  35  13  36  13  37  13  38  13  39  14
M  ISO  2  40  14  41  14
M  END
>  <minimizedAffinity>  (1) 
-6.44219589

>  <minimizedRMSD>  (1) 
1.17891693

$$$$
