
     RDKit          3D

 36 38  0  0  1  0  0  0  0  0999 V2000
   44.9230   34.9290   45.2200 C   0  0  0  0  0  0  0  0  0  0  0  0
   45.4850   35.0940   43.9440 C   0  0  0  0  0  0  0  0  0  0  0  0
   46.5080   34.2600   43.4830 C   0  0  0  0  0  0  0  0  0  0  0  0
   46.9260   33.2880   44.3310 N   0  0  0  0  0  0  0  0  0  0  0  0
   46.3860   33.1380   45.5410 C   0  0  0  0  0  0  0  0  0  0  0  0
   45.4020   33.9370   45.9890 N   0  0  0  0  0  0  0  0  0  0  0  0
   46.9170   32.0420   46.4070 C   0  0  2  0  0  0  0  0  0  0  0  0
   47.4360   30.8960   45.5690 C   0  0  0  0  0  0  0  0  0  0  0  0
   46.3020   29.8930   45.4150 C   0  0  0  0  0  0  0  0  0  0  0  0
   45.9560   29.2930   46.6030 O   0  0  0  0  0  0  0  0  0  0  0  0
   45.9470   30.1370   47.6940 C   0  0  0  0  0  0  0  0  0  0  0  0
   45.7300   31.5570   47.2200 C   0  0  1  0  0  0  0  0  0  0  0  0
   45.4180   32.4730   48.3450 C   0  0  0  0  0  0  0  0  0  0  0  0
   45.6820   32.1310   49.4810 O   0  0  0  0  0  0  0  0  0  0  0  0
   45.1340   32.6500   41.4400 Cl  0  0  0  0  0  0  0  0  0  0  0  0
   46.5130   33.7000   41.1140 C   0  0  0  0  0  0  0  0  0  0  0  0
   47.0960   34.4230   42.1520 C   0  0  0  0  0  0  0  0  0  0  0  0
   48.1620   35.2230   41.8560 C   0  0  0  0  0  0  0  0  0  0  0  0
   48.6500   35.3150   40.5590 C   0  0  0  0  0  0  0  0  0  0  0  0
   48.0230   34.5650   39.5590 C   0  0  0  0  0  0  0  0  0  0  0  0
   48.6470   34.6880   37.9250 Cl  0  0  0  0  0  0  0  0  0  0  0  0
   46.9560   33.7560   39.8160 C   0  0  0  0  0  0  0  0  0  0  0  0
   44.1187   35.5888   45.5775 H   0  0  0  0  0  0  0  0  0  0  0  0
   45.1119   35.8977   43.2922 H   0  0  0  0  0  0  0  0  0  0  0  0
   47.7470   32.4019   47.0327 H   0  0  0  0  0  0  0  0  0  0  0  0
   47.7485   31.2645   44.5808 H   0  0  0  0  0  0  0  0  0  0  0  0
   48.3064   30.4264   46.0506 H   0  0  0  0  0  0  0  0  0  0  0  0
   45.4209   30.4172   45.0164 H   0  0  0  0  0  0  0  0  0  0  0  0
   46.6495   29.1024   44.7337 H   0  0  0  0  0  0  0  0  0  0  0  0
   45.1340   29.8482   48.3763 H   0  0  0  0  0  0  0  0  0  0  0  0
   46.9078   30.0664   48.2248 H   0  0  0  0  0  0  0  0  0  0  0  0
   44.8499   31.5595   46.5602 H   0  0  0  0  0  0  0  0  0  0  0  0
   44.9528   33.4511   48.1528 H   0  0  0  0  0  0  0  0  0  0  0  0
   48.6419   35.8039   42.6574 H   0  0  0  0  0  0  0  0  0  0  0  0
   49.5083   35.9617   40.3242 H   0  0  0  0  0  0  0  0  0  0  0  0
   46.4715   33.1738   39.0183 H   0  0  0  0  0  0  0  0  0  0  0  0
  1  6  2  0
  2  1  1  0
  3  2  2  0
  3  4  1  0
  4  5  2  0
  5  6  1  0
  5  7  1  0
  7 12  1  0
  8  7  1  0
  9  8  1  0
  9 10  1  0
 10 11  1  0
 12 11  1  0
 12 13  1  0
 13 14  2  0
 16 15  1  0
 16 17  2  0
 17  3  1  0
 18 17  1  0
 19 18  2  0
 20 22  2  0
 20 19  1  0
 21 20  1  0
 22 16  1  0
  1 23  1  0
  2 24  1  0
  7 25  1  1
  8 26  1  0
  8 27  1  0
  9 28  1  0
  9 29  1  0
 11 30  1  0
 11 31  1  0
 12 32  1  6
 13 33  1  0
 18 34  1  0
 19 35  1  0
 22 36  1  0
M  ISO  8  23  14  24  14  25  13  26  13  27  13  28  13  29  13  30  13
M  ISO  6  31  13  32  13  33   6  34  14  35  14  36  14
M  END
>  <minimizedAffinity>  (1) 
-6.15764999

>  <minimizedRMSD>  (1) 
0.859653294

$$$$
