
     RDKit          3D

 37 40  0  0  0  0  0  0  0  0999 V2000
   46.3240   32.3480   44.1010 F   0  0  0  0  0  0  0  0  0  0  0  0
   45.6880   33.5310   44.3490 C   0  0  0  0  0  0  0  0  0  0  0  0
   45.3930   33.9280   45.6190 C   0  0  0  0  0  0  0  0  0  0  0  0
   44.7570   35.1340   45.7680 C   0  0  0  0  0  0  0  0  0  0  0  0
   44.4220   35.9420   44.7000 C   0  0  0  0  0  0  0  0  0  0  0  0
   44.7500   35.4860   43.4490 C   0  0  0  0  0  0  0  0  0  0  0  0
   45.3750   34.2900   43.2460 C   0  0  0  0  0  0  0  0  0  0  0  0
   45.6140   33.8880   41.8790 C   0  0  0  0  0  0  0  0  0  0  0  0
   44.5380   33.4090   41.1320 C   0  0  0  0  0  0  0  0  0  0  0  0
   44.8110   33.0410   39.8290 C   0  0  0  0  0  0  0  0  0  0  0  0
   46.1060   33.1380   39.2710 C   0  0  0  0  0  0  0  0  0  0  0  0
   47.1500   33.6340   40.0890 C   0  0  0  0  0  0  0  0  0  0  0  0
   46.8930   34.0110   41.3980 C   0  0  0  0  0  0  0  0  0  0  0  0
   48.1170   34.5560   41.9150 C   0  0  0  0  0  0  0  0  0  0  0  0
   49.0140   34.0820   42.8940 C   0  0  0  0  0  0  0  0  0  0  0  0
   49.9970   35.0290   42.8970 N   0  0  0  0  0  0  0  0  0  0  0  0
   49.7200   35.9860   42.0020 C   0  0  0  0  0  0  0  0  0  0  0  0
   48.5420   35.7140   41.3690 N   0  0  0  0  0  0  0  0  0  0  0  0
   45.4610   31.8220   48.7610 C   0  0  0  0  0  0  0  0  0  0  0  0
   44.9840   32.6440   47.7290 C   0  0  0  0  0  0  0  0  0  0  0  0
   45.8230   33.0720   46.7260 C   0  0  0  0  0  0  0  0  0  0  0  0
   47.1110   32.6320   46.8310 N   0  0  0  0  0  0  0  0  0  0  0  0
   47.5570   31.8510   47.8130 C   0  0  0  0  0  0  0  0  0  0  0  0
   46.7310   31.4460   48.7770 N   0  0  0  0  0  0  0  0  0  0  0  0
   44.5026   35.4723   46.7833 H   0  0  0  0  0  0  0  0  0  0  0  0
   43.9152   36.9073   44.8458 H   0  0  0  0  0  0  0  0  0  0  0  0
   44.5000   36.1075   42.5765 H   0  0  0  0  0  0  0  0  0  0  0  0
   43.5268   33.3286   41.5575 H   0  0  0  0  0  0  0  0  0  0  0  0
   43.9912   32.6587   39.2031 H   0  0  0  0  0  0  0  0  0  0  0  0
   46.2974   32.8367   38.2305 H   0  0  0  0  0  0  0  0  0  0  0  0
   48.1691   33.7205   39.6841 H   0  0  0  0  0  0  0  0  0  0  0  0
   48.9398   33.1711   43.5062 H   0  0  0  0  0  0  0  0  0  0  0  0
   50.8314   35.0103   43.5005 H   0  0  0  0  0  0  0  0  0  0  0  0
   50.3514   36.8650   41.8054 H   0  0  0  0  0  0  0  0  0  0  0  0
   44.7795   31.4893   49.5578 H   0  0  0  0  0  0  0  0  0  0  0  0
   43.9274   32.9498   47.7216 H   0  0  0  0  0  0  0  0  0  0  0  0
   48.6117   31.5389   47.8285 H   0  0  0  0  0  0  0  0  0  0  0  0
  1  2  1  0
  2  3  2  0
  3  4  1  0
  3 21  1  0
  5  4  2  0
  6  5  1  0
  7  6  2  0
  7  2  1  0
  8  7  1  0
  9  8  2  0
 10  9  1  0
 11 10  2  0
 11 12  1  0
 12 13  2  0
 13  8  1  0
 13 14  1  0
 14 15  2  0
 15 16  1  0
 17 16  1  0
 18 14  1  0
 18 17  2  0
 19 24  2  0
 20 19  1  0
 21 22  1  0
 21 20  2  0
 22 23  2  0
 23 24  1  0
  4 25  1  0
  5 26  1  0
  6 27  1  0
  9 28  1  0
 10 29  1  0
 11 30  1  0
 12 31  1  0
 15 32  1  0
 16 33  1  0
 17 34  1  0
 19 35  1  0
 20 36  1  0
 23 37  1  0
M  ISO  8  25  14  26  14  27  14  28  14  29  14  30  14  31  14  32  14
M  ISO  5  33   9  34  14  35  14  36  14  37  14
M  END
>  <minimizedAffinity>  (1) 
-6.76459265

>  <minimizedRMSD>  (1) 
4.52832174

$$$$
