
     RDKit          3D

 37 40  0  0  0  0  0  0  0  0999 V2000
   46.2350   32.1460   44.1890 F   0  0  0  0  0  0  0  0  0  0  0  0
   45.5800   33.3320   44.3690 C   0  0  0  0  0  0  0  0  0  0  0  0
   45.4450   33.8300   45.6240 C   0  0  0  0  0  0  0  0  0  0  0  0
   44.8580   35.0760   45.7140 C   0  0  0  0  0  0  0  0  0  0  0  0
   44.4300   35.7820   44.6110 C   0  0  0  0  0  0  0  0  0  0  0  0
   44.6050   35.2060   43.4020 C   0  0  0  0  0  0  0  0  0  0  0  0
   45.1770   33.9800   43.2460 C   0  0  0  0  0  0  0  0  0  0  0  0
   45.4060   33.5170   41.8890 C   0  0  0  0  0  0  0  0  0  0  0  0
   44.3730   32.8510   41.2180 C   0  0  0  0  0  0  0  0  0  0  0  0
   44.6370   32.2700   40.0050 C   0  0  0  0  0  0  0  0  0  0  0  0
   45.9030   32.3430   39.4590 C   0  0  0  0  0  0  0  0  0  0  0  0
   46.9010   33.0270   40.1720 C   0  0  0  0  0  0  0  0  0  0  0  0
   46.6550   33.6160   41.3800 C   0  0  0  0  0  0  0  0  0  0  0  0
   47.8480   34.3040   41.7590 C   0  0  0  0  0  0  0  0  0  0  0  0
   48.8630   34.0130   42.7060 C   0  0  0  0  0  0  0  0  0  0  0  0
   49.7470   35.0930   42.5670 C   0  0  0  0  0  0  0  0  0  0  0  0
   49.2400   35.9460   41.5800 C   0  0  0  0  0  0  0  0  0  0  0  0
   48.1200   35.4550   41.1220 O   0  0  0  0  0  0  0  0  0  0  0  0
   45.4310   31.8460   48.8360 C   0  0  0  0  0  0  0  0  0  0  0  0
   44.9960   32.5960   47.7480 C   0  0  0  0  0  0  0  0  0  0  0  0
   45.8830   33.0480   46.7540 C   0  0  0  0  0  0  0  0  0  0  0  0
   47.1640   32.7080   46.9280 N   0  0  0  0  0  0  0  0  0  0  0  0
   47.5680   31.9810   47.9870 C   0  0  0  0  0  0  0  0  0  0  0  0
   46.7190   31.5560   48.9240 N   0  0  0  0  0  0  0  0  0  0  0  0
   44.7262   35.5248   46.7096 H   0  0  0  0  0  0  0  0  0  0  0  0
   43.9650   36.7738   44.7109 H   0  0  0  0  0  0  0  0  0  0  0  0
   44.2716   35.7499   42.5059 H   0  0  0  0  0  0  0  0  0  0  0  0
   43.3661   32.7950   41.6572 H   0  0  0  0  0  0  0  0  0  0  0  0
   43.8369   31.7433   39.4642 H   0  0  0  0  0  0  0  0  0  0  0  0
   46.1248   31.8762   38.4880 H   0  0  0  0  0  0  0  0  0  0  0  0
   47.9125   33.0905   39.7445 H   0  0  0  0  0  0  0  0  0  0  0  0
   48.9385   33.1503   43.3843 H   0  0  0  0  0  0  0  0  0  0  0  0
   50.6770   35.2434   43.1349 H   0  0  0  0  0  0  0  0  0  0  0  0
   49.7104   36.8817   41.2434 H   0  0  0  0  0  0  0  0  0  0  0  0
   44.7220   31.5027   49.6038 H   0  0  0  0  0  0  0  0  0  0  0  0
   43.9275   32.8428   47.6625 H   0  0  0  0  0  0  0  0  0  0  0  0
   48.6345   31.7290   48.0827 H   0  0  0  0  0  0  0  0  0  0  0  0
  1  2  1  0
  2  3  2  0
  3  4  1  0
  3 21  1  0
  5  4  2  0
  6  5  1  0
  7  6  2  0
  7  2  1  0
  8  7  1  0
  9  8  2  0
 10  9  1  0
 11 10  2  0
 11 12  1  0
 12 13  2  0
 13 14  1  0
 13  8  1  0
 14 15  2  0
 16 15  1  0
 17 16  2  0
 18 17  1  0
 18 14  1  0
 19 24  2  0
 20 19  1  0
 21 22  1  0
 21 20  2  0
 22 23  2  0
 23 24  1  0
  4 25  1  0
  5 26  1  0
  6 27  1  0
  9 28  1  0
 10 29  1  0
 11 30  1  0
 12 31  1  0
 15 32  1  0
 16 33  1  0
 17 34  1  0
 19 35  1  0
 20 36  1  0
 23 37  1  0
M  ISO  8  25  14  26  14  27  14  28  14  29  14  30  14  31  14  32  14
M  ISO  5  33  14  34  14  35  14  36  14  37  14
M  END
>  <minimizedAffinity>  (1) 
-6.42858458

>  <minimizedRMSD>  (1) 
4.44954252

$$$$
