
     RDKit          3D

 34 36  0  0  0  0  0  0  0  0999 V2000
   45.0420   33.3650   41.2840 F   0  0  0  0  0  0  0  0  0  0  0  0
   46.2400   34.0080   41.1100 C   0  0  0  0  0  0  0  0  0  0  0  0
   46.7630   34.7670   42.1030 C   0  0  0  0  0  0  0  0  0  0  0  0
   47.9990   35.3290   41.8610 C   0  0  0  0  0  0  0  0  0  0  0  0
   48.6810   35.1390   40.6870 C   0  0  0  0  0  0  0  0  0  0  0  0
   48.0740   34.3550   39.7350 C   0  0  0  0  0  0  0  0  0  0  0  0
   46.8540   33.7760   39.9150 C   0  0  0  0  0  0  0  0  0  0  0  0
   46.3230   32.9890   38.8320 C   0  0  0  0  0  0  0  0  0  0  0  0
   45.5600   31.8800   39.0980 C   0  0  0  0  0  0  0  0  0  0  0  0
   45.1180   31.1150   38.0520 C   0  0  0  0  0  0  0  0  0  0  0  0
   45.4200   31.4310   36.7390 C   0  0  0  0  0  0  0  0  0  0  0  0
   46.1990   32.5740   36.5190 C   0  0  0  0  0  0  0  0  0  0  0  0
   46.6420   33.3410   37.5650 C   0  0  0  0  0  0  0  0  0  0  0  0
   48.6540   33.8650   36.5950 C   0  0  0  0  0  0  0  0  0  0  0  0
   48.9300   32.6490   36.8350 O   0  0  0  0  0  0  0  0  0  0  0  0
   47.3460   34.3900   36.9750 N   0  0  0  0  0  0  0  0  0  0  0  0
   44.4350   36.0860   44.7770 C   0  0  0  0  0  0  0  0  0  0  0  0
   45.1370   35.9810   43.5710 C   0  0  0  0  0  0  0  0  0  0  0  0
   46.0080   34.9260   43.3380 C   0  0  0  0  0  0  0  0  0  0  0  0
   46.1280   34.0130   44.3500 N   0  0  0  0  0  0  0  0  0  0  0  0
   45.4510   34.1240   45.5010 C   0  0  0  0  0  0  0  0  0  0  0  0
   44.6130   35.1490   45.7140 N   0  0  0  0  0  0  0  0  0  0  0  0
   48.4561   35.9550   42.6415 H   0  0  0  0  0  0  0  0  0  0  0  0
   49.6681   35.5929   40.5149 H   0  0  0  0  0  0  0  0  0  0  0  0
   48.5982   34.1871   38.7826 H   0  0  0  0  0  0  0  0  0  0  0  0
   45.3077   31.6101   40.1341 H   0  0  0  0  0  0  0  0  0  0  0  0
   44.5062   30.2250   38.2610 H   0  0  0  0  0  0  0  0  0  0  0  0
   45.0633   30.8108   35.9035 H   0  0  0  0  0  0  0  0  0  0  0  0
   46.4596   32.8609   35.4896 H   0  0  0  0  0  0  0  0  0  0  0  0
   49.3932   34.5163   36.1056 H   0  0  0  0  0  0  0  0  0  0  0  0
   47.0074   35.3525   36.8341 H   0  0  0  0  0  0  0  0  0  0  0  0
   43.7473   36.9266   44.9514 H   0  0  0  0  0  0  0  0  0  0  0  0
   44.9961   36.7475   42.7947 H   0  0  0  0  0  0  0  0  0  0  0  0
   45.5847   33.3624   46.2834 H   0  0  0  0  0  0  0  0  0  0  0  0
  2  1  1  0
  2  3  2  0
  3 19  1  0
  4  3  1  0
  5  4  2  0
  6  7  2  0
  6  5  1  0
  7  2  1  0
  8  9  2  0
  8  7  1  0
 10  9  1  0
 11 10  2  0
 12 11  1  0
 12 13  2  0
 13  8  1  0
 14 15  2  0
 14 16  1  0
 16 13  1  0
 17 22  2  0
 18 17  1  0
 19 18  2  0
 19 20  1  0
 20 21  2  0
 21 22  1  0
  4 23  1  0
  5 24  1  0
  6 25  1  0
  9 26  1  0
 10 27  1  0
 11 28  1  0
 12 29  1  0
 14 30  1  0
 16 31  1  0
 17 32  1  0
 18 33  1  0
 21 34  1  0
M  ISO  8  23  14  24  14  25  14  26  14  27  14  28  14  29  14  30   6
M  ISO  3  32  14  33  14  34  14
M  END
>  <minimizedAffinity>  (1) 
-6.37105227

>  <minimizedRMSD>  (1) 
0.6343261

$$$$
