
     RDKit          3D

 31 33  0  0  0  0  0  0  0  0999 V2000
   45.0040   33.5900   41.2240 F   0  0  0  0  0  0  0  0  0  0  0  0
   46.2650   34.1100   41.1370 C   0  0  0  0  0  0  0  0  0  0  0  0
   46.8050   34.7910   42.1750 C   0  0  0  0  0  0  0  0  0  0  0  0
   48.0590   35.3250   41.9780 C   0  0  0  0  0  0  0  0  0  0  0  0
   48.7490   35.1880   40.7960 C   0  0  0  0  0  0  0  0  0  0  0  0
   48.1280   34.4840   39.8000 C   0  0  0  0  0  0  0  0  0  0  0  0
   46.8870   33.9300   39.9360 C   0  0  0  0  0  0  0  0  0  0  0  0
   46.3630   33.1940   38.8150 C   0  0  0  0  0  0  0  0  0  0  0  0
   45.2480   32.4090   38.9620 C   0  0  0  0  0  0  0  0  0  0  0  0
   44.7710   31.7390   37.8690 C   0  0  0  0  0  0  0  0  0  0  0  0
   45.3810   31.8280   36.6210 C   0  0  0  0  0  0  0  0  0  0  0  0
   46.5170   32.6420   36.5240 C   0  0  0  0  0  0  0  0  0  0  0  0
   46.9980   33.3160   37.6180 C   0  0  0  0  0  0  0  0  0  0  0  0
   48.3980   34.2550   37.0860 S   0  0  0  0  0  0  0  0  0  0  0  0
   44.4360   35.9680   44.8680 C   0  0  0  0  0  0  0  0  0  0  0  0
   45.1420   35.9170   43.6570 C   0  0  0  0  0  0  0  0  0  0  0  0
   46.0410   34.8910   43.4210 C   0  0  0  0  0  0  0  0  0  0  0  0
   46.1850   33.9650   44.4180 N   0  0  0  0  0  0  0  0  0  0  0  0
   45.4930   34.0440   45.5650 C   0  0  0  0  0  0  0  0  0  0  0  0
   44.6340   35.0330   45.7830 N   0  0  0  0  0  0  0  0  0  0  0  0
   48.5286   35.8846   42.8004 H   0  0  0  0  0  0  0  0  0  0  0  0
   49.7501   35.6226   40.6581 H   0  0  0  0  0  0  0  0  0  0  0  0
   48.6545   34.3581   38.8424 H   0  0  0  0  0  0  0  0  0  0  0  0
   44.7481   32.3201   39.9378 H   0  0  0  0  0  0  0  0  0  0  0  0
   43.8760   31.1092   37.9799 H   0  0  0  0  0  0  0  0  0  0  0  0
   44.9885   31.2834   35.7496 H   0  0  0  0  0  0  0  0  0  0  0  0
   47.0309   32.7423   35.5566 H   0  0  0  0  0  0  0  0  0  0  0  0
   49.0825   34.7141   38.1803 H   0  0  0  0  0  0  0  0  0  0  0  0
   43.7206   36.7821   45.0562 H   0  0  0  0  0  0  0  0  0  0  0  0
   44.9812   36.6930   42.8941 H   0  0  0  0  0  0  0  0  0  0  0  0
   45.6399   33.2758   46.3385 H   0  0  0  0  0  0  0  0  0  0  0  0
  2  1  1  0
  2  3  2  0
  3 17  1  0
  4  3  1  0
  5  4  2  0
  6  7  2  0
  6  5  1  0
  7  2  1  0
  8  9  2  0
  8  7  1  0
 10  9  1  0
 11 10  2  0
 12 11  1  0
 12 13  2  0
 13  8  1  0
 14 13  1  0
 15 20  2  0
 16 15  1  0
 17 16  2  0
 17 18  1  0
 18 19  2  0
 19 20  1  0
  4 21  1  0
  5 22  1  0
  6 23  1  0
  9 24  1  0
 10 25  1  0
 11 26  1  0
 12 27  1  0
 14 28  1  0
 15 29  1  0
 16 30  1  0
 19 31  1  0
M  ISO  8  21  14  22  14  23  14  24  14  25  14  26  14  27  14  28  11
M  ISO  3  29  14  30  14  31  14
M  END
>  <minimizedAffinity>  (1) 
-6.03047752

>  <minimizedRMSD>  (1) 
0.236376166

$$$$
