
     RDKit          3D

 40 43  0  0  0  0  0  0  0  0999 V2000
   45.4810   33.1460   41.2350 F   0  0  0  0  0  0  0  0  0  0  0  0
   46.5490   33.9830   41.0600 C   0  0  0  0  0  0  0  0  0  0  0  0
   46.9420   34.8110   42.0590 C   0  0  0  0  0  0  0  0  0  0  0  0
   48.0760   35.5650   41.8210 C   0  0  0  0  0  0  0  0  0  0  0  0
   48.7850   35.4880   40.6430 C   0  0  0  0  0  0  0  0  0  0  0  0
   48.3100   34.6200   39.6970 C   0  0  0  0  0  0  0  0  0  0  0  0
   47.1930   33.8550   39.8650 C   0  0  0  0  0  0  0  0  0  0  0  0
   46.7780   33.0300   38.7640 C   0  0  0  0  0  0  0  0  0  0  0  0
   45.5760   33.2950   38.1360 C   0  0  0  0  0  0  0  0  0  0  0  0
   45.1680   32.4610   37.1260 C   0  0  0  0  0  0  0  0  0  0  0  0
   45.9260   31.3700   36.7260 C   0  0  0  0  0  0  0  0  0  0  0  0
   47.1450   31.1490   37.4010 C   0  0  0  0  0  0  0  0  0  0  0  0
   47.5620   31.9800   38.4090 C   0  0  0  0  0  0  0  0  0  0  0  0
   47.8010   30.5210   40.7000 F   0  0  0  0  0  0  0  0  0  0  0  0
   48.8870   30.8030   39.9690 C   0  0  0  0  0  0  0  0  0  0  0  0
   48.8710   31.5200   38.7480 C   0  0  0  0  0  0  0  0  0  0  0  0
   50.0740   31.7700   38.0470 C   0  0  0  0  0  0  0  0  0  0  0  0
   51.2430   31.2870   38.6010 C   0  0  0  0  0  0  0  0  0  0  0  0
   51.2580   30.5890   39.7910 C   0  0  0  0  0  0  0  0  0  0  0  0
   50.0970   30.3370   40.4890 C   0  0  0  0  0  0  0  0  0  0  0  0
   44.5320   35.6660   44.8380 C   0  0  0  0  0  0  0  0  0  0  0  0
   45.2100   35.7280   43.6120 C   0  0  0  0  0  0  0  0  0  0  0  0
   46.1940   34.8140   43.3080 C   0  0  0  0  0  0  0  0  0  0  0  0
   46.4380   33.8800   44.2720 N   0  0  0  0  0  0  0  0  0  0  0  0
   45.7870   33.8290   45.4370 C   0  0  0  0  0  0  0  0  0  0  0  0
   44.8410   34.7190   45.7140 N   0  0  0  0  0  0  0  0  0  0  0  0
   48.4259   36.2540   42.6039 H   0  0  0  0  0  0  0  0  0  0  0  0
   49.6872   36.0933   40.4709 H   0  0  0  0  0  0  0  0  0  0  0  0
   48.8598   34.5346   38.7481 H   0  0  0  0  0  0  0  0  0  0  0  0
   44.9605   34.1549   38.4389 H   0  0  0  0  0  0  0  0  0  0  0  0
   44.2129   32.6630   36.6190 H   0  0  0  0  0  0  0  0  0  0  0  0
   45.5906   30.7051   35.9164 H   0  0  0  0  0  0  0  0  0  0  0  0
   47.7733   30.2933   37.1131 H   0  0  0  0  0  0  0  0  0  0  0  0
   50.0781   32.3269   37.0984 H   0  0  0  0  0  0  0  0  0  0  0  0
   52.1934   31.4646   38.0764 H   0  0  0  0  0  0  0  0  0  0  0  0
   52.2164   30.2262   40.1907 H   0  0  0  0  0  0  0  0  0  0  0  0
   50.1224   29.7798   41.4371 H   0  0  0  0  0  0  0  0  0  0  0  0
   43.7469   36.3999   45.0724 H   0  0  0  0  0  0  0  0  0  0  0  0
   44.9534   36.5140   42.8865 H   0  0  0  0  0  0  0  0  0  0  0  0
   46.0352   33.0470   46.1697 H   0  0  0  0  0  0  0  0  0  0  0  0
  2  1  1  0
  2  3  2  0
  3 23  1  0
  4  3  1  0
  5  4  2  0
  6  7  2  0
  6  5  1  0
  7  2  1  0
  8  7  1  0
  9  8  2  0
 10  9  1  0
 11 10  2  0
 11 12  1  0
 12 13  2  0
 13 16  1  0
 13  8  1  0
 15 20  2  0
 15 14  1  0
 16 15  1  0
 17 18  1  0
 17 16  2  0
 18 19  2  0
 19 20  1  0
 21 26  2  0
 22 21  1  0
 23 22  2  0
 23 24  1  0
 24 25  2  0
 25 26  1  0
  4 27  1  0
  5 28  1  0
  6 29  1  0
  9 30  1  0
 10 31  1  0
 11 32  1  0
 12 33  1  0
 17 34  1  0
 18 35  1  0
 19 36  1  0
 20 37  1  0
 21 38  1  0
 22 39  1  0
 25 40  1  0
M  ISO  8  27  14  28  14  29  14  30  14  31  14  32  14  33  14  34  14
M  ISO  6  35  14  36  14  37  14  38  14  39  14  40  14
M  END
>  <minimizedAffinity>  (1) 
-5.87972116

>  <minimizedRMSD>  (1) 
2.82269835

$$$$
