
     RDKit          3D

 45 48  0  0  0  0  0  0  0  0999 V2000
   44.7170   34.7800   41.5810 F   0  0  0  0  0  0  0  0  0  0  0  0
   44.9980   34.1170   40.4230 C   0  0  0  0  0  0  0  0  0  0  0  0
   46.2690   33.7570   40.0820 C   0  0  0  0  0  0  0  0  0  0  0  0
   46.4390   33.0760   38.8970 C   0  0  0  0  0  0  0  0  0  0  0  0
   45.3940   32.7470   38.0600 C   0  0  0  0  0  0  0  0  0  0  0  0
   44.1280   33.1340   38.4570 C   0  0  0  0  0  0  0  0  0  0  0  0
   43.9100   33.8180   39.6260 C   0  0  0  0  0  0  0  0  0  0  0  0
   42.5490   34.2010   39.9270 C   0  0  0  0  0  0  0  0  0  0  0  0
   42.0380   35.3470   39.3110 C   0  0  0  0  0  0  0  0  0  0  0  0
   40.7520   35.7080   39.6700 C   0  0  0  0  0  0  0  0  0  0  0  0
   39.9960   34.9600   40.6130 C   0  0  0  0  0  0  0  0  0  0  0  0
   40.5890   33.8030   41.1930 C   0  0  0  0  0  0  0  0  0  0  0  0
   41.8690   33.4390   40.8320 C   0  0  0  0  0  0  0  0  0  0  0  0
   42.1450   32.1920   41.4220 N   0  0  0  0  0  0  0  0  0  0  0  0
   41.2820   31.0330   41.1250 C   0  0  0  0  0  0  0  0  0  0  0  0
   42.0870   29.9690   40.4260 C   0  0  0  0  0  0  0  0  0  0  0  0
   43.5440   30.3080   40.2720 C   0  0  0  0  0  0  0  0  0  0  0  0
   44.1050   30.6990   41.5970 C   0  0  0  0  0  0  0  0  0  0  0  0
   43.2450   31.7260   42.3020 C   0  0  0  0  0  0  0  0  0  0  0  0
   49.2270   35.4050   41.7660 C   0  0  0  0  0  0  0  0  0  0  0  0
   48.2140   35.1390   40.8310 C   0  0  0  0  0  0  0  0  0  0  0  0
   47.3410   34.0880   41.0180 C   0  0  0  0  0  0  0  0  0  0  0  0
   47.5620   33.3840   42.1410 N   0  0  0  0  0  0  0  0  0  0  0  0
   48.5150   33.6240   43.0330 C   0  0  0  0  0  0  0  0  0  0  0  0
   49.3490   34.6350   42.8450 N   0  0  0  0  0  0  0  0  0  0  0  0
   47.4573   32.7804   38.6043 H   0  0  0  0  0  0  0  0  0  0  0  0
   45.5602   32.2015   37.1194 H   0  0  0  0  0  0  0  0  0  0  0  0
   43.2691   32.8860   37.8161 H   0  0  0  0  0  0  0  0  0  0  0  0
   42.6242   35.9276   38.5835 H   0  0  0  0  0  0  0  0  0  0  0  0
   40.3008   36.6006   39.2121 H   0  0  0  0  0  0  0  0  0  0  0  0
   38.9765   35.2679   40.8882 H   0  0  0  0  0  0  0  0  0  0  0  0
   40.0291   33.2027   41.9252 H   0  0  0  0  0  0  0  0  0  0  0  0
   40.8772   30.6279   42.0642 H   0  0  0  0  0  0  0  0  0  0  0  0
   40.4544   31.3513   40.4741 H   0  0  0  0  0  0  0  0  0  0  0  0
   42.0078   29.0379   41.0063 H   0  0  0  0  0  0  0  0  0  0  0  0
   41.6735   29.8716   39.4113 H   0  0  0  0  0  0  0  0  0  0  0  0
   44.0861   29.4311   39.8884 H   0  0  0  0  0  0  0  0  0  0  0  0
   43.6537   31.1441   39.5657 H   0  0  0  0  0  0  0  0  0  0  0  0
   44.1763   29.8022   42.2300 H   0  0  0  0  0  0  0  0  0  0  0  0
   45.0945   31.1479   41.4254 H   0  0  0  0  0  0  0  0  0  0  0  0
   43.8699   32.5865   42.5833 H   0  0  0  0  0  0  0  0  0  0  0  0
   42.8053   31.2606   43.1965 H   0  0  0  0  0  0  0  0  0  0  0  0
   49.9173   36.2466   41.6075 H   0  0  0  0  0  0  0  0  0  0  0  0
   48.1156   35.7759   39.9395 H   0  0  0  0  0  0  0  0  0  0  0  0
   48.6115   32.9862   43.9240 H   0  0  0  0  0  0  0  0  0  0  0  0
  2  1  1  0
  3  2  2  0
  3 22  1  0
  4  3  1  0
  5  6  1  0
  5  4  2  0
  6  7  2  0
  7  8  1  0
  7  2  1  0
  8 13  2  0
  9 10  2  0
  9  8  1  0
 10 11  1  0
 11 12  2  0
 13 12  1  0
 13 14  1  0
 14 19  1  0
 15 14  1  0
 16 15  1  0
 17 16  1  0
 17 18  1  0
 18 19  1  0
 20 25  2  0
 21 22  2  0
 21 20  1  0
 22 23  1  0
 23 24  2  0
 25 24  1  0
  4 26  1  0
  5 27  1  0
  6 28  1  0
  9 29  1  0
 10 30  1  0
 11 31  1  0
 12 32  1  0
 15 33  1  0
 15 34  1  0
 16 35  1  0
 16 36  1  0
 17 37  1  0
 17 38  1  0
 18 39  1  0
 18 40  1  0
 19 41  1  0
 19 42  1  0
 20 43  1  0
 21 44  1  0
 24 45  1  0
M  ISO  8  26  14  27  14  28  14  29  14  30  14  31  14  32  14  33  13
M  ISO  8  34  13  35  13  36  13  37  13  38  13  39  13  40  13  41  13
M  ISO  4  42  13  43  14  44  14  45  14
M  END
>  <minimizedAffinity>  (1) 
-5.56403017

>  <minimizedRMSD>  (1) 
6.02817488

$$$$
