
     RDKit          3D

 39 42  0  0  0  0  0  0  0  0999 V2000
   45.3130   33.2060   41.1660 F   0  0  0  0  0  0  0  0  0  0  0  0
   46.4620   33.9090   40.9980 C   0  0  0  0  0  0  0  0  0  0  0  0
   46.9260   34.7290   41.9720 C   0  0  0  0  0  0  0  0  0  0  0  0
   48.0950   35.4030   41.7180 C   0  0  0  0  0  0  0  0  0  0  0  0
   48.7820   35.2710   40.5390 C   0  0  0  0  0  0  0  0  0  0  0  0
   48.2470   34.4250   39.6080 C   0  0  0  0  0  0  0  0  0  0  0  0
   47.0960   33.7300   39.7970 C   0  0  0  0  0  0  0  0  0  0  0  0
   46.6310   32.8660   38.7390 C   0  0  0  0  0  0  0  0  0  0  0  0
   46.1890   31.5970   39.0210 C   0  0  0  0  0  0  0  0  0  0  0  0
   45.7510   30.7970   38.0130 C   0  0  0  0  0  0  0  0  0  0  0  0
   45.7440   31.2500   36.6910 C   0  0  0  0  0  0  0  0  0  0  0  0
   46.2020   32.5470   36.4510 C   0  0  0  0  0  0  0  0  0  0  0  0
   46.6430   33.3520   37.4640 C   0  0  0  0  0  0  0  0  0  0  0  0
   47.0390   34.5730   36.9690 O   0  0  0  0  0  0  0  0  0  0  0  0
   44.4860   35.8790   44.6310 C   0  0  0  0  0  0  0  0  0  0  0  0
   45.1970   35.8110   43.4300 C   0  0  0  0  0  0  0  0  0  0  0  0
   46.1520   34.8370   43.2250 C   0  0  0  0  0  0  0  0  0  0  0  0
   46.3390   33.9750   44.2530 N   0  0  0  0  0  0  0  0  0  0  0  0
   45.6550   34.0530   45.3900 C   0  0  0  0  0  0  0  0  0  0  0  0
   44.7320   34.9970   45.5840 N   0  0  0  0  0  0  0  0  0  0  0  0
   45.9230   33.0790   46.4470 C   0  0  0  0  0  0  0  0  0  0  0  0
   46.9720   32.1870   46.3460 C   0  0  0  0  0  0  0  0  0  0  0  0
   47.2870   31.2380   47.3060 C   0  0  0  0  0  0  0  0  0  0  0  0
   46.4780   31.2240   48.4000 N   0  0  0  0  0  0  0  0  0  0  0  0
   45.4450   32.0850   48.5250 C   0  0  0  0  0  0  0  0  0  0  0  0
   45.1660   33.0070   47.5570 N   0  0  0  0  0  0  0  0  0  0  0  0
   48.4960   36.0752   42.4908 H   0  0  0  0  0  0  0  0  0  0  0  0
   49.7173   35.8187   40.3515 H   0  0  0  0  0  0  0  0  0  0  0  0
   48.7783   34.3004   38.6529 H   0  0  0  0  0  0  0  0  0  0  0  0
   46.1893   31.2294   40.0578 H   0  0  0  0  0  0  0  0  0  0  0  0
   45.3977   29.7805   38.2407 H   0  0  0  0  0  0  0  0  0  0  0  0
   45.3908   30.6087   35.8701 H   0  0  0  0  0  0  0  0  0  0  0  0
   46.2081   32.9309   35.4202 H   0  0  0  0  0  0  0  0  0  0  0  0
   47.3847   35.2678   37.5837 H   0  0  0  0  0  0  0  0  0  0  0  0
   43.7271   36.6609   44.7821 H   0  0  0  0  0  0  0  0  0  0  0  0
   44.9922   36.5448   42.6365 H   0  0  0  0  0  0  0  0  0  0  0  0
   47.5995   32.2324   45.4437 H   0  0  0  0  0  0  0  0  0  0  0  0
   48.1327   30.5440   47.1913 H   0  0  0  0  0  0  0  0  0  0  0  0
   44.8150   32.0427   49.4257 H   0  0  0  0  0  0  0  0  0  0  0  0
  2  1  1  0
  2  3  2  0
  3 17  1  0
  4  3  1  0
  5  4  2  0
  6  7  2  0
  6  5  1  0
  7  2  1  0
  8  9  2  0
  8  7  1  0
 10  9  1  0
 11 10  2  0
 12 11  1  0
 12 13  2  0
 13  8  1  0
 14 13  1  0
 15 20  2  0
 16 15  1  0
 17 16  2  0
 17 18  1  0
 18 19  2  0
 19 20  1  0
 19 21  1  0
 21 26  1  0
 22 21  2  0
 22 23  1  0
 23 24  2  0
 24 25  1  0
 26 25  2  0
  4 27  1  0
  5 28  1  0
  6 29  1  0
  9 30  1  0
 10 31  1  0
 11 32  1  0
 12 33  1  0
 14 34  1  0
 15 35  1  0
 16 36  1  0
 22 37  1  0
 23 38  1  0
 25 39  1  0
M  ISO  8  27  14  28  14  29  14  30  14  31  14  32  14  33  14  34   3
M  ISO  5  35  14  36  14  37  14  38  14  39  14
M  END
>  <minimizedAffinity>  (1) 
-7.57341623

>  <minimizedRMSD>  (1) 
0.244058713

$$$$
