
     RDKit          3D

 32 34  0  0  0  0  0  0  0  0999 V2000
   45.2160   33.3540   41.0760 F   0  0  0  0  0  0  0  0  0  0  0  0
   46.4030   33.9860   40.9360 C   0  0  0  0  0  0  0  0  0  0  0  0
   46.8720   34.8070   41.9010 C   0  0  0  0  0  0  0  0  0  0  0  0
   48.0940   35.4090   41.6710 C   0  0  0  0  0  0  0  0  0  0  0  0
   48.8200   35.2060   40.5290 C   0  0  0  0  0  0  0  0  0  0  0  0
   48.2730   34.3590   39.6000 C   0  0  0  0  0  0  0  0  0  0  0  0
   47.0770   33.7330   39.7610 C   0  0  0  0  0  0  0  0  0  0  0  0
   46.6070   32.8640   38.7100 C   0  0  0  0  0  0  0  0  0  0  0  0
   46.1700   31.5930   39.0070 C   0  0  0  0  0  0  0  0  0  0  0  0
   45.7310   30.7910   38.0000 C   0  0  0  0  0  0  0  0  0  0  0  0
   45.7190   31.2340   36.6840 C   0  0  0  0  0  0  0  0  0  0  0  0
   46.1710   32.5310   36.4220 C   0  0  0  0  0  0  0  0  0  0  0  0
   46.6150   33.3450   37.4350 C   0  0  0  0  0  0  0  0  0  0  0  0
   47.0060   34.5650   36.9350 O   0  0  0  0  0  0  0  0  0  0  0  0
   44.5210   36.2490   44.4780 C   0  0  0  0  0  0  0  0  0  0  0  0
   45.2680   36.1120   43.3080 C   0  0  0  0  0  0  0  0  0  0  0  0
   46.0640   35.0010   43.1140 C   0  0  0  0  0  0  0  0  0  0  0  0
   46.0630   34.0880   44.1130 N   0  0  0  0  0  0  0  0  0  0  0  0
   45.3440   34.2280   45.2310 C   0  0  0  0  0  0  0  0  0  0  0  0
   44.5720   35.3160   45.4070 N   0  0  0  0  0  0  0  0  0  0  0  0
   45.3890   33.2520   46.2140 O   0  0  0  0  0  0  0  0  0  0  0  0
   48.5015   36.0815   42.4402 H   0  0  0  0  0  0  0  0  0  0  0  0
   49.7909   35.6963   40.3650 H   0  0  0  0  0  0  0  0  0  0  0  0
   48.8337   34.1755   38.6716 H   0  0  0  0  0  0  0  0  0  0  0  0
   46.1757   31.2305   40.0455 H   0  0  0  0  0  0  0  0  0  0  0  0
   45.3797   29.7747   38.2319 H   0  0  0  0  0  0  0  0  0  0  0  0
   45.3642   30.5834   35.8711 H   0  0  0  0  0  0  0  0  0  0  0  0
   46.1709   32.9054   35.3877 H   0  0  0  0  0  0  0  0  0  0  0  0
   47.3517   35.2628   37.5464 H   0  0  0  0  0  0  0  0  0  0  0  0
   43.8886   37.1369   44.6253 H   0  0  0  0  0  0  0  0  0  0  0  0
   45.2225   36.8938   42.5355 H   0  0  0  0  0  0  0  0  0  0  0  0
   44.8556   33.3577   47.0413 H   0  0  0  0  0  0  0  0  0  0  0  0
  2  1  1  0
  2  3  2  0
  3 17  1  0
  4  3  1  0
  5  4  2  0
  6  7  2  0
  6  5  1  0
  7  2  1  0
  8  9  2  0
  8  7  1  0
 10  9  1  0
 11 10  2  0
 12 11  1  0
 12 13  2  0
 13  8  1  0
 14 13  1  0
 15 20  2  0
 16 15  1  0
 17 16  2  0
 17 18  1  0
 18 19  2  0
 19 20  1  0
 19 21  1  0
  4 22  1  0
  5 23  1  0
  6 24  1  0
  9 25  1  0
 10 26  1  0
 11 27  1  0
 12 28  1  0
 14 29  1  0
 15 30  1  0
 16 31  1  0
 21 32  1  0
M  ISO  8  22  14  23  14  24  14  25  14  26  14  27  14  28  14  29   3
M  ISO  3  30  14  31  14  32   3
M  END
>  <minimizedAffinity>  (1) 
-6.57245111

>  <minimizedRMSD>  (1) 
0.13471362

$$$$
