
     RDKit          3D

 34 36  0  0  0  0  0  0  0  0999 V2000
   44.7060   32.9970   41.1720 Br  0  0  0  0  0  0  0  0  0  0  0  0
   46.3550   33.9210   40.9120 C   0  0  0  0  0  0  0  0  0  0  0  0
   46.8570   34.7220   41.9030 C   0  0  0  0  0  0  0  0  0  0  0  0
   48.0720   35.4110   41.7290 C   0  0  0  0  0  0  0  0  0  0  0  0
   48.7340   35.2580   40.5430 C   0  0  0  0  0  0  0  0  0  0  0  0
   48.1870   34.4390   39.5750 C   0  0  0  0  0  0  0  0  0  0  0  0
   47.0160   33.7650   39.7220 C   0  0  0  0  0  0  0  0  0  0  0  0
   45.6250   34.0520   45.2800 C   0  0  0  0  0  0  0  0  0  0  0  0
   44.7100   35.1030   45.5190 C   0  0  0  0  0  0  0  0  0  0  0  0
   44.5400   36.0290   44.4900 C   0  0  0  0  0  0  0  0  0  0  0  0
   45.2400   35.8850   43.3420 N   0  0  0  0  0  0  0  0  0  0  0  0
   46.1170   34.8540   43.1490 C   0  0  0  0  0  0  0  0  0  0  0  0
   46.2880   33.9520   44.1370 N   0  0  0  0  0  0  0  0  0  0  0  0
   46.5590   32.9520   38.6480 N   0  0  0  0  0  0  0  0  0  0  0  0
   45.6340   33.3030   37.5850 C   0  0  0  0  0  0  0  0  0  0  0  0
   44.7870   32.1230   37.1700 C   0  0  0  0  0  0  0  0  0  0  0  0
   45.5900   31.0560   36.6030 N   0  0  0  0  0  0  0  0  0  0  0  0
   46.9760   31.2680   37.0060 C   0  0  0  0  0  0  0  0  0  0  0  0
   47.0170   31.5630   38.5020 C   0  0  0  0  0  0  0  0  0  0  0  0
   48.4770   36.0539   42.5244 H   0  0  0  0  0  0  0  0  0  0  0  0
   49.6862   35.7784   40.3627 H   0  0  0  0  0  0  0  0  0  0  0  0
   48.7326   34.3251   38.6267 H   0  0  0  0  0  0  0  0  0  0  0  0
   45.7909   33.2977   46.0632 H   0  0  0  0  0  0  0  0  0  0  0  0
   44.1602   35.1861   46.4681 H   0  0  0  0  0  0  0  0  0  0  0  0
   43.8417   36.8702   44.6114 H   0  0  0  0  0  0  0  0  0  0  0  0
   44.9740   34.1090   37.9383 H   0  0  0  0  0  0  0  0  0  0  0  0
   46.2206   33.6280   36.7130 H   0  0  0  0  0  0  0  0  0  0  0  0
   44.2557   31.7381   38.0529 H   0  0  0  0  0  0  0  0  0  0  0  0
   44.0792   32.4642   36.4002 H   0  0  0  0  0  0  0  0  0  0  0  0
   45.5186   31.0737   35.5756 H   0  0  0  0  0  0  0  0  0  0  0  0
   47.5650   30.3640   36.7918 H   0  0  0  0  0  0  0  0  0  0  0  0
   47.4006   32.1154   36.4477 H   0  0  0  0  0  0  0  0  0  0  0  0
   46.3481   30.8798   39.0458 H   0  0  0  0  0  0  0  0  0  0  0  0
   48.0270   31.4238   38.9150 H   0  0  0  0  0  0  0  0  0  0  0  0
  2  1  1  0
  2  3  2  0
  3 12  1  0
  4  3  1  0
  5  4  2  0
  6  7  2  0
  6  5  1  0
  7  2  1  0
  8  9  2  0
 10  9  1  0
 11 10  2  0
 12 11  1  0
 12 13  2  0
 13  8  1  0
 14  7  1  0
 15 14  1  0
 16 15  1  0
 17 18  1  0
 17 16  1  0
 18 19  1  0
 19 14  1  0
  4 20  1  0
  5 21  1  0
  6 22  1  0
  8 23  1  0
  9 24  1  0
 10 25  1  0
 15 26  1  0
 15 27  1  0
 16 28  1  0
 16 29  1  0
 17 30  1  0
 18 31  1  0
 18 32  1  0
 19 33  1  0
 19 34  1  0
M  ISO  8  20  14  21  14  22  14  23  14  24  14  25  14  26  13  27  13
M  ISO  7  28  13  29  13  30   5  31  13  32  13  33  13  34  13
M  END
>  <minimizedAffinity>  (1) 
-5.36608458

>  <minimizedRMSD>  (1) 
0.524724543

$$$$
