
     RDKit          3D

 46 49  0  0  1  0  0  0  0  0999 V2000
   48.0950   33.2150   41.8720 C   0  0  0  0  0  0  0  0  0  0  0  0
   48.3320   32.7660   40.5040 C   0  0  0  0  0  0  0  0  0  0  0  0
   49.4910   32.3340   40.1480 C   0  0  0  0  0  0  0  0  0  0  0  0
   49.7370   31.9080   38.8220 N   0  0  0  0  0  0  0  0  0  0  0  0
   50.2990   30.8900   37.9680 C   0  0  0  0  0  0  0  0  0  0  0  0
   51.2380   30.0440   38.0640 O   0  0  0  0  0  0  0  0  0  0  0  0
   49.2660   31.3250   36.9720 C   0  0  0  0  0  0  0  0  0  0  0  0
   49.3230   32.6860   37.6400 C   0  0  1  0  0  0  0  0  0  0  0  0
   47.7460   33.4630   37.9850 S   0  0  0  0  0  0  0  0  0  0  0  0
   47.1590   32.8510   39.5960 C   0  0  0  0  0  0  0  0  0  0  0  0
   50.5770   32.2780   41.1230 C   0  0  0  0  0  0  0  0  0  0  0  0
   51.7820   31.9540   40.8620 O   0  0  0  0  0  0  0  0  0  0  0  0
   51.3570   32.3210   42.2460 O   0  0  0  0  0  0  0  0  0  0  0  0
   47.0270   34.7130   41.8720 S   0  0  0  0  0  0  0  0  0  0  0  0
   44.5160   35.7180   44.8890 C   0  0  0  0  0  0  0  0  0  0  0  0
   45.1880   35.7250   43.6470 C   0  0  0  0  0  0  0  0  0  0  0  0
   46.1620   34.7330   43.4230 C   0  0  0  0  0  0  0  0  0  0  0  0
   46.4030   33.8280   44.4070 N   0  0  0  0  0  0  0  0  0  0  0  0
   45.7410   33.8630   45.5650 C   0  0  0  0  0  0  0  0  0  0  0  0
   44.8040   34.7960   45.8110 N   0  0  0  0  0  0  0  0  0  0  0  0
   46.0060   32.9030   46.5910 N   0  0  0  0  0  0  0  0  0  0  0  0
   45.1230   32.7040   47.7030 C   0  0  0  0  0  0  0  0  0  0  0  0
   45.8750   32.2800   48.9570 C   0  0  0  0  0  0  0  0  0  0  0  0
   46.6680   31.0140   48.7130 C   0  0  0  0  0  0  0  0  0  0  0  0
   46.8510   30.7600   47.2250 C   0  0  0  0  0  0  0  0  0  0  0  0
   47.1910   32.0690   46.5670 C   0  0  0  0  0  0  0  0  0  0  0  0
   47.5965   32.4132   42.4365 H   0  0  0  0  0  0  0  0  0  0  0  0
   49.0589   33.4610   42.3414 H   0  0  0  0  0  0  0  0  0  0  0  0
   48.2978   30.8096   37.0556 H   0  0  0  0  0  0  0  0  0  0  0  0
   49.4070   31.1980   35.8885 H   0  0  0  0  0  0  0  0  0  0  0  0
   49.8612   33.5234   37.1719 H   0  0  0  0  0  0  0  0  0  0  0  0
   46.4138   33.5455   40.0112 H   0  0  0  0  0  0  0  0  0  0  0  0
   46.6877   31.8635   39.4835 H   0  0  0  0  0  0  0  0  0  0  0  0
   52.3182   32.0906   42.1902 H   0  0  0  0  0  0  0  0  0  0  0  0
   43.7491   36.4782   45.0986 H   0  0  0  0  0  0  0  0  0  0  0  0
   44.9584   36.4798   42.8805 H   0  0  0  0  0  0  0  0  0  0  0  0
   44.5919   33.6452   47.9081 H   0  0  0  0  0  0  0  0  0  0  0  0
   44.4194   31.9005   47.4397 H   0  0  0  0  0  0  0  0  0  0  0  0
   46.5643   33.0848   49.2523 H   0  0  0  0  0  0  0  0  0  0  0  0
   45.1434   32.0864   49.7553 H   0  0  0  0  0  0  0  0  0  0  0  0
   47.6568   31.1131   49.1847 H   0  0  0  0  0  0  0  0  0  0  0  0
   46.1156   30.1672   49.1463 H   0  0  0  0  0  0  0  0  0  0  0  0
   47.6675   30.0400   47.0671 H   0  0  0  0  0  0  0  0  0  0  0  0
   45.9291   30.3438   46.7928 H   0  0  0  0  0  0  0  0  0  0  0  0
   47.5034   31.8940   45.5269 H   0  0  0  0  0  0  0  0  0  0  0  0
   48.0165   32.5623   47.1010 H   0  0  0  0  0  0  0  0  0  0  0  0
  2  1  1  0
  3  2  2  0
  3 11  1  0
  4  3  1  0
  5  6  2  0
  5  4  1  0
  7  8  1  0
  7  5  1  0
  8  9  1  0
  8  4  1  0
  9 10  1  0
 10  2  1  0
 11 13  1  0
 12 11  2  0
 14  1  1  0
 14 17  1  0
 15 20  2  0
 16 15  1  0
 17 16  2  0
 17 18  1  0
 18 19  2  0
 19 20  1  0
 19 21  1  0
 21 22  1  0
 22 23  1  0
 24 23  1  0
 25 24  1  0
 26 21  1  0
 26 25  1  0
  1 27  1  0
  1 28  1  0
  7 29  1  0
  7 30  1  0
  8 31  1  6
 10 32  1  0
 10 33  1  0
 13 34  1  0
 15 35  1  0
 16 36  1  0
 22 37  1  0
 22 38  1  0
 23 39  1  0
 23 40  1  0
 24 41  1  0
 24 42  1  0
 25 43  1  0
 25 44  1  0
 26 45  1  0
 26 46  1  0
M  ISO  8  27   8  28   8  29  13  30  13  31  13  32  13  33  13  34   3
M  ISO  8  35  14  36  14  37  13  38  13  39  13  40  13  41  13  42  13
M  ISO  4  43  13  44  13  45  13  46  13
M  END
>  <minimizedAffinity>  (1) 
-6.1443615

>  <minimizedRMSD>  (1) 
0.284443408

$$$$
