
     RDKit          3D

 20 20  0  0  0  0  0  0  0  0999 V2000
   44.5260   35.5060   45.2110 C   0  0  0  0  0  0  0  0  0  0  0  0
   44.8570   35.8730   43.9040 C   0  0  0  0  0  0  0  0  0  0  0  0
   45.8330   35.1190   43.2620 C   0  0  0  0  0  0  0  0  0  0  0  0
   46.4170   34.0710   43.9210 N   0  0  0  0  0  0  0  0  0  0  0  0
   46.0630   33.7530   45.1910 C   0  0  0  0  0  0  0  0  0  0  0  0
   45.1190   34.4810   45.8160 N   0  0  0  0  0  0  0  0  0  0  0  0
   46.7510   32.5990   45.8270 C   0  0  0  0  0  0  0  0  0  0  0  0
   46.1030   32.1520   47.0630 C   0  0  0  0  0  0  0  0  0  0  0  0
   46.1780   32.0270   48.3760 C   0  0  0  0  0  0  0  0  0  0  0  0
   45.2610   31.4800   49.4280 C   0  0  0  0  0  0  0  0  0  0  0  0
   43.7575   36.0779   45.7517 H   0  0  0  0  0  0  0  0  0  0  0  0
   44.3667   36.7217   43.4046 H   0  0  0  0  0  0  0  0  0  0  0  0
   46.1335   35.3628   42.2323 H   0  0  0  0  0  0  0  0  0  0  0  0
   46.7606   31.7612   45.1142 H   0  0  0  0  0  0  0  0  0  0  0  0
   47.7670   32.9281   46.0904 H   0  0  0  0  0  0  0  0  0  0  0  0
   45.1264   31.7402   46.7686 H   0  0  0  0  0  0  0  0  0  0  0  0
   47.1232   32.4092   48.7889 H   0  0  0  0  0  0  0  0  0  0  0  0
   45.6618   31.7191   50.4241 H   0  0  0  0  0  0  0  0  0  0  0  0
   44.2640   31.9311   49.3160 H   0  0  0  0  0  0  0  0  0  0  0  0
   45.1842   30.3884   49.3160 H   0  0  0  0  0  0  0  0  0  0  0  0
  1  6  2  0
  2  1  1  0
  3  2  2  0
  3  4  1  0
  4  5  2  0
  5  6  1  0
  5  7  1  0
  7  8  1  0
  8  9  2  0
  9 10  1  0
  1 11  1  0
  2 12  1  0
  3 13  1  0
  7 14  1  0
  7 15  1  0
  8 16  1  0
  9 17  1  0
 10 18  1  0
 10 19  1  0
 10 20  1  0
M  ISO  8  11  14  12  14  13  14  14   8  15   8  18   8  19   8  20   8
M  END
>  <minimizedAffinity>  (1) 
-3.76168084

>  <minimizedRMSD>  (1) 
1.98372293

$$$$
