
     RDKit          3D

 15 15  0  0  0  0  0  0  0  0999 V2000
   44.5040   36.0220   44.5050 C   0  0  0  0  0  0  0  0  0  0  0  0
   45.1520   35.9810   43.2730 C   0  0  0  0  0  0  0  0  0  0  0  0
   46.0630   34.9530   43.0720 C   0  0  0  0  0  0  0  0  0  0  0  0
   46.3010   34.0300   44.0500 N   0  0  0  0  0  0  0  0  0  0  0  0
   45.6330   34.1210   45.2430 C   0  0  0  0  0  0  0  0  0  0  0  0
   44.7470   35.1080   45.4590 N   0  0  0  0  0  0  0  0  0  0  0  0
   45.9410   33.0850   46.2630 C   0  0  0  0  0  0  0  0  0  0  0  0
   45.4640   31.8250   45.6760 N   0  0  0  0  0  0  0  0  0  0  0  0
   43.7754   36.8223   44.7017 H   0  0  0  0  0  0  0  0  0  0  0  0
   44.9508   36.7304   42.4933 H   0  0  0  0  0  0  0  0  0  0  0  0
   46.5992   34.8811   42.1142 H   0  0  0  0  0  0  0  0  0  0  0  0
   47.0235   33.0384   46.4530 H   0  0  0  0  0  0  0  0  0  0  0  0
   45.4622   33.2996   47.2298 H   0  0  0  0  0  0  0  0  0  0  0  0
   45.2152   31.1679   46.4291 H   0  0  0  0  0  0  0  0  0  0  0  0
   44.6347   32.0098   45.0937 H   0  0  0  0  0  0  0  0  0  0  0  0
  1  6  2  0
  2  1  1  0
  3  2  2  0
  3  4  1  0
  4  5  2  0
  5  6  1  0
  5  7  1  0
  8  7  1  0
  1  9  1  0
  2 10  1  0
  3 11  1  0
  7 12  1  0
  7 13  1  0
  8 14  1  0
  8 15  1  0
M  ISO  7   9  14  10  14  11  14  12   8  13   8  14   5  15   5
M  END
>  <minimizedAffinity>  (1) 
-3.23268652

>  <minimizedRMSD>  (1) 
0.189672112

$$$$
