
     RDKit          3D

 31 32  0  0  0  0  0  0  0  0999 V2000
   46.9420   33.6800   44.1970 C   0  0  0  0  0  0  0  0  0  0  0  0
   46.2080   33.7470   45.3650 C   0  0  0  0  0  0  0  0  0  0  0  0
   45.1220   34.6030   45.3730 C   0  0  0  0  0  0  0  0  0  0  0  0
   44.7330   35.3900   44.2870 C   0  0  0  0  0  0  0  0  0  0  0  0
   45.4940   35.2960   43.1300 C   0  0  0  0  0  0  0  0  0  0  0  0
   46.5750   34.4490   43.1090 C   0  0  0  0  0  0  0  0  0  0  0  0
   46.5220   32.9640   46.5790 C   0  0  0  0  0  0  0  0  0  0  0  0
   45.3090   29.6480   45.4100 C   0  0  0  0  0  0  0  0  0  0  0  0
   44.7780   29.1130   46.5850 C   0  0  0  0  0  0  0  0  0  0  0  0
   44.8490   29.8930   47.7320 C   0  0  0  0  0  0  0  0  0  0  0  0
   45.4190   31.1270   47.6850 N   0  0  0  0  0  0  0  0  0  0  0  0
   45.9260   31.6110   46.5150 C   0  0  0  0  0  0  0  0  0  0  0  0
   45.8590   30.8620   45.4050 N   0  0  0  0  0  0  0  0  0  0  0  0
   48.0380   32.8340   44.1480 O   0  0  0  0  0  0  0  0  0  0  0  0
   47.3320   34.3560   41.9580 O   0  0  0  0  0  0  0  0  0  0  0  0
   48.1790   35.3520   41.4750 C   0  0  0  0  0  0  0  0  0  0  0  0
   49.5240   35.2940   42.1980 C   0  0  0  0  0  0  0  0  0  0  0  0
   44.5256   34.6683   46.2950 H   0  0  0  0  0  0  0  0  0  0  0  0
   43.8600   36.0566   44.3460 H   0  0  0  0  0  0  0  0  0  0  0  0
   45.2349   35.8916   42.2422 H   0  0  0  0  0  0  0  0  0  0  0  0
   47.6140   32.8705   46.6726 H   0  0  0  0  0  0  0  0  0  0  0  0
   46.1004   33.4884   47.4492 H   0  0  0  0  0  0  0  0  0  0  0  0
   45.2731   29.0622   44.4797 H   0  0  0  0  0  0  0  0  0  0  0  0
   44.3211   28.1125   46.6018 H   0  0  0  0  0  0  0  0  0  0  0  0
   44.4433   29.5118   48.6807 H   0  0  0  0  0  0  0  0  0  0  0  0
   48.5779   32.7708   43.3206 H   0  0  0  0  0  0  0  0  0  0  0  0
   48.3387   35.2025   40.3970 H   0  0  0  0  0  0  0  0  0  0  0  0
   47.7171   36.3345   41.6523 H   0  0  0  0  0  0  0  0  0  0  0  0
   49.3565   35.3012   43.2851 H   0  0  0  0  0  0  0  0  0  0  0  0
   50.0532   34.3722   41.9146 H   0  0  0  0  0  0  0  0  0  0  0  0
   50.1305   36.1668   41.9146 H   0  0  0  0  0  0  0  0  0  0  0  0
  1  2  2  0
  2  3  1  0
  2  7  1  0
  4  3  2  0
  5  4  1  0
  6  5  2  0
  6  1  1  0
  8  9  2  0
  9 10  1  0
 11 10  2  0
 12  7  1  0
 12 11  1  0
 13  8  1  0
 13 12  2  0
 14  1  1  0
 15  6  1  0
 16 15  1  0
 16 17  1  0
  3 18  1  0
  4 19  1  0
  5 20  1  0
  7 21  1  0
  7 22  1  0
  8 23  1  0
  9 24  1  0
 10 25  1  0
 14 26  1  0
 16 27  1  0
 16 28  1  0
 17 29  1  0
 17 30  1  0
 17 31  1  0
M  ISO  8  18  14  19  14  20  14  21   8  22   8  23  14  24  14  25  14
M  ISO  6  26   3  27   8  28   8  29   8  30   8  31   8
M  END
>  <minimizedAffinity>  (1) 
-4.67331743

>  <minimizedRMSD>  (1) 
5.98740911

$$$$
