
     RDKit          3D

 38 41  0  0  1  0  0  0  0  0999 V2000
   47.9520   32.9870   41.7750 C   0  0  0  0  0  0  0  0  0  0  0  0
   48.3000   32.5790   40.4280 C   0  0  0  0  0  0  0  0  0  0  0  0
   49.5180   32.2790   40.1240 C   0  0  0  0  0  0  0  0  0  0  0  0
   49.8670   31.8840   38.8160 N   0  0  0  0  0  0  0  0  0  0  0  0
   50.5770   30.9470   37.9730 C   0  0  0  0  0  0  0  0  0  0  0  0
   51.6030   30.2220   38.1050 O   0  0  0  0  0  0  0  0  0  0  0  0
   49.5270   31.2680   36.9390 C   0  0  0  0  0  0  0  0  0  0  0  0
   49.4100   32.6190   37.6150 C   0  0  1  0  0  0  0  0  0  0  0  0
   47.7550   33.2260   37.8910 S   0  0  0  0  0  0  0  0  0  0  0  0
   47.1720   32.5410   39.4750 C   0  0  0  0  0  0  0  0  0  0  0  0
   50.5650   32.3480   41.1540 C   0  0  0  0  0  0  0  0  0  0  0  0
   51.7710   31.9810   40.9690 O   0  0  0  0  0  0  0  0  0  0  0  0
   51.2930   32.5290   42.2770 O   0  0  0  0  0  0  0  0  0  0  0  0
   47.0500   34.5910   41.7500 S   0  0  0  0  0  0  0  0  0  0  0  0
   44.5140   35.8110   44.6670 C   0  0  0  0  0  0  0  0  0  0  0  0
   45.1960   35.7330   43.4300 C   0  0  0  0  0  0  0  0  0  0  0  0
   46.1680   34.7290   43.2760 C   0  0  0  0  0  0  0  0  0  0  0  0
   46.3830   33.9080   44.3170 N   0  0  0  0  0  0  0  0  0  0  0  0
   45.7270   33.9930   45.4850 C   0  0  0  0  0  0  0  0  0  0  0  0
   44.7870   34.9500   45.6610 N   0  0  0  0  0  0  0  0  0  0  0  0
   45.9650   33.0970   46.6140 C   0  0  0  0  0  0  0  0  0  0  0  0
   47.0220   32.2490   46.8980 C   0  0  0  0  0  0  0  0  0  0  0  0
   46.6660   31.6640   48.1160 C   0  0  0  0  0  0  0  0  0  0  0  0
   45.4440   32.1730   48.4990 C   0  0  0  0  0  0  0  0  0  0  0  0
   45.0580   33.0210   47.5850 O   0  0  0  0  0  0  0  0  0  0  0  0
   47.3112   32.2184   42.2318 H   0  0  0  0  0  0  0  0  0  0  0  0
   48.8757   33.1074   42.3600 H   0  0  0  0  0  0  0  0  0  0  0  0
   48.6218   30.6451   36.9897 H   0  0  0  0  0  0  0  0  0  0  0  0
   49.7139   31.1649   35.8599 H   0  0  0  0  0  0  0  0  0  0  0  0
   49.8722   33.5132   37.1714 H   0  0  0  0  0  0  0  0  0  0  0  0
   46.3374   33.1458   39.8593 H   0  0  0  0  0  0  0  0  0  0  0  0
   46.8192   31.5080   39.3394 H   0  0  0  0  0  0  0  0  0  0  0  0
   52.2530   32.2874   42.2889 H   0  0  0  0  0  0  0  0  0  0  0  0
   43.7495   36.5876   44.8168 H   0  0  0  0  0  0  0  0  0  0  0  0
   44.9727   36.4361   42.6140 H   0  0  0  0  0  0  0  0  0  0  0  0
   47.9309   32.0760   46.3030 H   0  0  0  0  0  0  0  0  0  0  0  0
   47.2593   30.9242   48.6734 H   0  0  0  0  0  0  0  0  0  0  0  0
   44.8915   31.9109   49.4134 H   0  0  0  0  0  0  0  0  0  0  0  0
  2  1  1  0
  3  2  2  0
  3 11  1  0
  4  3  1  0
  5  6  2  0
  5  4  1  0
  7  8  1  0
  7  5  1  0
  8  9  1  0
  8  4  1  0
  9 10  1  0
 10  2  1  0
 11 13  1  0
 12 11  2  0
 14  1  1  0
 14 17  1  0
 15 20  2  0
 16 15  1  0
 17 16  2  0
 17 18  1  0
 18 19  2  0
 19 20  1  0
 19 21  1  0
 21 22  2  0
 21 25  1  0
 22 23  1  0
 23 24  2  0
 25 24  1  0
  1 26  1  0
  1 27  1  0
  7 28  1  0
  7 29  1  0
  8 30  1  6
 10 31  1  0
 10 32  1  0
 13 33  1  0
 15 34  1  0
 16 35  1  0
 22 36  1  0
 23 37  1  0
 24 38  1  0
M  ISO  8  26   8  27   8  28  13  29  13  30  13  31  13  32  13  33   3
M  ISO  5  34  14  35  14  36  14  37  14  38  14
M  END
>  <minimizedAffinity>  (1) 
-5.72229624

>  <minimizedRMSD>  (1) 
0.331440121

$$$$
