
     RDKit          3D

 37 39  0  0  0  0  0  0  0  0999 V2000
   43.7390   35.3140   42.4110 C   0  0  0  0  0  0  0  0  0  0  0  0
   42.6910   35.1150   41.5570 C   0  0  0  0  0  0  0  0  0  0  0  0
   42.9510   34.5100   40.3400 C   0  0  0  0  0  0  0  0  0  0  0  0
   44.2080   34.0880   39.9200 C   0  0  0  0  0  0  0  0  0  0  0  0
   45.2610   34.3020   40.8080 C   0  0  0  0  0  0  0  0  0  0  0  0
   45.0080   34.9090   42.0340 C   0  0  0  0  0  0  0  0  0  0  0  0
   41.3100   35.5170   41.8840 C   0  0  0  0  0  0  0  0  0  0  0  0
   39.1130   32.6100   41.2000 C   0  0  0  0  0  0  0  0  0  0  0  0
   38.4080   33.0580   40.0700 C   0  0  0  0  0  0  0  0  0  0  0  0
   38.6960   34.3180   39.5810 C   0  0  0  0  0  0  0  0  0  0  0  0
   39.6340   35.0570   40.2030 N   0  0  0  0  0  0  0  0  0  0  0  0
   40.3070   34.6160   41.2900 C   0  0  0  0  0  0  0  0  0  0  0  0
   40.0340   33.4020   41.7680 N   0  0  0  0  0  0  0  0  0  0  0  0
   43.5390   35.9060   43.6260 O   0  0  0  0  0  0  0  0  0  0  0  0
   46.0790   35.1040   42.8900 O   0  0  0  0  0  0  0  0  0  0  0  0
   47.0500   34.1290   42.9530 C   0  0  0  0  0  0  0  0  0  0  0  0
   46.7220   32.9380   43.5760 C   0  0  0  0  0  0  0  0  0  0  0  0
   47.6980   31.9460   43.6460 C   0  0  0  0  0  0  0  0  0  0  0  0
   48.9670   32.1230   43.1140 C   0  0  0  0  0  0  0  0  0  0  0  0
   49.2450   33.3470   42.4960 C   0  0  0  0  0  0  0  0  0  0  0  0
   48.2960   34.3380   42.4170 C   0  0  0  0  0  0  0  0  0  0  0  0
   48.6580   35.5880   41.7570 C   0  0  0  0  0  0  0  0  0  0  0  0
   48.7820   35.6870   40.5070 O   0  0  0  0  0  0  0  0  0  0  0  0
   42.1038   34.3516   39.6565 H   0  0  0  0  0  0  0  0  0  0  0  0
   44.3627   33.6115   38.9407 H   0  0  0  0  0  0  0  0  0  0  0  0
   46.2828   33.9937   40.5418 H   0  0  0  0  0  0  0  0  0  0  0  0
   41.1891   35.5084   42.9773 H   0  0  0  0  0  0  0  0  0  0  0  0
   41.1460   36.5221   41.4681 H   0  0  0  0  0  0  0  0  0  0  0  0
   38.9100   31.6127   41.6173 H   0  0  0  0  0  0  0  0  0  0  0  0
   37.6488   32.4241   39.5886 H   0  0  0  0  0  0  0  0  0  0  0  0
   38.1683   34.7103   38.6992 H   0  0  0  0  0  0  0  0  0  0  0  0
   44.3030   36.0470   44.2397 H   0  0  0  0  0  0  0  0  0  0  0  0
   45.7209   32.7790   44.0032 H   0  0  0  0  0  0  0  0  0  0  0  0
   47.4548   30.9929   44.1384 H   0  0  0  0  0  0  0  0  0  0  0  0
   49.7268   31.3300   43.1758 H   0  0  0  0  0  0  0  0  0  0  0  0
   50.2423   33.5195   42.0651 H   0  0  0  0  0  0  0  0  0  0  0  0
   48.8297   36.4808   42.3763 H   0  0  0  0  0  0  0  0  0  0  0  0
  1 14  1  0
  2  7  1  0
  2  1  2  0
  3  2  1  0
  4  3  2  0
  4  5  1  0
  5  6  2  0
  6  1  1  0
  6 15  1  0
  8 13  2  0
  9  8  1  0
 10  9  2  0
 10 11  1  0
 11 12  2  0
 12 13  1  0
 12  7  1  0
 15 16  1  0
 16 17  2  0
 17 18  1  0
 19 18  2  0
 20 19  1  0
 21 20  2  0
 21 16  1  0
 22 21  1  0
 23 22  2  0
  3 24  1  0
  4 25  1  0
  5 26  1  0
  7 27  1  0
  7 28  1  0
  8 29  1  0
  9 30  1  0
 10 31  1  0
 14 32  1  0
 17 33  1  0
 18 34  1  0
 19 35  1  0
 20 36  1  0
 22 37  1  0
M  ISO  8  24  14  25  14  26  14  27   8  28   8  29  14  30  14  31  14
M  ISO  6  32   3  33  14  34  14  35  14  36  14  37   6
M  END
>  <minimizedAffinity>  (1) 
-6.1627779

>  <minimizedRMSD>  (1) 
1.23740888

$$$$
