
     RDKit          3D

 38 41  0  0  1  0  0  0  0  0999 V2000
   47.8540   32.5030   42.1060 C   0  0  0  0  0  0  0  0  0  0  0  0
   48.4490   32.0800   40.8480 C   0  0  0  0  0  0  0  0  0  0  0  0
   49.7200   32.1560   40.6620 C   0  0  0  0  0  0  0  0  0  0  0  0
   50.3200   31.7440   39.4610 N   0  0  0  0  0  0  0  0  0  0  0  0
   51.3760   31.0020   38.8090 C   0  0  0  0  0  0  0  0  0  0  0  0
   52.5700   30.6790   39.1220 O   0  0  0  0  0  0  0  0  0  0  0  0
   50.4080   30.8330   37.6770 C   0  0  0  0  0  0  0  0  0  0  0  0
   49.7890   32.1330   38.1350 C   0  0  1  0  0  0  0  0  0  0  0  0
   48.0030   32.2100   38.2110 S   0  0  0  0  0  0  0  0  0  0  0  0
   47.4960   31.5690   39.8240 C   0  0  0  0  0  0  0  0  0  0  0  0
   50.5770   32.6880   41.7290 C   0  0  0  0  0  0  0  0  0  0  0  0
   51.2430   31.9850   42.5490 O   0  0  0  0  0  0  0  0  0  0  0  0
   51.2700   33.4760   42.5970 O   0  0  0  0  0  0  0  0  0  0  0  0
   47.0050   34.1280   41.8960 S   0  0  0  0  0  0  0  0  0  0  0  0
   44.5190   35.7210   44.6750 C   0  0  0  0  0  0  0  0  0  0  0  0
   45.1940   35.5010   43.4380 C   0  0  0  0  0  0  0  0  0  0  0  0
   46.1360   34.4400   43.4220 C   0  0  0  0  0  0  0  0  0  0  0  0
   46.3390   33.7150   44.5520 N   0  0  0  0  0  0  0  0  0  0  0  0
   45.6790   33.9650   45.6830 C   0  0  0  0  0  0  0  0  0  0  0  0
   44.7640   34.9690   45.7540 N   0  0  0  0  0  0  0  0  0  0  0  0
   46.0250   33.0850   46.7940 C   0  0  0  0  0  0  0  0  0  0  0  0
   45.0760   32.8460   47.7770 C   0  0  0  0  0  0  0  0  0  0  0  0
   45.6690   31.9880   48.6930 C   0  0  0  0  0  0  0  0  0  0  0  0
   46.9330   31.7320   48.2570 N   0  0  0  0  0  0  0  0  0  0  0  0
   47.1310   32.3910   47.1270 N   0  0  0  0  0  0  0  0  0  0  0  0
   47.1216   31.7501   42.4327 H   0  0  0  0  0  0  0  0  0  0  0  0
   48.6474   32.6078   42.8606 H   0  0  0  0  0  0  0  0  0  0  0  0
   49.7512   29.9543   37.7572 H   0  0  0  0  0  0  0  0  0  0  0  0
   50.7389   30.6732   36.6402 H   0  0  0  0  0  0  0  0  0  0  0  0
   49.9874   33.0657   37.5866 H   0  0  0  0  0  0  0  0  0  0  0  0
   46.4778   31.9132   40.0582 H   0  0  0  0  0  0  0  0  0  0  0  0
   47.5018   30.4691   39.8148 H   0  0  0  0  0  0  0  0  0  0  0  0
   51.8389   33.0632   43.2942 H   0  0  0  0  0  0  0  0  0  0  0  0
   43.7773   36.5304   44.7437 H   0  0  0  0  0  0  0  0  0  0  0  0
   44.9960   36.1175   42.5488 H   0  0  0  0  0  0  0  0  0  0  0  0
   44.0559   33.2552   47.8218 H   0  0  0  0  0  0  0  0  0  0  0  0
   45.2025   31.5877   49.6052 H   0  0  0  0  0  0  0  0  0  0  0  0
   47.6203   31.1265   48.7281 H   0  0  0  0  0  0  0  0  0  0  0  0
  2  1  1  0
  3  2  2  0
  3 11  1  0
  4  3  1  0
  5  6  2  0
  5  4  1  0
  7  8  1  0
  7  5  1  0
  8  9  1  0
  8  4  1  0
  9 10  1  0
 10  2  1  0
 11 12  2  0
 11 13  1  0
 14  1  1  0
 14 17  1  0
 15 20  2  0
 16 15  1  0
 17 16  2  0
 17 18  1  0
 18 19  2  0
 19 20  1  0
 19 21  1  0
 21 25  2  0
 21 22  1  0
 22 23  2  0
 24 23  1  0
 25 24  1  0
  1 26  1  0
  1 27  1  0
  7 28  1  0
  7 29  1  0
  8 30  1  6
 10 31  1  0
 10 32  1  0
 13 33  1  0
 15 34  1  0
 16 35  1  0
 22 36  1  0
 23 37  1  0
 24 38  1  0
M  ISO  8  26   8  27   8  28  13  29  13  30  13  31  13  32  13  33   3
M  ISO  5  34  14  35  14  36  14  37  14  38   9
M  END
>  <minimizedAffinity>  (1) 
-5.62962818

>  <minimizedRMSD>  (1) 
0.847390175

$$$$
