
     RDKit          3D

 41 43  0  0  0  0  0  0  0  0999 V2000
   42.9790   34.1820   40.6460 C   0  0  0  0  0  0  0  0  0  0  0  0
   42.6370   34.5230   39.3470 C   0  0  0  0  0  0  0  0  0  0  0  0
   43.3870   34.0280   38.3240 C   0  0  0  0  0  0  0  0  0  0  0  0
   44.4980   33.1830   38.4850 C   0  0  0  0  0  0  0  0  0  0  0  0
   44.8190   32.8560   39.8100 C   0  0  0  0  0  0  0  0  0  0  0  0
   44.0610   33.3570   40.8600 C   0  0  0  0  0  0  0  0  0  0  0  0
   41.4890   35.4050   39.0420 C   0  0  0  0  0  0  0  0  0  0  0  0
   38.3730   33.5810   39.8830 C   0  0  0  0  0  0  0  0  0  0  0  0
   37.8790   33.2640   38.6140 C   0  0  0  0  0  0  0  0  0  0  0  0
   38.6110   33.6750   37.5200 C   0  0  0  0  0  0  0  0  0  0  0  0
   39.7580   34.3560   37.7160 N   0  0  0  0  0  0  0  0  0  0  0  0
   40.2200   34.6540   38.9510 C   0  0  0  0  0  0  0  0  0  0  0  0
   39.5180   34.2600   40.0110 N   0  0  0  0  0  0  0  0  0  0  0  0
   42.2590   34.6540   41.7050 O   0  0  0  0  0  0  0  0  0  0  0  0
   44.4340   32.9940   42.1260 O   0  0  0  0  0  0  0  0  0  0  0  0
   45.7650   33.0690   42.4680 C   0  0  0  0  0  0  0  0  0  0  0  0
   46.4740   31.8850   42.3830 C   0  0  0  0  0  0  0  0  0  0  0  0
   47.8180   31.8740   42.7110 C   0  0  0  0  0  0  0  0  0  0  0  0
   48.4540   33.0520   43.1250 C   0  0  0  0  0  0  0  0  0  0  0  0
   47.6990   34.2060   43.1920 C   0  0  0  0  0  0  0  0  0  0  0  0
   46.3630   34.2550   42.8750 C   0  0  0  0  0  0  0  0  0  0  0  0
   45.5330   35.3400   42.9080 O   0  0  0  0  0  0  0  0  0  0  0  0
   44.9220   35.1990   45.5210 O   0  0  0  0  0  0  0  0  0  0  0  0
   44.6740   35.9350   44.2330 P   0  0  0  0  0  0  0  0  0  0  0  0
   45.0090   37.5830   44.5400 O   0  0  0  0  0  0  0  0  0  0  0  0
   42.9850   35.8540   43.9710 O   0  0  0  0  0  0  0  0  0  0  0  0
   43.1031   34.3095   37.2992 H   0  0  0  0  0  0  0  0  0  0  0  0
   45.0765   32.8039   37.6297 H   0  0  0  0  0  0  0  0  0  0  0  0
   45.6761   32.1989   40.0189 H   0  0  0  0  0  0  0  0  0  0  0  0
   41.3990   36.1583   39.8385 H   0  0  0  0  0  0  0  0  0  0  0  0
   41.6742   35.8767   38.0657 H   0  0  0  0  0  0  0  0  0  0  0  0
   37.8173   33.2705   40.7801 H   0  0  0  0  0  0  0  0  0  0  0  0
   36.9389   32.7060   38.4925 H   0  0  0  0  0  0  0  0  0  0  0  0
   38.2637   33.4502   36.5008 H   0  0  0  0  0  0  0  0  0  0  0  0
   41.4815   35.2469   41.5500 H   0  0  0  0  0  0  0  0  0  0  0  0
   45.9742   30.9607   42.0577 H   0  0  0  0  0  0  0  0  0  0  0  0
   48.3898   30.9365   42.6465 H   0  0  0  0  0  0  0  0  0  0  0  0
   49.5220   33.0572   43.3885 H   0  0  0  0  0  0  0  0  0  0  0  0
   48.1926   35.1341   43.5159 H   0  0  0  0  0  0  0  0  0  0  0  0
   45.0403   37.7369   45.5175 H   0  0  0  0  0  0  0  0  0  0  0  0
   42.5165   35.8315   44.8428 H   0  0  0  0  0  0  0  0  0  0  0  0
  1  6  2  0
  1 14  1  0
  2  1  1  0
  3  4  1  0
  3  2  2  0
  4  5  2  0
  5  6  1  0
  6 15  1  0
  7  2  1  0
  8 13  2  0
  9  8  1  0
 10 11  1  0
 10  9  2  0
 11 12  2  0
 12  7  1  0
 12 13  1  0
 15 16  1  0
 16 21  1  0
 17 16  2  0
 17 18  1  0
 18 19  2  0
 19 20  1  0
 21 22  1  0
 21 20  2  0
 22 24  1  0
 24 25  1  0
 24 23  2  0
 26 24  1  0
  3 27  1  0
  4 28  1  0
  5 29  1  0
  7 30  1  0
  7 31  1  0
  8 32  1  0
  9 33  1  0
 10 34  1  0
 14 35  1  0
 17 36  1  0
 18 37  1  0
 19 38  1  0
 20 39  1  0
 25 40  1  0
 26 41  1  0
M  ISO  8  27  14  28  14  29  14  30   8  31   8  32  14  33  14  34  14
M  ISO  7  35   3  36  14  37  14  38  14  39  14  40   3  41   3
M  END
>  <minimizedAffinity>  (1) 
-6.15700865

>  <minimizedRMSD>  (1) 
2.18207002

$$$$
