
     RDKit          3D

 36 38  0  0  0  0  0  0  0  0999 V2000
   43.8350   35.3480   42.4420 C   0  0  0  0  0  0  0  0  0  0  0  0
   42.7820   35.1340   41.5800 C   0  0  0  0  0  0  0  0  0  0  0  0
   43.0320   34.5120   40.3850 C   0  0  0  0  0  0  0  0  0  0  0  0
   44.2840   34.0740   39.9730 C   0  0  0  0  0  0  0  0  0  0  0  0
   45.3390   34.3040   40.8700 C   0  0  0  0  0  0  0  0  0  0  0  0
   45.0930   34.9310   42.0760 C   0  0  0  0  0  0  0  0  0  0  0  0
   41.4030   35.5580   41.9130 C   0  0  0  0  0  0  0  0  0  0  0  0
   39.1790   32.6890   41.1940 C   0  0  0  0  0  0  0  0  0  0  0  0
   38.4720   33.1540   40.0770 C   0  0  0  0  0  0  0  0  0  0  0  0
   38.7670   34.4180   39.6030 C   0  0  0  0  0  0  0  0  0  0  0  0
   39.7120   35.1450   40.2250 N   0  0  0  0  0  0  0  0  0  0  0  0
   40.3880   34.6810   41.3060 C   0  0  0  0  0  0  0  0  0  0  0  0
   40.1020   33.4630   41.7620 N   0  0  0  0  0  0  0  0  0  0  0  0
   43.6390   35.9640   43.6460 O   0  0  0  0  0  0  0  0  0  0  0  0
   46.1660   35.1300   42.9170 O   0  0  0  0  0  0  0  0  0  0  0  0
   47.2430   34.2630   42.8170 C   0  0  0  0  0  0  0  0  0  0  0  0
   47.0380   32.9980   43.3840 C   0  0  0  0  0  0  0  0  0  0  0  0
   48.0810   32.0810   43.3180 C   0  0  0  0  0  0  0  0  0  0  0  0
   49.2920   32.4020   42.7090 C   0  0  0  0  0  0  0  0  0  0  0  0
   49.4210   33.6810   42.1660 C   0  0  0  0  0  0  0  0  0  0  0  0
   48.4210   34.6300   42.2040 C   0  0  0  0  0  0  0  0  0  0  0  0
   48.5780   35.8820   41.6610 O   0  0  0  0  0  0  0  0  0  0  0  0
   42.1828   34.3483   39.7052 H   0  0  0  0  0  0  0  0  0  0  0  0
   44.4393   33.5776   39.0037 H   0  0  0  0  0  0  0  0  0  0  0  0
   46.3600   33.9854   40.6129 H   0  0  0  0  0  0  0  0  0  0  0  0
   41.2806   35.5375   43.0060 H   0  0  0  0  0  0  0  0  0  0  0  0
   41.2559   36.5716   41.5119 H   0  0  0  0  0  0  0  0  0  0  0  0
   38.9723   31.6879   41.6003 H   0  0  0  0  0  0  0  0  0  0  0  0
   37.7054   32.5316   39.5922 H   0  0  0  0  0  0  0  0  0  0  0  0
   38.2363   34.8239   38.7291 H   0  0  0  0  0  0  0  0  0  0  0  0
   44.4040   36.1120   44.2567 H   0  0  0  0  0  0  0  0  0  0  0  0
   46.0834   32.7391   43.8654 H   0  0  0  0  0  0  0  0  0  0  0  0
   47.9471   31.0809   43.7560 H   0  0  0  0  0  0  0  0  0  0  0  0
   50.1156   31.6746   42.6580 H   0  0  0  0  0  0  0  0  0  0  0  0
   50.3720   33.9467   41.6813 H   0  0  0  0  0  0  0  0  0  0  0  0
   47.8378   36.5379   41.7070 H   0  0  0  0  0  0  0  0  0  0  0  0
  1 14  1  0
  2  7  1  0
  2  1  2  0
  3  2  1  0
  4  3  2  0
  4  5  1  0
  5  6  2  0
  6  1  1  0
  6 15  1  0
  8 13  2  0
  9  8  1  0
 10  9  2  0
 10 11  1  0
 11 12  2  0
 12 13  1  0
 12  7  1  0
 16 15  1  0
 16 17  2  0
 18 17  1  0
 19 18  2  0
 20 21  2  0
 20 19  1  0
 21 16  1  0
 22 21  1  0
  3 23  1  0
  4 24  1  0
  5 25  1  0
  7 26  1  0
  7 27  1  0
  8 28  1  0
  9 29  1  0
 10 30  1  0
 14 31  1  0
 17 32  1  0
 18 33  1  0
 19 34  1  0
 20 35  1  0
 22 36  1  0
M  ISO  8  23  14  24  14  25  14  26   8  27   8  28  14  29  14  30  14
M  ISO  6  31   3  32  14  33  14  34  14  35  14  36   3
M  END
>  <minimizedAffinity>  (1) 
-6.15184927

>  <minimizedRMSD>  (1) 
0.91855973

$$$$
