
     RDKit          3D

 51 54  0  0  0  0  0  0  0  0999 V2000
   43.2000   33.8630   40.7960 C   0  0  0  0  0  0  0  0  0  0  0  0
   42.8010   34.3840   39.5970 C   0  0  0  0  0  0  0  0  0  0  0  0
   43.4950   34.0170   38.4780 C   0  0  0  0  0  0  0  0  0  0  0  0
   44.5780   33.1520   38.4790 C   0  0  0  0  0  0  0  0  0  0  0  0
   44.9720   32.6300   39.7010 C   0  0  0  0  0  0  0  0  0  0  0  0
   44.2680   33.0000   40.8520 C   0  0  0  0  0  0  0  0  0  0  0  0
   41.6520   35.3190   39.4960 C   0  0  0  0  0  0  0  0  0  0  0  0
   38.5270   33.4100   39.9870 C   0  0  0  0  0  0  0  0  0  0  0  0
   38.0310   33.3210   38.6790 C   0  0  0  0  0  0  0  0  0  0  0  0
   38.7790   33.9150   37.6770 C   0  0  0  0  0  0  0  0  0  0  0  0
   39.9330   34.5440   37.9870 N   0  0  0  0  0  0  0  0  0  0  0  0
   40.3860   34.6130   39.2580 C   0  0  0  0  0  0  0  0  0  0  0  0
   39.6760   34.0450   40.2340 N   0  0  0  0  0  0  0  0  0  0  0  0
   42.5410   34.1930   41.9630 O   0  0  0  0  0  0  0  0  0  0  0  0
   44.6910   32.4630   42.0530 O   0  0  0  0  0  0  0  0  0  0  0  0
   46.0250   32.1010   42.1780 C   0  0  0  0  0  0  0  0  0  0  0  0
   46.3820   30.9280   41.5030 C   0  0  0  0  0  0  0  0  0  0  0  0
   47.6950   30.5150   41.5880 C   0  0  0  0  0  0  0  0  0  0  0  0
   48.6360   31.2350   42.3180 C   0  0  0  0  0  0  0  0  0  0  0  0
   48.2060   32.3800   42.9570 C   0  0  0  0  0  0  0  0  0  0  0  0
   46.9070   32.8690   42.9260 C   0  0  0  0  0  0  0  0  0  0  0  0
   46.5180   34.0770   43.6340 C   0  0  0  0  0  0  0  0  0  0  0  0
   46.3810   35.2860   42.7300 C   0  0  0  0  0  0  0  0  0  0  0  0
   45.1000   36.0310   42.9360 C   0  0  0  0  0  0  0  0  0  0  0  0
   44.5960   36.1310   44.3220 C   0  0  0  0  0  0  0  0  0  0  0  0
   44.9880   35.0120   45.2410 C   0  0  0  0  0  0  0  0  0  0  0  0
   45.1910   33.7900   44.3450 C   0  0  0  0  0  0  0  0  0  0  0  0
   43.1728   34.4357   37.5132 H   0  0  0  0  0  0  0  0  0  0  0  0
   45.1031   32.8906   37.5484 H   0  0  0  0  0  0  0  0  0  0  0  0
   45.8236   31.9367   39.7648 H   0  0  0  0  0  0  0  0  0  0  0  0
   41.5715   35.8852   40.4357 H   0  0  0  0  0  0  0  0  0  0  0  0
   41.8331   35.9881   38.6419 H   0  0  0  0  0  0  0  0  0  0  0  0
   37.9661   32.9537   40.8160 H   0  0  0  0  0  0  0  0  0  0  0  0
   37.0872   32.8011   38.4581 H   0  0  0  0  0  0  0  0  0  0  0  0
   38.4349   33.8748   36.6330 H   0  0  0  0  0  0  0  0  0  0  0  0
   41.7700   34.8135   41.9376 H   0  0  0  0  0  0  0  0  0  0  0  0
   45.6414   30.3557   40.9251 H   0  0  0  0  0  0  0  0  0  0  0  0
   48.0052   29.5968   41.0677 H   0  0  0  0  0  0  0  0  0  0  0  0
   49.6830   30.9039   42.3832 H   0  0  0  0  0  0  0  0  0  0  0  0
   48.9492   32.9487   43.5351 H   0  0  0  0  0  0  0  0  0  0  0  0
   47.3133   34.3322   44.3498 H   0  0  0  0  0  0  0  0  0  0  0  0
   46.4250   34.9479   41.6842 H   0  0  0  0  0  0  0  0  0  0  0  0
   47.2035   35.9739   42.9755 H   0  0  0  0  0  0  0  0  0  0  0  0
   45.2481   37.0549   42.5623 H   0  0  0  0  0  0  0  0  0  0  0  0
   44.3400   35.4456   42.3978 H   0  0  0  0  0  0  0  0  0  0  0  0
   44.9752   37.0697   44.7522 H   0  0  0  0  0  0  0  0  0  0  0  0
   43.4996   36.0849   44.2455 H   0  0  0  0  0  0  0  0  0  0  0  0
   45.9207   35.2589   45.7694 H   0  0  0  0  0  0  0  0  0  0  0  0
   44.2204   34.8294   46.0075 H   0  0  0  0  0  0  0  0  0  0  0  0
   44.3698   33.6949   43.6194 H   0  0  0  0  0  0  0  0  0  0  0  0
   45.2052   32.8457   44.9089 H   0  0  0  0  0  0  0  0  0  0  0  0
  1  6  2  0
  1 14  1  0
  2  1  1  0
  3  4  1  0
  3  2  2  0
  4  5  2  0
  5  6  1  0
  6 15  1  0
  7  2  1  0
  8 13  2  0
  9  8  1  0
 10 11  1  0
 10  9  2  0
 11 12  2  0
 12  7  1  0
 12 13  1  0
 15 16  1  0
 16 21  2  0
 17 18  2  0
 17 16  1  0
 18 19  1  0
 19 20  2  0
 21 20  1  0
 21 22  1  0
 22 27  1  0
 23 24  1  0
 23 22  1  0
 24 25  1  0
 25 26  1  0
 27 26  1  0
  3 28  1  0
  4 29  1  0
  5 30  1  0
  7 31  1  0
  7 32  1  0
  8 33  1  0
  9 34  1  0
 10 35  1  0
 14 36  1  0
 17 37  1  0
 18 38  1  0
 19 39  1  0
 20 40  1  0
 22 41  1  0
 23 42  1  0
 23 43  1  0
 24 44  1  0
 24 45  1  0
 25 46  1  0
 25 47  1  0
 26 48  1  0
 26 49  1  0
 27 50  1  0
 27 51  1  0
M  ISO  8  28  14  29  14  30  14  31   8  32   8  33  14  34  14  35  14
M  ISO  8  36   3  37  14  38  14  39  14  40  14  41  13  42  13  43  13
M  ISO  8  44  13  45  13  46  13  47  13  48  13  49  13  50  13  51  13
M  END
>  <minimizedAffinity>  (1) 
-6.02741671

>  <minimizedRMSD>  (1) 
2.71024799

$$$$
