
     RDKit          3D

 36 38  0  0  0  0  0  0  0  0999 V2000
   43.6320   35.2840   42.2780 C   0  0  0  0  0  0  0  0  0  0  0  0
   42.5830   35.0920   41.4230 C   0  0  0  0  0  0  0  0  0  0  0  0
   42.8530   34.5090   40.1990 C   0  0  0  0  0  0  0  0  0  0  0  0
   44.1140   34.1060   39.7790 C   0  0  0  0  0  0  0  0  0  0  0  0
   45.1570   34.3200   40.6800 C   0  0  0  0  0  0  0  0  0  0  0  0
   44.8990   34.9070   41.9190 C   0  0  0  0  0  0  0  0  0  0  0  0
   41.1960   35.4800   41.7580 C   0  0  0  0  0  0  0  0  0  0  0  0
   39.1040   32.4600   41.2700 C   0  0  0  0  0  0  0  0  0  0  0  0
   38.3300   32.8190   40.1650 C   0  0  0  0  0  0  0  0  0  0  0  0
   38.5410   34.0830   39.6160 C   0  0  0  0  0  0  0  0  0  0  0  0
   39.4690   34.8930   40.1620 N   0  0  0  0  0  0  0  0  0  0  0  0
   40.2080   34.5120   41.2400 C   0  0  0  0  0  0  0  0  0  0  0  0
   40.0090   33.3060   41.7680 N   0  0  0  0  0  0  0  0  0  0  0  0
   43.4170   35.8610   43.5080 O   0  0  0  0  0  0  0  0  0  0  0  0
   45.9670   35.0900   42.7580 O   0  0  0  0  0  0  0  0  0  0  0  0
   46.8520   34.0480   42.9430 C   0  0  0  0  0  0  0  0  0  0  0  0
   46.3590   32.9520   43.6370 C   0  0  0  0  0  0  0  0  0  0  0  0
   47.2060   31.8760   43.8520 C   0  0  0  0  0  0  0  0  0  0  0  0
   48.5280   31.8810   43.3870 C   0  0  0  0  0  0  0  0  0  0  0  0
   48.9570   33.0090   42.7000 C   0  0  0  0  0  0  0  0  0  0  0  0
   48.1400   34.0900   42.4730 C   0  0  0  0  0  0  0  0  0  0  0  0
   48.7480   35.4930   41.5920 S   0  0  0  0  0  0  0  0  0  0  0  0
   42.0102   34.3534   39.5095 H   0  0  0  0  0  0  0  0  0  0  0  0
   44.2803   33.6453   38.7941 H   0  0  0  0  0  0  0  0  0  0  0  0
   46.1830   34.0259   40.4136 H   0  0  0  0  0  0  0  0  0  0  0  0
   41.0978   35.5360   42.8522 H   0  0  0  0  0  0  0  0  0  0  0  0
   40.9940   36.4542   41.2889 H   0  0  0  0  0  0  0  0  0  0  0  0
   38.9672   31.4722   41.7341 H   0  0  0  0  0  0  0  0  0  0  0  0
   37.5823   32.1309   39.7437 H   0  0  0  0  0  0  0  0  0  0  0  0
   37.9558   34.4156   38.7460 H   0  0  0  0  0  0  0  0  0  0  0  0
   44.1756   36.0008   44.1286 H   0  0  0  0  0  0  0  0  0  0  0  0
   45.3231   32.9375   44.0068 H   0  0  0  0  0  0  0  0  0  0  0  0
   46.8321   30.9985   44.3999 H   0  0  0  0  0  0  0  0  0  0  0  0
   49.1986   31.0262   43.5592 H   0  0  0  0  0  0  0  0  0  0  0  0
   49.9901   33.0381   42.3233 H   0  0  0  0  0  0  0  0  0  0  0  0
   49.1617   36.4477   42.4832 H   0  0  0  0  0  0  0  0  0  0  0  0
  1 14  1  0
  2  7  1  0
  2  1  2  0
  3  2  1  0
  4  3  2  0
  4  5  1  0
  5  6  2  0
  6  1  1  0
  6 15  1  0
  8 13  2  0
  9  8  1  0
 10 11  1  0
 10  9  2  0
 11 12  2  0
 12  7  1  0
 12 13  1  0
 15 16  1  0
 16 17  2  0
 17 18  1  0
 19 18  2  0
 20 19  1  0
 21 20  2  0
 21 16  1  0
 22 21  1  0
  3 23  1  0
  4 24  1  0
  5 25  1  0
  7 26  1  0
  7 27  1  0
  8 28  1  0
  9 29  1  0
 10 30  1  0
 14 31  1  0
 17 32  1  0
 18 33  1  0
 19 34  1  0
 20 35  1  0
 22 36  1  0
M  ISO  8  23  14  24  14  25  14  26   8  27   8  28  14  29  14  30  14
M  ISO  6  31   3  32  14  33  14  34  14  35  14  36  11
M  END
>  <minimizedAffinity>  (1) 
-5.93433857

>  <minimizedRMSD>  (1) 
1.31332576

$$$$
