
     RDKit          3D

 40 42  0  0  0  0  0  0  0  0999 V2000
   43.6120   35.3090   42.3430 C   0  0  0  0  0  0  0  0  0  0  0  0
   42.5770   35.0890   41.4860 C   0  0  0  0  0  0  0  0  0  0  0  0
   42.8580   34.5010   40.2730 C   0  0  0  0  0  0  0  0  0  0  0  0
   44.1340   34.1180   39.8680 C   0  0  0  0  0  0  0  0  0  0  0  0
   45.1680   34.3570   40.7650 C   0  0  0  0  0  0  0  0  0  0  0  0
   44.8840   34.9480   41.9840 C   0  0  0  0  0  0  0  0  0  0  0  0
   41.1810   35.4480   41.7960 C   0  0  0  0  0  0  0  0  0  0  0  0
   39.1220   32.4300   41.2450 C   0  0  0  0  0  0  0  0  0  0  0  0
   38.3600   32.7990   40.1350 C   0  0  0  0  0  0  0  0  0  0  0  0
   38.5730   34.0650   39.6100 C   0  0  0  0  0  0  0  0  0  0  0  0
   39.4850   34.8690   40.1790 N   0  0  0  0  0  0  0  0  0  0  0  0
   40.2100   34.4820   41.2560 C   0  0  0  0  0  0  0  0  0  0  0  0
   40.0080   33.2730   41.7610 N   0  0  0  0  0  0  0  0  0  0  0  0
   43.3870   35.8950   43.5680 O   0  0  0  0  0  0  0  0  0  0  0  0
   45.9600   35.1650   42.8460 O   0  0  0  0  0  0  0  0  0  0  0  0
   46.8480   34.1200   43.0520 C   0  0  0  0  0  0  0  0  0  0  0  0
   46.4080   33.0700   43.8170 C   0  0  0  0  0  0  0  0  0  0  0  0
   47.2490   32.0010   44.0560 C   0  0  0  0  0  0  0  0  0  0  0  0
   48.5280   31.9780   43.5330 C   0  0  0  0  0  0  0  0  0  0  0  0
   48.9430   33.0710   42.7530 C   0  0  0  0  0  0  0  0  0  0  0  0
   48.1110   34.1410   42.5100 C   0  0  0  0  0  0  0  0  0  0  0  0
   50.3250   33.0730   42.1720 C   0  0  0  0  0  0  0  0  0  0  0  0
   50.2450   32.7660   40.8120 F   0  0  0  0  0  0  0  0  0  0  0  0
   51.0050   34.2320   42.3860 F   0  0  0  0  0  0  0  0  0  0  0  0
   51.0830   32.0360   42.7360 F   0  0  0  0  0  0  0  0  0  0  0  0
   48.5630   35.2190   41.7230 N   0  0  0  0  0  0  0  0  0  0  0  0
   42.0221   34.3227   39.5806 H   0  0  0  0  0  0  0  0  0  0  0  0
   44.3141   33.6505   38.8887 H   0  0  0  0  0  0  0  0  0  0  0  0
   46.2012   34.0795   40.5091 H   0  0  0  0  0  0  0  0  0  0  0  0
   41.0635   35.4908   42.8889 H   0  0  0  0  0  0  0  0  0  0  0  0
   40.9769   36.4210   41.3252 H   0  0  0  0  0  0  0  0  0  0  0  0
   38.9874   31.4351   41.6945 H   0  0  0  0  0  0  0  0  0  0  0  0
   37.6208   32.1136   39.6947 H   0  0  0  0  0  0  0  0  0  0  0  0
   38.0000   34.4070   38.7356 H   0  0  0  0  0  0  0  0  0  0  0  0
   44.1429   36.0528   44.1875 H   0  0  0  0  0  0  0  0  0  0  0  0
   45.3916   33.0794   44.2375 H   0  0  0  0  0  0  0  0  0  0  0  0
   46.8970   31.1585   44.6694 H   0  0  0  0  0  0  0  0  0  0  0  0
   49.2015   31.1290   43.7217 H   0  0  0  0  0  0  0  0  0  0  0  0
   47.9414   36.0198   41.5407 H   0  0  0  0  0  0  0  0  0  0  0  0
   49.5150   35.2062   41.3301 H   0  0  0  0  0  0  0  0  0  0  0  0
  1 14  1  0
  2  7  1  0
  2  1  2  0
  3  2  1  0
  4  3  2  0
  4  5  1  0
  5  6  2  0
  6  1  1  0
  6 15  1  0
  8 13  2  0
  9  8  1  0
 10  9  2  0
 10 11  1  0
 11 12  2  0
 12 13  1  0
 12  7  1  0
 15 16  1  0
 16 17  2  0
 17 18  1  0
 19 18  2  0
 20 19  1  0
 21 20  2  0
 21 16  1  0
 22 24  1  0
 22 25  1  0
 22 20  1  0
 23 22  1  0
 26 21  1  0
  3 27  1  0
  4 28  1  0
  5 29  1  0
  7 30  1  0
  7 31  1  0
  8 32  1  0
  9 33  1  0
 10 34  1  0
 14 35  1  0
 17 36  1  0
 18 37  1  0
 19 38  1  0
 26 39  1  0
 26 40  1  0
M  ISO  8  27  14  28  14  29  14  30   8  31   8  32  14  33  14  34  14
M  ISO  4  35   3  36  14  37  14  38  14
M  END
>  <minimizedAffinity>  (1) 
-6.61365604

>  <minimizedRMSD>  (1) 
0.617061198

$$$$
