
     RDKit          3D

 38 40  0  0  0  0  0  0  0  0999 V2000
   43.6810   35.3140   42.3960 C   0  0  0  0  0  0  0  0  0  0  0  0
   42.6320   35.0830   41.5420 C   0  0  0  0  0  0  0  0  0  0  0  0
   42.8990   34.4790   40.3350 C   0  0  0  0  0  0  0  0  0  0  0  0
   44.1750   34.0850   39.9210 C   0  0  0  0  0  0  0  0  0  0  0  0
   45.2150   34.3350   40.8150 C   0  0  0  0  0  0  0  0  0  0  0  0
   44.9500   34.9440   42.0330 C   0  0  0  0  0  0  0  0  0  0  0  0
   41.2480   35.4580   41.8790 C   0  0  0  0  0  0  0  0  0  0  0  0
   39.1030   32.5120   41.1950 C   0  0  0  0  0  0  0  0  0  0  0  0
   38.3990   32.9390   40.0780 C   0  0  0  0  0  0  0  0  0  0  0  0
   38.6600   34.2100   39.5780 C   0  0  0  0  0  0  0  0  0  0  0  0
   39.5750   34.9610   40.1930 N   0  0  0  0  0  0  0  0  0  0  0  0
   40.2570   34.5410   41.2780 C   0  0  0  0  0  0  0  0  0  0  0  0
   40.0100   33.3160   41.7670 N   0  0  0  0  0  0  0  0  0  0  0  0
   43.4700   35.9160   43.6190 O   0  0  0  0  0  0  0  0  0  0  0  0
   46.0280   35.1650   42.8750 O   0  0  0  0  0  0  0  0  0  0  0  0
   47.0320   34.2150   42.9030 C   0  0  0  0  0  0  0  0  0  0  0  0
   46.7330   33.0170   43.5340 C   0  0  0  0  0  0  0  0  0  0  0  0
   47.7170   32.0350   43.5840 C   0  0  0  0  0  0  0  0  0  0  0  0
   48.9680   32.2220   43.0260 C   0  0  0  0  0  0  0  0  0  0  0  0
   49.2080   33.4440   42.4070 C   0  0  0  0  0  0  0  0  0  0  0  0
   48.2620   34.4530   42.3320 C   0  0  0  0  0  0  0  0  0  0  0  0
   48.5680   35.6550   41.6950 N   0  0  0  0  0  0  0  0  0  0  0  0
   50.4530   33.6730   41.8330 O   0  0  0  0  0  0  0  0  0  0  0  0
   42.0558   34.2945   39.6531 H   0  0  0  0  0  0  0  0  0  0  0  0
   44.3482   33.6055   38.9463 H   0  0  0  0  0  0  0  0  0  0  0  0
   46.2450   34.0496   40.5549 H   0  0  0  0  0  0  0  0  0  0  0  0
   41.1320   35.4369   42.9727 H   0  0  0  0  0  0  0  0  0  0  0  0
   41.0639   36.4645   41.4752 H   0  0  0  0  0  0  0  0  0  0  0  0
   38.9162   31.5114   41.6119 H   0  0  0  0  0  0  0  0  0  0  0  0
   37.6526   32.2878   39.5997 H   0  0  0  0  0  0  0  0  0  0  0  0
   38.1238   34.5878   38.6949 H   0  0  0  0  0  0  0  0  0  0  0  0
   44.2328   36.0788   44.2288 H   0  0  0  0  0  0  0  0  0  0  0  0
   45.7434   32.8476   43.9834 H   0  0  0  0  0  0  0  0  0  0  0  0
   47.4929   31.0805   44.0828 H   0  0  0  0  0  0  0  0  0  0  0  0
   49.7393   31.4390   43.0697 H   0  0  0  0  0  0  0  0  0  0  0  0
   47.8624   36.4034   41.6409 H   0  0  0  0  0  0  0  0  0  0  0  0
   49.4997   35.7945   41.2786 H   0  0  0  0  0  0  0  0  0  0  0  0
   50.6416   34.5371   41.3881 H   0  0  0  0  0  0  0  0  0  0  0  0
  1 14  1  0
  2  7  1  0
  2  1  2  0
  3  2  1  0
  4  3  2  0
  4  5  1  0
  5  6  2  0
  6  1  1  0
  6 15  1  0
  8 13  2  0
  9  8  1  0
 10  9  2  0
 10 11  1  0
 11 12  2  0
 12 13  1  0
 12  7  1  0
 15 16  1  0
 16 17  2  0
 17 18  1  0
 19 18  2  0
 20 19  1  0
 21 20  2  0
 21 16  1  0
 22 21  1  0
 23 20  1  0
  3 24  1  0
  4 25  1  0
  5 26  1  0
  7 27  1  0
  7 28  1  0
  8 29  1  0
  9 30  1  0
 10 31  1  0
 14 32  1  0
 17 33  1  0
 18 34  1  0
 19 35  1  0
 22 36  1  0
 22 37  1  0
 23 38  1  0
M  ISO  8  24  14  25  14  26  14  27   8  28   8  29  14  30  14  31  14
M  ISO  5  32   3  33  14  34  14  35  14  38   3
M  END
>  <minimizedAffinity>  (1) 
-6.38113785

>  <minimizedRMSD>  (1) 
0.190196052

$$$$
