
     RDKit          3D

 39 41  0  0  0  0  0  0  0  0999 V2000
   43.6440   35.3130   42.3780 C   0  0  0  0  0  0  0  0  0  0  0  0
   42.6130   35.0770   41.5050 C   0  0  0  0  0  0  0  0  0  0  0  0
   42.8960   34.4820   40.3000 C   0  0  0  0  0  0  0  0  0  0  0  0
   44.1670   34.0940   39.8910 C   0  0  0  0  0  0  0  0  0  0  0  0
   45.2010   34.3420   40.7910 C   0  0  0  0  0  0  0  0  0  0  0  0
   44.9210   34.9430   42.0110 C   0  0  0  0  0  0  0  0  0  0  0  0
   41.2170   35.4410   41.8210 C   0  0  0  0  0  0  0  0  0  0  0  0
   39.1460   32.4330   41.2450 C   0  0  0  0  0  0  0  0  0  0  0  0
   38.3940   32.8110   40.1480 C   0  0  0  0  0  0  0  0  0  0  0  0
   38.6020   34.0830   39.6210 C   0  0  0  0  0  0  0  0  0  0  0  0
   39.5180   34.8910   40.1910 N   0  0  0  0  0  0  0  0  0  0  0  0
   40.2380   34.4860   41.2680 C   0  0  0  0  0  0  0  0  0  0  0  0
   40.0430   33.2670   41.7780 N   0  0  0  0  0  0  0  0  0  0  0  0
   43.4210   35.9040   43.5970 O   0  0  0  0  0  0  0  0  0  0  0  0
   45.9930   35.1640   42.8650 O   0  0  0  0  0  0  0  0  0  0  0  0
   46.9970   34.2080   42.9110 C   0  0  0  0  0  0  0  0  0  0  0  0
   46.6770   33.0110   43.5430 C   0  0  0  0  0  0  0  0  0  0  0  0
   47.6400   32.0160   43.6210 C   0  0  0  0  0  0  0  0  0  0  0  0
   48.9080   32.2020   43.0790 C   0  0  0  0  0  0  0  0  0  0  0  0
   49.1590   33.4200   42.4640 C   0  0  0  0  0  0  0  0  0  0  0  0
   48.2320   34.4210   42.3700 C   0  0  0  0  0  0  0  0  0  0  0  0
   48.5530   35.6270   41.7340 N   0  0  0  0  0  0  0  0  0  0  0  0
   50.4470   33.6440   41.8990 N   0  0  0  0  0  0  0  0  0  0  0  0
   42.0587   34.2997   39.6103 H   0  0  0  0  0  0  0  0  0  0  0  0
   44.3454   33.6194   38.9148 H   0  0  0  0  0  0  0  0  0  0  0  0
   46.2342   34.0631   40.5364 H   0  0  0  0  0  0  0  0  0  0  0  0
   41.1003   35.4703   42.9144 H   0  0  0  0  0  0  0  0  0  0  0  0
   41.0186   36.4212   41.3630 H   0  0  0  0  0  0  0  0  0  0  0  0
   39.0040   31.4343   41.6837 H   0  0  0  0  0  0  0  0  0  0  0  0
   37.6542   32.1279   39.7052 H   0  0  0  0  0  0  0  0  0  0  0  0
   38.0251   34.4247   38.7490 H   0  0  0  0  0  0  0  0  0  0  0  0
   44.1778   36.0665   44.2142 H   0  0  0  0  0  0  0  0  0  0  0  0
   45.6768   32.8561   43.9738 H   0  0  0  0  0  0  0  0  0  0  0  0
   47.3978   31.0655   44.1188 H   0  0  0  0  0  0  0  0  0  0  0  0
   49.6774   31.4179   43.1357 H   0  0  0  0  0  0  0  0  0  0  0  0
   47.8500   36.3768   41.6667 H   0  0  0  0  0  0  0  0  0  0  0  0
   49.4920   35.7640   41.3336 H   0  0  0  0  0  0  0  0  0  0  0  0
   50.6580   34.5401   41.4370 H   0  0  0  0  0  0  0  0  0  0  0  0
   51.1675   32.9099   41.9524 H   0  0  0  0  0  0  0  0  0  0  0  0
  1 14  1  0
  2  7  1  0
  2  1  2  0
  3  2  1  0
  4  3  2  0
  4  5  1  0
  5  6  2  0
  6  1  1  0
  6 15  1  0
  8 13  2  0
  9  8  1  0
 10  9  2  0
 10 11  1  0
 11 12  2  0
 12 13  1  0
 12  7  1  0
 15 16  1  0
 16 17  2  0
 17 18  1  0
 19 18  2  0
 20 19  1  0
 21 20  2  0
 21 16  1  0
 22 21  1  0
 23 20  1  0
  3 24  1  0
  4 25  1  0
  5 26  1  0
  7 27  1  0
  7 28  1  0
  8 29  1  0
  9 30  1  0
 10 31  1  0
 14 32  1  0
 17 33  1  0
 18 34  1  0
 19 35  1  0
 22 36  1  0
 22 37  1  0
 23 38  1  0
 23 39  1  0
M  ISO  8  24  14  25  14  26  14  27   8  28   8  29  14  30  14  31  14
M  ISO  4  32   3  33  14  34  14  35  14
M  END
>  <minimizedAffinity>  (1) 
-6.35421419

>  <minimizedRMSD>  (1) 
0.254585147

$$$$
