
     RDKit          3D

 53 56  0  0  0  0  0  0  0  0999 V2000
   43.7300   35.1960   42.3040 C   0  0  0  0  0  0  0  0  0  0  0  0
   42.6560   35.0760   41.4640 C   0  0  0  0  0  0  0  0  0  0  0  0
   42.8740   34.5470   40.2100 C   0  0  0  0  0  0  0  0  0  0  0  0
   44.1170   34.1280   39.7440 C   0  0  0  0  0  0  0  0  0  0  0  0
   45.1850   34.2620   40.6210 C   0  0  0  0  0  0  0  0  0  0  0  0
   44.9770   34.7910   41.8800 C   0  0  0  0  0  0  0  0  0  0  0  0
   41.2920   35.4830   41.8380 C   0  0  0  0  0  0  0  0  0  0  0  0
   39.0200   32.6250   41.2280 C   0  0  0  0  0  0  0  0  0  0  0  0
   38.3040   33.0660   40.1170 C   0  0  0  0  0  0  0  0  0  0  0  0
   38.6120   34.3160   39.6100 C   0  0  0  0  0  0  0  0  0  0  0  0
   39.5730   35.0490   40.1940 N   0  0  0  0  0  0  0  0  0  0  0  0
   40.2560   34.6030   41.2700 C   0  0  0  0  0  0  0  0  0  0  0  0
   39.9630   33.3960   41.7660 N   0  0  0  0  0  0  0  0  0  0  0  0
   43.5620   35.7170   43.5640 O   0  0  0  0  0  0  0  0  0  0  0  0
   46.0760   34.9080   42.7230 O   0  0  0  0  0  0  0  0  0  0  0  0
   46.8690   33.7910   42.8930 C   0  0  0  0  0  0  0  0  0  0  0  0
   46.4200   32.8100   43.7440 C   0  0  0  0  0  0  0  0  0  0  0  0
   47.1700   31.6740   43.9530 C   0  0  0  0  0  0  0  0  0  0  0  0
   48.3840   31.5160   43.3040 C   0  0  0  0  0  0  0  0  0  0  0  0
   48.8340   32.5270   42.4340 C   0  0  0  0  0  0  0  0  0  0  0  0
   48.0650   33.6580   42.2410 C   0  0  0  0  0  0  0  0  0  0  0  0
   50.1370   32.3480   41.7330 C   0  0  0  0  0  0  0  0  0  0  0  0
   49.9240   31.9590   40.3240 C   0  0  0  0  0  0  0  0  0  0  0  0
   50.6740   30.7710   39.8330 C   0  0  0  0  0  0  0  0  0  0  0  0
   51.0660   29.7970   40.9070 C   0  0  0  0  0  0  0  0  0  0  0  0
   51.9480   30.5850   41.8530 C   0  0  0  0  0  0  0  0  0  0  0  0
   51.0220   31.5290   42.5790 C   0  0  0  0  0  0  0  0  0  0  0  0
   48.5510   34.6480   41.3620 N   0  0  0  0  0  0  0  0  0  0  0  0
   42.0111   34.4498   39.5347 H   0  0  0  0  0  0  0  0  0  0  0  0
   44.2463   33.7125   38.7338 H   0  0  0  0  0  0  0  0  0  0  0  0
   46.1936   33.9479   40.3142 H   0  0  0  0  0  0  0  0  0  0  0  0
   41.2076   35.4624   42.9346 H   0  0  0  0  0  0  0  0  0  0  0  0
   41.1259   36.4926   41.4340 H   0  0  0  0  0  0  0  0  0  0  0  0
   38.8057   31.6372   41.6619 H   0  0  0  0  0  0  0  0  0  0  0  0
   37.5218   32.4426   39.6593 H   0  0  0  0  0  0  0  0  0  0  0  0
   38.0730   34.7065   38.7342 H   0  0  0  0  0  0  0  0  0  0  0  0
   44.3389   35.8037   44.1714 H   0  0  0  0  0  0  0  0  0  0  0  0
   45.4568   32.9326   44.2609 H   0  0  0  0  0  0  0  0  0  0  0  0
   46.8053   30.8920   44.6352 H   0  0  0  0  0  0  0  0  0  0  0  0
   48.9887   30.6116   43.4666 H   0  0  0  0  0  0  0  0  0  0  0  0
   50.6976   33.2866   41.6111 H   0  0  0  0  0  0  0  0  0  0  0  0
   48.8515   31.7516   40.1950 H   0  0  0  0  0  0  0  0  0  0  0  0
   50.3058   32.8040   39.7322 H   0  0  0  0  0  0  0  0  0  0  0  0
   50.0424   30.2429   39.1035 H   0  0  0  0  0  0  0  0  0  0  0  0
   51.6098   31.1494   39.3957 H   0  0  0  0  0  0  0  0  0  0  0  0
   50.1750   29.4221   41.4320 H   0  0  0  0  0  0  0  0  0  0  0  0
   51.5846   28.9181   40.4964 H   0  0  0  0  0  0  0  0  0  0  0  0
   52.4452   29.9108   42.5659 H   0  0  0  0  0  0  0  0  0  0  0  0
   52.7408   31.1256   41.3153 H   0  0  0  0  0  0  0  0  0  0  0  0
   51.6414   32.2128   43.1780 H   0  0  0  0  0  0  0  0  0  0  0  0
   50.3531   30.8883   43.1724 H   0  0  0  0  0  0  0  0  0  0  0  0
   48.0021   35.5036   41.1959 H   0  0  0  0  0  0  0  0  0  0  0  0
   49.4548   34.5155   40.8862 H   0  0  0  0  0  0  0  0  0  0  0  0
  1 14  1  0
  2  7  1  0
  2  1  2  0
  3  2  1  0
  4  3  2  0
  4  5  1  0
  5  6  2  0
  6  1  1  0
  6 15  1  0
  8 13  2  0
  9  8  1  0
 10  9  2  0
 10 11  1  0
 11 12  2  0
 12 13  1  0
 12  7  1  0
 15 16  1  0
 16 17  2  0
 17 18  1  0
 19 18  2  0
 20 19  1  0
 21 20  2  0
 21 16  1  0
 22 20  1  0
 22 27  1  0
 23 22  1  0
 24 23  1  0
 24 25  1  0
 25 26  1  0
 26 27  1  0
 28 21  1  0
  3 29  1  0
  4 30  1  0
  5 31  1  0
  7 32  1  0
  7 33  1  0
  8 34  1  0
  9 35  1  0
 10 36  1  0
 14 37  1  0
 17 38  1  0
 18 39  1  0
 19 40  1  0
 22 41  1  0
 23 42  1  0
 23 43  1  0
 24 44  1  0
 24 45  1  0
 25 46  1  0
 25 47  1  0
 26 48  1  0
 26 49  1  0
 27 50  1  0
 27 51  1  0
 28 52  1  0
 28 53  1  0
M  ISO  8  29  14  30  14  31  14  32   8  33   8  34  14  35  14  36  14
M  ISO  8  37   3  38  14  39  14  40  14  41  13  42  13  43  13  44  13
M  ISO  7  45  13  46  13  47  13  48  13  49  13  50  13  51  13
M  END
>  <minimizedAffinity>  (1) 
-6.25779295

>  <minimizedRMSD>  (1) 
1.12467611

$$$$
