
     RDKit          3D

 39 41  0  0  0  0  0  0  0  0999 V2000
   43.6240   35.3010   42.3510 C   0  0  0  0  0  0  0  0  0  0  0  0
   42.5940   35.0900   41.4690 C   0  0  0  0  0  0  0  0  0  0  0  0
   42.8840   34.5040   40.2570 C   0  0  0  0  0  0  0  0  0  0  0  0
   44.1580   34.1080   39.8660 C   0  0  0  0  0  0  0  0  0  0  0  0
   45.1900   34.3300   40.7700 C   0  0  0  0  0  0  0  0  0  0  0  0
   44.9020   34.9180   41.9840 C   0  0  0  0  0  0  0  0  0  0  0  0
   41.2000   35.4690   41.7780 C   0  0  0  0  0  0  0  0  0  0  0  0
   39.1340   32.4520   41.2490 C   0  0  0  0  0  0  0  0  0  0  0  0
   38.3750   32.8180   40.1360 C   0  0  0  0  0  0  0  0  0  0  0  0
   38.5870   34.0670   39.6040 C   0  0  0  0  0  0  0  0  0  0  0  0
   39.4970   34.8690   40.1660 N   0  0  0  0  0  0  0  0  0  0  0  0
   40.2250   34.5120   41.2370 C   0  0  0  0  0  0  0  0  0  0  0  0
   40.0290   33.3050   41.7610 N   0  0  0  0  0  0  0  0  0  0  0  0
   43.3890   35.8840   43.5740 O   0  0  0  0  0  0  0  0  0  0  0  0
   45.9530   35.1270   42.8680 O   0  0  0  0  0  0  0  0  0  0  0  0
   46.9060   34.1220   42.9800 C   0  0  0  0  0  0  0  0  0  0  0  0
   46.5020   32.9510   43.5670 C   0  0  0  0  0  0  0  0  0  0  0  0
   47.3830   31.9070   43.7170 C   0  0  0  0  0  0  0  0  0  0  0  0
   48.6940   32.0340   43.2730 C   0  0  0  0  0  0  0  0  0  0  0  0
   49.0790   33.2470   42.6770 C   0  0  0  0  0  0  0  0  0  0  0  0
   48.2010   34.2860   42.5280 C   0  0  0  0  0  0  0  0  0  0  0  0
   48.6090   35.4960   41.9270 N   0  0  0  0  0  0  0  0  0  0  0  0
   50.4710   33.3930   42.2030 C   0  0  0  0  0  0  0  0  0  0  0  0
   50.9080   32.4500   41.4820 O   0  0  0  0  0  0  0  0  0  0  0  0
   42.0548   34.3387   39.5534 H   0  0  0  0  0  0  0  0  0  0  0  0
   44.3407   33.6409   38.8870 H   0  0  0  0  0  0  0  0  0  0  0  0
   46.2217   34.0409   40.5209 H   0  0  0  0  0  0  0  0  0  0  0  0
   41.0806   35.5151   42.8705 H   0  0  0  0  0  0  0  0  0  0  0  0
   41.0066   36.4451   41.3092 H   0  0  0  0  0  0  0  0  0  0  0  0
   38.9962   31.4609   41.7059 H   0  0  0  0  0  0  0  0  0  0  0  0
   37.6340   32.1314   39.7007 H   0  0  0  0  0  0  0  0  0  0  0  0
   38.0150   34.4028   38.7265 H   0  0  0  0  0  0  0  0  0  0  0  0
   44.1383   36.0323   44.2038 H   0  0  0  0  0  0  0  0  0  0  0  0
   45.4656   32.8463   43.9204 H   0  0  0  0  0  0  0  0  0  0  0  0
   47.0505   30.9705   44.1886 H   0  0  0  0  0  0  0  0  0  0  0  0
   49.4109   31.2072   43.3851 H   0  0  0  0  0  0  0  0  0  0  0  0
   47.9380   36.2702   41.8210 H   0  0  0  0  0  0  0  0  0  0  0  0
   49.5777   35.6048   41.5944 H   0  0  0  0  0  0  0  0  0  0  0  0
   51.0881   34.2664   42.4608 H   0  0  0  0  0  0  0  0  0  0  0  0
  1 14  1  0
  2  7  1  0
  2  1  2  0
  3  2  1  0
  4  3  2  0
  4  5  1  0
  5  6  2  0
  6  1  1  0
  6 15  1  0
  8 13  2  0
  9  8  1  0
 10  9  2  0
 10 11  1  0
 11 12  2  0
 12 13  1  0
 12  7  1  0
 15 16  1  0
 16 17  2  0
 17 18  1  0
 19 18  2  0
 20 19  1  0
 21 20  2  0
 21 16  1  0
 22 21  1  0
 23 20  1  0
 24 23  2  0
  3 25  1  0
  4 26  1  0
  5 27  1  0
  7 28  1  0
  7 29  1  0
  8 30  1  0
  9 31  1  0
 10 32  1  0
 14 33  1  0
 17 34  1  0
 18 35  1  0
 19 36  1  0
 22 37  1  0
 22 38  1  0
 23 39  1  0
M  ISO  8  25  14  26  14  27  14  28   8  29   8  30  14  31  14  32  14
M  ISO  5  33   3  34  14  35  14  36  14  39   6
M  END
>  <minimizedAffinity>  (1) 
-6.14065552

>  <minimizedRMSD>  (1) 
0.41177237

$$$$
