
     RDKit          3D

 51 54  0  0  0  0  0  0  0  0999 V2000
   43.7280   35.1790   42.2130 C   0  0  0  0  0  0  0  0  0  0  0  0
   42.6370   35.0390   41.3920 C   0  0  0  0  0  0  0  0  0  0  0  0
   42.8340   34.4910   40.1410 C   0  0  0  0  0  0  0  0  0  0  0  0
   44.0660   34.0710   39.6590 C   0  0  0  0  0  0  0  0  0  0  0  0
   45.1580   34.2220   40.5080 C   0  0  0  0  0  0  0  0  0  0  0  0
   44.9660   34.7710   41.7640 C   0  0  0  0  0  0  0  0  0  0  0  0
   41.2810   35.4550   41.8110 C   0  0  0  0  0  0  0  0  0  0  0  0
   39.0100   32.5800   41.2630 C   0  0  0  0  0  0  0  0  0  0  0  0
   38.2710   33.0020   40.1600 C   0  0  0  0  0  0  0  0  0  0  0  0
   38.5600   34.2420   39.6370 C   0  0  0  0  0  0  0  0  0  0  0  0
   39.5300   34.9910   40.1980 N   0  0  0  0  0  0  0  0  0  0  0  0
   40.2360   34.5630   41.2660 C   0  0  0  0  0  0  0  0  0  0  0  0
   39.9600   33.3640   41.7770 N   0  0  0  0  0  0  0  0  0  0  0  0
   43.5840   35.7180   43.4660 O   0  0  0  0  0  0  0  0  0  0  0  0
   46.0780   34.9040   42.5780 O   0  0  0  0  0  0  0  0  0  0  0  0
   46.8550   33.7680   42.8130 C   0  0  0  0  0  0  0  0  0  0  0  0
   46.3910   32.9320   43.8240 C   0  0  0  0  0  0  0  0  0  0  0  0
   47.1170   31.7840   44.1120 C   0  0  0  0  0  0  0  0  0  0  0  0
   48.2670   31.4850   43.4070 C   0  0  0  0  0  0  0  0  0  0  0  0
   48.6870   32.3560   42.4030 C   0  0  0  0  0  0  0  0  0  0  0  0
   47.9870   33.4920   42.1050 C   0  0  0  0  0  0  0  0  0  0  0  0
   49.8830   31.9660   41.7420 N   0  0  0  0  0  0  0  0  0  0  0  0
   50.0600   31.7540   40.3320 C   0  0  0  0  0  0  0  0  0  0  0  0
   50.2570   30.2430   40.1440 C   0  0  0  0  0  0  0  0  0  0  0  0
   51.3670   29.7720   40.9380 N   0  0  0  0  0  0  0  0  0  0  0  0
   52.0690   30.9170   41.4830 C   0  0  0  0  0  0  0  0  0  0  0  0
   51.1520   31.7060   42.4000 C   0  0  0  0  0  0  0  0  0  0  0  0
   48.4210   34.3530   41.0920 N   0  0  0  0  0  0  0  0  0  0  0  0
   41.9589   34.3799   39.4839 H   0  0  0  0  0  0  0  0  0  0  0  0
   44.1740   33.6391   38.6531 H   0  0  0  0  0  0  0  0  0  0  0  0
   46.1618   33.9088   40.1849 H   0  0  0  0  0  0  0  0  0  0  0  0
   41.2270   35.4358   42.9095 H   0  0  0  0  0  0  0  0  0  0  0  0
   41.1005   36.4679   41.4219 H   0  0  0  0  0  0  0  0  0  0  0  0
   38.8096   31.5962   41.7123 H   0  0  0  0  0  0  0  0  0  0  0  0
   37.4856   32.3677   39.7232 H   0  0  0  0  0  0  0  0  0  0  0  0
   38.0029   34.6192   38.7668 H   0  0  0  0  0  0  0  0  0  0  0  0
   44.3730   35.8176   44.0557 H   0  0  0  0  0  0  0  0  0  0  0  0
   45.4734   33.1742   44.3803 H   0  0  0  0  0  0  0  0  0  0  0  0
   46.7737   31.1069   44.9081 H   0  0  0  0  0  0  0  0  0  0  0  0
   48.8415   30.5749   43.6342 H   0  0  0  0  0  0  0  0  0  0  0  0
   49.1703   32.0934   39.7813 H   0  0  0  0  0  0  0  0  0  0  0  0
   50.9215   32.3200   39.9480 H   0  0  0  0  0  0  0  0  0  0  0  0
   49.3418   29.7178   40.4548 H   0  0  0  0  0  0  0  0  0  0  0  0
   50.4696   30.0426   39.0835 H   0  0  0  0  0  0  0  0  0  0  0  0
   51.0174   29.1820   41.7065 H   0  0  0  0  0  0  0  0  0  0  0  0
   52.9427   30.5696   42.0540 H   0  0  0  0  0  0  0  0  0  0  0  0
   52.3945   31.5655   40.6562 H   0  0  0  0  0  0  0  0  0  0  0  0
   51.6306   32.6627   42.6562 H   0  0  0  0  0  0  0  0  0  0  0  0
   50.9684   31.1202   43.3127 H   0  0  0  0  0  0  0  0  0  0  0  0
   47.8853   35.2059   40.8765 H   0  0  0  0  0  0  0  0  0  0  0  0
   49.2763   34.1342   40.5615 H   0  0  0  0  0  0  0  0  0  0  0  0
  1 14  1  0
  2  7  1  0
  2  1  2  0
  3  2  1  0
  4  3  2  0
  4  5  1  0
  5  6  2  0
  6  1  1  0
  6 15  1  0
  8 13  2  0
  9  8  1  0
 10  9  2  0
 10 11  1  0
 11 12  2  0
 12 13  1  0
 12  7  1  0
 15 16  1  0
 16 17  2  0
 17 18  1  0
 19 18  2  0
 20 19  1  0
 21 20  2  0
 21 16  1  0
 22 27  1  0
 22 20  1  0
 23 22  1  0
 24 23  1  0
 24 25  1  0
 25 26  1  0
 26 27  1  0
 28 21  1  0
  3 29  1  0
  4 30  1  0
  5 31  1  0
  7 32  1  0
  7 33  1  0
  8 34  1  0
  9 35  1  0
 10 36  1  0
 14 37  1  0
 17 38  1  0
 18 39  1  0
 19 40  1  0
 23 41  1  0
 23 42  1  0
 24 43  1  0
 24 44  1  0
 25 45  1  0
 26 46  1  0
 26 47  1  0
 27 48  1  0
 27 49  1  0
 28 50  1  0
 28 51  1  0
M  ISO  8  29  14  30  14  31  14  32   8  33   8  34  14  35  14  36  14
M  ISO  8  37   3  38  14  39  14  40  14  41  13  42  13  43  13  44  13
M  ISO  5  45   5  46  13  47  13  48  13  49  13
M  END
>  <minimizedAffinity>  (1) 
-5.9314599

>  <minimizedRMSD>  (1) 
1.33429086

$$$$
