
     RDKit          3D

 32 33  0  0  0  0  0  0  0  0999 V2000
   46.9990   32.6770   44.8630 C   0  0  0  0  0  0  0  0  0  0  0  0
   46.5120   34.5030   43.2980 C   0  0  0  0  0  0  0  0  0  0  0  0
   46.2360   33.8760   44.5040 C   0  0  0  0  0  0  0  0  0  0  0  0
   45.2810   34.3230   45.3830 C   0  0  0  0  0  0  0  0  0  0  0  0
   44.5630   35.4500   45.0470 C   0  0  0  0  0  0  0  0  0  0  0  0
   44.7650   36.1290   43.8880 C   0  0  0  0  0  0  0  0  0  0  0  0
   45.7450   35.6210   43.0450 C   0  0  0  0  0  0  0  0  0  0  0  0
   47.7090   33.9730   42.1580 S   0  0  0  0  0  0  0  0  0  0  0  0
   49.1020   34.4440   42.5190 O   0  0  0  0  0  0  0  0  0  0  0  0
   47.4310   34.6390   40.8180 O   0  0  0  0  0  0  0  0  0  0  0  0
   46.2240   31.6760   45.7010 C   0  0  0  0  0  0  0  0  0  0  0  0
   47.4010   32.2640   47.8130 C   0  0  0  0  0  0  0  0  0  0  0  0
   47.0590   31.2950   46.8320 C   0  0  0  0  0  0  0  0  0  0  0  0
   47.5590   30.0050   47.0060 C   0  0  0  0  0  0  0  0  0  0  0  0
   48.3380   29.7500   48.0970 N   0  0  0  0  0  0  0  0  0  0  0  0
   48.6360   30.6880   48.9960 C   0  0  0  0  0  0  0  0  0  0  0  0
   48.1750   31.9360   48.8620 N   0  0  0  0  0  0  0  0  0  0  0  0
   49.4960   30.3220   50.1600 C   0  0  0  0  0  0  0  0  0  0  0  0
   47.8866   32.9902   45.4323 H   0  0  0  0  0  0  0  0  0  0  0  0
   47.2551   32.1705   43.9207 H   0  0  0  0  0  0  0  0  0  0  0  0
   45.0940   33.7957   46.3301 H   0  0  0  0  0  0  0  0  0  0  0  0
   43.7953   35.8145   45.7454 H   0  0  0  0  0  0  0  0  0  0  0  0
   44.1862   37.0287   43.6320 H   0  0  0  0  0  0  0  0  0  0  0  0
   45.9239   36.1534   42.0992 H   0  0  0  0  0  0  0  0  0  0  0  0
   47.6470   32.6045   42.1389 H   0  0  0  0  0  0  0  0  0  0  0  0
   45.2917   32.1342   46.0627 H   0  0  0  0  0  0  0  0  0  0  0  0
   45.9674   30.7913   45.0998 H   0  0  0  0  0  0  0  0  0  0  0  0
   47.0283   33.2941   47.7131 H   0  0  0  0  0  0  0  0  0  0  0  0
   47.3306   29.2107   46.2801 H   0  0  0  0  0  0  0  0  0  0  0  0
   48.9632   30.5488   51.0952 H   0  0  0  0  0  0  0  0  0  0  0  0
   49.7276   29.2473   50.1212 H   0  0  0  0  0  0  0  0  0  0  0  0
   50.4310   30.9002   50.1212 H   0  0  0  0  0  0  0  0  0  0  0  0
  1 11  1  0
  2  3  2  0
  3  1  1  0
  3  4  1  0
  5  4  2  0
  6  5  1  0
  7  2  1  0
  7  6  2  0
  8  9  2  0
  8  2  1  0
 10  8  2  0
 11 13  1  0
 12 17  2  0
 13 14  2  0
 13 12  1  0
 14 15  1  0
 15 16  2  0
 16 18  1  0
 17 16  1  0
  1 19  1  0
  1 20  1  0
  4 21  1  0
  5 22  1  0
  6 23  1  0
  7 24  1  0
  8 25  1  0
 11 26  1  0
 11 27  1  0
 12 28  1  0
 14 29  1  0
 18 30  1  0
 18 31  1  0
 18 32  1  0
M  ISO  8  19   8  20   8  21  14  22  14  23  14  24  14  25  11  26   8
M  ISO  6  27   8  28  14  29  14  30   8  31   8  32   8
M  END
>  <minimizedAffinity>  (1) 
-5.02013397

>  <minimizedRMSD>  (1) 
0.183930472

$$$$
