
     RDKit          3D

 48 50  0  0  0  0  0  0  0  0999 V2000
   46.2650   31.7060   45.4210 C   0  0  0  0  0  0  0  0  0  0  0  0
   47.2910   32.3920   47.6030 C   0  0  0  0  0  0  0  0  0  0  0  0
   47.0950   31.4020   46.5900 C   0  0  0  0  0  0  0  0  0  0  0  0
   47.7180   30.1620   46.7640 C   0  0  0  0  0  0  0  0  0  0  0  0
   48.4760   29.9720   47.8900 N   0  0  0  0  0  0  0  0  0  0  0  0
   48.6250   30.9230   48.7980 C   0  0  0  0  0  0  0  0  0  0  0  0
   48.0520   32.1150   48.6730 N   0  0  0  0  0  0  0  0  0  0  0  0
   49.4610   30.6090   50.0110 C   0  0  0  0  0  0  0  0  0  0  0  0
   50.5220   31.6240   50.2730 C   0  0  0  0  0  0  0  0  0  0  0  0
   51.6570   31.3320   49.2980 C   0  0  0  0  0  0  0  0  0  0  0  0
   52.8110   32.2740   49.4950 C   0  0  0  0  0  0  0  0  0  0  0  0
   53.2720   32.1710   50.9230 C   0  0  0  0  0  0  0  0  0  0  0  0
   52.1570   32.5830   51.8310 C   0  0  0  0  0  0  0  0  0  0  0  0
   51.0020   31.6140   51.6960 C   0  0  0  0  0  0  0  0  0  0  0  0
   46.9780   32.7670   44.6250 C   0  0  0  0  0  0  0  0  0  0  0  0
   46.4270   34.6420   43.1520 C   0  0  0  0  0  0  0  0  0  0  0  0
   46.2060   33.9670   44.3360 C   0  0  0  0  0  0  0  0  0  0  0  0
   45.2910   34.3660   45.2620 C   0  0  0  0  0  0  0  0  0  0  0  0
   44.5400   35.4980   45.0210 C   0  0  0  0  0  0  0  0  0  0  0  0
   44.6910   36.2270   43.8800 C   0  0  0  0  0  0  0  0  0  0  0  0
   45.6470   35.7670   42.9670 C   0  0  0  0  0  0  0  0  0  0  0  0
   47.5810   34.1760   41.9430 S   0  0  0  0  0  0  0  0  0  0  0  0
   48.8350   35.0310   41.9670 O   0  0  0  0  0  0  0  0  0  0  0  0
   46.9840   34.4380   40.5690 O   0  0  0  0  0  0  0  0  0  0  0  0
   46.1329   30.8019   44.8085 H   0  0  0  0  0  0  0  0  0  0  0  0
   45.2702   32.0573   45.7322 H   0  0  0  0  0  0  0  0  0  0  0  0
   46.8181   33.3803   47.5052 H   0  0  0  0  0  0  0  0  0  0  0  0
   47.6029   29.3617   46.0181 H   0  0  0  0  0  0  0  0  0  0  0  0
   48.7994   30.5606   50.8884 H   0  0  0  0  0  0  0  0  0  0  0  0
   49.9659   29.6505   49.8204 H   0  0  0  0  0  0  0  0  0  0  0  0
   50.1161   32.6350   50.1208 H   0  0  0  0  0  0  0  0  0  0  0  0
   51.2807   31.4384   48.2698 H   0  0  0  0  0  0  0  0  0  0  0  0
   52.0136   30.3077   49.4816 H   0  0  0  0  0  0  0  0  0  0  0  0
   53.6339   31.9994   48.8186 H   0  0  0  0  0  0  0  0  0  0  0  0
   52.4983   33.3050   49.2731 H   0  0  0  0  0  0  0  0  0  0  0  0
   53.5604   31.1324   51.1424 H   0  0  0  0  0  0  0  0  0  0  0  0
   54.1388   32.8298   51.0798 H   0  0  0  0  0  0  0  0  0  0  0  0
   52.5142   32.5829   52.8714 H   0  0  0  0  0  0  0  0  0  0  0  0
   51.8184   33.5927   51.5558 H   0  0  0  0  0  0  0  0  0  0  0  0
   50.1833   31.9200   52.3639 H   0  0  0  0  0  0  0  0  0  0  0  0
   51.3314   30.6011   51.9710 H   0  0  0  0  0  0  0  0  0  0  0  0
   47.8725   33.0688   45.1896 H   0  0  0  0  0  0  0  0  0  0  0  0
   47.1986   32.3109   43.6487 H   0  0  0  0  0  0  0  0  0  0  0  0
   45.1523   33.7930   46.1907 H   0  0  0  0  0  0  0  0  0  0  0  0
   43.8006   35.8201   45.7690 H   0  0  0  0  0  0  0  0  0  0  0  0
   44.0930   37.1297   43.6864 H   0  0  0  0  0  0  0  0  0  0  0  0
   45.7867   36.3405   42.0388 H   0  0  0  0  0  0  0  0  0  0  0  0
   47.8837   32.8633   42.1925 H   0  0  0  0  0  0  0  0  0  0  0  0
  1  3  1  0
  2  7  2  0
  3  4  2  0
  3  2  1  0
  4  5  1  0
  5  6  2  0
  6  8  1  0
  7  6  1  0
  8  9  1  0
  9 14  1  0
 10 11  1  0
 10  9  1  0
 11 12  1  0
 12 13  1  0
 14 13  1  0
 15  1  1  0
 16 17  2  0
 17 15  1  0
 17 18  1  0
 19 18  2  0
 20 19  1  0
 21 16  1  0
 21 20  2  0
 22 23  2  0
 22 16  1  0
 24 22  2  0
  1 25  1  0
  1 26  1  0
  2 27  1  0
  4 28  1  0
  8 29  1  0
  8 30  1  0
  9 31  1  0
 10 32  1  0
 10 33  1  0
 11 34  1  0
 11 35  1  0
 12 36  1  0
 12 37  1  0
 13 38  1  0
 13 39  1  0
 14 40  1  0
 14 41  1  0
 15 42  1  0
 15 43  1  0
 18 44  1  0
 19 45  1  0
 20 46  1  0
 21 47  1  0
 22 48  1  0
M  ISO  8  25   8  26   8  27  14  28  14  29   8  30   8  31  13  32  13
M  ISO  8  33  13  34  13  35  13  36  13  37  13  38  13  39  13  40  13
M  ISO  8  41  13  42   8  43   8  44  14  45  14  46  14  47  14  48  11
M  END
>  <minimizedAffinity>  (1) 
-5.83913565

>  <minimizedRMSD>  (1) 
1.0749985

$$$$
