
     RDKit          3D

 42 44  0  0  0  0  0  0  0  0999 V2000
   46.1500   31.6970   45.7540 C   0  0  0  0  0  0  0  0  0  0  0  0
   47.4280   32.3310   47.8070 C   0  0  0  0  0  0  0  0  0  0  0  0
   47.0420   31.3390   46.8620 C   0  0  0  0  0  0  0  0  0  0  0  0
   47.5420   30.0470   47.0310 C   0  0  0  0  0  0  0  0  0  0  0  0
   48.3640   29.8030   48.0790 N   0  0  0  0  0  0  0  0  0  0  0  0
   48.7020   30.7680   48.9470 C   0  0  0  0  0  0  0  0  0  0  0  0
   48.2500   32.0110   48.8240 N   0  0  0  0  0  0  0  0  0  0  0  0
   49.6090   30.3970   50.0890 C   0  0  0  0  0  0  0  0  0  0  0  0
   51.8650   29.9770   48.0560 Cl  0  0  0  0  0  0  0  0  0  0  0  0
   51.8800   31.1690   49.3480 C   0  0  0  0  0  0  0  0  0  0  0  0
   50.8030   31.2400   50.1790 C   0  0  0  0  0  0  0  0  0  0  0  0
   50.8550   32.1990   51.1910 C   0  0  0  0  0  0  0  0  0  0  0  0
   51.9360   33.0580   51.3760 C   0  0  0  0  0  0  0  0  0  0  0  0
   53.0130   32.9490   50.5040 C   0  0  0  0  0  0  0  0  0  0  0  0
   52.9940   31.9990   49.4800 C   0  0  0  0  0  0  0  0  0  0  0  0
   46.8970   32.6520   44.8590 C   0  0  0  0  0  0  0  0  0  0  0  0
   46.4590   34.4990   43.3070 C   0  0  0  0  0  0  0  0  0  0  0  0
   46.1720   33.8760   44.5100 C   0  0  0  0  0  0  0  0  0  0  0  0
   45.2440   34.3400   45.3910 C   0  0  0  0  0  0  0  0  0  0  0  0
   44.5560   35.4910   45.0690 C   0  0  0  0  0  0  0  0  0  0  0  0
   44.7670   36.1730   43.9150 C   0  0  0  0  0  0  0  0  0  0  0  0
   45.7310   35.6400   43.0590 C   0  0  0  0  0  0  0  0  0  0  0  0
   47.6330   33.9470   42.1570 S   0  0  0  0  0  0  0  0  0  0  0  0
   49.0490   34.3730   42.5200 O   0  0  0  0  0  0  0  0  0  0  0  0
   47.3800   34.6270   40.8200 O   0  0  0  0  0  0  0  0  0  0  0  0
   45.8712   30.7946   45.1902 H   0  0  0  0  0  0  0  0  0  0  0  0
   45.2292   32.1634   46.1342 H   0  0  0  0  0  0  0  0  0  0  0  0
   47.0541   33.3606   47.7062 H   0  0  0  0  0  0  0  0  0  0  0  0
   47.2741   29.2444   46.3281 H   0  0  0  0  0  0  0  0  0  0  0  0
   49.0440   30.4909   51.0281 H   0  0  0  0  0  0  0  0  0  0  0  0
   49.9508   29.3666   49.9116 H   0  0  0  0  0  0  0  0  0  0  0  0
   49.9993   32.2809   51.8774 H   0  0  0  0  0  0  0  0  0  0  0  0
   51.9373   33.8003   52.1878 H   0  0  0  0  0  0  0  0  0  0  0  0
   53.8825   33.6126   50.6206 H   0  0  0  0  0  0  0  0  0  0  0  0
   53.8442   31.9066   48.7882 H   0  0  0  0  0  0  0  0  0  0  0  0
   47.8267   32.9413   45.3707 H   0  0  0  0  0  0  0  0  0  0  0  0
   47.0646   32.1162   43.9131 H   0  0  0  0  0  0  0  0  0  0  0  0
   45.0479   33.8107   46.3352 H   0  0  0  0  0  0  0  0  0  0  0  0
   43.8052   35.8720   45.7769 H   0  0  0  0  0  0  0  0  0  0  0  0
   44.2117   37.0903   43.6695 H   0  0  0  0  0  0  0  0  0  0  0  0
   45.9235   36.1715   42.1154 H   0  0  0  0  0  0  0  0  0  0  0  0
   47.5201   32.5820   42.1272 H   0  0  0  0  0  0  0  0  0  0  0  0
  1  3  1  0
  2  7  2  0
  3  4  2  0
  3  2  1  0
  4  5  1  0
  5  6  2  0
  6  8  1  0
  7  6  1  0
  8 11  1  0
  9 10  1  0
 10 15  2  0
 10 11  1  0
 11 12  2  0
 12 13  1  0
 14 13  2  0
 15 14  1  0
 16  1  1  0
 17 18  2  0
 18 16  1  0
 18 19  1  0
 20 19  2  0
 21 20  1  0
 22 17  1  0
 22 21  2  0
 23 24  2  0
 23 17  1  0
 25 23  2  0
  1 26  1  0
  1 27  1  0
  2 28  1  0
  4 29  1  0
  8 30  1  0
  8 31  1  0
 12 32  1  0
 13 33  1  0
 14 34  1  0
 15 35  1  0
 16 36  1  0
 16 37  1  0
 19 38  1  0
 20 39  1  0
 21 40  1  0
 22 41  1  0
 23 42  1  0
M  ISO  8  26   8  27   8  28  14  29  14  30   8  31   8  32  14  33  14
M  ISO  8  34  14  35  14  36   8  37   8  38  14  39  14  40  14  41  14
M  ISO  1  42  11
M  END
>  <minimizedAffinity>  (1) 
-5.8294611

>  <minimizedRMSD>  (1) 
0.935064435

$$$$
