
     RDKit          3D

 45 47  0  0  0  0  0  0  0  0999 V2000
   46.3170   31.6940   45.5000 C   0  0  0  0  0  0  0  0  0  0  0  0
   47.3320   32.3770   47.6900 C   0  0  0  0  0  0  0  0  0  0  0  0
   47.1480   31.3990   46.6620 C   0  0  0  0  0  0  0  0  0  0  0  0
   47.7980   30.1630   46.8260 C   0  0  0  0  0  0  0  0  0  0  0  0
   48.5580   29.9760   47.9490 N   0  0  0  0  0  0  0  0  0  0  0  0
   48.6930   30.9170   48.8680 C   0  0  0  0  0  0  0  0  0  0  0  0
   48.0970   32.0990   48.7550 N   0  0  0  0  0  0  0  0  0  0  0  0
   49.5320   30.6170   50.0760 C   0  0  0  0  0  0  0  0  0  0  0  0
   50.4840   31.7120   50.4070 C   0  0  0  0  0  0  0  0  0  0  0  0
   51.6460   31.6110   49.4180 C   0  0  0  0  0  0  0  0  0  0  0  0
   52.9070   31.5290   50.2190 C   0  0  0  0  0  0  0  0  0  0  0  0
   52.4800   30.9510   51.5300 C   0  0  0  0  0  0  0  0  0  0  0  0
   51.1240   31.6080   51.7410 C   0  0  0  0  0  0  0  0  0  0  0  0
   47.0700   32.6780   44.6410 C   0  0  0  0  0  0  0  0  0  0  0  0
   46.7030   34.5660   43.1250 C   0  0  0  0  0  0  0  0  0  0  0  0
   46.3400   33.8810   44.2630 C   0  0  0  0  0  0  0  0  0  0  0  0
   45.3130   34.2700   45.0690 C   0  0  0  0  0  0  0  0  0  0  0  0
   44.5930   35.4020   44.7400 C   0  0  0  0  0  0  0  0  0  0  0  0
   44.8890   36.1380   43.6250 C   0  0  0  0  0  0  0  0  0  0  0  0
   45.9550   35.6850   42.8410 C   0  0  0  0  0  0  0  0  0  0  0  0
   48.0130   34.1060   42.0700 S   0  0  0  0  0  0  0  0  0  0  0  0
   49.3670   34.5660   42.6010 O   0  0  0  0  0  0  0  0  0  0  0  0
   47.8680   34.8620   40.7580 O   0  0  0  0  0  0  0  0  0  0  0  0
   46.1238   30.7715   44.9328 H   0  0  0  0  0  0  0  0  0  0  0  0
   45.3497   32.1142   45.8127 H   0  0  0  0  0  0  0  0  0  0  0  0
   46.8445   33.3595   47.6062 H   0  0  0  0  0  0  0  0  0  0  0  0
   47.6985   29.3680   46.0723 H   0  0  0  0  0  0  0  0  0  0  0  0
   48.8649   30.4600   50.9364 H   0  0  0  0  0  0  0  0  0  0  0  0
   50.1269   29.7198   49.8499 H   0  0  0  0  0  0  0  0  0  0  0  0
   49.8961   32.6412   50.3748 H   0  0  0  0  0  0  0  0  0  0  0  0
   51.6681   32.5006   48.7713 H   0  0  0  0  0  0  0  0  0  0  0  0
   51.5346   30.7249   48.7758 H   0  0  0  0  0  0  0  0  0  0  0  0
   53.6395   30.8737   49.7251 H   0  0  0  0  0  0  0  0  0  0  0  0
   53.3952   32.5082   50.3324 H   0  0  0  0  0  0  0  0  0  0  0  0
   52.3888   29.8563   51.4731 H   0  0  0  0  0  0  0  0  0  0  0  0
   53.1927   31.1340   52.3477 H   0  0  0  0  0  0  0  0  0  0  0  0
   51.2526   32.6092   52.1781 H   0  0  0  0  0  0  0  0  0  0  0  0
   50.5032   31.0175   52.4308 H   0  0  0  0  0  0  0  0  0  0  0  0
   47.9690   32.9888   45.1934 H   0  0  0  0  0  0  0  0  0  0  0  0
   47.2822   32.1502   43.6995 H   0  0  0  0  0  0  0  0  0  0  0  0
   45.0606   33.6907   45.9694 H   0  0  0  0  0  0  0  0  0  0  0  0
   43.7632   35.7189   45.3888 H   0  0  0  0  0  0  0  0  0  0  0  0
   44.3179   37.0397   43.3589 H   0  0  0  0  0  0  0  0  0  0  0  0
   46.2117   36.2605   41.9394 H   0  0  0  0  0  0  0  0  0  0  0  0
   47.9603   32.7420   41.9537 H   0  0  0  0  0  0  0  0  0  0  0  0
  1  3  1  0
  2  7  2  0
  3  4  2  0
  3  2  1  0
  4  5  1  0
  5  6  2  0
  6  8  1  0
  7  6  1  0
  8  9  1  0
  9 13  1  0
 10 11  1  0
 10  9  1  0
 11 12  1  0
 12 13  1  0
 14  1  1  0
 15 16  2  0
 16 14  1  0
 16 17  1  0
 18 17  2  0
 19 18  1  0
 20 15  1  0
 20 19  2  0
 21 22  2  0
 21 15  1  0
 23 21  2  0
  1 24  1  0
  1 25  1  0
  2 26  1  0
  4 27  1  0
  8 28  1  0
  8 29  1  0
  9 30  1  0
 10 31  1  0
 10 32  1  0
 11 33  1  0
 11 34  1  0
 12 35  1  0
 12 36  1  0
 13 37  1  0
 13 38  1  0
 14 39  1  0
 14 40  1  0
 17 41  1  0
 18 42  1  0
 19 43  1  0
 20 44  1  0
 21 45  1  0
M  ISO  8  24   8  25   8  26  14  27  14  28   8  29   8  30  13  31  13
M  ISO  8  32  13  33  13  34  13  35  13  36  13  37  13  38  13  39   8
M  ISO  6  40   8  41  14  42  14  43  14  44  14  45  11
M  END
>  <minimizedAffinity>  (1) 
-5.62858629

>  <minimizedRMSD>  (1) 
2.19233704

$$$$
