
     RDKit          3D

 33 35  0  0  1  0  0  0  0  0999 V2000
   48.2540   32.5760   40.4330 C   0  0  0  0  0  0  0  0  0  0  0  0
   49.4830   32.2810   40.1490 C   0  0  0  0  0  0  0  0  0  0  0  0
   49.8490   31.8800   38.8450 N   0  0  0  0  0  0  0  0  0  0  0  0
   50.5730   30.9430   38.0160 C   0  0  0  0  0  0  0  0  0  0  0  0
   51.6070   30.2210   38.1740 O   0  0  0  0  0  0  0  0  0  0  0  0
   49.5470   31.2500   36.9650 C   0  0  0  0  0  0  0  0  0  0  0  0
   49.4000   32.6000   37.6370 C   0  0  1  0  0  0  0  0  0  0  0  0
   47.7420   33.2210   37.8880 S   0  0  0  0  0  0  0  0  0  0  0  0
   47.1400   32.5220   39.4590 C   0  0  0  0  0  0  0  0  0  0  0  0
   47.8950   32.9920   41.7870 C   0  0  0  0  0  0  0  0  0  0  0  0
   47.2140   34.7070   41.7630 S   0  0  0  0  0  0  0  0  0  0  0  0
   44.5630   36.0550   44.5300 C   0  0  0  0  0  0  0  0  0  0  0  0
   45.3510   35.9700   43.3500 C   0  0  0  0  0  0  0  0  0  0  0  0
   46.2090   34.8450   43.2360 C   0  0  0  0  0  0  0  0  0  0  0  0
   46.2260   33.9340   44.2450 N   0  0  0  0  0  0  0  0  0  0  0  0
   45.4620   34.0700   45.3270 C   0  0  0  0  0  0  0  0  0  0  0  0
   44.6360   35.1110   45.4840 N   0  0  0  0  0  0  0  0  0  0  0  0
   45.5000   33.0970   46.3700 N   0  0  0  0  0  0  0  0  0  0  0  0
   50.5170   32.3620   41.1850 C   0  0  0  0  0  0  0  0  0  0  0  0
   51.7230   32.0090   41.0200 O   0  0  0  0  0  0  0  0  0  0  0  0
   51.2280   32.5560   42.3240 O   0  0  0  0  0  0  0  0  0  0  0  0
   48.6481   30.6168   36.9969 H   0  0  0  0  0  0  0  0  0  0  0  0
   49.7582   31.1485   35.8902 H   0  0  0  0  0  0  0  0  0  0  0  0
   49.8566   33.4953   37.1898 H   0  0  0  0  0  0  0  0  0  0  0  0
   46.2893   33.1124   39.8300 H   0  0  0  0  0  0  0  0  0  0  0  0
   46.8045   31.4843   39.3151 H   0  0  0  0  0  0  0  0  0  0  0  0
   47.1364   32.3048   42.1898 H   0  0  0  0  0  0  0  0  0  0  0  0
   48.7937   32.9700   42.4209 H   0  0  0  0  0  0  0  0  0  0  0  0
   43.8817   36.9081   44.6647 H   0  0  0  0  0  0  0  0  0  0  0  0
   45.2985   36.7379   42.5642 H   0  0  0  0  0  0  0  0  0  0  0  0
   44.9050   33.2114   47.2030 H   0  0  0  0  0  0  0  0  0  0  0  0
   46.1224   32.2802   46.2899 H   0  0  0  0  0  0  0  0  0  0  0  0
   52.1909   32.3276   42.3514 H   0  0  0  0  0  0  0  0  0  0  0  0
  1 10  1  0
  2  1  2  0
  2 19  1  0
  3  2  1  0
  4  5  2  0
  4  3  1  0
  6  7  1  0
  6  4  1  0
  7  8  1  0
  7  3  1  0
  8  9  1  0
  9  1  1  0
 11 10  1  0
 11 14  1  0
 12 17  2  0
 13 12  1  0
 14 13  2  0
 14 15  1  0
 15 16  2  0
 16 17  1  0
 16 18  1  0
 19 21  1  0
 20 19  2  0
  6 22  1  0
  6 23  1  0
  7 24  1  6
  9 25  1  0
  9 26  1  0
 10 27  1  0
 10 28  1  0
 12 29  1  0
 13 30  1  0
 18 31  1  0
 18 32  1  0
 21 33  1  0
M  ISO  8  22  13  23  13  24  13  25  13  26  13  27   8  28   8  29  14
M  ISO  2  30  14  33   3
M  END
>  <minimizedAffinity>  (1) 
-4.91054487

>  <minimizedRMSD>  (1) 
0.127437398

$$$$
