
     RDKit          3D

 51 54  0  0  1  0  0  0  0  0999 V2000
   46.0770   31.8020   45.2180 C   0  0  0  0  0  0  0  0  0  0  0  0
   47.0730   32.5420   47.3580 C   0  0  0  0  0  0  0  0  0  0  0  0
   46.9610   31.5560   46.3520 C   0  0  0  0  0  0  0  0  0  0  0  0
   47.6750   30.3840   46.5160 C   0  0  0  0  0  0  0  0  0  0  0  0
   48.4370   30.2420   47.6260 N   0  0  0  0  0  0  0  0  0  0  0  0
   48.5190   31.1860   48.5580 C   0  0  0  0  0  0  0  0  0  0  0  0
   47.8420   32.3510   48.4440 N   0  0  0  0  0  0  0  0  0  0  0  0
   49.3840   30.9350   49.7590 C   0  0  0  0  0  0  0  0  0  0  0  0
   50.6710   31.6120   49.7020 C   0  0  0  0  0  0  0  0  0  0  0  0
   51.8500   31.0710   49.2160 C   0  0  0  0  0  0  0  0  0  0  0  0
   52.8440   32.0050   49.3240 C   0  0  0  0  0  0  0  0  0  0  0  0
   52.2370   33.0960   49.8780 N   0  0  0  0  0  0  0  0  0  0  0  0
   50.9450   32.8670   50.1040 N   0  0  0  0  0  0  0  0  0  0  0  0
   46.7520   32.7550   44.2900 C   0  0  0  0  0  0  0  0  0  0  0  0
   46.4600   34.7980   42.9970 C   0  0  0  0  0  0  0  0  0  0  0  0
   46.0870   34.0570   44.1100 C   0  0  0  0  0  0  0  0  0  0  0  0
   45.1630   34.4200   45.0120 C   0  0  0  0  0  0  0  0  0  0  0  0
   44.5280   35.6230   44.8310 C   0  0  0  0  0  0  0  0  0  0  0  0
   44.8120   36.4310   43.7740 C   0  0  0  0  0  0  0  0  0  0  0  0
   45.7680   36.0030   42.8830 C   0  0  0  0  0  0  0  0  0  0  0  0
   47.6010   34.3920   41.8000 S   0  0  0  0  0  0  0  0  0  0  0  0
   48.4490   35.6620   41.4560 O   0  0  0  0  0  0  0  0  0  0  0  0
   46.8890   34.1010   40.5060 O   0  0  0  0  0  0  0  0  0  0  0  0
   49.3380   33.0440   40.5710 N   0  0  0  0  0  0  0  0  0  0  0  0
   50.4270   32.1250   40.8390 C   0  0  0  0  0  0  0  0  0  0  0  0
   51.0620   32.5830   42.1570 C   0  0  0  0  0  0  0  0  0  0  0  0
   50.1960   33.8180   42.4320 C   0  0  0  0  0  0  0  0  0  0  0  0
   48.8540   33.2840   41.9450 C   0  0  1  0  0  0  0  0  0  0  0  0
   45.8728   30.8563   44.6947 H   0  0  0  0  0  0  0  0  0  0  0  0
   45.1246   32.2270   45.5677 H   0  0  0  0  0  0  0  0  0  0  0  0
   46.5190   33.4862   47.2502 H   0  0  0  0  0  0  0  0  0  0  0  0
   47.6253   29.5848   45.7618 H   0  0  0  0  0  0  0  0  0  0  0  0
   48.8469   31.2838   50.6534 H   0  0  0  0  0  0  0  0  0  0  0  0
   49.5889   29.8547   49.7887 H   0  0  0  0  0  0  0  0  0  0  0  0
   51.9679   30.0557   48.8094 H   0  0  0  0  0  0  0  0  0  0  0  0
   53.8987   31.9004   49.0297 H   0  0  0  0  0  0  0  0  0  0  0  0
   52.7169   33.9816   50.0932 H   0  0  0  0  0  0  0  0  0  0  0  0
   47.7637   32.9440   44.6781 H   0  0  0  0  0  0  0  0  0  0  0  0
   46.7337   32.2720   43.3019 H   0  0  0  0  0  0  0  0  0  0  0  0
   44.9220   33.7742   45.8692 H   0  0  0  0  0  0  0  0  0  0  0  0
   43.7689   35.9426   45.5602 H   0  0  0  0  0  0  0  0  0  0  0  0
   44.2953   37.3924   43.6370 H   0  0  0  0  0  0  0  0  0  0  0  0
   46.0015   36.6523   42.0263 H   0  0  0  0  0  0  0  0  0  0  0  0
   49.6715   33.9115   40.1271 H   0  0  0  0  0  0  0  0  0  0  0  0
   50.0438   31.0986   40.9373 H   0  0  0  0  0  0  0  0  0  0  0  0
   51.1613   32.1255   40.0200 H   0  0  0  0  0  0  0  0  0  0  0  0
   50.9605   31.8251   42.9477 H   0  0  0  0  0  0  0  0  0  0  0  0
   52.1457   32.7674   42.1181 H   0  0  0  0  0  0  0  0  0  0  0  0
   50.1735   34.0758   43.5011 H   0  0  0  0  0  0  0  0  0  0  0  0
   50.5355   34.7488   41.9541 H   0  0  0  0  0  0  0  0  0  0  0  0
   48.4274   32.5011   42.5892 H   0  0  0  0  0  0  0  0  0  0  0  0
  1  3  1  0
  2  7  2  0
  3  4  2  0
  3  2  1  0
  4  5  1  0
  5  6  2  0
  6  8  1  0
  7  6  1  0
  9  8  1  0
  9 13  2  0
 10 11  2  0
 10  9  1  0
 11 12  1  0
 12 13  1  0
 14  1  1  0
 15 16  1  0
 16 14  1  0
 16 17  2  0
 18 17  1  0
 19 18  2  0
 20 15  2  0
 20 19  1  0
 21 15  1  0
 22 21  2  0
 23 21  2  0
 24 25  1  0
 24 28  1  0
 25 26  1  0
 26 27  1  0
 28 21  1  0
 28 27  1  0
  1 29  1  0
  1 30  1  0
  2 31  1  0
  4 32  1  0
  8 33  1  0
  8 34  1  0
 10 35  1  0
 11 36  1  0
 12 37  1  0
 14 38  1  0
 14 39  1  0
 17 40  1  0
 18 41  1  0
 19 42  1  0
 20 43  1  0
 24 44  1  0
 25 45  1  0
 25 46  1  0
 26 47  1  0
 26 48  1  0
 27 49  1  0
 27 50  1  0
 28 51  1  1
M  ISO  8  29   8  30   8  31  14  32  14  33   8  34   8  35  14  36  14
M  ISO  8  37   9  38   8  39   8  40  14  41  14  42  14  43  14  44   5
M  ISO  7  45  13  46  13  47  13  48  13  49  13  50  13  51  13
M  END
>  <minimizedAffinity>  (1) 
-6.67301559

>  <minimizedRMSD>  (1) 
0.848626256

$$$$
