
     RDKit          3D

 49 52  0  0  0  0  0  0  0  0999 V2000
   46.6190   32.4270   44.6740 C   0  0  0  0  0  0  0  0  0  0  0  0
   46.0620   34.2220   43.1230 C   0  0  0  0  0  0  0  0  0  0  0  0
   45.9630   33.7070   44.4120 C   0  0  0  0  0  0  0  0  0  0  0  0
   45.2990   34.2940   45.4250 C   0  0  0  0  0  0  0  0  0  0  0  0
   44.6630   35.4870   45.1980 C   0  0  0  0  0  0  0  0  0  0  0  0
   44.6880   36.0850   43.9740 C   0  0  0  0  0  0  0  0  0  0  0  0
   45.3840   35.4430   42.9620 C   0  0  0  0  0  0  0  0  0  0  0  0
   46.8430   33.5030   41.7890 S   0  0  0  0  0  0  0  0  0  0  0  0
   46.9380   34.5900   40.6370 O   0  0  0  0  0  0  0  0  0  0  0  0
   45.9810   32.4530   41.1790 O   0  0  0  0  0  0  0  0  0  0  0  0
   49.1400   34.9990   43.0520 F   0  0  0  0  0  0  0  0  0  0  0  0
   49.5560   33.8570   42.4090 C   0  0  0  0  0  0  0  0  0  0  0  0
   48.5210   33.1530   41.8330 C   0  0  0  0  0  0  0  0  0  0  0  0
   48.9780   31.9880   41.1790 C   0  0  0  0  0  0  0  0  0  0  0  0
   50.2850   31.5550   41.0920 C   0  0  0  0  0  0  0  0  0  0  0  0
   51.2270   32.3480   41.7090 C   0  0  0  0  0  0  0  0  0  0  0  0
   50.8850   33.5010   42.3720 C   0  0  0  0  0  0  0  0  0  0  0  0
   45.9840   31.5690   45.7320 C   0  0  0  0  0  0  0  0  0  0  0  0
   47.2560   32.4040   47.6840 C   0  0  0  0  0  0  0  0  0  0  0  0
   46.9730   31.3530   46.7860 C   0  0  0  0  0  0  0  0  0  0  0  0
   47.6290   30.1490   46.9670 C   0  0  0  0  0  0  0  0  0  0  0  0
   48.5040   30.0430   47.9950 N   0  0  0  0  0  0  0  0  0  0  0  0
   48.7490   31.0510   48.8280 C   0  0  0  0  0  0  0  0  0  0  0  0
   48.1350   32.2480   48.6930 N   0  0  0  0  0  0  0  0  0  0  0  0
   49.7270   30.8370   49.9510 C   0  0  0  0  0  0  0  0  0  0  0  0
   50.9710   31.5670   49.7800 C   0  0  0  0  0  0  0  0  0  0  0  0
   52.1040   31.0820   49.1370 C   0  0  0  0  0  0  0  0  0  0  0  0
   53.0740   32.0470   49.1710 C   0  0  0  0  0  0  0  0  0  0  0  0
   52.5020   33.0950   49.8370 N   0  0  0  0  0  0  0  0  0  0  0  0
   51.2560   32.8110   50.1990 N   0  0  0  0  0  0  0  0  0  0  0  0
   47.6533   32.6357   44.9851 H   0  0  0  0  0  0  0  0  0  0  0  0
   46.5390   31.8542   43.7383 H   0  0  0  0  0  0  0  0  0  0  0  0
   45.2672   33.8240   46.4190 H   0  0  0  0  0  0  0  0  0  0  0  0
   44.1203   35.9724   46.0225 H   0  0  0  0  0  0  0  0  0  0  0  0
   44.1750   37.0416   43.7957 H   0  0  0  0  0  0  0  0  0  0  0  0
   45.4074   35.9187   41.9705 H   0  0  0  0  0  0  0  0  0  0  0  0
   48.2159   31.3634   40.6901 H   0  0  0  0  0  0  0  0  0  0  0  0
   50.5586   30.6311   40.5613 H   0  0  0  0  0  0  0  0  0  0  0  0
   52.2848   32.0489   41.6695 H   0  0  0  0  0  0  0  0  0  0  0  0
   51.6510   34.1220   42.8594 H   0  0  0  0  0  0  0  0  0  0  0  0
   45.1011   32.0779   46.1461 H   0  0  0  0  0  0  0  0  0  0  0  0
   45.6621   30.6078   45.3047 H   0  0  0  0  0  0  0  0  0  0  0  0
   46.7480   33.3714   47.5575 H   0  0  0  0  0  0  0  0  0  0  0  0
   47.4447   29.2993   46.2932 H   0  0  0  0  0  0  0  0  0  0  0  0
   49.2568   31.1646   50.8899 H   0  0  0  0  0  0  0  0  0  0  0  0
   49.9781   29.7661   49.9630 H   0  0  0  0  0  0  0  0  0  0  0  0
   52.2043   30.0878   48.6772 H   0  0  0  0  0  0  0  0  0  0  0  0
   54.0904   31.9915   48.7541 H   0  0  0  0  0  0  0  0  0  0  0  0
   52.9756   33.9885   50.0326 H   0  0  0  0  0  0  0  0  0  0  0  0
  1 18  1  0
  2  3  1  0
  3  1  1  0
  3  4  2  0
  5  4  1  0
  6  5  2  0
  7  2  2  0
  7  6  1  0
  8 13  1  0
  8  2  1  0
  9  8  2  0
 10  8  2  0
 12 11  1  0
 13 12  2  0
 14 13  1  0
 15 14  2  0
 15 16  1  0
 16 17  2  0
 17 12  1  0
 18 20  1  0
 19 24  2  0
 20 21  2  0
 20 19  1  0
 21 22  1  0
 22 23  2  0
 23 25  1  0
 24 23  1  0
 26 25  1  0
 26 30  2  0
 27 28  2  0
 27 26  1  0
 28 29  1  0
 29 30  1  0
  1 31  1  0
  1 32  1  0
  4 33  1  0
  5 34  1  0
  6 35  1  0
  7 36  1  0
 14 37  1  0
 15 38  1  0
 16 39  1  0
 17 40  1  0
 18 41  1  0
 18 42  1  0
 19 43  1  0
 21 44  1  0
 25 45  1  0
 25 46  1  0
 27 47  1  0
 28 48  1  0
 29 49  1  0
M  ISO  8  31   8  32   8  33  14  34  14  35  14  36  14  37  14  38  14
M  ISO  8  39  14  40  14  41   8  42   8  43  14  44  14  45   8  46   8
M  ISO  3  47  14  48  14  49   9
M  END
>  <minimizedAffinity>  (1) 
-6.64592075

>  <minimizedRMSD>  (1) 
0.981240749

$$$$
