
     RDKit          3D

 46 49  0  0  0  0  0  0  0  0999 V2000
   46.6630   32.4610   44.5720 C   0  0  0  0  0  0  0  0  0  0  0  0
   46.2660   34.3160   43.0510 C   0  0  0  0  0  0  0  0  0  0  0  0
   46.0340   33.7750   44.3110 C   0  0  0  0  0  0  0  0  0  0  0  0
   45.2760   34.3060   45.2770 C   0  0  0  0  0  0  0  0  0  0  0  0
   44.6550   35.4980   45.0190 C   0  0  0  0  0  0  0  0  0  0  0  0
   44.7860   36.1450   43.8250 C   0  0  0  0  0  0  0  0  0  0  0  0
   45.5880   35.5390   42.8650 C   0  0  0  0  0  0  0  0  0  0  0  0
   47.2190   33.6910   41.7840 S   0  0  0  0  0  0  0  0  0  0  0  0
   47.2690   34.7150   40.6150 O   0  0  0  0  0  0  0  0  0  0  0  0
   46.5210   32.5060   41.1630 O   0  0  0  0  0  0  0  0  0  0  0  0
   48.9210   33.4650   42.0040 C   0  0  0  0  0  0  0  0  0  0  0  0
   49.8650   34.3330   42.5980 C   0  0  0  0  0  0  0  0  0  0  0  0
   51.1270   33.9000   42.6550 N   0  0  0  0  0  0  0  0  0  0  0  0
   51.0380   32.6990   42.0810 C   0  0  0  0  0  0  0  0  0  0  0  0
   49.8060   32.4850   41.7300 N   0  0  0  0  0  0  0  0  0  0  0  0
   46.0300   31.6170   45.6310 C   0  0  0  0  0  0  0  0  0  0  0  0
   47.1940   32.4290   47.6560 C   0  0  0  0  0  0  0  0  0  0  0  0
   46.9960   31.4090   46.7010 C   0  0  0  0  0  0  0  0  0  0  0  0
   47.7290   30.2420   46.8550 C   0  0  0  0  0  0  0  0  0  0  0  0
   48.5850   30.1350   47.9000 N   0  0  0  0  0  0  0  0  0  0  0  0
   48.7390   31.1210   48.7770 C   0  0  0  0  0  0  0  0  0  0  0  0
   48.0550   32.2840   48.6810 N   0  0  0  0  0  0  0  0  0  0  0  0
   49.6930   30.9060   49.9230 C   0  0  0  0  0  0  0  0  0  0  0  0
   50.9490   31.6190   49.7700 C   0  0  0  0  0  0  0  0  0  0  0  0
   52.0900   31.1060   49.1670 C   0  0  0  0  0  0  0  0  0  0  0  0
   53.0690   32.0660   49.2060 C   0  0  0  0  0  0  0  0  0  0  0  0
   52.4890   33.1320   49.8330 N   0  0  0  0  0  0  0  0  0  0  0  0
   51.2280   32.8710   50.1710 N   0  0  0  0  0  0  0  0  0  0  0  0
   47.7064   32.6431   44.8691 H   0  0  0  0  0  0  0  0  0  0  0  0
   46.5465   31.8919   43.6379 H   0  0  0  0  0  0  0  0  0  0  0  0
   45.1558   33.8011   46.2469 H   0  0  0  0  0  0  0  0  0  0  0  0
   44.0283   35.9503   45.8017 H   0  0  0  0  0  0  0  0  0  0  0  0
   44.2801   37.1023   43.6310 H   0  0  0  0  0  0  0  0  0  0  0  0
   45.7015   36.0468   41.8959 H   0  0  0  0  0  0  0  0  0  0  0  0
   49.5744   35.3172   42.9940 H   0  0  0  0  0  0  0  0  0  0  0  0
   51.9563   34.3721   43.0427 H   0  0  0  0  0  0  0  0  0  0  0  0
   51.8747   32.0012   41.9292 H   0  0  0  0  0  0  0  0  0  0  0  0
   45.1408   32.1277   46.0291 H   0  0  0  0  0  0  0  0  0  0  0  0
   45.7259   30.6487   45.2069 H   0  0  0  0  0  0  0  0  0  0  0  0
   46.6295   33.3682   47.5604 H   0  0  0  0  0  0  0  0  0  0  0  0
   47.6171   29.4146   46.1388 H   0  0  0  0  0  0  0  0  0  0  0  0
   49.2082   31.2486   50.8491 H   0  0  0  0  0  0  0  0  0  0  0  0
   49.9306   29.8323   49.9504 H   0  0  0  0  0  0  0  0  0  0  0  0
   52.1914   30.1007   48.7321 H   0  0  0  0  0  0  0  0  0  0  0  0
   54.0956   31.9934   48.8177 H   0  0  0  0  0  0  0  0  0  0  0  0
   52.9669   34.0249   50.0206 H   0  0  0  0  0  0  0  0  0  0  0  0
  1 16  1  0
  2  3  1  0
  3  1  1  0
  3  4  2  0
  5  4  1  0
  6  5  2  0
  7  2  2  0
  7  6  1  0
  8 11  1  0
  8  2  1  0
  9  8  2  0
 10  8  2  0
 11 12  2  0
 12 13  1  0
 14 13  1  0
 15 11  1  0
 15 14  2  0
 16 18  1  0
 17 22  2  0
 18 19  2  0
 18 17  1  0
 19 20  1  0
 20 21  2  0
 21 23  1  0
 22 21  1  0
 24 23  1  0
 24 28  2  0
 25 26  2  0
 25 24  1  0
 26 27  1  0
 27 28  1  0
  1 29  1  0
  1 30  1  0
  4 31  1  0
  5 32  1  0
  6 33  1  0
  7 34  1  0
 12 35  1  0
 13 36  1  0
 14 37  1  0
 16 38  1  0
 16 39  1  0
 17 40  1  0
 19 41  1  0
 23 42  1  0
 23 43  1  0
 25 44  1  0
 26 45  1  0
 27 46  1  0
M  ISO  8  29   8  30   8  31  14  32  14  33  14  34  14  35  14  36   9
M  ISO  8  37  14  38   8  39   8  40  14  41  14  42   8  43   8  44  14
M  ISO  2  45  14  46   9
M  END
>  <minimizedAffinity>  (1) 
-6.57380533

>  <minimizedRMSD>  (1) 
0.85502845

$$$$
