
     RDKit          3D

 49 52  0  0  0  0  0  0  0  0999 V2000
   46.5410   32.4270   44.6540 C   0  0  0  0  0  0  0  0  0  0  0  0
   45.9850   34.2250   43.1120 C   0  0  0  0  0  0  0  0  0  0  0  0
   45.9030   33.7280   44.4060 C   0  0  0  0  0  0  0  0  0  0  0  0
   45.2680   34.3260   45.4270 C   0  0  0  0  0  0  0  0  0  0  0  0
   44.6420   35.5200   45.2090 C   0  0  0  0  0  0  0  0  0  0  0  0
   44.6450   36.1120   43.9790 C   0  0  0  0  0  0  0  0  0  0  0  0
   45.3170   35.4520   42.9560 C   0  0  0  0  0  0  0  0  0  0  0  0
   46.7580   33.5190   41.7700 S   0  0  0  0  0  0  0  0  0  0  0  0
   46.8150   34.5670   40.5990 O   0  0  0  0  0  0  0  0  0  0  0  0
   45.8960   32.4420   41.1900 O   0  0  0  0  0  0  0  0  0  0  0  0
   48.4430   33.1640   41.8200 C   0  0  0  0  0  0  0  0  0  0  0  0
   49.0820   32.0320   41.2720 C   0  0  0  0  0  0  0  0  0  0  0  0
   50.3930   31.6990   41.2640 C   0  0  0  0  0  0  0  0  0  0  0  0
   51.2410   32.5900   41.8810 C   0  0  0  0  0  0  0  0  0  0  0  0
   50.7780   33.7460   42.4680 C   0  0  0  0  0  0  0  0  0  0  0  0
   49.4230   33.9810   42.4130 C   0  0  0  0  0  0  0  0  0  0  0  0
   45.9300   31.5880   45.7280 C   0  0  0  0  0  0  0  0  0  0  0  0
   47.2190   32.4130   47.6680 C   0  0  0  0  0  0  0  0  0  0  0  0
   46.9280   31.3650   46.7670 C   0  0  0  0  0  0  0  0  0  0  0  0
   47.5880   30.1620   46.9470 C   0  0  0  0  0  0  0  0  0  0  0  0
   48.4660   30.0510   47.9670 N   0  0  0  0  0  0  0  0  0  0  0  0
   48.7170   31.0560   48.8020 C   0  0  0  0  0  0  0  0  0  0  0  0
   48.1020   32.2530   48.6700 N   0  0  0  0  0  0  0  0  0  0  0  0
   49.7000   30.8390   49.9180 C   0  0  0  0  0  0  0  0  0  0  0  0
   50.9630   31.5340   49.7220 C   0  0  0  0  0  0  0  0  0  0  0  0
   52.0740   31.0250   49.0770 C   0  0  0  0  0  0  0  0  0  0  0  0
   53.0670   31.9650   49.0850 C   0  0  0  0  0  0  0  0  0  0  0  0
   52.5210   33.0320   49.7430 N   0  0  0  0  0  0  0  0  0  0  0  0
   51.2690   32.7810   50.1240 N   0  0  0  0  0  0  0  0  0  0  0  0
   47.5893   32.6142   44.9297 H   0  0  0  0  0  0  0  0  0  0  0  0
   46.4133   31.8540   43.7238 H   0  0  0  0  0  0  0  0  0  0  0  0
   45.2523   33.8612   46.4238 H   0  0  0  0  0  0  0  0  0  0  0  0
   44.1238   36.0157   46.0431 H   0  0  0  0  0  0  0  0  0  0  0  0
   44.1367   37.0717   43.8042 H   0  0  0  0  0  0  0  0  0  0  0  0
   45.3265   35.9202   41.9607 H   0  0  0  0  0  0  0  0  0  0  0  0
   48.4138   31.3120   40.7769 H   0  0  0  0  0  0  0  0  0  0  0  0
   50.7583   30.7741   40.7938 H   0  0  0  0  0  0  0  0  0  0  0  0
   52.3190   32.3725   41.9059 H   0  0  0  0  0  0  0  0  0  0  0  0
   51.4625   34.4524   42.9604 H   0  0  0  0  0  0  0  0  0  0  0  0
   49.0673   34.9091   42.8842 H   0  0  0  0  0  0  0  0  0  0  0  0
   45.0600   32.1083   46.1551 H   0  0  0  0  0  0  0  0  0  0  0  0
   45.5994   30.6253   45.3110 H   0  0  0  0  0  0  0  0  0  0  0  0
   46.7122   33.3818   47.5476 H   0  0  0  0  0  0  0  0  0  0  0  0
   47.4012   29.3132   46.2727 H   0  0  0  0  0  0  0  0  0  0  0  0
   49.2477   31.1963   50.8549 H   0  0  0  0  0  0  0  0  0  0  0  0
   49.9241   29.7625   49.9471 H   0  0  0  0  0  0  0  0  0  0  0  0
   52.1478   30.0233   48.6286 H   0  0  0  0  0  0  0  0  0  0  0  0
   54.0774   31.8816   48.6582 H   0  0  0  0  0  0  0  0  0  0  0  0
   53.0151   33.9179   49.9216 H   0  0  0  0  0  0  0  0  0  0  0  0
  1 17  1  0
  2  3  1  0
  3  1  1  0
  3  4  2  0
  5  4  1  0
  6  5  2  0
  7  2  2  0
  7  6  1  0
  8 11  1  0
  8  2  1  0
  9  8  2  0
 10  8  2  0
 11 16  1  0
 12 11  2  0
 13 12  1  0
 13 14  2  0
 14 15  1  0
 16 15  2  0
 17 19  1  0
 18 23  2  0
 19 20  2  0
 19 18  1  0
 20 21  1  0
 21 22  2  0
 22 24  1  0
 23 22  1  0
 25 24  1  0
 25 29  2  0
 26 27  2  0
 26 25  1  0
 27 28  1  0
 28 29  1  0
  1 30  1  0
  1 31  1  0
  4 32  1  0
  5 33  1  0
  6 34  1  0
  7 35  1  0
 12 36  1  0
 13 37  1  0
 14 38  1  0
 15 39  1  0
 16 40  1  0
 17 41  1  0
 17 42  1  0
 18 43  1  0
 20 44  1  0
 24 45  1  0
 24 46  1  0
 26 47  1  0
 27 48  1  0
 28 49  1  0
M  ISO  8  30   8  31   8  32  14  33  14  34  14  35  14  36  14  37  14
M  ISO  8  38  14  39  14  40  14  41   8  42   8  43  14  44  14  45   8
M  ISO  4  46   8  47  14  48  14  49   9
M  END
>  <minimizedAffinity>  (1) 
-6.40020514

>  <minimizedRMSD>  (1) 
1.05628967

$$$$
