
     RDKit          3D

 46 49  0  0  0  0  0  0  0  0999 V2000
   46.1580   31.6550   45.4200 C   0  0  0  0  0  0  0  0  0  0  0  0
   47.2060   32.4470   47.5210 C   0  0  0  0  0  0  0  0  0  0  0  0
   47.0650   31.4410   46.5450 C   0  0  0  0  0  0  0  0  0  0  0  0
   47.7940   30.2770   46.7130 C   0  0  0  0  0  0  0  0  0  0  0  0
   48.6020   30.1570   47.7990 N   0  0  0  0  0  0  0  0  0  0  0  0
   48.7040   31.1320   48.6960 C   0  0  0  0  0  0  0  0  0  0  0  0
   48.0180   32.2900   48.5830 N   0  0  0  0  0  0  0  0  0  0  0  0
   49.6050   30.9260   49.8890 C   0  0  0  0  0  0  0  0  0  0  0  0
   50.8680   31.6350   49.7940 C   0  0  0  0  0  0  0  0  0  0  0  0
   52.0520   31.1170   49.2910 C   0  0  0  0  0  0  0  0  0  0  0  0
   53.0220   32.0780   49.3600 C   0  0  0  0  0  0  0  0  0  0  0  0
   52.3990   33.1580   49.9040 N   0  0  0  0  0  0  0  0  0  0  0  0
   51.1170   32.9000   50.1640 N   0  0  0  0  0  0  0  0  0  0  0  0
   46.7850   32.6180   44.4750 C   0  0  0  0  0  0  0  0  0  0  0  0
   46.1860   34.4430   42.9600 C   0  0  0  0  0  0  0  0  0  0  0  0
   46.0610   33.8760   44.2150 C   0  0  0  0  0  0  0  0  0  0  0  0
   45.3240   34.3740   45.2230 C   0  0  0  0  0  0  0  0  0  0  0  0
   44.6380   35.5400   44.9880 C   0  0  0  0  0  0  0  0  0  0  0  0
   44.6810   36.1920   43.7860 C   0  0  0  0  0  0  0  0  0  0  0  0
   45.4640   35.6140   42.7970 C   0  0  0  0  0  0  0  0  0  0  0  0
   47.0770   33.8450   41.6450 S   0  0  0  0  0  0  0  0  0  0  0  0
   46.3790   34.2080   40.2990 O   0  0  0  0  0  0  0  0  0  0  0  0
   47.0830   32.3510   41.6250 O   0  0  0  0  0  0  0  0  0  0  0  0
   48.6420   34.4470   41.2850 C   0  0  0  0  0  0  0  0  0  0  0  0
   49.0620   35.8860   41.6610 C   0  0  0  0  0  0  0  0  0  0  0  0
   49.4190   34.8080   42.5780 C   0  0  0  0  0  0  0  0  0  0  0  0
   45.9741   30.6997   44.9065 H   0  0  0  0  0  0  0  0  0  0  0  0
   45.2007   32.0572   45.7830 H   0  0  0  0  0  0  0  0  0  0  0  0
   46.6389   33.3833   47.4126 H   0  0  0  0  0  0  0  0  0  0  0  0
   47.7206   29.4613   45.9787 H   0  0  0  0  0  0  0  0  0  0  0  0
   49.0767   31.2761   50.7881 H   0  0  0  0  0  0  0  0  0  0  0  0
   49.8408   29.8525   49.9330 H   0  0  0  0  0  0  0  0  0  0  0  0
   52.1886   30.0980   48.8999 H   0  0  0  0  0  0  0  0  0  0  0  0
   54.0729   31.9961   49.0455 H   0  0  0  0  0  0  0  0  0  0  0  0
   52.8591   34.0603   50.0912 H   0  0  0  0  0  0  0  0  0  0  0  0
   47.7732   32.8825   44.8794 H   0  0  0  0  0  0  0  0  0  0  0  0
   46.8015   32.0953   43.5072 H   0  0  0  0  0  0  0  0  0  0  0  0
   45.2725   33.8672   46.1979 H   0  0  0  0  0  0  0  0  0  0  0  0
   44.0294   35.9670   45.7987 H   0  0  0  0  0  0  0  0  0  0  0  0
   44.1244   37.1249   43.6128 H   0  0  0  0  0  0  0  0  0  0  0  0
   45.5147   36.1181   41.8206 H   0  0  0  0  0  0  0  0  0  0  0  0
   48.7426   33.8620   40.3589 H   0  0  0  0  0  0  0  0  0  0  0  0
   49.8494   36.3917   41.0828 H   0  0  0  0  0  0  0  0  0  0  0  0
   48.5207   36.8372   41.7716 H   0  0  0  0  0  0  0  0  0  0  0  0
   48.9174   34.7340   43.5542 H   0  0  0  0  0  0  0  0  0  0  0  0
   50.3616   34.4639   43.0287 H   0  0  0  0  0  0  0  0  0  0  0  0
  1  3  1  0
  2  7  2  0
  3  4  2  0
  3  2  1  0
  4  5  1  0
  5  6  2  0
  6  8  1  0
  7  6  1  0
  9  8  1  0
  9 13  2  0
 10 11  2  0
 10  9  1  0
 11 12  1  0
 12 13  1  0
 14  1  1  0
 15 16  1  0
 16 14  1  0
 16 17  2  0
 18 17  1  0
 19 18  2  0
 20 15  2  0
 20 19  1  0
 21 15  1  0
 22 21  2  0
 23 21  2  0
 24 21  1  0
 24 25  1  0
 24 26  1  0
 25 26  1  0
  1 27  1  0
  1 28  1  0
  2 29  1  0
  4 30  1  0
  8 31  1  0
  8 32  1  0
 10 33  1  0
 11 34  1  0
 12 35  1  0
 14 36  1  0
 14 37  1  0
 17 38  1  0
 18 39  1  0
 19 40  1  0
 20 41  1  0
 24 42  1  0
 25 43  1  0
 25 44  1  0
 26 45  1  0
 26 46  1  0
M  ISO  8  27   8  28   8  29  14  30  14  31   8  32   8  33  14  34  14
M  ISO  8  35   9  36   8  37   8  38  14  39  14  40  14  41  14  42  13
M  ISO  4  43  13  44  13  45  13  46  13
M  END
>  <minimizedAffinity>  (1) 
-6.37986231

>  <minimizedRMSD>  (1) 
1.02088177

$$$$
