
     RDKit          3D

 47 50  0  0  0  0  0  0  0  0999 V2000
   46.5790   32.4250   44.7660 C   0  0  0  0  0  0  0  0  0  0  0  0
   45.9460   34.1990   43.2170 C   0  0  0  0  0  0  0  0  0  0  0  0
   45.8990   33.6920   44.5130 C   0  0  0  0  0  0  0  0  0  0  0  0
   45.2600   34.2820   45.5390 C   0  0  0  0  0  0  0  0  0  0  0  0
   44.6000   35.4710   45.3230 C   0  0  0  0  0  0  0  0  0  0  0  0
   44.5810   36.0540   44.0920 C   0  0  0  0  0  0  0  0  0  0  0  0
   45.2530   35.4080   43.0640 C   0  0  0  0  0  0  0  0  0  0  0  0
   46.6930   33.4720   41.8640 S   0  0  0  0  0  0  0  0  0  0  0  0
   46.6720   34.5070   40.6670 O   0  0  0  0  0  0  0  0  0  0  0  0
   45.8570   32.3510   41.3440 O   0  0  0  0  0  0  0  0  0  0  0  0
   48.3880   33.2100   41.8510 C   0  0  0  0  0  0  0  0  0  0  0  0
   49.1270   34.2380   42.4710 C   0  0  0  0  0  0  0  0  0  0  0  0
   50.4840   34.2470   42.6010 C   0  0  0  0  0  0  0  0  0  0  0  0
   51.1820   33.2100   42.1080 N   0  0  0  0  0  0  0  0  0  0  0  0
   50.5040   32.2150   41.5110 C   0  0  0  0  0  0  0  0  0  0  0  0
   49.1680   32.2230   41.3910 N   0  0  0  0  0  0  0  0  0  0  0  0
   45.9730   31.5590   45.8320 C   0  0  0  0  0  0  0  0  0  0  0  0
   47.2850   32.3890   47.7590 C   0  0  0  0  0  0  0  0  0  0  0  0
   46.9920   31.3420   46.8590 C   0  0  0  0  0  0  0  0  0  0  0  0
   47.6530   30.1390   47.0200 C   0  0  0  0  0  0  0  0  0  0  0  0
   48.5420   30.0270   48.0330 N   0  0  0  0  0  0  0  0  0  0  0  0
   48.7980   31.0340   48.8720 C   0  0  0  0  0  0  0  0  0  0  0  0
   48.1760   32.2300   48.7530 N   0  0  0  0  0  0  0  0  0  0  0  0
   49.7940   30.8110   49.9740 C   0  0  0  0  0  0  0  0  0  0  0  0
   51.0330   31.5490   49.7890 C   0  0  0  0  0  0  0  0  0  0  0  0
   52.1620   31.0930   49.1310 C   0  0  0  0  0  0  0  0  0  0  0  0
   53.1200   32.0700   49.1620 C   0  0  0  0  0  0  0  0  0  0  0  0
   52.5460   33.1020   49.8430 N   0  0  0  0  0  0  0  0  0  0  0  0
   51.3040   32.7990   50.2190 N   0  0  0  0  0  0  0  0  0  0  0  0
   47.6139   32.6509   45.0627 H   0  0  0  0  0  0  0  0  0  0  0  0
   46.4964   31.8502   43.8318 H   0  0  0  0  0  0  0  0  0  0  0  0
   45.2646   33.8207   46.5376 H   0  0  0  0  0  0  0  0  0  0  0  0
   44.0786   35.9589   46.1597 H   0  0  0  0  0  0  0  0  0  0  0  0
   44.0520   37.0028   43.9190 H   0  0  0  0  0  0  0  0  0  0  0  0
   45.2412   35.8734   42.0674 H   0  0  0  0  0  0  0  0  0  0  0  0
   48.5690   35.0937   42.8789 H   0  0  0  0  0  0  0  0  0  0  0  0
   50.9959   35.0841   43.0982 H   0  0  0  0  0  0  0  0  0  0  0  0
   51.0663   31.3611   41.1051 H   0  0  0  0  0  0  0  0  0  0  0  0
   45.0988   32.0617   46.2715 H   0  0  0  0  0  0  0  0  0  0  0  0
   45.6420   30.5995   45.4079 H   0  0  0  0  0  0  0  0  0  0  0  0
   46.7732   33.3560   47.6446 H   0  0  0  0  0  0  0  0  0  0  0  0
   47.4610   29.2945   46.3418 H   0  0  0  0  0  0  0  0  0  0  0  0
   49.3389   31.1260   50.9246 H   0  0  0  0  0  0  0  0  0  0  0  0
   50.0491   29.7410   49.9703 H   0  0  0  0  0  0  0  0  0  0  0  0
   52.2716   30.1053   48.6595 H   0  0  0  0  0  0  0  0  0  0  0  0
   54.1316   32.0310   48.7316 H   0  0  0  0  0  0  0  0  0  0  0  0
   53.0116   33.9991   50.0411 H   0  0  0  0  0  0  0  0  0  0  0  0
  1 17  1  0
  2  3  1  0
  3  1  1  0
  3  4  2  0
  5  4  1  0
  6  5  2  0
  7  2  2  0
  7  6  1  0
  8  2  1  0
  9  8  2  0
 10  8  2  0
 11  8  1  0
 11 12  2  0
 12 13  1  0
 14 13  2  0
 15 14  1  0
 16 15  2  0
 16 11  1  0
 17 19  1  0
 18 23  2  0
 19 20  2  0
 19 18  1  0
 20 21  1  0
 21 22  2  0
 22 24  1  0
 23 22  1  0
 25 24  1  0
 25 29  2  0
 26 27  2  0
 26 25  1  0
 27 28  1  0
 28 29  1  0
  1 30  1  0
  1 31  1  0
  4 32  1  0
  5 33  1  0
  6 34  1  0
  7 35  1  0
 12 36  1  0
 13 37  1  0
 15 38  1  0
 17 39  1  0
 17 40  1  0
 18 41  1  0
 20 42  1  0
 24 43  1  0
 24 44  1  0
 26 45  1  0
 27 46  1  0
 28 47  1  0
M  ISO  8  30   8  31   8  32  14  33  14  34  14  35  14  36  14  37  14
M  ISO  8  38  14  39   8  40   8  41  14  42  14  43   8  44   8  45  14
M  ISO  2  46  14  47   9
M  END
>  <minimizedAffinity>  (1) 
-6.28475237

>  <minimizedRMSD>  (1) 
1.00502682

$$$$
