
     RDKit          3D

 42 44  0  0  0  0  0  0  0  0999 V2000
   46.1180   31.7350   45.2920 C   0  0  0  0  0  0  0  0  0  0  0  0
   47.1170   32.4980   47.4220 C   0  0  0  0  0  0  0  0  0  0  0  0
   47.0100   31.5020   46.4220 C   0  0  0  0  0  0  0  0  0  0  0  0
   47.7350   30.3360   46.5950 C   0  0  0  0  0  0  0  0  0  0  0  0
   48.4990   30.2160   47.7070 N   0  0  0  0  0  0  0  0  0  0  0  0
   48.5770   31.1690   48.6320 C   0  0  0  0  0  0  0  0  0  0  0  0
   47.8890   32.3260   48.5080 N   0  0  0  0  0  0  0  0  0  0  0  0
   49.4520   30.9330   49.8270 C   0  0  0  0  0  0  0  0  0  0  0  0
   50.7220   31.6520   49.7720 C   0  0  0  0  0  0  0  0  0  0  0  0
   51.9140   31.1370   49.2870 C   0  0  0  0  0  0  0  0  0  0  0  0
   52.8820   32.1000   49.3970 C   0  0  0  0  0  0  0  0  0  0  0  0
   52.2450   33.1750   49.9470 N   0  0  0  0  0  0  0  0  0  0  0  0
   50.9610   32.9110   50.1710 N   0  0  0  0  0  0  0  0  0  0  0  0
   46.7660   32.7250   44.3820 C   0  0  0  0  0  0  0  0  0  0  0  0
   46.2910   34.6920   43.0280 C   0  0  0  0  0  0  0  0  0  0  0  0
   46.0530   33.9970   44.2040 C   0  0  0  0  0  0  0  0  0  0  0  0
   45.2180   34.3900   45.1790 C   0  0  0  0  0  0  0  0  0  0  0  0
   44.5370   35.5730   45.0140 C   0  0  0  0  0  0  0  0  0  0  0  0
   44.6940   36.3390   43.8930 C   0  0  0  0  0  0  0  0  0  0  0  0
   45.5740   35.8670   42.9300 C   0  0  0  0  0  0  0  0  0  0  0  0
   47.3570   34.2990   41.7590 S   0  0  0  0  0  0  0  0  0  0  0  0
   48.3740   35.3870   41.4990 O   0  0  0  0  0  0  0  0  0  0  0  0
   46.5270   34.2480   40.4590 O   0  0  0  0  0  0  0  0  0  0  0  0
   48.1860   32.8110   41.7060 C   0  0  0  0  0  0  0  0  0  0  0  0
   45.9453   30.7916   44.7533 H   0  0  0  0  0  0  0  0  0  0  0  0
   45.1503   32.1206   45.6453 H   0  0  0  0  0  0  0  0  0  0  0  0
   46.5541   33.4361   47.3071 H   0  0  0  0  0  0  0  0  0  0  0  0
   47.6920   29.5283   45.8495 H   0  0  0  0  0  0  0  0  0  0  0  0
   48.9075   31.2569   50.7263 H   0  0  0  0  0  0  0  0  0  0  0  0
   49.6895   29.8591   49.8463 H   0  0  0  0  0  0  0  0  0  0  0  0
   52.0584   30.1246   48.8817 H   0  0  0  0  0  0  0  0  0  0  0  0
   53.9401   32.0239   49.1061 H   0  0  0  0  0  0  0  0  0  0  0  0
   52.7000   34.0740   50.1608 H   0  0  0  0  0  0  0  0  0  0  0  0
   47.7635   32.9517   44.7865 H   0  0  0  0  0  0  0  0  0  0  0  0
   46.7807   32.2511   43.3894 H   0  0  0  0  0  0  0  0  0  0  0  0
   45.0823   33.7819   46.0855 H   0  0  0  0  0  0  0  0  0  0  0  0
   43.8493   35.9111   45.8032 H   0  0  0  0  0  0  0  0  0  0  0  0
   44.1484   37.2850   43.7606 H   0  0  0  0  0  0  0  0  0  0  0  0
   45.7101   36.4734   42.0224 H   0  0  0  0  0  0  0  0  0  0  0  0
   48.3801   32.4627   42.7312 H   0  0  0  0  0  0  0  0  0  0  0  0
   47.5719   32.0678   41.1763 H   0  0  0  0  0  0  0  0  0  0  0  0
   49.1411   32.9420   41.1763 H   0  0  0  0  0  0  0  0  0  0  0  0
  1  3  1  0
  2  7  2  0
  3  4  2  0
  3  2  1  0
  4  5  1  0
  5  6  2  0
  6  8  1  0
  7  6  1  0
  9  8  1  0
  9 13  2  0
 10 11  2  0
 10  9  1  0
 11 12  1  0
 12 13  1  0
 14  1  1  0
 15 16  2  0
 16 14  1  0
 16 17  1  0
 18 17  2  0
 19 18  1  0
 20 15  1  0
 20 19  2  0
 21 15  1  0
 22 21  2  0
 23 21  2  0
 24 21  1  0
  1 25  1  0
  1 26  1  0
  2 27  1  0
  4 28  1  0
  8 29  1  0
  8 30  1  0
 10 31  1  0
 11 32  1  0
 12 33  1  0
 14 34  1  0
 14 35  1  0
 17 36  1  0
 18 37  1  0
 19 38  1  0
 20 39  1  0
 24 40  1  0
 24 41  1  0
 24 42  1  0
M  ISO  8  25   8  26   8  27  14  28  14  29   8  30   8  31  14  32  14
M  ISO  8  33   9  34   8  35   8  36  14  37  14  38  14  39  14  40   8
M  ISO  2  41   8  42   8
M  END
>  <minimizedAffinity>  (1) 
-5.87403917

>  <minimizedRMSD>  (1) 
0.0451120809

$$$$
