
     RDKit          3D

 32 34  0  0  1  0  0  0  0  0999 V2000
   48.2590   32.6010   40.4960 C   0  0  0  0  0  0  0  0  0  0  0  0
   49.4770   32.3070   40.1910 C   0  0  0  0  0  0  0  0  0  0  0  0
   49.8240   31.9060   38.8840 N   0  0  0  0  0  0  0  0  0  0  0  0
   50.5330   30.9600   38.0420 C   0  0  0  0  0  0  0  0  0  0  0  0
   51.5500   30.2250   38.1820 O   0  0  0  0  0  0  0  0  0  0  0  0
   49.4940   31.2970   37.0030 C   0  0  0  0  0  0  0  0  0  0  0  0
   49.3680   32.6310   37.6820 C   0  0  1  0  0  0  0  0  0  0  0  0
   47.7140   33.2570   37.9580 S   0  0  0  0  0  0  0  0  0  0  0  0
   47.1280   32.5560   39.5340 C   0  0  0  0  0  0  0  0  0  0  0  0
   47.9140   33.0050   41.8450 C   0  0  0  0  0  0  0  0  0  0  0  0
   47.1180   34.6690   41.8330 S   0  0  0  0  0  0  0  0  0  0  0  0
   44.5060   35.9080   44.6770 C   0  0  0  0  0  0  0  0  0  0  0  0
   45.2420   35.8380   43.4730 C   0  0  0  0  0  0  0  0  0  0  0  0
   46.1730   34.7820   43.3470 C   0  0  0  0  0  0  0  0  0  0  0  0
   46.3080   33.9120   44.3690 N   0  0  0  0  0  0  0  0  0  0  0  0
   45.5890   34.0170   45.4930 C   0  0  0  0  0  0  0  0  0  0  0  0
   44.6920   35.0040   45.6570 N   0  0  0  0  0  0  0  0  0  0  0  0
   45.8940   33.0070   46.4140 O   0  0  0  0  0  0  0  0  0  0  0  0
   50.5310   32.3860   41.2080 C   0  0  0  0  0  0  0  0  0  0  0  0
   51.7320   32.0120   41.0340 O   0  0  0  0  0  0  0  0  0  0  0  0
   51.2570   32.5880   42.3300 O   0  0  0  0  0  0  0  0  0  0  0  0
   48.5879   30.6743   37.0378 H   0  0  0  0  0  0  0  0  0  0  0  0
   49.6947   31.2066   35.9252 H   0  0  0  0  0  0  0  0  0  0  0  0
   49.8287   33.5238   37.2340 H   0  0  0  0  0  0  0  0  0  0  0  0
   46.2855   33.1499   39.9181 H   0  0  0  0  0  0  0  0  0  0  0  0
   46.7842   31.5209   39.3913 H   0  0  0  0  0  0  0  0  0  0  0  0
   47.2158   32.2721   42.2756 H   0  0  0  0  0  0  0  0  0  0  0  0
   48.8318   33.0524   42.4494 H   0  0  0  0  0  0  0  0  0  0  0  0
   43.7698   36.7134   44.8157 H   0  0  0  0  0  0  0  0  0  0  0  0
   45.0967   36.5737   42.6683 H   0  0  0  0  0  0  0  0  0  0  0  0
   45.4278   32.9757   47.2868 H   0  0  0  0  0  0  0  0  0  0  0  0
   52.2160   32.3429   42.3499 H   0  0  0  0  0  0  0  0  0  0  0  0
  1 10  1  0
  2  1  2  0
  2 19  1  0
  3  2  1  0
  4  5  2  0
  4  3  1  0
  6  7  1  0
  6  4  1  0
  7  8  1  0
  7  3  1  0
  8  9  1  0
  9  1  1  0
 11 10  1  0
 11 14  1  0
 12 17  2  0
 13 12  1  0
 14 13  2  0
 14 15  1  0
 15 16  2  0
 16 17  1  0
 16 18  1  0
 19 21  1  0
 20 19  2  0
  6 22  1  0
  6 23  1  0
  7 24  1  6
  9 25  1  0
  9 26  1  0
 10 27  1  0
 10 28  1  0
 12 29  1  0
 13 30  1  0
 18 31  1  0
 21 32  1  0
M  ISO  8  22  13  23  13  24  13  25  13  26  13  27   8  28   8  29  14
M  ISO  3  30  14  31   3  32   3
M  END
>  <minimizedAffinity>  (1) 
-4.77180099

>  <minimizedRMSD>  (1) 
0.0282007977

$$$$
