
     RDKit          3D

 28 30  0  0  0  0  0  0  0  0999 V2000
   46.7220   34.6780   42.3460 C   0  0  0  0  0  0  0  0  0  0  0  0
   47.9240   35.2370   42.0000 C   0  0  0  0  0  0  0  0  0  0  0  0
   48.4210   35.0890   40.7240 C   0  0  0  0  0  0  0  0  0  0  0  0
   47.7580   34.3900   39.7500 C   0  0  0  0  0  0  0  0  0  0  0  0
   48.3070   34.2890   38.5300 N   0  0  0  0  0  0  0  0  0  0  0  0
   47.6580   33.5960   37.5480 C   0  0  0  0  0  0  0  0  0  0  0  0
   46.4570   33.0340   37.8870 C   0  0  0  0  0  0  0  0  0  0  0  0
   45.8490   33.1050   39.1190 C   0  0  0  0  0  0  0  0  0  0  0  0
   46.5380   33.8180   40.0880 C   0  0  0  0  0  0  0  0  0  0  0  0
   46.0150   33.9540   41.3740 C   0  0  0  0  0  0  0  0  0  0  0  0
   45.0870   35.7140   43.9650 C   0  0  0  0  0  0  0  0  0  0  0  0
   46.0290   34.7180   43.6290 C   0  0  0  0  0  0  0  0  0  0  0  0
   46.3240   33.7020   44.5740 C   0  0  0  0  0  0  0  0  0  0  0  0
   45.6600   33.7670   45.7610 N   0  0  0  0  0  0  0  0  0  0  0  0
   44.7740   34.7200   46.0540 C   0  0  0  0  0  0  0  0  0  0  0  0
   44.4960   35.6760   45.1610 N   0  0  0  0  0  0  0  0  0  0  0  0
   44.8010   36.7150   43.0210 N   0  0  0  0  0  0  0  0  0  0  0  0
   44.1580   34.6790   47.3060 O   0  0  0  0  0  0  0  0  0  0  0  0
   48.4960   35.8079   42.7463 H   0  0  0  0  0  0  0  0  0  0  0  0
   49.3886   35.5503   40.4772 H   0  0  0  0  0  0  0  0  0  0  0  0
   48.0790   33.4948   36.5368 H   0  0  0  0  0  0  0  0  0  0  0  0
   45.9289   32.4736   37.1015 H   0  0  0  0  0  0  0  0  0  0  0  0
   44.8793   32.6271   39.3221 H   0  0  0  0  0  0  0  0  0  0  0  0
   45.0483   33.4936   41.6261 H   0  0  0  0  0  0  0  0  0  0  0  0
   47.0503   32.9043   44.3593 H   0  0  0  0  0  0  0  0  0  0  0  0
   45.2768   36.7125   42.1075 H   0  0  0  0  0  0  0  0  0  0  0  0
   44.1155   37.4512   43.2426 H   0  0  0  0  0  0  0  0  0  0  0  0
   43.4957   35.3715   47.5547 H   0  0  0  0  0  0  0  0  0  0  0  0
  1 12  1  0
  2  1  2  0
  3  2  1  0
  4  9  1  0
  4  3  2  0
  5  4  1  0
  6  7  1  0
  6  5  2  0
  7  8  2  0
  8  9  1  0
  9 10  2  0
 10  1  1  0
 11 16  2  0
 12 11  1  0
 12 13  2  0
 13 14  1  0
 14 15  2  0
 15 18  1  0
 16 15  1  0
 17 11  1  0
  2 19  1  0
  3 20  1  0
  6 21  1  0
  7 22  1  0
  8 23  1  0
 10 24  1  0
 13 25  1  0
 17 26  1  0
 17 27  1  0
 18 28  1  0
M  ISO  8  19  14  20  14  21  14  22  14  23  14  24  14  25  14  28   3
M  END
>  <minimizedAffinity>  (1) 
-7.05458307

>  <minimizedRMSD>  (1) 
0.116329119

$$$$
