
     RDKit          3D

 34 37  0  0  0  0  0  0  0  0999 V2000
   47.1800   34.1380   42.5550 C   0  0  0  0  0  0  0  0  0  0  0  0
   48.2180   34.9940   42.2330 C   0  0  0  0  0  0  0  0  0  0  0  0
   48.6010   35.1530   40.9210 C   0  0  0  0  0  0  0  0  0  0  0  0
   47.9860   34.4870   39.8900 C   0  0  0  0  0  0  0  0  0  0  0  0
   48.4150   34.6940   38.6340 N   0  0  0  0  0  0  0  0  0  0  0  0
   47.8200   34.0450   37.6030 C   0  0  0  0  0  0  0  0  0  0  0  0
   46.7810   33.1860   37.9180 C   0  0  0  0  0  0  0  0  0  0  0  0
   46.3110   32.9450   39.1840 C   0  0  0  0  0  0  0  0  0  0  0  0
   46.9380   33.6210   40.2070 C   0  0  0  0  0  0  0  0  0  0  0  0
   46.5400   33.4500   41.5330 C   0  0  0  0  0  0  0  0  0  0  0  0
   45.6270   34.6180   44.4870 C   0  0  0  0  0  0  0  0  0  0  0  0
   46.6370   33.8410   43.8820 C   0  0  0  0  0  0  0  0  0  0  0  0
   47.1600   32.7230   44.5690 C   0  0  0  0  0  0  0  0  0  0  0  0
   46.6360   32.4640   45.8070 N   0  0  0  0  0  0  0  0  0  0  0  0
   45.6740   33.2210   46.3620 C   0  0  0  0  0  0  0  0  0  0  0  0
   45.1880   34.2820   45.6920 N   0  0  0  0  0  0  0  0  0  0  0  0
   45.1160   35.7290   43.7880 N   0  0  0  0  0  0  0  0  0  0  0  0
   45.1390   32.8920   47.7180 C   0  0  0  0  0  0  0  0  0  0  0  0
   46.2170   32.2960   48.6780 C   0  0  0  0  0  0  0  0  0  0  0  0
   45.0330   31.5090   48.2030 C   0  0  0  0  0  0  0  0  0  0  0  0
   48.7383   35.5488   43.0276 H   0  0  0  0  0  0  0  0  0  0  0  0
   49.4298   35.8384   40.6899 H   0  0  0  0  0  0  0  0  0  0  0  0
   48.1478   34.1942   36.5636 H   0  0  0  0  0  0  0  0  0  0  0  0
   46.2937   32.6546   37.0872 H   0  0  0  0  0  0  0  0  0  0  0  0
   45.4792   32.2501   39.3717 H   0  0  0  0  0  0  0  0  0  0  0  0
   45.7129   32.7649   41.7706 H   0  0  0  0  0  0  0  0  0  0  0  0
   47.9482   32.0926   44.1315 H   0  0  0  0  0  0  0  0  0  0  0  0
   45.4804   35.9613   42.8530 H   0  0  0  0  0  0  0  0  0  0  0  0
   44.3780   36.3091   44.2118 H   0  0  0  0  0  0  0  0  0  0  0  0
   44.4101   33.7154   47.6901 H   0  0  0  0  0  0  0  0  0  0  0  0
   47.2260   32.0633   48.3069 H   0  0  0  0  0  0  0  0  0  0  0  0
   46.6491   32.5685   49.6522 H   0  0  0  0  0  0  0  0  0  0  0  0
   44.2378   31.2462   48.9162 H   0  0  0  0  0  0  0  0  0  0  0  0
   44.9228   30.5370   47.7000 H   0  0  0  0  0  0  0  0  0  0  0  0
  1 12  1  0
  2  1  2  0
  3  2  1  0
  4  9  1  0
  4  3  2  0
  5  4  1  0
  6  7  1  0
  6  5  2  0
  7  8  2  0
  8  9  1  0
  9 10  2  0
 10  1  1  0
 11 16  2  0
 12 11  1  0
 12 13  2  0
 13 14  1  0
 14 15  2  0
 15 18  1  0
 16 15  1  0
 17 11  1  0
 18 20  1  0
 18 19  1  0
 20 19  1  0
  2 21  1  0
  3 22  1  0
  6 23  1  0
  7 24  1  0
  8 25  1  0
 10 26  1  0
 13 27  1  0
 17 28  1  0
 17 29  1  0
 18 30  1  0
 19 31  1  0
 19 32  1  0
 20 33  1  0
 20 34  1  0
M  ISO  8  21  14  22  14  23  14  24  14  25  14  26  14  27  14  30  13
M  ISO  4  31  13  32  13  33  13  34  13
M  END
>  <minimizedAffinity>  (1) 
-6.14622593

>  <minimizedRMSD>  (1) 
1.52187848

$$$$
