
     RDKit          3D

 30 32  0  0  0  0  0  0  0  0999 V2000
   47.0790   34.5430   42.1100 C   0  0  0  0  0  0  0  0  0  0  0  0
   48.1780   35.3010   41.7680 C   0  0  0  0  0  0  0  0  0  0  0  0
   48.6360   35.3190   40.4730 C   0  0  0  0  0  0  0  0  0  0  0  0
   48.0350   34.5950   39.4720 C   0  0  0  0  0  0  0  0  0  0  0  0
   48.5440   34.6630   38.2280 N   0  0  0  0  0  0  0  0  0  0  0  0
   47.9490   33.9450   37.2300 C   0  0  0  0  0  0  0  0  0  0  0  0
   46.8480   33.1820   37.5610 C   0  0  0  0  0  0  0  0  0  0  0  0
   46.3040   33.0900   38.8200 C   0  0  0  0  0  0  0  0  0  0  0  0
   46.9290   33.8320   39.8160 C   0  0  0  0  0  0  0  0  0  0  0  0
   46.4450   33.7990   41.1250 C   0  0  0  0  0  0  0  0  0  0  0  0
   45.4000   35.2140   43.8630 C   0  0  0  0  0  0  0  0  0  0  0  0
   46.4560   34.4050   43.4220 C   0  0  0  0  0  0  0  0  0  0  0  0
   46.9440   33.4030   44.2920 C   0  0  0  0  0  0  0  0  0  0  0  0
   46.3470   33.2990   45.5010 N   0  0  0  0  0  0  0  0  0  0  0  0
   45.3430   34.0800   45.9000 C   0  0  0  0  0  0  0  0  0  0  0  0
   44.8770   35.0370   45.0710 N   0  0  0  0  0  0  0  0  0  0  0  0
   44.9120   36.2190   42.9900 N   0  0  0  0  0  0  0  0  0  0  0  0
   44.7420   33.8960   47.2530 C   0  0  0  0  0  0  0  0  0  0  0  0
   48.6921   35.8958   42.5374 H   0  0  0  0  0  0  0  0  0  0  0  0
   49.5145   35.9345   40.2291 H   0  0  0  0  0  0  0  0  0  0  0  0
   48.3336   33.9740   36.1998 H   0  0  0  0  0  0  0  0  0  0  0  0
   46.3696   32.6038   36.7568 H   0  0  0  0  0  0  0  0  0  0  0  0
   45.4235   32.4644   39.0279 H   0  0  0  0  0  0  0  0  0  0  0  0
   45.5659   33.1866   41.3743 H   0  0  0  0  0  0  0  0  0  0  0  0
   47.7707   32.7390   43.9991 H   0  0  0  0  0  0  0  0  0  0  0  0
   45.3320   36.3393   42.0573 H   0  0  0  0  0  0  0  0  0  0  0  0
   44.1375   36.8288   43.2886 H   0  0  0  0  0  0  0  0  0  0  0  0
   45.4936   34.1261   48.0225 H   0  0  0  0  0  0  0  0  0  0  0  0
   43.8817   34.5719   47.3671 H   0  0  0  0  0  0  0  0  0  0  0  0
   44.4075   32.8543   47.3671 H   0  0  0  0  0  0  0  0  0  0  0  0
  1 12  1  0
  2  1  2  0
  3  2  1  0
  4  9  1  0
  4  3  2  0
  5  4  1  0
  6  7  1  0
  6  5  2  0
  7  8  2  0
  8  9  1  0
  9 10  2  0
 10  1  1  0
 11 16  2  0
 12 11  1  0
 12 13  2  0
 13 14  1  0
 14 15  2  0
 15 18  1  0
 16 15  1  0
 17 11  1  0
  2 19  1  0
  3 20  1  0
  6 21  1  0
  7 22  1  0
  8 23  1  0
 10 24  1  0
 13 25  1  0
 17 26  1  0
 17 27  1  0
 18 28  1  0
 18 29  1  0
 18 30  1  0
M  ISO  8  19  14  20  14  21  14  22  14  23  14  24  14  25  14  28   8
M  ISO  2  29   8  30   8
M  END
>  <minimizedAffinity>  (1) 
-5.6826725

>  <minimizedRMSD>  (1) 
0.582735777

$$$$
