
     RDKit          3D

 43 46  0  0  0  0  0  0  0  0999 V2000
   45.5980   34.8450   44.0620 C   0  0  0  0  0  0  0  0  0  0  0  0
   46.6890   34.1090   43.5390 C   0  0  0  0  0  0  0  0  0  0  0  0
   47.2560   33.0760   44.3160 C   0  0  0  0  0  0  0  0  0  0  0  0
   46.6790   32.8780   45.5390 N   0  0  0  0  0  0  0  0  0  0  0  0
   45.6520   33.5780   46.0180 C   0  0  0  0  0  0  0  0  0  0  0  0
   45.1270   34.5480   45.2780 N   0  0  0  0  0  0  0  0  0  0  0  0
   45.0320   35.8790   43.2790 N   0  0  0  0  0  0  0  0  0  0  0  0
   47.2520   34.3670   42.2300 C   0  0  0  0  0  0  0  0  0  0  0  0
   48.2770   35.2080   41.8870 C   0  0  0  0  0  0  0  0  0  0  0  0
   48.6920   35.3360   40.5780 C   0  0  0  0  0  0  0  0  0  0  0  0
   48.0890   34.6180   39.5470 C   0  0  0  0  0  0  0  0  0  0  0  0
   48.5540   34.8060   38.3120 N   0  0  0  0  0  0  0  0  0  0  0  0
   47.9690   34.1050   37.2840 C   0  0  0  0  0  0  0  0  0  0  0  0
   46.9260   33.2440   37.6050 C   0  0  0  0  0  0  0  0  0  0  0  0
   46.4460   33.0500   38.8780 C   0  0  0  0  0  0  0  0  0  0  0  0
   47.0420   33.7580   39.8890 C   0  0  0  0  0  0  0  0  0  0  0  0
   46.6360   33.6380   41.2100 C   0  0  0  0  0  0  0  0  0  0  0  0
   45.1660   33.2030   47.3700 C   0  0  0  0  0  0  0  0  0  0  0  0
   46.1640   32.3250   48.0970 C   0  0  0  0  0  0  0  0  0  0  0  0
   48.4620   30.8750   47.8150 F   0  0  0  0  0  0  0  0  0  0  0  0
   47.2420   30.2750   47.7450 C   0  0  0  0  0  0  0  0  0  0  0  0
   46.0130   30.8950   47.8800 C   0  0  0  0  0  0  0  0  0  0  0  0
   44.9180   30.0670   47.7670 C   0  0  0  0  0  0  0  0  0  0  0  0
   45.0210   28.7140   47.5370 C   0  0  0  0  0  0  0  0  0  0  0  0
   46.2480   28.1170   47.4060 C   0  0  0  0  0  0  0  0  0  0  0  0
   47.3930   28.9130   47.5110 C   0  0  0  0  0  0  0  0  0  0  0  0
   48.1041   32.4718   43.9615 H   0  0  0  0  0  0  0  0  0  0  0  0
   45.4147   36.0865   42.3455 H   0  0  0  0  0  0  0  0  0  0  0  0
   44.2373   36.4241   43.6426 H   0  0  0  0  0  0  0  0  0  0  0  0
   48.7794   35.7932   42.6713 H   0  0  0  0  0  0  0  0  0  0  0  0
   49.5192   36.0216   40.3420 H   0  0  0  0  0  0  0  0  0  0  0  0
   48.3136   34.2212   36.2459 H   0  0  0  0  0  0  0  0  0  0  0  0
   46.4539   32.6810   36.7864 H   0  0  0  0  0  0  0  0  0  0  0  0
   45.6172   32.3548   39.0775 H   0  0  0  0  0  0  0  0  0  0  0  0
   45.8113   32.9542   41.4596 H   0  0  0  0  0  0  0  0  0  0  0  0
   45.0017   34.1186   47.9571 H   0  0  0  0  0  0  0  0  0  0  0  0
   44.2296   32.6374   47.2547 H   0  0  0  0  0  0  0  0  0  0  0  0
   47.1729   32.6134   47.7669 H   0  0  0  0  0  0  0  0  0  0  0  0
   45.9854   32.4886   49.1700 H   0  0  0  0  0  0  0  0  0  0  0  0
   43.9149   30.5075   47.8651 H   0  0  0  0  0  0  0  0  0  0  0  0
   44.1085   28.1049   47.4574 H   0  0  0  0  0  0  0  0  0  0  0  0
   46.3302   27.0356   47.2223 H   0  0  0  0  0  0  0  0  0  0  0  0
   48.3946   28.4696   47.4103 H   0  0  0  0  0  0  0  0  0  0  0  0
  1  6  2  0
  2  1  1  0
  2  3  2  0
  3  4  1  0
  4  5  2  0
  5 18  1  0
  6  5  1  0
  7  1  1  0
  8  2  1  0
  9  8  2  0
 10  9  1  0
 11 16  1  0
 11 10  2  0
 12 11  1  0
 13 14  1  0
 13 12  2  0
 14 15  2  0
 15 16  1  0
 16 17  2  0
 17  8  1  0
 18 19  1  0
 21 20  1  0
 21 22  2  0
 22 19  1  0
 23 22  1  0
 24 23  2  0
 25 26  2  0
 25 24  1  0
 26 21  1  0
  3 27  1  0
  7 28  1  0
  7 29  1  0
  9 30  1  0
 10 31  1  0
 13 32  1  0
 14 33  1  0
 15 34  1  0
 17 35  1  0
 18 36  1  0
 18 37  1  0
 19 38  1  0
 19 39  1  0
 23 40  1  0
 24 41  1  0
 25 42  1  0
 26 43  1  0
M  ISO  8  27  14  30  14  31  14  32  14  33  14  34  14  35  14  36   8
M  ISO  7  37   8  38   8  39   8  40  14  41  14  42  14  43  14
M  END
>  <minimizedAffinity>  (1) 
-6.76175213

>  <minimizedRMSD>  (1) 
1.0012747

$$$$
