
     RDKit          3D

 48 51  0  0  0  0  0  0  0  0999 V2000
   45.6510   34.6840   44.2340 C   0  0  0  0  0  0  0  0  0  0  0  0
   46.6930   33.9630   43.6450 C   0  0  0  0  0  0  0  0  0  0  0  0
   47.2640   32.8730   44.3720 C   0  0  0  0  0  0  0  0  0  0  0  0
   46.7460   32.6180   45.6010 N   0  0  0  0  0  0  0  0  0  0  0  0
   45.7400   33.3410   46.1310 C   0  0  0  0  0  0  0  0  0  0  0  0
   45.2090   34.3600   45.4400 N   0  0  0  0  0  0  0  0  0  0  0  0
   45.1010   35.7520   43.5060 N   0  0  0  0  0  0  0  0  0  0  0  0
   47.2360   34.2520   42.3320 C   0  0  0  0  0  0  0  0  0  0  0  0
   48.2560   35.1220   42.0130 C   0  0  0  0  0  0  0  0  0  0  0  0
   48.6590   35.2830   40.7030 C   0  0  0  0  0  0  0  0  0  0  0  0
   48.0600   34.5840   39.6630 C   0  0  0  0  0  0  0  0  0  0  0  0
   48.5100   34.7960   38.4180 N   0  0  0  0  0  0  0  0  0  0  0  0
   47.9370   34.1210   37.3890 C   0  0  0  0  0  0  0  0  0  0  0  0
   46.9110   33.2420   37.6880 C   0  0  0  0  0  0  0  0  0  0  0  0
   46.4300   33.0070   38.9590 C   0  0  0  0  0  0  0  0  0  0  0  0
   47.0230   33.7000   39.9860 C   0  0  0  0  0  0  0  0  0  0  0  0
   46.6330   33.5520   41.3070 C   0  0  0  0  0  0  0  0  0  0  0  0
   45.2510   32.9660   47.4960 C   0  0  0  0  0  0  0  0  0  0  0  0
   46.4440   32.5090   48.3400 C   0  0  0  0  0  0  0  0  0  0  0  0
   46.3820   31.1440   48.7340 N   0  0  0  0  0  0  0  0  0  0  0  0
   47.5320   30.3670   48.4360 C   0  0  0  0  0  0  0  0  0  0  0  0
   47.5020   29.5300   47.2110 C   0  0  0  0  0  0  0  0  0  0  0  0
   46.1170   29.1010   46.7920 C   0  0  0  0  0  0  0  0  0  0  0  0
   45.1520   29.1410   47.9490 C   0  0  0  0  0  0  0  0  0  0  0  0
   45.1100   30.5180   48.5460 C   0  0  0  0  0  0  0  0  0  0  0  0
   48.0840   32.2694   43.9558 H   0  0  0  0  0  0  0  0  0  0  0  0
   45.4663   35.9796   42.5702 H   0  0  0  0  0  0  0  0  0  0  0  0
   44.3324   36.3075   43.9080 H   0  0  0  0  0  0  0  0  0  0  0  0
   48.7537   35.6936   42.8102 H   0  0  0  0  0  0  0  0  0  0  0  0
   49.4763   35.9835   40.4765 H   0  0  0  0  0  0  0  0  0  0  0  0
   48.2766   34.2678   36.3531 H   0  0  0  0  0  0  0  0  0  0  0  0
   46.4474   32.6932   36.8550 H   0  0  0  0  0  0  0  0  0  0  0  0
   45.6095   32.2975   39.1418 H   0  0  0  0  0  0  0  0  0  0  0  0
   45.8169   32.8544   41.5464 H   0  0  0  0  0  0  0  0  0  0  0  0
   44.7748   33.8369   47.9702 H   0  0  0  0  0  0  0  0  0  0  0  0
   44.5149   32.1523   47.4185 H   0  0  0  0  0  0  0  0  0  0  0  0
   47.3616   32.6584   47.7521 H   0  0  0  0  0  0  0  0  0  0  0  0
   46.4309   33.1084   49.2622 H   0  0  0  0  0  0  0  0  0  0  0  0
   48.3805   31.0603   48.3392 H   0  0  0  0  0  0  0  0  0  0  0  0
   47.6013   29.6455   49.2634 H   0  0  0  0  0  0  0  0  0  0  0  0
   47.9490   30.1064   46.3877 H   0  0  0  0  0  0  0  0  0  0  0  0
   48.0629   28.6119   47.4401 H   0  0  0  0  0  0  0  0  0  0  0  0
   45.7569   29.7774   46.0028 H   0  0  0  0  0  0  0  0  0  0  0  0
   46.1729   28.0655   46.4252 H   0  0  0  0  0  0  0  0  0  0  0  0
   44.1473   28.8692   47.5930 H   0  0  0  0  0  0  0  0  0  0  0  0
   45.4855   28.4281   48.7175 H   0  0  0  0  0  0  0  0  0  0  0  0
   44.5117   31.1581   47.8810 H   0  0  0  0  0  0  0  0  0  0  0  0
   44.6789   30.3996   49.5511 H   0  0  0  0  0  0  0  0  0  0  0  0
  1  6  2  0
  2  1  1  0
  2  3  2  0
  3  4  1  0
  4  5  2  0
  5 18  1  0
  6  5  1  0
  7  1  1  0
  8  2  1  0
  9  8  2  0
 10  9  1  0
 11 16  1  0
 11 10  2  0
 12 11  1  0
 13 14  1  0
 13 12  2  0
 14 15  2  0
 15 16  1  0
 16 17  2  0
 17  8  1  0
 18 19  1  0
 19 20  1  0
 21 20  1  0
 22 21  1  0
 23 22  1  0
 23 24  1  0
 24 25  1  0
 25 20  1  0
  3 26  1  0
  7 27  1  0
  7 28  1  0
  9 29  1  0
 10 30  1  0
 13 31  1  0
 14 32  1  0
 15 33  1  0
 17 34  1  0
 18 35  1  0
 18 36  1  0
 19 37  1  0
 19 38  1  0
 21 39  1  0
 21 40  1  0
 22 41  1  0
 22 42  1  0
 23 43  1  0
 23 44  1  0
 24 45  1  0
 24 46  1  0
 25 47  1  0
 25 48  1  0
M  ISO  8  26  14  29  14  30  14  31  14  32  14  33  14  34  14  35   8
M  ISO  8  36   8  37   8  38   8  39  13  40  13  41  13  42  13  43  13
M  ISO  5  44  13  45  13  46  13  47  13  48  13
M  END
>  <minimizedAffinity>  (1) 
-6.48027468

>  <minimizedRMSD>  (1) 
1.51831615

$$$$
