
     RDKit          3D

 39 42  0  0  0  0  0  0  0  0999 V2000
   45.6440   34.7210   44.1910 C   0  0  0  0  0  0  0  0  0  0  0  0
   46.7090   34.0130   43.6230 C   0  0  0  0  0  0  0  0  0  0  0  0
   47.2930   32.9390   44.3650 C   0  0  0  0  0  0  0  0  0  0  0  0
   46.7640   32.6780   45.5870 N   0  0  0  0  0  0  0  0  0  0  0  0
   45.7430   33.3710   46.1070 C   0  0  0  0  0  0  0  0  0  0  0  0
   45.1980   34.3840   45.4000 N   0  0  0  0  0  0  0  0  0  0  0  0
   45.0800   35.7690   43.4590 N   0  0  0  0  0  0  0  0  0  0  0  0
   47.2650   34.3030   42.3130 C   0  0  0  0  0  0  0  0  0  0  0  0
   48.2760   35.1680   41.9840 C   0  0  0  0  0  0  0  0  0  0  0  0
   48.6720   35.3130   40.6660 C   0  0  0  0  0  0  0  0  0  0  0  0
   48.0730   34.6060   39.6430 C   0  0  0  0  0  0  0  0  0  0  0  0
   48.5300   34.8200   38.4010 N   0  0  0  0  0  0  0  0  0  0  0  0
   47.9480   34.1270   37.3660 C   0  0  0  0  0  0  0  0  0  0  0  0
   46.9200   33.2450   37.6780 C   0  0  0  0  0  0  0  0  0  0  0  0
   46.4480   33.0230   38.9490 C   0  0  0  0  0  0  0  0  0  0  0  0
   47.0540   33.7360   39.9750 C   0  0  0  0  0  0  0  0  0  0  0  0
   46.6420   33.5750   41.2910 C   0  0  0  0  0  0  0  0  0  0  0  0
   45.2430   32.9940   47.4540 C   0  0  0  0  0  0  0  0  0  0  0  0
   46.3300   32.1850   48.1850 C   0  0  0  0  0  0  0  0  0  0  0  0
   46.1460   30.7450   47.8290 C   0  0  0  0  0  0  0  0  0  0  0  0
   47.2600   29.8650   47.7860 C   0  0  0  0  0  0  0  0  0  0  0  0
   46.4850   28.2630   47.3090 S   0  0  0  0  0  0  0  0  0  0  0  0
   44.7710   29.0860   47.2560 C   0  0  0  0  0  0  0  0  0  0  0  0
   44.9960   30.1590   47.5340 N   0  0  0  0  0  0  0  0  0  0  0  0
   48.1321   32.3517   43.9637 H   0  0  0  0  0  0  0  0  0  0  0  0
   45.4495   36.0031   42.5265 H   0  0  0  0  0  0  0  0  0  0  0  0
   44.2947   36.3074   43.8519 H   0  0  0  0  0  0  0  0  0  0  0  0
   48.7755   35.7504   42.7722 H   0  0  0  0  0  0  0  0  0  0  0  0
   49.4873   36.0116   40.4268 H   0  0  0  0  0  0  0  0  0  0  0  0
   48.2840   34.2656   36.3278 H   0  0  0  0  0  0  0  0  0  0  0  0
   46.4533   32.6877   36.8524 H   0  0  0  0  0  0  0  0  0  0  0  0
   45.6295   32.3146   39.1445 H   0  0  0  0  0  0  0  0  0  0  0  0
   45.8270   32.8763   41.5310 H   0  0  0  0  0  0  0  0  0  0  0  0
   45.0108   33.9028   48.0287 H   0  0  0  0  0  0  0  0  0  0  0  0
   44.3315   32.3862   47.3549 H   0  0  0  0  0  0  0  0  0  0  0  0
   47.3266   32.5246   47.8666 H   0  0  0  0  0  0  0  0  0  0  0  0
   46.2465   32.3252   49.2728 H   0  0  0  0  0  0  0  0  0  0  0  0
   48.3190   30.0846   47.9869 H   0  0  0  0  0  0  0  0  0  0  0  0
   43.7995   28.6303   47.0143 H   0  0  0  0  0  0  0  0  0  0  0  0
  1  6  2  0
  2  1  1  0
  2  3  2  0
  3  4  1  0
  4  5  2  0
  5 18  1  0
  6  5  1  0
  7  1  1  0
  8  2  1  0
  9  8  2  0
 10  9  1  0
 11 16  1  0
 11 10  2  0
 12 11  1  0
 13 14  1  0
 13 12  2  0
 14 15  2  0
 15 16  1  0
 16 17  2  0
 17  8  1  0
 18 19  1  0
 20 19  1  0
 21 20  2  0
 22 21  1  0
 23 22  1  0
 23 24  2  0
 24 20  1  0
  3 25  1  0
  7 26  1  0
  7 27  1  0
  9 28  1  0
 10 29  1  0
 13 30  1  0
 14 31  1  0
 15 32  1  0
 17 33  1  0
 18 34  1  0
 18 35  1  0
 19 36  1  0
 19 37  1  0
 21 38  1  0
 23 39  1  0
M  ISO  8  25  14  28  14  29  14  30  14  31  14  32  14  33  14  34   8
M  ISO  5  35   8  36   8  37   8  38  14  39  14
M  END
>  <minimizedAffinity>  (1) 
-6.1819396

>  <minimizedRMSD>  (1) 
2.18874788

$$$$
