
     RDKit          3D

 34 36  0  0  0  0  0  0  0  0999 V2000
   45.4140   35.1740   43.9100 C   0  0  0  0  0  0  0  0  0  0  0  0
   46.4810   34.3620   43.4630 C   0  0  0  0  0  0  0  0  0  0  0  0
   46.9790   33.3490   44.3200 C   0  0  0  0  0  0  0  0  0  0  0  0
   46.3840   33.2280   45.5360 N   0  0  0  0  0  0  0  0  0  0  0  0
   45.3730   34.0140   45.9350 C   0  0  0  0  0  0  0  0  0  0  0  0
   44.9010   34.9710   45.1270 N   0  0  0  0  0  0  0  0  0  0  0  0
   44.9300   36.1690   43.0590 N   0  0  0  0  0  0  0  0  0  0  0  0
   47.0910   34.5180   42.1590 C   0  0  0  0  0  0  0  0  0  0  0  0
   48.1920   35.2960   41.8200 C   0  0  0  0  0  0  0  0  0  0  0  0
   48.6590   35.3420   40.5270 C   0  0  0  0  0  0  0  0  0  0  0  0
   48.0450   34.6090   39.5170 C   0  0  0  0  0  0  0  0  0  0  0  0
   48.5490   34.6970   38.2820 N   0  0  0  0  0  0  0  0  0  0  0  0
   47.9720   33.9920   37.2650 C   0  0  0  0  0  0  0  0  0  0  0  0
   46.8820   33.2190   37.5900 C   0  0  0  0  0  0  0  0  0  0  0  0
   46.3360   33.1040   38.8530 C   0  0  0  0  0  0  0  0  0  0  0  0
   46.9530   33.8350   39.8540 C   0  0  0  0  0  0  0  0  0  0  0  0
   46.4730   33.7860   41.1640 C   0  0  0  0  0  0  0  0  0  0  0  0
   44.8110   33.7710   47.3040 C   0  0  0  0  0  0  0  0  0  0  0  0
   45.4450   32.5170   47.9080 C   0  0  0  0  0  0  0  0  0  0  0  0
   44.4620   31.9270   48.7050 O   0  0  0  0  0  0  0  0  0  0  0  0
   47.8073   32.6922   44.0156 H   0  0  0  0  0  0  0  0  0  0  0  0
   45.3489   36.2981   42.1269 H   0  0  0  0  0  0  0  0  0  0  0  0
   44.1539   36.7741   43.3631 H   0  0  0  0  0  0  0  0  0  0  0  0
   48.6984   35.8849   42.5990 H   0  0  0  0  0  0  0  0  0  0  0  0
   49.5314   35.9681   40.2882 H   0  0  0  0  0  0  0  0  0  0  0  0
   48.3598   34.0399   36.2367 H   0  0  0  0  0  0  0  0  0  0  0  0
   46.4074   32.6468   36.7793 H   0  0  0  0  0  0  0  0  0  0  0  0
   45.4609   32.4680   39.0525 H   0  0  0  0  0  0  0  0  0  0  0  0
   45.5995   33.1622   41.4047 H   0  0  0  0  0  0  0  0  0  0  0  0
   45.0286   34.6364   47.9472 H   0  0  0  0  0  0  0  0  0  0  0  0
   43.7227   33.6289   47.2304 H   0  0  0  0  0  0  0  0  0  0  0  0
   45.7553   31.8252   47.1110 H   0  0  0  0  0  0  0  0  0  0  0  0
   46.3411   32.7650   48.4958 H   0  0  0  0  0  0  0  0  0  0  0  0
   44.6865   32.0617   49.6598 H   0  0  0  0  0  0  0  0  0  0  0  0
  1  6  2  0
  2  1  1  0
  2  3  2  0
  3  4  1  0
  4  5  2  0
  5 18  1  0
  6  5  1  0
  7  1  1  0
  8  2  1  0
  9  8  2  0
 10  9  1  0
 11 16  1  0
 11 10  2  0
 12 11  1  0
 13 14  1  0
 13 12  2  0
 14 15  2  0
 15 16  1  0
 16 17  2  0
 17  8  1  0
 18 19  1  0
 19 20  1  0
  3 21  1  0
  7 22  1  0
  7 23  1  0
  9 24  1  0
 10 25  1  0
 13 26  1  0
 14 27  1  0
 15 28  1  0
 17 29  1  0
 18 30  1  0
 18 31  1  0
 19 32  1  0
 19 33  1  0
 20 34  1  0
M  ISO  8  21  14  24  14  25  14  26  14  27  14  28  14  29  14  30   8
M  ISO  4  31   8  32   8  33   8  34   3
M  END
>  <minimizedAffinity>  (1) 
-6.02234697

>  <minimizedRMSD>  (1) 
0.188780233

$$$$
