
     RDKit          3D

 18 18  0  0  0  0  0  0  0  0999 V2000
   46.5520   33.6370   44.3440 C   0  0  0  0  0  0  0  0  0  0  0  0
   46.2520   33.1990   45.6520 C   0  0  0  0  0  0  0  0  0  0  0  0
   45.2820   33.8970   46.3550 C   0  0  0  0  0  0  0  0  0  0  0  0
   44.6690   34.9580   45.7650 N   0  0  0  0  0  0  0  0  0  0  0  0
   44.9810   35.3500   44.5130 C   0  0  0  0  0  0  0  0  0  0  0  0
   45.9190   34.6940   43.8010 N   0  0  0  0  0  0  0  0  0  0  0  0
   44.9980   33.4550   47.6410 O   0  0  0  0  0  0  0  0  0  0  0  0
   45.3770   30.8460   47.4520 O   0  0  0  0  0  0  0  0  0  0  0  0
   45.8000   32.0800   48.2550 P   0  0  2  0  0  0  0  0  0  0  0  0
   45.2580   31.8450   49.8550 O   0  0  0  0  0  0  0  0  0  0  0  0
   47.4470   32.3190   48.1980 O   0  0  0  0  0  0  0  0  0  0  0  0
   48.3760   31.4250   48.6670 C   0  0  0  0  0  0  0  0  0  0  0  0
   49.3790   31.9370   49.2650 O   0  0  0  0  0  0  0  0  0  0  0  0
   47.3163   33.1054   43.7581 H   0  0  0  0  0  0  0  0  0  0  0  0
   46.7687   32.3359   46.0970 H   0  0  0  0  0  0  0  0  0  0  0  0
   44.4649   36.2137   44.0683 H   0  0  0  0  0  0  0  0  0  0  0  0
   45.9565   32.1478   50.4879 H   0  0  0  0  0  0  0  0  0  0  0  0
   48.2631   30.3387   48.5359 H   0  0  0  0  0  0  0  0  0  0  0  0
  1  2  2  0
  2  3  1  0
  3  7  1  0
  4  3  2  0
  5  4  1  0
  6  1  1  0
  6  5  2  0
  7  9  1  0
  9  8  2  0
  9 10  1  0
 11  9  1  0
 11 12  1  0
 12 13  2  0
  1 14  1  0
  2 15  1  0
  5 16  1  0
 10 17  1  0
 12 18  1  0
M  ISO  5  14  14  15  14  16  14  17   3  18   6
M  END
>  <minimizedAffinity>  (1) 
-4.07957649

>  <minimizedRMSD>  (1) 
6.68233013

$$$$
