
     RDKit          3D

 25 27  0  0  1  0  0  0  0  0999 V2000
   45.0560   33.4030   47.6650 O   0  0  0  0  0  0  0  0  0  0  0  0
   46.6830   33.5160   44.4160 C   0  0  0  0  0  0  0  0  0  0  0  0
   46.3450   33.1270   45.7230 C   0  0  0  0  0  0  0  0  0  0  0  0
   45.3560   33.8120   46.3840 C   0  0  0  0  0  0  0  0  0  0  0  0
   44.7430   34.8420   45.7340 N   0  0  0  0  0  0  0  0  0  0  0  0
   45.0680   35.2100   44.4860 C   0  0  0  0  0  0  0  0  0  0  0  0
   46.0420   34.5440   43.8230 N   0  0  0  0  0  0  0  0  0  0  0  0
   45.3830   30.8020   47.5230 O   0  0  0  0  0  0  0  0  0  0  0  0
   45.7990   32.0470   48.3360 P   0  0  2  0  0  0  0  0  0  0  0  0
   45.2200   31.7850   49.8970 O   0  0  0  0  0  0  0  0  0  0  0  0
   47.4460   32.2050   48.2920 O   0  0  0  0  0  0  0  0  0  0  0  0
   48.4230   31.4700   48.8620 C   0  0  0  0  0  0  0  0  0  0  0  0
   49.4090   32.1540   49.3070 O   0  0  0  0  0  0  0  0  0  0  0  0
   49.2610   30.3970   49.3910 C   0  0  0  0  0  0  0  0  0  0  0  0
   49.3210   29.1190   48.5810 C   0  0  0  0  0  0  0  0  0  0  0  0
   50.5250   29.9740   48.7500 C   0  0  0  0  0  0  0  0  0  0  0  0
   47.4749   32.9791   43.8732 H   0  0  0  0  0  0  0  0  0  0  0  0
   46.8642   32.2875   46.2085 H   0  0  0  0  0  0  0  0  0  0  0  0
   44.5454   36.0491   44.0035 H   0  0  0  0  0  0  0  0  0  0  0  0
   45.8942   32.0901   50.5546 H   0  0  0  0  0  0  0  0  0  0  0  0
   48.9247   31.3809   47.8872 H   0  0  0  0  0  0  0  0  0  0  0  0
   48.8181   29.0595   47.6045 H   0  0  0  0  0  0  0  0  0  0  0  0
   49.0785   28.0622   48.7661 H   0  0  0  0  0  0  0  0  0  0  0  0
   51.3615   29.6223   49.3717 H   0  0  0  0  0  0  0  0  0  0  0  0
   51.2334   30.4511   48.0567 H   0  0  0  0  0  0  0  0  0  0  0  0
  1  9  1  0
  2  3  2  0
  3  4  1  0
  4  1  1  0
  5  4  2  0
  6  5  1  0
  7  2  1  0
  7  6  2  0
  9  8  2  0
  9 10  1  0
 11  9  1  0
 12 11  1  0
 12 13  1  0
 12 14  1  0
 13 14  1  0
 15 16  1  0
 15 14  1  0
 16 14  1  0
  2 17  1  0
  3 18  1  0
  6 19  1  0
 10 20  1  0
 12 21  1  0
 15 22  1  0
 15 23  1  0
 16 24  1  0
 16 25  1  0
M  ISO  8  17  14  18  14  19  14  20   3  21  13  22  13  23  13  24  13
M  ISO  1  25  13
M  END
>  <minimizedAffinity>  (1) 
-4.44331408

>  <minimizedRMSD>  (1) 
0.692338109

$$$$
