
     RDKit          3D

 33 36  0  0  0  0  0  0  0  0999 V2000
   44.9710   33.0700   41.0230 Cl  0  0  0  0  0  0  0  0  0  0  0  0
   46.4700   33.9480   40.8310 C   0  0  0  0  0  0  0  0  0  0  0  0
   46.9380   34.7440   41.8380 C   0  0  0  0  0  0  0  0  0  0  0  0
   48.1340   35.4590   41.7100 C   0  0  0  0  0  0  0  0  0  0  0  0
   48.8050   35.3130   40.5200 C   0  0  0  0  0  0  0  0  0  0  0  0
   48.3390   34.5190   39.5110 C   0  0  0  0  0  0  0  0  0  0  0  0
   47.1630   33.8220   39.6500 C   0  0  0  0  0  0  0  0  0  0  0  0
   46.8500   31.6200   38.5510 C   0  0  0  0  0  0  0  0  0  0  0  0
   46.7320   32.9950   38.5280 C   0  0  0  0  0  0  0  0  0  0  0  0
   46.1790   33.5410   37.3770 C   0  0  0  0  0  0  0  0  0  0  0  0
   45.7700   32.7350   36.3080 C   0  0  0  0  0  0  0  0  0  0  0  0
   45.2160   33.0710   35.1180 N   0  0  0  0  0  0  0  0  0  0  0  0
   45.0150   31.8960   34.4520 C   0  0  0  0  0  0  0  0  0  0  0  0
   45.4370   30.8600   35.2230 N   0  0  0  0  0  0  0  0  0  0  0  0
   45.9060   31.3620   36.3720 C   0  0  0  0  0  0  0  0  0  0  0  0
   46.4580   30.7860   37.5150 C   0  0  0  0  0  0  0  0  0  0  0  0
   45.6310   34.0440   45.2100 C   0  0  0  0  0  0  0  0  0  0  0  0
   44.7220   35.1020   45.4090 C   0  0  0  0  0  0  0  0  0  0  0  0
   44.5740   36.0310   44.3910 C   0  0  0  0  0  0  0  0  0  0  0  0
   45.3070   35.8740   43.2620 N   0  0  0  0  0  0  0  0  0  0  0  0
   46.1770   34.8560   43.0800 C   0  0  0  0  0  0  0  0  0  0  0  0
   46.3280   33.9470   44.0660 N   0  0  0  0  0  0  0  0  0  0  0  0
   48.5156   36.1019   42.5169 H   0  0  0  0  0  0  0  0  0  0  0  0
   49.7512   35.8548   40.3747 H   0  0  0  0  0  0  0  0  0  0  0  0
   48.9121   34.4365   38.5757 H   0  0  0  0  0  0  0  0  0  0  0  0
   47.2830   31.1558   39.4493 H   0  0  0  0  0  0  0  0  0  0  0  0
   46.0596   34.6320   37.3036 H   0  0  0  0  0  0  0  0  0  0  0  0
   44.9922   34.0193   34.7839 H   0  0  0  0  0  0  0  0  0  0  0  0
   44.5788   31.8027   33.4465 H   0  0  0  0  0  0  0  0  0  0  0  0
   46.5798   29.6956   37.5933 H   0  0  0  0  0  0  0  0  0  0  0  0
   45.7711   33.2904   45.9990 H   0  0  0  0  0  0  0  0  0  0  0  0
   44.1477   35.1881   46.3432 H   0  0  0  0  0  0  0  0  0  0  0  0
   43.8778   36.8760   44.4970 H   0  0  0  0  0  0  0  0  0  0  0  0
  2  1  1  0
  2  3  2  0
  3 21  1  0
  4  3  1  0
  5  4  2  0
  6  7  2  0
  6  5  1  0
  7  2  1  0
  9  8  2  0
  9  7  1  0
 10  9  1  0
 11 15  1  0
 11 10  2  0
 12 11  1  0
 13 12  1  0
 13 14  2  0
 14 15  1  0
 15 16  2  0
 16  8  1  0
 17 18  2  0
 19 18  1  0
 20 19  2  0
 21 20  1  0
 21 22  2  0
 22 17  1  0
  4 23  1  0
  5 24  1  0
  6 25  1  0
  8 26  1  0
 10 27  1  0
 12 28  1  0
 13 29  1  0
 16 30  1  0
 17 31  1  0
 18 32  1  0
 19 33  1  0
M  ISO  8  23  14  24  14  25  14  26  14  27  14  28   9  29  14  30  14
M  ISO  3  31  14  32  14  33  14
M  END
>  <minimizedAffinity>  (1) 
-6.48421526

>  <minimizedRMSD>  (1) 
0.516967356

$$$$
