
     RDKit          3D

 42 44  0  0  1  0  0  0  0  0999 V2000
   48.4880   31.5090   48.6920 C   0  0  0  0  0  0  0  0  0  0  0  0
   49.4390   32.1290   49.2730 O   0  0  0  0  0  0  0  0  0  0  0  0
   49.2180   30.2870   48.8190 N   0  0  0  0  0  0  0  0  0  0  0  0
   48.8550   29.4180   47.7110 C   0  0  0  0  0  0  0  0  0  0  0  0
   49.5880   28.1170   47.9530 C   0  0  0  0  0  0  0  0  0  0  0  0
   49.4640   27.7380   49.3680 N   0  0  0  0  0  0  0  0  0  0  0  0
   50.4310   28.5300   50.0580 C   0  0  0  0  0  0  0  0  0  0  0  0
   50.1580   29.9750   49.8760 C   0  0  1  0  0  0  0  0  0  0  0  0
   51.2830   31.6830   52.1390 Cl  0  0  0  0  0  0  0  0  0  0  0  0
   52.0480   31.4310   50.5830 C   0  0  0  0  0  0  0  0  0  0  0  0
   51.4780   30.6370   49.5880 C   0  0  0  0  0  0  0  0  0  0  0  0
   52.1460   30.4790   48.3680 C   0  0  0  0  0  0  0  0  0  0  0  0
   53.3510   31.0960   48.1340 C   0  0  0  0  0  0  0  0  0  0  0  0
   53.9260   31.8900   49.1230 C   0  0  0  0  0  0  0  0  0  0  0  0
   53.2590   32.0470   50.3410 C   0  0  0  0  0  0  0  0  0  0  0  0
   47.4510   32.3180   48.3380 O   0  0  0  0  0  0  0  0  0  0  0  0
   45.4550   30.7760   47.5660 O   0  0  0  0  0  0  0  0  0  0  0  0
   45.8150   32.0530   48.3550 P   0  0  1  0  0  0  0  0  0  0  0  0
   45.2480   31.7880   49.9200 O   0  0  0  0  0  0  0  0  0  0  0  0
   45.0090   33.3460   47.6420 O   0  0  0  0  0  0  0  0  0  0  0  0
   46.6820   33.5050   44.4270 C   0  0  0  0  0  0  0  0  0  0  0  0
   46.3020   33.1060   45.7340 C   0  0  0  0  0  0  0  0  0  0  0  0
   45.3180   33.7940   46.3830 C   0  0  0  0  0  0  0  0  0  0  0  0
   44.7230   34.8520   45.7550 N   0  0  0  0  0  0  0  0  0  0  0  0
   45.1000   35.2140   44.5140 C   0  0  0  0  0  0  0  0  0  0  0  0
   46.0570   34.5650   43.8490 N   0  0  0  0  0  0  0  0  0  0  0  0
   49.1695   29.8633   46.7556 H   0  0  0  0  0  0  0  0  0  0  0  0
   47.7670   29.2662   47.6541 H   0  0  0  0  0  0  0  0  0  0  0  0
   49.1516   27.3280   47.3229 H   0  0  0  0  0  0  0  0  0  0  0  0
   50.6510   28.2436   47.7001 H   0  0  0  0  0  0  0  0  0  0  0  0
   48.5161   27.9436   49.7145 H   0  0  0  0  0  0  0  0  0  0  0  0
   50.3948   28.2889   51.1307 H   0  0  0  0  0  0  0  0  0  0  0  0
   51.4265   28.3059   49.6473 H   0  0  0  0  0  0  0  0  0  0  0  0
   49.6821   30.3438   50.7966 H   0  0  0  0  0  0  0  0  0  0  0  0
   51.6988   29.8505   47.5838 H   0  0  0  0  0  0  0  0  0  0  0  0
   53.8602   30.9632   47.1680 H   0  0  0  0  0  0  0  0  0  0  0  0
   54.8917   32.3867   48.9480 H   0  0  0  0  0  0  0  0  0  0  0  0
   53.7090   32.6752   51.1238 H   0  0  0  0  0  0  0  0  0  0  0  0
   45.9221   32.1031   50.5730 H   0  0  0  0  0  0  0  0  0  0  0  0
   47.4729   32.9633   43.8875 H   0  0  0  0  0  0  0  0  0  0  0  0
   46.7952   32.2510   46.2195 H   0  0  0  0  0  0  0  0  0  0  0  0
   44.6039   36.0706   44.0343 H   0  0  0  0  0  0  0  0  0  0  0  0
  1  3  1  0
  1  2  2  0
  3  8  1  0
  4  5  1  0
  4  3  1  0
  5  6  1  0
  6  7  1  0
  8  7  1  0
 10  9  1  0
 11  8  1  0
 11 10  2  0
 12 11  1  0
 13 12  2  0
 13 14  1  0
 14 15  2  0
 15 10  1  0
 16 18  1  0
 16  1  1  0
 18 17  2  0
 18 19  1  0
 20 18  1  0
 21 22  2  0
 22 23  1  0
 23 20  1  0
 24 23  2  0
 25 24  1  0
 26 21  1  0
 26 25  2  0
  4 27  1  0
  4 28  1  0
  5 29  1  0
  5 30  1  0
  6 31  1  0
  7 32  1  0
  7 33  1  0
  8 34  1  1
 12 35  1  0
 13 36  1  0
 14 37  1  0
 15 38  1  0
 19 39  1  0
 21 40  1  0
 22 41  1  0
 25 42  1  0
M  ISO  8  27  13  28  13  29  13  30  13  31   5  32  13  33  13  34  13
M  ISO  8  35  14  36  14  37  14  38  14  39   3  40  14  41  14  42  14
M  END
>  <minimizedAffinity>  (1) 
-5.94638777

>  <minimizedRMSD>  (1) 
0.223875239

$$$$
