
     RDKit          3D

 35 36  0  0  1  0  0  0  0  0999 V2000
   48.4690   31.4720   48.6700 C   0  0  0  0  0  0  0  0  0  0  0  0
   49.3360   32.0750   49.3730 O   0  0  0  0  0  0  0  0  0  0  0  0
   49.2330   30.2880   48.8150 N   0  0  0  0  0  0  0  0  0  0  0  0
   48.9790   29.4550   47.6270 C   0  0  0  0  0  0  0  0  0  0  0  0
   49.6860   28.1420   47.8540 C   0  0  0  0  0  0  0  0  0  0  0  0
   49.4580   27.6910   49.2320 N   0  0  0  0  0  0  0  0  0  0  0  0
   50.3400   28.4430   50.0600 C   0  0  0  0  0  0  0  0  0  0  0  0
   50.0980   29.9140   49.8840 C   0  0  1  0  0  0  0  0  0  0  0  0
   51.4710   30.5530   49.8820 C   0  0  0  0  0  0  0  0  0  0  0  0
   52.4670   29.6650   50.3020 F   0  0  0  0  0  0  0  0  0  0  0  0
   51.8010   31.2830   48.7870 F   0  0  0  0  0  0  0  0  0  0  0  0
   51.4950   31.5170   50.9410 F   0  0  0  0  0  0  0  0  0  0  0  0
   47.4560   32.2880   48.2690 O   0  0  0  0  0  0  0  0  0  0  0  0
   45.4050   30.8080   47.5310 O   0  0  0  0  0  0  0  0  0  0  0  0
   45.8120   32.0600   48.3260 P   0  0  1  0  0  0  0  0  0  0  0  0
   45.2700   31.8160   49.8990 O   0  0  0  0  0  0  0  0  0  0  0  0
   45.0310   33.3930   47.6270 O   0  0  0  0  0  0  0  0  0  0  0  0
   46.6740   33.5290   44.3960 C   0  0  0  0  0  0  0  0  0  0  0  0
   46.3250   33.1300   45.6950 C   0  0  0  0  0  0  0  0  0  0  0  0
   45.3340   33.8250   46.3550 C   0  0  0  0  0  0  0  0  0  0  0  0
   44.7250   34.8750   45.7270 N   0  0  0  0  0  0  0  0  0  0  0  0
   45.0930   35.2280   44.4710 C   0  0  0  0  0  0  0  0  0  0  0  0
   46.0510   34.5710   43.8070 N   0  0  0  0  0  0  0  0  0  0  0  0
   49.3760   29.9479   46.7273 H   0  0  0  0  0  0  0  0  0  0  0  0
   47.9002   29.3008   47.4772 H   0  0  0  0  0  0  0  0  0  0  0  0
   49.2947   27.3897   47.1533 H   0  0  0  0  0  0  0  0  0  0  0  0
   50.7651   28.2749   47.6873 H   0  0  0  0  0  0  0  0  0  0  0  0
   48.4802   27.8647   49.5052 H   0  0  0  0  0  0  0  0  0  0  0  0
   50.1691   28.1711   51.1121 H   0  0  0  0  0  0  0  0  0  0  0  0
   51.3776   28.2159   49.7740 H   0  0  0  0  0  0  0  0  0  0  0  0
   49.4929   30.3020   50.7167 H   0  0  0  0  0  0  0  0  0  0  0  0
   45.9598   32.1265   50.5376 H   0  0  0  0  0  0  0  0  0  0  0  0
   47.4625   32.9876   43.8528 H   0  0  0  0  0  0  0  0  0  0  0  0
   46.8314   32.2806   46.1767 H   0  0  0  0  0  0  0  0  0  0  0  0
   44.5906   36.0772   43.9847 H   0  0  0  0  0  0  0  0  0  0  0  0
  1  3  1  0
  1  2  2  0
  3  8  1  0
  4  5  1  0
  4  3  1  0
  5  6  1  0
  6  7  1  0
  8  7  1  0
  9  8  1  0
  9 10  1  0
  9 12  1  0
 11  9  1  0
 13 15  1  0
 13  1  1  0
 15 14  2  0
 15 16  1  0
 17 15  1  0
 18 19  2  0
 19 20  1  0
 20 17  1  0
 21 20  2  0
 22 21  1  0
 23 18  1  0
 23 22  2  0
  4 24  1  0
  4 25  1  0
  5 26  1  0
  5 27  1  0
  6 28  1  0
  7 29  1  0
  7 30  1  0
  8 31  1  1
 16 32  1  0
 18 33  1  0
 19 34  1  0
 22 35  1  0
M  ISO  8  24  13  25  13  26  13  27  13  28   5  29  13  30  13  31  13
M  ISO  4  32   3  33  14  34  14  35  14
M  END
>  <minimizedAffinity>  (1) 
-5.48753166

>  <minimizedRMSD>  (1) 
0.355204165

$$$$
