
     RDKit          3D

 39 41  0  0  1  0  0  0  0  0999 V2000
   48.4510   31.4520   48.6740 C   0  0  0  0  0  0  0  0  0  0  0  0
   49.3790   32.0330   49.3370 O   0  0  0  0  0  0  0  0  0  0  0  0
   49.1690   30.2430   48.7760 N   0  0  0  0  0  0  0  0  0  0  0  0
   48.8760   29.4250   47.5900 C   0  0  0  0  0  0  0  0  0  0  0  0
   49.6080   28.1210   47.7870 C   0  0  0  0  0  0  0  0  0  0  0  0
   49.4080   27.6590   49.1710 N   0  0  0  0  0  0  0  0  0  0  0  0
   50.3220   28.4000   49.9740 C   0  0  0  0  0  0  0  0  0  0  0  0
   50.0630   29.8480   49.8560 C   0  0  1  0  0  0  0  0  0  0  0  0
   51.4080   30.5130   49.5320 C   0  0  0  0  0  0  0  0  0  0  0  0
   52.6620   29.8080   49.8940 C   0  0  0  0  0  0  0  0  0  0  0  0
   52.2350   30.9650   50.7300 C   0  0  0  0  0  0  0  0  0  0  0  0
   47.4430   32.2860   48.3170 O   0  0  0  0  0  0  0  0  0  0  0  0
   45.4070   30.8080   47.5490 O   0  0  0  0  0  0  0  0  0  0  0  0
   45.8080   32.0640   48.3440 P   0  0  1  0  0  0  0  0  0  0  0  0
   45.2430   31.8130   49.9010 O   0  0  0  0  0  0  0  0  0  0  0  0
   45.0290   33.3890   47.6340 O   0  0  0  0  0  0  0  0  0  0  0  0
   46.6810   33.5190   44.4090 C   0  0  0  0  0  0  0  0  0  0  0  0
   46.3160   33.1280   45.7220 C   0  0  0  0  0  0  0  0  0  0  0  0
   45.3320   33.8190   46.3710 C   0  0  0  0  0  0  0  0  0  0  0  0
   44.7220   34.8680   45.7440 N   0  0  0  0  0  0  0  0  0  0  0  0
   45.0890   35.2230   44.4870 C   0  0  0  0  0  0  0  0  0  0  0  0
   46.0470   34.5690   43.8250 N   0  0  0  0  0  0  0  0  0  0  0  0
   49.2342   29.9298   46.6806 H   0  0  0  0  0  0  0  0  0  0  0  0
   47.7944   29.2636   47.4716 H   0  0  0  0  0  0  0  0  0  0  0  0
   49.2148   27.3688   47.0873 H   0  0  0  0  0  0  0  0  0  0  0  0
   50.6816   28.2669   47.5971 H   0  0  0  0  0  0  0  0  0  0  0  0
   48.4399   27.8411   49.4717 H   0  0  0  0  0  0  0  0  0  0  0  0
   50.2073   28.0969   51.0252 H   0  0  0  0  0  0  0  0  0  0  0  0
   51.3455   28.1939   49.6275 H   0  0  0  0  0  0  0  0  0  0  0  0
   49.5883   30.1481   50.8018 H   0  0  0  0  0  0  0  0  0  0  0  0
   51.0265   30.9693   48.6067 H   0  0  0  0  0  0  0  0  0  0  0  0
   52.6152   28.7898   50.3075 H   0  0  0  0  0  0  0  0  0  0  0  0
   53.5834   29.5521   49.3503 H   0  0  0  0  0  0  0  0  0  0  0  0
   52.7938   31.9117   50.6906 H   0  0  0  0  0  0  0  0  0  0  0  0
   52.0400   31.1294   51.8000 H   0  0  0  0  0  0  0  0  0  0  0  0
   45.9245   32.1158   50.5522 H   0  0  0  0  0  0  0  0  0  0  0  0
   47.4706   32.9769   43.8679 H   0  0  0  0  0  0  0  0  0  0  0  0
   46.8179   32.2803   46.2113 H   0  0  0  0  0  0  0  0  0  0  0  0
   44.5847   36.0711   44.0007 H   0  0  0  0  0  0  0  0  0  0  0  0
  1  3  1  0
  1  2  2  0
  3  8  1  0
  4  5  1  0
  4  3  1  0
  5  6  1  0
  6  7  1  0
  8  7  1  0
  9  8  1  0
  9 10  1  0
  9 11  1  0
 10 11  1  0
 12 14  1  0
 12  1  1  0
 14 13  2  0
 14 15  1  0
 16 14  1  0
 17 18  2  0
 18 19  1  0
 19 16  1  0
 20 19  2  0
 21 20  1  0
 22 17  1  0
 22 21  2  0
  4 23  1  0
  4 24  1  0
  5 25  1  0
  5 26  1  0
  6 27  1  0
  7 28  1  0
  7 29  1  0
  8 30  1  1
  9 31  1  0
 10 32  1  0
 10 33  1  0
 11 34  1  0
 11 35  1  0
 15 36  1  0
 17 37  1  0
 18 38  1  0
 21 39  1  0
M  ISO  8  23  13  24  13  25  13  26  13  27   5  28  13  29  13  30  13
M  ISO  8  31  13  32  13  33  13  34  13  35  13  36   3  37  14  38  14
M  ISO  1  39  14
M  END
>  <minimizedAffinity>  (1) 
-5.35394907

>  <minimizedRMSD>  (1) 
0.123641074

$$$$
