
     RDKit          3D

 34 35  0  0  1  0  0  0  0  0999 V2000
   48.4520   31.3940   48.6890 C   0  0  0  0  0  0  0  0  0  0  0  0
   49.3970   31.9690   49.3520 O   0  0  0  0  0  0  0  0  0  0  0  0
   49.1560   30.1690   48.7780 N   0  0  0  0  0  0  0  0  0  0  0  0
   48.8540   29.3840   47.5950 C   0  0  0  0  0  0  0  0  0  0  0  0
   49.5380   28.0480   47.7880 C   0  0  0  0  0  0  0  0  0  0  0  0
   49.3520   27.5800   49.1640 N   0  0  0  0  0  0  0  0  0  0  0  0
   50.3140   28.3060   49.9380 C   0  0  0  0  0  0  0  0  0  0  0  0
   50.0270   29.7630   49.8600 C   0  0  1  0  0  0  0  0  0  0  0  0
   51.2900   30.4850   49.8750 N   0  0  0  0  0  0  0  0  0  0  0  0
   47.4470   32.2510   48.3440 O   0  0  0  0  0  0  0  0  0  0  0  0
   45.4050   30.7910   47.5420 O   0  0  0  0  0  0  0  0  0  0  0  0
   45.8120   32.0440   48.3520 P   0  0  1  0  0  0  0  0  0  0  0  0
   45.2350   31.7860   49.9170 O   0  0  0  0  0  0  0  0  0  0  0  0
   45.0460   33.3730   47.6620 O   0  0  0  0  0  0  0  0  0  0  0  0
   46.6910   33.5000   44.4310 C   0  0  0  0  0  0  0  0  0  0  0  0
   46.3330   33.1130   45.7440 C   0  0  0  0  0  0  0  0  0  0  0  0
   45.3350   33.8080   46.3960 C   0  0  0  0  0  0  0  0  0  0  0  0
   44.7310   34.8370   45.7590 N   0  0  0  0  0  0  0  0  0  0  0  0
   45.0870   35.1940   44.5040 C   0  0  0  0  0  0  0  0  0  0  0  0
   46.0520   34.5390   43.8430 N   0  0  0  0  0  0  0  0  0  0  0  0
   49.2424   29.8847   46.6959 H   0  0  0  0  0  0  0  0  0  0  0  0
   47.7689   29.2628   47.4610 H   0  0  0  0  0  0  0  0  0  0  0  0
   49.1049   27.3139   47.0926 H   0  0  0  0  0  0  0  0  0  0  0  0
   50.6138   28.1629   47.5896 H   0  0  0  0  0  0  0  0  0  0  0  0
   48.3966   27.7851   49.4897 H   0  0  0  0  0  0  0  0  0  0  0  0
   50.2607   27.9789   50.9869 H   0  0  0  0  0  0  0  0  0  0  0  0
   51.3211   28.1123   49.5402 H   0  0  0  0  0  0  0  0  0  0  0  0
   49.4322   30.0259   50.7472 H   0  0  0  0  0  0  0  0  0  0  0  0
   51.5794   30.6504   50.8496 H   0  0  0  0  0  0  0  0  0  0  0  0
   52.0098   29.9278   49.3930 H   0  0  0  0  0  0  0  0  0  0  0  0
   45.9123   32.0888   50.5725 H   0  0  0  0  0  0  0  0  0  0  0  0
   47.4832   32.9604   43.8914 H   0  0  0  0  0  0  0  0  0  0  0  0
   46.8420   32.2717   46.2371 H   0  0  0  0  0  0  0  0  0  0  0  0
   44.5754   36.0372   44.0168 H   0  0  0  0  0  0  0  0  0  0  0  0
  1  3  1  0
  1  2  2  0
  3  8  1  0
  4  5  1  0
  4  3  1  0
  5  6  1  0
  6  7  1  0
  8  9  1  0
  8  7  1  0
 10 12  1  0
 10  1  1  0
 12 11  2  0
 12 13  1  0
 14 12  1  0
 15 16  2  0
 16 17  1  0
 17 14  1  0
 18 17  2  0
 19 18  1  0
 20 15  1  0
 20 19  2  0
  4 21  1  0
  4 22  1  0
  5 23  1  0
  5 24  1  0
  6 25  1  0
  7 26  1  0
  7 27  1  0
  8 28  1  1
  9 29  1  0
  9 30  1  0
 13 31  1  0
 15 32  1  0
 16 33  1  0
 19 34  1  0
M  ISO  8  21  13  22  13  23  13  24  13  25   5  26  13  27  13  28  13
M  ISO  6  29   5  30   5  31   3  32  14  33  14  34  14
M  END
>  <minimizedAffinity>  (1) 
-5.29340935

>  <minimizedRMSD>  (1) 
0.00804110058

$$$$
