
     RDKit          3D

 38 39  0  0  1  0  0  0  0  0999 V2000
   48.4630   31.4550   48.6660 C   0  0  0  0  0  0  0  0  0  0  0  0
   49.3730   32.0330   49.3380 O   0  0  0  0  0  0  0  0  0  0  0  0
   49.2020   30.2420   48.7800 N   0  0  0  0  0  0  0  0  0  0  0  0
   48.8930   29.4310   47.5920 C   0  0  0  0  0  0  0  0  0  0  0  0
   49.5870   28.0980   47.7970 C   0  0  0  0  0  0  0  0  0  0  0  0
   49.3940   27.6430   49.1780 N   0  0  0  0  0  0  0  0  0  0  0  0
   50.3240   28.3790   49.9680 C   0  0  0  0  0  0  0  0  0  0  0  0
   50.0850   29.8490   49.8360 C   0  0  1  0  0  0  0  0  0  0  0  0
   47.4560   32.2860   48.3010 O   0  0  0  0  0  0  0  0  0  0  0  0
   45.4100   30.8090   47.5280 O   0  0  0  0  0  0  0  0  0  0  0  0
   45.8110   32.0570   48.3360 P   0  0  1  0  0  0  0  0  0  0  0  0
   45.2480   31.8030   49.9020 O   0  0  0  0  0  0  0  0  0  0  0  0
   45.0360   33.3910   47.6350 O   0  0  0  0  0  0  0  0  0  0  0  0
   46.6740   33.5220   44.4040 C   0  0  0  0  0  0  0  0  0  0  0  0
   46.3270   33.1250   45.7060 C   0  0  0  0  0  0  0  0  0  0  0  0
   45.3330   33.8240   46.3660 C   0  0  0  0  0  0  0  0  0  0  0  0
   44.7290   34.8690   45.7330 N   0  0  0  0  0  0  0  0  0  0  0  0
   45.0800   35.2310   44.4870 C   0  0  0  0  0  0  0  0  0  0  0  0
   46.0430   34.5680   43.8210 N   0  0  0  0  0  0  0  0  0  0  0  0
   51.4240   30.5180   49.8540 C   0  0  0  0  0  0  0  0  0  0  0  0
   52.0360   30.6470   51.2300 C   0  0  0  0  0  0  0  0  0  0  0  0
   49.2733   29.9233   46.6848 H   0  0  0  0  0  0  0  0  0  0  0  0
   47.8079   29.3025   47.4657 H   0  0  0  0  0  0  0  0  0  0  0  0
   49.1625   27.3554   47.1054 H   0  0  0  0  0  0  0  0  0  0  0  0
   50.6630   28.2155   47.6010 H   0  0  0  0  0  0  0  0  0  0  0  0
   48.4306   27.8359   49.4870 H   0  0  0  0  0  0  0  0  0  0  0  0
   50.2108   28.0884   51.0229 H   0  0  0  0  0  0  0  0  0  0  0  0
   51.3417   28.1539   49.6164 H   0  0  0  0  0  0  0  0  0  0  0  0
   49.4953   30.2018   50.6950 H   0  0  0  0  0  0  0  0  0  0  0  0
   45.9291   32.1103   50.5514 H   0  0  0  0  0  0  0  0  0  0  0  0
   47.4605   32.9815   43.8569 H   0  0  0  0  0  0  0  0  0  0  0  0
   46.8345   32.2773   46.1896 H   0  0  0  0  0  0  0  0  0  0  0  0
   44.5733   36.0804   44.0055 H   0  0  0  0  0  0  0  0  0  0  0  0
   52.1104   29.9320   49.2251 H   0  0  0  0  0  0  0  0  0  0  0  0
   51.2702   31.5411   49.4803 H   0  0  0  0  0  0  0  0  0  0  0  0
   51.2606   30.4836   51.9929 H   0  0  0  0  0  0  0  0  0  0  0  0
   52.8316   29.8968   51.3492 H   0  0  0  0  0  0  0  0  0  0  0  0
   52.4611   31.6545   51.3492 H   0  0  0  0  0  0  0  0  0  0  0  0
  1  3  1  0
  1  2  2  0
  3  8  1  0
  4  5  1  0
  4  3  1  0
  5  6  1  0
  6  7  1  0
  8 20  1  0
  8  7  1  0
  9 11  1  0
  9  1  1  0
 11 10  2  0
 11 12  1  0
 13 11  1  0
 14 15  2  0
 15 16  1  0
 16 13  1  0
 17 16  2  0
 18 17  1  0
 19 14  1  0
 19 18  2  0
 20 21  1  0
  4 22  1  0
  4 23  1  0
  5 24  1  0
  5 25  1  0
  6 26  1  0
  7 27  1  0
  7 28  1  0
  8 29  1  1
 12 30  1  0
 14 31  1  0
 15 32  1  0
 18 33  1  0
 20 34  1  0
 20 35  1  0
 21 36  1  0
 21 37  1  0
 21 38  1  0
M  ISO  8  22  13  23  13  24  13  25  13  26   5  27  13  28  13  29  13
M  ISO  8  30   3  31  14  32  14  33  14  34   8  35   8  36   8  37   8
M  ISO  1  38   8
M  END
>  <minimizedAffinity>  (1) 
-5.22237015

>  <minimizedRMSD>  (1) 
0.415326238

$$$$
