
     RDKit          3D

 26 27  0  0  0  0  0  0  0  0999 V2000
   45.0510   34.4240   40.9100 Cl  0  0  0  0  0  0  0  0  0  0  0  0
   46.7080   34.0820   41.3170 C   0  0  0  0  0  0  0  0  0  0  0  0
   47.1630   34.1860   42.5940 C   0  0  0  0  0  0  0  0  0  0  0  0
   48.4890   33.8950   42.8080 C   0  0  0  0  0  0  0  0  0  0  0  0
   49.3360   33.5170   41.8140 C   0  0  0  0  0  0  0  0  0  0  0  0
   48.8710   33.4120   40.5170 C   0  0  0  0  0  0  0  0  0  0  0  0
   47.5410   33.7010   40.2870 C   0  0  0  0  0  0  0  0  0  0  0  0
   44.5540   36.1130   44.5550 C   0  0  0  0  0  0  0  0  0  0  0  0
   45.4440   35.7280   43.5500 C   0  0  0  0  0  0  0  0  0  0  0  0
   46.2290   34.5930   43.6410 C   0  0  0  0  0  0  0  0  0  0  0  0
   46.0880   33.8570   44.7830 N   0  0  0  0  0  0  0  0  0  0  0  0
   45.2300   34.2270   45.7520 C   0  0  0  0  0  0  0  0  0  0  0  0
   44.4660   35.3410   45.6490 N   0  0  0  0  0  0  0  0  0  0  0  0
   50.7500   33.2280   42.1660 C   0  0  0  0  0  0  0  0  0  0  0  0
   51.2950   32.0840   41.3170 C   0  0  0  0  0  0  0  0  0  0  0  0
   48.8837   33.9715   43.8319 H   0  0  0  0  0  0  0  0  0  0  0  0
   49.5376   33.1086   39.6963 H   0  0  0  0  0  0  0  0  0  0  0  0
   47.1395   33.6261   39.2656 H   0  0  0  0  0  0  0  0  0  0  0  0
   43.9432   37.0221   44.4528 H   0  0  0  0  0  0  0  0  0  0  0  0
   45.5240   36.3534   42.6486 H   0  0  0  0  0  0  0  0  0  0  0  0
   45.1466   33.6054   46.6557 H   0  0  0  0  0  0  0  0  0  0  0  0
   51.3569   34.1285   41.9906 H   0  0  0  0  0  0  0  0  0  0  0  0
   50.7976   32.9355   43.2253 H   0  0  0  0  0  0  0  0  0  0  0  0
   51.6743   31.2879   41.9745 H   0  0  0  0  0  0  0  0  0  0  0  0
   50.4910   31.6833   40.6821 H   0  0  0  0  0  0  0  0  0  0  0  0
   52.1127   32.4558   40.6821 H   0  0  0  0  0  0  0  0  0  0  0  0
  1  2  1  0
  2  3  2  0
  3  4  1  0
  3 10  1  0
  5 14  1  0
  5  4  2  0
  6  5  1  0
  7  6  2  0
  7  2  1  0
  8 13  2  0
  9 10  2  0
  9  8  1  0
 10 11  1  0
 11 12  2  0
 13 12  1  0
 15 14  1  0
  4 16  1  0
  6 17  1  0
  7 18  1  0
  8 19  1  0
  9 20  1  0
 12 21  1  0
 14 22  1  0
 14 23  1  0
 15 24  1  0
 15 25  1  0
 15 26  1  0
M  ISO  8  16  14  17  14  18  14  19  14  20  14  21  14  22   8  23   8
M  ISO  3  24   8  25   8  26   8
M  END
>  <minimizedAffinity>  (1) 
-4.76367378

>  <minimizedRMSD>  (1) 
1.53469443

$$$$
