
     RDKit          3D

 24 25  0  0  0  0  0  0  0  0999 V2000
   43.4720   32.6750   41.7580 Cl  0  0  0  0  0  0  0  0  0  0  0  0
   44.9780   33.2230   41.0600 C   0  0  0  0  0  0  0  0  0  0  0  0
   45.8160   34.0430   41.7540 C   0  0  0  0  0  0  0  0  0  0  0  0
   46.9710   34.4120   41.1040 C   0  0  0  0  0  0  0  0  0  0  0  0
   47.2910   34.0000   39.8490 C   0  0  0  0  0  0  0  0  0  0  0  0
   46.4410   33.1770   39.1640 C   0  0  0  0  0  0  0  0  0  0  0  0
   45.2700   32.7900   39.7900 C   0  0  0  0  0  0  0  0  0  0  0  0
   44.4460   36.0460   44.6530 C   0  0  0  0  0  0  0  0  0  0  0  0
   44.7890   35.6770   43.3390 C   0  0  0  0  0  0  0  0  0  0  0  0
   45.4450   34.4620   43.0900 C   0  0  0  0  0  0  0  0  0  0  0  0
   45.7040   33.7160   44.1790 N   0  0  0  0  0  0  0  0  0  0  0  0
   45.3760   34.0730   45.4260 C   0  0  0  0  0  0  0  0  0  0  0  0
   44.7460   35.2390   45.6650 N   0  0  0  0  0  0  0  0  0  0  0  0
   48.7930   34.6750   37.8260 C   0  0  0  0  0  0  0  0  0  0  0  0
   47.9170   34.6360   36.9070 O   0  0  0  0  0  0  0  0  0  0  0  0
   48.4870   34.3800   39.1740 N   0  0  0  0  0  0  0  0  0  0  0  0
   47.6735   35.0764   41.6284 H   0  0  0  0  0  0  0  0  0  0  0  0
   46.6809   32.8334   38.1469 H   0  0  0  0  0  0  0  0  0  0  0  0
   44.5652   32.1284   39.2650 H   0  0  0  0  0  0  0  0  0  0  0  0
   43.9311   36.9996   44.8417 H   0  0  0  0  0  0  0  0  0  0  0  0
   44.5411   36.3456   42.5015 H   0  0  0  0  0  0  0  0  0  0  0  0
   45.6237   33.4066   46.2654 H   0  0  0  0  0  0  0  0  0  0  0  0
   49.8258   34.9479   37.5636 H   0  0  0  0  0  0  0  0  0  0  0  0
   49.3006   34.4557   39.8010 H   0  0  0  0  0  0  0  0  0  0  0  0
  2  3  2  0
  2  1  1  0
  3 10  1  0
  4  3  1  0
  5  4  2  0
  6  7  2  0
  6  5  1  0
  7  2  1  0
  8 13  2  0
  9  8  1  0
 10  9  2  0
 10 11  1  0
 11 12  2  0
 12 13  1  0
 14 16  1  0
 15 14  2  0
 16  5  1  0
  4 17  1  0
  6 18  1  0
  7 19  1  0
  8 20  1  0
  9 21  1  0
 12 22  1  0
 14 23  1  0
 16 24  1  0
M  ISO  7  17  14  18  14  19  14  20  14  21  14  22  14  23   6
M  END
>  <minimizedAffinity>  (1) 
-4.60775328

>  <minimizedRMSD>  (1) 
1.69528186

$$$$
