
     RDKit          3D

 30 32  0  0  0  0  0  0  0  0999 V2000
   44.8160   33.2580   41.1420 Cl  0  0  0  0  0  0  0  0  0  0  0  0
   46.3720   34.0230   41.0040 C   0  0  0  0  0  0  0  0  0  0  0  0
   46.8810   34.7490   42.0530 C   0  0  0  0  0  0  0  0  0  0  0  0
   48.1290   35.3770   41.9770 C   0  0  0  0  0  0  0  0  0  0  0  0
   48.8090   35.2210   40.7890 C   0  0  0  0  0  0  0  0  0  0  0  0
   48.2970   34.4910   39.7350 C   0  0  0  0  0  0  0  0  0  0  0  0
   47.0830   33.8930   39.8400 C   0  0  0  0  0  0  0  0  0  0  0  0
   45.4970   34.0970   45.3980 C   0  0  0  0  0  0  0  0  0  0  0  0
   44.6240   35.1700   45.5860 C   0  0  0  0  0  0  0  0  0  0  0  0
   44.5140   36.1070   44.5710 C   0  0  0  0  0  0  0  0  0  0  0  0
   45.2600   35.9310   43.4550 N   0  0  0  0  0  0  0  0  0  0  0  0
   46.1050   34.8770   43.2890 C   0  0  0  0  0  0  0  0  0  0  0  0
   46.2150   33.9680   44.2680 N   0  0  0  0  0  0  0  0  0  0  0  0
   48.0460   34.6490   37.0560 Cl  0  0  0  0  0  0  0  0  0  0  0  0
   46.9460   33.3460   37.3640 C   0  0  0  0  0  0  0  0  0  0  0  0
   46.6140   33.1400   38.6820 C   0  0  0  0  0  0  0  0  0  0  0  0
   45.7340   32.1120   39.0360 C   0  0  0  0  0  0  0  0  0  0  0  0
   45.1850   31.2870   38.0510 C   0  0  0  0  0  0  0  0  0  0  0  0
   45.5300   31.5080   36.7190 C   0  0  0  0  0  0  0  0  0  0  0  0
   46.4010   32.5270   36.3880 C   0  0  0  0  0  0  0  0  0  0  0  0
   48.5417   35.9593   42.8140 H   0  0  0  0  0  0  0  0  0  0  0  0
   49.7952   35.6951   40.6762 H   0  0  0  0  0  0  0  0  0  0  0  0
   48.8761   34.3934   38.8049 H   0  0  0  0  0  0  0  0  0  0  0  0
   45.5998   33.3412   46.1906 H   0  0  0  0  0  0  0  0  0  0  0  0
   44.0403   35.2689   46.5131 H   0  0  0  0  0  0  0  0  0  0  0  0
   43.8391   36.9701   44.6693 H   0  0  0  0  0  0  0  0  0  0  0  0
   45.4735   31.9526   40.0927 H   0  0  0  0  0  0  0  0  0  0  0  0
   44.4922   30.4768   38.3223 H   0  0  0  0  0  0  0  0  0  0  0  0
   45.1075   30.8692   35.9295 H   0  0  0  0  0  0  0  0  0  0  0  0
   46.6664   32.6912   35.3332 H   0  0  0  0  0  0  0  0  0  0  0  0
  2  1  1  0
  2  3  2  0
  3 12  1  0
  4  3  1  0
  5  4  2  0
  6  7  2  0
  6  5  1  0
  7  2  1  0
  8  9  2  0
 10  9  1  0
 11 10  2  0
 12 11  1  0
 12 13  2  0
 13  8  1  0
 14 15  1  0
 15 16  2  0
 16 17  1  0
 16  7  1  0
 18 17  2  0
 19 18  1  0
 20 19  2  0
 20 15  1  0
  4 21  1  0
  5 22  1  0
  6 23  1  0
  8 24  1  0
  9 25  1  0
 10 26  1  0
 17 27  1  0
 18 28  1  0
 19 29  1  0
 20 30  1  0
M  ISO  8  21  14  22  14  23  14  24  14  25  14  26  14  27  14  28  14
M  ISO  2  29  14  30  14
M  END
>  <minimizedAffinity>  (1) 
-5.94818068

>  <minimizedRMSD>  (1) 
0.204163954

$$$$
