
     RDKit          3D

 38 41  0  0  0  0  0  0  0  0999 V2000
   45.0480   33.6890   47.0400 C   0  0  0  0  0  0  0  0  0  0  0  0
   45.2940   34.0570   45.7030 C   0  0  0  0  0  0  0  0  0  0  0  0
   46.3000   33.4600   44.9570 C   0  0  0  0  0  0  0  0  0  0  0  0
   47.0330   32.5000   45.5890 N   0  0  0  0  0  0  0  0  0  0  0  0
   46.7880   32.1580   46.8650 C   0  0  0  0  0  0  0  0  0  0  0  0
   45.8150   32.7350   47.5900 N   0  0  0  0  0  0  0  0  0  0  0  0
   47.6090   31.1230   47.4880 C   0  0  0  0  0  0  0  0  0  0  0  0
   47.7650   29.8850   46.8940 C   0  0  0  0  0  0  0  0  0  0  0  0
   48.5140   28.8370   47.3910 C   0  0  0  0  0  0  0  0  0  0  0  0
   49.1570   29.0920   48.6070 C   0  0  0  0  0  0  0  0  0  0  0  0
   49.9020   28.1090   49.1420 N   0  0  0  0  0  0  0  0  0  0  0  0
   50.5760   28.2080   50.3040 C   0  0  0  0  0  0  0  0  0  0  0  0
   50.4640   29.4370   50.9620 C   0  0  0  0  0  0  0  0  0  0  0  0
   49.7070   30.4820   50.4510 C   0  0  0  0  0  0  0  0  0  0  0  0
   49.0400   30.3240   49.2610 C   0  0  0  0  0  0  0  0  0  0  0  0
   48.2660   31.3170   48.6870 C   0  0  0  0  0  0  0  0  0  0  0  0
   44.3630   32.3900   42.9630 Cl  0  0  0  0  0  0  0  0  0  0  0  0
   45.7510   33.3710   42.5990 C   0  0  0  0  0  0  0  0  0  0  0  0
   46.5830   33.8160   43.5700 C   0  0  0  0  0  0  0  0  0  0  0  0
   47.6520   34.5880   43.1630 C   0  0  0  0  0  0  0  0  0  0  0  0
   47.8900   34.9030   41.8790 C   0  0  0  0  0  0  0  0  0  0  0  0
   47.0500   34.4530   40.8900 C   0  0  0  0  0  0  0  0  0  0  0  0
   45.9720   33.6800   41.2690 C   0  0  0  0  0  0  0  0  0  0  0  0
   49.0460   35.7360   41.4410 C   0  0  0  0  0  0  0  0  0  0  0  0
   50.1970   35.0930   41.8120 F   0  0  0  0  0  0  0  0  0  0  0  0
   48.9780   37.0050   41.9820 F   0  0  0  0  0  0  0  0  0  0  0  0
   48.9960   35.8590   40.0610 F   0  0  0  0  0  0  0  0  0  0  0  0
   44.2470   34.1716   47.6191 H   0  0  0  0  0  0  0  0  0  0  0  0
   44.6730   34.8372   45.2386 H   0  0  0  0  0  0  0  0  0  0  0  0
   47.2454   29.7195   45.9387 H   0  0  0  0  0  0  0  0  0  0  0  0
   48.5989   27.8724   46.8692 H   0  0  0  0  0  0  0  0  0  0  0  0
   51.1742   27.3781   50.7082 H   0  0  0  0  0  0  0  0  0  0  0  0
   50.9932   29.5801   51.9157 H   0  0  0  0  0  0  0  0  0  0  0  0
   49.6415   31.4343   50.9977 H   0  0  0  0  0  0  0  0  0  0  0  0
   48.1716   32.2860   49.1990 H   0  0  0  0  0  0  0  0  0  0  0  0
   48.3450   34.9649   43.9296 H   0  0  0  0  0  0  0  0  0  0  0  0
   47.2303   34.7001   39.8334 H   0  0  0  0  0  0  0  0  0  0  0  0
   45.2783   33.3040   40.5026 H   0  0  0  0  0  0  0  0  0  0  0  0
  1  6  2  0
  2  1  1  0
  3  4  1  0
  3  2  2  0
  4  5  2  0
  5  7  1  0
  5  6  1  0
  7 16  2  0
  8  9  2  0
  8  7  1  0
  9 10  1  0
 10 11  2  0
 10 15  1  0
 11 12  1  0
 12 13  2  0
 14 13  1  0
 15 14  2  0
 16 15  1  0
 18 17  1  0
 18 19  2  0
 19  3  1  0
 20 19  1  0
 21 20  2  0
 22 23  2  0
 22 21  1  0
 23 18  1  0
 24 25  1  0
 24 21  1  0
 24 26  1  0
 27 24  1  0
  1 28  1  0
  2 29  1  0
  8 30  1  0
  9 31  1  0
 12 32  1  0
 13 33  1  0
 14 34  1  0
 16 35  1  0
 20 36  1  0
 22 37  1  0
 23 38  1  0
M  ISO  8  28  14  29  14  30  14  31  14  32  14  33  14  34  14  35  14
M  ISO  3  36  14  37  14  38  14
M  END
>  <minimizedAffinity>  (1) 
-7.15255594

>  <minimizedRMSD>  (1) 
1.11725128

$$$$
