
     RDKit          3D

 35 37  0  0  0  0  0  0  0  0999 V2000
   43.9370   32.8430   42.5020 Cl  0  0  0  0  0  0  0  0  0  0  0  0
   45.4370   33.6660   42.1820 C   0  0  0  0  0  0  0  0  0  0  0  0
   46.1340   34.2970   43.1700 C   0  0  0  0  0  0  0  0  0  0  0  0
   47.3040   34.9140   42.8000 C   0  0  0  0  0  0  0  0  0  0  0  0
   47.7650   34.9120   41.5250 C   0  0  0  0  0  0  0  0  0  0  0  0
   47.0610   34.2770   40.5350 C   0  0  0  0  0  0  0  0  0  0  0  0
   45.8910   33.6550   40.8810 C   0  0  0  0  0  0  0  0  0  0  0  0
   44.2800   35.2220   46.3520 C   0  0  0  0  0  0  0  0  0  0  0  0
   44.7870   35.2650   45.0490 C   0  0  0  0  0  0  0  0  0  0  0  0
   45.5960   34.2720   44.5290 C   0  0  0  0  0  0  0  0  0  0  0  0
   45.8730   33.2350   45.3740 N   0  0  0  0  0  0  0  0  0  0  0  0
   45.3850   33.2020   46.6190 C   0  0  0  0  0  0  0  0  0  0  0  0
   44.6020   34.1710   47.1140 N   0  0  0  0  0  0  0  0  0  0  0  0
   45.7350   32.0780   47.4150 N   0  0  0  0  0  0  0  0  0  0  0  0
   45.4370   30.6940   47.1130 C   0  0  0  0  0  0  0  0  0  0  0  0
   45.4100   29.9410   48.4250 C   0  0  0  0  0  0  0  0  0  0  0  0
   45.4950   31.0780   49.4470 C   0  0  0  0  0  0  0  0  0  0  0  0
   46.4510   32.0050   48.6870 C   0  0  0  0  0  0  0  0  0  0  0  0
   49.0370   35.5850   41.1340 C   0  0  0  0  0  0  0  0  0  0  0  0
   50.0700   34.7640   41.4490 F   0  0  0  0  0  0  0  0  0  0  0  0
   49.1490   36.8360   41.7500 F   0  0  0  0  0  0  0  0  0  0  0  0
   48.9970   35.8030   39.7610 F   0  0  0  0  0  0  0  0  0  0  0  0
   47.8925   35.4322   43.5715 H   0  0  0  0  0  0  0  0  0  0  0  0
   47.4239   34.2673   39.4966 H   0  0  0  0  0  0  0  0  0  0  0  0
   45.3039   33.1381   40.1076 H   0  0  0  0  0  0  0  0  0  0  0  0
   43.6370   36.0269   46.7377 H   0  0  0  0  0  0  0  0  0  0  0  0
   44.5314   36.1245   44.4118 H   0  0  0  0  0  0  0  0  0  0  0  0
   44.4582   30.6197   46.6165 H   0  0  0  0  0  0  0  0  0  0  0  0
   46.1957   30.2714   46.4379 H   0  0  0  0  0  0  0  0  0  0  0  0
   44.4766   29.3702   48.5390 H   0  0  0  0  0  0  0  0  0  0  0  0
   46.2120   29.1947   48.5244 H   0  0  0  0  0  0  0  0  0  0  0  0
   44.5166   31.5485   49.6242 H   0  0  0  0  0  0  0  0  0  0  0  0
   45.8189   30.7860   50.4568 H   0  0  0  0  0  0  0  0  0  0  0  0
   47.4513   31.5619   48.5725 H   0  0  0  0  0  0  0  0  0  0  0  0
   46.6570   32.9715   49.1702 H   0  0  0  0  0  0  0  0  0  0  0  0
  2  1  1  0
  2  3  2  0
  3 10  1  0
  4  3  1  0
  5  4  2  0
  6  7  2  0
  6  5  1  0
  7  2  1  0
  8 13  2  0
  9  8  1  0
 10  9  2  0
 10 11  1  0
 11 12  2  0
 12 13  1  0
 12 14  1  0
 14 18  1  0
 15 14  1  0
 15 16  1  0
 16 17  1  0
 18 17  1  0
 19 20  1  0
 19  5  1  0
 19 21  1  0
 22 19  1  0
  4 23  1  0
  6 24  1  0
  7 25  1  0
  8 26  1  0
  9 27  1  0
 15 28  1  0
 15 29  1  0
 16 30  1  0
 16 31  1  0
 17 32  1  0
 17 33  1  0
 18 34  1  0
 18 35  1  0
M  ISO  8  23  14  24  14  25  14  26  14  27  14  28  13  29  13  30  13
M  ISO  5  31  13  32  13  33  13  34  13  35  13
M  END
>  <minimizedAffinity>  (1) 
-6.40687466

>  <minimizedRMSD>  (1) 
0.972814322

$$$$
