
     RDKit          3D

 33 35  0  0  0  0  0  0  0  0999 V2000
   45.0330   33.6650   47.0310 C   0  0  0  0  0  0  0  0  0  0  0  0
   45.2900   34.0120   45.7050 C   0  0  0  0  0  0  0  0  0  0  0  0
   46.3260   33.4630   44.9750 C   0  0  0  0  0  0  0  0  0  0  0  0
   47.0940   32.5530   45.6240 N   0  0  0  0  0  0  0  0  0  0  0  0
   46.8480   32.2130   46.9100 C   0  0  0  0  0  0  0  0  0  0  0  0
   45.8200   32.7710   47.6060 N   0  0  0  0  0  0  0  0  0  0  0  0
   44.3700   32.3890   42.9900 Cl  0  0  0  0  0  0  0  0  0  0  0  0
   45.7560   33.3660   42.6220 C   0  0  0  0  0  0  0  0  0  0  0  0
   46.6020   33.8180   43.5920 C   0  0  0  0  0  0  0  0  0  0  0  0
   47.6630   34.5850   43.1590 C   0  0  0  0  0  0  0  0  0  0  0  0
   47.8910   34.8960   41.8670 C   0  0  0  0  0  0  0  0  0  0  0  0
   47.0370   34.4390   40.9020 C   0  0  0  0  0  0  0  0  0  0  0  0
   45.9660   33.6710   41.2870 C   0  0  0  0  0  0  0  0  0  0  0  0
   49.0480   35.7280   41.4330 C   0  0  0  0  0  0  0  0  0  0  0  0
   50.1880   35.0900   41.7840 F   0  0  0  0  0  0  0  0  0  0  0  0
   48.9690   37.0120   41.9660 F   0  0  0  0  0  0  0  0  0  0  0  0
   48.9760   35.8530   40.0440 F   0  0  0  0  0  0  0  0  0  0  0  0
   47.6780   31.2290   47.6140 C   0  0  0  0  0  0  0  0  0  0  0  0
   48.1850   31.5150   48.8650 C   0  0  0  0  0  0  0  0  0  0  0  0
   48.9800   30.5970   49.5600 C   0  0  0  0  0  0  0  0  0  0  0  0
   49.2740   29.3600   48.9860 C   0  0  0  0  0  0  0  0  0  0  0  0
   48.7610   29.0840   47.7350 C   0  0  0  0  0  0  0  0  0  0  0  0
   47.9820   30.0170   47.0820 C   0  0  0  0  0  0  0  0  0  0  0  0
   44.1988   34.1222   47.5834 H   0  0  0  0  0  0  0  0  0  0  0  0
   44.6398   34.7548   45.2197 H   0  0  0  0  0  0  0  0  0  0  0  0
   48.3664   34.9665   43.9138 H   0  0  0  0  0  0  0  0  0  0  0  0
   47.2041   34.6810   39.8420 H   0  0  0  0  0  0  0  0  0  0  0  0
   45.2665   33.2935   40.5266 H   0  0  0  0  0  0  0  0  0  0  0  0
   47.9589   32.4875   49.3267 H   0  0  0  0  0  0  0  0  0  0  0  0
   49.3721   30.8500   50.5561 H   0  0  0  0  0  0  0  0  0  0  0  0
   49.8975   28.6249   49.5159 H   0  0  0  0  0  0  0  0  0  0  0  0
   48.9739   28.1166   47.2566 H   0  0  0  0  0  0  0  0  0  0  0  0
   47.5893   29.7678   46.0852 H   0  0  0  0  0  0  0  0  0  0  0  0
  1  6  2  0
  2  1  1  0
  3  4  1  0
  3  2  2  0
  4  5  2  0
  5  6  1  0
  5 18  1  0
  8  7  1  0
  8  9  2  0
  9  3  1  0
 10  9  1  0
 11 10  2  0
 12 13  2  0
 12 11  1  0
 13  8  1  0
 14 15  1  0
 14 11  1  0
 14 16  1  0
 17 14  1  0
 18 19  2  0
 19 20  1  0
 21 20  2  0
 22 21  1  0
 23 18  1  0
 23 22  2  0
  1 24  1  0
  2 25  1  0
 10 26  1  0
 12 27  1  0
 13 28  1  0
 19 29  1  0
 20 30  1  0
 21 31  1  0
 22 32  1  0
 23 33  1  0
M  ISO  8  24  14  25  14  26  14  27  14  28  14  29  14  30  14  31  14
M  ISO  2  32  14  33  14
M  END
>  <minimizedAffinity>  (1) 
-6.26895285

>  <minimizedRMSD>  (1) 
0.977961838

$$$$
