
     RDKit          3D

 32 34  0  0  0  0  0  0  0  0999 V2000
   45.0140   33.6910   47.0230 C   0  0  0  0  0  0  0  0  0  0  0  0
   45.2690   34.0420   45.6920 C   0  0  0  0  0  0  0  0  0  0  0  0
   46.3080   33.4790   44.9760 C   0  0  0  0  0  0  0  0  0  0  0  0
   47.0680   32.5660   45.6380 N   0  0  0  0  0  0  0  0  0  0  0  0
   46.8140   32.2360   46.9150 C   0  0  0  0  0  0  0  0  0  0  0  0
   45.7940   32.7940   47.6060 N   0  0  0  0  0  0  0  0  0  0  0  0
   44.3760   32.3620   42.9830 Cl  0  0  0  0  0  0  0  0  0  0  0  0
   45.7660   33.3530   42.6170 C   0  0  0  0  0  0  0  0  0  0  0  0
   46.5990   33.8240   43.5870 C   0  0  0  0  0  0  0  0  0  0  0  0
   47.6490   34.5880   43.1600 C   0  0  0  0  0  0  0  0  0  0  0  0
   47.8920   34.8900   41.8680 C   0  0  0  0  0  0  0  0  0  0  0  0
   47.0520   34.4140   40.8930 C   0  0  0  0  0  0  0  0  0  0  0  0
   45.9830   33.6410   41.2820 C   0  0  0  0  0  0  0  0  0  0  0  0
   49.0420   35.7240   41.4330 C   0  0  0  0  0  0  0  0  0  0  0  0
   50.1950   35.0840   41.7890 F   0  0  0  0  0  0  0  0  0  0  0  0
   48.9610   37.0030   41.9740 F   0  0  0  0  0  0  0  0  0  0  0  0
   48.9850   35.8490   40.0530 F   0  0  0  0  0  0  0  0  0  0  0  0
   47.6470   31.2510   47.6010 C   0  0  0  0  0  0  0  0  0  0  0  0
   48.1580   31.5530   48.8650 C   0  0  0  0  0  0  0  0  0  0  0  0
   48.9450   30.5590   49.4530 C   0  0  0  0  0  0  0  0  0  0  0  0
   49.2320   29.3560   48.8810 C   0  0  0  0  0  0  0  0  0  0  0  0
   48.6960   29.1150   47.6230 C   0  0  0  0  0  0  0  0  0  0  0  0
   47.9380   30.0610   47.0460 N   0  0  0  0  0  0  0  0  0  0  0  0
   44.1811   34.1519   47.5742 H   0  0  0  0  0  0  0  0  0  0  0  0
   44.6242   34.7868   45.2025 H   0  0  0  0  0  0  0  0  0  0  0  0
   48.3406   34.9821   43.9192 H   0  0  0  0  0  0  0  0  0  0  0  0
   47.2283   34.6438   39.8318 H   0  0  0  0  0  0  0  0  0  0  0  0
   45.2922   33.2471   40.5219 H   0  0  0  0  0  0  0  0  0  0  0  0
   47.9543   32.5112   49.3654 H   0  0  0  0  0  0  0  0  0  0  0  0
   49.3631   30.7625   50.4499 H   0  0  0  0  0  0  0  0  0  0  0  0
   49.8591   28.6106   49.3920 H   0  0  0  0  0  0  0  0  0  0  0  0
   48.8896   28.1631   47.1068 H   0  0  0  0  0  0  0  0  0  0  0  0
  1  6  2  0
  2  1  1  0
  3  4  1  0
  3  2  2  0
  4  5  2  0
  5 18  1  0
  5  6  1  0
  8  7  1  0
  8  9  2  0
  9  3  1  0
 10  9  1  0
 11 10  2  0
 12 13  2  0
 12 11  1  0
 13  8  1  0
 14 15  1  0
 14 11  1  0
 14 16  1  0
 17 14  1  0
 18 19  2  0
 19 20  1  0
 21 20  2  0
 22 21  1  0
 23 18  1  0
 23 22  2  0
  1 24  1  0
  2 25  1  0
 10 26  1  0
 12 27  1  0
 13 28  1  0
 19 29  1  0
 20 30  1  0
 21 31  1  0
 22 32  1  0
M  ISO  8  24  14  25  14  26  14  27  14  28  14  29  14  30  14  31  14
M  ISO  1  32  14
M  END
>  <minimizedAffinity>  (1) 
-6.13581085

>  <minimizedRMSD>  (1) 
1.01741123

$$$$
